=
 OpenBabel10262423193D

 34 40  0  0  1  0  0  0  0  0999 V2000
  188.0590  177.3750  138.9530 C   0  0  0  0  0  3  0  0  0  0  0  0
  190.4490  175.7890  138.2450 C   0  0  0  0  0  2  0  0  0  0  0  0
  187.6140  175.0410  136.0300 C   0  0  2  0  0  0  0  0  0  0  0  0
  186.9780  176.1020  136.9600 C   0  0  0  0  0  2  0  0  0  0  0  0
  188.0890  176.4470  137.8850 C   0  0  0  0  0  0  0  0  0  0  0  0
  191.2120  177.2660  140.3760 N   0  0  0  0  0  0  0  0  0  0  0  0
  188.9670  174.8840  136.4710 O   0  0  0  0  0  0  0  0  0  0  0  0
  189.2220  175.7000  137.5500 C   0  0  0  0  0  0  0  0  0  0  0  0
  187.5970  175.5370  134.5960 C   0  0  0  0  0  1  0  0  0  0  0  0
  190.4090  176.7000  139.2920 C   0  0  2  0  0  0  0  0  0  0  0  0
  189.2680  177.4600  139.6310 C   0  0  0  0  0  0  0  0  0  0  0  0
  190.0580  178.0420  140.6850 C   0  0  2  0  0  0  0  0  0  0  0  0
  187.4490  176.1470  143.3490 C   0  0  0  0  0  2  0  0  0  0  0  0
  189.6320  176.3420  142.3360 O   0  0  0  0  0  0  0  0  0  0  0  0
  187.1940  177.6410  143.2540 C   0  0  1  0  0  3  0  0  0  0  0  0
  187.9190  179.6030  142.0460 O   0  0  0  0  0  1  0  0  0  0  0  0
  188.0160  178.2090  142.0950 C   0  0  1  0  0  3  0  0  0  0  0  0
  188.9440  175.9320  143.4960 C   0  0  0  0  0  2  0  0  0  0  0  0
  189.5050  177.7460  142.1040 C   0  0  2  0  0  0  0  0  0  0  0  0
  185.7710  177.8820  143.0360 N   0  0  0  0  0  0  0  0  0  0  0  0
  185.4920  179.2720  143.4420 C   0  0  0  0  0  2  0  0  0  0  0  0
  185.1740  178.1800  144.3510 C   0  0  0  0  0  2  0  0  0  0  0  0
  190.3890  178.5750  143.0770 C   0  0  0  0  0  2  0  0  0  0  0  0
  189.5730  178.4170  145.5160 C   0  0  0  0  0  3  0  0  0  0  0  0
  190.3760  176.5100  146.8590 C   0  0  0  0  0  2  0  0  0  0  0  0
  189.5120  177.7260  146.6580 C   0  0  0  0  0  3  0  0  0  0  0  0
  191.5300  177.1800  144.7490 C   0  0  0  0  0  3  0  0  0  0  0  0
  190.5530  178.0520  144.4710 C   0  0  0  0  0  0  0  0  0  0  0  0
  191.7270  176.6840  146.1560 C   0  0  0  0  0  2  0  0  0  0  0  0
  186.8750  173.7400  136.1260 C   0  0  0  0  0  0  0  0  0  0  0  0
  186.5840  173.0120  134.9780 O   0  0  0  0  0  0  0  0  0  0  0  0
  186.5550  173.2720  137.2520 O   0  0  0  0  0  1  0  0  0  0  0  0
  192.5720  177.1260  140.8640 C   0  0  0  0  0  2  0  0  0  0  0  0
  193.4660  177.2640  139.8040 O   0  0  0  0  0  1  0  0  0  0  0  0
  1 11  2  0  0  0  0
  3  9  1  6  0  0  0
  3 30  1  0  0  0  0
  3  7  1  0  0  0  0
  3  4  1  0  0  0  0
  4  5  1  0  0  0  0
  5  1  1  0  0  0  0
  6 12  1  0  0  0  0
  6 33  1  0  0  0  0
  7  8  1  0  0  0  0
  8  5  2  0  0  0  0
  8  2  1  0  0  0  0
 10  2  1  6  0  0  0
 10 11  1  0  0  0  0
 10  6  1  0  0  0  0
 10 12  1  0  0  0  0
 12 11  1  6  0  0  0
 12 19  1  0  0  0  0
 13 18  1  0  0  0  0
 14 18  1  0  0  0  0
 15 20  1  6  0  0  0
 15 13  1  0  0  0  0
 17 16  1  1  0  0  0
 17 19  1  0  0  0  0
 17 15  1  0  0  0  0
 19 14  1  0  0  0  0
 19 23  1  1  0  0  0
 20 21  1  0  0  0  0
 20 22  1  0  0  0  0
 21 22  1  0  0  0  0
 23 28  1  0  0  0  0
 24 26  2  0  0  0  0
 26 25  1  0  0  0  0
 27 29  1  0  0  0  0
 28 27  2  0  0  0  0
 28 24  1  0  0  0  0
 29 25  1  0  0  0  0
 30 32  1  0  0  0  0
 31 30  2  0  0  0  0
 34 33  1  0  0  0  0
M  END
>  <MODEL>
1

>  <REMARK>
 VINA RESULT:      -6.8      0.000      0.000
  Name = 
  6 active torsions:
  status: ('A' for Active; 'I' for Inactive)
    1  A    between atoms: C_1  and  C_20
    2  A    between atoms: C_1  and  C_34
    3  A    between atoms: N_3  and  C_23
    4  A    between atoms: C_7  and  C_11
    5  A    between atoms: C_8  and  N_18
    6  A    between atoms: C_33  and  C_34
                            x       y       z     vdW  Elec       q    Type
                         _______ _______ _______ _____ _____    ______ ____

>  <TORSDO>
F 6

$$$$
=
 OpenBabel10262423193D

 34 40  0  0  1  0  0  0  0  0999 V2000
  188.2950  178.1450  139.4640 C   0  0  0  0  0  3  0  0  0  0  0  0
  190.2820  176.7470  137.7830 C   0  0  0  0  0  2  0  0  0  0  0  0
  187.0220  177.0070  136.1070 C   0  0  2  0  0  0  0  0  0  0  0  0
  186.7130  177.7190  137.4450 C   0  0  0  0  0  2  0  0  0  0  0  0
  188.0070  177.6460  138.1710 C   0  0  0  0  0  0  0  0  0  0  0  0
  191.6070  177.3380  140.0630 N   0  0  0  0  0  0  0  0  0  0  0  0
  188.3970  176.6160  136.1710 O   0  0  0  0  0  0  0  0  0  0  0  0
  188.9500  176.9870  137.3770 C   0  0  0  0  0  0  0  0  0  0  0  0
  186.8160  177.9690  134.9520 C   0  0  0  0  0  1  0  0  0  0  0  0
  190.5540  177.2380  139.0520 C   0  0  2  0  0  0  0  0  0  0  0  0
  189.6060  177.9080  139.8560 C   0  0  0  0  0  0  0  0  0  0  0  0
  190.6430  178.0340  140.8480 C   0  0  2  0  0  0  0  0  0  0  0  0
  188.0730  176.0170  143.4590 C   0  0  0  0  0  2  0  0  0  0  0  0
  189.8720  175.9850  141.8480 O   0  0  0  0  0  0  0  0  0  0  0  0
  188.4730  177.3850  143.9830 C   0  0  1  0  0  3  0  0  0  0  0  0
  189.7100  179.3590  143.3450 O   0  0  0  0  0  1  0  0  0  0  0  0
  189.2050  178.1440  142.8740 C   0  0  1  0  0  3  0  0  0  0  0  0
  189.3260  175.3170  142.9640 C   0  0  0  0  0  2  0  0  0  0  0  0
  190.3170  177.3030  142.1760 C   0  0  2  0  0  0  0  0  0  0  0  0
  187.2810  178.1170  144.3990 N   0  0  0  0  0  0  0  0  0  0  0  0
  187.3740  178.3190  145.8570 C   0  0  0  0  0  2  0  0  0  0  0  0
  186.5400  177.2470  145.3320 C   0  0  0  0  0  2  0  0  0  0  0  0
  191.6490  177.2800  142.9770 C   0  0  0  0  0  2  0  0  0  0  0  0
  191.9860  175.2130  144.4780 C   0  0  0  0  0  3  0  0  0  0  0  0
  192.3390  175.6070  146.8880 C   0  0  0  0  0  2  0  0  0  0  0  0
  192.2800  174.7090  145.6810 C   0  0  0  0  0  3  0  0  0  0  0  0
  191.3720  177.3780  145.4180 C   0  0  0  0  0  3  0  0  0  0  0  0
  191.6260  176.6390  144.3310 C   0  0  0  0  0  0  0  0  0  0  0  0
  191.3050  176.7320  146.7760 C   0  0  0  0  0  2  0  0  0  0  0  0
  186.1420  175.8060  135.9290 C   0  0  0  0  0  0  0  0  0  0  0  0
  186.1960  174.7560  136.8390 O   0  0  0  0  0  1  0  0  0  0  0  0
  185.3110  175.7600  134.9820 O   0  0  0  0  0  0  0  0  0  0  0  0
  193.0000  176.9460  140.1750 C   0  0  0  0  0  2  0  0  0  0  0  0
  193.6070  177.0100  138.9220 O   0  0  0  0  0  1  0  0  0  0  0  0
  1 11  2  0  0  0  0
  3  9  1  6  0  0  0
  3  7  1  0  0  0  0
  3  4  1  0  0  0  0
  4  5  1  0  0  0  0
  5  1  1  0  0  0  0
  6 33  1  0  0  0  0
  6 12  1  0  0  0  0
  7  8  1  0  0  0  0
  8  2  1  0  0  0  0
  8  5  2  0  0  0  0
 10  2  1  6  0  0  0
 10 11  1  0  0  0  0
 10  6  1  0  0  0  0
 10 12  1  0  0  0  0
 12 11  1  1  0  0  0
 12 19  1  0  0  0  0
 14 19  1  0  0  0  0
 14 18  1  0  0  0  0
 15 13  1  6  0  0  0
 15 20  1  0  0  0  0
 17 16  1  1  0  0  0
 17 15  1  0  0  0  0
 18 13  1  0  0  0  0
 19 17  1  0  0  0  0
 19 23  1  1  0  0  0
 20 22  1  0  0  0  0
 20 21  1  0  0  0  0
 22 21  1  0  0  0  0
 23 28  1  0  0  0  0
 24 26  2  0  0  0  0
 26 25  1  0  0  0  0
 27 29  1  0  0  0  0
 28 24  1  0  0  0  0
 28 27  2  0  0  0  0
 29 25  1  0  0  0  0
 30  3  1  0  0  0  0
 30 31  1  0  0  0  0
 32 30  2  0  0  0  0
 34 33  1  0  0  0  0
M  END
>  <MODEL>
2

>  <REMARK>
 VINA RESULT:      -6.7      1.495      1.932
  Name = 
  6 active torsions:
  status: ('A' for Active; 'I' for Inactive)
    1  A    between atoms: C_1  and  C_20
    2  A    between atoms: C_1  and  C_34
    3  A    between atoms: N_3  and  C_23
    4  A    between atoms: C_7  and  C_11
    5  A    between atoms: C_8  and  N_18
    6  A    between atoms: C_33  and  C_34
                            x       y       z     vdW  Elec       q    Type
                         _______ _______ _______ _____ _____    ______ ____

>  <TORSDO>
F 6

$$$$
=
 OpenBabel10262423193D

 34 40  0  0  1  0  0  0  0  0999 V2000
  190.1020  177.6790  139.3640 C   0  0  0  0  0  3  0  0  0  0  0  0
  187.8360  178.2670  141.1670 C   0  0  0  0  0  2  0  0  0  0  0  0
  190.9320  177.6190  143.0380 C   0  0  2  0  0  0  0  0  0  0  0  0
  191.4350  177.4510  141.5840 C   0  0  0  0  0  2  0  0  0  0  0  0
  190.2160  177.7060  140.7740 C   0  0  0  0  0  0  0  0  0  0  0  0
  186.7840  178.3870  138.6800 N   0  0  0  0  0  0  0  0  0  0  0  0
  189.5420  177.9480  142.9420 O   0  0  0  0  0  0  0  0  0  0  0  0
  189.1430  177.9870  141.6250 C   0  0  0  0  0  0  0  0  0  0  0  0
  191.6820  178.7500  143.7160 C   0  0  0  0  0  1  0  0  0  0  0  0
  187.7340  178.2360  139.7820 C   0  0  2  0  0  0  0  0  0  0  0  0
  188.8160  177.9570  138.9200 C   0  0  0  0  0  0  0  0  0  0  0  0
  187.8950  178.1290  137.8260 C   0  0  2  0  0  0  0  0  0  0  0  0
  188.4010  174.0470  137.0680 C   0  0  0  0  0  2  0  0  0  0  0  0
  187.0110  175.8910  137.7770 O   0  0  0  0  0  0  0  0  0  0  0  0
  189.1800  174.9170  136.0970 C   0  0  1  0  0  3  0  0  0  0  0  0
  189.7270  177.2280  135.6600 O   0  0  0  0  0  1  0  0  0  0  0  0
  189.1360  176.3660  136.5870 C   0  0  1  0  0  3  0  0  0  0  0  0
  186.9970  174.6110  137.1850 C   0  0  0  0  0  2  0  0  0  0  0  0
  187.7040  176.8480  136.9740 C   0  0  2  0  0  0  0  0  0  0  0  0
  190.5590  174.4470  136.0180 N   0  0  0  0  0  0  0  0  0  0  0  0
  190.9400  174.4360  134.5940 C   0  0  0  0  0  2  0  0  0  0  0  0
  190.5480  173.1930  135.2430 C   0  0  0  0  0  2  0  0  0  0  0  0
  186.8620  177.2860  135.7430 C   0  0  0  0  0  2  0  0  0  0  0  0
  185.5560  175.3860  134.5940 C   0  0  0  0  0  3  0  0  0  0  0  0
  183.4030  174.7200  135.5980 C   0  0  0  0  0  2  0  0  0  0  0  0
  184.5200  174.5420  134.6040 C   0  0  0  0  0  3  0  0  0  0  0  0
  184.4690  176.9070  136.1600 C   0  0  0  0  0  3  0  0  0  0  0  0
  185.5780  176.5580  135.4950 C   0  0  0  0  0  0  0  0  0  0  0  0
  183.1650  176.2070  135.8830 C   0  0  0  0  0  2  0  0  0  0  0  0
  191.1190  176.3490  143.8140 C   0  0  0  0  0  0  0  0  0  0  0  0
  190.7520  175.1280  143.2600 O   0  0  0  0  0  0  0  0  0  0  0  0
  191.6560  176.3740  144.9540 O   0  0  0  0  0  1  0  0  0  0  0  0
  185.3750  178.7050  138.5400 C   0  0  0  0  0  2  0  0  0  0  0  0
  184.9320  179.3820  139.6740 O   0  0  0  0  0  1  0  0  0  0  0  0
  1  5  1  0  0  0  0
  2  8  1  0  0  0  0
  3  9  1  1  0  0  0
  3 30  1  0  0  0  0
  4  3  1  0  0  0  0
  5  4  1  0  0  0  0
  5  8  2  0  0  0  0
  6 10  1  0  0  0  0
  7  3  1  0  0  0  0
  8  7  1  0  0  0  0
 10  2  1  6  0  0  0
 11  1  2  0  0  0  0
 11 10  1  0  0  0  0
 12  6  1  0  0  0  0
 12 11  1  6  0  0  0
 12 10  1  0  0  0  0
 13 18  1  0  0  0  0
 15 20  1  1  0  0  0
 15 17  1  0  0  0  0
 15 13  1  0  0  0  0
 17 16  1  6  0  0  0
 17 19  1  0  0  0  0
 18 14  1  0  0  0  0
 19 23  1  6  0  0  0
 19 14  1  0  0  0  0
 19 12  1  0  0  0  0
 21 22  1  0  0  0  0
 21 20  1  0  0  0  0
 22 20  1  0  0  0  0
 24 26  2  0  0  0  0
 24 28  1  0  0  0  0
 25 29  1  0  0  0  0
 26 25  1  0  0  0  0
 28 23  1  0  0  0  0
 28 27  2  0  0  0  0
 29 27  1  0  0  0  0
 30 32  1  0  0  0  0
 31 30  2  0  0  0  0
 33  6  1  0  0  0  0
 33 34  1  0  0  0  0
M  END
>  <MODEL>
3

>  <REMARK>
 VINA RESULT:      -6.5      2.541      8.431
  Name = 
  6 active torsions:
  status: ('A' for Active; 'I' for Inactive)
    1  A    between atoms: C_1  and  C_20
    2  A    between atoms: C_1  and  C_34
    3  A    between atoms: N_3  and  C_23
    4  A    between atoms: C_7  and  C_11
    5  A    between atoms: C_8  and  N_18
    6  A    between atoms: C_33  and  C_34
                            x       y       z     vdW  Elec       q    Type
                         _______ _______ _______ _____ _____    ______ ____

>  <TORSDO>
F 6

$$$$
=
 OpenBabel10262423193D

 34 40  0  0  1  0  0  0  0  0999 V2000
  187.0350  178.7290  140.5620 C   0  0  0  0  0  3  0  0  0  0  0  0
  185.6900  177.9300  143.0690 C   0  0  0  0  0  2  0  0  0  0  0  0
  189.3360  177.5210  143.2880 C   0  0  2  0  0  0  0  0  0  0  0  0
  189.1950  178.0640  141.8460 C   0  0  0  0  0  2  0  0  0  0  0  0
  187.7290  178.2520  141.6990 C   0  0  0  0  0  0  0  0  0  0  0  0
  183.6830  178.6800  141.4230 N   0  0  0  0  0  0  0  0  0  0  0  0
  188.0090  177.4580  143.8210 O   0  0  0  0  0  0  0  0  0  0  0  0
  187.0910  177.8770  142.8850 C   0  0  0  0  0  0  0  0  0  0  0  0
  190.1770  178.4740  144.1180 C   0  0  0  0  0  1  0  0  0  0  0  0
  185.0190  178.3970  141.9480 C   0  0  2  0  0  0  0  0  0  0  0  0
  185.6600  178.7810  140.7490 C   0  0  0  0  0  0  0  0  0  0  0  0
  184.3510  179.0870  140.2320 C   0  0  2  0  0  0  0  0  0  0  0  0
  184.4260  175.5710  137.9680 C   0  0  0  0  0  2  0  0  0  0  0  0
  183.2860  177.0600  139.4900 O   0  0  0  0  0  0  0  0  0  0  0  0
  185.1550  176.7150  137.2850 C   0  0  1  0  0  3  0  0  0  0  0  0
  185.8360  179.0020  137.6540 O   0  0  0  0  0  1  0  0  0  0  0  0
  185.2880  177.8760  138.2730 C   0  0  1  0  0  3  0  0  0  0  0  0
  183.0970  176.0960  138.4770 C   0  0  0  0  0  2  0  0  0  0  0  0
  183.9560  178.2240  139.0050 C   0  0  2  0  0  0  0  0  0  0  0  0
  186.4720  176.2640  136.8470 N   0  0  0  0  0  0  0  0  0  0  0  0
  186.7550  176.9160  135.5560 C   0  0  0  0  0  2  0  0  0  0  0  0
  186.2840  175.5380  135.5780 C   0  0  0  0  0  2  0  0  0  0  0  0
  183.0150  179.1190  138.1510 C   0  0  0  0  0  2  0  0  0  0  0  0
  181.4130  180.8410  139.2020 C   0  0  0  0  0  3  0  0  0  0  0  0
  178.9980  180.3460  139.1110 C   0  0  0  0  0  2  0  0  0  0  0  0
  180.1600  181.2510  139.4240 C   0  0  0  0  0  3  0  0  0  0  0  0
  180.6980  178.5540  138.7460 C   0  0  0  0  0  3  0  0  0  0  0  0
  181.6800  179.4640  138.7350 C   0  0  0  0  0  0  0  0  0  0  0  0
  179.3670  178.8810  139.3700 C   0  0  0  0  0  2  0  0  0  0  0  0
  189.9670  176.1610  143.2840 C   0  0  0  0  0  0  0  0  0  0  0  0
  191.2380  175.9760  143.8160 O   0  0  0  0  0  1  0  0  0  0  0  0
  189.3310  175.1660  142.8440 O   0  0  0  0  0  0  0  0  0  0  0  0
  182.3200  178.6170  141.9200 C   0  0  0  0  0  2  0  0  0  0  0  0
  182.2910  179.0080  143.2570 O   0  0  0  0  0  1  0  0  0  0  0  0
  1 11  2  0  0  0  0
  1  5  1  0  0  0  0
  3  7  1  0  0  0  0
  3  9  1  1  0  0  0
  4  3  1  0  0  0  0
  5  4  1  0  0  0  0
  5  8  2  0  0  0  0
  6 33  1  0  0  0  0
  6 10  1  0  0  0  0
  8  2  1  0  0  0  0
  8  7  1  0  0  0  0
 10  2  1  1  0  0  0
 11 10  1  0  0  0  0
 12 11  1  6  0  0  0
 12  6  1  0  0  0  0
 12 10  1  0  0  0  0
 13 18  1  0  0  0  0
 15 20  1  1  0  0  0
 15 13  1  0  0  0  0
 15 17  1  0  0  0  0
 17 16  1  6  0  0  0
 17 19  1  0  0  0  0
 18 14  1  0  0  0  0
 19 23  1  6  0  0  0
 19 14  1  0  0  0  0
 19 12  1  0  0  0  0
 21 22  1  0  0  0  0
 21 20  1  0  0  0  0
 22 20  1  0  0  0  0
 23 28  1  0  0  0  0
 24 26  2  0  0  0  0
 25 29  1  0  0  0  0
 25 26  1  0  0  0  0
 27 29  1  0  0  0  0
 28 27  2  0  0  0  0
 28 24  1  0  0  0  0
 30  3  1  0  0  0  0
 30 31  1  0  0  0  0
 32 30  2  0  0  0  0
 33 34  1  0  0  0  0
M  END
>  <MODEL>
4

>  <REMARK>
 VINA RESULT:      -6.4      4.051      8.538
  Name = 
  6 active torsions:
  status: ('A' for Active; 'I' for Inactive)
    1  A    between atoms: C_1  and  C_20
    2  A    between atoms: C_1  and  C_34
    3  A    between atoms: N_3  and  C_23
    4  A    between atoms: C_7  and  C_11
    5  A    between atoms: C_8  and  N_18
    6  A    between atoms: C_33  and  C_34
                            x       y       z     vdW  Elec       q    Type
                         _______ _______ _______ _____ _____    ______ ____

>  <TORSDO>
F 6

$$$$
=
 OpenBabel10262423193D

 34 40  0  0  1  0  0  0  0  0999 V2000
  190.9940  177.3530  139.5240 C   0  0  0  0  0  3  0  0  0  0  0  0
  188.3410  177.7900  140.7520 C   0  0  0  0  0  2  0  0  0  0  0  0
  191.0150  177.7320  143.2720 C   0  0  2  0  0  0  0  0  0  0  0  0
  191.8350  177.5040  141.9800 C   0  0  0  0  0  2  0  0  0  0  0  0
  190.7980  177.5200  140.9160 C   0  0  0  0  0  0  0  0  0  0  0  0
  187.8420  177.5460  138.1070 N   0  0  0  0  0  0  0  0  0  0  0  0
  189.6510  177.8620  142.8610 O   0  0  0  0  0  0  0  0  0  0  0  0
  189.5420  177.7300  141.4940 C   0  0  0  0  0  0  0  0  0  0  0  0
  191.4700  179.0100  143.9530 C   0  0  0  0  0  1  0  0  0  0  0  0
  188.5430  177.6230  139.3890 C   0  0  2  0  0  0  0  0  0  0  0  0
  189.8100  177.4160  138.8000 C   0  0  0  0  0  0  0  0  0  0  0  0
  189.1320  177.3640  137.5300 C   0  0  2  0  0  0  0  0  0  0  0  0
  191.2320  173.9010  136.4880 C   0  0  0  0  0  2  0  0  0  0  0  0
  189.5380  175.0080  137.8070 O   0  0  0  0  0  0  0  0  0  0  0  0
  191.0090  174.8210  135.3010 C   0  0  1  0  0  3  0  0  0  0  0  0
  190.1110  176.9930  134.7440 O   0  0  0  0  0  1  0  0  0  0  0  0
  190.4570  176.1560  135.8090 C   0  0  1  0  0  3  0  0  0  0  0  0
  189.9200  173.7740  137.2400 C   0  0  0  0  0  2  0  0  0  0  0  0
  189.2740  175.9980  136.8110 C   0  0  2  0  0  0  0  0  0  0  0  0
  192.2710  175.0260  134.5970 N   0  0  0  0  0  0  0  0  0  0  0  0
  193.2880  174.1930  135.2630 C   0  0  0  0  0  2  0  0  0  0  0  0
  193.2170  175.6160  135.5610 C   0  0  0  0  0  2  0  0  0  0  0  0
  187.9120  175.7550  136.1040 C   0  0  0  0  0  2  0  0  0  0  0  0
  186.4370  174.0330  137.3280 C   0  0  0  0  0  3  0  0  0  0  0  0
  185.6060  172.1160  136.0160 C   0  0  0  0  0  2  0  0  0  0  0  0
  185.6590  172.9480  137.2700 C   0  0  0  0  0  3  0  0  0  0  0  0
  187.5230  173.4980  135.2100 C   0  0  0  0  0  3  0  0  0  0  0  0
  187.3240  174.3810  136.1970 C   0  0  0  0  0  0  0  0  0  0  0  0
  186.9710  172.1020  135.3180 C   0  0  0  0  0  2  0  0  0  0  0  0
  191.1730  176.5730  144.2110 C   0  0  0  0  0  0  0  0  0  0  0  0
  190.6230  176.6250  145.4870 O   0  0  0  0  0  1  0  0  0  0  0  0
  191.7620  175.5250  143.8350 O   0  0  0  0  0  0  0  0  0  0  0  0
  186.4690  177.6590  137.6490 C   0  0  0  0  0  2  0  0  0  0  0  0
  185.8250  178.6790  138.3460 O   0  0  0  0  0  1  0  0  0  0  0  0
  1  5  1  0  0  0  0
  2  8  1  0  0  0  0
  3  9  1  1  0  0  0
  3 30  1  0  0  0  0
  4  3  1  0  0  0  0
  5  8  2  0  0  0  0
  5  4  1  0  0  0  0
  6 10  1  0  0  0  0
  7  3  1  0  0  0  0
  8  7  1  0  0  0  0
 10  2  1  6  0  0  0
 11 10  1  0  0  0  0
 11  1  2  0  0  0  0
 12  6  1  0  0  0  0
 12 11  1  6  0  0  0
 12 10  1  0  0  0  0
 13 18  1  0  0  0  0
 15 20  1  1  0  0  0
 15 17  1  0  0  0  0
 15 13  1  0  0  0  0
 17 16  1  6  0  0  0
 17 19  1  0  0  0  0
 18 14  1  0  0  0  0
 19 23  1  6  0  0  0
 19 12  1  0  0  0  0
 19 14  1  0  0  0  0
 20 21  1  0  0  0  0
 20 22  1  0  0  0  0
 21 22  1  0  0  0  0
 23 28  1  0  0  0  0
 25 26  1  0  0  0  0
 26 24  2  0  0  0  0
 27 29  1  0  0  0  0
 27 28  2  0  0  0  0
 28 24  1  0  0  0  0
 29 25  1  0  0  0  0
 30 31  1  0  0  0  0
 32 30  2  0  0  0  0
 33  6  1  0  0  0  0
 33 34  1  0  0  0  0
M  END
>  <MODEL>
5

>  <REMARK>
 VINA RESULT:      -6.3      2.582      8.411
  Name = 
  6 active torsions:
  status: ('A' for Active; 'I' for Inactive)
    1  A    between atoms: C_1  and  C_20
    2  A    between atoms: C_1  and  C_34
    3  A    between atoms: N_3  and  C_23
    4  A    between atoms: C_7  and  C_11
    5  A    between atoms: C_8  and  N_18
    6  A    between atoms: C_33  and  C_34
                            x       y       z     vdW  Elec       q    Type
                         _______ _______ _______ _____ _____    ______ ____

>  <TORSDO>
F 6

$$$$
=
 OpenBabel10262423193D

 34 40  0  0  1  0  0  0  0  0999 V2000
  186.7310  178.8790  140.9710 C   0  0  0  0  0  3  0  0  0  0  0  0
  185.5960  177.8820  143.5100 C   0  0  0  0  0  2  0  0  0  0  0  0
  189.2550  177.5500  143.4310 C   0  0  2  0  0  0  0  0  0  0  0  0
  188.9950  178.1830  142.0430 C   0  0  0  0  0  2  0  0  0  0  0  0
  187.5180  178.3450  142.0180 C   0  0  0  0  0  0  0  0  0  0  0  0
  183.4550  178.6900  142.0720 N   0  0  0  0  0  0  0  0  0  0  0  0
  187.9730  177.4190  144.0550 O   0  0  0  0  0  0  0  0  0  0  0  0
  186.9790  177.8760  143.2200 C   0  0  0  0  0  0  0  0  0  0  0  0
  190.1360  178.4670  144.2590 C   0  0  0  0  0  1  0  0  0  0  0  0
  184.8320  178.4060  142.4760 C   0  0  2  0  0  0  0  0  0  0  0  0
  185.3730  178.8850  141.2620 C   0  0  0  0  0  0  0  0  0  0  0  0
  184.0230  179.1920  140.8650 C   0  0  2  0  0  0  0  0  0  0  0  0
  184.0320  175.8550  138.3430 C   0  0  0  0  0  2  0  0  0  0  0  0
  182.9750  177.1770  140.0660 O   0  0  0  0  0  0  0  0  0  0  0  0
  184.6520  177.0770  137.6890 C   0  0  1  0  0  3  0  0  0  0  0  0
  185.2750  179.3600  138.1690 O   0  0  0  0  0  1  0  0  0  0  0  0
  184.8280  178.1680  138.7470 C   0  0  1  0  0  3  0  0  0  0  0  0
  182.7340  176.2820  139.0040 C   0  0  0  0  0  2  0  0  0  0  0  0
  183.5550  178.4030  139.6150 C   0  0  2  0  0  0  0  0  0  0  0  0
  185.9410  176.7180  137.1060 N   0  0  0  0  0  0  0  0  0  0  0  0
  186.0870  177.4810  135.8540 C   0  0  0  0  0  2  0  0  0  0  0  0
  185.6700  176.0880  135.8020 C   0  0  0  0  0  2  0  0  0  0  0  0
  182.5070  179.3140  138.9150 C   0  0  0  0  0  2  0  0  0  0  0  0
  180.2510  178.2170  139.5020 C   0  0  0  0  0  3  0  0  0  0  0  0
  178.9310  179.2400  141.3180 C   0  0  0  0  0  2  0  0  0  0  0  0
  179.1840  178.1550  140.3060 C   0  0  0  0  0  3  0  0  0  0  0  0
  180.7730  180.4970  140.1940 C   0  0  0  0  0  3  0  0  0  0  0  0
  181.1450  179.3940  139.5330 C   0  0  0  0  0  0  0  0  0  0  0  0
  179.3890  180.6000  140.7800 C   0  0  0  0  0  2  0  0  0  0  0  0
  189.9100  176.2090  143.2880 C   0  0  0  0  0  0  0  0  0  0  0  0
  191.2270  176.0250  143.6950 O   0  0  0  0  0  1  0  0  0  0  0  0
  189.2580  175.2260  142.8430 O   0  0  0  0  0  0  0  0  0  0  0  0
  182.1360  178.5610  142.6630 C   0  0  0  0  0  2  0  0  0  0  0  0
  182.1690  179.0040  143.9840 O   0  0  0  0  0  1  0  0  0  0  0  0
  1 11  2  0  0  0  0
  1  5  1  0  0  0  0
  3  7  1  0  0  0  0
  3  9  1  1  0  0  0
  4  3  1  0  0  0  0
  5  4  1  0  0  0  0
  5  8  2  0  0  0  0
  6 10  1  0  0  0  0
  6 33  1  0  0  0  0
  8  2  1  0  0  0  0
  8  7  1  0  0  0  0
 10  2  1  1  0  0  0
 11 10  1  0  0  0  0
 12 11  1  6  0  0  0
 12  6  1  0  0  0  0
 12 10  1  0  0  0  0
 13 18  1  0  0  0  0
 15 20  1  1  0  0  0
 15 13  1  0  0  0  0
 15 17  1  0  0  0  0
 17 16  1  6  0  0  0
 17 19  1  0  0  0  0
 18 14  1  0  0  0  0
 19 23  1  6  0  0  0
 19 14  1  0  0  0  0
 19 12  1  0  0  0  0
 21 20  1  0  0  0  0
 22 21  1  0  0  0  0
 22 20  1  0  0  0  0
 23 28  1  0  0  0  0
 24 28  1  0  0  0  0
 24 26  2  0  0  0  0
 26 25  1  0  0  0  0
 27 29  1  0  0  0  0
 28 27  2  0  0  0  0
 29 25  1  0  0  0  0
 30  3  1  0  0  0  0
 30 31  1  0  0  0  0
 32 30  2  0  0  0  0
 33 34  1  0  0  0  0
M  END
>  <MODEL>
6

>  <REMARK>
 VINA RESULT:      -6.3      4.022      8.515
  Name = 
  6 active torsions:
  status: ('A' for Active; 'I' for Inactive)
    1  A    between atoms: C_1  and  C_20
    2  A    between atoms: C_1  and  C_34
    3  A    between atoms: N_3  and  C_23
    4  A    between atoms: C_7  and  C_11
    5  A    between atoms: C_8  and  N_18
    6  A    between atoms: C_33  and  C_34
                            x       y       z     vdW  Elec       q    Type
                         _______ _______ _______ _____ _____    ______ ____

>  <TORSDO>
F 6

$$$$
=
 OpenBabel10262423193D

 34 40  0  0  1  0  0  0  0  0999 V2000
  185.9810  178.5880  140.6750 C   0  0  0  0  0  3  0  0  0  0  0  0
  185.1900  178.2800  143.5060 C   0  0  0  0  0  2  0  0  0  0  0  0
  188.7950  177.7490  143.0340 C   0  0  2  0  0  0  0  0  0  0  0  0
  188.3570  178.0490  141.5800 C   0  0  0  0  0  2  0  0  0  0  0  0
  186.8950  178.2760  141.7090 C   0  0  0  0  0  0  0  0  0  0  0  0
  182.8860  178.8350  142.2060 N   0  0  0  0  0  0  0  0  0  0  0  0
  187.6110  177.8360  143.8320 O   0  0  0  0  0  0  0  0  0  0  0  0
  186.5190  178.1340  143.0480 C   0  0  0  0  0  0  0  0  0  0  0  0
  189.8010  178.7880  143.4940 C   0  0  0  0  0  1  0  0  0  0  0  0
  184.3000  178.5840  142.4840 C   0  0  2  0  0  0  0  0  0  0  0  0
  184.6770  178.7330  141.1310 C   0  0  0  0  0  0  0  0  0  0  0  0
  183.2910  179.0070  140.8500 C   0  0  2  0  0  0  0  0  0  0  0  0
  183.4330  175.7990  138.1710 C   0  0  0  0  0  2  0  0  0  0  0  0
  182.9780  176.6680  140.3780 O   0  0  0  0  0  0  0  0  0  0  0  0
  183.0200  177.0960  137.4990 C   0  0  1  0  0  3  0  0  0  0  0  0
  182.7380  179.4500  137.9590 O   0  0  0  0  0  1  0  0  0  0  0  0
  183.2260  178.2500  138.4830 C   0  0  1  0  0  3  0  0  0  0  0  0
  182.6360  175.6580  139.4550 C   0  0  0  0  0  2  0  0  0  0  0  0
  182.6380  177.9700  139.9000 C   0  0  2  0  0  0  0  0  0  0  0  0
  183.8220  177.3020  136.2970 N   0  0  0  0  0  0  0  0  0  0  0  0
  182.8910  177.5800  135.1880 C   0  0  0  0  0  2  0  0  0  0  0  0
  183.4500  176.2440  135.3390 C   0  0  0  0  0  2  0  0  0  0  0  0
  181.1090  178.2350  139.9810 C   0  0  0  0  0  2  0  0  0  0  0  0
  179.7220  176.6700  138.4750 C   0  0  0  0  0  3  0  0  0  0  0  0
  179.1410  174.4490  139.3790 C   0  0  0  0  0  2  0  0  0  0  0  0
  179.1840  175.4640  138.2680 C   0  0  0  0  0  3  0  0  0  0  0  0
  179.8910  176.2980  140.8800 C   0  0  0  0  0  3  0  0  0  0  0  0
  180.1980  177.0570  139.8210 C   0  0  0  0  0  0  0  0  0  0  0  0
  178.9420  175.1380  140.7340 C   0  0  0  0  0  2  0  0  0  0  0  0
  189.3990  176.3800  143.1340 C   0  0  0  0  0  0  0  0  0  0  0  0
  190.7320  176.2260  143.4970 O   0  0  0  0  0  1  0  0  0  0  0  0
  188.6900  175.3560  142.9390 O   0  0  0  0  0  0  0  0  0  0  0  0
  181.6590  178.9190  142.9770 C   0  0  0  0  0  2  0  0  0  0  0  0
  181.9120  178.5570  144.2990 O   0  0  0  0  0  1  0  0  0  0  0  0
  1 11  2  0  0  0  0
  1  5  1  0  0  0  0
  3 30  1  0  0  0  0
  3  9  1  1  0  0  0
  3  7  1  0  0  0  0
  4  5  1  0  0  0  0
  4  3  1  0  0  0  0
  5  8  2  0  0  0  0
  6 10  1  0  0  0  0
  6 33  1  0  0  0  0
  8  2  1  0  0  0  0
  8  7  1  0  0  0  0
 10  2  1  1  0  0  0
 11 10  1  0  0  0  0
 12 11  1  6  0  0  0
 12  6  1  0  0  0  0
 12 10  1  0  0  0  0
 13 18  1  0  0  0  0
 15 20  1  6  0  0  0
 15 13  1  0  0  0  0
 15 17  1  0  0  0  0
 17 16  1  6  0  0  0
 17 19  1  0  0  0  0
 18 14  1  0  0  0  0
 19 23  1  6  0  0  0
 19 14  1  0  0  0  0
 19 12  1  0  0  0  0
 21 22  1  0  0  0  0
 21 20  1  0  0  0  0
 22 20  1  0  0  0  0
 24 28  1  0  0  0  0
 25 29  1  0  0  0  0
 26 24  2  0  0  0  0
 26 25  1  0  0  0  0
 28 23  1  0  0  0  0
 28 27  2  0  0  0  0
 29 27  1  0  0  0  0
 30 31  1  0  0  0  0
 32 30  2  0  0  0  0
 33 34  1  0  0  0  0
M  END
>  <MODEL>
7

>  <REMARK>
 VINA RESULT:      -6.1      4.685      8.906
  Name = 
  6 active torsions:
  status: ('A' for Active; 'I' for Inactive)
    1  A    between atoms: C_1  and  C_20
    2  A    between atoms: C_1  and  C_34
    3  A    between atoms: N_3  and  C_23
    4  A    between atoms: C_7  and  C_11
    5  A    between atoms: C_8  and  N_18
    6  A    between atoms: C_33  and  C_34
                            x       y       z     vdW  Elec       q    Type
                         _______ _______ _______ _____ _____    ______ ____

>  <TORSDO>
F 6

$$$$
=
 OpenBabel10262423193D

 34 40  0  0  1  0  0  0  0  0999 V2000
  185.8430  178.6280  140.5480 C   0  0  0  0  0  3  0  0  0  0  0  0
  184.9720  178.2530  143.3470 C   0  0  0  0  0  2  0  0  0  0  0  0
  188.5860  177.7070  142.9610 C   0  0  2  0  0  0  0  0  0  0  0  0
  188.1900  178.0470  141.5040 C   0  0  0  0  0  2  0  0  0  0  0  0
  186.7270  178.2830  141.5990 C   0  0  0  0  0  0  0  0  0  0  0  0
  182.7090  178.8580  141.9990 N   0  0  0  0  0  0  0  0  0  0  0  0
  187.3800  177.7820  143.7290 O   0  0  0  0  0  0  0  0  0  0  0  0
  186.3120  178.1080  142.9230 C   0  0  0  0  0  0  0  0  0  0  0  0
  189.5850  178.7260  143.4750 C   0  0  0  0  0  1  0  0  0  0  0  0
  184.1130  178.5890  142.3100 C   0  0  2  0  0  0  0  0  0  0  0  0
  184.5280  178.7700  140.9720 C   0  0  0  0  0  0  0  0  0  0  0  0
  183.1520  179.0620  140.6610 C   0  0  2  0  0  0  0  0  0  0  0  0
  183.1300  175.4990  138.4710 C   0  0  0  0  0  2  0  0  0  0  0  0
  182.3620  176.8100  140.3480 O   0  0  0  0  0  0  0  0  0  0  0  0
  183.2680  176.7230  137.5830 C   0  0  1  0  0  3  0  0  0  0  0  0
  183.5140  179.1220  137.7070 O   0  0  0  0  0  1  0  0  0  0  0  0
  183.5100  177.9490  138.4660 C   0  0  1  0  0  3  0  0  0  0  0  0
  182.0170  175.7630  139.4680 C   0  0  0  0  0  2  0  0  0  0  0  0
  182.5190  178.0550  139.6650 C   0  0  2  0  0  0  0  0  0  0  0  0
  184.3810  176.5330  136.6580 N   0  0  0  0  0  0  0  0  0  0  0  0
  183.9510  177.0370  135.3410 C   0  0  0  0  0  2  0  0  0  0  0  0
  183.9220  175.6060  135.6080 C   0  0  0  0  0  2  0  0  0  0  0  0
  181.1500  178.6710  139.2640 C   0  0  0  0  0  2  0  0  0  0  0  0
  180.8040  179.8370  136.9920 C   0  0  0  0  0  3  0  0  0  0  0  0
  180.4630  182.2800  137.0120 C   0  0  0  0  0  2  0  0  0  0  0  0
  180.5110  180.9490  136.3110 C   0  0  0  0  0  3  0  0  0  0  0  0
  181.4370  181.0970  138.9830 C   0  0  0  0  0  3  0  0  0  0  0  0
  181.1740  179.9100  138.4220 C   0  0  0  0  0  0  0  0  0  0  0  0
  181.5050  182.3390  138.1350 C   0  0  0  0  0  2  0  0  0  0  0  0
  189.1770  176.3310  143.0420 C   0  0  0  0  0  0  0  0  0  0  0  0
  190.5540  176.1550  142.9790 O   0  0  0  0  0  0  0  0  0  0  0  0
  188.4330  175.3280  143.2180 O   0  0  0  0  0  1  0  0  0  0  0  0
  181.4620  178.9310  142.7390 C   0  0  0  0  0  2  0  0  0  0  0  0
  180.8110  180.1280  142.4430 O   0  0  0  0  0  1  0  0  0  0  0  0
  1 11  2  0  0  0  0
  1  5  1  0  0  0  0
  3 30  1  0  0  0  0
  3  9  1  1  0  0  0
  3  7  1  0  0  0  0
  4  5  1  0  0  0  0
  4  3  1  0  0  0  0
  5  8  2  0  0  0  0
  6 10  1  0  0  0  0
  6 33  1  0  0  0  0
  8  2  1  0  0  0  0
  8  7  1  0  0  0  0
 10  2  1  1  0  0  0
 11 10  1  0  0  0  0
 12 11  1  6  0  0  0
 12  6  1  0  0  0  0
 12 10  1  0  0  0  0
 13 18  1  0  0  0  0
 15 20  1  6  0  0  0
 15 17  1  0  0  0  0
 15 13  1  0  0  0  0
 17 16  1  6  0  0  0
 17 19  1  0  0  0  0
 18 14  1  0  0  0  0
 19 23  1  6  0  0  0
 19 14  1  0  0  0  0
 19 12  1  0  0  0  0
 21 22  1  0  0  0  0
 21 20  1  0  0  0  0
 22 20  1  0  0  0  0
 24 28  1  0  0  0  0
 25 29  1  0  0  0  0
 26 24  2  0  0  0  0
 26 25  1  0  0  0  0
 28 27  2  0  0  0  0
 28 23  1  0  0  0  0
 29 27  1  0  0  0  0
 30 32  1  0  0  0  0
 31 30  2  0  0  0  0
 34 33  1  0  0  0  0
M  END
>  <MODEL>
8

>  <REMARK>
 VINA RESULT:      -6.0      4.691      9.032
  Name = 
  6 active torsions:
  status: ('A' for Active; 'I' for Inactive)
    1  A    between atoms: C_1  and  C_20
    2  A    between atoms: C_1  and  C_34
    3  A    between atoms: N_3  and  C_23
    4  A    between atoms: C_7  and  C_11
    5  A    between atoms: C_8  and  N_18
    6  A    between atoms: C_33  and  C_34
                            x       y       z     vdW  Elec       q    Type
                         _______ _______ _______ _____ _____    ______ ____

>  <TORSDO>
F 6

$$$$
=
 OpenBabel10262423193D

 34 40  0  0  1  0  0  0  0  0999 V2000
  190.8720  176.5960  139.8650 C   0  0  0  0  0  3  0  0  0  0  0  0
  188.6610  178.5570  139.8480 C   0  0  0  0  0  2  0  0  0  0  0  0
  189.7520  177.7660  143.2670 C   0  0  2  0  0  0  0  0  0  0  0  0
  190.7120  176.8720  142.4450 C   0  0  0  0  0  2  0  0  0  0  0  0
  190.3160  177.1530  141.0420 C   0  0  0  0  0  0  0  0  0  0  0  0
  189.0970  177.9910  137.2410 N   0  0  0  0  0  0  0  0  0  0  0  0
  188.9370  178.4550  142.3130 O   0  0  0  0  0  0  0  0  0  0  0  0
  189.2720  178.0830  141.0300 C   0  0  0  0  0  0  0  0  0  0  0  0
  190.5500  178.7680  144.0790 C   0  0  0  0  0  1  0  0  0  0  0  0
  189.2110  178.0030  138.7000 C   0  0  2  0  0  0  0  0  0  0  0  0
  190.2690  177.0670  138.7060 C   0  0  0  0  0  0  0  0  0  0  0  0
  190.1820  177.0670  137.2680 C   0  0  2  0  0  0  0  0  0  0  0  0
  188.0880  174.5960  134.6230 C   0  0  0  0  0  2  0  0  0  0  0  0
  190.1280  175.7070  135.2830 O   0  0  0  0  0  0  0  0  0  0  0  0
  187.6370  174.4170  136.0610 C   0  0  1  0  0  3  0  0  0  0  0  0
  187.9930  175.3180  138.2740 O   0  0  0  0  0  1  0  0  0  0  0  0
  188.2720  175.5150  136.9180 C   0  0  1  0  0  3  0  0  0  0  0  0
  189.6050  174.5900  134.5990 C   0  0  0  0  0  2  0  0  0  0  0  0
  189.8020  175.6860  136.6740 C   0  0  2  0  0  0  0  0  0  0  0  0
  186.1810  174.4930  136.1310 N   0  0  0  0  0  0  0  0  0  0  0  0
  185.7430  173.5860  137.2070 C   0  0  0  0  0  2  0  0  0  0  0  0
  185.6590  173.1500  135.8210 C   0  0  0  0  0  2  0  0  0  0  0  0
  190.6570  174.6480  137.4530 C   0  0  0  0  0  2  0  0  0  0  0  0
  193.1190  175.3920  137.2980 C   0  0  0  0  0  3  0  0  0  0  0  0
  194.7960  173.6590  136.7790 C   0  0  0  0  0  2  0  0  0  0  0  0
  194.4070  175.0600  137.1670 C   0  0  0  0  0  3  0  0  0  0  0  0
  192.3680  173.2780  136.3400 C   0  0  0  0  0  3  0  0  0  0  0  0
  192.0570  174.4150  136.9760 C   0  0  0  0  0  0  0  0  0  0  0  0
  193.7640  173.0560  135.8190 C   0  0  0  0  0  2  0  0  0  0  0  0
  188.9030  176.9330  144.1800 C   0  0  0  0  0  0  0  0  0  0  0  0
  187.7730  176.2870  143.6920 O   0  0  0  0  0  0  0  0  0  0  0  0
  189.2340  176.7720  145.3860 O   0  0  0  0  0  1  0  0  0  0  0  0
  188.2820  178.6580  136.2420 C   0  0  0  0  0  2  0  0  0  0  0  0
  187.5950  179.7180  136.8310 O   0  0  0  0  0  1  0  0  0  0  0  0
  1  5  1  0  0  0  0
  2  8  1  0  0  0  0
  3  9  1  1  0  0  0
  3 30  1  0  0  0  0
  4  3  1  0  0  0  0
  5  4  1  0  0  0  0
  6 12  1  0  0  0  0
  6 10  1  0  0  0  0
  7  3  1  0  0  0  0
  8  5  2  0  0  0  0
  8  7  1  0  0  0  0
 10 11  1  0  0  0  0
 10  2  1  6  0  0  0
 11  1  2  0  0  0  0
 12 10  1  0  0  0  0
 12 11  1  6  0  0  0
 14 19  1  0  0  0  0
 15 13  1  6  0  0  0
 15 20  1  0  0  0  0
 15 17  1  0  0  0  0
 17 16  1  1  0  0  0
 18 13  1  0  0  0  0
 18 14  1  0  0  0  0
 19 17  1  0  0  0  0
 19 12  1  0  0  0  0
 19 23  1  1  0  0  0
 20 21  1  0  0  0  0
 22 20  1  0  0  0  0
 22 21  1  0  0  0  0
 25 26  1  0  0  0  0
 26 24  2  0  0  0  0
 27 28  2  0  0  0  0
 28 24  1  0  0  0  0
 28 23  1  0  0  0  0
 29 27  1  0  0  0  0
 29 25  1  0  0  0  0
 30 32  1  0  0  0  0
 31 30  2  0  0  0  0
 33 34  1  0  0  0  0
 33  6  1  0  0  0  0
M  END
>  <MODEL>
9

>  <REMARK>
 VINA RESULT:      -6.0      2.702      7.612
  Name = 
  6 active torsions:
  status: ('A' for Active; 'I' for Inactive)
    1  A    between atoms: C_1  and  C_20
    2  A    between atoms: C_1  and  C_34
    3  A    between atoms: N_3  and  C_23
    4  A    between atoms: C_7  and  C_11
    5  A    between atoms: C_8  and  N_18
    6  A    between atoms: C_33  and  C_34
                            x       y       z     vdW  Elec       q    Type
                         _______ _______ _______ _____ _____    ______ ____

>  <TORSDO>
F 6

$$$$
