=
 OpenBabel10262423313D

 34 39  0  0  0  0  0  0  0  0999 V2000
  186.9210  178.1240  143.8990 C   0  0  0  0  0  0  0  0  0  0  0  0
  188.0080  177.4520  147.3910 C   0  0  0  0  0  3  0  0  0  0  0  0
  185.9830  178.1400  146.5490 C   0  0  0  0  0  3  0  0  0  0  0  0
  186.2760  178.5980  141.4630 C   0  0  0  0  0  0  0  0  0  0  0  0
  187.3490  178.1300  142.4410 C   0  0  0  0  0  3  0  0  0  0  0  0
  184.7120  178.8470  143.3190 C   0  0  0  0  0  0  0  0  0  0  0  0
  183.1120  179.2560  144.0300 S   0  0  0  0  0  0  0  0  0  0  0  0
  185.0450  178.9140  141.8910 C   0  0  0  0  0  3  0  0  0  0  0  0
  185.1500  178.4920  145.4970 C   0  0  0  0  0  0  0  0  0  0  0  0
  185.6100  178.4830  144.2130 C   0  0  0  0  0  0  0  0  0  0  0  0
  183.7940  178.8880  145.6280 N   0  0  0  0  0  0  0  0  0  0  0  0
  189.3940  177.0200  147.5860 C   0  0  0  0  0  3  0  0  0  0  0  0
  190.3640  176.8190  146.6970 C   0  0  0  0  0  0  0  0  0  0  0  0
  190.2250  177.0040  145.2490 C   0  0  0  0  0  3  0  0  0  0  0  0
  187.3160  177.7670  146.2960 C   0  0  0  0  0  0  0  0  0  0  0  0
  189.1720  177.3870  144.5380 C   0  0  0  0  0  3  0  0  0  0  0  0
  187.8040  177.7550  144.9500 C   0  0  0  0  0  0  0  0  0  0  0  0
  191.6770  176.3770  147.2040 C   0  0  0  0  0  0  0  0  0  0  0  0
  192.2630  177.0120  148.2940 O   0  0  0  0  0  1  0  0  0  0  0  0
  192.2830  175.4190  146.6550 O   0  0  0  0  0  0  0  0  0  0  0  0
  186.5210  178.6720  140.0830 O   0  0  0  0  0  0  0  0  0  0  0  0
  188.6580  177.1220  137.4420 C   0  0  0  0  0  3  0  0  0  0  0  0
  188.8490  178.0650  140.0750 C   0  0  0  0  0  3  0  0  0  0  0  0
  192.2170  176.4640  138.1920 C   0  0  0  0  0  0  0  0  0  0  0  0
  191.0050  176.5220  137.4920 C   0  0  0  0  0  3  0  0  0  0  0  0
  189.8780  177.0560  138.1170 C   0  0  0  0  0  0  0  0  0  0  0  0
  191.1960  177.4530  140.1050 C   0  0  0  0  0  3  0  0  0  0  0  0
  189.9720  177.5290  139.4410 C   0  0  0  0  0  0  0  0  0  0  0  0
  192.2810  176.9270  139.4730 N   0  0  0  0  0  0  0  0  0  0  0  0
  187.6250  178.1430  139.3990 C   0  0  0  0  0  0  0  0  0  0  0  0
  187.5380  177.6600  138.0810 C   0  0  0  0  0  3  0  0  0  0  0  0
  193.3860  175.9190  137.5680 N   0  0  0  0  0  0  0  0  0  0  0  0
  193.6920  174.7220  137.7430 O   0  0  0  0  0  0  0  0  0  0  0  0
  194.1820  176.7080  136.7690 O   0  0  0  0  0  0  0  0  0  0  0  0
  1 10  1  0  0  0  0
  1 17  1  0  0  0  0
  2 12  2  0  0  0  0
  4  8  2  0  0  0  0
  4  5  1  0  0  0  0
  5  1  2  0  0  0  0
  6  7  1  0  0  0  0
  6 10  2  0  0  0  0
  7 11  1  0  0  0  0
  8  6  1  0  0  0  0
  9 11  2  0  0  0  0
  9  3  1  0  0  0  0
 10  9  1  0  0  0  0
 13 18  1  0  0  0  0
 13 12  1  0  0  0  0
 14 13  2  0  0  0  0
 15  3  2  0  0  0  0
 15  2  1  0  0  0  0
 16 17  2  0  0  0  0
 16 14  1  0  0  0  0
 17 15  1  0  0  0  0
 18 19  1  0  0  0  0
 20 18  2  0  0  0  0
 21  4  1  0  0  0  0
 22 31  2  0  0  0  0
 22 26  1  0  0  0  0
 24 29  1  0  0  0  0
 25 26  1  0  0  0  0
 25 24  2  0  0  0  0
 26 28  2  0  0  0  0
 28 23  1  0  0  0  0
 28 27  1  0  0  0  0
 29 27  2  0  0  0  0
 30 23  2  0  0  0  0
 30 21  1  0  0  0  0
 31 30  1  0  0  0  0
 32 33  2  0  0  0  0
 32 24  1  0  0  0  0
 34 32  2  0  0  0  0
M  END
>  <MODEL>
1

>  <REMARK>
 VINA RESULT:     -12.6      0.000      0.000
  Name = 
  4 active torsions:
  status: ('A' for Active; 'I' for Inactive)
    1  A    between atoms: C_3  and  C_25
    2  A    between atoms: C_7  and  N_11
    3  A    between atoms: C_8  and  O_18
    4  A    between atoms: O_18  and  C_30
                            x       y       z     vdW  Elec       q    Type
                         _______ _______ _______ _____ _____    ______ ____

>  <TORSDO>
F 4

$$$$
=
 OpenBabel10262423313D

 34 39  0  0  0  0  0  0  0  0999 V2000
  186.9160  178.1200  143.9000 C   0  0  0  0  0  0  0  0  0  0  0  0
  187.9980  177.4620  147.3960 C   0  0  0  0  0  3  0  0  0  0  0  0
  185.9760  178.1520  146.5490 C   0  0  0  0  0  3  0  0  0  0  0  0
  186.2740  178.5830  141.4610 C   0  0  0  0  0  0  0  0  0  0  0  0
  187.3450  178.1170  142.4430 C   0  0  0  0  0  3  0  0  0  0  0  0
  184.7100  178.8470  143.3150 C   0  0  0  0  0  0  0  0  0  0  0  0
  183.1110  179.2660  144.0220 S   0  0  0  0  0  0  0  0  0  0  0  0
  185.0450  178.9060  141.8870 C   0  0  0  0  0  3  0  0  0  0  0  0
  185.1460  178.5020  145.4940 C   0  0  0  0  0  0  0  0  0  0  0  0
  185.6060  178.4850  144.2110 C   0  0  0  0  0  0  0  0  0  0  0  0
  183.7900  178.9040  145.6230 N   0  0  0  0  0  0  0  0  0  0  0  0
  189.3830  177.0260  147.5940 C   0  0  0  0  0  3  0  0  0  0  0  0
  190.3520  176.8170  146.7070 C   0  0  0  0  0  0  0  0  0  0  0  0
  190.2150  176.9950  145.2580 C   0  0  0  0  0  3  0  0  0  0  0  0
  187.3090  177.7740  146.2990 C   0  0  0  0  0  0  0  0  0  0  0  0
  189.1640  177.3780  144.5440 C   0  0  0  0  0  3  0  0  0  0  0  0
  187.7970  177.7530  144.9540 C   0  0  0  0  0  0  0  0  0  0  0  0
  191.6640  176.3730  147.2180 C   0  0  0  0  0  0  0  0  0  0  0  0
  192.2590  177.0230  148.2930 O   0  0  0  0  0  1  0  0  0  0  0  0
  192.2590  175.4000  146.6830 O   0  0  0  0  0  0  0  0  0  0  0  0
  186.5200  178.6500  140.0810 O   0  0  0  0  0  0  0  0  0  0  0  0
  190.0340  177.7600  139.1800 C   0  0  0  0  0  3  0  0  0  0  0  0
  187.4310  177.4980  138.1750 C   0  0  0  0  0  3  0  0  0  0  0  0
  190.6580  175.9640  136.0100 C   0  0  0  0  0  0  0  0  0  0  0  0
  190.8960  176.6030  137.2340 C   0  0  0  0  0  3  0  0  0  0  0  0
  189.8210  177.1160  137.9600 C   0  0  0  0  0  0  0  0  0  0  0  0
  188.3150  176.3450  136.2320 C   0  0  0  0  0  3  0  0  0  0  0  0
  188.5130  176.9870  137.4550 C   0  0  0  0  0  0  0  0  0  0  0  0
  189.3810  175.8530  135.5430 N   0  0  0  0  0  0  0  0  0  0  0  0
  187.6360  178.1360  139.4040 C   0  0  0  0  0  0  0  0  0  0  0  0
  188.9470  178.2690  139.8970 C   0  0  0  0  0  3  0  0  0  0  0  0
  191.7480  175.4300  135.2500 N   0  0  0  0  0  0  0  0  0  0  0  0
  191.6010  174.3780  134.5940 O   0  0  0  0  0  0  0  0  0  0  0  0
  192.9670  176.0700  135.2340 O   0  0  0  0  0  0  0  0  0  0  0  0
  1 10  1  0  0  0  0
  1 17  1  0  0  0  0
  2 12  2  0  0  0  0
  4  8  2  0  0  0  0
  4  5  1  0  0  0  0
  5  1  2  0  0  0  0
  6  7  1  0  0  0  0
  6 10  2  0  0  0  0
  7 11  1  0  0  0  0
  8  6  1  0  0  0  0
  9 11  2  0  0  0  0
  9  3  1  0  0  0  0
 10  9  1  0  0  0  0
 13 18  1  0  0  0  0
 13 12  1  0  0  0  0
 14 13  2  0  0  0  0
 15  3  2  0  0  0  0
 15  2  1  0  0  0  0
 16 17  2  0  0  0  0
 16 14  1  0  0  0  0
 17 15  1  0  0  0  0
 18 19  1  0  0  0  0
 20 18  2  0  0  0  0
 21  4  1  0  0  0  0
 22 31  1  0  0  0  0
 23 30  1  0  0  0  0
 24 25  2  0  0  0  0
 25 26  1  0  0  0  0
 26 22  2  0  0  0  0
 27 28  1  0  0  0  0
 28 26  1  0  0  0  0
 28 23  2  0  0  0  0
 29 24  1  0  0  0  0
 29 27  2  0  0  0  0
 30 31  2  0  0  0  0
 30 21  1  0  0  0  0
 32 24  1  0  0  0  0
 33 32  2  0  0  0  0
 34 32  2  0  0  0  0
M  END
>  <MODEL>
2

>  <REMARK>
 VINA RESULT:     -11.9      1.240      1.777
  Name = 
  4 active torsions:
  status: ('A' for Active; 'I' for Inactive)
    1  A    between atoms: C_3  and  C_25
    2  A    between atoms: C_7  and  N_11
    3  A    between atoms: C_8  and  O_18
    4  A    between atoms: O_18  and  C_30
                            x       y       z     vdW  Elec       q    Type
                         _______ _______ _______ _____ _____    ______ ____

>  <TORSDO>
F 4

$$$$
=
 OpenBabel10262423313D

 34 39  0  0  0  0  0  0  0  0999 V2000
  184.5550  178.7400  141.9820 C   0  0  0  0  0  0  0  0  0  0  0  0
  185.2020  178.3390  138.3430 C   0  0  0  0  0  3  0  0  0  0  0  0
  183.2330  178.5640  139.5080 C   0  0  0  0  0  3  0  0  0  0  0  0
  184.2070  178.9770  144.5120 C   0  0  0  0  0  0  0  0  0  0  0  0
  185.1940  178.8540  143.3560 C   0  0  0  0  0  3  0  0  0  0  0  0
  182.3600  178.9490  142.9190 C   0  0  0  0  0  0  0  0  0  0  0  0
  180.6180  178.9960  142.4760 S   0  0  0  0  0  0  0  0  0  0  0  0
  182.8870  179.0340  144.2860 C   0  0  0  0  0  3  0  0  0  0  0  0
  182.5190  178.7220  140.6870 C   0  0  0  0  0  0  0  0  0  0  0  0
  183.1650  178.8070  141.8850 C   0  0  0  0  0  0  0  0  0  0  0  0
  181.1050  178.8040  140.7790 N   0  0  0  0  0  0  0  0  0  0  0  0
  186.6010  178.2190  137.9240 C   0  0  0  0  0  3  0  0  0  0  0  0
  187.7170  178.2310  138.6470 C   0  0  0  0  0  0  0  0  0  0  0  0
  187.7700  178.3760  140.1060 C   0  0  0  0  0  3  0  0  0  0  0  0
  184.6380  178.4900  139.5410 C   0  0  0  0  0  0  0  0  0  0  0  0
  186.7840  178.5190  140.9820 C   0  0  0  0  0  3  0  0  0  0  0  0
  185.3210  178.5800  140.7960 C   0  0  0  0  0  0  0  0  0  0  0  0
  188.9990  178.0880  137.9310 C   0  0  0  0  0  0  0  0  0  0  0  0
  189.1130  178.4840  136.6020 O   0  0  0  0  0  0  0  0  0  0  0  0
  190.0050  177.6060  138.5150 O   0  0  0  0  0  1  0  0  0  0  0  0
  184.6420  179.0770  145.8430 O   0  0  0  0  0  0  0  0  0  0  0  0
  187.4500  178.3240  148.1860 C   0  0  0  0  0  3  0  0  0  0  0  0
  186.8120  178.1070  145.4660 C   0  0  0  0  0  3  0  0  0  0  0  0
  190.5420  176.8150  146.8340 C   0  0  0  0  0  0  0  0  0  0  0  0
  189.6260  177.3510  147.7490 C   0  0  0  0  0  3  0  0  0  0  0  0
  188.3790  177.7840  147.2960 C   0  0  0  0  0  0  0  0  0  0  0  0
  188.9960  177.1380  145.0490 C   0  0  0  0  0  3  0  0  0  0  0  0
  188.0570  177.6760  145.9280 C   0  0  0  0  0  0  0  0  0  0  0  0
  190.2060  176.7240  145.5150 N   0  0  0  0  0  0  0  0  0  0  0  0
  185.8720  178.6410  146.3570 C   0  0  0  0  0  0  0  0  0  0  0  0
  186.2050  178.7530  147.7190 C   0  0  0  0  0  3  0  0  0  0  0  0
  191.8270  176.3660  147.2790 N   0  0  0  0  0  0  0  0  0  0  0  0
  192.4220  175.4560  146.6650 O   0  0  0  0  0  0  0  0  0  0  0  0
  192.4180  176.9310  148.3860 O   0  0  0  0  0  0  0  0  0  0  0  0
  1  5  1  0  0  0  0
  2 15  1  0  0  0  0
  3 15  2  0  0  0  0
  3  9  1  0  0  0  0
  4 21  1  0  0  0  0
  5  4  2  0  0  0  0
  6  8  2  0  0  0  0
  7  6  1  0  0  0  0
  8  4  1  0  0  0  0
  9 11  2  0  0  0  0
  9 10  1  0  0  0  0
 10  1  2  0  0  0  0
 10  6  1  0  0  0  0
 11  7  1  0  0  0  0
 12  2  2  0  0  0  0
 12 13  1  0  0  0  0
 13 14  2  0  0  0  0
 14 16  1  0  0  0  0
 15 17  1  0  0  0  0
 17 16  2  0  0  0  0
 17  1  1  0  0  0  0
 18 20  1  0  0  0  0
 18 13  1  0  0  0  0
 19 18  2  0  0  0  0
 21 30  1  0  0  0  0
 23 28  2  0  0  0  0
 23 30  1  0  0  0  0
 24 32  1  0  0  0  0
 24 25  2  0  0  0  0
 26 25  1  0  0  0  0
 26 22  2  0  0  0  0
 27 29  2  0  0  0  0
 27 28  1  0  0  0  0
 28 26  1  0  0  0  0
 29 24  1  0  0  0  0
 30 31  2  0  0  0  0
 31 22  1  0  0  0  0
 32 34  2  0  0  0  0
 33 32  2  0  0  0  0
M  END
>  <MODEL>
3

>  <REMARK>
 VINA RESULT:     -11.5      2.817      7.563
  Name = 
  4 active torsions:
  status: ('A' for Active; 'I' for Inactive)
    1  A    between atoms: C_3  and  C_25
    2  A    between atoms: C_7  and  N_11
    3  A    between atoms: C_8  and  O_18
    4  A    between atoms: O_18  and  C_30
                            x       y       z     vdW  Elec       q    Type
                         _______ _______ _______ _____ _____    ______ ____

>  <TORSDO>
F 4

$$$$
=
 OpenBabel10262423313D

 34 39  0  0  0  0  0  0  0  0999 V2000
  187.1550  177.9260  144.5750 C   0  0  0  0  0  0  0  0  0  0  0  0
  183.6730  178.8000  145.5400 C   0  0  0  0  0  3  0  0  0  0  0  0
  185.5440  178.4300  146.8220 C   0  0  0  0  0  3  0  0  0  0  0  0
  189.5200  177.2890  143.8130 C   0  0  0  0  0  0  0  0  0  0  0  0
  188.0940  177.6520  143.4110 C   0  0  0  0  0  3  0  0  0  0  0  0
  188.9210  177.5910  146.1590 C   0  0  0  0  0  0  0  0  0  0  0  0
  189.2770  177.6010  147.9210 S   0  0  0  0  0  0  0  0  0  0  0  0
  189.8900  177.2800  145.1010 C   0  0  0  0  0  3  0  0  0  0  0  0
  186.8890  178.1210  146.9650 C   0  0  0  0  0  0  0  0  0  0  0  0
  187.6670  177.8780  145.8720 C   0  0  0  0  0  0  0  0  0  0  0  0
  187.5760  178.0230  148.2030 N   0  0  0  0  0  0  0  0  0  0  0  0
  182.7030  178.9680  144.4550 C   0  0  0  0  0  3  0  0  0  0  0  0
  182.8600  178.8590  143.1380 C   0  0  0  0  0  0  0  0  0  0  0  0
  184.1220  178.5250  142.4700 C   0  0  0  0  0  3  0  0  0  0  0  0
  184.9700  178.4940  145.5390 C   0  0  0  0  0  0  0  0  0  0  0  0
  185.3180  178.2730  142.9870 C   0  0  0  0  0  3  0  0  0  0  0  0
  185.7820  178.2400  144.3870 C   0  0  0  0  0  0  0  0  0  0  0  0
  181.6780  179.0900  142.2860 C   0  0  0  0  0  0  0  0  0  0  0  0
  180.7650  180.0910  142.6000 O   0  0  0  0  0  1  0  0  0  0  0  0
  181.4830  178.3810  141.2620 O   0  0  0  0  0  0  0  0  0  0  0  0
  190.5010  176.9940  142.8540 O   0  0  0  0  0  0  0  0  0  0  0  0
  191.2350  176.8840  139.1940 C   0  0  0  0  0  3  0  0  0  0  0  0
  189.1120  177.4320  140.9390 C   0  0  0  0  0  3  0  0  0  0  0  0
  188.5350  177.7170  136.8110 C   0  0  0  0  0  0  0  0  0  0  0  0
  189.7930  177.3460  137.3030 C   0  0  0  0  0  3  0  0  0  0  0  0
  189.9900  177.2490  138.6800 C   0  0  0  0  0  0  0  0  0  0  0  0
  187.6860  177.8930  139.0320 C   0  0  0  0  0  3  0  0  0  0  0  0
  188.9240  177.5260  139.5590 C   0  0  0  0  0  0  0  0  0  0  0  0
  187.5200  177.9810  137.6840 N   0  0  0  0  0  0  0  0  0  0  0  0
  190.3560  177.0570  141.4600 C   0  0  0  0  0  0  0  0  0  0  0  0
  191.4170  176.7910  140.5770 C   0  0  0  0  0  3  0  0  0  0  0  0
  188.3120  177.8220  135.4010 N   0  0  0  0  0  0  0  0  0  0  0  0
  189.2140  177.5060  134.5970 O   0  0  0  0  0  0  0  0  0  0  0  0
  187.1050  178.2710  134.9160 O   0  0  0  0  0  0  0  0  0  0  0  0
  1 10  1  0  0  0  0
  3  9  1  0  0  0  0
  4  8  2  0  0  0  0
  5  4  1  0  0  0  0
  5  1  2  0  0  0  0
  6  7  1  0  0  0  0
  7 11  1  0  0  0  0
  8  6  1  0  0  0  0
  9 11  2  0  0  0  0
 10  6  2  0  0  0  0
 10  9  1  0  0  0  0
 12  2  2  0  0  0  0
 13 12  1  0  0  0  0
 14 16  1  0  0  0  0
 14 13  2  0  0  0  0
 15  2  1  0  0  0  0
 15  3  2  0  0  0  0
 16 17  2  0  0  0  0
 17  1  1  0  0  0  0
 17 15  1  0  0  0  0
 18 19  1  0  0  0  0
 18 13  1  0  0  0  0
 20 18  2  0  0  0  0
 21  4  1  0  0  0  0
 22 31  1  0  0  0  0
 23 30  1  0  0  0  0
 24 25  2  0  0  0  0
 24 29  1  0  0  0  0
 25 26  1  0  0  0  0
 26 22  2  0  0  0  0
 26 28  1  0  0  0  0
 27 28  1  0  0  0  0
 28 23  2  0  0  0  0
 29 27  2  0  0  0  0
 30 21  1  0  0  0  0
 31 30  2  0  0  0  0
 32 24  1  0  0  0  0
 33 32  2  0  0  0  0
 34 32  2  0  0  0  0
M  END
>  <MODEL>
4

>  <REMARK>
 VINA RESULT:     -11.3      3.079      5.760
  Name = 
  4 active torsions:
  status: ('A' for Active; 'I' for Inactive)
    1  A    between atoms: C_3  and  C_25
    2  A    between atoms: C_7  and  N_11
    3  A    between atoms: C_8  and  O_18
    4  A    between atoms: O_18  and  C_30
                            x       y       z     vdW  Elec       q    Type
                         _______ _______ _______ _____ _____    ______ ____

>  <TORSDO>
F 4

$$$$
=
 OpenBabel10262423313D

 34 39  0  0  0  0  0  0  0  0999 V2000
  185.3450  178.5040  142.8840 C   0  0  0  0  0  0  0  0  0  0  0  0
  185.5330  178.2130  146.5860 C   0  0  0  0  0  3  0  0  0  0  0  0
  183.7440  178.5890  145.1920 C   0  0  0  0  0  3  0  0  0  0  0  0
  185.3220  178.7250  140.3290 C   0  0  0  0  0  0  0  0  0  0  0  0
  186.1400  178.4600  141.5900 C   0  0  0  0  0  3  0  0  0  0  0  0
  183.3070  178.9100  141.6930 C   0  0  0  0  0  0  0  0  0  0  0  0
  181.5440  179.1710  141.9290 S   0  0  0  0  0  0  0  0  0  0  0  0
  183.9980  178.9190  140.3970 C   0  0  0  0  0  3  0  0  0  0  0  0
  183.1890  178.7640  143.9340 C   0  0  0  0  0  0  0  0  0  0  0  0
  183.9690  178.7210  142.8170 C   0  0  0  0  0  0  0  0  0  0  0  0
  181.8130  179.0000  143.6760 N   0  0  0  0  0  0  0  0  0  0  0  0
  186.8550  177.9670  147.1690 C   0  0  0  0  0  3  0  0  0  0  0  0
  188.0400  177.8240  146.5800 C   0  0  0  0  0  0  0  0  0  0  0  0
  188.2700  177.8900  145.1330 C   0  0  0  0  0  3  0  0  0  0  0  0
  185.1280  178.3650  145.3260 C   0  0  0  0  0  0  0  0  0  0  0  0
  187.4100  178.0920  144.1430 C   0  0  0  0  0  3  0  0  0  0  0  0
  185.9520  178.3190  144.1560 C   0  0  0  0  0  0  0  0  0  0  0  0
  189.2100  177.5820  147.4460 C   0  0  0  0  0  0  0  0  0  0  0  0
  190.1700  176.6410  147.0890 O   0  0  0  0  0  0  0  0  0  0  0  0
  189.3520  178.2260  148.5200 O   0  0  0  0  0  1  0  0  0  0  0  0
  185.9140  178.7330  139.0570 O   0  0  0  0  0  0  0  0  0  0  0  0
  188.0940  176.3150  137.2270 C   0  0  0  0  0  3  0  0  0  0  0  0
  188.2310  178.1490  139.3410 C   0  0  0  0  0  3  0  0  0  0  0  0
  191.6200  175.9520  138.2740 C   0  0  0  0  0  0  0  0  0  0  0  0
  190.4280  175.7590  137.5630 C   0  0  0  0  0  3  0  0  0  0  0  0
  189.2940  176.4910  137.9170 C   0  0  0  0  0  0  0  0  0  0  0  0
  190.5660  177.5760  139.6640 C   0  0  0  0  0  3  0  0  0  0  0  0
  189.3620  177.4120  138.9810 C   0  0  0  0  0  0  0  0  0  0  0  0
  191.6580  176.8490  139.3000 N   0  0  0  0  0  0  0  0  0  0  0  0
  187.0270  177.9840  138.6460 C   0  0  0  0  0  0  0  0  0  0  0  0
  186.9660  177.0560  137.5910 C   0  0  0  0  0  3  0  0  0  0  0  0
  192.7950  175.2100  137.9270 N   0  0  0  0  0  0  0  0  0  0  0  0
  192.6950  174.0710  137.4280 O   0  0  0  0  0  0  0  0  0  0  0  0
  194.0460  175.7460  138.1380 O   0  0  0  0  0  0  0  0  0  0  0  0
  1 17  1  0  0  0  0
  2 12  2  0  0  0  0
  3 15  2  0  0  0  0
  4  8  2  0  0  0  0
  4  5  1  0  0  0  0
  5  1  2  0  0  0  0
  6  7  1  0  0  0  0
  6 10  2  0  0  0  0
  7 11  1  0  0  0  0
  8  6  1  0  0  0  0
  9  3  1  0  0  0  0
 10  1  1  0  0  0  0
 10  9  1  0  0  0  0
 11  9  2  0  0  0  0
 13 12  1  0  0  0  0
 13 18  1  0  0  0  0
 14 13  2  0  0  0  0
 15  2  1  0  0  0  0
 16 17  2  0  0  0  0
 16 14  1  0  0  0  0
 17 15  1  0  0  0  0
 18 20  1  0  0  0  0
 19 18  2  0  0  0  0
 21  4  1  0  0  0  0
 22 31  2  0  0  0  0
 22 26  1  0  0  0  0
 24 29  1  0  0  0  0
 25 26  1  0  0  0  0
 25 24  2  0  0  0  0
 26 28  2  0  0  0  0
 28 23  1  0  0  0  0
 28 27  1  0  0  0  0
 29 27  2  0  0  0  0
 30 21  1  0  0  0  0
 30 23  2  0  0  0  0
 31 30  1  0  0  0  0
 32 34  2  0  0  0  0
 32 24  1  0  0  0  0
 33 32  2  0  0  0  0
M  END
>  <MODEL>
5

>  <REMARK>
 VINA RESULT:     -11.1      1.363      2.007
  Name = 
  4 active torsions:
  status: ('A' for Active; 'I' for Inactive)
    1  A    between atoms: C_3  and  C_25
    2  A    between atoms: C_7  and  N_11
    3  A    between atoms: C_8  and  O_18
    4  A    between atoms: O_18  and  C_30
                            x       y       z     vdW  Elec       q    Type
                         _______ _______ _______ _____ _____    ______ ____

>  <TORSDO>
F 4

$$$$
=
 OpenBabel10262423313D

 34 39  0  0  0  0  0  0  0  0999 V2000
  187.5620  177.8210  144.7590 C   0  0  0  0  0  0  0  0  0  0  0  0
  190.8520  176.9040  143.2900 C   0  0  0  0  0  3  0  0  0  0  0  0
  190.2020  177.1780  145.4780 C   0  0  0  0  0  3  0  0  0  0  0  0
  185.2630  178.4930  145.6760 C   0  0  0  0  0  0  0  0  0  0  0  0
  186.1140  178.1660  144.4530 C   0  0  0  0  0  3  0  0  0  0  0  0
  187.1810  178.0390  147.1140 C   0  0  0  0  0  0  0  0  0  0  0  0
  187.9990  177.9110  148.7100 S   0  0  0  0  0  0  0  0  0  0  0  0
  185.7760  178.4150  146.9120 C   0  0  0  0  0  3  0  0  0  0  0  0
  189.2510  177.4680  146.4450 C   0  0  0  0  0  0  0  0  0  0  0  0
  187.9720  177.7790  146.0920 C   0  0  0  0  0  0  0  0  0  0  0  0
  189.4890  177.4800  147.8450 N   0  0  0  0  0  0  0  0  0  0  0  0
  190.9280  176.8140  141.8300 C   0  0  0  0  0  3  0  0  0  0  0  0
  189.9890  177.0090  140.9080 C   0  0  0  0  0  0  0  0  0  0  0  0
  188.5980  177.3790  141.1930 C   0  0  0  0  0  3  0  0  0  0  0  0
  189.8490  177.2010  144.1150 C   0  0  0  0  0  0  0  0  0  0  0  0
  187.9960  177.5900  142.3560 C   0  0  0  0  0  3  0  0  0  0  0  0
  188.5070  177.5270  143.7390 C   0  0  0  0  0  0  0  0  0  0  0  0
  190.3730  176.8420  139.4930 C   0  0  0  0  0  0  0  0  0  0  0  0
  190.8680  175.6260  139.0340 O   0  0  0  0  0  1  0  0  0  0  0  0
  190.2570  177.8010  138.6840 O   0  0  0  0  0  0  0  0  0  0  0  0
  183.9100  178.8450  145.5570 O   0  0  0  0  0  0  0  0  0  0  0  0
  181.0110  178.8310  143.2030 C   0  0  0  0  0  3  0  0  0  0  0  0
  183.8130  178.7890  143.1540 C   0  0  0  0  0  3  0  0  0  0  0  0
  181.6710  178.7180  139.5670 C   0  0  0  0  0  0  0  0  0  0  0  0
  180.9730  178.7650  140.7810 C   0  0  0  0  0  3  0  0  0  0  0  0
  181.6840  178.7880  141.9810 C   0  0  0  0  0  0  0  0  0  0  0  0
  183.7520  178.7180  140.7300 C   0  0  0  0  0  3  0  0  0  0  0  0
  183.0930  178.7650  141.9580 C   0  0  0  0  0  0  0  0  0  0  0  0
  183.0350  178.6950  139.5730 N   0  0  0  0  0  0  0  0  0  0  0  0
  183.1440  178.8420  144.3820 C   0  0  0  0  0  0  0  0  0  0  0  0
  181.7370  178.8560  144.3970 C   0  0  0  0  0  3  0  0  0  0  0  0
  180.9590  178.6930  138.3250 N   0  0  0  0  0  0  0  0  0  0  0  0
  181.3640  179.3650  137.3550 O   0  0  0  0  0  0  0  0  0  0  0  0
  179.8230  177.9290  138.1880 O   0  0  0  0  0  0  0  0  0  0  0  0
  1 10  1  0  0  0  0
  2 15  1  0  0  0  0
  3  9  1  0  0  0  0
  4  8  2  0  0  0  0
  5  1  2  0  0  0  0
  5  4  1  0  0  0  0
  6  7  1  0  0  0  0
  8  6  1  0  0  0  0
  9 11  2  0  0  0  0
 10  9  1  0  0  0  0
 10  6  2  0  0  0  0
 11  7  1  0  0  0  0
 12  2  2  0  0  0  0
 13 14  2  0  0  0  0
 13 12  1  0  0  0  0
 14 16  1  0  0  0  0
 15  3  2  0  0  0  0
 16 17  2  0  0  0  0
 17 15  1  0  0  0  0
 17  1  1  0  0  0  0
 18 13  1  0  0  0  0
 19 18  1  0  0  0  0
 20 18  2  0  0  0  0
 21  4  1  0  0  0  0
 22 31  1  0  0  0  0
 23 30  1  0  0  0  0
 24 29  1  0  0  0  0
 24 25  2  0  0  0  0
 25 26  1  0  0  0  0
 26 22  2  0  0  0  0
 27 28  1  0  0  0  0
 28 26  1  0  0  0  0
 28 23  2  0  0  0  0
 29 27  2  0  0  0  0
 30 31  2  0  0  0  0
 30 21  1  0  0  0  0
 32 24  1  0  0  0  0
 33 32  2  0  0  0  0
 34 32  2  0  0  0  0
M  END
>  <MODEL>
6

>  <REMARK>
 VINA RESULT:     -11.1      3.941      7.514
  Name = 
  4 active torsions:
  status: ('A' for Active; 'I' for Inactive)
    1  A    between atoms: C_3  and  C_25
    2  A    between atoms: C_7  and  N_11
    3  A    between atoms: C_8  and  O_18
    4  A    between atoms: O_18  and  C_30
                            x       y       z     vdW  Elec       q    Type
                         _______ _______ _______ _____ _____    ______ ____

>  <TORSDO>
F 4

$$$$
=
 OpenBabel10262423313D

 34 39  0  0  0  0  0  0  0  0999 V2000
  186.5970  178.1950  143.9110 C   0  0  0  0  0  0  0  0  0  0  0  0
  187.9170  177.5430  147.3240 C   0  0  0  0  0  3  0  0  0  0  0  0
  185.8450  178.2420  146.6180 C   0  0  0  0  0  3  0  0  0  0  0  0
  185.7890  178.6540  141.5200 C   0  0  0  0  0  0  0  0  0  0  0  0
  186.9230  178.1850  142.4260 C   0  0  0  0  0  3  0  0  0  0  0  0
  184.3590  178.9330  143.4780 C   0  0  0  0  0  0  0  0  0  0  0  0
  182.8170  179.3640  144.2940 S   0  0  0  0  0  0  0  0  0  0  0  0
  184.5940  178.9860  142.0300 C   0  0  0  0  0  3  0  0  0  0  0  0
  184.9440  178.5930  145.6230 C   0  0  0  0  0  0  0  0  0  0  0  0
  185.3140  178.5690  144.3110 C   0  0  0  0  0  0  0  0  0  0  0  0
  183.6040  179.0030  145.8440 N   0  0  0  0  0  0  0  0  0  0  0  0
  189.3100  177.0990  147.4270 C   0  0  0  0  0  3  0  0  0  0  0  0
  190.2140  176.8810  146.4750 C   0  0  0  0  0  0  0  0  0  0  0  0
  189.9760  177.0550  145.0380 C   0  0  0  0  0  3  0  0  0  0  0  0
  187.1540  177.8550  146.2770 C   0  0  0  0  0  0  0  0  0  0  0  0
  188.8800  177.4430  144.3980 C   0  0  0  0  0  3  0  0  0  0  0  0
  187.5470  177.8270  144.9010 C   0  0  0  0  0  0  0  0  0  0  0  0
  191.5550  176.4320  146.8940 C   0  0  0  0  0  0  0  0  0  0  0  0
  192.1050  176.8720  148.0930 O   0  0  0  0  0  1  0  0  0  0  0  0
  192.2180  175.6430  146.1690 O   0  0  0  0  0  0  0  0  0  0  0  0
  185.9380  178.7150  140.1260 O   0  0  0  0  0  0  0  0  0  0  0  0
  184.0030  177.4390  137.1980 C   0  0  0  0  0  3  0  0  0  0  0  0
  183.8120  179.3760  139.2150 C   0  0  0  0  0  3  0  0  0  0  0  0
  180.7510  179.0020  136.3960 C   0  0  0  0  0  0  0  0  0  0  0  0
  181.8610  178.1510  136.3180 C   0  0  0  0  0  3  0  0  0  0  0  0
  182.8850  178.2730  137.2570 C   0  0  0  0  0  0  0  0  0  0  0  0
  181.6700  180.0760  138.3160 C   0  0  0  0  0  3  0  0  0  0  0  0
  182.7910  179.2470  138.2710 C   0  0  0  0  0  0  0  0  0  0  0  0
  180.6850  179.9380  137.3870 N   0  0  0  0  0  0  0  0  0  0  0  0
  184.9310  178.5350  139.1670 C   0  0  0  0  0  0  0  0  0  0  0  0
  185.0210  177.5720  138.1470 C   0  0  0  0  0  3  0  0  0  0  0  0
  179.6890  178.8930  135.4420 N   0  0  0  0  0  0  0  0  0  0  0  0
  179.2740  177.7710  135.0880 O   0  0  0  0  0  0  0  0  0  0  0  0
  179.1160  180.0240  134.9040 O   0  0  0  0  0  0  0  0  0  0  0  0
  1 10  1  0  0  0  0
  1 17  1  0  0  0  0
  2 12  2  0  0  0  0
  4  8  2  0  0  0  0
  4  5  1  0  0  0  0
  5  1  2  0  0  0  0
  6  7  1  0  0  0  0
  6 10  2  0  0  0  0
  7 11  1  0  0  0  0
  8  6  1  0  0  0  0
  9 11  2  0  0  0  0
  9  3  1  0  0  0  0
 10  9  1  0  0  0  0
 13 18  1  0  0  0  0
 13 12  1  0  0  0  0
 14 13  2  0  0  0  0
 15  3  2  0  0  0  0
 15  2  1  0  0  0  0
 16 17  2  0  0  0  0
 16 14  1  0  0  0  0
 17 15  1  0  0  0  0
 18 19  1  0  0  0  0
 20 18  2  0  0  0  0
 21  4  1  0  0  0  0
 22 26  2  0  0  0  0
 22 31  1  0  0  0  0
 24 29  1  0  0  0  0
 25 24  2  0  0  0  0
 25 26  1  0  0  0  0
 26 28  1  0  0  0  0
 28 27  1  0  0  0  0
 28 23  2  0  0  0  0
 29 27  2  0  0  0  0
 30 23  1  0  0  0  0
 30 21  1  0  0  0  0
 31 30  2  0  0  0  0
 32 24  1  0  0  0  0
 33 32  2  0  0  0  0
 34 32  2  0  0  0  0
M  END
>  <MODEL>
7

>  <REMARK>
 VINA RESULT:     -10.7      4.350      6.224
  Name = 
  4 active torsions:
  status: ('A' for Active; 'I' for Inactive)
    1  A    between atoms: C_3  and  C_25
    2  A    between atoms: C_7  and  N_11
    3  A    between atoms: C_8  and  O_18
    4  A    between atoms: O_18  and  C_30
                            x       y       z     vdW  Elec       q    Type
                         _______ _______ _______ _____ _____    ______ ____

>  <TORSDO>
F 4

$$$$
=
 OpenBabel10262423313D

 34 39  0  0  0  0  0  0  0  0999 V2000
  186.9480  178.0930  144.4070 C   0  0  0  0  0  0  0  0  0  0  0  0
  183.3500  178.6620  145.1510 C   0  0  0  0  0  3  0  0  0  0  0  0
  185.1590  178.4240  146.5490 C   0  0  0  0  0  3  0  0  0  0  0  0
  189.4020  177.6660  143.7950 C   0  0  0  0  0  0  0  0  0  0  0  0
  187.9790  177.9170  143.3050 C   0  0  0  0  0  3  0  0  0  0  0  0
  188.6290  177.8770  146.1000 C   0  0  0  0  0  0  0  0  0  0  0  0
  188.8690  177.8850  147.8810 S   0  0  0  0  0  0  0  0  0  0  0  0
  189.6880  177.6650  145.1050 C   0  0  0  0  0  3  0  0  0  0  0  0
  186.5120  178.2250  146.7760 C   0  0  0  0  0  0  0  0  0  0  0  0
  187.3770  178.0650  145.7340 C   0  0  0  0  0  0  0  0  0  0  0  0
  187.1240  178.1620  148.0560 N   0  0  0  0  0  0  0  0  0  0  0  0
  182.4420  178.7690  144.0060 C   0  0  0  0  0  3  0  0  0  0  0  0
  182.6930  178.6960  142.7010 C   0  0  0  0  0  0  0  0  0  0  0  0
  184.0190  178.4790  142.1130 C   0  0  0  0  0  3  0  0  0  0  0  0
  184.6650  178.4640  145.2310 C   0  0  0  0  0  0  0  0  0  0  0  0
  185.1950  178.3160  142.7060 C   0  0  0  0  0  3  0  0  0  0  0  0
  185.5690  178.2970  144.1330 C   0  0  0  0  0  0  0  0  0  0  0  0
  181.5530  178.8440  141.7750 C   0  0  0  0  0  0  0  0  0  0  0  0
  181.4890  178.0910  140.6080 O   0  0  0  0  0  0  0  0  0  0  0  0
  180.6250  179.6560  142.0330 O   0  0  0  0  0  1  0  0  0  0  0  0
  190.4640  177.4690  142.9000 O   0  0  0  0  0  0  0  0  0  0  0  0
  189.0770  176.9990  139.4640 C   0  0  0  0  0  3  0  0  0  0  0  0
  191.5450  177.0370  140.7940 C   0  0  0  0  0  3  0  0  0  0  0  0
  191.4130  176.3440  136.6760 C   0  0  0  0  0  0  0  0  0  0  0  0
  190.2160  176.5560  137.3730 C   0  0  0  0  0  3  0  0  0  0  0  0
  190.2560  176.7880  138.7480 C   0  0  0  0  0  0  0  0  0  0  0  0
  192.6650  176.5890  138.6890 C   0  0  0  0  0  3  0  0  0  0  0  0
  191.4960  176.8060  139.4170 C   0  0  0  0  0  0  0  0  0  0  0  0
  192.6000  176.3650  137.3490 N   0  0  0  0  0  0  0  0  0  0  0  0
  190.3660  177.2600  141.5160 C   0  0  0  0  0  0  0  0  0  0  0  0
  189.1320  177.2320  140.8420 C   0  0  0  0  0  3  0  0  0  0  0  0
  191.3940  176.1040  135.2640 N   0  0  0  0  0  0  0  0  0  0  0  0
  192.4410  176.2130  134.5940 O   0  0  0  0  0  0  0  0  0  0  0  0
  190.2230  175.7500  134.6330 O   0  0  0  0  0  0  0  0  0  0  0  0
  1 10  1  0  0  0  0
  2 15  1  0  0  0  0
  3  9  1  0  0  0  0
  4  8  2  0  0  0  0
  5  4  1  0  0  0  0
  5  1  2  0  0  0  0
  6  7  1  0  0  0  0
  7 11  1  0  0  0  0
  8  6  1  0  0  0  0
  9 11  2  0  0  0  0
 10  6  2  0  0  0  0
 10  9  1  0  0  0  0
 12  2  2  0  0  0  0
 13 12  1  0  0  0  0
 14 13  2  0  0  0  0
 14 16  1  0  0  0  0
 15  3  2  0  0  0  0
 16 17  2  0  0  0  0
 17  1  1  0  0  0  0
 17 15  1  0  0  0  0
 18 20  1  0  0  0  0
 18 13  1  0  0  0  0
 19 18  2  0  0  0  0
 21  4  1  0  0  0  0
 22 31  1  0  0  0  0
 23 30  1  0  0  0  0
 24 29  1  0  0  0  0
 24 25  2  0  0  0  0
 25 26  1  0  0  0  0
 26 28  1  0  0  0  0
 26 22  2  0  0  0  0
 27 28  1  0  0  0  0
 28 23  2  0  0  0  0
 29 27  2  0  0  0  0
 30 21  1  0  0  0  0
 31 30  2  0  0  0  0
 32 24  1  0  0  0  0
 33 32  2  0  0  0  0
 34 32  2  0  0  0  0
M  END
>  <MODEL>
8

>  <REMARK>
 VINA RESULT:     -10.5      2.644      5.477
  Name = 
  4 active torsions:
  status: ('A' for Active; 'I' for Inactive)
    1  A    between atoms: C_3  and  C_25
    2  A    between atoms: C_7  and  N_11
    3  A    between atoms: C_8  and  O_18
    4  A    between atoms: O_18  and  C_30
                            x       y       z     vdW  Elec       q    Type
                         _______ _______ _______ _____ _____    ______ ____

>  <TORSDO>
F 4

$$$$
=
 OpenBabel10262423313D

 34 39  0  0  0  0  0  0  0  0999 V2000
  188.9900  177.8030  141.9130 C   0  0  0  0  0  0  0  0  0  0  0  0
  191.0630  177.0440  144.9050 C   0  0  0  0  0  3  0  0  0  0  0  0
  191.5820  177.0190  142.6660 C   0  0  0  0  0  3  0  0  0  0  0  0
  187.4720  178.3100  139.9090 C   0  0  0  0  0  0  0  0  0  0  0  0
  187.6170  178.2350  141.4260 C   0  0  0  0  0  3  0  0  0  0  0  0
  189.8180  177.6840  139.6680 C   0  0  0  0  0  0  0  0  0  0  0  0
  191.2910  177.3110  138.7080 S   0  0  0  0  0  0  0  0  0  0  0  0
  188.5160  178.0630  139.1050 C   0  0  0  0  0  3  0  0  0  0  0  0
  191.2500  177.1890  141.3300 C   0  0  0  0  0  0  0  0  0  0  0  0
  189.9910  177.5690  140.9690 C   0  0  0  0  0  0  0  0  0  0  0  0
  192.1350  176.9910  140.2380 N   0  0  0  0  0  0  0  0  0  0  0  0
  190.4130  177.1580  146.2130 C   0  0  0  0  0  3  0  0  0  0  0  0
  189.1650  177.4990  146.5240 C   0  0  0  0  0  0  0  0  0  0  0  0
  188.1250  177.8510  145.5510 C   0  0  0  0  0  3  0  0  0  0  0  0
  190.6160  177.2410  143.6650 C   0  0  0  0  0  0  0  0  0  0  0  0
  188.1830  177.9090  144.2270 C   0  0  0  0  0  3  0  0  0  0  0  0
  189.2930  177.6410  143.2920 C   0  0  0  0  0  0  0  0  0  0  0  0
  188.7980  177.5250  147.9530 C   0  0  0  0  0  0  0  0  0  0  0  0
  189.3830  178.4450  148.8160 O   0  0  0  0  0  1  0  0  0  0  0  0
  187.9490  176.7110  148.4070 O   0  0  0  0  0  0  0  0  0  0  0  0
  186.2610  178.6800  139.3040 O   0  0  0  0  0  0  0  0  0  0  0  0
  182.5570  178.5840  139.7730 C   0  0  0  0  0  3  0  0  0  0  0  0
  184.9060  178.7780  141.2900 C   0  0  0  0  0  3  0  0  0  0  0  0
  181.1900  178.8020  143.2010 C   0  0  0  0  0  0  0  0  0  0  0  0
  181.2420  178.6950  141.8050 C   0  0  0  0  0  3  0  0  0  0  0  0
  182.4800  178.6860  141.1630 C   0  0  0  0  0  0  0  0  0  0  0  0
  183.5700  178.8920  143.3120 C   0  0  0  0  0  3  0  0  0  0  0  0
  183.6620  178.7850  141.9240 C   0  0  0  0  0  0  0  0  0  0  0  0
  182.3490  178.8980  143.9140 N   0  0  0  0  0  0  0  0  0  0  0  0
  184.9900  178.6650  139.8970 C   0  0  0  0  0  0  0  0  0  0  0  0
  183.8050  178.5750  139.1440 C   0  0  0  0  0  3  0  0  0  0  0  0
  179.9290  178.8130  143.8780 N   0  0  0  0  0  0  0  0  0  0  0  0
  179.5160  177.7860  144.4550 O   0  0  0  0  0  0  0  0  0  0  0  0
  179.1590  179.9540  143.9010 O   0  0  0  0  0  0  0  0  0  0  0  0
  1 17  1  0  0  0  0
  2 12  2  0  0  0  0
  3 15  2  0  0  0  0
  4  5  2  0  0  0  0
  5  1  1  0  0  0  0
  6 10  1  0  0  0  0
  7  6  1  0  0  0  0
  7 11  1  0  0  0  0
  8  6  2  0  0  0  0
  8  4  1  0  0  0  0
  9  3  1  0  0  0  0
 10  9  1  0  0  0  0
 10  1  2  0  0  0  0
 11  9  2  0  0  0  0
 12 13  1  0  0  0  0
 13 18  1  0  0  0  0
 14 13  2  0  0  0  0
 15  2  1  0  0  0  0
 16 14  1  0  0  0  0
 17 15  1  0  0  0  0
 17 16  2  0  0  0  0
 18 20  2  0  0  0  0
 18 19  1  0  0  0  0
 21 30  1  0  0  0  0
 21  4  1  0  0  0  0
 22 26  1  0  0  0  0
 23 28  1  0  0  0  0
 24 32  1  0  0  0  0
 24 29  1  0  0  0  0
 25 24  2  0  0  0  0
 26 25  1  0  0  0  0
 26 28  2  0  0  0  0
 27 29  2  0  0  0  0
 28 27  1  0  0  0  0
 30 23  2  0  0  0  0
 31 22  2  0  0  0  0
 31 30  1  0  0  0  0
 32 34  2  0  0  0  0
 32 33  2  0  0  0  0
M  END
>  <MODEL>
9

>  <REMARK>
 VINA RESULT:     -10.4      3.337      7.555
  Name = 
  4 active torsions:
  status: ('A' for Active; 'I' for Inactive)
    1  A    between atoms: C_3  and  C_25
    2  A    between atoms: C_7  and  N_11
    3  A    between atoms: C_8  and  O_18
    4  A    between atoms: O_18  and  C_30
                            x       y       z     vdW  Elec       q    Type
                         _______ _______ _______ _____ _____    ______ ____

>  <TORSDO>
F 4

$$$$
