=
 OpenBabel10262423063D

 37 41  0  0  1  0  0  0  0  0999 V2000
  187.7320  177.9500  139.5720 C   0  0  1  0  0  3  0  0  0  0  0  0
  189.4920  179.1770  140.3560 O   0  0  0  0  0  1  0  0  0  0  0  0
  187.8680  177.3320  142.1690 C   0  0  1  0  0  3  0  0  0  0  0  0
  190.3820  175.6190  141.7770 O   0  0  0  0  0  0  0  0  0  0  0  0
  186.8750  177.6270  143.3090 C   0  0  0  0  0  2  0  0  0  0  0  0
  189.1800  178.3150  139.2950 C   0  0  1  0  0  0  0  0  0  0  0  0
  190.3960  176.8790  141.7660 C   0  0  0  0  0  0  0  0  0  0  0  0
  191.5140  177.4930  139.6180 C   0  0  0  0  0  0  0  0  0  0  0  0
  186.2290  178.8460  141.3910 C   0  0  0  0  0  0  0  0  0  0  0  0
  188.6290  176.4770  139.4320 S   0  0  0  0  0  0  0  0  0  0  0  0
  190.5120  177.8560  138.7790 C   0  0  0  0  0  3  0  0  0  0  0  0
  187.3700  178.1090  141.0050 N   0  0  0  0  0  0  0  0  0  0  0  0
  189.3590  177.6520  142.5660 C   0  0  2  0  0  3  0  0  0  0  0  0
  185.8270  178.6190  142.7940 C   0  0  1  0  0  3  0  0  0  0  0  0
  191.3880  177.5540  141.0280 O   0  0  0  0  0  0  0  0  0  0  0  0
  185.6210  179.6260  140.6100 O   0  0  0  0  0  0  0  0  0  0  0  0
  183.7760  177.9300  141.5150 C   0  0  0  0  0  2  0  0  0  0  0  0
  184.3970  178.0690  142.8890 C   0  0  2  0  0  3  0  0  0  0  0  0
  183.4480  178.9700  143.6360 C   0  0  0  0  0  2  0  0  0  0  0  0
  182.3890  179.2950  142.6060 C   0  0  1  0  0  3  0  0  0  0  0  0
  182.4310  178.3250  141.5920 O   0  0  0  0  0  0  0  0  0  0  0  0
  180.3210  180.4980  142.8310 O   0  0  0  0  0  1  0  0  0  0  0  0
  181.0070  179.3500  143.2400 C   0  0  0  0  0  2  0  0  0  0  0  0
  190.6860  179.7690  143.8200 O   0  0  0  0  0  1  0  0  0  0  0  0
  190.4410  178.7370  144.7270 C   0  0  2  0  0  3  0  0  0  0  0  0
  191.2180  177.5020  144.2910 C   0  0  2  0  0  3  0  0  0  0  0  0
  189.7000  177.5740  144.0710 C   0  0  2  0  0  0  0  0  0  0  0  0
  191.6510  176.7060  145.4870 C   0  0  0  0  0  0  0  0  0  0  0  0
  191.9340  175.4870  145.3590 O   0  0  0  0  0  0  0  0  0  0  0  0
  191.7960  177.3170  146.7280 O   0  0  0  0  0  1  0  0  0  0  0  0
  188.8470  176.6930  144.9990 C   0  0  0  0  0  2  0  0  0  0  0  0
  188.3330  177.4350  146.1840 C   0  0  0  0  0  0  0  0  0  0  0  0
  188.2520  177.6750  148.5880 O   0  0  0  0  0  1  0  0  0  0  0  0
  187.5400  178.4010  146.0240 O   0  0  0  0  0  0  0  0  0  0  0  0
  188.7280  177.0360  147.4940 N   0  0  0  0  0  2  0  0  0  0  0  0
  193.8180  177.1940  140.0020 O   0  0  0  0  0  1  0  0  0  0  0  0
  192.8210  177.0950  139.0320 C   0  0  0  0  0  2  0  0  0  0  0  0
  1 10  1  1  0  0  0
  1 12  1  0  0  0  0
  3 13  1  0  0  0  0
  3  5  1  1  0  0  0
  6 10  1  0  0  0  0
  6  1  1  0  0  0  0
  6  2  1  1  0  0  0
  7  4  2  0  0  0  0
  8 15  1  0  0  0  0
  9 14  1  0  0  0  0
 11  6  1  0  0  0  0
 11  8  2  0  0  0  0
 12  9  1  0  0  0  0
 12  3  1  0  0  0  0
 13  7  1  6  0  0  0
 13 27  1  0  0  0  0
 14 18  1  0  0  0  0
 14  5  1  6  0  0  0
 15  7  1  0  0  0  0
 16  9  2  0  0  0  0
 17 21  1  0  0  0  0
 18 17  1  6  0  0  0
 18 19  1  0  0  0  0
 20 23  1  1  0  0  0
 20 19  1  0  0  0  0
 21 20  1  0  0  0  0
 22 23  1  0  0  0  0
 25 24  1  6  0  0  0
 26 25  1  0  0  0  0
 26 28  1  1  0  0  0
 27 26  1  0  0  0  0
 27 25  1  0  0  0  0
 27 31  1  1  0  0  0
 28 30  1  0  0  0  0
 29 28  2  0  0  0  0
 31 32  1  0  0  0  0
 32 35  1  0  0  0  0
 34 32  2  0  0  0  0
 35 33  1  0  0  0  0
 37  8  1  0  0  0  0
 37 36  1  0  0  0  0
M  END
>  <MODEL>
1

>  <REMARK>
 VINA RESULT:      -7.9      0.000      0.000
  Name = 
  7 active torsions:
  status: ('A' for Active; 'I' for Inactive)
    1  A    between atoms: C_1  and  C_5
    2  A    between atoms: C_1  and  C_36
    3  A    between atoms: C_6  and  C_31
    4  A    between atoms: C_11  and  C_33
    5  A    between atoms: C_18  and  C_19
    6  A    between atoms: C_21  and  C_30
    7  A    between atoms: C_29  and  C_36
                            x       y       z     vdW  Elec       q    Type
                         _______ _______ _______ _____ _____    ______ ____

>  <TORSDO>
F 7

$$$$
=
 OpenBabel10262423063D

 37 41  0  0  1  0  0  0  0  0999 V2000
  183.3570  173.9270  136.4800 C   0  0  1  0  0  3  0  0  0  0  0  0
  184.6650  173.9650  134.6080 O   0  0  0  0  0  1  0  0  0  0  0  0
  185.4650  175.4160  137.1740 C   0  0  1  0  0  3  0  0  0  0  0  0
  187.3150  172.9750  137.3410 O   0  0  0  0  0  0  0  0  0  0  0  0
  185.5460  176.9140  137.5250 C   0  0  0  0  0  2  0  0  0  0  0  0
  183.9770  173.0450  135.4110 C   0  0  1  0  0  0  0  0  0  0  0  0
  186.9350  173.4810  136.2510 C   0  0  0  0  0  0  0  0  0  0  0  0
  185.9470  171.5790  134.9680 C   0  0  0  0  0  0  0  0  0  0  0  0
  183.4080  176.4470  136.6320 C   0  0  0  0  0  0  0  0  0  0  0  0
  184.2770  172.6990  137.2790 S   0  0  0  0  0  0  0  0  0  0  0  0
  184.6030  171.7210  135.0870 C   0  0  0  0  0  3  0  0  0  0  0  0
  184.0890  175.2090  136.6540 N   0  0  0  0  0  0  0  0  0  0  0  0
  186.6020  174.9630  136.1820 C   0  0  2  0  0  3  0  0  0  0  0  0
  184.2110  177.5700  137.1550 C   0  0  1  0  0  3  0  0  0  0  0  0
  186.8430  172.6670  135.1050 O   0  0  0  0  0  0  0  0  0  0  0  0
  182.2310  176.5730  136.2000 O   0  0  0  0  0  0  0  0  0  0  0  0
  184.1770  179.5680  138.6810 C   0  0  0  0  0  2  0  0  0  0  0  0
  183.5290  178.2380  138.3590 C   0  0  2  0  0  3  0  0  0  0  0  0
  183.6470  177.4490  139.6370 C   0  0  0  0  0  2  0  0  0  0  0  0
  184.3860  178.3890  140.5630 C   0  0  1  0  0  3  0  0  0  0  0  0
  184.2560  179.6990  140.0760 O   0  0  0  0  0  0  0  0  0  0  0  0
  184.7470  178.8720  142.8890 O   0  0  0  0  0  1  0  0  0  0  0  0
  183.8540  178.2880  141.9850 C   0  0  0  0  0  2  0  0  0  0  0  0
  186.8490  177.2570  134.6030 O   0  0  0  0  0  1  0  0  0  0  0  0
  188.0220  177.0290  135.3260 C   0  0  2  0  0  3  0  0  0  0  0  0
  188.6390  175.7160  134.8630 C   0  0  2  0  0  3  0  0  0  0  0  0
  187.9070  175.7910  136.2120 C   0  0  2  0  0  0  0  0  0  0  0  0
  190.1360  175.7820  134.9470 C   0  0  0  0  0  0  0  0  0  0  0  0
  190.7260  176.8770  134.7560 O   0  0  0  0  0  0  0  0  0  0  0  0
  190.8750  174.6540  135.2880 O   0  0  0  0  0  1  0  0  0  0  0  0
  188.8030  175.7550  137.4610 C   0  0  0  0  0  2  0  0  0  0  0  0
  188.9540  177.0930  138.0980 C   0  0  0  0  0  0  0  0  0  0  0  0
  188.1540  178.7130  139.7050 O   0  0  0  0  0  1  0  0  0  0  0  0
  189.8640  177.8730  137.7100 O   0  0  0  0  0  0  0  0  0  0  0  0
  188.0560  177.4910  139.1310 N   0  0  0  0  0  2  0  0  0  0  0  0
  187.6110  169.9640  135.3770 O   0  0  0  0  0  1  0  0  0  0  0  0
  186.4900  170.2460  134.5970 C   0  0  0  0  0  2  0  0  0  0  0  0
  1 12  1  0  0  0  0
  1 10  1  1  0  0  0
  3  5  1  6  0  0  0
  6  2  1  6  0  0  0
  6  1  1  0  0  0  0
  6 10  1  0  0  0  0
  7  4  2  0  0  0  0
  8 11  2  0  0  0  0
  8 15  1  0  0  0  0
  9 12  1  0  0  0  0
  9 14  1  0  0  0  0
 11  6  1  0  0  0  0
 12  3  1  0  0  0  0
 13 27  1  0  0  0  0
 13  7  1  1  0  0  0
 13  3  1  0  0  0  0
 14  5  1  1  0  0  0
 14 18  1  0  0  0  0
 15  7  1  0  0  0  0
 16  9  2  0  0  0  0
 17 21  1  0  0  0  0
 18 17  1  1  0  0  0
 18 19  1  0  0  0  0
 19 20  1  0  0  0  0
 20 23  1  1  0  0  0
 21 20  1  0  0  0  0
 23 22  1  0  0  0  0
 25 24  1  6  0  0  0
 25 27  1  0  0  0  0
 26 28  1  1  0  0  0
 26 25  1  0  0  0  0
 26 27  1  0  0  0  0
 27 31  1  1  0  0  0
 28 30  1  0  0  0  0
 29 28  2  0  0  0  0
 31 32  1  0  0  0  0
 32 35  1  0  0  0  0
 34 32  2  0  0  0  0
 35 33  1  0  0  0  0
 37  8  1  0  0  0  0
 37 36  1  0  0  0  0
M  END
>  <MODEL>
2

>  <REMARK>
 VINA RESULT:      -6.4      5.350      7.819
  Name = 
  7 active torsions:
  status: ('A' for Active; 'I' for Inactive)
    1  A    between atoms: C_1  and  C_5
    2  A    between atoms: C_1  and  C_36
    3  A    between atoms: C_6  and  C_31
    4  A    between atoms: C_11  and  C_33
    5  A    between atoms: C_18  and  C_19
    6  A    between atoms: C_21  and  C_30
    7  A    between atoms: C_29  and  C_36
                            x       y       z     vdW  Elec       q    Type
                         _______ _______ _______ _____ _____    ______ ____

>  <TORSDO>
F 7

$$$$
=
 OpenBabel10262423063D

 37 41  0  0  1  0  0  0  0  0999 V2000
  184.5320  178.8090  139.5010 C   0  0  1  0  0  3  0  0  0  0  0  0
  182.6470  179.1630  138.2610 O   0  0  0  0  0  1  0  0  0  0  0  0
  184.2140  176.5450  138.1170 C   0  0  1  0  0  3  0  0  0  0  0  0
  181.8420  175.6530  139.8440 O   0  0  0  0  0  0  0  0  0  0  0  0
  185.0900  175.9330  137.0080 C   0  0  0  0  0  2  0  0  0  0  0  0
  183.0940  179.2910  139.5840 C   0  0  1  0  0  0  0  0  0  0  0  0
  181.7590  176.5560  138.9680 C   0  0  0  0  0  0  0  0  0  0  0  0
  180.7910  178.5240  140.1640 C   0  0  0  0  0  0  0  0  0  0  0  0
  185.8260  178.1360  137.4410 C   0  0  0  0  0  0  0  0  0  0  0  0
  183.7340  177.8790  140.7230 S   0  0  0  0  0  0  0  0  0  0  0  0
  181.8380  179.3530  140.4020 C   0  0  0  0  0  3  0  0  0  0  0  0
  184.7640  177.9070  138.3430 N   0  0  0  0  0  0  0  0  0  0  0  0
  182.6800  176.5220  137.7600 C   0  0  2  0  0  3  0  0  0  0  0  0
  186.1210  176.9800  136.5710 C   0  0  1  0  0  3  0  0  0  0  0  0
  180.7950  177.5740  139.1140 O   0  0  0  0  0  0  0  0  0  0  0  0
  186.4520  179.2280  137.3850 O   0  0  0  0  0  0  0  0  0  0  0  0
  188.2900  176.4440  135.4200 C   0  0  0  0  0  2  0  0  0  0  0  0
  187.5670  176.4950  136.7490 C   0  0  2  0  0  3  0  0  0  0  0  0
  187.6740  175.0900  137.2830 C   0  0  0  0  0  2  0  0  0  0  0  0
  188.4170  174.3540  136.1910 C   0  0  1  0  0  3  0  0  0  0  0  0
  189.0910  175.2920  135.3930 O   0  0  0  0  0  0  0  0  0  0  0  0
  190.3150  173.9790  137.6160 O   0  0  0  0  0  1  0  0  0  0  0  0
  189.3940  173.3450  136.7770 C   0  0  0  0  0  2  0  0  0  0  0  0
  182.7980  176.9380  134.9980 O   0  0  0  0  0  1  0  0  0  0  0  0
  182.2780  175.6740  135.2820 C   0  0  2  0  0  3  0  0  0  0  0  0
  180.9570  175.8400  136.0220 C   0  0  2  0  0  3  0  0  0  0  0  0
  182.2200  175.4140  136.7860 C   0  0  2  0  0  0  0  0  0  0  0  0
  180.0170  174.7230  135.6730 C   0  0  0  0  0  0  0  0  0  0  0  0
  180.1670  174.0930  134.5940 O   0  0  0  0  0  0  0  0  0  0  0  0
  179.0140  174.3410  136.5560 O   0  0  0  0  0  1  0  0  0  0  0  0
  182.2670  173.9420  137.2300 C   0  0  0  0  0  2  0  0  0  0  0  0
  183.3630  173.1780  136.5710 C   0  0  0  0  0  0  0  0  0  0  0  0
  185.5480  172.1560  136.7310 O   0  0  0  0  0  1  0  0  0  0  0  0
  183.2640  172.8620  135.3550 O   0  0  0  0  0  0  0  0  0  0  0  0
  184.5250  172.8240  137.3150 N   0  0  0  0  0  2  0  0  0  0  0  0
  179.3180  177.5010  141.6880 O   0  0  0  0  0  1  0  0  0  0  0  0
  179.5620  178.6800  140.9850 C   0  0  0  0  0  2  0  0  0  0  0  0
  1  6  1  0  0  0  0
  1 10  1  1  0  0  0
  3  5  1  6  0  0  0
  3 12  1  0  0  0  0
  6  2  1  6  0  0  0
  6 11  1  0  0  0  0
  6 10  1  0  0  0  0
  7 15  1  0  0  0  0
  7  4  2  0  0  0  0
  8 11  2  0  0  0  0
  8 37  1  0  0  0  0
  9 12  1  0  0  0  0
 12  1  1  0  0  0  0
 13  3  1  0  0  0  0
 13  7  1  1  0  0  0
 14 18  1  0  0  0  0
 14  5  1  1  0  0  0
 14  9  1  0  0  0  0
 15  8  1  0  0  0  0
 16  9  2  0  0  0  0
 18 17  1  6  0  0  0
 18 19  1  0  0  0  0
 20 23  1  1  0  0  0
 20 19  1  0  0  0  0
 21 17  1  0  0  0  0
 21 20  1  0  0  0  0
 23 22  1  0  0  0  0
 25 24  1  1  0  0  0
 25 26  1  0  0  0  0
 25 27  1  0  0  0  0
 26 28  1  6  0  0  0
 26 27  1  0  0  0  0
 27 31  1  1  0  0  0
 27 13  1  0  0  0  0
 28 30  1  0  0  0  0
 29 28  2  0  0  0  0
 32 31  1  0  0  0  0
 32 35  1  0  0  0  0
 33 35  1  0  0  0  0
 34 32  2  0  0  0  0
 37 36  1  0  0  0  0
M  END
>  <MODEL>
3

>  <REMARK>
 VINA RESULT:      -6.2      5.981     10.417
  Name = 
  7 active torsions:
  status: ('A' for Active; 'I' for Inactive)
    1  A    between atoms: C_1  and  C_5
    2  A    between atoms: C_1  and  C_36
    3  A    between atoms: C_6  and  C_31
    4  A    between atoms: C_11  and  C_33
    5  A    between atoms: C_18  and  C_19
    6  A    between atoms: C_21  and  C_30
    7  A    between atoms: C_29  and  C_36
                            x       y       z     vdW  Elec       q    Type
                         _______ _______ _______ _____ _____    ______ ____

>  <TORSDO>
F 7

$$$$
=
 OpenBabel10262423063D

 37 41  0  0  1  0  0  0  0  0999 V2000
  184.8530  179.0830  138.8570 C   0  0  1  0  0  3  0  0  0  0  0  0
  183.1190  178.7810  137.4020 O   0  0  0  0  0  1  0  0  0  0  0  0
  185.1710  176.5880  137.9560 C   0  0  1  0  0  3  0  0  0  0  0  0
  182.8080  175.5380  139.6060 O   0  0  0  0  0  0  0  0  0  0  0  0
  186.2900  175.9840  137.0860 C   0  0  0  0  0  2  0  0  0  0  0  0
  183.3510  179.2480  138.7030 C   0  0  1  0  0  0  0  0  0  0  0  0
  182.6690  176.2210  138.5560 C   0  0  0  0  0  0  0  0  0  0  0  0
  181.1850  178.1200  139.2160 C   0  0  0  0  0  0  0  0  0  0  0  0
  186.5170  178.3360  137.1110 C   0  0  0  0  0  0  0  0  0  0  0  0
  184.0950  178.2470  140.1670 S   0  0  0  0  0  0  0  0  0  0  0  0
  182.0090  179.1860  139.3700 C   0  0  0  0  0  3  0  0  0  0  0  0
  185.4090  178.0540  137.9410 N   0  0  0  0  0  0  0  0  0  0  0  0
  183.7320  176.1640  137.4720 C   0  0  2  0  0  3  0  0  0  0  0  0
  187.1460  177.1310  136.5350 C   0  0  1  0  0  3  0  0  0  0  0  0
  181.5150  177.0140  138.3950 O   0  0  0  0  0  0  0  0  0  0  0  0
  186.9210  179.5080  136.8850 O   0  0  0  0  0  0  0  0  0  0  0  0
  189.0430  175.5630  137.0490 C   0  0  0  0  0  2  0  0  0  0  0  0
  188.6220  177.0140  136.9440 C   0  0  2  0  0  3  0  0  0  0  0  0
  188.9210  177.5860  138.3050 C   0  0  0  0  0  2  0  0  0  0  0  0
  189.4520  176.3990  139.0770 C   0  0  1  0  0  3  0  0  0  0  0  0
  189.8830  175.4230  138.1640 O   0  0  0  0  0  0  0  0  0  0  0  0
  190.4020  176.2760  141.2800 O   0  0  0  0  0  1  0  0  0  0  0  0
  190.5880  176.8100  140.0020 C   0  0  0  0  0  2  0  0  0  0  0  0
  184.3020  176.0430  134.7380 O   0  0  0  0  0  1  0  0  0  0  0  0
  183.9310  174.7860  135.2180 C   0  0  2  0  0  3  0  0  0  0  0  0
  182.4850  174.8470  135.6930 C   0  0  2  0  0  3  0  0  0  0  0  0
  183.6320  174.8210  136.7150 C   0  0  2  0  0  0  0  0  0  0  0  0
  181.8030  173.5300  135.4670 C   0  0  0  0  0  0  0  0  0  0  0  0
  182.2500  172.7350  134.5990 O   0  0  0  0  0  0  0  0  0  0  0  0
  180.7140  173.1550  136.2450 O   0  0  0  0  0  1  0  0  0  0  0  0
  183.8130  173.5000  137.4820 C   0  0  0  0  0  2  0  0  0  0  0  0
  185.0970  172.8190  137.1570 C   0  0  0  0  0  0  0  0  0  0  0  0
  186.3490  171.3830  135.6690 O   0  0  0  0  0  1  0  0  0  0  0  0
  186.0790  172.9250  137.9400 O   0  0  0  0  0  0  0  0  0  0  0  0
  185.2030  172.0360  135.9710 N   0  0  0  0  0  2  0  0  0  0  0  0
  179.7600  177.1220  140.8030 O   0  0  0  0  0  1  0  0  0  0  0  0
  179.8510  178.1540  139.8700 C   0  0  0  0  0  2  0  0  0  0  0  0
  1 10  1  1  0  0  0
  3  5  1  6  0  0  0
  6  2  1  6  0  0  0
  6  1  1  0  0  0  0
  6 11  1  0  0  0  0
  6 10  1  0  0  0  0
  7  4  2  0  0  0  0
  8 11  2  0  0  0  0
  8 37  1  0  0  0  0
  9 12  1  0  0  0  0
 12  3  1  0  0  0  0
 12  1  1  0  0  0  0
 13  3  1  0  0  0  0
 13  7  1  1  0  0  0
 14 18  1  0  0  0  0
 14  5  1  1  0  0  0
 14  9  1  0  0  0  0
 15  7  1  0  0  0  0
 15  8  1  0  0  0  0
 16  9  2  0  0  0  0
 17 21  1  0  0  0  0
 18 17  1  1  0  0  0
 18 19  1  0  0  0  0
 19 20  1  0  0  0  0
 20 23  1  6  0  0  0
 21 20  1  0  0  0  0
 23 22  1  0  0  0  0
 25 24  1  6  0  0  0
 25 26  1  0  0  0  0
 25 27  1  0  0  0  0
 26 28  1  1  0  0  0
 26 27  1  0  0  0  0
 27 13  1  0  0  0  0
 27 31  1  1  0  0  0
 28 30  1  0  0  0  0
 29 28  2  0  0  0  0
 32 31  1  0  0  0  0
 32 34  2  0  0  0  0
 33 35  1  0  0  0  0
 35 32  1  0  0  0  0
 37 36  1  0  0  0  0
M  END
>  <MODEL>
4

>  <REMARK>
 VINA RESULT:      -6.1      4.910      9.820
  Name = 
  7 active torsions:
  status: ('A' for Active; 'I' for Inactive)
    1  A    between atoms: C_1  and  C_5
    2  A    between atoms: C_1  and  C_36
    3  A    between atoms: C_6  and  C_31
    4  A    between atoms: C_11  and  C_33
    5  A    between atoms: C_18  and  C_19
    6  A    between atoms: C_21  and  C_30
    7  A    between atoms: C_29  and  C_36
                            x       y       z     vdW  Elec       q    Type
                         _______ _______ _______ _____ _____    ______ ____

>  <TORSDO>
F 7

$$$$
=
 OpenBabel10262423063D

 37 41  0  0  1  0  0  0  0  0999 V2000
  182.2040  175.3870  137.0430 C   0  0  1  0  0  3  0  0  0  0  0  0
  183.2520  175.2800  135.0170 O   0  0  0  0  0  1  0  0  0  0  0  0
  184.6500  176.3560  137.5100 C   0  0  1  0  0  3  0  0  0  0  0  0
  185.9410  173.5800  137.3310 O   0  0  0  0  0  0  0  0  0  0  0  0
  185.0920  177.7780  137.9070 C   0  0  0  0  0  2  0  0  0  0  0  0
  182.4860  174.4700  135.8660 C   0  0  1  0  0  0  0  0  0  0  0  0
  185.5480  174.2270  136.3220 C   0  0  0  0  0  0  0  0  0  0  0  0
  184.0280  172.6610  135.1060 C   0  0  0  0  0  0  0  0  0  0  0  0
  182.8110  177.8250  137.2890 C   0  0  0  0  0  0  0  0  0  0  0  0
  182.9300  173.9440  137.6630 S   0  0  0  0  0  0  0  0  0  0  0  0
  182.7710  173.0700  135.4090 C   0  0  0  0  0  3  0  0  0  0  0  0
  183.2090  176.4750  137.1700 N   0  0  0  0  0  0  0  0  0  0  0  0
  185.5350  175.7460  136.3580 C   0  0  2  0  0  3  0  0  0  0  0  0
  183.8930  178.7200  137.7450 C   0  0  1  0  0  3  0  0  0  0  0  0
  185.1470  173.5280  135.1670 O   0  0  0  0  0  0  0  0  0  0  0  0
  181.6450  178.2210  137.0230 O   0  0  0  0  0  0  0  0  0  0  0  0
  184.4210  178.9860  140.1880 C   0  0  0  0  0  2  0  0  0  0  0  0
  183.5220  179.4310  139.0550 C   0  0  2  0  0  3  0  0  0  0  0  0
  182.1300  179.1200  139.5410 C   0  0  0  0  0  2  0  0  0  0  0  0
  182.3640  178.4890  140.8950 C   0  0  1  0  0  3  0  0  0  0  0  0
  183.6420  178.8520  141.3480 O   0  0  0  0  0  0  0  0  0  0  0  0
  180.3090  177.9380  142.0110 O   0  0  0  0  0  1  0  0  0  0  0  0
  181.2970  178.9190  141.8910 C   0  0  0  0  0  2  0  0  0  0  0  0
  186.1150  177.8870  134.6560 O   0  0  0  0  0  1  0  0  0  0  0  0
  187.2730  177.4400  135.2970 C   0  0  2  0  0  3  0  0  0  0  0  0
  187.5630  176.0130  134.8520 C   0  0  2  0  0  3  0  0  0  0  0  0
  186.9800  176.2820  136.2470 C   0  0  2  0  0  0  0  0  0  0  0  0
  189.0430  175.7660  134.8170 C   0  0  0  0  0  0  0  0  0  0  0  0
  189.4820  174.5870  134.8700 O   0  0  0  0  0  1  0  0  0  0  0  0
  189.9330  176.8240  134.6700 O   0  0  0  0  0  0  0  0  0  0  0  0
  187.9530  176.0970  137.4240 C   0  0  0  0  0  2  0  0  0  0  0  0
  188.2890  177.3820  138.0990 C   0  0  0  0  0  0  0  0  0  0  0  0
  189.0740  179.6620  137.9150 O   0  0  0  0  0  1  0  0  0  0  0  0
  188.1940  177.4780  139.3510 O   0  0  0  0  0  0  0  0  0  0  0  0
  188.7340  178.4930  137.3240 N   0  0  0  0  0  2  0  0  0  0  0  0
  185.4870  170.8170  134.9870 O   0  0  0  0  0  1  0  0  0  0  0  0
  184.2240  171.2730  134.6130 C   0  0  0  0  0  2  0  0  0  0  0  0
  1 12  1  0  0  0  0
  1 10  1  1  0  0  0
  3  5  1  6  0  0  0
  6  2  1  6  0  0  0
  6  1  1  0  0  0  0
  6 10  1  0  0  0  0
  7  4  2  0  0  0  0
  8 15  1  0  0  0  0
  8 11  2  0  0  0  0
  9 14  1  0  0  0  0
 11  6  1  0  0  0  0
 12  9  1  0  0  0  0
 12  3  1  0  0  0  0
 13  7  1  1  0  0  0
 13  3  1  0  0  0  0
 14  5  1  1  0  0  0
 14 18  1  0  0  0  0
 15  7  1  0  0  0  0
 16  9  2  0  0  0  0
 17 21  1  0  0  0  0
 18 19  1  1  0  0  0
 18 17  1  0  0  0  0
 19 20  1  0  0  0  0
 20 21  1  0  0  0  0
 20 23  1  1  0  0  0
 23 22  1  0  0  0  0
 25 24  1  6  0  0  0
 25 27  1  0  0  0  0
 26 28  1  1  0  0  0
 26 25  1  0  0  0  0
 26 27  1  0  0  0  0
 27 13  1  0  0  0  0
 27 31  1  1  0  0  0
 28 29  1  0  0  0  0
 30 28  2  0  0  0  0
 31 32  1  0  0  0  0
 32 34  2  0  0  0  0
 35 33  1  0  0  0  0
 35 32  1  0  0  0  0
 37 36  1  0  0  0  0
 37  8  1  0  0  0  0
M  END
>  <MODEL>
5

>  <REMARK>
 VINA RESULT:      -5.7      5.252      7.978
  Name = 
  7 active torsions:
  status: ('A' for Active; 'I' for Inactive)
    1  A    between atoms: C_1  and  C_5
    2  A    between atoms: C_1  and  C_36
    3  A    between atoms: C_6  and  C_31
    4  A    between atoms: C_11  and  C_33
    5  A    between atoms: C_18  and  C_19
    6  A    between atoms: C_21  and  C_30
    7  A    between atoms: C_29  and  C_36
                            x       y       z     vdW  Elec       q    Type
                         _______ _______ _______ _____ _____    ______ ____

>  <TORSDO>
F 7

$$$$
=
 OpenBabel10262423063D

 37 41  0  0  1  0  0  0  0  0999 V2000
  191.5580  176.4360  139.7130 C   0  0  1  0  0  3  0  0  0  0  0  0
  190.4860  174.9680  138.3300 O   0  0  0  0  0  1  0  0  0  0  0  0
  189.1590  177.5400  139.3050 C   0  0  1  0  0  3  0  0  0  0  0  0
  189.8630  178.3580  136.4340 O   0  0  0  0  0  0  0  0  0  0  0  0
  188.0040  177.7890  140.2940 C   0  0  0  0  0  2  0  0  0  0  0  0
  191.7170  175.6310  138.4340 C   0  0  1  0  0  0  0  0  0  0  0  0
  189.5960  177.1730  136.7700 C   0  0  0  0  0  0  0  0  0  0  0  0
  191.5310  175.8210  135.9530 C   0  0  0  0  0  0  0  0  0  0  0  0
  189.6200  176.4110  141.3300 C   0  0  0  0  0  0  0  0  0  0  0  0
  192.0000  177.5330  138.4510 S   0  0  0  0  0  0  0  0  0  0  0  0
  192.2920  175.5780  137.0500 C   0  0  0  0  0  3  0  0  0  0  0  0
  190.1340  176.6990  140.0460 N   0  0  0  0  0  0  0  0  0  0  0  0
  188.6690  176.9120  137.9460 C   0  0  2  0  0  3  0  0  0  0  0  0
  188.3110  177.0400  141.5960 C   0  0  1  0  0  3  0  0  0  0  0  0
  190.1470  176.1050  136.0340 O   0  0  0  0  0  0  0  0  0  0  0  0
  190.2240  175.6810  142.1610 O   0  0  0  0  0  0  0  0  0  0  0  0
  189.8040  178.2650  143.2040 C   0  0  0  0  0  2  0  0  0  0  0  0
  188.3710  177.9740  142.8130 C   0  0  2  0  0  3  0  0  0  0  0  0
  187.7570  177.3880  144.0580 C   0  0  0  0  0  2  0  0  0  0  0  0
  188.9090  177.3620  145.0380 C   0  0  1  0  0  3  0  0  0  0  0  0
  189.8910  178.2670  144.6050 O   0  0  0  0  0  0  0  0  0  0  0  0
  187.0920  178.0790  146.4380 O   0  0  0  0  0  1  0  0  0  0  0  0
  188.4400  177.7080  146.4440 C   0  0  0  0  0  2  0  0  0  0  0  0
  186.8200  174.8330  137.6740 O   0  0  0  0  0  1  0  0  0  0  0  0
  186.2250  176.0610  137.3770 C   0  0  2  0  0  3  0  0  0  0  0  0
  186.8980  176.6490  136.1440 C   0  0  2  0  0  3  0  0  0  0  0  0
  187.2110  177.2170  137.5360 C   0  0  2  0  0  0  0  0  0  0  0  0
  185.9120  177.4440  135.3390 C   0  0  0  0  0  0  0  0  0  0  0  0
  186.3180  178.3740  134.5940 O   0  0  0  0  0  0  0  0  0  0  0  0
  184.5580  177.1280  135.3660 O   0  0  0  0  0  1  0  0  0  0  0  0
  186.6060  178.5960  137.8470 C   0  0  0  0  0  2  0  0  0  0  0  0
  185.4070  178.5130  138.7270 C   0  0  0  0  0  0  0  0  0  0  0  0
  184.2430  179.2840  140.7010 O   0  0  0  0  0  1  0  0  0  0  0  0
  184.4950  177.6840  138.4680 O   0  0  0  0  0  0  0  0  0  0  0  0
  185.3070  179.3610  139.8680 N   0  0  0  0  0  2  0  0  0  0  0  0
  193.4460  176.2440  134.6500 O   0  0  0  0  0  1  0  0  0  0  0  0
  192.1620  175.7020  134.6130 C   0  0  0  0  0  2  0  0  0  0  0  0
  1 10  1  6  0  0  0
  1 12  1  0  0  0  0
  3 12  1  0  0  0  0
  3  5  1  1  0  0  0
  4  7  2  0  0  0  0
  6  2  1  6  0  0  0
  6 10  1  0  0  0  0
  6  1  1  0  0  0  0
  8 15  1  0  0  0  0
  8 11  2  0  0  0  0
  9 14  1  0  0  0  0
  9 16  2  0  0  0  0
 11  6  1  0  0  0  0
 12  9  1  0  0  0  0
 13  7  1  6  0  0  0
 13  3  1  0  0  0  0
 14  5  1  6  0  0  0
 14 18  1  0  0  0  0
 15  7  1  0  0  0  0
 17 21  1  0  0  0  0
 18 17  1  1  0  0  0
 18 19  1  0  0  0  0
 19 20  1  0  0  0  0
 20 23  1  1  0  0  0
 21 20  1  0  0  0  0
 22 23  1  0  0  0  0
 25 27  1  0  0  0  0
 25 24  1  1  0  0  0
 26 28  1  6  0  0  0
 26 25  1  0  0  0  0
 26 27  1  0  0  0  0
 27 31  1  1  0  0  0
 27 13  1  0  0  0  0
 28 30  1  0  0  0  0
 29 28  2  0  0  0  0
 31 32  1  0  0  0  0
 32 35  1  0  0  0  0
 34 32  2  0  0  0  0
 35 33  1  0  0  0  0
 37 36  1  0  0  0  0
 37  8  1  0  0  0  0
M  END
>  <MODEL>
6

>  <REMARK>
 VINA RESULT:      -5.7      3.126      6.967
  Name = 
  7 active torsions:
  status: ('A' for Active; 'I' for Inactive)
    1  A    between atoms: C_1  and  C_5
    2  A    between atoms: C_1  and  C_36
    3  A    between atoms: C_6  and  C_31
    4  A    between atoms: C_11  and  C_33
    5  A    between atoms: C_18  and  C_19
    6  A    between atoms: C_21  and  C_30
    7  A    between atoms: C_29  and  C_36
                            x       y       z     vdW  Elec       q    Type
                         _______ _______ _______ _____ _____    ______ ____

>  <TORSDO>
F 7

$$$$
=
 OpenBabel10262423063D

 37 41  0  0  1  0  0  0  0  0999 V2000
  186.8890  178.6210  137.5890 C   0  0  1  0  0  3  0  0  0  0  0  0
  187.2430  176.4920  138.3370 O   0  0  0  0  0  1  0  0  0  0  0  0
  184.7100  177.2780  136.8220 C   0  0  1  0  0  3  0  0  0  0  0  0
  186.2250  175.8010  134.6010 O   0  0  0  0  0  0  0  0  0  0  0  0
  183.2450  177.4260  137.2770 C   0  0  0  0  0  2  0  0  0  0  0  0
  187.9120  177.4980  137.6260 C   0  0  1  0  0  0  0  0  0  0  0  0
  186.3400  175.5170  135.8240 C   0  0  0  0  0  0  0  0  0  0  0  0
  188.7950  175.5960  136.2750 C   0  0  0  0  0  0  0  0  0  0  0  0
  184.6290  178.6970  138.7100 C   0  0  0  0  0  0  0  0  0  0  0  0
  187.3630  178.2860  135.9590 S   0  0  0  0  0  0  0  0  0  0  0  0
  189.0110  176.7800  136.9010 C   0  0  0  0  0  3  0  0  0  0  0  0
  185.4970  178.1280  137.7520 N   0  0  0  0  0  0  0  0  0  0  0  0
  185.1790  175.7740  136.7710 C   0  0  2  0  0  3  0  0  0  0  0  0
  183.2110  178.3380  138.5090 C   0  0  1  0  0  3  0  0  0  0  0  0
  187.5390  174.9430  136.2900 O   0  0  0  0  0  0  0  0  0  0  0  0
  185.0340  179.4350  139.6480 O   0  0  0  0  0  0  0  0  0  0  0  0
  181.3860  179.7830  139.4570 C   0  0  0  0  0  2  0  0  0  0  0  0
  182.3380  179.5830  138.2970 C   0  0  2  0  0  3  0  0  0  0  0  0
  181.4400  179.4960  137.0900 C   0  0  0  0  0  2  0  0  0  0  0  0
  180.0510  179.6160  137.6770 C   0  0  1  0  0  3  0  0  0  0  0  0
  180.1470  180.2030  138.9490 O   0  0  0  0  0  0  0  0  0  0  0  0
  179.8780  181.4060  136.0840 O   0  0  0  0  0  1  0  0  0  0  0  0
  179.1430  180.4360  136.7720 C   0  0  0  0  0  2  0  0  0  0  0  0
  183.4290  175.0920  138.8420 O   0  0  0  0  0  1  0  0  0  0  0  0
  183.1440  174.3510  137.6930 C   0  0  2  0  0  3  0  0  0  0  0  0
  184.3340  173.4560  137.3750 C   0  0  2  0  0  3  0  0  0  0  0  0
  184.0750  174.7190  136.5400 C   0  0  2  0  0  0  0  0  0  0  0  0
  183.8720  172.1730  136.7490 C   0  0  0  0  0  0  0  0  0  0  0  0
  184.6680  171.4970  136.0470 O   0  0  0  0  0  0  0  0  0  0  0  0
  182.5870  171.6950  136.9820 O   0  0  0  0  0  1  0  0  0  0  0  0
  183.5350  174.4810  135.1190 C   0  0  0  0  0  2  0  0  0  0  0  0
  182.1090  174.8850  134.9720 C   0  0  0  0  0  0  0  0  0  0  0  0
  180.4940  176.6460  134.6020 O   0  0  0  0  0  1  0  0  0  0  0  0
  181.1970  174.0250  135.0940 O   0  0  0  0  0  0  0  0  0  0  0  0
  181.7830  176.2480  134.7100 N   0  0  0  0  0  2  0  0  0  0  0  0
  190.8820  174.5490  136.5840 O   0  0  0  0  0  1  0  0  0  0  0  0
  189.9460  174.9210  135.6200 C   0  0  0  0  0  2  0  0  0  0  0  0
  1 10  1  6  0  0  0
  1  6  1  0  0  0  0
  1 12  1  0  0  0  0
  3  5  1  1  0  0  0
  3 12  1  0  0  0  0
  4  7  2  0  0  0  0
  6  2  1  6  0  0  0
  7 15  1  0  0  0  0
  8 15  1  0  0  0  0
  8 11  2  0  0  0  0
  9 16  2  0  0  0  0
 10  6  1  0  0  0  0
 11  6  1  0  0  0  0
 12  9  1  0  0  0  0
 13  7  1  6  0  0  0
 13  3  1  0  0  0  0
 14  5  1  6  0  0  0
 14  9  1  0  0  0  0
 18 19  1  6  0  0  0
 18 14  1  0  0  0  0
 18 17  1  0  0  0  0
 19 20  1  0  0  0  0
 20 23  1  6  0  0  0
 20 21  1  0  0  0  0
 21 17  1  0  0  0  0
 22 23  1  0  0  0  0
 25 24  1  1  0  0  0
 26 28  1  6  0  0  0
 26 25  1  0  0  0  0
 27 31  1  6  0  0  0
 27 13  1  0  0  0  0
 27 26  1  0  0  0  0
 27 25  1  0  0  0  0
 28 30  1  0  0  0  0
 29 28  2  0  0  0  0
 32 34  2  0  0  0  0
 32 31  1  0  0  0  0
 33 35  1  0  0  0  0
 35 32  1  0  0  0  0
 37  8  1  0  0  0  0
 37 36  1  0  0  0  0
M  END
>  <MODEL>
7

>  <REMARK>
 VINA RESULT:      -5.7      5.754      8.406
  Name = 
  7 active torsions:
  status: ('A' for Active; 'I' for Inactive)
    1  A    between atoms: C_1  and  C_5
    2  A    between atoms: C_1  and  C_36
    3  A    between atoms: C_6  and  C_31
    4  A    between atoms: C_11  and  C_33
    5  A    between atoms: C_18  and  C_19
    6  A    between atoms: C_21  and  C_30
    7  A    between atoms: C_29  and  C_36
                            x       y       z     vdW  Elec       q    Type
                         _______ _______ _______ _____ _____    ______ ____

>  <TORSDO>
F 7

$$$$
=
 OpenBabel10262423063D

 37 41  0  0  1  0  0  0  0  0999 V2000
  180.8590  176.7420  139.8730 C   0  0  1  0  0  3  0  0  0  0  0  0
  181.3260  178.0740  138.0770 O   0  0  0  0  0  1  0  0  0  0  0  0
  183.5000  177.1280  140.0020 C   0  0  1  0  0  3  0  0  0  0  0  0
  184.0350  175.2570  137.6310 O   0  0  0  0  0  0  0  0  0  0  0  0
  184.3400  177.8800  141.0530 C   0  0  0  0  0  2  0  0  0  0  0  0
  180.6260  176.8980  138.3800 C   0  0  1  0  0  0  0  0  0  0  0  0
  183.5660  176.4210  137.5020 C   0  0  0  0  0  0  0  0  0  0  0  0
  181.4770  176.1280  136.1640 C   0  0  0  0  0  0  0  0  0  0  0  0
  182.0510  178.3310  141.4300 C   0  0  0  0  0  0  0  0  0  0  0  0
  181.3630  175.2760  139.1050 S   0  0  0  0  0  0  0  0  0  0  0  0
  180.4610  176.2070  137.0590 C   0  0  0  0  0  3  0  0  0  0  0  0
  182.0860  177.4420  140.3330 N   0  0  0  0  0  0  0  0  0  0  0  0
  183.9110  177.4910  138.5250 C   0  0  2  0  0  3  0  0  0  0  0  0
  183.3870  178.6650  141.9620 C   0  0  1  0  0  3  0  0  0  0  0  0
  182.7450  176.7160  136.3970 O   0  0  0  0  0  0  0  0  0  0  0  0
  180.9780  178.7960  141.9000 O   0  0  0  0  0  0  0  0  0  0  0  0
  182.9490  179.3390  144.3430 C   0  0  0  0  0  2  0  0  0  0  0  0
  183.5210  178.2680  143.4390 C   0  0  2  0  0  3  0  0  0  0  0  0
  184.9480  178.1170  143.9000 C   0  0  0  0  0  2  0  0  0  0  0  0
  185.0710  179.1450  145.0030 C   0  0  1  0  0  3  0  0  0  0  0  0
  183.7860  179.4710  145.4620 O   0  0  0  0  0  0  0  0  0  0  0  0
  185.2210  178.6280  147.3440 O   0  0  0  0  0  1  0  0  0  0  0  0
  185.9350  178.6240  146.1420 C   0  0  0  0  0  2  0  0  0  0  0  0
  184.5560  180.2050  138.7140 O   0  0  0  0  0  1  0  0  0  0  0  0
  185.6900  179.4510  138.4060 C   0  0  2  0  0  3  0  0  0  0  0  0
  185.4980  178.8060  137.0400 C   0  0  2  0  0  3  0  0  0  0  0  0
  185.3680  177.9600  138.3150 C   0  0  2  0  0  0  0  0  0  0  0  0
  186.8130  178.6870  136.3270 C   0  0  0  0  0  0  0  0  0  0  0  0
  187.7340  179.5090  136.5710 O   0  0  0  0  0  1  0  0  0  0  0  0
  187.0430  177.6420  135.4390 O   0  0  0  0  0  0  0  0  0  0  0  0
  186.5290  176.9900  138.5940 C   0  0  0  0  0  2  0  0  0  0  0  0
  187.6280  177.6190  139.3770 C   0  0  0  0  0  0  0  0  0  0  0  0
  188.3160  178.8520  141.3400 O   0  0  0  0  0  1  0  0  0  0  0  0
  188.8050  177.6070  138.9280 O   0  0  0  0  0  0  0  0  0  0  0  0
  187.3400  178.2470  140.6240 N   0  0  0  0  0  2  0  0  0  0  0  0
  181.2430  174.0860  135.0170 O   0  0  0  0  0  1  0  0  0  0  0  0
  181.2220  175.4710  134.8560 C   0  0  0  0  0  2  0  0  0  0  0  0
  1 10  1  6  0  0  0
  1 12  1  0  0  0  0
  3 12  1  0  0  0  0
  3  5  1  1  0  0  0
  6  2  1  6  0  0  0
  6 10  1  0  0  0  0
  6  1  1  0  0  0  0
  7  4  2  0  0  0  0
  8 15  1  0  0  0  0
  8 11  2  0  0  0  0
  9 16  2  0  0  0  0
  9 14  1  0  0  0  0
 11  6  1  0  0  0  0
 12  9  1  0  0  0  0
 13  7  1  6  0  0  0
 13  3  1  0  0  0  0
 14  5  1  6  0  0  0
 14 18  1  0  0  0  0
 15  7  1  0  0  0  0
 17 21  1  0  0  0  0
 18 19  1  1  0  0  0
 18 17  1  0  0  0  0
 19 20  1  0  0  0  0
 20 21  1  0  0  0  0
 20 23  1  1  0  0  0
 23 22  1  0  0  0  0
 25 24  1  1  0  0  0
 26 28  1  6  0  0  0
 26 27  1  0  0  0  0
 26 25  1  0  0  0  0
 27 25  1  0  0  0  0
 27 13  1  0  0  0  0
 27 31  1  1  0  0  0
 28 29  1  0  0  0  0
 30 28  2  0  0  0  0
 31 32  1  0  0  0  0
 32 35  1  0  0  0  0
 34 32  2  0  0  0  0
 35 33  1  0  0  0  0
 37 36  1  0  0  0  0
 37  8  1  0  0  0  0
M  END
>  <MODEL>
8

>  <REMARK>
 VINA RESULT:      -5.1      3.881      7.736
  Name = 
  7 active torsions:
  status: ('A' for Active; 'I' for Inactive)
    1  A    between atoms: C_1  and  C_5
    2  A    between atoms: C_1  and  C_36
    3  A    between atoms: C_6  and  C_31
    4  A    between atoms: C_11  and  C_33
    5  A    between atoms: C_18  and  C_19
    6  A    between atoms: C_21  and  C_30
    7  A    between atoms: C_29  and  C_36
                            x       y       z     vdW  Elec       q    Type
                         _______ _______ _______ _____ _____    ______ ____

>  <TORSDO>
F 7

$$$$
=
 OpenBabel10262423063D

 37 41  0  0  1  0  0  0  0  0999 V2000
  185.6300  173.4530  135.8010 C   0  0  1  0  0  3  0  0  0  0  0  0
  184.1980  173.3030  137.5740 O   0  0  0  0  0  1  0  0  0  0  0  0
  185.2280  175.9880  136.5460 C   0  0  1  0  0  3  0  0  0  0  0  0
  182.3870  176.0290  135.3910 O   0  0  0  0  0  0  0  0  0  0  0  0
  186.2120  177.0100  137.1490 C   0  0  0  0  0  2  0  0  0  0  0  0
  184.3320  172.8160  136.2670 C   0  0  1  0  0  0  0  0  0  0  0  0
  182.6880  175.4430  136.4660 C   0  0  0  0  0  0  0  0  0  0  0  0
  181.8550  173.1060  136.1810 C   0  0  0  0  0  0  0  0  0  0  0  0
  187.2260  174.8760  137.1430 C   0  0  0  0  0  0  0  0  0  0  0  0
  184.4020  173.8600  134.6530 S   0  0  0  0  0  0  0  0  0  0  0  0
  182.9530  172.3630  135.8900 C   0  0  0  0  0  3  0  0  0  0  0  0
  185.9560  174.6930  136.5530 N   0  0  0  0  0  0  0  0  0  0  0  0
  183.8480  175.9550  137.3050 C   0  0  2  0  0  3  0  0  0  0  0  0
  187.4960  176.2710  137.5430 C   0  0  1  0  0  3  0  0  0  0  0  0
  181.9290  174.3320  136.8840 O   0  0  0  0  0  0  0  0  0  0  0  0
  188.0440  173.9320  137.3140 O   0  0  0  0  0  0  0  0  0  0  0  0
  188.9740  176.1270  135.5150 C   0  0  0  0  0  2  0  0  0  0  0  0
  188.7390  176.8310  136.8340 C   0  0  2  0  0  3  0  0  0  0  0  0
  190.0190  176.6220  137.6000 C   0  0  0  0  0  2  0  0  0  0  0  0
  190.8580  175.7840  136.6610 C   0  0  1  0  0  3  0  0  0  0  0  0
  190.3540  175.9260  135.3580 O   0  0  0  0  0  0  0  0  0  0  0  0
  192.6330  176.7350  137.9710 O   0  0  0  0  0  1  0  0  0  0  0  0
  192.3220  176.1940  136.7200 C   0  0  0  0  0  2  0  0  0  0  0  0
  182.6820  175.8420  139.8440 O   0  0  0  0  0  1  0  0  0  0  0  0
  182.7810  177.1650  139.4070 C   0  0  2  0  0  3  0  0  0  0  0  0
  181.9060  177.3430  138.1740 C   0  0  2  0  0  3  0  0  0  0  0  0
  183.4320  177.2550  138.0290 C   0  0  2  0  0  0  0  0  0  0  0  0
  181.3410  178.7330  138.1290 C   0  0  0  0  0  0  0  0  0  0  0  0
  181.0710  179.2640  137.0200 O   0  0  0  0  0  0  0  0  0  0  0  0
  181.0610  179.4200  139.3050 O   0  0  0  0  0  1  0  0  0  0  0  0
  184.1490  178.5750  137.6940 C   0  0  0  0  0  2  0  0  0  0  0  0
  184.5550  179.3320  138.9100 C   0  0  0  0  0  0  0  0  0  0  0  0
  185.7750  179.3780  140.9970 O   0  0  0  0  0  1  0  0  0  0  0  0
  184.1270  180.5030  139.0930 O   0  0  0  0  0  0  0  0  0  0  0  0
  185.4140  178.7220  139.8700 N   0  0  0  0  0  2  0  0  0  0  0  0
  179.5390  173.5210  136.0960 O   0  0  0  0  0  1  0  0  0  0  0  0
  180.5180  172.5670  135.8180 C   0  0  0  0  0  2  0  0  0  0  0  0
  1 10  1  6  0  0  0
  1  6  1  0  0  0  0
  1 12  1  0  0  0  0
  3 12  1  0  0  0  0
  3  5  1  1  0  0  0
  3 13  1  0  0  0  0
  4  7  2  0  0  0  0
  6  2  1  1  0  0  0
  7 15  1  0  0  0  0
  8 15  1  0  0  0  0
  9 16  2  0  0  0  0
  9 14  1  0  0  0  0
 10  6  1  0  0  0  0
 11  8  2  0  0  0  0
 11  6  1  0  0  0  0
 12  9  1  0  0  0  0
 13  7  1  6  0  0  0
 13 27  1  0  0  0  0
 14  5  1  6  0  0  0
 18 17  1  6  0  0  0
 18 14  1  0  0  0  0
 18 19  1  0  0  0  0
 20 23  1  6  0  0  0
 20 19  1  0  0  0  0
 21 17  1  0  0  0  0
 21 20  1  0  0  0  0
 23 22  1  0  0  0  0
 25 24  1  6  0  0  0
 26 28  1  1  0  0  0
 26 25  1  0  0  0  0
 27 31  1  6  0  0  0
 27 26  1  0  0  0  0
 27 25  1  0  0  0  0
 28 30  1  0  0  0  0
 29 28  2  0  0  0  0
 31 32  1  0  0  0  0
 32 34  2  0  0  0  0
 32 35  1  0  0  0  0
 35 33  1  0  0  0  0
 37 36  1  0  0  0  0
 37  8  1  0  0  0  0
M  END
>  <MODEL>
9

>  <REMARK>
 VINA RESULT:      -5.1      5.267      9.785
  Name = 
  7 active torsions:
  status: ('A' for Active; 'I' for Inactive)
    1  A    between atoms: C_1  and  C_5
    2  A    between atoms: C_1  and  C_36
    3  A    between atoms: C_6  and  C_31
    4  A    between atoms: C_11  and  C_33
    5  A    between atoms: C_18  and  C_19
    6  A    between atoms: C_21  and  C_30
    7  A    between atoms: C_29  and  C_36
                            x       y       z     vdW  Elec       q    Type
                         _______ _______ _______ _____ _____    ______ ____

>  <TORSDO>
F 7

$$$$
