=
 OpenBabel10262421483D

 30 32  0  0  1  0  0  0  0  0999 V2000
  182.1910  178.0130  139.8480 C   0  0  1  0  0  3  0  0  0  0  0  0
  181.5300  178.2010  137.3470 C   0  0  2  0  0  3  0  0  0  0  0  0
  181.8240  176.6560  140.0330 O   0  0  0  0  0  0  0  0  0  0  0  0
  181.6800  174.4000  136.3360 C   0  0  0  0  0  2  0  0  0  0  0  0
  183.5690  175.3800  135.6930 C   0  0  0  0  0  2  0  0  0  0  0  0
  181.0010  175.6470  136.9420 C   0  0  2  0  0  3  0  0  0  0  0  0
  179.7210  176.3360  138.8860 C   0  0  0  0  0  2  0  0  0  0  0  0
  180.4310  176.5530  140.2190 C   0  0  0  0  0  2  0  0  0  0  0  0
  182.0800  176.7630  137.1800 C   0  0  1  0  0  3  0  0  0  0  0  0
  182.4340  174.7230  135.2020 O   0  0  0  0  0  0  0  0  0  0  0  0
  180.3210  175.2150  138.1810 N   0  0  0  0  0  0  0  0  0  0  0  0
  179.1980  174.3650  137.8080 C   0  0  0  0  0  1  0  0  0  0  0  0
  181.4040  178.7890  138.7670 C   0  0  2  0  0  3  0  0  0  0  0  0
  182.7630  177.4940  134.9640 O   0  0  0  0  0  1  0  0  0  0  0  0
  183.1820  176.7940  136.0990 C   0  0  2  0  0  3  0  0  0  0  0  0
  181.3930  178.5750  142.2540 C   0  0  1  0  0  3  0  0  0  0  0  0
  181.8730  179.0640  143.5940 C   0  0  0  0  0  3  0  0  0  0  0  0
  179.8760  179.4170  141.8490 Cl  0  0  0  0  0  0  0  0  0  0  0  0
  183.8360  178.4010  141.6590 C   0  0  0  0  0  3  0  0  0  0  0  0
  185.5500  178.2530  143.3910 C   0  0  0  0  0  1  0  0  0  0  0  0
  182.4650  178.7710  141.1590 C   0  0  1  0  0  3  0  0  0  0  0  0
  183.1670  179.0180  143.9200 C   0  0  0  0  0  3  0  0  0  0  0  0
  184.1670  178.5580  142.9420 C   0  0  0  0  0  0  0  0  0  0  0  0
  181.1800  180.2310  135.3690 O   0  0  0  0  0  0  0  0  0  0  0  0
  180.2020  179.4770  135.6140 C   0  0  0  0  0  0  0  0  0  0  0  0
  178.9730  179.6720  134.9250 N   0  0  0  0  0  1  0  0  0  0  0  0
  180.3160  178.4230  136.5690 N   0  0  0  0  0  2  0  0  0  0  0  0
  181.8260  180.1230  138.7360 O   0  0  0  0  0  0  0  0  0  0  0  0
  180.8290  182.4410  137.9940 S   0  0  0  0  0  1  0  0  0  0  0  0
  180.6660  180.8810  138.9020 C   0  0  0  0  0  2  0  0  0  0  0  0
  1  3  1  1  0  0  0
  1 21  1  0  0  0  0
  2 27  1  1  0  0  0
  2 13  1  0  0  0  0
  3  8  1  0  0  0  0
  5 15  1  0  0  0  0
  6  4  1  1  0  0  0
  6  9  1  0  0  0  0
  6 11  1  0  0  0  0
  7  8  1  0  0  0  0
  9  2  1  0  0  0  0
 10  5  1  0  0  0  0
 10  4  1  0  0  0  0
 11  7  1  0  0  0  0
 12 11  1  0  0  0  0
 13  1  1  0  0  0  0
 14 15  1  0  0  0  0
 15  9  1  0  0  0  0
 16 17  1  0  0  0  0
 17 22  2  0  0  0  0
 18 16  1  0  0  0  0
 19 23  2  0  0  0  0
 21 19  1  0  0  0  0
 21 16  1  0  0  0  0
 23 20  1  0  0  0  0
 23 22  1  0  0  0  0
 24 25  2  0  0  0  0
 25 27  1  0  0  0  0
 26 25  1  0  0  0  0
 28 13  1  0  0  0  0
 28 30  1  0  0  0  0
 29 30  1  0  0  0  0
M  END
>  <MODEL>
1

>  <REMARK>
 VINA RESULT:      -5.1      0.000      0.000
  Name = 
  4 active torsions:
  status: ('A' for Active; 'I' for Inactive)
    1  A    between atoms: C_1  and  C_22
    2  A    between atoms: C_4  and  N_25
    3  A    between atoms: O_10  and  C_23
    4  A    between atoms: O_10  and  C_26
                            x       y       z     vdW  Elec       q    Type
                         _______ _______ _______ _____ _____    ______ ____

>  <TORSDO>
F 4

$$$$
=
 OpenBabel10262421483D

 30 32  0  0  1  0  0  0  0  0999 V2000
  183.6820  177.8510  137.8320 C   0  0  1  0  0  3  0  0  0  0  0  0
  181.6310  178.7160  139.1630 C   0  0  2  0  0  3  0  0  0  0  0  0
  183.0810  177.8510  136.5480 O   0  0  0  0  0  0  0  0  0  0  0  0
  179.6580  180.4920  136.2570 C   0  0  0  0  0  2  0  0  0  0  0  0
  180.7820  182.0340  137.3970 C   0  0  0  0  0  2  0  0  0  0  0  0
  180.0900  179.2670  137.0920 C   0  0  2  0  0  3  0  0  0  0  0  0
  180.8450  176.9760  136.8220 C   0  0  0  0  0  2  0  0  0  0  0  0
  182.2810  176.7010  136.3900 C   0  0  0  0  0  2  0  0  0  0  0  0
  181.3460  179.6440  137.9570 C   0  0  1  0  0  3  0  0  0  0  0  0
  179.4870  181.6280  137.0560 O   0  0  0  0  0  0  0  0  0  0  0  0
  180.3410  178.1600  136.1450 N   0  0  0  0  0  0  0  0  0  0  0  0
  179.0630  177.7500  135.5800 C   0  0  0  0  0  1  0  0  0  0  0  0
  182.7280  177.6400  139.0310 C   0  0  2  0  0  3  0  0  0  0  0  0
  180.5420  181.2260  139.6190 O   0  0  0  0  0  1  0  0  0  0  0  0
  181.3250  181.1010  138.4680 C   0  0  2  0  0  3  0  0  0  0  0  0
  185.0670  175.7890  137.0760 C   0  0  1  0  0  3  0  0  0  0  0  0
  186.4750  175.2830  136.9160 C   0  0  0  0  0  3  0  0  0  0  0  0
  184.0820  174.5090  137.8280 Cl  0  0  0  0  0  0  0  0  0  0  0  0
  186.1290  178.0370  137.4920 C   0  0  0  0  0  3  0  0  0  0  0  0
  188.3980  178.5220  136.7310 C   0  0  0  0  0  1  0  0  0  0  0  0
  185.0240  177.0980  137.8950 C   0  0  1  0  0  3  0  0  0  0  0  0
  187.5090  176.1270  136.8690 C   0  0  0  0  0  3  0  0  0  0  0  0
  187.3010  177.5730  137.0520 C   0  0  0  0  0  0  0  0  0  0  0  0
  180.8910  178.8390  141.9180 O   0  0  0  0  0  0  0  0  0  0  0  0
  180.1160  178.2360  141.1300 C   0  0  0  0  0  0  0  0  0  0  0  0
  178.9310  177.6300  141.6330 N   0  0  0  0  0  1  0  0  0  0  0  0
  180.4090  178.1610  139.7350 N   0  0  0  0  0  2  0  0  0  0  0  0
  183.4610  177.6030  140.2220 O   0  0  0  0  0  0  0  0  0  0  0  0
  185.4570  178.9070  141.3310 S   0  0  0  0  0  1  0  0  0  0  0  0
  183.8780  178.9160  140.4410 C   0  0  0  0  0  2  0  0  0  0  0  0
  1  3  1  6  0  0  0
  1 21  1  0  0  0  0
  1 13  1  0  0  0  0
  2 27  1  6  0  0  0
  4 10  1  0  0  0  0
  5 15  1  0  0  0  0
  6  4  1  6  0  0  0
  6  9  1  0  0  0  0
  8  3  1  0  0  0  0
  8  7  1  0  0  0  0
  9 15  1  0  0  0  0
  9  2  1  0  0  0  0
 10  5  1  0  0  0  0
 11  7  1  0  0  0  0
 11  6  1  0  0  0  0
 12 11  1  0  0  0  0
 13  2  1  0  0  0  0
 13 28  1  0  0  0  0
 15 14  1  0  0  0  0
 16 18  1  0  0  0  0
 16 21  1  0  0  0  0
 17 16  1  0  0  0  0
 19 21  1  0  0  0  0
 20 23  1  0  0  0  0
 22 17  2  0  0  0  0
 22 23  1  0  0  0  0
 23 19  2  0  0  0  0
 25 26  1  0  0  0  0
 25 24  2  0  0  0  0
 27 25  1  0  0  0  0
 28 30  1  0  0  0  0
 30 29  1  0  0  0  0
M  END
>  <MODEL>
2

>  <REMARK>
 VINA RESULT:      -4.9      3.088      5.603
  Name = 
  4 active torsions:
  status: ('A' for Active; 'I' for Inactive)
    1  A    between atoms: C_1  and  C_22
    2  A    between atoms: C_4  and  N_25
    3  A    between atoms: O_10  and  C_23
    4  A    between atoms: O_10  and  C_26
                            x       y       z     vdW  Elec       q    Type
                         _______ _______ _______ _____ _____    ______ ____

>  <TORSDO>
F 4

$$$$
=
 OpenBabel10262421483D

 30 32  0  0  1  0  0  0  0  0999 V2000
  184.1030  178.2600  142.2330 C   0  0  1  0  0  3  0  0  0  0  0  0
  182.6600  178.6340  140.1100 C   0  0  2  0  0  3  0  0  0  0  0  0
  183.0410  177.9820  143.1300 O   0  0  0  0  0  0  0  0  0  0  0  0
  179.4290  176.6420  141.1480 C   0  0  0  0  0  2  0  0  0  0  0  0
  180.6630  175.3520  139.8240 C   0  0  0  0  0  2  0  0  0  0  0  0
  180.3470  177.8830  141.1360 C   0  0  2  0  0  3  0  0  0  0  0  0
  181.2750  179.5540  142.6320 C   0  0  0  0  0  2  0  0  0  0  0  0
  182.4360  179.1840  143.5480 C   0  0  0  0  0  2  0  0  0  0  0  0
  181.7700  177.4720  140.6120 C   0  0  1  0  0  3  0  0  0  0  0  0
  179.4210  175.9920  139.9080 O   0  0  0  0  0  0  0  0  0  0  0  0
  180.3620  178.4290  142.5090 N   0  0  0  0  0  0  0  0  0  0  0  0
  179.0450  178.9850  142.7890 C   0  0  0  0  0  1  0  0  0  0  0  0
  183.7630  179.1820  141.0390 C   0  0  2  0  0  3  0  0  0  0  0  0
  181.4730  176.9450  138.2570 O   0  0  0  0  0  1  0  0  0  0  0  0
  181.7320  176.3880  139.5130 C   0  0  2  0  0  3  0  0  0  0  0  0
  185.5420  178.0140  144.3800 C   0  0  1  0  0  3  0  0  0  0  0  0
  186.9620  178.0020  144.8780 C   0  0  0  0  0  3  0  0  0  0  0  0
  184.5580  179.0100  145.4820 Cl  0  0  0  0  0  0  0  0  0  0  0  0
  186.5550  177.9420  142.0730 C   0  0  0  0  0  3  0  0  0  0  0  0
  188.8350  177.1420  141.7200 C   0  0  0  0  0  1  0  0  0  0  0  0
  185.4550  178.5190  142.9230 C   0  0  1  0  0  3  0  0  0  0  0  0
  187.9820  177.7910  144.0440 C   0  0  0  0  0  3  0  0  0  0  0  0
  187.7450  177.6420  142.5980 C   0  0  0  0  0  0  0  0  0  0  0  0
  182.5580  179.2710  137.3290 O   0  0  0  0  0  0  0  0  0  0  0  0
  181.8960  179.9940  138.1190 C   0  0  0  0  0  0  0  0  0  0  0  0
  181.1500  181.0940  137.6120 N   0  0  0  0  0  1  0  0  0  0  0  0
  181.8780  179.7150  139.5190 N   0  0  0  0  0  2  0  0  0  0  0  0
  184.9120  179.4180  140.2760 O   0  0  0  0  0  0  0  0  0  0  0  0
  186.5250  178.3860  138.4740 S   0  0  0  0  0  1  0  0  0  0  0  0
  184.9050  178.4360  139.2840 C   0  0  0  0  0  2  0  0  0  0  0  0
  1 21  1  0  0  0  0
  1  3  1  1  0  0  0
  2 27  1  1  0  0  0
  2  9  1  0  0  0  0
  2 13  1  0  0  0  0
  3  8  1  0  0  0  0
  5 10  1  0  0  0  0
  6  4  1  1  0  0  0
  6 11  1  0  0  0  0
  7  8  1  0  0  0  0
  9  6  1  0  0  0  0
 10  4  1  0  0  0  0
 11  7  1  0  0  0  0
 11 12  1  0  0  0  0
 13  1  1  0  0  0  0
 14 15  1  0  0  0  0
 15  5  1  0  0  0  0
 15  9  1  0  0  0  0
 16 17  1  0  0  0  0
 16 18  1  0  0  0  0
 19 23  2  0  0  0  0
 19 21  1  0  0  0  0
 20 23  1  0  0  0  0
 21 16  1  0  0  0  0
 22 17  2  0  0  0  0
 23 22  1  0  0  0  0
 24 25  2  0  0  0  0
 25 27  1  0  0  0  0
 26 25  1  0  0  0  0
 28 13  1  0  0  0  0
 29 30  1  0  0  0  0
 30 28  1  0  0  0  0
M  END
>  <MODEL>
3

>  <REMARK>
 VINA RESULT:      -4.7      2.970      4.501
  Name = 
  4 active torsions:
  status: ('A' for Active; 'I' for Inactive)
    1  A    between atoms: C_1  and  C_22
    2  A    between atoms: C_4  and  N_25
    3  A    between atoms: O_10  and  C_23
    4  A    between atoms: O_10  and  C_26
                            x       y       z     vdW  Elec       q    Type
                         _______ _______ _______ _____ _____    ______ ____

>  <TORSDO>
F 4

$$$$
=
 OpenBabel10262421483D

 30 32  0  0  1  0  0  0  0  0999 V2000
  189.4710  176.8010  139.8200 C   0  0  1  0  0  3  0  0  0  0  0  0
  190.8310  175.7930  137.8550 C   0  0  2  0  0  3  0  0  0  0  0  0
  188.3300  177.1880  139.0740 O   0  0  0  0  0  0  0  0  0  0  0  0
  187.8950  175.0140  135.3520 C   0  0  0  0  0  2  0  0  0  0  0  0
  188.4400  173.1380  136.4120 C   0  0  0  0  0  2  0  0  0  0  0  0
  188.9360  175.9360  136.0230 C   0  0  2  0  0  3  0  0  0  0  0  0
  189.1360  178.1460  137.0070 C   0  0  0  0  0  2  0  0  0  0  0  0
  188.5800  178.4020  138.4040 C   0  0  0  0  0  2  0  0  0  0  0  0
  189.4880  175.2410  137.3190 C   0  0  1  0  0  3  0  0  0  0  0  0
  188.4040  173.7270  135.1430 O   0  0  0  0  0  0  0  0  0  0  0  0
  188.2680  177.2270  136.2890 N   0  0  0  0  0  0  0  0  0  0  0  0
  188.0140  177.8770  135.0100 C   0  0  0  0  0  1  0  0  0  0  0  0
  190.8110  176.7690  139.0480 C   0  0  2  0  0  3  0  0  0  0  0  0
  190.8040  173.3520  136.5370 O   0  0  0  0  0  1  0  0  0  0  0  0
  189.6180  173.7080  137.1870 C   0  0  2  0  0  3  0  0  0  0  0  0
  188.1610  177.4460  141.9670 C   0  0  1  0  0  3  0  0  0  0  0  0
  188.3280  177.7250  143.4360 C   0  0  0  0  0  3  0  0  0  0  0  0
  187.0890  178.6860  141.2690 Cl  0  0  0  0  0  0  0  0  0  0  0  0
  190.5500  176.6440  142.0450 C   0  0  0  0  0  3  0  0  0  0  0  0
  191.5820  175.9560  144.1480 C   0  0  0  0  0  1  0  0  0  0  0  0
  189.5230  177.3950  141.2400 C   0  0  1  0  0  3  0  0  0  0  0  0
  189.4150  177.3140  144.0950 C   0  0  0  0  0  3  0  0  0  0  0  0
  190.5140  176.6450  143.3790 C   0  0  0  0  0  0  0  0  0  0  0  0
  193.4860  174.8830  137.3300 O   0  0  0  0  0  0  0  0  0  0  0  0
  193.0250  175.7970  136.5970 C   0  0  0  0  0  0  0  0  0  0  0  0
  193.8350  176.3490  135.5660 N   0  0  0  0  0  1  0  0  0  0  0  0
  191.6950  176.2800  136.7840 N   0  0  0  0  0  2  0  0  0  0  0  0
  191.8540  176.4320  139.9170 O   0  0  0  0  0  0  0  0  0  0  0  0
  194.4520  176.7810  140.1220 S   0  0  0  0  0  1  0  0  0  0  0  0
  192.8040  177.4430  139.7650 C   0  0  0  0  0  2  0  0  0  0  0  0
  1  3  1  6  0  0  0
  1 21  1  0  0  0  0
  2 27  1  6  0  0  0
  2 13  1  0  0  0  0
  5 15  1  0  0  0  0
  6  4  1  1  0  0  0
  6 11  1  0  0  0  0
  6  9  1  0  0  0  0
  7  8  1  0  0  0  0
  8  3  1  0  0  0  0
  9  2  1  0  0  0  0
 10  4  1  0  0  0  0
 10  5  1  0  0  0  0
 11  7  1  0  0  0  0
 12 11  1  0  0  0  0
 13  1  1  0  0  0  0
 13 28  1  0  0  0  0
 14 15  1  0  0  0  0
 15  9  1  0  0  0  0
 16 17  1  0  0  0  0
 17 22  2  0  0  0  0
 18 16  1  0  0  0  0
 19 23  2  0  0  0  0
 21 16  1  0  0  0  0
 21 19  1  0  0  0  0
 23 22  1  0  0  0  0
 23 20  1  0  0  0  0
 25 27  1  0  0  0  0
 25 24  2  0  0  0  0
 26 25  1  0  0  0  0
 30 28  1  0  0  0  0
 30 29  1  0  0  0  0
M  END
>  <MODEL>
4

>  <REMARK>
 VINA RESULT:      -4.7      7.621      9.278
  Name = 
  4 active torsions:
  status: ('A' for Active; 'I' for Inactive)
    1  A    between atoms: C_1  and  C_22
    2  A    between atoms: C_4  and  N_25
    3  A    between atoms: O_10  and  C_23
    4  A    between atoms: O_10  and  C_26
                            x       y       z     vdW  Elec       q    Type
                         _______ _______ _______ _____ _____    ______ ____

>  <TORSDO>
F 4

$$$$
=
 OpenBabel10262421483D

 30 32  0  0  1  0  0  0  0  0999 V2000
  183.1390  178.7170  138.0650 C   0  0  1  0  0  3  0  0  0  0  0  0
  184.4520  176.6560  137.1950 C   0  0  2  0  0  3  0  0  0  0  0  0
  184.2550  179.4740  138.5030 O   0  0  0  0  0  0  0  0  0  0  0  0
  187.9670  178.3200  136.5880 C   0  0  0  0  0  2  0  0  0  0  0  0
  186.8970  178.1940  134.6440 C   0  0  0  0  0  2  0  0  0  0  0  0
  186.8780  177.6620  137.4630 C   0  0  2  0  0  3  0  0  0  0  0  0
  185.7600  177.9340  139.6000 C   0  0  0  0  0  2  0  0  0  0  0  0
  184.6910  179.0100  139.7600 C   0  0  0  0  0  2  0  0  0  0  0  0
  185.5160  177.6560  136.6810 C   0  0  1  0  0  3  0  0  0  0  0  0
  188.0340  177.7350  135.3190 O   0  0  0  0  0  0  0  0  0  0  0  0
  186.8230  178.4160  138.7330 N   0  0  0  0  0  0  0  0  0  0  0  0
  188.0520  178.1540  139.4690 C   0  0  0  0  0  1  0  0  0  0  0  0
  183.3080  177.1800  138.0870 C   0  0  2  0  0  3  0  0  0  0  0  0
  185.8200  176.0850  134.8500 O   0  0  0  0  0  1  0  0  0  0  0  0
  185.6800  177.4410  135.1600 C   0  0  2  0  0  3  0  0  0  0  0  0
  181.6200  179.2710  140.0970 C   0  0  1  0  0  3  0  0  0  0  0  0
  180.4340  180.0940  140.5190 C   0  0  0  0  0  3  0  0  0  0  0  0
  181.4370  177.6260  140.7560 Cl  0  0  0  0  0  0  0  0  0  0  0  0
  181.5550  180.6200  137.9680 C   0  0  0  0  0  3  0  0  0  0  0  0
  180.4470  182.7930  137.8850 C   0  0  0  0  0  1  0  0  0  0  0  0
  181.7840  179.2550  138.5610 C   0  0  1  0  0  3  0  0  0  0  0  0
  180.0370  181.1480  139.8000 C   0  0  0  0  0  3  0  0  0  0  0  0
  180.7070  181.4820  138.5330 C   0  0  0  0  0  0  0  0  0  0  0  0
  183.7970  173.9810  136.4400 O   0  0  0  0  0  0  0  0  0  0  0  0
  184.6560  174.1400  137.3480 C   0  0  0  0  0  0  0  0  0  0  0  0
  185.2440  173.0030  137.9680 N   0  0  0  0  0  1  0  0  0  0  0  0
  185.0520  175.4490  137.7540 N   0  0  0  0  0  2  0  0  0  0  0  0
  182.1160  176.5630  137.6910 O   0  0  0  0  0  0  0  0  0  0  0  0
  180.6980  175.7790  135.6200 S   0  0  0  0  0  1  0  0  0  0  0  0
  182.0040  176.8190  136.3240 C   0  0  0  0  0  2  0  0  0  0  0  0
  1 13  1  0  0  0  0
  1  3  1  1  0  0  0
  1 21  1  0  0  0  0
  2 27  1  1  0  0  0
  2 13  1  0  0  0  0
  3  8  1  0  0  0  0
  5 15  1  0  0  0  0
  5 10  1  0  0  0  0
  6  4  1  6  0  0  0
  6 11  1  0  0  0  0
  7  8  1  0  0  0  0
  9  2  1  0  0  0  0
  9  6  1  0  0  0  0
 10  4  1  0  0  0  0
 11 12  1  0  0  0  0
 11  7  1  0  0  0  0
 14 15  1  0  0  0  0
 15  9  1  0  0  0  0
 16 17  1  0  0  0  0
 16 18  1  0  0  0  0
 19 23  2  0  0  0  0
 19 21  1  0  0  0  0
 20 23  1  0  0  0  0
 21 16  1  0  0  0  0
 22 17  2  0  0  0  0
 23 22  1  0  0  0  0
 24 25  2  0  0  0  0
 25 27  1  0  0  0  0
 25 26  1  0  0  0  0
 28 13  1  0  0  0  0
 29 30  1  0  0  0  0
 30 28  1  0  0  0  0
M  END
>  <MODEL>
5

>  <REMARK>
 VINA RESULT:      -4.6      3.428      5.638
  Name = 
  4 active torsions:
  status: ('A' for Active; 'I' for Inactive)
    1  A    between atoms: C_1  and  C_22
    2  A    between atoms: C_4  and  N_25
    3  A    between atoms: O_10  and  C_23
    4  A    between atoms: O_10  and  C_26
                            x       y       z     vdW  Elec       q    Type
                         _______ _______ _______ _____ _____    ______ ____

>  <TORSDO>
F 4

$$$$
=
 OpenBabel10262421483D

 30 32  0  0  1  0  0  0  0  0999 V2000
  181.8080  176.3880  137.7310 C   0  0  1  0  0  3  0  0  0  0  0  0
  182.9060  178.3300  139.0540 C   0  0  2  0  0  3  0  0  0  0  0  0
  180.4990  176.5260  138.2570 O   0  0  0  0  0  0  0  0  0  0  0  0
  179.7040  180.4680  139.8700 C   0  0  0  0  0  2  0  0  0  0  0  0
  180.7290  181.3670  138.1140 C   0  0  0  0  0  2  0  0  0  0  0  0
  180.6970  179.3110  140.1140 C   0  0  2  0  0  3  0  0  0  0  0  0
  180.7340  176.9390  140.6260 C   0  0  0  0  0  2  0  0  0  0  0  0
  180.4230  175.9260  139.5290 C   0  0  0  0  0  2  0  0  0  0  0  0
  181.5890  179.1130  138.8360 C   0  0  1  0  0  3  0  0  0  0  0  0
  180.3580  181.6280  139.4380 O   0  0  0  0  0  0  0  0  0  0  0  0
  179.8990  178.1180  140.4640 N   0  0  0  0  0  0  0  0  0  0  0  0
  179.3070  178.3380  141.7760 C   0  0  0  0  0  1  0  0  0  0  0  0
  182.9630  176.8420  138.6540 C   0  0  2  0  0  3  0  0  0  0  0  0
  183.0090  181.0820  138.7190 O   0  0  0  0  0  1  0  0  0  0  0  0
  181.9290  180.4330  138.1120 C   0  0  2  0  0  3  0  0  0  0  0  0
  182.2600  175.2570  135.4380 C   0  0  1  0  0  3  0  0  0  0  0  0
  182.7940  174.0010  134.8040 C   0  0  0  0  0  3  0  0  0  0  0  0
  180.7580  175.7240  134.6030 Cl  0  0  0  0  0  0  0  0  0  0  0  0
  183.1750  174.3270  137.5950 C   0  0  0  0  0  3  0  0  0  0  0  0
  184.9280  172.6280  137.5940 C   0  0  0  0  0  1  0  0  0  0  0  0
  182.0370  175.0780  136.9560 C   0  0  1  0  0  3  0  0  0  0  0  0
  183.5700  173.1600  135.4920 C   0  0  0  0  0  3  0  0  0  0  0  0
  183.8590  173.4040  136.9150 C   0  0  0  0  0  0  0  0  0  0  0  0
  185.5410  179.2770  139.6130 O   0  0  0  0  0  0  0  0  0  0  0  0
  184.8010  178.9950  140.5920 C   0  0  0  0  0  0  0  0  0  0  0  0
  185.3010  179.1350  141.9160 N   0  0  0  0  0  1  0  0  0  0  0  0
  183.4630  178.5440  140.3860 N   0  0  0  0  0  2  0  0  0  0  0  0
  184.1930  176.5930  138.0350 O   0  0  0  0  0  0  0  0  0  0  0  0
  185.6130  177.1280  135.8880 S   0  0  0  0  0  1  0  0  0  0  0  0
  184.3400  177.6050  137.0860 C   0  0  0  0  0  2  0  0  0  0  0  0
  1  3  1  1  0  0  0
  1 13  1  0  0  0  0
  2 27  1  1  0  0  0
  3  8  1  0  0  0  0
  5 10  1  0  0  0  0
  6  4  1  6  0  0  0
  6 11  1  0  0  0  0
  8  7  1  0  0  0  0
  9  2  1  0  0  0  0
  9  6  1  0  0  0  0
 10  4  1  0  0  0  0
 11  7  1  0  0  0  0
 11 12  1  0  0  0  0
 13  2  1  0  0  0  0
 15  5  1  0  0  0  0
 15 14  1  0  0  0  0
 15  9  1  0  0  0  0
 16 21  1  0  0  0  0
 17 16  1  0  0  0  0
 17 22  2  0  0  0  0
 18 16  1  0  0  0  0
 21 19  1  0  0  0  0
 21  1  1  0  0  0  0
 22 23  1  0  0  0  0
 23 20  1  0  0  0  0
 23 19  2  0  0  0  0
 24 25  2  0  0  0  0
 25 26  1  0  0  0  0
 27 25  1  0  0  0  0
 28 13  1  0  0  0  0
 29 30  1  0  0  0  0
 30 28  1  0  0  0  0
M  END
>  <MODEL>
6

>  <REMARK>
 VINA RESULT:      -4.5      3.252      6.197
  Name = 
  4 active torsions:
  status: ('A' for Active; 'I' for Inactive)
    1  A    between atoms: C_1  and  C_22
    2  A    between atoms: C_4  and  N_25
    3  A    between atoms: O_10  and  C_23
    4  A    between atoms: O_10  and  C_26
                            x       y       z     vdW  Elec       q    Type
                         _______ _______ _______ _____ _____    ______ ____

>  <TORSDO>
F 4

$$$$
=
 OpenBabel10262421483D

 30 32  0  0  1  0  0  0  0  0999 V2000
  183.2750  178.2620  140.9690 C   0  0  1  0  0  3  0  0  0  0  0  0
  184.1780  177.2870  138.7410 C   0  0  2  0  0  3  0  0  0  0  0  0
  181.9900  178.6320  140.4990 O   0  0  0  0  0  0  0  0  0  0  0  0
  180.7720  176.4660  136.9490 C   0  0  0  0  0  2  0  0  0  0  0  0
  181.5700  174.5960  137.8460 C   0  0  0  0  0  2  0  0  0  0  0  0
  181.9210  177.4040  137.3790 C   0  0  2  0  0  3  0  0  0  0  0  0
  182.2990  179.6130  138.3120 C   0  0  0  0  0  2  0  0  0  0  0  0
  182.0650  179.8540  139.7990 C   0  0  0  0  0  2  0  0  0  0  0  0
  182.7590  176.7130  138.5140 C   0  0  1  0  0  3  0  0  0  0  0  0
  181.2420  175.1900  136.6220 O   0  0  0  0  0  0  0  0  0  0  0  0
  181.3080  178.6820  137.7970 N   0  0  0  0  0  0  0  0  0  0  0  0
  180.7650  179.3330  136.6130 C   0  0  0  0  0  1  0  0  0  0  0  0
  184.4090  178.2580  139.9180 C   0  0  2  0  0  3  0  0  0  0  0  0
  183.8990  174.8510  137.4430 O   0  0  0  0  0  1  0  0  0  0  0  0
  182.8820  175.1830  138.3440 C   0  0  2  0  0  3  0  0  0  0  0  0
  182.5340  178.6900  143.4200 C   0  0  1  0  0  3  0  0  0  0  0  0
  183.0610  178.9840  144.7990 C   0  0  0  0  0  3  0  0  0  0  0  0
  181.1410  179.7530  143.1020 Cl  0  0  0  0  0  0  0  0  0  0  0  0
  184.9410  178.2630  142.8020 C   0  0  0  0  0  3  0  0  0  0  0  0
  186.6060  177.7320  144.5070 C   0  0  0  0  0  1  0  0  0  0  0  0
  183.6320  178.8510  142.3460 C   0  0  1  0  0  3  0  0  0  0  0  0
  184.3350  178.7420  145.1140 C   0  0  0  0  0  3  0  0  0  0  0  0
  185.2780  178.2530  144.0940 C   0  0  0  0  0  0  0  0  0  0  0  0
  186.6290  176.3750  137.5930 O   0  0  0  0  0  0  0  0  0  0  0  0
  186.0190  177.3080  137.0070 C   0  0  0  0  0  0  0  0  0  0  0  0
  186.5720  177.8800  135.8280 N   0  0  0  0  0  1  0  0  0  0  0  0
  184.7750  177.7930  137.5100 N   0  0  0  0  0  2  0  0  0  0  0  0
  185.6250  177.9350  140.5300 O   0  0  0  0  0  0  0  0  0  0  0  0
  188.2240  178.2530  140.2850 S   0  0  0  0  0  1  0  0  0  0  0  0
  186.5390  178.8780  140.0560 C   0  0  0  0  0  2  0  0  0  0  0  0
  1  3  1  6  0  0  0
  1 21  1  0  0  0  0
  2 27  1  6  0  0  0
  2 13  1  0  0  0  0
  5 15  1  0  0  0  0
  6  4  1  1  0  0  0
  6 11  1  0  0  0  0
  6  9  1  0  0  0  0
  7  8  1  0  0  0  0
  8  3  1  0  0  0  0
  9  2  1  0  0  0  0
 10  4  1  0  0  0  0
 10  5  1  0  0  0  0
 11  7  1  0  0  0  0
 12 11  1  0  0  0  0
 13 28  1  0  0  0  0
 13  1  1  0  0  0  0
 14 15  1  0  0  0  0
 15  9  1  0  0  0  0
 16 17  1  0  0  0  0
 17 22  2  0  0  0  0
 18 16  1  0  0  0  0
 19 23  2  0  0  0  0
 21 19  1  0  0  0  0
 21 16  1  0  0  0  0
 23 20  1  0  0  0  0
 23 22  1  0  0  0  0
 25 27  1  0  0  0  0
 25 24  2  0  0  0  0
 26 25  1  0  0  0  0
 30 29  1  0  0  0  0
 30 28  1  0  0  0  0
M  END
>  <MODEL>
7

>  <REMARK>
 VINA RESULT:      -4.3      2.903      4.009
  Name = 
  4 active torsions:
  status: ('A' for Active; 'I' for Inactive)
    1  A    between atoms: C_1  and  C_22
    2  A    between atoms: C_4  and  N_25
    3  A    between atoms: O_10  and  C_23
    4  A    between atoms: O_10  and  C_26
                            x       y       z     vdW  Elec       q    Type
                         _______ _______ _______ _____ _____    ______ ____

>  <TORSDO>
F 4

$$$$
=
 OpenBabel10262421483D

 30 32  0  0  1  0  0  0  0  0999 V2000
  182.5540  178.0510  140.6970 C   0  0  1  0  0  3  0  0  0  0  0  0
  182.8450  176.9400  138.3720 C   0  0  2  0  0  3  0  0  0  0  0  0
  181.1810  178.3790  140.5730 O   0  0  0  0  0  0  0  0  0  0  0  0
  179.1030  175.9740  137.6280 C   0  0  0  0  0  2  0  0  0  0  0  0
  180.1630  174.1730  138.3860 C   0  0  0  0  0  2  0  0  0  0  0  0
  180.3010  176.9480  137.6710 C   0  0  2  0  0  3  0  0  0  0  0  0
  180.8600  179.2160  138.3290 C   0  0  0  0  0  2  0  0  0  0  0  0
  181.0310  179.5520  139.8060 C   0  0  0  0  0  2  0  0  0  0  0  0
  181.4330  176.3400  138.5750 C   0  0  1  0  0  3  0  0  0  0  0  0
  179.5010  174.6820  137.2630 O   0  0  0  0  0  0  0  0  0  0  0  0
  179.7910  178.2450  138.1610 N   0  0  0  0  0  0  0  0  0  0  0  0
  178.9310  178.8120  137.1310 C   0  0  0  0  0  1  0  0  0  0  0  0
  183.3610  177.9870  139.3800 C   0  0  2  0  0  3  0  0  0  0  0  0
  182.2880  174.4210  137.3500 O   0  0  0  0  0  1  0  0  0  0  0  0
  181.5450  174.8030  138.4710 C   0  0  2  0  0  3  0  0  0  0  0  0
  182.4660  178.6850  143.2140 C   0  0  1  0  0  3  0  0  0  0  0  0
  183.3290  179.0680  144.3850 C   0  0  0  0  0  3  0  0  0  0  0  0
  181.0470  179.7610  143.1740 Cl  0  0  0  0  0  0  0  0  0  0  0  0
  184.6320  178.1430  142.0430 C   0  0  0  0  0  3  0  0  0  0  0  0
  186.6720  177.6950  143.3070 C   0  0  0  0  0  1  0  0  0  0  0  0
  183.2550  178.7330  141.8870 C   0  0  1  0  0  3  0  0  0  0  0  0
  184.6400  178.8140  144.3860 C   0  0  0  0  0  3  0  0  0  0  0  0
  185.2870  178.2220  143.2040 C   0  0  0  0  0  0  0  0  0  0  0  0
  184.9100  175.9680  136.6550 O   0  0  0  0  0  0  0  0  0  0  0  0
  184.1440  176.8590  136.2030 C   0  0  0  0  0  0  0  0  0  0  0  0
  184.3420  177.3560  134.8850 N   0  0  0  0  0  1  0  0  0  0  0  0
  183.0720  177.3690  136.9960 N   0  0  0  0  0  2  0  0  0  0  0  0
  184.7050  177.7160  139.6560 O   0  0  0  0  0  0  0  0  0  0  0  0
  187.1610  178.0830  138.7900 S   0  0  0  0  0  1  0  0  0  0  0  0
  185.4320  178.6190  138.8790 C   0  0  0  0  0  2  0  0  0  0  0  0
  1  3  1  6  0  0  0
  1 21  1  0  0  0  0
  2 27  1  6  0  0  0
  2  9  1  0  0  0  0
  2 13  1  0  0  0  0
  5 15  1  0  0  0  0
  6  4  1  1  0  0  0
  6 11  1  0  0  0  0
  6  9  1  0  0  0  0
  7  8  1  0  0  0  0
  8  3  1  0  0  0  0
 10  4  1  0  0  0  0
 10  5  1  0  0  0  0
 11  7  1  0  0  0  0
 12 11  1  0  0  0  0
 13 28  1  0  0  0  0
 13  1  1  0  0  0  0
 14 15  1  0  0  0  0
 15  9  1  0  0  0  0
 16 17  1  0  0  0  0
 17 22  2  0  0  0  0
 18 16  1  0  0  0  0
 19 23  2  0  0  0  0
 21 19  1  0  0  0  0
 21 16  1  0  0  0  0
 23 20  1  0  0  0  0
 23 22  1  0  0  0  0
 25 24  2  0  0  0  0
 25 27  1  0  0  0  0
 26 25  1  0  0  0  0
 29 30  1  0  0  0  0
 30 28  1  0  0  0  0
M  END
>  <MODEL>
8

>  <REMARK>
 VINA RESULT:      -4.3      2.456      3.451
  Name = 
  4 active torsions:
  status: ('A' for Active; 'I' for Inactive)
    1  A    between atoms: C_1  and  C_22
    2  A    between atoms: C_4  and  N_25
    3  A    between atoms: O_10  and  C_23
    4  A    between atoms: O_10  and  C_26
                            x       y       z     vdW  Elec       q    Type
                         _______ _______ _______ _____ _____    ______ ____

>  <TORSDO>
F 4

$$$$
=
 OpenBabel10262421483D

 30 32  0  0  1  0  0  0  0  0999 V2000
  181.6910  176.5990  138.2140 C   0  0  1  0  0  3  0  0  0  0  0  0
  181.2420  179.0280  139.0040 C   0  0  2  0  0  3  0  0  0  0  0  0
  182.7880  176.3280  139.0700 O   0  0  0  0  0  0  0  0  0  0  0  0
  182.9070  178.8830  142.5670 C   0  0  0  0  0  2  0  0  0  0  0  0
  180.7110  178.6270  142.7990 C   0  0  0  0  0  2  0  0  0  0  0  0
  182.9310  179.0440  141.0320 C   0  0  2  0  0  3  0  0  0  0  0  0
  184.1740  178.3070  139.0820 C   0  0  0  0  0  2  0  0  0  0  0  0
  183.9650  176.8960  138.5430 C   0  0  0  0  0  2  0  0  0  0  0  0
  181.5710  178.5350  140.4340 C   0  0  1  0  0  3  0  0  0  0  0  0
  181.7720  179.4780  143.1310 O   0  0  0  0  0  0  0  0  0  0  0  0
  184.1060  178.2990  140.5340 N   0  0  0  0  0  0  0  0  0  0  0  0
  185.3060  179.0030  140.9670 C   0  0  0  0  0  1  0  0  0  0  0  0
  181.4890  178.0790  137.8140 C   0  0  2  0  0  3  0  0  0  0  0  0
  179.8970  180.1430  141.1600 O   0  0  0  0  0  1  0  0  0  0  0  0
  180.3530  178.8320  141.3360 C   0  0  2  0  0  3  0  0  0  0  0  0
  182.7980  175.1850  136.3390 C   0  0  1  0  0  3  0  0  0  0  0  0
  182.6090  173.9540  135.4940 C   0  0  0  0  0  3  0  0  0  0  0  0
  183.3660  176.5120  135.2960 Cl  0  0  0  0  0  0  0  0  0  0  0  0
  180.8190  174.3480  137.6570 C   0  0  0  0  0  3  0  0  0  0  0  0
  180.1630  171.9970  137.5940 C   0  0  0  0  0  1  0  0  0  0  0  0
  181.5030  175.5630  137.0900 C   0  0  1  0  0  3  0  0  0  0  0  0
  181.7500  172.9980  135.8540 C   0  0  0  0  0  3  0  0  0  0  0  0
  180.9080  173.1620  137.0510 C   0  0  0  0  0  0  0  0  0  0  0  0
  179.7260  181.2670  138.0850 O   0  0  0  0  0  0  0  0  0  0  0  0
  180.9630  181.4280  138.2560 C   0  0  0  0  0  0  0  0  0  0  0  0
  181.5560  182.6900  137.9720 N   0  0  0  0  0  1  0  0  0  0  0  0
  181.7760  180.3600  138.7410 N   0  0  0  0  0  2  0  0  0  0  0  0
  180.4150  178.1900  136.9240 O   0  0  0  0  0  0  0  0  0  0  0  0
  179.5940  179.6020  134.8630 S   0  0  0  0  0  1  0  0  0  0  0  0
  180.9370  178.8160  135.7910 C   0  0  0  0  0  2  0  0  0  0  0  0
  1  3  1  6  0  0  0
  2 27  1  6  0  0  0
  2  9  1  0  0  0  0
  4 10  1  0  0  0  0
  5 10  1  0  0  0  0
  6  4  1  1  0  0  0
  7 11  1  0  0  0  0
  8  3  1  0  0  0  0
  8  7  1  0  0  0  0
  9  6  1  0  0  0  0
  9 15  1  0  0  0  0
 11 12  1  0  0  0  0
 11  6  1  0  0  0  0
 13  1  1  0  0  0  0
 13  2  1  0  0  0  0
 14 15  1  0  0  0  0
 15  5  1  0  0  0  0
 16 21  1  0  0  0  0
 17 22  2  0  0  0  0
 17 16  1  0  0  0  0
 18 16  1  0  0  0  0
 21 19  1  0  0  0  0
 21  1  1  0  0  0  0
 22 23  1  0  0  0  0
 23 20  1  0  0  0  0
 23 19  2  0  0  0  0
 24 25  2  0  0  0  0
 25 27  1  0  0  0  0
 26 25  1  0  0  0  0
 28 13  1  0  0  0  0
 29 30  1  0  0  0  0
 30 28  1  0  0  0  0
M  END
>  <MODEL>
9

>  <REMARK>
 VINA RESULT:      -4.2      2.746      6.210
  Name = 
  4 active torsions:
  status: ('A' for Active; 'I' for Inactive)
    1  A    between atoms: C_1  and  C_22
    2  A    between atoms: C_4  and  N_25
    3  A    between atoms: O_10  and  C_23
    4  A    between atoms: O_10  and  C_26
                            x       y       z     vdW  Elec       q    Type
                         _______ _______ _______ _____ _____    ______ ____

>  <TORSDO>
F 4

$$$$
