=
 OpenBabel10262419583D

 27 31  0  0  1  0  0  0  0  0999 V2000
  190.9600  177.8230  145.0680 C   0  0  0  0  0  3  0  0  0  0  0  0
  188.8220  177.7710  146.3410 C   0  0  0  0  0  0  0  0  0  0  0  0
  188.1630  177.2020  143.9500 C   0  0  0  0  0  3  0  0  0  0  0  0
  184.9160  178.9640  146.8870 N   0  0  0  0  0  0  0  0  0  0  0  0
  183.1650  178.9570  145.1880 N   0  0  0  0  0  1  0  0  0  0  0  0
  188.4320  178.2230  147.6260 C   0  0  0  0  0  3  0  0  0  0  0  0
  185.4700  178.2370  144.8080 N   0  0  0  0  0  0  0  0  0  0  0  0
  190.3890  177.1120  141.0370 C   0  0  0  0  0  0  0  0  0  0  0  0
  185.3280  177.8970  143.4000 C   0  0  0  0  0  1  0  0  0  0  0  0
  190.1960  177.2020  139.8380 O   0  0  0  0  0  0  0  0  0  0  0  0
  186.5620  178.1680  145.5930 C   0  0  0  0  0  0  0  0  0  0  0  0
  190.1700  177.3090  146.1470 N   0  0  0  0  0  0  0  0  0  0  0  0
  184.5020  178.7200  145.6200 C   0  0  0  0  0  0  0  0  0  0  0  0
  186.2150  178.6090  146.8430 C   0  0  0  0  0  0  0  0  0  0  0  0
  190.5760  177.8300  143.7930 C   0  0  0  0  0  0  0  0  0  0  0  0
  187.8710  177.7470  145.2870 C   0  0  0  0  0  0  0  0  0  0  0  0
  189.3160  176.5640  141.9320 C   0  0  0  0  0  2  0  0  0  0  0  0
  187.1230  178.6520  147.8890 C   0  0  0  0  0  3  0  0  0  0  0  0
  191.7220  177.4750  141.6110 C   0  0  0  0  0  2  0  0  0  0  0  0
  191.5290  178.4140  142.7960 C   0  0  0  0  0  2  0  0  0  0  0  0
  189.3240  177.2040  143.2930 C   0  0  0  0  0  0  0  0  0  0  0  0
  193.2240  175.9820  148.6460 O   0  0  0  0  0  0  0  0  0  0  0  0
  190.8600  176.6560  147.2600 C   0  0  2  0  0  3  0  0  0  0  0  0
  191.5580  177.6770  148.1640 C   0  0  0  0  0  2  0  0  0  0  0  0
  192.3280  176.9220  149.2430 C   0  0  0  0  0  2  0  0  0  0  0  0
  192.9130  175.3010  147.4590 C   0  0  0  0  0  3  0  0  0  0  0  0
  191.8160  175.6040  146.7640 C   0  0  0  0  0  3  0  0  0  0  0  0
  1 12  1  0  0  0  0
  2  6  1  0  0  0  0
  3 16  1  0  0  0  0
  5 13  1  0  0  0  0
  6 18  2  0  0  0  0
  7 11  1  0  0  0  0
  7 13  1  0  0  0  0
  8 19  1  0  0  0  0
  8 17  1  0  0  0  0
  9  7  1  0  0  0  0
 10  8  2  0  0  0  0
 11 14  2  0  0  0  0
 12  2  1  0  0  0  0
 13  4  2  0  0  0  0
 14  4  1  0  0  0  0
 14 18  1  0  0  0  0
 15  1  2  0  0  0  0
 16 11  1  0  0  0  0
 16  2  2  0  0  0  0
 17 21  1  0  0  0  0
 19 20  1  0  0  0  0
 20 15  1  0  0  0  0
 21 15  1  0  0  0  0
 21  3  2  0  0  0  0
 22 25  1  0  0  0  0
 23 12  1  6  0  0  0
 23 24  1  0  0  0  0
 24 25  1  0  0  0  0
 26 22  1  0  0  0  0
 27 23  1  0  0  0  0
 27 26  2  0  0  0  0
M  END
>  <MODEL>
1

>  <REMARK>
 VINA RESULT:      -8.6      0.000      0.000
  Name = 
  1 active torsions:
  status: ('A' for Active; 'I' for Inactive)
    1  A    between atoms: C_9  and  N_15
                            x       y       z     vdW  Elec       q    Type
                         _______ _______ _______ _____ _____    ______ ____

>  <TORSDO>
F 1

$$$$
=
 OpenBabel10262419583D

 27 31  0  0  1  0  0  0  0  0999 V2000
  185.0900  179.0750  144.5800 C   0  0  0  0  0  3  0  0  0  0  0  0
  186.0070  178.3320  142.3880 C   0  0  0  0  0  0  0  0  0  0  0  0
  187.5860  177.3380  144.1200 C   0  0  0  0  0  3  0  0  0  0  0  0
  189.1150  177.9960  139.7030 N   0  0  0  0  0  0  0  0  0  0  0  0
  191.3550  177.1680  140.2000 N   0  0  0  0  0  1  0  0  0  0  0  0
  185.7780  178.7190  141.0440 C   0  0  0  0  0  3  0  0  0  0  0  0
  189.5460  177.3460  141.8360 N   0  0  0  0  0  0  0  0  0  0  0  0
  187.4320  177.8330  147.7490 C   0  0  0  0  0  0  0  0  0  0  0  0
  190.2870  176.8490  142.9870 C   0  0  0  0  0  1  0  0  0  0  0  0
  188.2570  177.7310  148.6400 O   0  0  0  0  0  0  0  0  0  0  0  0
  188.2700  177.7690  141.7660 C   0  0  0  0  0  0  0  0  0  0  0  0
  184.9200  178.4020  143.3260 N   0  0  0  0  0  0  0  0  0  0  0  0
  190.0210  177.4970  140.5780 C   0  0  0  0  0  0  0  0  0  0  0  0
  188.0230  178.1590  140.4760 C   0  0  0  0  0  0  0  0  0  0  0  0
  186.0700  178.8180  145.4430 C   0  0  0  0  0  0  0  0  0  0  0  0
  187.2880  177.8510  142.7710 C   0  0  0  0  0  0  0  0  0  0  0  0
  187.5630  177.0030  146.5060 C   0  0  0  0  0  2  0  0  0  0  0  0
  186.7870  178.6400  140.0740 C   0  0  0  0  0  3  0  0  0  0  0  0
  186.2450  178.7260  147.9260 C   0  0  0  0  0  2  0  0  0  0  0  0
  186.0980  179.6260  146.7040 C   0  0  0  0  0  2  0  0  0  0  0  0
  187.0600  177.7200  145.2840 C   0  0  0  0  0  0  0  0  0  0  0  0
  181.0140  179.1100  142.0710 O   0  0  0  0  0  0  0  0  0  0  0  0
  183.5570  178.1650  142.8470 C   0  0  2  0  0  3  0  0  0  0  0  0
  183.3370  178.7750  141.4600 C   0  0  0  0  0  2  0  0  0  0  0  0
  181.8770  178.5710  141.0670 C   0  0  0  0  0  2  0  0  0  0  0  0
  181.3410  179.0770  143.4350 C   0  0  0  0  0  3  0  0  0  0  0  0
  182.5400  178.6570  143.8420 C   0  0  0  0  0  3  0  0  0  0  0  0
  1 15  2  0  0  0  0
  2 16  1  0  0  0  0
  2 12  1  0  0  0  0
  3 21  2  0  0  0  0
  4 14  1  0  0  0  0
  4 13  2  0  0  0  0
  5 13  1  0  0  0  0
  6  2  2  0  0  0  0
  7  9  1  0  0  0  0
  8 19  1  0  0  0  0
  8 10  2  0  0  0  0
 11  7  1  0  0  0  0
 11 16  2  0  0  0  0
 12  1  1  0  0  0  0
 13  7  1  0  0  0  0
 14 11  1  0  0  0  0
 15 20  1  0  0  0  0
 16  3  1  0  0  0  0
 17  8  1  0  0  0  0
 18 14  2  0  0  0  0
 18  6  1  0  0  0  0
 20 19  1  0  0  0  0
 21 15  1  0  0  0  0
 21 17  1  0  0  0  0
 22 26  1  0  0  0  0
 23 24  1  6  0  0  0
 23 12  1  0  0  0  0
 23 27  1  0  0  0  0
 25 24  1  0  0  0  0
 25 22  1  0  0  0  0
 26 27  2  0  0  0  0
M  END
>  <MODEL>
2

>  <REMARK>
 VINA RESULT:      -7.9      3.405      7.938
  Name = 
  1 active torsions:
  status: ('A' for Active; 'I' for Inactive)
    1  A    between atoms: C_9  and  N_15
                            x       y       z     vdW  Elec       q    Type
                         _______ _______ _______ _____ _____    ______ ____

>  <TORSDO>
F 1

$$$$
=
 OpenBabel10262419583D

 27 31  0  0  1  0  0  0  0  0999 V2000
  184.8340  179.1890  141.7670 C   0  0  0  0  0  3  0  0  0  0  0  0
  186.5800  178.2940  140.2340 C   0  0  0  0  0  0  0  0  0  0  0  0
  187.3080  177.5390  142.5530 C   0  0  0  0  0  3  0  0  0  0  0  0
  190.5210  177.8650  139.1110 N   0  0  0  0  0  0  0  0  0  0  0  0
  192.3610  177.1940  140.5670 N   0  0  0  0  0  1  0  0  0  0  0  0
  186.9240  178.5450  138.8820 C   0  0  0  0  0  3  0  0  0  0  0  0
  190.0370  177.4340  141.2880 N   0  0  0  0  0  0  0  0  0  0  0  0
  185.6650  178.3550  145.7280 C   0  0  0  0  0  0  0  0  0  0  0  0
  190.2390  177.0800  142.6860 C   0  0  0  0  0  1  0  0  0  0  0  0
  186.0490  178.3750  146.8840 O   0  0  0  0  0  0  0  0  0  0  0  0
  188.9010  177.7870  140.6560 C   0  0  0  0  0  0  0  0  0  0  0  0
  185.2020  178.3960  140.6310 N   0  0  0  0  0  0  0  0  0  0  0  0
  190.9880  177.4920  140.3280 C   0  0  0  0  0  0  0  0  0  0  0  0
  189.2060  178.0440  139.3460 C   0  0  0  0  0  0  0  0  0  0  0  0
  185.3720  179.0590  142.9780 C   0  0  0  0  0  0  0  0  0  0  0  0
  187.5900  177.9120  141.1560 C   0  0  0  0  0  0  0  0  0  0  0  0
  186.3030  177.4220  144.7400 C   0  0  0  0  0  2  0  0  0  0  0  0
  188.2440  178.4270  138.4250 C   0  0  0  0  0  3  0  0  0  0  0  0
  184.5060  179.2020  145.3080 C   0  0  0  0  0  2  0  0  0  0  0  0
  184.8710  179.9790  144.0490 C   0  0  0  0  0  2  0  0  0  0  0  0
  186.3460  178.0000  143.3530 C   0  0  0  0  0  0  0  0  0  0  0  0
  181.4620  178.0430  138.8340 O   0  0  0  0  0  0  0  0  0  0  0  0
  184.1600  178.0510  139.6610 C   0  0  2  0  0  3  0  0  0  0  0  0
  183.5220  179.3040  139.0550 C   0  0  0  0  0  2  0  0  0  0  0  0
  182.3900  178.8720  138.1280 C   0  0  0  0  0  2  0  0  0  0  0  0
  181.8690  177.1530  139.8390 C   0  0  0  0  0  3  0  0  0  0  0  0
  183.1300  177.1400  140.2730 C   0  0  0  0  0  3  0  0  0  0  0  0
  1 15  2  0  0  0  0
  2 12  1  0  0  0  0
  2 16  1  0  0  0  0
  3 21  2  0  0  0  0
  4 14  1  0  0  0  0
  4 13  2  0  0  0  0
  6  2  2  0  0  0  0
  7  9  1  0  0  0  0
  8 10  2  0  0  0  0
 11 16  2  0  0  0  0
 11  7  1  0  0  0  0
 12  1  1  0  0  0  0
 13  5  1  0  0  0  0
 13  7  1  0  0  0  0
 14 11  1  0  0  0  0
 15 21  1  0  0  0  0
 15 20  1  0  0  0  0
 16  3  1  0  0  0  0
 17  8  1  0  0  0  0
 18  6  1  0  0  0  0
 18 14  2  0  0  0  0
 19  8  1  0  0  0  0
 20 19  1  0  0  0  0
 21 17  1  0  0  0  0
 22 26  1  0  0  0  0
 23 24  1  1  0  0  0
 23 27  1  0  0  0  0
 23 12  1  0  0  0  0
 25 22  1  0  0  0  0
 25 24  1  0  0  0  0
 26 27  2  0  0  0  0
M  END
>  <MODEL>
3

>  <REMARK>
 VINA RESULT:      -7.7      4.121      8.773
  Name = 
  1 active torsions:
  status: ('A' for Active; 'I' for Inactive)
    1  A    between atoms: C_9  and  N_15
                            x       y       z     vdW  Elec       q    Type
                         _______ _______ _______ _____ _____    ______ ____

>  <TORSDO>
F 1

$$$$
=
 OpenBabel10262419583D

 27 31  0  0  1  0  0  0  0  0999 V2000
  190.8070  175.9290  143.0330 C   0  0  0  0  0  3  0  0  0  0  0  0
  188.7880  177.3640  142.7940 C   0  0  0  0  0  0  0  0  0  0  0  0
  189.4230  177.5490  145.2520 C   0  0  0  0  0  3  0  0  0  0  0  0
  184.9830  178.4610  143.9360 N   0  0  0  0  0  0  0  0  0  0  0  0
  184.2440  178.9030  146.2180 N   0  0  0  0  0  1  0  0  0  0  0  0
  187.8010  177.5140  141.7870 C   0  0  0  0  0  3  0  0  0  0  0  0
  186.5170  178.2540  145.5970 N   0  0  0  0  0  0  0  0  0  0  0  0
  192.1470  175.7670  146.9390 C   0  0  0  0  0  0  0  0  0  0  0  0
  187.0810  178.2440  146.9400 C   0  0  0  0  0  1  0  0  0  0  0  0
  192.3600  175.4810  148.1040 O   0  0  0  0  0  0  0  0  0  0  0  0
  187.1140  177.9690  144.4240 C   0  0  0  0  0  0  0  0  0  0  0  0
  190.1300  177.0260  142.4060 N   0  0  0  0  0  0  0  0  0  0  0  0
  185.2390  178.5440  145.2640 C   0  0  0  0  0  0  0  0  0  0  0  0
  186.1790  178.0970  143.4310 C   0  0  0  0  0  0  0  0  0  0  0  0
  190.9470  175.7870  144.3490 C   0  0  0  0  0  0  0  0  0  0  0  0
  188.4420  177.5870  144.1530 C   0  0  0  0  0  0  0  0  0  0  0  0
  191.3390  176.9850  146.6000 C   0  0  0  0  0  2  0  0  0  0  0  0
  186.4830  177.8780  142.0970 C   0  0  0  0  0  3  0  0  0  0  0  0
  192.7560  174.9510  145.8430 C   0  0  0  0  0  2  0  0  0  0  0  0
  191.6800  174.5730  144.8310 C   0  0  0  0  0  2  0  0  0  0  0  0
  190.5220  176.8010  145.3510 C   0  0  0  0  0  0  0  0  0  0  0  0
  192.1110  177.1230  138.7460 O   0  0  0  0  0  0  0  0  0  0  0  0
  190.6370  177.5090  141.1210 C   0  0  2  0  0  3  0  0  0  0  0  0
  190.0460  176.7170  139.9510 C   0  0  0  0  0  2  0  0  0  0  0  0
  190.6870  177.2120  138.6580 C   0  0  0  0  0  2  0  0  0  0  0  0
  192.8020  177.3380  139.9480 C   0  0  0  0  0  3  0  0  0  0  0  0
  192.1430  177.5030  141.0960 C   0  0  0  0  0  3  0  0  0  0  0  0
  1 15  2  0  0  0  0
  2 16  1  0  0  0  0
  3 21  2  0  0  0  0
  4 13  2  0  0  0  0
  6 18  1  0  0  0  0
  6  2  2  0  0  0  0
  7  9  1  0  0  0  0
  8 10  2  0  0  0  0
 11  7  1  0  0  0  0
 12  2  1  0  0  0  0
 12  1  1  0  0  0  0
 13  7  1  0  0  0  0
 13  5  1  0  0  0  0
 14  4  1  0  0  0  0
 14 11  1  0  0  0  0
 15 20  1  0  0  0  0
 15 21  1  0  0  0  0
 16 11  2  0  0  0  0
 16  3  1  0  0  0  0
 17  8  1  0  0  0  0
 18 14  2  0  0  0  0
 19  8  1  0  0  0  0
 20 19  1  0  0  0  0
 21 17  1  0  0  0  0
 22 26  1  0  0  0  0
 23 24  1  6  0  0  0
 23 12  1  0  0  0  0
 25 22  1  0  0  0  0
 25 24  1  0  0  0  0
 26 27  2  0  0  0  0
 27 23  1  0  0  0  0
M  END
>  <MODEL>
4

>  <REMARK>
 VINA RESULT:      -7.6      1.561      5.339
  Name = 
  1 active torsions:
  status: ('A' for Active; 'I' for Inactive)
    1  A    between atoms: C_9  and  N_15
                            x       y       z     vdW  Elec       q    Type
                         _______ _______ _______ _____ _____    ______ ____

>  <TORSDO>
F 1

$$$$
=
 OpenBabel10262419583D

 27 31  0  0  1  0  0  0  0  0999 V2000
  187.7710  178.4130  140.8960 C   0  0  0  0  0  3  0  0  0  0  0  0
  189.6730  177.4190  142.1560 C   0  0  0  0  0  0  0  0  0  0  0  0
  187.6830  177.2200  143.7300 C   0  0  0  0  0  3  0  0  0  0  0  0
  192.0540  177.1890  145.5110 N   0  0  0  0  0  0  0  0  0  0  0  0
  191.2700  177.0170  147.8150 N   0  0  0  0  0  1  0  0  0  0  0  0
  191.0800  177.4300  141.9830 C   0  0  0  0  0  3  0  0  0  0  0  0
  189.8100  177.1510  145.8590 N   0  0  0  0  0  0  0  0  0  0  0  0
  184.2920  178.4750  143.1260 C   0  0  0  0  0  0  0  0  0  0  0  0
  188.5410  177.1050  146.5710 C   0  0  0  0  0  1  0  0  0  0  0  0
  183.3660  178.7650  143.8630 O   0  0  0  0  0  0  0  0  0  0  0  0
  190.0380  177.2510  144.5350 C   0  0  0  0  0  0  0  0  0  0  0  0
  188.8300  177.4530  140.9920 N   0  0  0  0  0  0  0  0  0  0  0  0
  191.0440  177.1170  146.4120 C   0  0  0  0  0  0  0  0  0  0  0  0
  191.3940  177.2730  144.3390 C   0  0  0  0  0  0  0  0  0  0  0  0
  186.8270  178.5840  141.8200 C   0  0  0  0  0  0  0  0  0  0  0  0
  189.1280  177.3350  143.4650 C   0  0  0  0  0  0  0  0  0  0  0  0
  185.2900  177.4370  143.5450 C   0  0  0  0  0  2  0  0  0  0  0  0
  191.9560  177.3620  143.0760 C   0  0  0  0  0  3  0  0  0  0  0  0
  184.3910  179.0960  141.7680 C   0  0  0  0  0  2  0  0  0  0  0  0
  185.7980  179.6410  141.5580 C   0  0  0  0  0  2  0  0  0  0  0  0
  186.6710  177.7280  143.0260 C   0  0  0  0  0  0  0  0  0  0  0  0
  190.0060  176.9380  137.0310 O   0  0  0  0  0  0  0  0  0  0  0  0
  189.3000  176.8160  139.7610 C   0  0  2  0  0  3  0  0  0  0  0  0
  190.6600  177.3690  139.3260 C   0  0  0  0  0  2  0  0  0  0  0  0
  191.0410  176.7290  137.9950 C   0  0  0  0  0  2  0  0  0  0  0  0
  188.6490  176.9670  137.3850 C   0  0  0  0  0  3  0  0  0  0  0  0
  188.2730  176.9320  138.6650 C   0  0  0  0  0  3  0  0  0  0  0  0
  1 12  1  0  0  0  0
  1 15  2  0  0  0  0
  2 16  1  0  0  0  0
  4 13  2  0  0  0  0
  6  2  2  0  0  0  0
  6 18  1  0  0  0  0
  7 13  1  0  0  0  0
  7  9  1  0  0  0  0
  8 17  1  0  0  0  0
  8 10  2  0  0  0  0
 11  7  1  0  0  0  0
 12  2  1  0  0  0  0
 13  5  1  0  0  0  0
 14 11  1  0  0  0  0
 14  4  1  0  0  0  0
 15 21  1  0  0  0  0
 16  3  1  0  0  0  0
 16 11  2  0  0  0  0
 18 14  2  0  0  0  0
 19  8  1  0  0  0  0
 20 19  1  0  0  0  0
 20 15  1  0  0  0  0
 21 17  1  0  0  0  0
 21  3  2  0  0  0  0
 22 26  1  0  0  0  0
 22 25  1  0  0  0  0
 23 27  1  6  0  0  0
 23 12  1  0  0  0  0
 24 23  1  0  0  0  0
 25 24  1  0  0  0  0
 26 27  2  0  0  0  0
M  END
>  <MODEL>
5

>  <REMARK>
 VINA RESULT:      -7.6      3.316      6.933
  Name = 
  1 active torsions:
  status: ('A' for Active; 'I' for Inactive)
    1  A    between atoms: C_9  and  N_15
                            x       y       z     vdW  Elec       q    Type
                         _______ _______ _______ _____ _____    ______ ____

>  <TORSDO>
F 1

$$$$
=
 OpenBabel10262419583D

 27 31  0  0  1  0  0  0  0  0999 V2000
  184.3590  179.1540  144.3980 C   0  0  0  0  0  3  0  0  0  0  0  0
  184.9320  178.5830  142.0440 C   0  0  0  0  0  0  0  0  0  0  0  0
  186.8230  177.5900  143.4280 C   0  0  0  0  0  3  0  0  0  0  0  0
  187.5600  178.5710  138.8700 N   0  0  0  0  0  0  0  0  0  0  0  0
  189.8890  177.8470  138.9410 N   0  0  0  0  0  1  0  0  0  0  0  0
  184.4630  179.0270  140.7820 C   0  0  0  0  0  3  0  0  0  0  0  0
  188.3720  177.8340  140.8590 N   0  0  0  0  0  0  0  0  0  0  0  0
  187.2540  177.8800  147.0570 C   0  0  0  0  0  0  0  0  0  0  0  0
  189.3180  177.3190  141.8390 C   0  0  0  0  0  1  0  0  0  0  0  0
  188.2210  177.7790  147.7930 O   0  0  0  0  0  0  0  0  0  0  0  0
  187.0830  178.1860  141.0250 C   0  0  0  0  0  0  0  0  0  0  0  0
  184.0150  178.5400  143.1500 N   0  0  0  0  0  0  0  0  0  0  0  0
  188.6230  178.0790  139.5520 C   0  0  0  0  0  0  0  0  0  0  0  0
  186.6060  178.6290  139.8200 C   0  0  0  0  0  0  0  0  0  0  0  0
  185.4810  178.9080  145.0710 C   0  0  0  0  0  0  0  0  0  0  0  0
  186.2800  178.1570  142.1810 C   0  0  0  0  0  0  0  0  0  0  0  0
  187.2150  177.1270  145.7600 C   0  0  0  0  0  2  0  0  0  0  0  0
  185.2980  179.0590  139.6570 C   0  0  0  0  0  3  0  0  0  0  0  0
  186.0720  178.6930  147.4810 C   0  0  0  0  0  2  0  0  0  0  0  0
  185.6800  179.6470  146.3590 C   0  0  0  0  0  2  0  0  0  0  0  0
  186.4820  177.8790  144.6840 C   0  0  0  0  0  0  0  0  0  0  0  0
  179.9140  179.0760  142.6680 O   0  0  0  0  0  0  0  0  0  0  0  0
  182.6040  178.2510  142.8870 C   0  0  2  0  0  3  0  0  0  0  0  0
  182.1060  178.9810  141.6360 C   0  0  0  0  0  2  0  0  0  0  0  0
  180.6140  178.7080  141.4770 C   0  0  0  0  0  2  0  0  0  0  0  0
  180.4790  178.9290  143.9440 C   0  0  0  0  0  3  0  0  0  0  0  0
  181.7530  178.5610  144.0900 C   0  0  0  0  0  3  0  0  0  0  0  0
  1 15  2  0  0  0  0
  2 16  1  0  0  0  0
  2 12  1  0  0  0  0
  3 21  2  0  0  0  0
  4 13  2  0  0  0  0
  4 14  1  0  0  0  0
  5 13  1  0  0  0  0
  6  2  2  0  0  0  0
  7 11  1  0  0  0  0
  7  9  1  0  0  0  0
  8 19  1  0  0  0  0
  8 10  2  0  0  0  0
 11 16  2  0  0  0  0
 12  1  1  0  0  0  0
 13  7  1  0  0  0  0
 14 11  1  0  0  0  0
 15 20  1  0  0  0  0
 16  3  1  0  0  0  0
 17  8  1  0  0  0  0
 18 14  2  0  0  0  0
 18  6  1  0  0  0  0
 20 19  1  0  0  0  0
 21 15  1  0  0  0  0
 21 17  1  0  0  0  0
 22 26  1  0  0  0  0
 23 24  1  6  0  0  0
 23 12  1  0  0  0  0
 23 27  1  0  0  0  0
 25 24  1  0  0  0  0
 25 22  1  0  0  0  0
 26 27  2  0  0  0  0
M  END
>  <MODEL>
6

>  <REMARK>
 VINA RESULT:      -7.5      3.922      8.244
  Name = 
  1 active torsions:
  status: ('A' for Active; 'I' for Inactive)
    1  A    between atoms: C_9  and  N_15
                            x       y       z     vdW  Elec       q    Type
                         _______ _______ _______ _____ _____    ______ ____

>  <TORSDO>
F 1

$$$$
=
 OpenBabel10262419583D

 27 31  0  0  1  0  0  0  0  0999 V2000
  189.7830  176.4580  141.8770 C   0  0  0  0  0  3  0  0  0  0  0  0
  187.7010  177.8200  141.9530 C   0  0  0  0  0  0  0  0  0  0  0  0
  188.6130  177.9030  144.3270 C   0  0  0  0  0  3  0  0  0  0  0  0
  184.0210  178.7000  143.5850 N   0  0  0  0  0  0  0  0  0  0  0  0
  183.5390  178.9920  145.9590 N   0  0  0  0  0  1  0  0  0  0  0  0
  186.5990  177.9810  141.0770 C   0  0  0  0  0  3  0  0  0  0  0  0
  185.7460  178.4690  145.0450 N   0  0  0  0  0  0  0  0  0  0  0  0
  191.5760  176.1490  145.5870 C   0  0  0  0  0  0  0  0  0  0  0  0
  186.4630  178.4130  146.3110 C   0  0  0  0  0  1  0  0  0  0  0  0
  191.9350  175.8110  146.7020 O   0  0  0  0  0  0  0  0  0  0  0  0
  186.2100  178.2700  143.7960 C   0  0  0  0  0  0  0  0  0  0  0  0
  188.9990  177.5570  141.3950 N   0  0  0  0  0  0  0  0  0  0  0  0
  184.4280  178.7240  144.8780 C   0  0  0  0  0  0  0  0  0  0  0  0
  185.1610  178.4120  142.9270 C   0  0  0  0  0  0  0  0  0  0  0  0
  190.0810  176.2540  143.1580 C   0  0  0  0  0  0  0  0  0  0  0  0
  187.5090  177.9580  143.3540 C   0  0  0  0  0  0  0  0  0  0  0  0
  190.6920  177.3490  145.4120 C   0  0  0  0  0  2  0  0  0  0  0  0
  185.3140  178.2740  141.5560 C   0  0  0  0  0  3  0  0  0  0  0  0
  192.0800  175.4160  144.3840 C   0  0  0  0  0  2  0  0  0  0  0  0
  190.9070  175.0470  143.4830 C   0  0  0  0  0  2  0  0  0  0  0  0
  189.7420  177.1960  144.2570 C   0  0  0  0  0  0  0  0  0  0  0  0
  189.7250  177.8630  137.3070 O   0  0  0  0  0  0  0  0  0  0  0  0
  189.3360  178.1260  140.0890 C   0  0  2  0  0  3  0  0  0  0  0  0
  188.1420  178.0770  139.1310 C   0  0  0  0  0  2  0  0  0  0  0  0
  188.5910  178.5990  137.7700 C   0  0  0  0  0  2  0  0  0  0  0  0
  190.7060  177.3720  138.1810 C   0  0  0  0  0  3  0  0  0  0  0  0
  190.5510  177.4580  139.5030 C   0  0  0  0  0  3  0  0  0  0  0  0
  1 15  2  0  0  0  0
  2 16  1  0  0  0  0
  4 13  2  0  0  0  0
  6 18  1  0  0  0  0
  6  2  2  0  0  0  0
  7  9  1  0  0  0  0
  8 10  2  0  0  0  0
 11  7  1  0  0  0  0
 12  1  1  0  0  0  0
 12  2  1  0  0  0  0
 13  7  1  0  0  0  0
 13  5  1  0  0  0  0
 14  4  1  0  0  0  0
 14 11  1  0  0  0  0
 15 20  1  0  0  0  0
 15 21  1  0  0  0  0
 16 11  2  0  0  0  0
 16  3  1  0  0  0  0
 17  8  1  0  0  0  0
 18 14  2  0  0  0  0
 19  8  1  0  0  0  0
 20 19  1  0  0  0  0
 21  3  2  0  0  0  0
 21 17  1  0  0  0  0
 22 25  1  0  0  0  0
 22 26  1  0  0  0  0
 23 24  1  6  0  0  0
 23 12  1  0  0  0  0
 25 24  1  0  0  0  0
 26 27  2  0  0  0  0
 27 23  1  0  0  0  0
M  END
>  <MODEL>
7

>  <REMARK>
 VINA RESULT:      -7.3      2.089      5.802
  Name = 
  1 active torsions:
  status: ('A' for Active; 'I' for Inactive)
    1  A    between atoms: C_9  and  N_15
                            x       y       z     vdW  Elec       q    Type
                         _______ _______ _______ _____ _____    ______ ____

>  <TORSDO>
F 1

$$$$
=
 OpenBabel10262419583D

 27 31  0  0  1  0  0  0  0  0999 V2000
  184.5310  177.8780  142.5030 C   0  0  0  0  0  3  0  0  0  0  0  0
  187.0180  177.8540  142.3950 C   0  0  0  0  0  0  0  0  0  0  0  0
  186.2830  178.7910  140.1450 C   0  0  0  0  0  3  0  0  0  0  0  0
  190.5400  176.7910  140.5390 N   0  0  0  0  0  0  0  0  0  0  0  0
  191.0770  177.1280  138.1830 N   0  0  0  0  0  1  0  0  0  0  0  0
  188.0300  177.2420  143.1760 C   0  0  0  0  0  3  0  0  0  0  0  0
  188.9670  177.7790  139.2330 N   0  0  0  0  0  0  0  0  0  0  0  0
  182.8320  179.1850  138.9700 C   0  0  0  0  0  0  0  0  0  0  0  0
  188.3280  178.3240  138.0430 C   0  0  0  0  0  1  0  0  0  0  0  0
  182.3340  179.2770  137.8620 O   0  0  0  0  0  0  0  0  0  0  0  0
  188.4850  177.6810  140.4870 C   0  0  0  0  0  0  0  0  0  0  0  0
  185.8020  178.2710  143.0380 N   0  0  0  0  0  0  0  0  0  0  0  0
  190.2030  177.2340  139.3040 C   0  0  0  0  0  0  0  0  0  0  0  0
  189.4420  177.0840  141.2630 C   0  0  0  0  0  0  0  0  0  0  0  0
  184.1560  178.0720  141.2410 C   0  0  0  0  0  0  0  0  0  0  0  0
  187.2380  178.0760  141.0100 C   0  0  0  0  0  0  0  0  0  0  0  0
  184.2390  179.6520  139.2030 C   0  0  0  0  0  2  0  0  0  0  0  0
  189.2530  176.8460  142.6150 C   0  0  0  0  0  3  0  0  0  0  0  0
  182.0170  178.6780  140.1170 C   0  0  0  0  0  2  0  0  0  0  0  0
  182.7920  177.5900  140.8520 C   0  0  0  0  0  2  0  0  0  0  0  0
  184.9530  178.8240  140.2360 C   0  0  0  0  0  0  0  0  0  0  0  0
  185.1020  178.4780  147.1370 O   0  0  0  0  0  0  0  0  0  0  0  0
  185.8560  178.7230  144.4290 C   0  0  2  0  0  3  0  0  0  0  0  0
  186.5110  177.6750  145.3340 C   0  0  0  0  0  2  0  0  0  0  0  0
  186.4510  178.1730  146.7740 C   0  0  0  0  0  2  0  0  0  0  0  0
  184.1800  179.0030  146.2180 C   0  0  0  0  0  3  0  0  0  0  0  0
  184.4910  179.1160  144.9260 C   0  0  0  0  0  3  0  0  0  0  0  0
  1 12  1  0  0  0  0
  2 12  1  0  0  0  0
  2  6  1  0  0  0  0
  3 21  2  0  0  0  0
  3 16  1  0  0  0  0
  4 14  1  0  0  0  0
  5 13  1  0  0  0  0
  7 13  1  0  0  0  0
  7 11  1  0  0  0  0
  8 17  1  0  0  0  0
  8 19  1  0  0  0  0
  9  7  1  0  0  0  0
 10  8  2  0  0  0  0
 11 16  1  0  0  0  0
 11 14  2  0  0  0  0
 13  4  2  0  0  0  0
 14 18  1  0  0  0  0
 15  1  2  0  0  0  0
 16  2  2  0  0  0  0
 17 21  1  0  0  0  0
 18  6  2  0  0  0  0
 19 20  1  0  0  0  0
 20 15  1  0  0  0  0
 21 15  1  0  0  0  0
 23 12  1  6  0  0  0
 23 27  1  0  0  0  0
 23 24  1  0  0  0  0
 24 25  1  0  0  0  0
 25 22  1  0  0  0  0
 26 22  1  0  0  0  0
 27 26  2  0  0  0  0
M  END
>  <MODEL>
8

>  <REMARK>
 VINA RESULT:      -7.3      4.045      7.196
  Name = 
  1 active torsions:
  status: ('A' for Active; 'I' for Inactive)
    1  A    between atoms: C_9  and  N_15
                            x       y       z     vdW  Elec       q    Type
                         _______ _______ _______ _____ _____    ______ ____

>  <TORSDO>
F 1

$$$$
=
 OpenBabel10262419583D

 27 31  0  0  1  0  0  0  0  0999 V2000
  190.5720  176.3640  141.4050 C   0  0  0  0  0  3  0  0  0  0  0  0
  189.0290  177.4760  139.7980 C   0  0  0  0  0  0  0  0  0  0  0  0
  188.4270  178.4680  142.0640 C   0  0  0  0  0  3  0  0  0  0  0  0
  185.2400  178.5440  138.5840 N   0  0  0  0  0  0  0  0  0  0  0  0
  183.5370  179.6070  139.9710 N   0  0  0  0  0  1  0  0  0  0  0  0
  188.6580  177.2210  138.4550 C   0  0  0  0  0  3  0  0  0  0  0  0
  185.7730  178.9940  140.7450 N   0  0  0  0  0  0  0  0  0  0  0  0
  189.8680  177.5360  145.3040 C   0  0  0  0  0  0  0  0  0  0  0  0
  185.6250  179.4500  142.1200 C   0  0  0  0  0  1  0  0  0  0  0  0
  189.4760  177.6440  146.4530 O   0  0  0  0  0  0  0  0  0  0  0  0
  186.8330  178.4110  140.1530 C   0  0  0  0  0  0  0  0  0  0  0  0
  190.3630  177.1500  140.2250 N   0  0  0  0  0  0  0  0  0  0  0  0
  184.8360  179.0570  139.7720 C   0  0  0  0  0  0  0  0  0  0  0  0
  186.4990  178.1450  138.8520 C   0  0  0  0  0  0  0  0  0  0  0  0
  190.0550  176.6500  142.5980 C   0  0  0  0  0  0  0  0  0  0  0  0
  188.0950  178.0790  140.6820 C   0  0  0  0  0  0  0  0  0  0  0  0
  189.4170  178.5160  144.2610 C   0  0  0  0  0  2  0  0  0  0  0  0
  187.3850  177.5490  137.9680 C   0  0  0  0  0  3  0  0  0  0  0  0
  190.8600  176.4750  144.9480 C   0  0  0  0  0  2  0  0  0  0  0  0
  190.3730  175.7120  143.7220 C   0  0  0  0  0  2  0  0  0  0  0  0
  189.2840  177.8830  142.9030 C   0  0  0  0  0  0  0  0  0  0  0  0
  193.9020  176.3300  138.1900 O   0  0  0  0  0  0  0  0  0  0  0  0
  191.4580  177.2510  139.2590 C   0  0  2  0  0  3  0  0  0  0  0  0
  191.4990  176.0370  138.3270 C   0  0  0  0  0  2  0  0  0  0  0  0
  192.7140  176.1680  137.4130 C   0  0  0  0  0  2  0  0  0  0  0  0
  193.9120  177.0320  139.4050 C   0  0  0  0  0  3  0  0  0  0  0  0
  192.7760  177.4670  139.9540 C   0  0  0  0  0  3  0  0  0  0  0  0
  1 15  2  0  0  0  0
  2 12  1  0  0  0  0
  2 16  1  0  0  0  0
  3 21  2  0  0  0  0
  4 14  1  0  0  0  0
  4 13  2  0  0  0  0
  6  2  2  0  0  0  0
  7  9  1  0  0  0  0
  8 10  2  0  0  0  0
 11 16  2  0  0  0  0
 11  7  1  0  0  0  0
 12  1  1  0  0  0  0
 13  5  1  0  0  0  0
 13  7  1  0  0  0  0
 14 11  1  0  0  0  0
 15 21  1  0  0  0  0
 15 20  1  0  0  0  0
 16  3  1  0  0  0  0
 17  8  1  0  0  0  0
 18  6  1  0  0  0  0
 18 14  2  0  0  0  0
 19  8  1  0  0  0  0
 20 19  1  0  0  0  0
 21 17  1  0  0  0  0
 22 26  1  0  0  0  0
 23 24  1  1  0  0  0
 23 27  1  0  0  0  0
 23 12  1  0  0  0  0
 25 22  1  0  0  0  0
 25 24  1  0  0  0  0
 26 27  2  0  0  0  0
M  END
>  <MODEL>
9

>  <REMARK>
 VINA RESULT:      -7.2      3.381      6.624
  Name = 
  1 active torsions:
  status: ('A' for Active; 'I' for Inactive)
    1  A    between atoms: C_9  and  N_15
                            x       y       z     vdW  Elec       q    Type
                         _______ _______ _______ _____ _____    ______ ____

>  <TORSDO>
F 1

$$$$
