=
 OpenBabel10262423343D

 34 38  0  0  1  0  0  0  0  0999 V2000
  182.6670  176.8950  139.2730 C   0  0  1  0  0  3  0  0  0  0  0  0
  185.0630  176.2850  136.2130 C   0  0  0  0  0  2  0  0  0  0  0  0
  182.8460  177.5040  136.3810 C   0  0  0  0  0  2  0  0  0  0  0  0
  182.7770  178.6530  141.0970 C   0  0  1  0  0  3  0  0  0  0  0  0
  182.7460  177.1580  140.7780 C   0  0  0  0  0  2  0  0  0  0  0  0
  181.5400  179.2080  138.9660 C   0  0  2  0  0  3  0  0  0  0  0  0
  182.5840  179.9160  138.3670 O   0  0  0  0  0  1  0  0  0  0  0  0
  181.5780  179.3810  140.4830 C   0  0  0  0  0  2  0  0  0  0  0  0
  181.4830  177.4260  137.0630 C   0  0  1  0  0  3  0  0  0  0  0  0
  181.5570  177.7160  138.5760 C   0  0  1  0  0  3  0  0  0  0  0  0
  180.4680  178.2950  136.3440 C   0  0  0  0  0  1  0  0  0  0  0  0
  186.3440  176.2070  137.0450 C   0  0  0  0  0  2  0  0  0  0  0  0
  186.8800  177.6020  137.3760 C   0  0  1  0  0  3  0  0  0  0  0  0
  185.7860  178.6290  137.6970 C   0  0  0  0  0  2  0  0  0  0  0  0
  183.8050  176.5330  137.0620 C   0  0  2  0  0  3  0  0  0  0  0  0
  184.8320  178.1960  138.8120 C   0  0  0  0  0  2  0  0  0  0  0  0
  184.0260  176.9040  138.5460 C   0  0  1  0  0  3  0  0  0  0  0  0
  187.9230  177.5230  138.4800 C   0  0  0  0  0  2  0  0  0  0  0  0
  189.0590  179.2930  138.0310 O   0  0  0  0  0  1  0  0  0  0  0  0
  188.2360  178.8070  138.9360 O   0  0  0  0  0  0  0  0  0  0  0  0
  182.8970  178.9060  142.6010 C   0  0  0  0  0  2  0  0  0  0  0  0
  186.5520  177.8920  142.8440 C   0  0  0  0  0  3  0  0  0  0  0  0
  184.4350  178.5500  144.5480 C   0  0  0  0  0  3  0  0  0  0  0  0
  188.3000  177.8840  146.2220 C   0  0  1  0  0  3  0  0  0  0  0  0
  188.1000  177.4850  144.7560 C   0  0  0  0  0  2  0  0  0  0  0  0
  186.7580  177.9060  144.2250 C   0  0  0  0  0  0  0  0  0  0  0  0
  185.8680  178.3100  146.5750 C   0  0  0  0  0  2  0  0  0  0  0  0
  185.6810  178.2160  145.0870 C   0  0  0  0  0  0  0  0  0  0  0  0
  187.0770  177.5120  147.0550 C   0  0  0  0  0  2  0  0  0  0  0  0
  184.2390  178.5450  143.1650 C   0  0  0  0  0  0  0  0  0  0  0  0
  185.3000  178.2170  142.3140 C   0  0  0  0  0  3  0  0  0  0  0  0
  189.5730  177.2730  146.8020 C   0  0  0  0  0  2  0  0  0  0  0  0
  190.6750  177.1230  145.7630 C   0  0  0  0  0  2  0  0  0  0  0  0
  191.9000  176.6960  146.4150 N   0  0  0  0  0  1  0  0  0  0  0  0
  1  5  1  1  0  0  0
  2 12  1  0  0  0  0
  2 15  1  0  0  0  0
  3 15  1  0  0  0  0
  3  9  1  0  0  0  0
  4 21  1  1  0  0  0
  5  4  1  0  0  0  0
  6  7  1  6  0  0  0
  6  8  1  0  0  0  0
  8  4  1  0  0  0  0
  9 11  1  6  0  0  0
  9 10  1  0  0  0  0
 10  6  1  0  0  0  0
 10  1  1  0  0  0  0
 12 13  1  0  0  0  0
 13 14  1  0  0  0  0
 13 18  1  0  0  0  0
 14 16  1  0  0  0  0
 15 17  1  0  0  0  0
 17 16  1  0  0  0  0
 17  1  1  0  0  0  0
 18 20  1  0  0  0  0
 19 20  1  0  0  0  0
 21 30  1  0  0  0  0
 22 26  1  0  0  0  0
 23 28  1  0  0  0  0
 24 32  1  0  0  0  0
 24 29  1  0  0  0  0
 25 24  1  0  0  0  0
 26 25  1  0  0  0  0
 26 28  2  0  0  0  0
 27 29  1  0  0  0  0
 28 27  1  0  0  0  0
 30 23  2  0  0  0  0
 31 22  2  0  0  0  0
 31 30  1  0  0  0  0
 33 34  1  0  0  0  0
 33 32  1  0  0  0  0
M  END
>  <MODEL>
1

>  <REMARK>
 VINA RESULT:      -9.1      0.000      0.000
  Name = 
  6 active torsions:
  status: ('A' for Active; 'I' for Inactive)
    1  A    between atoms: C_3  and  O_24
    2  A    between atoms: C_3  and  C_25
    3  A    between atoms: C_7  and  C_11
    4  A    between atoms: C_8  and  C_18
    5  A    between atoms: C_11  and  C_15
    6  A    between atoms: C_18  and  C_30
                            x       y       z     vdW  Elec       q    Type
                         _______ _______ _______ _____ _____    ______ ____

>  <TORSDO>
F 6

$$$$
=
 OpenBabel10262423343D

 34 38  0  0  1  0  0  0  0  0999 V2000
  182.5310  176.7600  139.5000 C   0  0  1  0  0  3  0  0  0  0  0  0
  184.7550  176.1120  136.3200 C   0  0  0  0  0  2  0  0  0  0  0  0
  182.4510  177.1420  136.5650 C   0  0  0  0  0  2  0  0  0  0  0  0
  182.6030  178.6650  141.1720 C   0  0  1  0  0  3  0  0  0  0  0  0
  182.6900  177.1520  140.9710 C   0  0  0  0  0  2  0  0  0  0  0  0
  181.1750  178.9330  139.1070 C   0  0  2  0  0  3  0  0  0  0  0  0
  182.1040  179.6780  138.3780 O   0  0  0  0  0  1  0  0  0  0  0  0
  181.3030  179.2330  140.5990 C   0  0  0  0  0  2  0  0  0  0  0  0
  181.1520  177.0020  137.3540 C   0  0  1  0  0  3  0  0  0  0  0  0
  181.3030  177.4220  138.8300 C   0  0  1  0  0  3  0  0  0  0  0  0
  180.0130  177.7180  136.6510 C   0  0  0  0  0  1  0  0  0  0  0  0
  186.0920  176.2150  137.0550 C   0  0  0  0  0  2  0  0  0  0  0  0
  186.5170  177.6740  137.2370 C   0  0  1  0  0  3  0  0  0  0  0  0
  185.3580  178.6240  137.5630 C   0  0  0  0  0  2  0  0  0  0  0  0
  183.5410  176.3190  137.2420 C   0  0  2  0  0  3  0  0  0  0  0  0
  184.5280  178.2030  138.7770 C   0  0  0  0  0  2  0  0  0  0  0  0
  183.8300  176.8290  138.6720 C   0  0  1  0  0  3  0  0  0  0  0  0
  187.6380  177.7770  138.2610 C   0  0  0  0  0  2  0  0  0  0  0  0
  189.1160  179.1180  139.0630 O   0  0  0  0  0  1  0  0  0  0  0  0
  188.4800  178.8470  137.9430 O   0  0  0  0  0  0  0  0  0  0  0  0
  182.8040  179.0500  142.6390 C   0  0  0  0  0  2  0  0  0  0  0  0
  185.5530  178.0450  145.0640 C   0  0  0  0  0  3  0  0  0  0  0  0
  185.2260  178.4890  142.3220 C   0  0  0  0  0  3  0  0  0  0  0  0
  188.9680  177.0160  143.7420 C   0  0  1  0  0  3  0  0  0  0  0  0
  187.9760  177.5240  144.7950 C   0  0  0  0  0  2  0  0  0  0  0  0
  186.6390  177.8700  144.2030 C   0  0  0  0  0  0  0  0  0  0  0  0
  187.5970  177.8770  141.8460 C   0  0  0  0  0  2  0  0  0  0  0  0
  186.4790  178.1170  142.8200 C   0  0  0  0  0  0  0  0  0  0  0  0
  188.9670  177.9260  142.5170 C   0  0  0  0  0  2  0  0  0  0  0  0
  184.1410  178.6510  143.1870 C   0  0  0  0  0  0  0  0  0  0  0  0
  184.3070  178.4270  144.5590 C   0  0  0  0  0  3  0  0  0  0  0  0
  190.3730  176.8670  144.3200 C   0  0  0  0  0  2  0  0  0  0  0  0
  190.4570  177.3070  145.7740 C   0  0  0  0  0  2  0  0  0  0  0  0
  191.7350  176.9020  146.3300 N   0  0  0  0  0  1  0  0  0  0  0  0
  1  5  1  1  0  0  0
  2 12  1  0  0  0  0
  2 15  1  0  0  0  0
  3 15  1  0  0  0  0
  3  9  1  0  0  0  0
  4 21  1  1  0  0  0
  5  4  1  0  0  0  0
  6  7  1  6  0  0  0
  6  8  1  0  0  0  0
  8  4  1  0  0  0  0
  9 11  1  6  0  0  0
  9 10  1  0  0  0  0
 10  6  1  0  0  0  0
 10  1  1  0  0  0  0
 12 13  1  0  0  0  0
 13 14  1  0  0  0  0
 13 18  1  0  0  0  0
 14 16  1  0  0  0  0
 15 17  1  0  0  0  0
 17 16  1  0  0  0  0
 17  1  1  0  0  0  0
 20 18  1  0  0  0  0
 20 19  1  0  0  0  0
 21 30  1  0  0  0  0
 23 28  2  0  0  0  0
 23 30  1  0  0  0  0
 24 32  1  0  0  0  0
 24 25  1  0  0  0  0
 26 25  1  0  0  0  0
 26 22  2  0  0  0  0
 27 29  1  0  0  0  0
 27 28  1  0  0  0  0
 28 26  1  0  0  0  0
 29 24  1  0  0  0  0
 30 31  2  0  0  0  0
 31 22  1  0  0  0  0
 32 33  1  0  0  0  0
 33 34  1  0  0  0  0
M  END
>  <MODEL>
2

>  <REMARK>
 VINA RESULT:      -8.3      0.723      1.657
  Name = 
  6 active torsions:
  status: ('A' for Active; 'I' for Inactive)
    1  A    between atoms: C_3  and  O_24
    2  A    between atoms: C_3  and  C_25
    3  A    between atoms: C_7  and  C_11
    4  A    between atoms: C_8  and  C_18
    5  A    between atoms: C_11  and  C_15
    6  A    between atoms: C_18  and  C_30
                            x       y       z     vdW  Elec       q    Type
                         _______ _______ _______ _____ _____    ______ ____

>  <TORSDO>
F 6

$$$$
=
 OpenBabel10262423343D

 34 38  0  0  1  0  0  0  0  0999 V2000
  189.3160  177.8560  137.0510 C   0  0  1  0  0  3  0  0  0  0  0  0
  186.3670  176.8340  134.6560 C   0  0  0  0  0  2  0  0  0  0  0  0
  188.7450  175.9750  134.8360 C   0  0  0  0  0  2  0  0  0  0  0  0
  189.8010  177.1310  139.4320 C   0  0  1  0  0  3  0  0  0  0  0  0
  189.5380  178.3110  138.4950 C   0  0  0  0  0  2  0  0  0  0  0  0
  190.7290  175.7390  137.5400 C   0  0  2  0  0  3  0  0  0  0  0  0
  189.7240  174.7690  137.5610 O   0  0  0  0  0  1  0  0  0  0  0  0
  190.9770  176.2820  138.9460 C   0  0  0  0  0  2  0  0  0  0  0  0
  190.1750  176.4460  135.0910 C   0  0  1  0  0  3  0  0  0  0  0  0
  190.4080  176.8790  136.5530 C   0  0  1  0  0  3  0  0  0  0  0  0
  191.1770  175.4100  134.6170 C   0  0  0  0  0  1  0  0  0  0  0  0
  185.2510  177.2030  135.6340 C   0  0  0  0  0  2  0  0  0  0  0  0
  185.0090  176.0860  136.6520 C   0  0  1  0  0  3  0  0  0  0  0  0
  186.2910  175.3950  137.1340 C   0  0  0  0  0  2  0  0  0  0  0  0
  187.7750  177.0860  135.2220 C   0  0  2  0  0  3  0  0  0  0  0  0
  187.3400  176.3520  137.7030 C   0  0  0  0  0  2  0  0  0  0  0  0
  187.8720  177.4260  136.7260 C   0  0  1  0  0  3  0  0  0  0  0  0
  184.1700  176.5970  137.8130 C   0  0  0  0  0  2  0  0  0  0  0  0
  182.4310  177.8620  137.7940 O   0  0  0  0  0  1  0  0  0  0  0  0
  183.7230  177.8940  137.5450 O   0  0  0  0  0  0  0  0  0  0  0  0
  189.9810  177.5920  140.8790 C   0  0  0  0  0  2  0  0  0  0  0  0
  187.4020  177.6550  143.6720 C   0  0  0  0  0  3  0  0  0  0  0  0
  187.5600  178.2410  140.9420 C   0  0  0  0  0  3  0  0  0  0  0  0
  183.9470  179.1110  143.0330 C   0  0  1  0  0  3  0  0  0  0  0  0
  184.9830  178.2500  143.7640 C   0  0  0  0  0  2  0  0  0  0  0  0
  186.2750  178.1380  143.0040 C   0  0  0  0  0  0  0  0  0  0  0  0
  185.1840  178.9950  140.8710 C   0  0  0  0  0  2  0  0  0  0  0  0
  186.3490  178.4120  141.6190 C   0  0  0  0  0  0  0  0  0  0  0  0
  183.8540  178.7110  141.5630 C   0  0  0  0  0  2  0  0  0  0  0  0
  188.6880  177.7690  141.6180 C   0  0  0  0  0  0  0  0  0  0  0  0
  188.6060  177.4780  142.9850 C   0  0  0  0  0  3  0  0  0  0  0  0
  182.5810  179.0450  143.7120 C   0  0  0  0  0  2  0  0  0  0  0  0
  181.4340  179.0060  142.7130 C   0  0  0  0  0  2  0  0  0  0  0  0
  180.4730  180.0450  143.0390 N   0  0  0  0  0  1  0  0  0  0  0  0
  1  5  1  1  0  0  0
  2 15  1  0  0  0  0
  2 12  1  0  0  0  0
  3  9  1  0  0  0  0
  3 15  1  0  0  0  0
  4 21  1  1  0  0  0
  5  4  1  0  0  0  0
  6  7  1  1  0  0  0
  6  8  1  0  0  0  0
  8  4  1  0  0  0  0
  9 11  1  1  0  0  0
  9 10  1  0  0  0  0
 10  1  1  0  0  0  0
 10  6  1  0  0  0  0
 12 13  1  0  0  0  0
 13 14  1  0  0  0  0
 13 18  1  0  0  0  0
 14 16  1  0  0  0  0
 15 17  1  0  0  0  0
 17  1  1  0  0  0  0
 17 16  1  0  0  0  0
 20 19  1  0  0  0  0
 20 18  1  0  0  0  0
 21 30  1  0  0  0  0
 23 30  2  0  0  0  0
 23 28  1  0  0  0  0
 24 32  1  0  0  0  0
 24 25  1  0  0  0  0
 26 22  1  0  0  0  0
 26 25  1  0  0  0  0
 27 29  1  0  0  0  0
 27 28  1  0  0  0  0
 28 26  2  0  0  0  0
 29 24  1  0  0  0  0
 30 31  1  0  0  0  0
 31 22  2  0  0  0  0
 33 34  1  0  0  0  0
 33 32  1  0  0  0  0
M  END
>  <MODEL>
3

>  <REMARK>
 VINA RESULT:      -7.9      3.197      6.600
  Name = 
  6 active torsions:
  status: ('A' for Active; 'I' for Inactive)
    1  A    between atoms: C_3  and  O_24
    2  A    between atoms: C_3  and  C_25
    3  A    between atoms: C_7  and  C_11
    4  A    between atoms: C_8  and  C_18
    5  A    between atoms: C_11  and  C_15
    6  A    between atoms: C_18  and  C_30
                            x       y       z     vdW  Elec       q    Type
                         _______ _______ _______ _____ _____    ______ ____

>  <TORSDO>
F 6

$$$$
=
 OpenBabel10262423343D

 34 38  0  0  1  0  0  0  0  0999 V2000
  179.8720  178.2480  138.8630 C   0  0  1  0  0  3  0  0  0  0  0  0
  181.4320  176.7770  135.5640 C   0  0  0  0  0  2  0  0  0  0  0  0
  180.4620  179.0620  136.0780 C   0  0  0  0  0  2  0  0  0  0  0  0
  181.0130  179.2400  140.8980 C   0  0  1  0  0  3  0  0  0  0  0  0
  180.0610  178.1620  140.3790 C   0  0  0  0  0  2  0  0  0  0  0  0
  180.4470  180.7720  138.9720 C   0  0  2  0  0  3  0  0  0  0  0  0
  181.7190  180.7620  138.3950 O   0  0  0  0  0  1  0  0  0  0  0  0
  180.5490  180.6400  140.4900 C   0  0  0  0  0  2  0  0  0  0  0  0
  179.3340  179.7410  136.8510 C   0  0  1  0  0  3  0  0  0  0  0  0
  179.5360  179.6780  138.3790 C   0  0  1  0  0  3  0  0  0  0  0  0
  179.1040  181.1530  136.3440 C   0  0  0  0  0  1  0  0  0  0  0  0
  182.3620  175.7900  136.2710 C   0  0  0  0  0  2  0  0  0  0  0  0
  183.6440  176.4760  136.7490 C   0  0  1  0  0  3  0  0  0  0  0  0
  183.4260  177.8920  137.2970 C   0  0  0  0  0  2  0  0  0  0  0  0
  180.5860  177.6140  136.5390 C   0  0  2  0  0  3  0  0  0  0  0  0
  182.3850  177.9760  138.4140 C   0  0  0  0  0  2  0  0  0  0  0  0
  180.9550  177.5260  138.0370 C   0  0  1  0  0  3  0  0  0  0  0  0
  184.3810  175.5920  137.7430 C   0  0  0  0  0  2  0  0  0  0  0  0
  184.6080  173.4540  137.7960 O   0  0  0  0  0  1  0  0  0  0  0  0
  183.6900  174.3890  137.9180 O   0  0  0  0  0  0  0  0  0  0  0  0
  181.2280  179.1210  142.4080 C   0  0  0  0  0  2  0  0  0  0  0  0
  184.9010  178.1720  142.1650 C   0  0  0  0  0  3  0  0  0  0  0  0
  183.0240  178.8240  144.1320 C   0  0  0  0  0  3  0  0  0  0  0  0
  187.0930  178.2520  145.2720 C   0  0  1  0  0  3  0  0  0  0  0  0
  186.7020  177.8250  143.8540 C   0  0  0  0  0  2  0  0  0  0  0  0
  185.2930  178.2130  143.5050 C   0  0  0  0  0  0  0  0  0  0  0  0
  184.7240  178.6430  145.9470 C   0  0  0  0  0  2  0  0  0  0  0  0
  184.3380  178.5200  144.5010 C   0  0  0  0  0  0  0  0  0  0  0  0
  186.0020  177.8730  146.2700 C   0  0  0  0  0  2  0  0  0  0  0  0
  182.6410  178.7920  142.7890 C   0  0  0  0  0  0  0  0  0  0  0  0
  183.5830  178.4670  141.8060 C   0  0  0  0  0  3  0  0  0  0  0  0
  188.4440  177.6720  145.6820 C   0  0  0  0  0  2  0  0  0  0  0  0
  188.5370  177.4110  147.1790 C   0  0  0  0  0  2  0  0  0  0  0  0
  189.8550  176.8920  147.4980 N   0  0  0  0  0  1  0  0  0  0  0  0
  1  5  1  1  0  0  0
  2 12  1  0  0  0  0
  2 15  1  0  0  0  0
  3 15  1  0  0  0  0
  3  9  1  0  0  0  0
  4 21  1  1  0  0  0
  5  4  1  0  0  0  0
  6  7  1  6  0  0  0
  6  8  1  0  0  0  0
  8  4  1  0  0  0  0
  9 11  1  6  0  0  0
  9 10  1  0  0  0  0
 10  1  1  0  0  0  0
 10  6  1  0  0  0  0
 12 13  1  0  0  0  0
 13 14  1  0  0  0  0
 13 18  1  0  0  0  0
 14 16  1  0  0  0  0
 15 17  1  0  0  0  0
 17 16  1  0  0  0  0
 17  1  1  0  0  0  0
 18 20  1  0  0  0  0
 19 20  1  0  0  0  0
 21 30  1  0  0  0  0
 22 26  1  0  0  0  0
 23 28  1  0  0  0  0
 24 32  1  0  0  0  0
 24 29  1  0  0  0  0
 25 24  1  0  0  0  0
 26 25  1  0  0  0  0
 26 28  2  0  0  0  0
 27 29  1  0  0  0  0
 28 27  1  0  0  0  0
 30 23  2  0  0  0  0
 31 22  2  0  0  0  0
 31 30  1  0  0  0  0
 32 33  1  0  0  0  0
 33 34  1  0  0  0  0
M  END
>  <MODEL>
4

>  <REMARK>
 VINA RESULT:      -7.8      2.278      2.960
  Name = 
  6 active torsions:
  status: ('A' for Active; 'I' for Inactive)
    1  A    between atoms: C_3  and  O_24
    2  A    between atoms: C_3  and  C_25
    3  A    between atoms: C_7  and  C_11
    4  A    between atoms: C_8  and  C_18
    5  A    between atoms: C_11  and  C_15
    6  A    between atoms: C_18  and  C_30
                            x       y       z     vdW  Elec       q    Type
                         _______ _______ _______ _____ _____    ______ ____

>  <TORSDO>
F 6

$$$$
=
 OpenBabel10262423343D

 34 38  0  0  1  0  0  0  0  0999 V2000
  185.7280  177.2720  135.6730 C   0  0  1  0  0  3  0  0  0  0  0  0
  181.8510  177.2090  136.3360 C   0  0  0  0  0  2  0  0  0  0  0  0
  183.4650  175.3630  135.6920 C   0  0  0  0  0  2  0  0  0  0  0  0
  187.6590  177.1920  137.3140 C   0  0  1  0  0  3  0  0  0  0  0  0
  186.9850  177.9770  136.1880 C   0  0  0  0  0  2  0  0  0  0  0  0
  186.7190  175.0100  136.4590 C   0  0  2  0  0  3  0  0  0  0  0  0
  185.9050  174.7540  137.5650 O   0  0  0  0  0  1  0  0  0  0  0  0
  187.9800  175.7590  136.8850 C   0  0  0  0  0  2  0  0  0  0  0  0
  184.6900  175.0900  134.8220 C   0  0  1  0  0  3  0  0  0  0  0  0
  185.9640  175.7770  135.3540 C   0  0  1  0  0  3  0  0  0  0  0  0
  184.8730  173.5990  134.6000 C   0  0  0  0  0  1  0  0  0  0  0  0
  181.8520  178.3810  137.3180 C   0  0  0  0  0  2  0  0  0  0  0  0
  182.2510  177.9300  138.7250 C   0  0  1  0  0  3  0  0  0  0  0  0
  183.3630  176.8740  138.7490 C   0  0  0  0  0  2  0  0  0  0  0  0
  183.2510  176.8690  135.7990 C   0  0  2  0  0  3  0  0  0  0  0  0
  184.6280  177.2830  137.9930 C   0  0  0  0  0  2  0  0  0  0  0  0
  184.4500  177.5640  136.4830 C   0  0  1  0  0  3  0  0  0  0  0  0
  182.5930  179.1320  139.5920 C   0  0  0  0  0  2  0  0  0  0  0  0
  184.1760  180.5000  139.0910 O   0  0  0  0  0  1  0  0  0  0  0  0
  182.9260  180.2240  138.7850 O   0  0  0  0  0  0  0  0  0  0  0  0
  188.8910  177.9240  137.8500 C   0  0  0  0  0  2  0  0  0  0  0  0
  190.5480  177.2610  141.2070 C   0  0  0  0  0  3  0  0  0  0  0  0
  188.0290  177.9460  140.2040 C   0  0  0  0  0  3  0  0  0  0  0  0
  188.6050  177.8250  144.4270 C   0  0  1  0  0  3  0  0  0  0  0  0
  189.7170  177.2300  143.5570 C   0  0  0  0  0  2  0  0  0  0  0  0
  189.4860  177.4650  142.0910 C   0  0  0  0  0  0  0  0  0  0  0  0
  187.0520  178.0850  142.4940 C   0  0  0  0  0  2  0  0  0  0  0  0
  188.2070  177.7890  141.5820 C   0  0  0  0  0  0  0  0  0  0  0  0
  187.2310  177.4580  143.8740 C   0  0  0  0  0  2  0  0  0  0  0  0
  189.0970  177.7520  139.3260 C   0  0  0  0  0  0  0  0  0  0  0  0
  190.3570  177.4100  139.8300 C   0  0  0  0  0  3  0  0  0  0  0  0
  188.7460  177.4010  145.8870 C   0  0  0  0  0  2  0  0  0  0  0  0
  187.5170  177.7470  146.7160 C   0  0  0  0  0  2  0  0  0  0  0  0
  187.9260  178.0860  148.0680 N   0  0  0  0  0  1  0  0  0  0  0  0
  1  5  1  1  0  0  0
  1 17  1  0  0  0  0
  2 12  1  0  0  0  0
  3 15  1  0  0  0  0
  4 21  1  6  0  0  0
  5  4  1  0  0  0  0
  6  8  1  0  0  0  0
  6  7  1  1  0  0  0
  8  4  1  0  0  0  0
  9 11  1  1  0  0  0
  9 10  1  0  0  0  0
  9  3  1  0  0  0  0
 10  1  1  0  0  0  0
 10  6  1  0  0  0  0
 12 13  1  0  0  0  0
 13 14  1  0  0  0  0
 13 18  1  0  0  0  0
 15  2  1  0  0  0  0
 15 17  1  0  0  0  0
 16 14  1  0  0  0  0
 17 16  1  0  0  0  0
 20 19  1  0  0  0  0
 20 18  1  0  0  0  0
 21 30  1  0  0  0  0
 22 26  1  0  0  0  0
 23 28  1  0  0  0  0
 24 32  1  0  0  0  0
 25 24  1  0  0  0  0
 26 25  1  0  0  0  0
 27 29  1  0  0  0  0
 28 26  2  0  0  0  0
 28 27  1  0  0  0  0
 29 24  1  0  0  0  0
 30 31  1  0  0  0  0
 30 23  2  0  0  0  0
 31 22  2  0  0  0  0
 32 33  1  0  0  0  0
 33 34  1  0  0  0  0
M  END
>  <MODEL>
5

>  <REMARK>
 VINA RESULT:      -7.8      2.040      4.886
  Name = 
  6 active torsions:
  status: ('A' for Active; 'I' for Inactive)
    1  A    between atoms: C_3  and  O_24
    2  A    between atoms: C_3  and  C_25
    3  A    between atoms: C_7  and  C_11
    4  A    between atoms: C_8  and  C_18
    5  A    between atoms: C_11  and  C_15
    6  A    between atoms: C_18  and  C_30
                            x       y       z     vdW  Elec       q    Type
                         _______ _______ _______ _____ _____    ______ ____

>  <TORSDO>
F 6

$$$$
=
 OpenBabel10262423343D

 34 38  0  0  1  0  0  0  0  0999 V2000
  190.7300  174.7380  137.6640 C   0  0  1  0  0  3  0  0  0  0  0  0
  193.4940  173.1810  135.3380 C   0  0  0  0  0  2  0  0  0  0  0  0
  190.9650  173.1740  135.1610 C   0  0  0  0  0  2  0  0  0  0  0  0
  189.8430  177.1110  137.7700 C   0  0  1  0  0  3  0  0  0  0  0  0
  190.5070  175.9710  138.5430 C   0  0  0  0  0  2  0  0  0  0  0  0
  188.7490  175.4910  136.1720 C   0  0  2  0  0  3  0  0  0  0  0  0
  189.4410  175.9120  135.0340 O   0  0  0  0  0  1  0  0  0  0  0  0
  188.5290  176.6610  137.1270 C   0  0  0  0  0  2  0  0  0  0  0  0
  189.7030  173.0680  136.0130 C   0  0  1  0  0  3  0  0  0  0  0  0
  189.4630  174.3220  136.8800 C   0  0  1  0  0  3  0  0  0  0  0  0
  188.5030  172.7030  135.1590 C   0  0  0  0  0  1  0  0  0  0  0  0
  194.5720  174.2090  135.6850 C   0  0  0  0  0  2  0  0  0  0  0  0
  194.4000  175.4940  134.8720 C   0  0  1  0  0  3  0  0  0  0  0  0
  192.9380  175.9140  134.6720 C   0  0  0  0  0  2  0  0  0  0  0  0
  192.1630  173.4310  136.0680 C   0  0  2  0  0  3  0  0  0  0  0  0
  192.1450  176.0520  135.9720 C   0  0  0  0  0  2  0  0  0  0  0  0
  192.0230  174.7700  136.8270 C   0  0  1  0  0  3  0  0  0  0  0  0
  195.2350  176.6170  135.4690 C   0  0  0  0  0  2  0  0  0  0  0  0
  195.8030  178.6870  135.3390 O   0  0  0  0  0  1  0  0  0  0  0  0
  195.0490  177.7930  134.7360 O   0  0  0  0  0  0  0  0  0  0  0  0
  189.6620  178.3530  138.6450 C   0  0  0  0  0  2  0  0  0  0  0  0
  189.6320  177.1080  142.2360 C   0  0  0  0  0  3  0  0  0  0  0  0
  187.9290  178.4290  140.4540 C   0  0  0  0  0  3  0  0  0  0  0  0
  186.6810  177.9080  144.4980 C   0  0  1  0  0  3  0  0  0  0  0  0
  187.9180  177.1240  144.0460 C   0  0  0  0  0  2  0  0  0  0  0  0
  188.3600  177.5000  142.6600 C   0  0  0  0  0  0  0  0  0  0  0  0
  186.1410  178.6480  142.1790 C   0  0  0  0  0  2  0  0  0  0  0  0
  187.4910  178.1470  141.7520 C   0  0  0  0  0  0  0  0  0  0  0  0
  185.6140  177.9100  143.4070 C   0  0  0  0  0  2  0  0  0  0  0  0
  189.2060  178.0440  140.0390 C   0  0  0  0  0  0  0  0  0  0  0  0
  190.0570  177.3840  140.9340 C   0  0  0  0  0  3  0  0  0  0  0  0
  186.1250  177.3710  145.8150 C   0  0  0  0  0  2  0  0  0  0  0  0
  185.0620  178.2810  146.4140 C   0  0  0  0  0  2  0  0  0  0  0  0
  185.6880  179.4890  146.9200 N   0  0  0  0  0  1  0  0  0  0  0  0
  1  5  1  6  0  0  0
  2 12  1  0  0  0  0
  2 15  1  0  0  0  0
  3  9  1  0  0  0  0
  3 15  1  0  0  0  0
  4  5  1  0  0  0  0
  4 21  1  1  0  0  0
  6  7  1  6  0  0  0
  6 10  1  0  0  0  0
  6  8  1  0  0  0  0
  8  4  1  0  0  0  0
  9 11  1  6  0  0  0
  9 10  1  0  0  0  0
 10  1  1  0  0  0  0
 13 18  1  0  0  0  0
 13 12  1  0  0  0  0
 14 13  1  0  0  0  0
 14 16  1  0  0  0  0
 15 17  1  0  0  0  0
 16 17  1  0  0  0  0
 17  1  1  0  0  0  0
 20 19  1  0  0  0  0
 20 18  1  0  0  0  0
 21 30  1  0  0  0  0
 22 26  1  0  0  0  0
 23 28  1  0  0  0  0
 24 32  1  0  0  0  0
 25 24  1  0  0  0  0
 26 25  1  0  0  0  0
 27 29  1  0  0  0  0
 28 27  1  0  0  0  0
 28 26  2  0  0  0  0
 29 24  1  0  0  0  0
 30 23  2  0  0  0  0
 30 31  1  0  0  0  0
 31 22  2  0  0  0  0
 32 33  1  0  0  0  0
 33 34  1  0  0  0  0
M  END
>  <MODEL>
6

>  <REMARK>
 VINA RESULT:      -7.7      4.612      7.214
  Name = 
  6 active torsions:
  status: ('A' for Active; 'I' for Inactive)
    1  A    between atoms: C_3  and  O_24
    2  A    between atoms: C_3  and  C_25
    3  A    between atoms: C_7  and  C_11
    4  A    between atoms: C_8  and  C_18
    5  A    between atoms: C_11  and  C_15
    6  A    between atoms: C_18  and  C_30
                            x       y       z     vdW  Elec       q    Type
                         _______ _______ _______ _____ _____    ______ ____

>  <TORSDO>
F 6

$$$$
=
 OpenBabel10262423343D

 34 38  0  0  1  0  0  0  0  0999 V2000
  182.5490  179.6090  138.7280 C   0  0  1  0  0  3  0  0  0  0  0  0
  179.1730  179.7310  140.7450 C   0  0  0  0  0  2  0  0  0  0  0  0
  179.9120  178.2640  138.8140 C   0  0  0  0  0  2  0  0  0  0  0  0
  184.7390  178.4630  139.2930 C   0  0  1  0  0  3  0  0  0  0  0  0
  184.0510  179.7870  138.9600 C   0  0  0  0  0  2  0  0  0  0  0  0
  182.9860  177.1500  138.0350 C   0  0  2  0  0  3  0  0  0  0  0  0
  182.4710  176.4830  139.1480 O   0  0  0  0  0  1  0  0  0  0  0  0
  184.4800  177.4110  138.2120 C   0  0  0  0  0  2  0  0  0  0  0  0
  180.7070  178.3060  137.5110 C   0  0  1  0  0  3  0  0  0  0  0  0
  182.2240  178.4590  137.7450 C   0  0  1  0  0  3  0  0  0  0  0  0
  180.3630  177.1200  136.6300 C   0  0  0  0  0  1  0  0  0  0  0  0
  179.7990  180.2410  142.0450 C   0  0  0  0  0  2  0  0  0  0  0  0
  180.4140  179.0960  142.8540 C   0  0  1  0  0  3  0  0  0  0  0  0
  181.1170  178.0350  141.9970 C   0  0  0  0  0  2  0  0  0  0  0  0
  180.2010  179.5260  139.6190 C   0  0  2  0  0  3  0  0  0  0  0  0
  182.1870  178.5980  141.0600 C   0  0  0  0  0  2  0  0  0  0  0  0
  181.6930  179.6190  140.0100 C   0  0  1  0  0  3  0  0  0  0  0  0
  181.3280  179.6440  143.9390 C   0  0  0  0  0  2  0  0  0  0  0  0
  183.0820  179.2910  145.1340 O   0  0  0  0  0  1  0  0  0  0  0  0
  182.2500  178.6670  144.3260 O   0  0  0  0  0  0  0  0  0  0  0  0
  186.2320  178.6570  139.5640 C   0  0  0  0  0  2  0  0  0  0  0  0
  186.0170  178.2820  143.3400 C   0  0  0  0  0  3  0  0  0  0  0  0
  187.9410  178.1250  141.3180 C   0  0  0  0  0  3  0  0  0  0  0  0
  189.0540  177.1150  145.3090 C   0  0  1  0  0  3  0  0  0  0  0  0
  187.6970  177.7990  145.1180 C   0  0  0  0  0  2  0  0  0  0  0  0
  187.3370  177.9660  143.6680 C   0  0  0  0  0  0  0  0  0  0  0  0
  189.7320  177.5080  142.9410 C   0  0  0  0  0  2  0  0  0  0  0  0
  188.3140  177.9090  142.6480 C   0  0  0  0  0  0  0  0  0  0  0  0
  190.1080  177.7440  144.4010 C   0  0  0  0  0  2  0  0  0  0  0  0
  186.6170  178.4290  140.9950 C   0  0  0  0  0  0  0  0  0  0  0  0
  185.6550  178.5060  142.0090 C   0  0  0  0  0  3  0  0  0  0  0  0
  189.4960  177.1400  146.7700 C   0  0  0  0  0  2  0  0  0  0  0  0
  188.3240  177.0470  147.7360 C   0  0  0  0  0  2  0  0  0  0  0  0
  188.5390  177.9570  148.8460 N   0  0  0  0  0  1  0  0  0  0  0  0
  1  5  1  1  0  0  0
  1 17  1  0  0  0  0
  2 12  1  0  0  0  0
  3 15  1  0  0  0  0
  4 21  1  6  0  0  0
  5  4  1  0  0  0  0
  6  8  1  0  0  0  0
  6  7  1  1  0  0  0
  8  4  1  0  0  0  0
  9 11  1  1  0  0  0
  9 10  1  0  0  0  0
  9  3  1  0  0  0  0
 10  6  1  0  0  0  0
 10  1  1  0  0  0  0
 12 13  1  0  0  0  0
 13 18  1  0  0  0  0
 14 13  1  0  0  0  0
 15 17  1  0  0  0  0
 15  2  1  0  0  0  0
 16 14  1  0  0  0  0
 17 16  1  0  0  0  0
 18 20  1  0  0  0  0
 20 19  1  0  0  0  0
 21 30  1  0  0  0  0
 22 26  1  0  0  0  0
 23 28  1  0  0  0  0
 24 32  1  0  0  0  0
 25 24  1  0  0  0  0
 26 25  1  0  0  0  0
 27 29  1  0  0  0  0
 28 27  1  0  0  0  0
 28 26  2  0  0  0  0
 29 24  1  0  0  0  0
 30 23  2  0  0  0  0
 30 31  1  0  0  0  0
 31 22  2  0  0  0  0
 32 33  1  0  0  0  0
 33 34  1  0  0  0  0
M  END
>  <MODEL>
7

>  <REMARK>
 VINA RESULT:      -7.6      2.384      4.784
  Name = 
  6 active torsions:
  status: ('A' for Active; 'I' for Inactive)
    1  A    between atoms: C_3  and  O_24
    2  A    between atoms: C_3  and  C_25
    3  A    between atoms: C_7  and  C_11
    4  A    between atoms: C_8  and  C_18
    5  A    between atoms: C_11  and  C_15
    6  A    between atoms: C_18  and  C_30
                            x       y       z     vdW  Elec       q    Type
                         _______ _______ _______ _____ _____    ______ ____

>  <TORSDO>
F 6

$$$$
=
 OpenBabel10262423343D

 34 38  0  0  1  0  0  0  0  0999 V2000
  188.1590  176.3650  142.9160 C   0  0  1  0  0  3  0  0  0  0  0  0
  191.9020  175.5480  143.8100 C   0  0  0  0  0  2  0  0  0  0  0  0
  190.8890  176.8220  141.8660 C   0  0  0  0  0  2  0  0  0  0  0  0
  186.6480  178.2110  143.7770 C   0  0  1  0  0  3  0  0  0  0  0  0
  186.8410  176.7020  143.6180 C   0  0  0  0  0  2  0  0  0  0  0  0
  188.0920  178.6840  141.7600 C   0  0  2  0  0  3  0  0  0  0  0  0
  189.1110  179.3370  142.4560 O   0  0  0  0  0  1  0  0  0  0  0  0
  186.7430  178.9320  142.4310 C   0  0  0  0  0  2  0  0  0  0  0  0
  189.6960  176.8090  140.9140 C   0  0  1  0  0  3  0  0  0  0  0  0
  188.3710  177.1740  141.6150 C   0  0  1  0  0  3  0  0  0  0  0  0
  189.9710  177.6630  139.6900 C   0  0  0  0  0  1  0  0  0  0  0  0
  191.6800  175.4850  145.3220 C   0  0  0  0  0  2  0  0  0  0  0  0
  191.6800  176.8830  145.9450 C   0  0  1  0  0  3  0  0  0  0  0  0
  190.9880  177.9490  145.0850 C   0  0  0  0  0  2  0  0  0  0  0  0
  190.6190  175.8670  143.0230 C   0  0  2  0  0  3  0  0  0  0  0  0
  189.5540  177.5940  144.6860 C   0  0  0  0  0  2  0  0  0  0  0  0
  189.3870  176.3080  143.8450 C   0  0  1  0  0  3  0  0  0  0  0  0
  191.1120  176.8370  147.3540 C   0  0  0  0  0  2  0  0  0  0  0  0
  192.8080  176.0100  148.3870 O   0  0  0  0  0  1  0  0  0  0  0  0
  192.1150  177.1250  148.2850 O   0  0  0  0  0  0  0  0  0  0  0  0
  185.3490  178.5360  144.5160 C   0  0  0  0  0  2  0  0  0  0  0  0
  181.7890  179.0480  143.2840 C   0  0  0  0  0  3  0  0  0  0  0  0
  184.2600  178.2060  142.2820 C   0  0  0  0  0  3  0  0  0  0  0  0
  180.9790  178.6300  139.5920 C   0  0  1  0  0  3  0  0  0  0  0  0
  180.6620  178.6900  141.0900 C   0  0  0  0  0  2  0  0  0  0  0  0
  181.9020  178.6880  141.9390 C   0  0  0  0  0  0  0  0  0  0  0  0
  183.3330  177.9080  139.9860 C   0  0  0  0  0  2  0  0  0  0  0  0
  183.1460  178.2410  141.4390 C   0  0  0  0  0  0  0  0  0  0  0  0
  182.0170  177.5490  139.3020 C   0  0  0  0  0  2  0  0  0  0  0  0
  184.1440  178.5780  143.6240 C   0  0  0  0  0  0  0  0  0  0  0  0
  182.9070  179.0000  144.1220 C   0  0  0  0  0  3  0  0  0  0  0  0
  179.7180  178.4240  138.7570 C   0  0  0  0  0  2  0  0  0  0  0  0
  180.0180  177.8680  137.3730 C   0  0  0  0  0  2  0  0  0  0  0  0
  179.9220  178.9350  136.3920 N   0  0  0  0  0  1  0  0  0  0  0  0
  1  5  1  1  0  0  0
  1 17  1  0  0  0  0
  2 12  1  0  0  0  0
  3 15  1  0  0  0  0
  4 21  1  6  0  0  0
  5  4  1  0  0  0  0
  6  8  1  0  0  0  0
  6  7  1  1  0  0  0
  8  4  1  0  0  0  0
  9 11  1  6  0  0  0
  9 10  1  0  0  0  0
  9  3  1  0  0  0  0
 10  6  1  0  0  0  0
 10  1  1  0  0  0  0
 12 13  1  0  0  0  0
 13 18  1  0  0  0  0
 14 13  1  0  0  0  0
 15  2  1  0  0  0  0
 15 17  1  0  0  0  0
 16 14  1  0  0  0  0
 17 16  1  0  0  0  0
 18 20  1  0  0  0  0
 20 19  1  0  0  0  0
 22 31  1  0  0  0  0
 23 30  1  0  0  0  0
 24 25  1  0  0  0  0
 25 26  1  0  0  0  0
 26 22  2  0  0  0  0
 27 28  1  0  0  0  0
 28 26  1  0  0  0  0
 28 23  2  0  0  0  0
 29 24  1  0  0  0  0
 29 27  1  0  0  0  0
 30 31  2  0  0  0  0
 30 21  1  0  0  0  0
 32 24  1  0  0  0  0
 33 32  1  0  0  0  0
 34 33  1  0  0  0  0
M  END
>  <MODEL>
8

>  <REMARK>
 VINA RESULT:      -7.6      4.144      8.527
  Name = 
  6 active torsions:
  status: ('A' for Active; 'I' for Inactive)
    1  A    between atoms: C_3  and  O_24
    2  A    between atoms: C_3  and  C_25
    3  A    between atoms: C_7  and  C_11
    4  A    between atoms: C_8  and  C_18
    5  A    between atoms: C_11  and  C_15
    6  A    between atoms: C_18  and  C_30
                            x       y       z     vdW  Elec       q    Type
                         _______ _______ _______ _____ _____    ______ ____

>  <TORSDO>
F 6

$$$$
=
 OpenBabel10262423343D

 34 38  0  0  1  0  0  0  0  0999 V2000
  189.9060  178.4230  146.1800 C   0  0  1  0  0  3  0  0  0  0  0  0
  191.9880  177.1400  143.0980 C   0  0  0  0  0  2  0  0  0  0  0  0
  191.9000  176.3410  145.5030 C   0  0  0  0  0  2  0  0  0  0  0  0
  187.5110  177.9230  146.8440 C   0  0  1  0  0  3  0  0  0  0  0  0
  188.5270  179.0090  146.4900 C   0  0  0  0  0  2  0  0  0  0  0  0
  189.3320  176.3830  147.6720 C   0  0  2  0  0  3  0  0  0  0  0  0
  189.1540  175.4020  146.6930 O   0  0  0  0  0  1  0  0  0  0  0  0
  188.0010  177.0540  148.0040 C   0  0  0  0  0  2  0  0  0  0  0  0
  191.7890  176.8570  146.9350 C   0  0  1  0  0  3  0  0  0  0  0  0
  190.3910  177.4240  147.2580 C   0  0  1  0  0  3  0  0  0  0  0  0
  192.2390  175.8000  147.9270 C   0  0  0  0  0  1  0  0  0  0  0  0
  190.9700  177.5770  142.0440 C   0  0  0  0  0  2  0  0  0  0  0  0
  189.8430  176.5510  141.8980 C   0  0  1  0  0  3  0  0  0  0  0  0
  189.3920  175.9280  143.2260 C   0  0  0  0  0  2  0  0  0  0  0  0
  191.5460  177.4650  144.5350 C   0  0  2  0  0  3  0  0  0  0  0  0
  188.9860  176.9500  144.2890 C   0  0  0  0  0  2  0  0  0  0  0  0
  190.0890  177.9410  144.7280 C   0  0  1  0  0  3  0  0  0  0  0  0
  188.6750  177.1510  141.1300 C   0  0  0  0  0  2  0  0  0  0  0  0
  188.2010  178.6310  139.6430 O   0  0  0  0  0  1  0  0  0  0  0  0
  189.1350  177.7580  139.9570 O   0  0  0  0  0  0  0  0  0  0  0  0
  186.1260  178.5150  147.1120 C   0  0  0  0  0  2  0  0  0  0  0  0
  183.0840  178.9350  144.8710 C   0  0  0  0  0  3  0  0  0  0  0  0
  185.8150  178.3880  144.6280 C   0  0  0  0  0  3  0  0  0  0  0  0
  183.4940  178.9170  141.0900 C   0  0  1  0  0  3  0  0  0  0  0  0
  182.7280  178.7730  142.4090 C   0  0  0  0  0  2  0  0  0  0  0  0
  183.6400  178.7500  143.6030 C   0  0  0  0  0  0  0  0  0  0  0  0
  185.6730  178.3100  142.1390 C   0  0  0  0  0  2  0  0  0  0  0  0
  185.0160  178.4510  143.4820 C   0  0  0  0  0  0  0  0  0  0  0  0
  184.6740  177.9510  141.0430 C   0  0  0  0  0  2  0  0  0  0  0  0
  185.2560  178.5850  145.8930 C   0  0  0  0  0  0  0  0  0  0  0  0
  183.8890  178.8600  146.0110 C   0  0  0  0  0  3  0  0  0  0  0  0
  182.5780  178.7310  139.8840 C   0  0  0  0  0  2  0  0  0  0  0  0
  182.7020  179.8640  138.8760 C   0  0  0  0  0  2  0  0  0  0  0  0
  184.0170  180.4700  138.9890 N   0  0  0  0  0  1  0  0  0  0  0  0
  1  5  1  1  0  0  0
  1 10  1  0  0  0  0
  2 15  1  0  0  0  0
  3  9  1  0  0  0  0
  4 21  1  1  0  0  0
  4  8  1  0  0  0  0
  5  4  1  0  0  0  0
  6  7  1  6  0  0  0
  6  8  1  0  0  0  0
  9 10  1  0  0  0  0
  9 11  1  1  0  0  0
 10  6  1  0  0  0  0
 12  2  1  0  0  0  0
 13 12  1  0  0  0  0
 13 14  1  0  0  0  0
 14 16  1  0  0  0  0
 15 17  1  0  0  0  0
 15  3  1  0  0  0  0
 16 17  1  0  0  0  0
 17  1  1  0  0  0  0
 18 13  1  0  0  0  0
 19 20  1  0  0  0  0
 20 18  1  0  0  0  0
 22 31  1  0  0  0  0
 23 30  1  0  0  0  0
 24 25  1  0  0  0  0
 25 26  1  0  0  0  0
 26 22  2  0  0  0  0
 27 28  1  0  0  0  0
 28 26  1  0  0  0  0
 28 23  2  0  0  0  0
 29 24  1  0  0  0  0
 29 27  1  0  0  0  0
 30 31  2  0  0  0  0
 30 21  1  0  0  0  0
 32 24  1  0  0  0  0
 33 34  1  0  0  0  0
 33 32  1  0  0  0  0
M  END
>  <MODEL>
9

>  <REMARK>
 VINA RESULT:      -7.6      3.186      8.538
  Name = 
  6 active torsions:
  status: ('A' for Active; 'I' for Inactive)
    1  A    between atoms: C_3  and  O_24
    2  A    between atoms: C_3  and  C_25
    3  A    between atoms: C_7  and  C_11
    4  A    between atoms: C_8  and  C_18
    5  A    between atoms: C_11  and  C_15
    6  A    between atoms: C_18  and  C_30
                            x       y       z     vdW  Elec       q    Type
                         _______ _______ _______ _____ _____    ______ ____

>  <TORSDO>
F 6

$$$$
