=
 OpenBabel10262420523D

 28 31  0  0  1  0  0  0  0  0999 V2000
  190.6550  176.6780  144.5520 C   0  0  0  0  0  0  0  0  0  0  0  0
  185.9070  177.9290  143.2280 C   0  0  0  0  0  2  0  0  0  0  0  0
  188.6190  177.6890  148.8110 F   0  0  0  0  0  0  0  0  0  0  0  0
  185.0860  178.9350  145.3620 C   0  0  0  0  0  0  0  0  0  0  0  0
  187.3020  177.8920  145.3940 C   0  0  0  0  0  0  0  0  0  0  0  0
  183.7500  179.1550  143.2370 C   0  0  2  0  0  3  0  0  0  0  0  0
  186.0490  178.2580  144.6940 C   0  0  0  0  0  0  0  0  0  0  0  0
  186.1420  178.3780  147.5700 C   0  0  0  0  0  2  0  0  0  0  0  0
  183.7290  179.1930  144.7610 C   0  0  0  0  0  2  0  0  0  0  0  0
  189.6520  177.1940  146.7090 C   0  0  0  0  0  0  0  0  0  0  0  0
  188.3860  177.4620  144.6910 N   0  0  0  0  0  0  0  0  0  0  0  0
  185.3210  179.3960  146.7770 C   0  0  0  0  0  2  0  0  0  0  0  0
  191.9100  176.4250  146.5810 N   0  0  0  0  0  0  0  0  0  0  0  0
  188.5480  177.6240  147.4560 C   0  0  0  0  0  0  0  0  0  0  0  0
  190.8530  176.8370  147.3290 C   0  0  0  0  0  3  0  0  0  0  0  0
  182.4540  179.1690  142.7590 F   0  0  0  0  0  0  0  0  0  0  0  0
  184.4520  177.8890  142.7750 C   0  0  0  0  0  2  0  0  0  0  0  0
  187.3690  177.9830  146.7970 C   0  0  0  0  0  0  0  0  0  0  0  0
  191.8380  176.3420  145.2260 C   0  0  0  0  0  3  0  0  0  0  0  0
  189.5520  177.1150  145.3040 C   0  0  0  0  0  0  0  0  0  0  0  0
  190.5860  176.6130  143.0500 C   0  0  2  0  0  3  0  0  0  0  0  0
  190.7750  175.3100  142.5820 O   0  0  0  0  0  1  0  0  0  0  0  0
  191.5480  177.5930  142.3720 C   0  0  0  0  0  2  0  0  0  0  0  0
  190.2920  177.5860  140.1460 N   0  0  0  0  0  0  0  0  0  0  0  0
  192.6120  177.3210  140.2600 O   0  0  0  0  0  0  0  0  0  0  0  0
  191.5250  177.4960  140.8760 C   0  0  0  0  0  0  0  0  0  0  0  0
  189.0370  177.8770  140.8190 C   0  0  0  0  0  1  0  0  0  0  0  0
  190.2740  177.4180  138.7030 C   0  0  0  0  0  1  0  0  0  0  0  0
  1 19  2  0  0  0  0
  1 20  1  0  0  0  0
  2  7  1  0  0  0  0
  4 12  1  0  0  0  0
  5 18  1  0  0  0  0
  6 16  1  1  0  0  0
  6  9  1  0  0  0  0
  7  4  2  0  0  0  0
  7  5  1  0  0  0  0
  9  4  1  0  0  0  0
 10 15  1  0  0  0  0
 10 14  1  0  0  0  0
 11 20  1  0  0  0  0
 11  5  2  0  0  0  0
 12  8  1  0  0  0  0
 13 15  2  0  0  0  0
 14  3  1  0  0  0  0
 17  2  1  0  0  0  0
 17  6  1  0  0  0  0
 18 14  2  0  0  0  0
 18  8  1  0  0  0  0
 19 13  1  0  0  0  0
 20 10  2  0  0  0  0
 21 22  1  6  0  0  0
 21  1  1  0  0  0  0
 23 21  1  0  0  0  0
 24 27  1  0  0  0  0
 24 26  1  0  0  0  0
 25 26  2  0  0  0  0
 26 23  1  0  0  0  0
 28 24  1  0  0  0  0
M  END
>  <MODEL>
1

>  <REMARK>
 VINA RESULT:     -10.6      0.000      0.000
  Name = 
  3 active torsions:
  status: ('A' for Active; 'I' for Inactive)
    1  A    between atoms: C_1  and  C_2
    2  A    between atoms: C_2  and  C_3
    3  A    between atoms: C_3  and  C_11
                            x       y       z     vdW  Elec       q    Type
                         _______ _______ _______ _____ _____    ______ ____

>  <TORSDO>
F 3

$$$$
=
 OpenBabel10262420523D

 28 31  0  0  1  0  0  0  0  0999 V2000
  184.7300  178.7180  144.3140 C   0  0  0  0  0  0  0  0  0  0  0  0
  187.9950  178.1900  140.4520 C   0  0  0  0  0  2  0  0  0  0  0  0
  188.6690  177.0000  146.5110 F   0  0  0  0  0  0  0  0  0  0  0  0
  189.7800  176.8250  141.5450 C   0  0  0  0  0  0  0  0  0  0  0  0
  187.9640  177.6440  142.9700 C   0  0  0  0  0  0  0  0  0  0  0  0
  189.7750  177.1790  139.0490 C   0  0  2  0  0  3  0  0  0  0  0  0
  188.6380  177.5440  141.6550 C   0  0  0  0  0  0  0  0  0  0  0  0
  190.0790  176.8060  144.0370 C   0  0  0  0  0  2  0  0  0  0  0  0
  190.6000  176.8180  140.2810 C   0  0  0  0  0  2  0  0  0  0  0  0
  186.7000  177.8420  145.4400 C   0  0  0  0  0  0  0  0  0  0  0  0
  186.6910  178.1200  143.0600 N   0  0  0  0  0  0  0  0  0  0  0  0
  190.3120  176.0550  142.7250 C   0  0  0  0  0  2  0  0  0  0  0  0
  184.7530  178.4250  146.6940 N   0  0  0  0  0  0  0  0  0  0  0  0
  188.0140  177.3590  145.3770 C   0  0  0  0  0  0  0  0  0  0  0  0
  186.0270  177.9540  146.6600 C   0  0  0  0  0  3  0  0  0  0  0  0
  190.6190  177.3770  137.9740 F   0  0  0  0  0  0  0  0  0  0  0  0
  188.9890  178.4500  139.3250 C   0  0  0  0  0  2  0  0  0  0  0  0
  188.6480  177.2500  144.1350 C   0  0  0  0  0  0  0  0  0  0  0  0
  184.0990  178.8000  145.5630 C   0  0  0  0  0  3  0  0  0  0  0  0
  186.0430  178.2270  144.2520 C   0  0  0  0  0  0  0  0  0  0  0  0
  183.9940  179.1080  143.0590 C   0  0  2  0  0  3  0  0  0  0  0  0
  182.6260  179.2730  143.2940 O   0  0  0  0  0  1  0  0  0  0  0  0
  184.2470  178.1390  141.9010 C   0  0  0  0  0  2  0  0  0  0  0  0
  182.9400  178.3750  139.7170 N   0  0  0  0  0  0  0  0  0  0  0  0
  184.8540  179.6440  140.1590 O   0  0  0  0  0  0  0  0  0  0  0  0
  184.0380  178.7670  140.5550 C   0  0  0  0  0  0  0  0  0  0  0  0
  181.9340  177.4350  140.1840 C   0  0  0  0  0  1  0  0  0  0  0  0
  182.7900  178.9370  138.3860 C   0  0  0  0  0  1  0  0  0  0  0  0
  1 19  1  0  0  0  0
  2  7  1  0  0  0  0
  4  7  2  0  0  0  0
  4 12  1  0  0  0  0
  5 11  2  0  0  0  0
  5 18  1  0  0  0  0
  6 16  1  6  0  0  0
  6 17  1  0  0  0  0
  6  9  1  0  0  0  0
  7  5  1  0  0  0  0
  8 18  1  0  0  0  0
  9  4  1  0  0  0  0
 10 15  2  0  0  0  0
 11 20  1  0  0  0  0
 12  8  1  0  0  0  0
 14 10  1  0  0  0  0
 14  3  1  0  0  0  0
 15 13  1  0  0  0  0
 17  2  1  0  0  0  0
 18 14  2  0  0  0  0
 19 13  2  0  0  0  0
 20  1  2  0  0  0  0
 20 10  1  0  0  0  0
 21 22  1  1  0  0  0
 21  1  1  0  0  0  0
 23 21  1  0  0  0  0
 24 27  1  0  0  0  0
 24 26  1  0  0  0  0
 25 26  2  0  0  0  0
 26 23  1  0  0  0  0
 28 24  1  0  0  0  0
M  END
>  <MODEL>
2

>  <REMARK>
 VINA RESULT:     -10.2      3.705      6.341
  Name = 
  3 active torsions:
  status: ('A' for Active; 'I' for Inactive)
    1  A    between atoms: C_1  and  C_2
    2  A    between atoms: C_2  and  C_3
    3  A    between atoms: C_3  and  C_11
                            x       y       z     vdW  Elec       q    Type
                         _______ _______ _______ _____ _____    ______ ____

>  <TORSDO>
F 3

$$$$
=
 OpenBabel10262420523D

 28 31  0  0  1  0  0  0  0  0999 V2000
  189.6680  177.5700  141.4430 C   0  0  0  0  0  0  0  0  0  0  0  0
  184.7530  178.5040  142.3510 C   0  0  0  0  0  2  0  0  0  0  0  0
  189.3260  176.8070  146.1980 F   0  0  0  0  0  0  0  0  0  0  0  0
  184.7610  178.6170  144.8480 C   0  0  0  0  0  0  0  0  0  0  0  0
  186.8460  177.9470  143.7480 C   0  0  0  0  0  0  0  0  0  0  0  0
  182.7360  179.3390  143.5330 C   0  0  2  0  0  3  0  0  0  0  0  0
  185.4200  178.3440  143.6970 C   0  0  0  0  0  0  0  0  0  0  0  0
  186.5590  177.5120  146.2070 C   0  0  0  0  0  2  0  0  0  0  0  0
  183.2760  178.8650  144.8780 C   0  0  0  0  0  2  0  0  0  0  0  0
  189.5210  177.1910  143.8430 C   0  0  0  0  0  0  0  0  0  0  0  0
  187.6010  177.9330  142.6150 N   0  0  0  0  0  0  0  0  0  0  0  0
  185.4940  178.6090  146.1640 C   0  0  0  0  0  2  0  0  0  0  0  0
  191.5820  176.8360  142.6890 N   0  0  0  0  0  0  0  0  0  0  0  0
  188.7640  177.1870  145.0210 C   0  0  0  0  0  0  0  0  0  0  0  0
  190.8690  176.8230  143.8460 C   0  0  0  0  0  3  0  0  0  0  0  0
  181.3560  179.3280  143.5610 F   0  0  0  0  0  0  0  0  0  0  0  0
  183.2330  178.4120  142.4360 C   0  0  0  0  0  2  0  0  0  0  0  0
  187.4210  177.5750  144.9770 C   0  0  0  0  0  0  0  0  0  0  0  0
  191.0190  177.2000  141.5070 C   0  0  0  0  0  3  0  0  0  0  0  0
  188.9130  177.5710  142.6270 C   0  0  0  0  0  0  0  0  0  0  0  0
  189.0540  177.9990  140.1380 C   0  0  2  0  0  3  0  0  0  0  0  0
  187.9240  177.2380  139.8250 O   0  0  0  0  0  1  0  0  0  0  0  0
  190.0600  178.0000  138.9840 C   0  0  0  0  0  2  0  0  0  0  0  0
  189.4030  177.2950  136.6170 N   0  0  0  0  0  0  0  0  0  0  0  0
  188.9250  179.4250  137.4530 O   0  0  0  0  0  0  0  0  0  0  0  0
  189.4280  178.2870  137.6540 C   0  0  0  0  0  0  0  0  0  0  0  0
  189.8930  175.9460  136.8510 C   0  0  0  0  0  1  0  0  0  0  0  0
  188.8530  177.6090  135.3090 C   0  0  0  0  0  1  0  0  0  0  0  0
  1 19  2  0  0  0  0
  1 20  1  0  0  0  0
  2 17  1  0  0  0  0
  2  7  1  0  0  0  0
  4  9  1  0  0  0  0
  4 12  1  0  0  0  0
  5 18  1  0  0  0  0
  6 16  1  1  0  0  0
  6  9  1  0  0  0  0
  7  5  1  0  0  0  0
  7  4  2  0  0  0  0
 10 15  1  0  0  0  0
 10 14  1  0  0  0  0
 11 20  1  0  0  0  0
 11  5  2  0  0  0  0
 12  8  1  0  0  0  0
 13 15  2  0  0  0  0
 14  3  1  0  0  0  0
 17  6  1  0  0  0  0
 18 14  2  0  0  0  0
 18  8  1  0  0  0  0
 19 13  1  0  0  0  0
 20 10  2  0  0  0  0
 21 22  1  6  0  0  0
 21  1  1  0  0  0  0
 23 21  1  0  0  0  0
 24 27  1  0  0  0  0
 24 26  1  0  0  0  0
 25 26  2  0  0  0  0
 26 23  1  0  0  0  0
 28 24  1  0  0  0  0
M  END
>  <MODEL>
3

>  <REMARK>
 VINA RESULT:     -10.1      2.087      2.951
  Name = 
  3 active torsions:
  status: ('A' for Active; 'I' for Inactive)
    1  A    between atoms: C_1  and  C_2
    2  A    between atoms: C_2  and  C_3
    3  A    between atoms: C_3  and  C_11
                            x       y       z     vdW  Elec       q    Type
                         _______ _______ _______ _____ _____    ______ ____

>  <TORSDO>
F 3

$$$$
=
 OpenBabel10262420523D

 28 31  0  0  1  0  0  0  0  0999 V2000
  188.8890  177.0940  143.8160 C   0  0  0  0  0  0  0  0  0  0  0  0
  184.5020  177.7300  141.3240 C   0  0  0  0  0  2  0  0  0  0  0  0
  185.9060  178.5550  147.3190 F   0  0  0  0  0  0  0  0  0  0  0  0
  183.1760  178.9720  143.0400 C   0  0  0  0  0  0  0  0  0  0  0  0
  185.3780  178.1340  143.7140 C   0  0  0  0  0  0  0  0  0  0  0  0
  182.3400  178.7590  140.6720 C   0  0  2  0  0  3  0  0  0  0  0  0
  184.2960  178.2860  142.7130 C   0  0  0  0  0  0  0  0  0  0  0  0
  183.7380  178.8410  145.4830 C   0  0  0  0  0  2  0  0  0  0  0  0
  181.9770  179.0220  142.1300 C   0  0  0  0  0  2  0  0  0  0  0  0
  187.4060  177.8400  145.5950 C   0  0  0  0  0  0  0  0  0  0  0  0
  186.6110  177.6960  143.3380 N   0  0  0  0  0  0  0  0  0  0  0  0
  183.0660  179.6560  144.3770 C   0  0  0  0  0  2  0  0  0  0  0  0
  189.6700  177.2520  146.0780 N   0  0  0  0  0  0  0  0  0  0  0  0
  186.1430  178.2830  146.0090 C   0  0  0  0  0  0  0  0  0  0  0  0
  188.4530  177.6820  146.5060 C   0  0  0  0  0  3  0  0  0  0  0  0
  181.1840  178.5930  139.9340 F   0  0  0  0  0  0  0  0  0  0  0  0
  183.1880  177.5010  140.5840 C   0  0  0  0  0  2  0  0  0  0  0  0
  185.1240  178.4400  145.0640 C   0  0  0  0  0  0  0  0  0  0  0  0
  189.9060  176.9630  144.7720 C   0  0  0  0  0  3  0  0  0  0  0  0
  187.6260  177.5440  144.2330 C   0  0  0  0  0  0  0  0  0  0  0  0
  189.1610  176.7990  142.3650 C   0  0  2  0  0  3  0  0  0  0  0  0
  190.1110  175.7860  142.2140 O   0  0  0  0  0  1  0  0  0  0  0  0
  189.5500  178.0500  141.5710 C   0  0  0  0  0  2  0  0  0  0  0  0
  189.4940  177.6840  139.0420 N   0  0  0  0  0  0  0  0  0  0  0  0
  187.7000  178.6420  140.1950 O   0  0  0  0  0  0  0  0  0  0  0  0
  188.8560  178.1420  140.2450 C   0  0  0  0  0  0  0  0  0  0  0  0
  190.7860  177.0200  139.0800 C   0  0  0  0  0  1  0  0  0  0  0  0
  188.8410  177.8450  137.7540 C   0  0  0  0  0  1  0  0  0  0  0  0
  1 20  2  0  0  0  0
  1 19  1  0  0  0  0
  2  7  1  0  0  0  0
  4 12  1  0  0  0  0
  5 18  1  0  0  0  0
  6 16  1  6  0  0  0
  6  9  1  0  0  0  0
  7  4  2  0  0  0  0
  7  5  1  0  0  0  0
  9  4  1  0  0  0  0
 10 14  1  0  0  0  0
 10 15  2  0  0  0  0
 11  5  2  0  0  0  0
 11 20  1  0  0  0  0
 12  8  1  0  0  0  0
 13 15  1  0  0  0  0
 14  3  1  0  0  0  0
 17  6  1  0  0  0  0
 17  2  1  0  0  0  0
 18  8  1  0  0  0  0
 18 14  2  0  0  0  0
 19 13  2  0  0  0  0
 20 10  1  0  0  0  0
 21 22  1  1  0  0  0
 21  1  1  0  0  0  0
 23 21  1  0  0  0  0
 24 27  1  0  0  0  0
 24 26  1  0  0  0  0
 25 26  2  0  0  0  0
 26 23  1  0  0  0  0
 28 24  1  0  0  0  0
M  END
>  <MODEL>
4

>  <REMARK>
 VINA RESULT:     -10.0      1.862      2.696
  Name = 
  3 active torsions:
  status: ('A' for Active; 'I' for Inactive)
    1  A    between atoms: C_1  and  C_2
    2  A    between atoms: C_2  and  C_3
    3  A    between atoms: C_3  and  C_11
                            x       y       z     vdW  Elec       q    Type
                         _______ _______ _______ _____ _____    ______ ____

>  <TORSDO>
F 3

$$$$
=
 OpenBabel10262420523D

 28 31  0  0  1  0  0  0  0  0999 V2000
  183.6010  178.5870  141.7450 C   0  0  0  0  0  0  0  0  0  0  0  0
  188.5770  177.6890  142.2880 C   0  0  0  0  0  2  0  0  0  0  0  0
  184.1530  178.6560  146.5400 F   0  0  0  0  0  0  0  0  0  0  0  0
  188.6920  177.2120  144.7380 C   0  0  0  0  0  0  0  0  0  0  0  0
  186.5400  177.9680  143.8420 C   0  0  0  0  0  0  0  0  0  0  0  0
  190.6690  176.7550  143.2430 C   0  0  2  0  0  3  0  0  0  0  0  0
  187.9720  177.6290  143.6700 C   0  0  0  0  0  0  0  0  0  0  0  0
  186.9340  178.0470  146.3230 C   0  0  0  0  0  2  0  0  0  0  0  0
  190.1820  177.0100  144.6660 C   0  0  0  0  0  2  0  0  0  0  0  0
  183.8540  178.6150  144.1650 C   0  0  0  0  0  0  0  0  0  0  0  0
  185.7310  178.1230  142.7580 N   0  0  0  0  0  0  0  0  0  0  0  0
  188.0230  177.0040  146.0720 C   0  0  0  0  0  2  0  0  0  0  0  0
  181.7320  179.0680  143.1690 N   0  0  0  0  0  0  0  0  0  0  0  0
  184.6670  178.4710  145.2970 C   0  0  0  0  0  0  0  0  0  0  0  0
  182.4990  178.9350  144.2820 C   0  0  0  0  0  3  0  0  0  0  0  0
  192.0480  176.8070  143.2120 F   0  0  0  0  0  0  0  0  0  0  0  0
  190.0960  177.8170  142.3190 C   0  0  0  0  0  2  0  0  0  0  0  0
  186.0160  178.1370  145.1370 C   0  0  0  0  0  0  0  0  0  0  0  0
  182.2460  178.9000  141.9220 C   0  0  0  0  0  3  0  0  0  0  0  0
  184.4120  178.4370  142.8810 C   0  0  0  0  0  0  0  0  0  0  0  0
  184.1630  178.3740  140.3650 C   0  0  2  0  0  3  0  0  0  0  0  0
  184.9080  179.4760  139.9360 O   0  0  0  0  0  1  0  0  0  0  0  0
  183.0870  177.9970  139.3420 C   0  0  0  0  0  2  0  0  0  0  0  0
  183.7890  176.0060  137.9010 N   0  0  0  0  0  0  0  0  0  0  0  0
  182.3920  175.7590  139.7590 O   0  0  0  0  0  0  0  0  0  0  0  0
  183.0670  176.5310  139.0250 C   0  0  0  0  0  0  0  0  0  0  0  0
  184.6480  176.8560  137.0930 C   0  0  0  0  0  1  0  0  0  0  0  0
  183.7030  174.5960  137.5620 C   0  0  0  0  0  1  0  0  0  0  0  0
  1 19  2  0  0  0  0
  1 20  1  0  0  0  0
  2 17  1  0  0  0  0
  2  7  1  0  0  0  0
  4 12  1  0  0  0  0
  5 18  1  0  0  0  0
  6 16  1  1  0  0  0
  6  9  1  0  0  0  0
  7  5  1  0  0  0  0
  7  4  2  0  0  0  0
  9  4  1  0  0  0  0
 10 15  1  0  0  0  0
 10 14  1  0  0  0  0
 11 20  1  0  0  0  0
 11  5  2  0  0  0  0
 12  8  1  0  0  0  0
 13 15  2  0  0  0  0
 14  3  1  0  0  0  0
 17  6  1  0  0  0  0
 18 14  2  0  0  0  0
 18  8  1  0  0  0  0
 19 13  1  0  0  0  0
 20 10  2  0  0  0  0
 21 22  1  6  0  0  0
 21  1  1  0  0  0  0
 23 21  1  0  0  0  0
 24 26  1  0  0  0  0
 26 23  1  0  0  0  0
 26 25  2  0  0  0  0
 27 24  1  0  0  0  0
 28 24  1  0  0  0  0
M  END
>  <MODEL>
5

>  <REMARK>
 VINA RESULT:      -9.9      3.967      6.824
  Name = 
  3 active torsions:
  status: ('A' for Active; 'I' for Inactive)
    1  A    between atoms: C_1  and  C_2
    2  A    between atoms: C_2  and  C_3
    3  A    between atoms: C_3  and  C_11
                            x       y       z     vdW  Elec       q    Type
                         _______ _______ _______ _____ _____    ______ ____

>  <TORSDO>
F 3

$$$$
=
 OpenBabel10262420523D

 28 31  0  0  1  0  0  0  0  0999 V2000
  187.1090  178.3180  140.2190 C   0  0  0  0  0  0  0  0  0  0  0  0
  190.2910  177.5120  144.1020 C   0  0  0  0  0  2  0  0  0  0  0  0
  184.2050  178.7540  144.0500 F   0  0  0  0  0  0  0  0  0  0  0  0
  188.6630  177.2220  145.9760 C   0  0  0  0  0  0  0  0  0  0  0  0
  187.7600  177.8870  143.7980 C   0  0  0  0  0  0  0  0  0  0  0  0
  191.1020  176.6730  146.2930 C   0  0  2  0  0  3  0  0  0  0  0  0
  188.8980  177.5500  144.6840 C   0  0  0  0  0  0  0  0  0  0  0  0
  186.3370  178.1570  145.8520 C   0  0  0  0  0  2  0  0  0  0  0  0
  189.7810  177.0300  146.9660 C   0  0  0  0  0  2  0  0  0  0  0  0
  185.6240  178.5310  142.1350 C   0  0  0  0  0  0  0  0  0  0  0  0
  187.9290  177.9530  142.4490 N   0  0  0  0  0  0  0  0  0  0  0  0
  187.2510  177.1080  146.4880 C   0  0  0  0  0  2  0  0  0  0  0  0
  184.7980  178.8870  139.9230 N   0  0  0  0  0  0  0  0  0  0  0  0
  185.4250  178.4800  143.5210 C   0  0  0  0  0  0  0  0  0  0  0  0
  184.5790  178.8460  141.2640 C   0  0  0  0  0  3  0  0  0  0  0  0
  192.1230  176.7350  147.2210 F   0  0  0  0  0  0  0  0  0  0  0  0
  191.3740  177.6560  145.1660 C   0  0  0  0  0  2  0  0  0  0  0  0
  186.4950  178.1490  144.3580 C   0  0  0  0  0  0  0  0  0  0  0  0
  186.0210  178.6310  139.3910 C   0  0  0  0  0  3  0  0  0  0  0  0
  186.9050  178.2620  141.6070 C   0  0  0  0  0  0  0  0  0  0  0  0
  188.4570  178.0070  139.6250 C   0  0  2  0  0  3  0  0  0  0  0  0
  189.0630  179.1500  139.0960 O   0  0  0  0  0  1  0  0  0  0  0  0
  188.4000  176.8780  138.5920 C   0  0  0  0  0  2  0  0  0  0  0  0
  190.2150  176.5360  136.8250 N   0  0  0  0  0  0  0  0  0  0  0  0
  190.4960  175.8420  139.0400 O   0  0  0  0  0  0  0  0  0  0  0  0
  189.7580  176.3930  138.1790 C   0  0  0  0  0  0  0  0  0  0  0  0
  189.4250  177.2470  135.8340 C   0  0  0  0  0  1  0  0  0  0  0  0
  191.5030  175.9970  136.4200 C   0  0  0  0  0  1  0  0  0  0  0  0
  1 20  1  0  0  0  0
  2  7  1  0  0  0  0
  2 17  1  0  0  0  0
  4 12  1  0  0  0  0
  4  9  1  0  0  0  0
  5 18  1  0  0  0  0
  5  7  1  0  0  0  0
  6  9  1  0  0  0  0
  6 16  1  1  0  0  0
  7  4  2  0  0  0  0
  8 12  1  0  0  0  0
 10 14  1  0  0  0  0
 11  5  2  0  0  0  0
 13 15  2  0  0  0  0
 14  3  1  0  0  0  0
 14 18  2  0  0  0  0
 15 10  1  0  0  0  0
 17  6  1  0  0  0  0
 18  8  1  0  0  0  0
 19 13  1  0  0  0  0
 19  1  2  0  0  0  0
 20 10  2  0  0  0  0
 20 11  1  0  0  0  0
 21 22  1  6  0  0  0
 21  1  1  0  0  0  0
 23 21  1  0  0  0  0
 24 26  1  0  0  0  0
 26 23  1  0  0  0  0
 26 25  2  0  0  0  0
 27 24  1  0  0  0  0
 28 24  1  0  0  0  0
M  END
>  <MODEL>
6

>  <REMARK>
 VINA RESULT:      -9.8      2.370      5.726
  Name = 
  3 active torsions:
  status: ('A' for Active; 'I' for Inactive)
    1  A    between atoms: C_1  and  C_2
    2  A    between atoms: C_2  and  C_3
    3  A    between atoms: C_3  and  C_11
                            x       y       z     vdW  Elec       q    Type
                         _______ _______ _______ _____ _____    ______ ____

>  <TORSDO>
F 3

$$$$
=
 OpenBabel10262420523D

 28 31  0  0  1  0  0  0  0  0999 V2000
  186.7730  178.4710  140.6770 C   0  0  0  0  0  0  0  0  0  0  0  0
  187.2000  178.0880  145.7290 C   0  0  0  0  0  2  0  0  0  0  0  0
  191.1060  176.4100  141.2010 F   0  0  0  0  0  0  0  0  0  0  0  0
  189.6260  177.5280  145.9430 C   0  0  0  0  0  0  0  0  0  0  0  0
  188.6920  177.6240  143.6800 C   0  0  0  0  0  0  0  0  0  0  0  0
  188.2610  178.1400  147.9720 C   0  0  2  0  0  3  0  0  0  0  0  0
  188.5440  177.7160  145.1510 C   0  0  0  0  0  0  0  0  0  0  0  0
  190.9080  176.4980  144.0470 C   0  0  0  0  0  2  0  0  0  0  0  0
  189.5120  177.4450  147.4430 C   0  0  0  0  0  2  0  0  0  0  0  0
  188.9650  177.4430  140.9180 C   0  0  0  0  0  0  0  0  0  0  0  0
  187.7030  178.0710  142.8570 N   0  0  0  0  0  0  0  0  0  0  0  0
  190.9880  177.3210  145.3350 C   0  0  0  0  0  2  0  0  0  0  0  0
  188.0520  177.8440  138.7480 N   0  0  0  0  0  0  0  0  0  0  0  0
  189.9920  176.9660  141.7430 C   0  0  0  0  0  0  0  0  0  0  0  0
  189.0620  177.3740  139.5260 C   0  0  0  0  0  3  0  0  0  0  0  0
  188.0980  177.8360  149.3090 F   0  0  0  0  0  0  0  0  0  0  0  0
  187.0510  177.6640  147.1860 C   0  0  0  0  0  2  0  0  0  0  0  0
  189.8610  177.0650  143.1320 C   0  0  0  0  0  0  0  0  0  0  0  0
  186.9280  178.3860  139.2860 C   0  0  0  0  0  3  0  0  0  0  0  0
  187.8070  177.9990  141.5010 C   0  0  0  0  0  0  0  0  0  0  0  0
  185.5390  179.0970  141.2710 C   0  0  2  0  0  3  0  0  0  0  0  0
  185.8600  180.0500  142.2410 O   0  0  0  0  0  1  0  0  0  0  0  0
  184.5550  178.0580  141.8170 C   0  0  0  0  0  2  0  0  0  0  0  0
  182.5010  178.8930  143.0870 N   0  0  0  0  0  0  0  0  0  0  0  0
  182.5050  178.6520  140.7620 O   0  0  0  0  0  0  0  0  0  0  0  0
  183.1390  178.5510  141.8470 C   0  0  0  0  0  0  0  0  0  0  0  0
  183.2330  178.8740  144.3430 C   0  0  0  0  0  1  0  0  0  0  0  0
  181.1060  179.3000  143.1120 C   0  0  0  0  0  1  0  0  0  0  0  0
  1 21  1  0  0  0  0
  1 20  1  0  0  0  0
  2 17  1  0  0  0  0
  3 14  1  0  0  0  0
  4  9  1  0  0  0  0
  5  7  1  0  0  0  0
  6 16  1  1  0  0  0
  7  2  1  0  0  0  0
  7  4  2  0  0  0  0
  8 12  1  0  0  0  0
  9  6  1  0  0  0  0
 10 20  2  0  0  0  0
 10 14  1  0  0  0  0
 11  5  2  0  0  0  0
 12  4  1  0  0  0  0
 13 19  1  0  0  0  0
 13 15  2  0  0  0  0
 14 18  2  0  0  0  0
 15 10  1  0  0  0  0
 17  6  1  0  0  0  0
 18  5  1  0  0  0  0
 18  8  1  0  0  0  0
 19  1  2  0  0  0  0
 20 11  1  0  0  0  0
 21 23  1  0  0  0  0
 21 22  1  1  0  0  0
 23 26  1  0  0  0  0
 24 28  1  0  0  0  0
 24 27  1  0  0  0  0
 25 26  2  0  0  0  0
 26 24  1  0  0  0  0
M  END
>  <MODEL>
7

>  <REMARK>
 VINA RESULT:      -9.6      3.223      6.709
  Name = 
  3 active torsions:
  status: ('A' for Active; 'I' for Inactive)
    1  A    between atoms: C_1  and  C_2
    2  A    between atoms: C_2  and  C_3
    3  A    between atoms: C_3  and  C_11
                            x       y       z     vdW  Elec       q    Type
                         _______ _______ _______ _____ _____    ______ ____

>  <TORSDO>
F 3

$$$$
=
 OpenBabel10262420523D

 28 31  0  0  1  0  0  0  0  0999 V2000
  183.9320  178.6100  142.3230 C   0  0  0  0  0  0  0  0  0  0  0  0
  188.9090  177.5750  142.4090 C   0  0  0  0  0  2  0  0  0  0  0  0
  184.9220  178.6570  147.0470 F   0  0  0  0  0  0  0  0  0  0  0  0
  189.2350  177.0920  144.8390 C   0  0  0  0  0  0  0  0  0  0  0  0
  187.0320  177.9080  144.1430 C   0  0  0  0  0  0  0  0  0  0  0  0
  191.0540  176.5840  143.1690 C   0  0  2  0  0  3  0  0  0  0  0  0
  188.4320  177.5300  143.8410 C   0  0  0  0  0  0  0  0  0  0  0  0
  187.6530  177.9730  146.5770 C   0  0  0  0  0  2  0  0  0  0  0  0
  190.7070  176.8500  144.6310 C   0  0  0  0  0  2  0  0  0  0  0  0
  184.4060  178.6270  144.7100 C   0  0  0  0  0  0  0  0  0  0  0  0
  186.1320  178.0860  143.1370 N   0  0  0  0  0  0  0  0  0  0  0  0
  188.6870  176.9000  146.2280 C   0  0  0  0  0  2  0  0  0  0  0  0
  182.2140  179.1400  143.9110 N   0  0  0  0  0  0  0  0  0  0  0  0
  185.3150  178.4600  145.7620 C   0  0  0  0  0  0  0  0  0  0  0  0
  183.0760  178.9840  144.9500 C   0  0  0  0  0  3  0  0  0  0  0  0
  192.4260  176.5970  143.0120 F   0  0  0  0  0  0  0  0  0  0  0  0
  190.4280  177.6620  142.3000 C   0  0  0  0  0  2  0  0  0  0  0  0
  186.6340  178.0890  145.4800 C   0  0  0  0  0  0  0  0  0  0  0  0
  182.6070  178.9590  142.6230 C   0  0  0  0  0  3  0  0  0  0  0  0
  184.8390  178.4360  143.3800 C   0  0  0  0  0  0  0  0  0  0  0  0
  184.3580  178.3830  140.8970 C   0  0  2  0  0  3  0  0  0  0  0  0
  184.5950  179.5890  140.2320 O   0  0  0  0  0  1  0  0  0  0  0  0
  183.3750  177.5040  140.1200 C   0  0  0  0  0  2  0  0  0  0  0  0
  181.8270  178.6490  138.4390 N   0  0  0  0  0  0  0  0  0  0  0  0
  183.9590  177.8970  137.8460 O   0  0  0  0  0  0  0  0  0  0  0  0
  183.0830  178.0240  138.7440 C   0  0  0  0  0  0  0  0  0  0  0  0
  180.8350  178.8920  139.4740 C   0  0  0  0  0  1  0  0  0  0  0  0
  181.5280  179.0840  137.0850 C   0  0  0  0  0  1  0  0  0  0  0  0
  1 19  2  0  0  0  0
  1 20  1  0  0  0  0
  2  7  1  0  0  0  0
  4 12  1  0  0  0  0
  5 18  1  0  0  0  0
  6 16  1  1  0  0  0
  6  9  1  0  0  0  0
  7  5  1  0  0  0  0
  7  4  2  0  0  0  0
  9  4  1  0  0  0  0
 10 15  1  0  0  0  0
 10 14  1  0  0  0  0
 11 20  1  0  0  0  0
 11  5  2  0  0  0  0
 12  8  1  0  0  0  0
 13 15  2  0  0  0  0
 14  3  1  0  0  0  0
 17  2  1  0  0  0  0
 17  6  1  0  0  0  0
 18 14  2  0  0  0  0
 18  8  1  0  0  0  0
 19 13  1  0  0  0  0
 20 10  2  0  0  0  0
 21 22  1  6  0  0  0
 21  1  1  0  0  0  0
 23 21  1  0  0  0  0
 24 26  1  0  0  0  0
 24 27  1  0  0  0  0
 25 26  2  0  0  0  0
 26 23  1  0  0  0  0
 28 24  1  0  0  0  0
M  END
>  <MODEL>
8

>  <REMARK>
 VINA RESULT:      -9.5      3.972      6.859
  Name = 
  3 active torsions:
  status: ('A' for Active; 'I' for Inactive)
    1  A    between atoms: C_1  and  C_2
    2  A    between atoms: C_2  and  C_3
    3  A    between atoms: C_3  and  C_11
                            x       y       z     vdW  Elec       q    Type
                         _______ _______ _______ _____ _____    ______ ____

>  <TORSDO>
F 3

$$$$
=
 OpenBabel10262420523D

 28 31  0  0  1  0  0  0  0  0999 V2000
  190.2670  176.8300  141.2300 C   0  0  0  0  0  0  0  0  0  0  0  0
  187.0900  177.7640  145.0890 C   0  0  0  0  0  2  0  0  0  0  0  0
  186.5310  178.9360  139.0150 F   0  0  0  0  0  0  0  0  0  0  0  0
  185.0070  178.3440  143.8370 C   0  0  0  0  0  0  0  0  0  0  0  0
  187.0460  178.0010  142.5240 C   0  0  0  0  0  0  0  0  0  0  0  0
  184.9480  177.9580  146.3280 C   0  0  2  0  0  3  0  0  0  0  0  0
  186.3330  178.0710  143.8200 C   0  0  0  0  0  0  0  0  0  0  0  0
  185.0840  179.1610  141.4650 C   0  0  0  0  0  2  0  0  0  0  0  0
  184.2600  178.5910  145.1220 C   0  0  0  0  0  2  0  0  0  0  0  0
  188.3900  177.8790  140.0910 C   0  0  0  0  0  0  0  0  0  0  0  0
  188.2960  177.4670  142.4510 N   0  0  0  0  0  0  0  0  0  0  0  0
  184.2410  178.4840  142.5480 C   0  0  0  0  0  2  0  0  0  0  0  0
  190.3400  177.2420  138.8680 N   0  0  0  0  0  0  0  0  0  0  0  0
  187.1080  178.4430  140.1410 C   0  0  0  0  0  0  0  0  0  0  0  0
  189.0990  177.7940  138.8900 C   0  0  0  0  0  3  0  0  0  0  0  0
  184.3480  178.4070  147.4870 F   0  0  0  0  0  0  0  0  0  0  0  0
  186.4180  178.3450  146.3280 C   0  0  0  0  0  2  0  0  0  0  0  0
  186.4270  178.4970  141.3610 C   0  0  0  0  0  0  0  0  0  0  0  0
  190.9280  176.7620  139.9950 C   0  0  0  0  0  3  0  0  0  0  0  0
  188.9800  177.3890  141.2760 C   0  0  0  0  0  0  0  0  0  0  0  0
  190.9090  176.2730  142.4730 C   0  0  2  0  0  3  0  0  0  0  0  0
  189.9830  175.5990  143.2740 O   0  0  0  0  0  1  0  0  0  0  0  0
  191.6670  177.3360  143.2730 C   0  0  0  0  0  2  0  0  0  0  0  0
  191.1120  176.9740  145.7410 N   0  0  0  0  0  0  0  0  0  0  0  0
  190.2150  178.7530  144.5170 O   0  0  0  0  0  0  0  0  0  0  0  0
  190.9600  177.7360  144.5330 C   0  0  0  0  0  0  0  0  0  0  0  0
  192.0340  175.8530  145.8140 C   0  0  0  0  0  1  0  0  0  0  0  0
  190.3650  177.3290  146.9360 C   0  0  0  0  0  1  0  0  0  0  0  0
  1 20  1  0  0  0  0
  1 21  1  0  0  0  0
  2 17  1  0  0  0  0
  3 14  1  0  0  0  0
  4  9  1  0  0  0  0
  5  7  1  0  0  0  0
  6 16  1  1  0  0  0
  7  4  2  0  0  0  0
  7  2  1  0  0  0  0
  8 12  1  0  0  0  0
  9  6  1  0  0  0  0
 10 14  2  0  0  0  0
 10 20  1  0  0  0  0
 11  5  1  0  0  0  0
 12  4  1  0  0  0  0
 13 15  2  0  0  0  0
 13 19  1  0  0  0  0
 14 18  1  0  0  0  0
 15 10  1  0  0  0  0
 17  6  1  0  0  0  0
 18  8  1  0  0  0  0
 18  5  2  0  0  0  0
 19  1  2  0  0  0  0
 20 11  2  0  0  0  0
 21 23  1  0  0  0  0
 21 22  1  1  0  0  0
 23 26  1  0  0  0  0
 24 27  1  0  0  0  0
 24 28  1  0  0  0  0
 25 26  2  0  0  0  0
 26 24  1  0  0  0  0
M  END
>  <MODEL>
9

>  <REMARK>
 VINA RESULT:      -9.0      1.963      5.163
  Name = 
  3 active torsions:
  status: ('A' for Active; 'I' for Inactive)
    1  A    between atoms: C_1  and  C_2
    2  A    between atoms: C_2  and  C_3
    3  A    between atoms: C_3  and  C_11
                            x       y       z     vdW  Elec       q    Type
                         _______ _______ _______ _____ _____    ______ ____

>  <TORSDO>
F 3

$$$$
