=
 OpenBabel10262421153D

 32 36  0  0  1  0  0  0  0  0999 V2000
  187.1550  178.0530  140.1470 C   0  0  2  0  0  3  0  0  0  0  0  0
  188.4750  179.0100  142.0830 O   0  0  0  0  0  0  0  0  0  0  0  0
  185.9480  178.4570  139.2830 C   0  0  0  0  0  2  0  0  0  0  0  0
  187.2300  178.9400  141.3920 C   0  0  2  0  0  3  0  0  0  0  0  0
  188.7430  176.5760  142.3220 C   0  0  0  0  0  2  0  0  0  0  0  0
  189.3460  177.9140  141.8290 C   0  0  1  0  0  0  0  0  0  0  0  0
  186.0130  178.7110  142.3100 C   0  0  2  0  0  3  0  0  0  0  0  0
  188.2660  176.5660  143.7790 C   0  0  0  0  0  2  0  0  0  0  0  0
  186.1090  177.4420  143.0290 N   0  0  0  0  0  2  0  0  0  0  0  0
  184.7040  178.6960  141.4960 C   0  0  0  0  0  2  0  0  0  0  0  0
  189.6580  177.7950  140.3220 C   0  0  0  0  0  2  0  0  0  0  0  0
  188.4790  178.1180  139.3960 C   0  0  1  0  0  3  0  0  0  0  0  0
  187.1400  177.5590  144.0530 C   0  0  1  0  0  3  0  0  0  0  0  0
  184.8640  179.2230  140.0630 C   0  0  0  0  0  2  0  0  0  0  0  0
  187.4450  176.9740  135.9370 C   0  0  0  0  0  0  0  0  0  0  0  0
  188.8280  173.8130  135.3870 F   0  0  0  0  0  0  0  0  0  0  0  0
  187.0050  177.5420  134.7870 F   0  0  0  0  0  0  0  0  0  0  0  0
  189.3320  175.0110  137.3040 C   0  0  0  0  0  3  0  0  0  0  0  0
  188.5060  177.2300  138.1850 C   0  0  0  0  0  0  0  0  0  0  0  0
  187.2220  175.5110  136.1280 C   0  0  0  0  0  2  0  0  0  0  0  0
  189.1330  176.0520  138.3320 C   0  0  0  0  0  3  0  0  0  0  0  0
  187.9910  177.7460  136.8840 C   0  0  0  0  0  0  0  0  0  0  0  0
  188.0340  179.0850  136.6620 F   0  0  0  0  0  0  0  0  0  0  0  0
  188.5180  174.7910  136.2720 C   0  0  0  0  0  0  0  0  0  0  0  0
  191.3950  176.4760  145.5460 C   0  0  0  0  0  1  0  0  0  0  0  0
  190.7010  178.5920  144.6980 O   0  0  0  0  0  0  0  0  0  0  0  0
  190.5800  179.2020  143.5200 O   0  0  0  0  0  0  0  0  0  0  0  0
  190.6900  178.2100  142.5280 C   0  0  1  0  0  3  0  0  0  0  0  0
  191.6220  177.5560  144.5100 C   0  0  2  0  0  3  0  0  0  0  0  0
  191.3470  177.0150  143.1530 C   0  0  0  0  0  2  0  0  0  0  0  0
  186.5510  177.2830  145.4240 C   0  0  0  0  0  2  0  0  0  0  0  0
  187.5350  177.6750  146.5080 C   0  0  0  0  0  1  0  0  0  0  0  0
  1  3  1  6  0  0  0
  1  4  1  0  0  0  0
  3 14  1  0  0  0  0
  4  2  1  1  0  0  0
  4  7  1  0  0  0  0
  5  8  1  0  0  0  0
  6 11  1  6  0  0  0
  6  2  1  0  0  0  0
  6  5  1  0  0  0  0
  6 28  1  0  0  0  0
  7 10  1  6  0  0  0
  7  9  1  0  0  0  0
  8 13  1  0  0  0  0
  9 13  1  0  0  0  0
 12 19  1  6  0  0  0
 12  1  1  0  0  0  0
 12 11  1  0  0  0  0
 13 31  1  1  0  0  0
 14 10  1  0  0  0  0
 15 20  1  0  0  0  0
 15 22  2  0  0  0  0
 16 24  1  0  0  0  0
 17 15  1  0  0  0  0
 18 21  1  0  0  0  0
 19 21  2  0  0  0  0
 20 24  1  0  0  0  0
 22 19  1  0  0  0  0
 23 22  1  0  0  0  0
 24 18  2  0  0  0  0
 27 26  1  0  0  0  0
 28 30  1  1  0  0  0
 28 27  1  0  0  0  0
 29 26  1  0  0  0  0
 29 25  1  1  0  0  0
 30 29  1  0  0  0  0
 31 32  1  0  0  0  0
M  END
>  <MODEL>
1

>  <REMARK>
 VINA RESULT:      -8.2      0.000      0.000
  Name = 
  3 active torsions:
  status: ('A' for Active; 'I' for Inactive)
    1  A    between atoms: C_10  and  C_28
    2  A    between atoms: C_13  and  C_29
    3  A    between atoms: C_16  and  C_27
                            x       y       z     vdW  Elec       q    Type
                         _______ _______ _______ _____ _____    ______ ____

>  <TORSDO>
F 3

$$$$
=
 OpenBabel10262421153D

 32 36  0  0  1  0  0  0  0  0999 V2000
  187.5160  177.8690  139.8850 C   0  0  2  0  0  3  0  0  0  0  0  0
  188.7310  178.8900  141.8560 O   0  0  0  0  0  0  0  0  0  0  0  0
  186.4090  178.2750  138.8970 C   0  0  0  0  0  2  0  0  0  0  0  0
  187.5440  178.8380  141.0690 C   0  0  2  0  0  3  0  0  0  0  0  0
  188.8310  176.4680  142.2800 C   0  0  0  0  0  2  0  0  0  0  0  0
  189.5520  177.7320  141.7510 C   0  0  1  0  0  0  0  0  0  0  0  0
  186.2450  178.7420  141.8940 C   0  0  2  0  0  3  0  0  0  0  0  0
  188.2390  176.5890  143.6890 C   0  0  0  0  0  2  0  0  0  0  0  0
  186.2060  177.5240  142.7030 N   0  0  0  0  0  2  0  0  0  0  0  0
  185.0070  178.7400  140.9760 C   0  0  0  0  0  2  0  0  0  0  0  0
  189.9770  177.4880  140.2870 C   0  0  0  0  0  2  0  0  0  0  0  0
  188.8970  177.8070  139.2460 C   0  0  1  0  0  3  0  0  0  0  0  0
  187.1570  177.6580  143.8000 C   0  0  1  0  0  3  0  0  0  0  0  0
  185.3130  179.1520  139.5290 C   0  0  0  0  0  2  0  0  0  0  0  0
  190.1980  176.4290  135.9670 C   0  0  0  0  0  0  0  0  0  0  0  0
  188.0650  173.8540  134.9560 F   0  0  0  0  0  0  0  0  0  0  0  0
  191.3690  176.4150  135.2840 F   0  0  0  0  0  0  0  0  0  0  0  0
  187.7840  174.8900  137.0080 C   0  0  0  0  0  3  0  0  0  0  0  0
  188.9680  176.8340  138.1040 C   0  0  0  0  0  0  0  0  0  0  0  0
  188.9440  176.1270  135.2160 C   0  0  0  0  0  2  0  0  0  0  0  0
  187.9500  175.9640  138.0070 C   0  0  0  0  0  3  0  0  0  0  0  0
  190.1950  176.7820  137.2570 C   0  0  0  0  0  0  0  0  0  0  0  0
  191.3740  177.1590  137.8140 F   0  0  0  0  0  0  0  0  0  0  0  0
  188.2740  174.9160  135.7690 C   0  0  0  0  0  0  0  0  0  0  0  0
  191.1470  176.5660  145.7740 C   0  0  0  0  0  1  0  0  0  0  0  0
  190.7060  178.6220  144.6490 O   0  0  0  0  0  0  0  0  0  0  0  0
  190.7390  179.1050  143.4090 O   0  0  0  0  0  0  0  0  0  0  0  0
  190.8510  178.0040  142.5390 C   0  0  1  0  0  3  0  0  0  0  0  0
  191.5510  177.5060  144.6580 C   0  0  2  0  0  3  0  0  0  0  0  0
  191.3500  176.8400  143.3440 C   0  0  0  0  0  2  0  0  0  0  0  0
  186.4440  177.5150  145.1320 C   0  0  0  0  0  2  0  0  0  0  0  0
  187.4340  177.6240  146.2740 C   0  0  0  0  0  1  0  0  0  0  0  0
  1  3  1  6  0  0  0
  1  4  1  0  0  0  0
  3 14  1  0  0  0  0
  4  2  1  1  0  0  0
  4  7  1  0  0  0  0
  5  8  1  0  0  0  0
  6 11  1  6  0  0  0
  6  2  1  0  0  0  0
  6  5  1  0  0  0  0
  6 28  1  0  0  0  0
  7 10  1  6  0  0  0
  7  9  1  0  0  0  0
  8 13  1  0  0  0  0
  9 13  1  0  0  0  0
 12 19  1  6  0  0  0
 12  1  1  0  0  0  0
 12 11  1  0  0  0  0
 13 31  1  1  0  0  0
 14 10  1  0  0  0  0
 15 22  2  0  0  0  0
 16 24  1  0  0  0  0
 17 15  1  0  0  0  0
 18 21  1  0  0  0  0
 20 24  1  0  0  0  0
 20 15  1  0  0  0  0
 21 19  2  0  0  0  0
 22 23  1  0  0  0  0
 22 19  1  0  0  0  0
 24 18  2  0  0  0  0
 26 29  1  0  0  0  0
 27 26  1  0  0  0  0
 28 30  1  1  0  0  0
 28 27  1  0  0  0  0
 29 25  1  1  0  0  0
 30 29  1  0  0  0  0
 31 32  1  0  0  0  0
M  END
>  <MODEL>
2

>  <REMARK>
 VINA RESULT:      -7.5      1.217      1.410
  Name = 
  3 active torsions:
  status: ('A' for Active; 'I' for Inactive)
    1  A    between atoms: C_10  and  C_28
    2  A    between atoms: C_13  and  C_29
    3  A    between atoms: C_16  and  C_27
                            x       y       z     vdW  Elec       q    Type
                         _______ _______ _______ _____ _____    ______ ____

>  <TORSDO>
F 3

$$$$
=
 OpenBabel10262421153D

 32 36  0  0  1  0  0  0  0  0999 V2000
  181.3830  179.3770  141.6900 C   0  0  2  0  0  3  0  0  0  0  0  0
  180.6420  178.2740  139.5360 O   0  0  0  0  0  0  0  0  0  0  0  0
  180.7730  179.7230  143.0590 C   0  0  0  0  0  2  0  0  0  0  0  0
  180.2760  179.0130  140.6980 C   0  0  2  0  0  3  0  0  0  0  0  0
  182.4250  179.8190  138.8350 C   0  0  0  0  0  2  0  0  0  0  0  0
  182.0210  178.3680  139.1960 C   0  0  1  0  0  0  0  0  0  0  0  0
  179.3660  180.2250  140.4130 C   0  0  2  0  0  3  0  0  0  0  0  0
  181.5550  180.5000  137.7730 C   0  0  0  0  0  2  0  0  0  0  0  0
  180.0240  181.2020  139.5460 N   0  0  0  0  0  2  0  0  0  0  0  0
  178.9750  180.9410  141.7210 C   0  0  0  0  0  2  0  0  0  0  0  0
  182.9110  177.8770  140.3570 C   0  0  0  0  0  2  0  0  0  0  0  0
  182.3990  178.2450  141.7560 C   0  0  1  0  0  3  0  0  0  0  0  0
  180.0980  180.6570  138.1960 C   0  0  1  0  0  3  0  0  0  0  0  0
  179.2890  180.1280  142.9850 C   0  0  0  0  0  2  0  0  0  0  0  0
  186.0490  178.5840  142.7080 C   0  0  0  0  0  0  0  0  0  0  0  0
  186.2230  179.0630  146.1640 F   0  0  0  0  0  0  0  0  0  0  0  0
  187.2170  178.8950  142.0930 F   0  0  0  0  0  0  0  0  0  0  0  0
  184.1790  178.9840  145.0790 C   0  0  0  0  0  3  0  0  0  0  0  0
  183.5510  178.5480  142.6710 C   0  0  0  0  0  0  0  0  0  0  0  0
  186.1130  177.8780  144.0210 C   0  0  0  0  0  2  0  0  0  0  0  0
  183.2520  178.6640  143.9750 C   0  0  0  0  0  3  0  0  0  0  0  0
  184.8920  178.8480  142.0910 C   0  0  0  0  0  0  0  0  0  0  0  0
  184.9460  179.3790  140.8430 F   0  0  0  0  0  0  0  0  0  0  0  0
  185.4790  178.6950  145.0940 C   0  0  0  0  0  0  0  0  0  0  0  0
  180.5400  174.3110  137.9970 C   0  0  0  0  0  1  0  0  0  0  0  0
  182.6720  175.2810  138.4390 O   0  0  0  0  0  0  0  0  0  0  0  0
  183.2800  176.4570  138.2970 O   0  0  0  0  0  0  0  0  0  0  0  0
  182.2800  177.4080  138.0150 C   0  0  1  0  0  3  0  0  0  0  0  0
  181.6080  175.2770  137.5310 C   0  0  2  0  0  3  0  0  0  0  0  0
  181.0690  176.6620  137.5370 C   0  0  0  0  0  2  0  0  0  0  0  0
  179.3880  181.5770  137.2200 C   0  0  0  0  0  2  0  0  0  0  0  0
  180.3970  182.3980  136.4400 C   0  0  0  0  0  1  0  0  0  0  0  0
  1 12  1  0  0  0  0
  1  3  1  1  0  0  0
  4  2  1  6  0  0  0
  4  1  1  0  0  0  0
  6  5  1  6  0  0  0
  6  2  1  0  0  0  0
  6 11  1  0  0  0  0
  7  4  1  0  0  0  0
  7 10  1  1  0  0  0
  8 13  1  0  0  0  0
  8  5  1  0  0  0  0
  9  7  1  0  0  0  0
 10 14  1  0  0  0  0
 11 12  1  0  0  0  0
 12 19  1  1  0  0  0
 13 31  1  6  0  0  0
 13  9  1  0  0  0  0
 14  3  1  0  0  0  0
 15 20  1  0  0  0  0
 17 15  1  0  0  0  0
 18 24  2  0  0  0  0
 19 21  2  0  0  0  0
 20 24  1  0  0  0  0
 21 18  1  0  0  0  0
 22 19  1  0  0  0  0
 22 15  2  0  0  0  0
 23 22  1  0  0  0  0
 24 16  1  0  0  0  0
 27 26  1  0  0  0  0
 28 30  1  1  0  0  0
 28 27  1  0  0  0  0
 28  6  1  0  0  0  0
 29 30  1  0  0  0  0
 29 25  1  1  0  0  0
 29 26  1  0  0  0  0
 32 31  1  0  0  0  0
M  END
>  <MODEL>
3

>  <REMARK>
 VINA RESULT:      -6.9      5.369      8.984
  Name = 
  3 active torsions:
  status: ('A' for Active; 'I' for Inactive)
    1  A    between atoms: C_10  and  C_28
    2  A    between atoms: C_13  and  C_29
    3  A    between atoms: C_16  and  C_27
                            x       y       z     vdW  Elec       q    Type
                         _______ _______ _______ _____ _____    ______ ____

>  <TORSDO>
F 3

$$$$
=
 OpenBabel10262421153D

 32 36  0  0  1  0  0  0  0  0999 V2000
  184.0060  178.6560  142.4530 C   0  0  2  0  0  3  0  0  0  0  0  0
  186.3440  179.5920  142.7060 O   0  0  0  0  0  0  0  0  0  0  0  0
  182.5840  179.0030  142.9260 C   0  0  0  0  0  2  0  0  0  0  0  0
  185.0370  179.4520  143.2560 C   0  0  2  0  0  3  0  0  0  0  0  0
  186.6980  177.1830  142.3460 C   0  0  0  0  0  2  0  0  0  0  0  0
  186.6750  178.6060  141.7350 C   0  0  1  0  0  0  0  0  0  0  0  0
  185.0200  179.0410  144.7420 C   0  0  2  0  0  3  0  0  0  0  0  0
  187.5610  177.0210  143.6030 C   0  0  0  0  0  2  0  0  0  0  0  0
  185.6490  177.7370  144.9490 N   0  0  0  0  0  2  0  0  0  0  0  0
  183.5760  178.9590  145.2750 C   0  0  0  0  0  2  0  0  0  0  0  0
  185.6730  178.6280  140.5610 C   0  0  0  0  0  2  0  0  0  0  0  0
  184.2200  178.9020  140.9650 C   0  0  1  0  0  3  0  0  0  0  0  0
  187.0890  177.8780  144.7740 C   0  0  1  0  0  3  0  0  0  0  0  0
  182.5380  179.6020  144.3440 C   0  0  0  0  0  2  0  0  0  0  0  0
  181.1610  178.3610  138.7980 C   0  0  0  0  0  0  0  0  0  0  0  0
  180.8290  174.9290  138.2370 F   0  0  0  0  0  0  0  0  0  0  0  0
  180.3990  179.0910  137.9470 F   0  0  0  0  0  0  0  0  0  0  0  0
  182.6670  175.7740  139.3650 C   0  0  0  0  0  3  0  0  0  0  0  0
  183.2780  178.1120  140.1020 C   0  0  0  0  0  0  0  0  0  0  0  0
  180.5860  177.1000  139.3500 C   0  0  0  0  0  2  0  0  0  0  0  0
  183.4310  176.7790  140.1320 C   0  0  0  0  0  3  0  0  0  0  0  0
  182.3590  178.8280  139.1710 C   0  0  0  0  0  0  0  0  0  0  0  0
  182.7360  180.0470  138.7080 F   0  0  0  0  0  0  0  0  0  0  0  0
  181.4090  175.9230  138.9510 C   0  0  0  0  0  0  0  0  0  0  0  0
  189.4920  176.7310  138.7940 C   0  0  0  0  0  1  0  0  0  0  0  0
  189.6300  177.4440  141.0650 O   0  0  0  0  0  0  0  0  0  0  0  0
  189.1230  178.3990  141.8410 O   0  0  0  0  0  0  0  0  0  0  0  0
  188.0500  178.9780  141.1380 C   0  0  1  0  0  3  0  0  0  0  0  0
  189.5160  177.9060  139.7500 C   0  0  2  0  0  3  0  0  0  0  0  0
  188.2180  178.6290  139.6880 C   0  0  0  0  0  2  0  0  0  0  0  0
  187.8150  177.4480  146.0360 C   0  0  0  0  0  2  0  0  0  0  0  0
  189.3150  177.5040  145.8250 C   0  0  0  0  0  1  0  0  0  0  0  0
  1  3  1  1  0  0  0
  1  4  1  0  0  0  0
  3 14  1  0  0  0  0
  4  2  1  6  0  0  0
  4  7  1  0  0  0  0
  5  8  1  0  0  0  0
  6 11  1  6  0  0  0
  6  5  1  0  0  0  0
  6  2  1  0  0  0  0
  7  9  1  0  0  0  0
  7 10  1  6  0  0  0
  8 13  1  0  0  0  0
 11 12  1  0  0  0  0
 12 19  1  6  0  0  0
 12  1  1  0  0  0  0
 13  9  1  0  0  0  0
 13 31  1  1  0  0  0
 14 10  1  0  0  0  0
 15 22  2  0  0  0  0
 15 20  1  0  0  0  0
 16 24  1  0  0  0  0
 17 15  1  0  0  0  0
 18 21  1  0  0  0  0
 19 21  2  0  0  0  0
 22 19  1  0  0  0  0
 23 22  1  0  0  0  0
 24 20  1  0  0  0  0
 24 18  2  0  0  0  0
 26 27  1  0  0  0  0
 28 30  1  6  0  0  0
 28  6  1  0  0  0  0
 28 27  1  0  0  0  0
 29 25  1  6  0  0  0
 29 26  1  0  0  0  0
 30 29  1  0  0  0  0
 32 31  1  0  0  0  0
M  END
>  <MODEL>
4

>  <REMARK>
 VINA RESULT:      -6.8      3.134      4.928
  Name = 
  3 active torsions:
  status: ('A' for Active; 'I' for Inactive)
    1  A    between atoms: C_10  and  C_28
    2  A    between atoms: C_13  and  C_29
    3  A    between atoms: C_16  and  C_27
                            x       y       z     vdW  Elec       q    Type
                         _______ _______ _______ _____ _____    ______ ____

>  <TORSDO>
F 3

$$$$
=
 OpenBabel10262421153D

 32 36  0  0  1  0  0  0  0  0999 V2000
  190.1860  177.3980  140.0560 C   0  0  2  0  0  3  0  0  0  0  0  0
  189.5060  178.0280  137.7010 O   0  0  0  0  0  0  0  0  0  0  0  0
  191.4460  177.4760  140.9360 C   0  0  0  0  0  2  0  0  0  0  0  0
  190.5520  177.6470  138.5910 C   0  0  2  0  0  3  0  0  0  0  0  0
  188.0250  176.1470  138.2700 C   0  0  0  0  0  2  0  0  0  0  0  0
  188.2020  177.6810  138.1520 C   0  0  1  0  0  0  0  0  0  0  0  0
  191.4620  176.5260  138.0490 C   0  0  2  0  0  3  0  0  0  0  0  0
  188.4000  175.3430  137.0200 C   0  0  0  0  0  2  0  0  0  0  0  0
  190.7160  175.2930  137.8070 N   0  0  0  0  0  2  0  0  0  0  0  0
  192.5940  176.2060  139.0450 C   0  0  0  0  0  2  0  0  0  0  0  0
  187.9020  178.3240  139.5230 C   0  0  0  0  0  2  0  0  0  0  0  0
  189.0980  178.3750  140.4810 C   0  0  1  0  0  3  0  0  0  0  0  0
  189.8700  175.4790  136.6340 C   0  0  1  0  0  3  0  0  0  0  0  0
  192.7540  177.2560  140.1540 C   0  0  0  0  0  2  0  0  0  0  0  0
  189.5480  177.8890  144.2100 C   0  0  0  0  0  0  0  0  0  0  0  0
  186.4620  176.9630  145.5590 F   0  0  0  0  0  0  0  0  0  0  0  0
  190.4260  178.2750  145.1690 F   0  0  0  0  0  0  0  0  0  0  0  0
  186.6530  177.5510  143.3270 C   0  0  0  0  0  3  0  0  0  0  0  0
  188.6430  178.1620  141.8970 C   0  0  0  0  0  0  0  0  0  0  0  0
  188.6600  176.7250  144.4990 C   0  0  0  0  0  2  0  0  0  0  0  0
  187.3610  177.7960  142.0550 C   0  0  0  0  0  3  0  0  0  0  0  0
  189.5600  178.5050  143.0220 C   0  0  0  0  0  0  0  0  0  0  0  0
  190.4930  179.4690  142.8180 F   0  0  0  0  0  0  0  0  0  0  0  0
  187.2260  177.1290  144.4530 C   0  0  0  0  0  0  0  0  0  0  0  0
  185.1250  176.0340  135.3390 C   0  0  0  0  0  1  0  0  0  0  0  0
  187.0440  177.4330  135.1310 O   0  0  0  0  0  0  0  0  0  0  0  0
  187.6860  178.3560  135.8450 O   0  0  0  0  0  0  0  0  0  0  0  0
  187.1850  178.2840  137.1590 C   0  0  1  0  0  3  0  0  0  0  0  0
  185.7390  177.3870  135.6330 C   0  0  2  0  0  3  0  0  0  0  0  0
  185.8660  177.5710  137.1020 C   0  0  0  0  0  2  0  0  0  0  0  0
  190.2090  174.4460  135.5750 C   0  0  0  0  0  2  0  0  0  0  0  0
  191.1320  173.3880  136.1460 C   0  0  0  0  0  1  0  0  0  0  0  0
  1 12  1  0  0  0  0
  1  3  1  1  0  0  0
  2  6  1  0  0  0  0
  4  2  1  6  0  0  0
  4  1  1  0  0  0  0
  6  5  1  1  0  0  0
  6 11  1  0  0  0  0
  7  4  1  0  0  0  0
  7 10  1  1  0  0  0
  8  5  1  0  0  0  0
  9  7  1  0  0  0  0
 10 14  1  0  0  0  0
 11 12  1  0  0  0  0
 12 19  1  1  0  0  0
 13 31  1  6  0  0  0
 13  8  1  0  0  0  0
 13  9  1  0  0  0  0
 14  3  1  0  0  0  0
 15 20  1  0  0  0  0
 15 17  1  0  0  0  0
 18 24  2  0  0  0  0
 19 21  2  0  0  0  0
 19 22  1  0  0  0  0
 21 18  1  0  0  0  0
 22 15  2  0  0  0  0
 23 22  1  0  0  0  0
 24 20  1  0  0  0  0
 24 16  1  0  0  0  0
 26 29  1  0  0  0  0
 26 27  1  0  0  0  0
 27 28  1  0  0  0  0
 28 30  1  6  0  0  0
 28  6  1  0  0  0  0
 29 25  1  1  0  0  0
 29 30  1  0  0  0  0
 31 32  1  0  0  0  0
M  END
>  <MODEL>
5

>  <REMARK>
 VINA RESULT:      -6.7      3.751      7.725
  Name = 
  3 active torsions:
  status: ('A' for Active; 'I' for Inactive)
    1  A    between atoms: C_10  and  C_28
    2  A    between atoms: C_13  and  C_29
    3  A    between atoms: C_16  and  C_27
                            x       y       z     vdW  Elec       q    Type
                         _______ _______ _______ _____ _____    ______ ____

>  <TORSDO>
F 3

$$$$
=
 OpenBabel10262421153D

 32 36  0  0  1  0  0  0  0  0999 V2000
  186.3290  178.2720  140.1250 C   0  0  2  0  0  3  0  0  0  0  0  0
  184.9160  179.0690  138.1830 O   0  0  0  0  0  0  0  0  0  0  0  0
  187.7770  178.4320  140.6200 C   0  0  0  0  0  2  0  0  0  0  0  0
  186.2140  178.7450  138.6740 C   0  0  2  0  0  3  0  0  0  0  0  0
  183.8830  176.9350  138.8390 C   0  0  0  0  0  2  0  0  0  0  0  0
  183.8500  178.4810  138.9180 C   0  0  1  0  0  0  0  0  0  0  0  0
  187.0380  177.8450  137.7310 C   0  0  2  0  0  3  0  0  0  0  0  0
  183.9550  176.3500  137.4230 C   0  0  0  0  0  2  0  0  0  0  0  0
  186.3900  176.5520  137.5160 N   0  0  0  0  0  2  0  0  0  0  0  0
  188.4420  177.5810  138.3090 C   0  0  0  0  0  2  0  0  0  0  0  0
  183.9030  178.9050  140.4020 C   0  0  0  0  0  2  0  0  0  0  0  0
  185.3170  179.0190  140.9850 C   0  0  1  0  0  3  0  0  0  0  0  0
  185.2200  176.7480  136.6690 C   0  0  1  0  0  3  0  0  0  0  0  0
  188.8100  178.5030  139.4800 C   0  0  0  0  0  2  0  0  0  0  0  0
  184.0880  178.8900  144.5650 C   0  0  0  0  0  0  0  0  0  0  0  0
  186.4880  177.2100  146.4690 F   0  0  0  0  0  0  0  0  0  0  0  0
  182.9060  178.9990  145.2200 F   0  0  0  0  0  0  0  0  0  0  0  0
  186.7060  177.3830  144.1700 C   0  0  0  0  0  3  0  0  0  0  0  0
  185.3290  178.5730  142.4190 C   0  0  0  0  0  0  0  0  0  0  0  0
  185.3450  179.0680  145.3500 C   0  0  0  0  0  2  0  0  0  0  0  0
  186.4420  177.9460  142.8310 C   0  0  0  0  0  3  0  0  0  0  0  0
  184.0900  178.7040  143.2400 C   0  0  0  0  0  0  0  0  0  0  0  0
  182.8920  178.6810  142.6020 F   0  0  0  0  0  0  0  0  0  0  0  0
  186.1770  177.8320  145.3070 C   0  0  0  0  0  0  0  0  0  0  0  0
  180.1860  180.3800  140.6690 C   0  0  0  0  0  1  0  0  0  0  0  0
  180.6310  178.4640  139.3210 O   0  0  0  0  0  0  0  0  0  0  0  0
  181.4850  178.0920  138.3700 O   0  0  0  0  0  0  0  0  0  0  0  0
  182.5250  179.0400  138.3550 C   0  0  1  0  0  3  0  0  0  0  0  0
  180.6200  179.8630  139.3130 C   0  0  2  0  0  3  0  0  0  0  0  0
  182.0230  180.2750  139.0450 C   0  0  0  0  0  2  0  0  0  0  0  0
  185.3380  175.9100  135.4090 C   0  0  0  0  0  2  0  0  0  0  0  0
  186.3660  174.8130  135.6000 C   0  0  0  0  0  1  0  0  0  0  0  0
  1  3  1  1  0  0  0
  1 12  1  0  0  0  0
  2  6  1  0  0  0  0
  4  2  1  6  0  0  0
  4  1  1  0  0  0  0
  6  5  1  6  0  0  0
  6 11  1  0  0  0  0
  7 10  1  1  0  0  0
  7  4  1  0  0  0  0
  8  5  1  0  0  0  0
  9  7  1  0  0  0  0
 10 14  1  0  0  0  0
 11 12  1  0  0  0  0
 12 19  1  1  0  0  0
 13 31  1  6  0  0  0
 13  8  1  0  0  0  0
 13  9  1  0  0  0  0
 14  3  1  0  0  0  0
 15 17  1  0  0  0  0
 15 20  1  0  0  0  0
 18 24  2  0  0  0  0
 19 21  2  0  0  0  0
 19 22  1  0  0  0  0
 21 18  1  0  0  0  0
 22 15  2  0  0  0  0
 23 22  1  0  0  0  0
 24 20  1  0  0  0  0
 24 16  1  0  0  0  0
 27 26  1  0  0  0  0
 28 27  1  0  0  0  0
 28  6  1  0  0  0  0
 28 30  1  1  0  0  0
 29 26  1  0  0  0  0
 29 25  1  1  0  0  0
 30 29  1  0  0  0  0
 31 32  1  0  0  0  0
M  END
>  <MODEL>
6

>  <REMARK>
 VINA RESULT:      -6.7      4.256      8.220
  Name = 
  3 active torsions:
  status: ('A' for Active; 'I' for Inactive)
    1  A    between atoms: C_10  and  C_28
    2  A    between atoms: C_13  and  C_29
    3  A    between atoms: C_16  and  C_27
                            x       y       z     vdW  Elec       q    Type
                         _______ _______ _______ _____ _____    ______ ____

>  <TORSDO>
F 3

$$$$
=
 OpenBabel10262421153D

 32 36  0  0  1  0  0  0  0  0999 V2000
  185.8960  178.0000  139.5160 C   0  0  2  0  0  3  0  0  0  0  0  0
  183.6770  179.0160  138.8470 O   0  0  0  0  0  0  0  0  0  0  0  0
  187.3290  177.9270  138.9590 C   0  0  0  0  0  2  0  0  0  0  0  0
  184.9340  178.4890  138.4310 C   0  0  2  0  0  3  0  0  0  0  0  0
  183.0560  177.0710  140.2180 C   0  0  0  0  0  2  0  0  0  0  0  0
  183.2730  178.6020  140.1460 C   0  0  1  0  0  0  0  0  0  0  0  0
  184.8400  177.4730  137.2750 C   0  0  2  0  0  3  0  0  0  0  0  0
  182.1280  176.4850  139.1470 C   0  0  0  0  0  2  0  0  0  0  0  0
  184.0530  176.3000  137.6500 N   0  0  0  0  0  2  0  0  0  0  0  0
  186.2400  176.9880  136.8510 C   0  0  0  0  0  2  0  0  0  0  0  0
  184.3180  179.0080  141.2060 C   0  0  0  0  0  2  0  0  0  0  0  0
  185.7760  178.8950  140.7430 C   0  0  1  0  0  3  0  0  0  0  0  0
  182.6480  176.6810  137.7260 C   0  0  1  0  0  3  0  0  0  0  0  0
  187.3850  177.8380  137.4230 C   0  0  0  0  0  2  0  0  0  0  0  0
  188.9730  177.6460  142.3440 C   0  0  0  0  0  0  0  0  0  0  0  0
  188.2510  176.7530  145.6430 F   0  0  0  0  0  0  0  0  0  0  0  0
  190.3070  177.7560  142.1280 F   0  0  0  0  0  0  0  0  0  0  0  0
  186.6450  177.7500  144.3050 C   0  0  0  0  0  3  0  0  0  0  0  0
  186.6530  178.4490  141.8780 C   0  0  0  0  0  0  0  0  0  0  0  0
  188.4920  176.5330  143.2140 C   0  0  0  0  0  2  0  0  0  0  0  0
  186.0270  178.1750  143.0340 C   0  0  0  0  0  3  0  0  0  0  0  0
  188.1360  178.4800  141.7170 C   0  0  0  0  0  0  0  0  0  0  0  0
  188.6680  179.3780  140.8490 F   0  0  0  0  0  0  0  0  0  0  0  0
  187.7820  177.0650  144.4120 C   0  0  0  0  0  0  0  0  0  0  0  0
  179.0160  177.4600  140.9650 C   0  0  0  0  0  1  0  0  0  0  0  0
  180.1260  178.8850  139.4090 O   0  0  0  0  0  0  0  0  0  0  0  0
  181.1990  179.6710  139.3690 O   0  0  0  0  0  0  0  0  0  0  0  0
  181.9780  179.3650  140.5010 C   0  0  1  0  0  3  0  0  0  0  0  0
  179.7940  178.7430  140.7600 C   0  0  2  0  0  3  0  0  0  0  0  0
  181.0890  178.6650  141.4870 C   0  0  0  0  0  2  0  0  0  0  0  0
  181.8240  175.8390  136.7690 C   0  0  0  0  0  2  0  0  0  0  0  0
  180.4970  175.4690  137.4020 C   0  0  0  0  0  1  0  0  0  0  0  0
  1  3  1  6  0  0  0
  1 12  1  0  0  0  0
  2  6  1  0  0  0  0
  4  2  1  1  0  0  0
  4  1  1  0  0  0  0
  6  5  1  1  0  0  0
  6 28  1  0  0  0  0
  6 11  1  0  0  0  0
  7 10  1  1  0  0  0
  7  9  1  0  0  0  0
  7  4  1  0  0  0  0
  8  5  1  0  0  0  0
  9 13  1  0  0  0  0
 10 14  1  0  0  0  0
 12 11  1  0  0  0  0
 12 19  1  1  0  0  0
 13 31  1  6  0  0  0
 13  8  1  0  0  0  0
 14  3  1  0  0  0  0
 15 20  1  0  0  0  0
 17 15  1  0  0  0  0
 18 24  2  0  0  0  0
 19 21  2  0  0  0  0
 20 24  1  0  0  0  0
 21 18  1  0  0  0  0
 22 19  1  0  0  0  0
 22 15  2  0  0  0  0
 23 22  1  0  0  0  0
 24 16  1  0  0  0  0
 26 29  1  0  0  0  0
 27 26  1  0  0  0  0
 27 28  1  0  0  0  0
 28 30  1  1  0  0  0
 29 25  1  6  0  0  0
 29 30  1  0  0  0  0
 31 32  1  0  0  0  0
M  END
>  <MODEL>
7

>  <REMARK>
 VINA RESULT:      -6.5      4.176      7.721
  Name = 
  3 active torsions:
  status: ('A' for Active; 'I' for Inactive)
    1  A    between atoms: C_10  and  C_28
    2  A    between atoms: C_13  and  C_29
    3  A    between atoms: C_16  and  C_27
                            x       y       z     vdW  Elec       q    Type
                         _______ _______ _______ _____ _____    ______ ____

>  <TORSDO>
F 3

$$$$
=
 OpenBabel10262421153D

 32 36  0  0  1  0  0  0  0  0999 V2000
  184.8740  178.3090  140.7330 C   0  0  2  0  0  3  0  0  0  0  0  0
  182.6790  179.1110  139.7630 O   0  0  0  0  0  0  0  0  0  0  0  0
  186.3760  178.5460  140.4980 C   0  0  0  0  0  2  0  0  0  0  0  0
  184.0650  178.8560  139.5540 C   0  0  2  0  0  3  0  0  0  0  0  0
  182.1630  176.8710  140.6400 C   0  0  0  0  0  2  0  0  0  0  0  0
  182.1140  178.4030  140.8600 C   0  0  1  0  0  0  0  0  0  0  0  0
  184.3750  178.0760  138.2600 C   0  0  2  0  0  3  0  0  0  0  0  0
  181.5750  176.3760  139.3130 C   0  0  0  0  0  2  0  0  0  0  0  0
  183.7520  176.7530  138.2640 N   0  0  0  0  0  2  0  0  0  0  0  0
  185.8940  177.8840  138.0830 C   0  0  0  0  0  2  0  0  0  0  0  0
  182.8490  178.7410  142.1740 C   0  0  0  0  0  2  0  0  0  0  0  0
  184.3650  178.9260  142.0290 C   0  0  1  0  0  3  0  0  0  0  0  0
  182.3140  176.9110  138.0890 C   0  0  1  0  0  3  0  0  0  0  0  0
  186.7390  178.7610  139.0180 C   0  0  0  0  0  2  0  0  0  0  0  0
  184.9670  178.4630  145.7400 C   0  0  0  0  0  0  0  0  0  0  0  0
  188.0750  176.9200  146.1440 F   0  0  0  0  0  0  0  0  0  0  0  0
  184.2250  178.4140  146.8730 F   0  0  0  0  0  0  0  0  0  0  0  0
  187.1810  177.2500  144.0340 C   0  0  0  0  0  3  0  0  0  0  0  0
  185.0750  178.3990  143.2440 C   0  0  0  0  0  0  0  0  0  0  0  0
  186.4320  178.7180  145.8690 C   0  0  0  0  0  2  0  0  0  0  0  0
  186.2870  177.8630  143.0310 C   0  0  0  0  0  3  0  0  0  0  0  0
  184.3590  178.3570  144.5520 C   0  0  0  0  0  0  0  0  0  0  0  0
  183.0060  178.2530  144.5400 F   0  0  0  0  0  0  0  0  0  0  0  0
  187.2190  177.5760  145.3250 C   0  0  0  0  0  0  0  0  0  0  0  0
  179.3510  179.0030  144.3380 C   0  0  0  0  0  1  0  0  0  0  0  0
  179.2950  177.7340  142.3200 O   0  0  0  0  0  0  0  0  0  0  0  0
  179.7300  177.8380  141.0660 O   0  0  0  0  0  0  0  0  0  0  0  0
  180.6610  178.8940  141.0380 C   0  0  1  0  0  3  0  0  0  0  0  0
  179.2460  179.0370  142.8280 C   0  0  2  0  0  3  0  0  0  0  0  0
  180.4300  179.7350  142.2590 C   0  0  0  0  0  2  0  0  0  0  0  0
  181.8500  176.1600  136.8550 C   0  0  0  0  0  2  0  0  0  0  0  0
  180.8140  175.1190  137.2300 C   0  0  0  0  0  1  0  0  0  0  0  0
  1  3  1  6  0  0  0
  1 12  1  0  0  0  0
  2  6  1  0  0  0  0
  4  2  1  1  0  0  0
  4  1  1  0  0  0  0
  6  5  1  6  0  0  0
  6 28  1  0  0  0  0
  6 11  1  0  0  0  0
  7 10  1  1  0  0  0
  7  9  1  0  0  0  0
  7  4  1  0  0  0  0
  8  5  1  0  0  0  0
 10 14  1  0  0  0  0
 12 11  1  0  0  0  0
 12 19  1  1  0  0  0
 13 31  1  6  0  0  0
 13  9  1  0  0  0  0
 13  8  1  0  0  0  0
 14  3  1  0  0  0  0
 15 20  1  0  0  0  0
 15 17  1  0  0  0  0
 18 24  2  0  0  0  0
 19 22  1  0  0  0  0
 21 19  2  0  0  0  0
 21 18  1  0  0  0  0
 22 15  2  0  0  0  0
 23 22  1  0  0  0  0
 24 20  1  0  0  0  0
 24 16  1  0  0  0  0
 26 29  1  0  0  0  0
 27 26  1  0  0  0  0
 28 27  1  0  0  0  0
 28 30  1  1  0  0  0
 29 25  1  1  0  0  0
 30 29  1  0  0  0  0
 31 32  1  0  0  0  0
M  END
>  <MODEL>
8

>  <REMARK>
 VINA RESULT:      -6.5      4.974      8.539
  Name = 
  3 active torsions:
  status: ('A' for Active; 'I' for Inactive)
    1  A    between atoms: C_10  and  C_28
    2  A    between atoms: C_13  and  C_29
    3  A    between atoms: C_16  and  C_27
                            x       y       z     vdW  Elec       q    Type
                         _______ _______ _______ _____ _____    ______ ____

>  <TORSDO>
F 3

$$$$
=
 OpenBabel10262421153D

 32 36  0  0  1  0  0  0  0  0999 V2000
  190.4900  176.7010  138.9100 C   0  0  2  0  0  3  0  0  0  0  0  0
  189.3690  177.4330  136.7630 O   0  0  0  0  0  0  0  0  0  0  0  0
  191.9180  176.6160  139.4770 C   0  0  0  0  0  2  0  0  0  0  0  0
  190.5380  176.9190  137.3960 C   0  0  2  0  0  3  0  0  0  0  0  0
  187.8430  175.7390  137.6880 C   0  0  0  0  0  2  0  0  0  0  0  0
  188.1710  177.2420  137.5060 C   0  0  1  0  0  0  0  0  0  0  0  0
  191.1580  175.7030  136.6800 C   0  0  2  0  0  3  0  0  0  0  0  0
  187.8230  174.9090  136.3990 C   0  0  0  0  0  2  0  0  0  0  0  0
  190.2330  174.5710  136.6360 N   0  0  0  0  0  2  0  0  0  0  0  0
  192.4420  175.2370  137.3960 C   0  0  0  0  0  2  0  0  0  0  0  0
  188.2720  177.9020  138.8980 C   0  0  0  0  0  2  0  0  0  0  0  0
  189.6530  177.7980  139.5560 C   0  0  1  0  0  3  0  0  0  0  0  0
  189.1700  174.8710  135.6850 C   0  0  1  0  0  3  0  0  0  0  0  0
  192.9760  176.2480  138.4210 C   0  0  0  0  0  2  0  0  0  0  0  0
  190.8340  176.9600  143.0560 C   0  0  0  0  0  0  0  0  0  0  0  0
  188.0330  176.8380  145.1400 F   0  0  0  0  0  0  0  0  0  0  0  0
  191.9900  177.0240  143.7620 F   0  0  0  0  0  0  0  0  0  0  0  0
  187.8380  177.4960  142.9280 C   0  0  0  0  0  3  0  0  0  0  0  0
  189.5130  177.6250  141.0420 C   0  0  0  0  0  0  0  0  0  0  0  0
  189.7480  176.0720  143.5660 C   0  0  0  0  0  2  0  0  0  0  0  0
  188.2580  177.6190  141.5180 C   0  0  0  0  0  3  0  0  0  0  0  0
  190.7330  177.6260  141.9000 C   0  0  0  0  0  0  0  0  0  0  0  0
  191.8240  178.3050  141.4630 F   0  0  0  0  0  0  0  0  0  0  0  0
  188.5220  176.8590  143.8780 C   0  0  0  0  0  0  0  0  0  0  0  0
  184.4340  175.9950  135.3680 C   0  0  0  0  0  1  0  0  0  0  0  0
  186.3950  177.2230  134.7910 O   0  0  0  0  0  0  0  0  0  0  0  0
  187.2560  178.0540  135.3740 O   0  0  0  0  0  0  0  0  0  0  0  0
  187.0340  177.9740  136.7610 C   0  0  1  0  0  3  0  0  0  0  0  0
  185.2230  177.2740  135.5540 C   0  0  2  0  0  3  0  0  0  0  0  0
  185.6690  177.3850  136.9680 C   0  0  0  0  0  2  0  0  0  0  0  0
  189.1310  173.8160  134.5940 C   0  0  0  0  0  2  0  0  0  0  0  0
  189.4230  172.4460  135.1750 C   0  0  0  0  0  1  0  0  0  0  0  0
  1  3  1  1  0  0  0
  1 12  1  0  0  0  0
  2  6  1  0  0  0  0
  4  2  1  6  0  0  0
  4  1  1  0  0  0  0
  6  5  1  1  0  0  0
  6 11  1  0  0  0  0
  7  4  1  0  0  0  0
  7 10  1  1  0  0  0
  8  5  1  0  0  0  0
  9  7  1  0  0  0  0
 10 14  1  0  0  0  0
 11 12  1  0  0  0  0
 12 19  1  1  0  0  0
 13 31  1  6  0  0  0
 13  8  1  0  0  0  0
 13  9  1  0  0  0  0
 14  3  1  0  0  0  0
 15 20  1  0  0  0  0
 15 17  1  0  0  0  0
 18 24  2  0  0  0  0
 19 21  2  0  0  0  0
 19 22  1  0  0  0  0
 20 24  1  0  0  0  0
 21 18  1  0  0  0  0
 22 15  2  0  0  0  0
 23 22  1  0  0  0  0
 24 16  1  0  0  0  0
 26 27  1  0  0  0  0
 26 29  1  0  0  0  0
 27 28  1  0  0  0  0
 28 30  1  6  0  0  0
 28  6  1  0  0  0  0
 29 25  1  1  0  0  0
 29 30  1  0  0  0  0
 31 32  1  0  0  0  0
M  END
>  <MODEL>
9

>  <REMARK>
 VINA RESULT:      -6.3      3.858      7.939
  Name = 
  3 active torsions:
  status: ('A' for Active; 'I' for Inactive)
    1  A    between atoms: C_10  and  C_28
    2  A    between atoms: C_13  and  C_29
    3  A    between atoms: C_16  and  C_27
                            x       y       z     vdW  Elec       q    Type
                         _______ _______ _______ _____ _____    ______ ____

>  <TORSDO>
F 3

$$$$
