=
 OpenBabel10262420453D

 28 31  0  0  1  0  0  0  0  0999 V2000
  189.8550  177.7190  144.8370 C   0  0  1  0  0  3  0  0  0  0  0  0
  192.1100  175.8170  146.7090 C   0  0  0  0  0  2  0  0  0  0  0  0
  190.7950  176.9070  145.6040 N   0  0  0  0  0  0  0  0  0  0  0  0
  191.7570  175.8320  145.2880 C   0  0  0  0  0  0  0  0  0  0  0  0
  191.1900  176.8350  146.9540 N   0  0  0  0  0  2  0  0  0  0  0  0
  192.1150  175.2090  144.2560 O   0  0  0  0  0  0  0  0  0  0  0  0
  190.4590  178.1760  143.5090 C   0  0  2  0  0  3  0  0  0  0  0  0
  191.2050  179.3450  143.6760 O   0  0  0  0  0  1  0  0  0  0  0  0
  189.3780  178.3950  142.4620 C   0  0  0  0  0  2  0  0  0  0  0  0
  189.6980  177.6410  141.2130 C   0  0  0  0  0  0  0  0  0  0  0  0
  189.5940  176.7410  139.2320 N   0  0  0  0  0  0  0  0  0  0  0  0
  190.7650  176.8300  141.0630 N   0  0  0  0  0  0  0  0  0  0  0  0
  187.6660  178.2800  139.7640 C   0  0  0  0  0  1  0  0  0  0  0  0
  188.9490  177.5800  140.0590 C   0  0  0  0  0  0  0  0  0  0  0  0
  189.1970  176.3510  137.8900 C   0  0  0  0  0  1  0  0  0  0  0  0
  190.6780  176.3000  139.8500 N   0  0  0  0  0  0  0  0  0  0  0  0
  188.5590  176.9640  144.5900 C   0  0  0  0  0  2  0  0  0  0  0  0
  186.0280  177.7340  143.2870 C   0  0  0  0  0  2  0  0  0  0  0  0
  185.2300  178.5850  145.5450 C   0  0  0  0  0  0  0  0  0  0  0  0
  187.4460  177.5830  145.3760 C   0  0  0  0  0  0  0  0  0  0  0  0
  183.6840  178.5150  143.5590 C   0  0  1  0  0  3  0  0  0  0  0  0
  186.2510  178.0030  144.7560 C   0  0  0  0  0  0  0  0  0  0  0  0
  186.6180  178.3600  147.5180 C   0  0  0  0  0  3  0  0  0  0  0  0
  183.9670  179.1220  144.9300 C   0  0  0  0  0  2  0  0  0  0  0  0
  185.4290  178.7710  146.9150 C   0  0  0  0  0  3  0  0  0  0  0  0
  182.6490  179.2030  142.9570 F   0  0  0  0  0  0  0  0  0  0  0  0
  184.9310  178.6100  142.6940 C   0  0  0  0  0  2  0  0  0  0  0  0
  187.6220  177.7690  146.7520 C   0  0  0  0  0  3  0  0  0  0  0  0
  1 17  1  6  0  0  0
  1  3  1  0  0  0  0
  2  5  1  0  0  0  0
  3  5  1  0  0  0  0
  4  3  1  0  0  0  0
  4  2  1  0  0  0  0
  6  4  2  0  0  0  0
  7  8  1  1  0  0  0
  7  1  1  0  0  0  0
  9  7  1  0  0  0  0
 10  9  1  0  0  0  0
 11 16  1  0  0  0  0
 11 14  1  0  0  0  0
 12 10  1  0  0  0  0
 13 14  1  0  0  0  0
 14 10  2  0  0  0  0
 15 11  1  0  0  0  0
 16 12  2  0  0  0  0
 17 20  1  0  0  0  0
 18 22  1  0  0  0  0
 19 25  1  0  0  0  0
 20 28  2  0  0  0  0
 21 26  1  6  0  0  0
 21 24  1  0  0  0  0
 22 20  1  0  0  0  0
 22 19  2  0  0  0  0
 24 19  1  0  0  0  0
 25 23  2  0  0  0  0
 27 18  1  0  0  0  0
 27 21  1  0  0  0  0
 28 23  1  0  0  0  0
M  END
>  <MODEL>
1

>  <REMARK>
 VINA RESULT:      -9.7      0.000      0.000
  Name = 
  6 active torsions:
  status: ('A' for Active; 'I' for Inactive)
    1  A    between atoms: C_1  and  C_2
    2  A    between atoms: C_1  and  C_27
    3  A    between atoms: C_2  and  C_3
    4  A    between atoms: C_10  and  C_17
    5  A    between atoms: N_16  and  C_27
    6  A    between atoms: C_17  and  C_27
                            x       y       z     vdW  Elec       q    Type
                         _______ _______ _______ _____ _____    ______ ____

>  <TORSDO>
F 6

$$$$
=
 OpenBabel10262420453D

 28 31  0  0  1  0  0  0  0  0999 V2000
  189.0140  177.6310  142.3980 C   0  0  1  0  0  3  0  0  0  0  0  0
  191.9500  178.4780  144.0910 C   0  0  0  0  0  2  0  0  0  0  0  0
  190.2390  177.9660  143.1170 N   0  0  0  0  0  0  0  0  0  0  0  0
  191.3220  177.1970  143.7620 C   0  0  0  0  0  0  0  0  0  0  0  0
  190.9050  179.1570  143.4670 N   0  0  0  0  0  2  0  0  0  0  0  0
  191.5870  175.9810  143.9460 O   0  0  0  0  0  0  0  0  0  0  0  0
  189.3120  177.0570  141.0140 C   0  0  2  0  0  3  0  0  0  0  0  0
  190.4740  176.2840  141.0340 O   0  0  0  0  0  1  0  0  0  0  0  0
  189.4400  178.1620  139.9780 C   0  0  0  0  0  2  0  0  0  0  0  0
  188.2850  178.1310  139.0310 C   0  0  0  0  0  0  0  0  0  0  0  0
  187.0560  177.9630  137.2410 N   0  0  0  0  0  0  0  0  0  0  0  0
  187.0310  178.5180  139.3440 N   0  0  0  0  0  0  0  0  0  0  0  0
  189.4730  177.3290  136.8910 C   0  0  0  0  0  1  0  0  0  0  0  0
  188.3060  177.7880  137.6970 C   0  0  0  0  0  0  0  0  0  0  0  0
  186.5730  177.7330  135.8900 C   0  0  0  0  0  1  0  0  0  0  0  0
  186.3060  178.4010  138.2390 N   0  0  0  0  0  0  0  0  0  0  0  0
  188.1620  176.6580  143.1970 C   0  0  0  0  0  2  0  0  0  0  0  0
  188.7070  177.1170  146.0590 C   0  0  0  0  0  2  0  0  0  0  0  0
  186.4660  178.3060  146.2020 C   0  0  0  0  0  0  0  0  0  0  0  0
  187.1910  177.4090  144.0550 C   0  0  0  0  0  0  0  0  0  0  0  0
  188.0500  178.2770  148.1570 C   0  0  1  0  0  3  0  0  0  0  0  0
  187.4150  177.5900  145.4350 C   0  0  0  0  0  0  0  0  0  0  0  0
  185.0860  178.5990  144.2310 C   0  0  0  0  0  3  0  0  0  0  0  0
  186.6110  178.4650  147.6910 C   0  0  0  0  0  2  0  0  0  0  0  0
  185.3040  178.7910  145.5960 C   0  0  0  0  0  3  0  0  0  0  0  0
  188.0820  178.2120  149.5370 F   0  0  0  0  0  0  0  0  0  0  0  0
  188.6090  176.9880  147.5750 C   0  0  0  0  0  2  0  0  0  0  0  0
  186.0260  177.9100  143.4650 C   0  0  0  0  0  3  0  0  0  0  0  0
  1  3  1  0  0  0  0
  1 17  1  1  0  0  0
  3  5  1  0  0  0  0
  3  4  1  0  0  0  0
  4  6  2  0  0  0  0
  4  2  1  0  0  0  0
  5  2  1  0  0  0  0
  7  8  1  1  0  0  0
  7  1  1  0  0  0  0
  9  7  1  0  0  0  0
 10 12  1  0  0  0  0
 10  9  1  0  0  0  0
 11 14  1  0  0  0  0
 11 16  1  0  0  0  0
 13 14  1  0  0  0  0
 14 10  2  0  0  0  0
 15 11  1  0  0  0  0
 16 12  2  0  0  0  0
 17 20  1  0  0  0  0
 18 27  1  0  0  0  0
 19 24  1  0  0  0  0
 20 22  1  0  0  0  0
 21 26  1  1  0  0  0
 22 18  1  0  0  0  0
 22 19  2  0  0  0  0
 23 25  2  0  0  0  0
 24 21  1  0  0  0  0
 25 19  1  0  0  0  0
 27 21  1  0  0  0  0
 28 20  2  0  0  0  0
 28 23  1  0  0  0  0
M  END
>  <MODEL>
2

>  <REMARK>
 VINA RESULT:      -9.2      2.535      3.779
  Name = 
  6 active torsions:
  status: ('A' for Active; 'I' for Inactive)
    1  A    between atoms: C_1  and  C_2
    2  A    between atoms: C_1  and  C_27
    3  A    between atoms: C_2  and  C_3
    4  A    between atoms: C_10  and  C_17
    5  A    between atoms: N_16  and  C_27
    6  A    between atoms: C_17  and  C_27
                            x       y       z     vdW  Elec       q    Type
                         _______ _______ _______ _____ _____    ______ ____

>  <TORSDO>
F 6

$$$$
=
 OpenBabel10262420453D

 28 31  0  0  1  0  0  0  0  0999 V2000
  188.8870  177.6490  143.0530 C   0  0  1  0  0  3  0  0  0  0  0  0
  191.9150  178.7540  144.4000 C   0  0  0  0  0  2  0  0  0  0  0  0
  190.1520  178.0940  143.6310 N   0  0  0  0  0  0  0  0  0  0  0  0
  191.2750  177.4400  144.3320 C   0  0  0  0  0  0  0  0  0  0  0  0
  190.8320  179.3230  143.7330 N   0  0  0  0  0  2  0  0  0  0  0  0
  191.5550  176.2710  144.7040 O   0  0  0  0  0  0  0  0  0  0  0  0
  189.0830  177.0550  141.6600 C   0  0  2  0  0  3  0  0  0  0  0  0
  190.1520  176.1560  141.6450 O   0  0  0  0  0  1  0  0  0  0  0  0
  189.3070  178.1460  140.6250 C   0  0  0  0  0  2  0  0  0  0  0  0
  188.1960  178.1570  139.6250 C   0  0  0  0  0  0  0  0  0  0  0  0
  187.0510  178.0550  137.7760 N   0  0  0  0  0  0  0  0  0  0  0  0
  186.9350  178.5530  139.8900 N   0  0  0  0  0  0  0  0  0  0  0  0
  189.4730  177.3960  137.5210 C   0  0  0  0  0  1  0  0  0  0  0  0
  188.2760  177.8500  138.2850 C   0  0  0  0  0  0  0  0  0  0  0  0
  186.6280  177.8690  136.3980 C   0  0  0  0  0  1  0  0  0  0  0  0
  186.2610  178.4770  138.7500 N   0  0  0  0  0  0  0  0  0  0  0  0
  188.1980  176.6430  143.9610 C   0  0  0  0  0  2  0  0  0  0  0  0
  185.5610  177.6930  143.1630 C   0  0  0  0  0  2  0  0  0  0  0  0
  185.2930  178.5700  145.5330 C   0  0  0  0  0  0  0  0  0  0  0  0
  187.3230  177.3530  144.9450 C   0  0  0  0  0  0  0  0  0  0  0  0
  183.4030  178.7000  143.8760 C   0  0  1  0  0  3  0  0  0  0  0  0
  186.0830  177.9060  144.5640 C   0  0  0  0  0  0  0  0  0  0  0  0
  186.9970  178.1620  147.2070 C   0  0  0  0  0  3  0  0  0  0  0  0
  183.9990  179.2450  145.1690 C   0  0  0  0  0  2  0  0  0  0  0  0
  185.7640  178.7040  146.8410 C   0  0  0  0  0  3  0  0  0  0  0  0
  182.3490  179.5020  143.4820 F   0  0  0  0  0  0  0  0  0  0  0  0
  184.4680  178.6880  142.7900 C   0  0  0  0  0  2  0  0  0  0  0  0
  187.7720  177.4900  146.2630 C   0  0  0  0  0  3  0  0  0  0  0  0
  1  3  1  0  0  0  0
  1 17  1  1  0  0  0
  3  5  1  0  0  0  0
  3  4  1  0  0  0  0
  4  2  1  0  0  0  0
  4  6  2  0  0  0  0
  5  2  1  0  0  0  0
  7  8  1  1  0  0  0
  7  1  1  0  0  0  0
  9  7  1  0  0  0  0
 10 12  1  0  0  0  0
 10  9  1  0  0  0  0
 11 14  1  0  0  0  0
 11 16  1  0  0  0  0
 13 14  1  0  0  0  0
 14 10  2  0  0  0  0
 15 11  1  0  0  0  0
 16 12  2  0  0  0  0
 17 20  1  0  0  0  0
 18 22  1  0  0  0  0
 19 25  1  0  0  0  0
 20 28  2  0  0  0  0
 21 26  1  6  0  0  0
 21 24  1  0  0  0  0
 22 20  1  0  0  0  0
 22 19  2  0  0  0  0
 24 19  1  0  0  0  0
 25 23  2  0  0  0  0
 27 18  1  0  0  0  0
 27 21  1  0  0  0  0
 28 23  1  0  0  0  0
M  END
>  <MODEL>
3

>  <REMARK>
 VINA RESULT:      -9.2      1.818      2.375
  Name = 
  6 active torsions:
  status: ('A' for Active; 'I' for Inactive)
    1  A    between atoms: C_1  and  C_2
    2  A    between atoms: C_1  and  C_27
    3  A    between atoms: C_2  and  C_3
    4  A    between atoms: C_10  and  C_17
    5  A    between atoms: N_16  and  C_27
    6  A    between atoms: C_17  and  C_27
                            x       y       z     vdW  Elec       q    Type
                         _______ _______ _______ _____ _____    ______ ____

>  <TORSDO>
F 6

$$$$
=
 OpenBabel10262420453D

 28 31  0  0  1  0  0  0  0  0999 V2000
  187.9830  177.9420  142.0700 C   0  0  1  0  0  3  0  0  0  0  0  0
  189.8280  177.3610  139.1610 C   0  0  0  0  0  2  0  0  0  0  0  0
  188.7350  177.7000  140.8430 N   0  0  0  0  0  0  0  0  0  0  0  0
  188.5570  178.0410  139.4170 C   0  0  0  0  0  0  0  0  0  0  0  0
  189.9500  177.0670  140.5180 N   0  0  0  0  0  2  0  0  0  0  0  0
  187.6960  178.6480  138.7290 O   0  0  0  0  0  0  0  0  0  0  0  0
  186.5500  178.3840  141.7750 C   0  0  2  0  0  3  0  0  0  0  0  0
  186.4770  179.7700  141.6220 O   0  0  0  0  0  1  0  0  0  0  0  0
  185.6000  177.9320  142.8730 C   0  0  0  0  0  2  0  0  0  0  0  0
  184.1960  178.3210  142.5450 C   0  0  0  0  0  0  0  0  0  0  0  0
  182.1160  178.9530  142.6870 N   0  0  0  0  0  0  0  0  0  0  0  0
  183.6320  178.1870  141.3270 N   0  0  0  0  0  0  0  0  0  0  0  0
  183.3780  179.0760  144.8680 C   0  0  0  0  0  1  0  0  0  0  0  0
  183.2360  178.7980  143.4110 C   0  0  0  0  0  0  0  0  0  0  0  0
  180.8270  179.4320  143.1540 C   0  0  0  0  0  1  0  0  0  0  0  0
  182.3700  178.5820  141.4430 N   0  0  0  0  0  0  0  0  0  0  0  0
  187.9780  176.7070  142.9580 C   0  0  0  0  0  2  0  0  0  0  0  0
  187.2800  177.3630  145.7460 C   0  0  0  0  0  2  0  0  0  0  0  0
  189.7610  177.2900  146.2890 C   0  0  0  0  0  0  0  0  0  0  0  0
  189.0370  176.8250  144.0080 C   0  0  0  0  0  0  0  0  0  0  0  0
  188.0400  177.5650  148.1050 C   0  0  1  0  0  3  0  0  0  0  0  0
  188.7220  177.1900  145.3340 C   0  0  0  0  0  0  0  0  0  0  0  0
  191.3890  176.7140  144.5880 C   0  0  0  0  0  3  0  0  0  0  0  0
  189.4980  177.7470  147.6980 C   0  0  0  0  0  2  0  0  0  0  0  0
  191.0850  177.0650  145.9050 C   0  0  0  0  0  3  0  0  0  0  0  0
  187.8150  178.2020  149.3100 F   0  0  0  0  0  0  0  0  0  0  0  0
  187.1350  178.1610  147.0380 C   0  0  0  0  0  2  0  0  0  0  0  0
  190.3690  176.5960  143.6450 C   0  0  0  0  0  3  0  0  0  0  0  0
  1 17  1  1  0  0  0
  2  4  1  0  0  0  0
  2  5  1  0  0  0  0
  3  1  1  0  0  0  0
  4  3  1  0  0  0  0
  5  3  1  0  0  0  0
  6  4  2  0  0  0  0
  7  8  1  1  0  0  0
  7  1  1  0  0  0  0
  7  9  1  0  0  0  0
 10  9  1  0  0  0  0
 10 14  2  0  0  0  0
 11 15  1  0  0  0  0
 11 14  1  0  0  0  0
 12 16  2  0  0  0  0
 12 10  1  0  0  0  0
 14 13  1  0  0  0  0
 16 11  1  0  0  0  0
 17 20  1  0  0  0  0
 18 27  1  0  0  0  0
 19 24  1  0  0  0  0
 20 22  1  0  0  0  0
 21 26  1  1  0  0  0
 22 18  1  0  0  0  0
 22 19  2  0  0  0  0
 23 25  2  0  0  0  0
 24 21  1  0  0  0  0
 25 19  1  0  0  0  0
 27 21  1  0  0  0  0
 28 20  2  0  0  0  0
 28 23  1  0  0  0  0
M  END
>  <MODEL>
4

>  <REMARK>
 VINA RESULT:      -9.2      3.541      6.144
  Name = 
  6 active torsions:
  status: ('A' for Active; 'I' for Inactive)
    1  A    between atoms: C_1  and  C_2
    2  A    between atoms: C_1  and  C_27
    3  A    between atoms: C_2  and  C_3
    4  A    between atoms: C_10  and  C_17
    5  A    between atoms: N_16  and  C_27
    6  A    between atoms: C_17  and  C_27
                            x       y       z     vdW  Elec       q    Type
                         _______ _______ _______ _____ _____    ______ ____

>  <TORSDO>
F 6

$$$$
=
 OpenBabel10262420453D

 28 31  0  0  1  0  0  0  0  0999 V2000
  188.3010  177.9460  142.7190 C   0  0  1  0  0  3  0  0  0  0  0  0
  191.6590  177.0130  142.4750 C   0  0  0  0  0  2  0  0  0  0  0  0
  189.7100  177.5780  142.6180 N   0  0  0  0  0  0  0  0  0  0  0  0
  190.9850  178.1640  143.0790 C   0  0  0  0  0  0  0  0  0  0  0  0
  190.4300  176.5010  142.0650 N   0  0  0  0  0  2  0  0  0  0  0  0
  191.3350  179.1930  143.7110 O   0  0  0  0  0  0  0  0  0  0  0  0
  187.6680  178.1320  141.3410 C   0  0  2  0  0  3  0  0  0  0  0  0
  188.6140  178.5690  140.4110 O   0  0  0  0  0  1  0  0  0  0  0  0
  186.5060  179.1110  141.3990 C   0  0  0  0  0  2  0  0  0  0  0  0
  185.4960  178.7900  140.3460 C   0  0  0  0  0  0  0  0  0  0  0  0
  183.6640  178.2260  139.3130 N   0  0  0  0  0  0  0  0  0  0  0  0
  185.7790  178.6530  139.0340 N   0  0  0  0  0  0  0  0  0  0  0  0
  183.3930  178.5010  141.8060 C   0  0  0  0  0  1  0  0  0  0  0  0
  184.1600  178.5110  140.5270 C   0  0  0  0  0  0  0  0  0  0  0  0
  182.2960  177.8670  138.9830 C   0  0  0  0  0  1  0  0  0  0  0  0
  184.6470  178.3150  138.4310 N   0  0  0  0  0  0  0  0  0  0  0  0
  187.5240  176.9130  143.5180 C   0  0  0  0  0  2  0  0  0  0  0  0
  189.0530  177.2730  146.0140 C   0  0  0  0  0  2  0  0  0  0  0  0
  186.9650  178.2970  147.0380 C   0  0  0  0  0  0  0  0  0  0  0  0
  186.8990  177.5540  144.7170 C   0  0  0  0  0  0  0  0  0  0  0  0
  189.1530  178.2860  148.2820 C   0  0  1  0  0  3  0  0  0  0  0  0
  187.6020  177.6850  145.9330 C   0  0  0  0  0  0  0  0  0  0  0  0
  184.9500  178.5860  145.7230 C   0  0  0  0  0  3  0  0  0  0  0  0
  187.6360  178.3970  148.3810 C   0  0  0  0  0  2  0  0  0  0  0  0
  185.6410  178.7290  146.9270 C   0  0  0  0  0  3  0  0  0  0  0  0
  189.6890  178.1590  149.5490 F   0  0  0  0  0  0  0  0  0  0  0  0
  189.5210  177.0670  147.4500 C   0  0  0  0  0  2  0  0  0  0  0  0
  185.5770  178.0010  144.6240 C   0  0  0  0  0  3  0  0  0  0  0  0
  1 17  1  6  0  0  0
  2  4  1  0  0  0  0
  3  1  1  0  0  0  0
  3  4  1  0  0  0  0
  4  6  2  0  0  0  0
  5  2  1  0  0  0  0
  5  3  1  0  0  0  0
  7  8  1  6  0  0  0
  7  9  1  0  0  0  0
  7  1  1  0  0  0  0
 10 14  2  0  0  0  0
 10  9  1  0  0  0  0
 11 14  1  0  0  0  0
 12 10  1  0  0  0  0
 14 13  1  0  0  0  0
 15 11  1  0  0  0  0
 16 12  2  0  0  0  0
 16 11  1  0  0  0  0
 17 20  1  0  0  0  0
 18 27  1  0  0  0  0
 19 24  1  0  0  0  0
 20 22  1  0  0  0  0
 21 24  1  0  0  0  0
 21 26  1  1  0  0  0
 22 18  1  0  0  0  0
 22 19  2  0  0  0  0
 23 25  2  0  0  0  0
 25 19  1  0  0  0  0
 27 21  1  0  0  0  0
 28 20  2  0  0  0  0
 28 23  1  0  0  0  0
M  END
>  <MODEL>
5

>  <REMARK>
 VINA RESULT:      -9.1      3.083      4.709
  Name = 
  6 active torsions:
  status: ('A' for Active; 'I' for Inactive)
    1  A    between atoms: C_1  and  C_2
    2  A    between atoms: C_1  and  C_27
    3  A    between atoms: C_2  and  C_3
    4  A    between atoms: C_10  and  C_17
    5  A    between atoms: N_16  and  C_27
    6  A    between atoms: C_17  and  C_27
                            x       y       z     vdW  Elec       q    Type
                         _______ _______ _______ _____ _____    ______ ____

>  <TORSDO>
F 6

$$$$
=
 OpenBabel10262420453D

 28 31  0  0  1  0  0  0  0  0999 V2000
  188.5050  178.2300  142.5030 C   0  0  1  0  0  3  0  0  0  0  0  0
  191.8080  177.1770  142.9340 C   0  0  0  0  0  2  0  0  0  0  0  0
  189.8780  177.7710  142.6930 N   0  0  0  0  0  0  0  0  0  0  0  0
  190.5380  176.4570  142.8280 C   0  0  0  0  0  0  0  0  0  0  0  0
  191.1380  178.3920  142.8010 N   0  0  0  0  0  2  0  0  0  0  0  0
  190.1710  175.2540  142.8420 O   0  0  0  0  0  0  0  0  0  0  0  0
  188.2180  178.5550  141.0370 C   0  0  2  0  0  3  0  0  0  0  0  0
  186.8440  178.6350  140.8030 O   0  0  0  0  0  1  0  0  0  0  0  0
  188.8440  177.5210  140.1140 C   0  0  0  0  0  2  0  0  0  0  0  0
  188.7410  177.9590  138.6900 C   0  0  0  0  0  0  0  0  0  0  0  0
  188.4940  177.9860  136.5260 N   0  0  0  0  0  0  0  0  0  0  0  0
  189.0540  179.1930  138.2460 N   0  0  0  0  0  0  0  0  0  0  0  0
  188.0020  175.7510  137.5870 C   0  0  0  0  0  1  0  0  0  0  0  0
  188.3950  177.1890  137.6010 C   0  0  0  0  0  0  0  0  0  0  0  0
  188.2320  177.6320  135.1420 C   0  0  0  0  0  1  0  0  0  0  0  0
  188.8910  179.1820  136.9300 N   0  0  0  0  0  0  0  0  0  0  0  0
  187.5110  177.2000  143.0150 C   0  0  0  0  0  2  0  0  0  0  0  0
  188.6090  177.3880  145.7460 C   0  0  0  0  0  2  0  0  0  0  0  0
  186.3870  178.3840  146.4730 C   0  0  0  0  0  0  0  0  0  0  0  0
  186.7010  177.7800  144.1320 C   0  0  0  0  0  0  0  0  0  0  0  0
  188.3400  178.2630  148.0570 C   0  0  1  0  0  3  0  0  0  0  0  0
  187.1940  177.8280  145.4520 C   0  0  0  0  0  0  0  0  0  0  0  0
  184.6190  178.7830  144.8650 C   0  0  0  0  0  3  0  0  0  0  0  0
  186.8270  178.3930  147.9110 C   0  0  0  0  0  2  0  0  0  0  0  0
  185.1030  178.8440  146.1720 C   0  0  0  0  0  3  0  0  0  0  0  0
  188.6580  178.0540  149.3850 F   0  0  0  0  0  0  0  0  0  0  0  0
  188.8320  177.0900  147.2240 C   0  0  0  0  0  2  0  0  0  0  0  0
  185.4150  178.2530  143.8500 C   0  0  0  0  0  3  0  0  0  0  0  0
  1  3  1  0  0  0  0
  1 17  1  6  0  0  0
  3  5  1  0  0  0  0
  3  4  1  0  0  0  0
  4  6  2  0  0  0  0
  4  2  1  0  0  0  0
  5  2  1  0  0  0  0
  7  8  1  1  0  0  0
  7  1  1  0  0  0  0
  9  7  1  0  0  0  0
 10  9  1  0  0  0  0
 11 16  1  0  0  0  0
 11 14  1  0  0  0  0
 12 10  1  0  0  0  0
 13 14  1  0  0  0  0
 14 10  2  0  0  0  0
 15 11  1  0  0  0  0
 16 12  2  0  0  0  0
 17 20  1  0  0  0  0
 18 27  1  0  0  0  0
 19 24  1  0  0  0  0
 20 22  1  0  0  0  0
 21 26  1  1  0  0  0
 22 18  1  0  0  0  0
 22 19  2  0  0  0  0
 23 25  2  0  0  0  0
 24 21  1  0  0  0  0
 25 19  1  0  0  0  0
 27 21  1  0  0  0  0
 28 20  2  0  0  0  0
 28 23  1  0  0  0  0
M  END
>  <MODEL>
6

>  <REMARK>
 VINA RESULT:      -9.0      2.662      3.867
  Name = 
  6 active torsions:
  status: ('A' for Active; 'I' for Inactive)
    1  A    between atoms: C_1  and  C_2
    2  A    between atoms: C_1  and  C_27
    3  A    between atoms: C_2  and  C_3
    4  A    between atoms: C_10  and  C_17
    5  A    between atoms: N_16  and  C_27
    6  A    between atoms: C_17  and  C_27
                            x       y       z     vdW  Elec       q    Type
                         _______ _______ _______ _____ _____    ______ ____

>  <TORSDO>
F 6

$$$$
=
 OpenBabel10262420453D

 28 31  0  0  1  0  0  0  0  0999 V2000
  188.9320  178.2910  142.6010 C   0  0  1  0  0  3  0  0  0  0  0  0
  191.9570  178.4040  144.3460 C   0  0  0  0  0  2  0  0  0  0  0  0
  190.1910  178.3180  143.3380 N   0  0  0  0  0  0  0  0  0  0  0  0
  191.1460  177.3020  143.8250 C   0  0  0  0  0  0  0  0  0  0  0  0
  191.0260  179.3240  143.8650 N   0  0  0  0  0  2  0  0  0  0  0  0
  191.2270  176.0470  143.8010 O   0  0  0  0  0  0  0  0  0  0  0  0
  189.1640  178.2190  141.0920 C   0  0  2  0  0  3  0  0  0  0  0  0
  188.0050  178.5630  140.3920 O   0  0  0  0  0  1  0  0  0  0  0  0
  189.6310  176.8330  140.6760 C   0  0  0  0  0  2  0  0  0  0  0  0
  190.9360  176.9150  139.9540 C   0  0  0  0  0  0  0  0  0  0  0  0
  192.5480  176.6380  138.5160 N   0  0  0  0  0  0  0  0  0  0  0  0
  192.0450  177.5040  140.4470 N   0  0  0  0  0  0  0  0  0  0  0  0
  190.3650  175.5750  137.8290 C   0  0  0  0  0  1  0  0  0  0  0  0
  191.2540  176.3560  138.7360 C   0  0  0  0  0  0  0  0  0  0  0  0
  193.3460  176.2620  137.3620 C   0  0  0  0  0  1  0  0  0  0  0  0
  193.0060  177.3240  139.5500 N   0  0  0  0  0  0  0  0  0  0  0  0
  188.0610  177.1300  143.0540 C   0  0  0  0  0  2  0  0  0  0  0  0
  185.2800  178.0440  142.6940 C   0  0  0  0  0  2  0  0  0  0  0  0
  185.1690  178.4040  145.2070 C   0  0  0  0  0  0  0  0  0  0  0  0
  187.2280  177.5390  144.2270 C   0  0  0  0  0  0  0  0  0  0  0  0
  183.1240  178.6670  143.7630 C   0  0  1  0  0  3  0  0  0  0  0  0
  185.9150  178.0280  144.0650 C   0  0  0  0  0  0  0  0  0  0  0  0
  187.0540  177.8490  146.6260 C   0  0  0  0  0  3  0  0  0  0  0  0
  183.7940  179.0030  145.0910 C   0  0  0  0  0  2  0  0  0  0  0  0
  185.7500  178.3240  146.4750 C   0  0  0  0  0  3  0  0  0  0  0  0
  181.9740  179.4200  143.6250 F   0  0  0  0  0  0  0  0  0  0  0  0
  184.0770  178.9780  142.6200 C   0  0  0  0  0  2  0  0  0  0  0  0
  187.7880  177.4590  145.5070 C   0  0  0  0  0  3  0  0  0  0  0  0
  1 17  1  1  0  0  0
  1  3  1  0  0  0  0
  3  4  1  0  0  0  0
  3  5  1  0  0  0  0
  4  2  1  0  0  0  0
  5  2  1  0  0  0  0
  6  4  2  0  0  0  0
  7  8  1  6  0  0  0
  7  1  1  0  0  0  0
  9  7  1  0  0  0  0
 10 12  1  0  0  0  0
 10  9  1  0  0  0  0
 11 14  1  0  0  0  0
 11 16  1  0  0  0  0
 13 14  1  0  0  0  0
 14 10  2  0  0  0  0
 15 11  1  0  0  0  0
 16 12  2  0  0  0  0
 17 20  1  0  0  0  0
 18 22  1  0  0  0  0
 19 25  1  0  0  0  0
 20 28  2  0  0  0  0
 21 26  1  6  0  0  0
 21 24  1  0  0  0  0
 22 20  1  0  0  0  0
 22 19  2  0  0  0  0
 24 19  1  0  0  0  0
 25 23  2  0  0  0  0
 27 18  1  0  0  0  0
 27 21  1  0  0  0  0
 28 23  1  0  0  0  0
M  END
>  <MODEL>
7

>  <REMARK>
 VINA RESULT:      -8.9      1.859      2.396
  Name = 
  6 active torsions:
  status: ('A' for Active; 'I' for Inactive)
    1  A    between atoms: C_1  and  C_2
    2  A    between atoms: C_1  and  C_27
    3  A    between atoms: C_2  and  C_3
    4  A    between atoms: C_10  and  C_17
    5  A    between atoms: N_16  and  C_27
    6  A    between atoms: C_17  and  C_27
                            x       y       z     vdW  Elec       q    Type
                         _______ _______ _______ _____ _____    ______ ____

>  <TORSDO>
F 6

$$$$
=
 OpenBabel10262420453D

 28 31  0  0  1  0  0  0  0  0999 V2000
  188.9690  178.2940  142.4990 C   0  0  1  0  0  3  0  0  0  0  0  0
  192.0180  178.4800  144.1940 C   0  0  0  0  0  2  0  0  0  0  0  0
  190.2400  178.3510  143.2150 N   0  0  0  0  0  0  0  0  0  0  0  0
  191.2430  177.3610  143.6550 C   0  0  0  0  0  0  0  0  0  0  0  0
  191.0430  179.3740  143.7560 N   0  0  0  0  0  2  0  0  0  0  0  0
  191.3730  176.1110  143.5930 O   0  0  0  0  0  0  0  0  0  0  0  0
  189.1780  178.1440  140.9920 C   0  0  2  0  0  3  0  0  0  0  0  0
  187.9970  178.4110  140.2950 O   0  0  0  0  0  1  0  0  0  0  0  0
  189.6820  176.7520  140.6450 C   0  0  0  0  0  2  0  0  0  0  0  0
  190.9570  176.8350  139.8700 C   0  0  0  0  0  0  0  0  0  0  0  0
  192.4950  176.5900  138.3480 N   0  0  0  0  0  0  0  0  0  0  0  0
  192.1040  177.3650  140.3420 N   0  0  0  0  0  0  0  0  0  0  0  0
  190.2520  175.6300  137.7050 C   0  0  0  0  0  1  0  0  0  0  0  0
  191.2030  176.3350  138.6110 C   0  0  0  0  0  0  0  0  0  0  0  0
  193.2300  176.2550  137.1400 C   0  0  0  0  0  1  0  0  0  0  0  0
  193.0190  177.2060  139.3950 N   0  0  0  0  0  0  0  0  0  0  0  0
  188.0990  177.1630  143.0230 C   0  0  0  0  0  2  0  0  0  0  0  0
  188.6280  177.3960  145.9140 C   0  0  0  0  0  2  0  0  0  0  0  0
  186.2640  178.2880  146.1830 C   0  0  0  0  0  0  0  0  0  0  0  0
  187.0590  177.7030  143.9540 C   0  0  0  0  0  0  0  0  0  0  0  0
  187.8710  178.2540  148.1210 C   0  0  1  0  0  3  0  0  0  0  0  0
  187.2800  177.7710  145.3450 C   0  0  0  0  0  0  0  0  0  0  0  0
  184.8310  178.6090  144.2550 C   0  0  0  0  0  3  0  0  0  0  0  0
  186.4120  178.3150  147.6790 C   0  0  0  0  0  2  0  0  0  0  0  0
  185.0450  178.6890  145.6320 C   0  0  0  0  0  3  0  0  0  0  0  0
  187.9300  178.0570  149.4860 F   0  0  0  0  0  0  0  0  0  0  0  0
  188.5690  177.1060  147.4100 C   0  0  0  0  0  2  0  0  0  0  0  0
  185.8340  178.1180  143.4210 C   0  0  0  0  0  3  0  0  0  0  0  0
  1 17  1  1  0  0  0
  1  3  1  0  0  0  0
  3  4  1  0  0  0  0
  3  5  1  0  0  0  0
  4  2  1  0  0  0  0
  5  2  1  0  0  0  0
  6  4  2  0  0  0  0
  7  8  1  6  0  0  0
  7  1  1  0  0  0  0
  9  7  1  0  0  0  0
 10 12  1  0  0  0  0
 10  9  1  0  0  0  0
 11 14  1  0  0  0  0
 11 16  1  0  0  0  0
 13 14  1  0  0  0  0
 14 10  2  0  0  0  0
 15 11  1  0  0  0  0
 16 12  2  0  0  0  0
 17 20  1  0  0  0  0
 18 27  1  0  0  0  0
 19 24  1  0  0  0  0
 20 22  1  0  0  0  0
 21 26  1  1  0  0  0
 22 18  1  0  0  0  0
 22 19  2  0  0  0  0
 23 25  2  0  0  0  0
 24 21  1  0  0  0  0
 25 19  1  0  0  0  0
 27 21  1  0  0  0  0
 28 20  2  0  0  0  0
 28 23  1  0  0  0  0
M  END
>  <MODEL>
8

>  <REMARK>
 VINA RESULT:      -8.9      2.492      3.627
  Name = 
  6 active torsions:
  status: ('A' for Active; 'I' for Inactive)
    1  A    between atoms: C_1  and  C_2
    2  A    between atoms: C_1  and  C_27
    3  A    between atoms: C_2  and  C_3
    4  A    between atoms: C_10  and  C_17
    5  A    between atoms: N_16  and  C_27
    6  A    between atoms: C_17  and  C_27
                            x       y       z     vdW  Elec       q    Type
                         _______ _______ _______ _____ _____    ______ ____

>  <TORSDO>
F 6

$$$$
=
 OpenBabel10262420453D

 28 31  0  0  1  0  0  0  0  0999 V2000
  188.1160  177.5230  141.1030 C   0  0  1  0  0  3  0  0  0  0  0  0
  189.7670  178.1020  138.0790 C   0  0  0  0  0  2  0  0  0  0  0  0
  188.8240  177.7530  139.8470 N   0  0  0  0  0  0  0  0  0  0  0  0
  189.8750  177.0470  139.0880 C   0  0  0  0  0  0  0  0  0  0  0  0
  188.7760  178.7290  138.8320 N   0  0  0  0  0  2  0  0  0  0  0  0
  190.5580  176.0020  139.2410 O   0  0  0  0  0  0  0  0  0  0  0  0
  188.9770  176.7480  142.1000 C   0  0  2  0  0  3  0  0  0  0  0  0
  188.1830  175.9710  142.9470 O   0  0  0  0  0  1  0  0  0  0  0  0
  189.8460  177.6880  142.9200 C   0  0  0  0  0  2  0  0  0  0  0  0
  190.6190  176.9260  143.9470 C   0  0  0  0  0  0  0  0  0  0  0  0
  191.4730  176.2310  145.8260 N   0  0  0  0  0  0  0  0  0  0  0  0
  191.5570  176.0000  143.6640 N   0  0  0  0  0  0  0  0  0  0  0  0
  189.7100  178.0150  146.0980 C   0  0  0  0  0  1  0  0  0  0  0  0
  190.5700  177.0820  145.3150 C   0  0  0  0  0  0  0  0  0  0  0  0
  191.7940  176.0250  147.2280 C   0  0  0  0  0  1  0  0  0  0  0  0
  192.0550  175.5920  144.8240 N   0  0  0  0  0  0  0  0  0  0  0  0
  187.6550  178.8350  141.7170 C   0  0  0  0  0  2  0  0  0  0  0  0
  186.6470  178.6220  144.4800 C   0  0  0  0  0  2  0  0  0  0  0  0
  184.2940  178.5820  143.5220 C   0  0  0  0  0  0  0  0  0  0  0  0
  186.1860  178.7820  141.9980 C   0  0  0  0  0  0  0  0  0  0  0  0
  184.6860  178.6890  146.0060 C   0  0  1  0  0  3  0  0  0  0  0  0
  185.6920  178.6280  143.3100 C   0  0  0  0  0  0  0  0  0  0  0  0
  183.9200  178.7940  141.1370 C   0  0  0  0  0  3  0  0  0  0  0  0
  183.7090  178.3430  144.8870 C   0  0  0  0  0  2  0  0  0  0  0  0
  183.4220  178.6510  142.4330 C   0  0  0  0  0  3  0  0  0  0  0  0
  184.1810  178.2420  147.2110 F   0  0  0  0  0  0  0  0  0  0  0  0
  186.0260  178.0220  145.7360 C   0  0  0  0  0  2  0  0  0  0  0  0
  185.2960  178.8590  140.9210 C   0  0  0  0  0  3  0  0  0  0  0  0
  1 17  1  1  0  0  0
  1  7  1  0  0  0  0
  2  5  1  0  0  0  0
  2  4  1  0  0  0  0
  3  1  1  0  0  0  0
  4  6  2  0  0  0  0
  4  3  1  0  0  0  0
  5  3  1  0  0  0  0
  7  9  1  0  0  0  0
  7  8  1  1  0  0  0
  9 10  1  0  0  0  0
 10 14  2  0  0  0  0
 11 15  1  0  0  0  0
 12 10  1  0  0  0  0
 12 16  2  0  0  0  0
 14 11  1  0  0  0  0
 14 13  1  0  0  0  0
 16 11  1  0  0  0  0
 17 20  1  0  0  0  0
 18 27  1  0  0  0  0
 19 24  1  0  0  0  0
 20 22  2  0  0  0  0
 21 26  1  1  0  0  0
 22 19  1  0  0  0  0
 22 18  1  0  0  0  0
 23 25  1  0  0  0  0
 24 21  1  0  0  0  0
 25 19  2  0  0  0  0
 27 21  1  0  0  0  0
 28 23  2  0  0  0  0
 28 20  1  0  0  0  0
M  END
>  <MODEL>
9

>  <REMARK>
 VINA RESULT:      -8.4      2.049      5.229
  Name = 
  6 active torsions:
  status: ('A' for Active; 'I' for Inactive)
    1  A    between atoms: C_1  and  C_2
    2  A    between atoms: C_1  and  C_27
    3  A    between atoms: C_2  and  C_3
    4  A    between atoms: C_10  and  C_17
    5  A    between atoms: N_16  and  C_27
    6  A    between atoms: C_17  and  C_27
                            x       y       z     vdW  Elec       q    Type
                         _______ _______ _______ _____ _____    ______ ____

>  <TORSDO>
F 6

$$$$
