=
 OpenBabel10262421223D

 32 37  0  0  1  0  0  0  0  0999 V2000
  187.4620  177.4310  147.0240 O   0  0  0  0  0  0  0  0  0  0  0  0
  185.9630  178.6620  142.2180 C   0  0  1  0  0  3  0  0  0  0  0  0
  181.2400  178.9170  143.6340 C   0  0  0  0  0  3  0  0  0  0  0  0
  180.8240  178.4960  142.3740 C   0  0  0  0  0  3  0  0  0  0  0  0
  186.3700  178.3950  139.7620 C   0  0  0  0  0  0  0  0  0  0  0  0
  185.8560  178.1310  138.4200 C   0  0  0  0  0  0  0  0  0  0  0  0
  187.3230  177.7890  144.1360 C   0  0  1  0  0  3  0  0  0  0  0  0
  185.3530  179.3120  144.5910 C   0  0  0  0  0  2  0  0  0  0  0  0
  184.4150  177.6250  136.8230 N   0  0  0  0  0  0  0  0  0  0  0  0
  186.7500  178.5130  146.4880 C   0  0  0  0  0  2  0  0  0  0  0  0
  182.5980  179.0880  143.8970 C   0  0  0  0  0  3  0  0  0  0  0  0
  184.8750  178.9930  143.2030 C   0  0  0  0  0  0  0  0  0  0  0  0
  183.5680  178.8430  142.9070 C   0  0  0  0  0  0  0  0  0  0  0  0
  184.0370  178.1890  140.6300 C   0  0  0  0  0  0  0  0  0  0  0  0
  185.6100  177.7750  136.0990 N   0  0  0  0  0  0  0  0  0  0  0  0
  189.1550  177.1930  145.2840 C   0  0  0  0  0  2  0  0  0  0  0  0
  186.1860  178.1440  145.1190 C   0  0  2  0  0  3  0  0  0  0  0  0
  186.6060  178.1180  137.1300 C   0  0  0  0  0  3  0  0  0  0  0  0
  188.0340  176.6780  144.6110 O   0  0  0  0  0  0  0  0  0  0  0  0
  188.8100  177.6690  146.7060 C   0  0  2  0  0  3  0  0  0  0  0  0
  181.7680  178.2500  141.3780 C   0  0  0  0  0  3  0  0  0  0  0  0
  183.1450  178.4190  141.6180 C   0  0  0  0  0  0  0  0  0  0  0  0
  183.5610  177.7040  139.2680 C   0  0  0  0  0  2  0  0  0  0  0  0
  186.7600  177.4700  142.7490 C   0  0  0  0  0  2  0  0  0  0  0  0
  187.5970  178.6290  139.9350 O   0  0  0  0  0  0  0  0  0  0  0  0
  183.1540  177.2620  136.1990 C   0  0  0  0  0  1  0  0  0  0  0  0
  185.4520  178.3930  140.8700 N   0  0  0  0  0  0  0  0  0  0  0  0
  184.6040  177.8550  138.2000 C   0  0  0  0  0  0  0  0  0  0  0  0
  189.7130  176.9660  147.7050 C   0  0  0  0  0  2  0  0  0  0  0  0
  191.0210  176.6230  147.0780 C   0  0  0  0  0  0  0  0  0  0  0  0
  191.6580  177.5410  146.2550 O   0  0  0  0  0  0  0  0  0  0  0  0
  191.5610  175.5120  147.3180 O   0  0  0  0  0  1  0  0  0  0  0  0
  2 24  1  1  0  0  0
  2 12  1  0  0  0  0
  3 11  2  0  0  0  0
  4  3  1  0  0  0  0
  5 25  2  0  0  0  0
  5 27  1  0  0  0  0
  6  5  1  0  0  0  0
  7 24  1  6  0  0  0
  7 19  1  0  0  0  0
  7 17  1  0  0  0  0
  9 28  1  0  0  0  0
 10  1  1  0  0  0  0
 12  8  1  0  0  0  0
 13 12  2  0  0  0  0
 13 11  1  0  0  0  0
 14 27  1  0  0  0  0
 14 22  2  0  0  0  0
 15  9  1  0  0  0  0
 15 18  2  0  0  0  0
 16 20  1  0  0  0  0
 17  8  1  6  0  0  0
 17 10  1  0  0  0  0
 18  6  1  0  0  0  0
 19 16  1  0  0  0  0
 20  1  1  0  0  0  0
 20 29  1  1  0  0  0
 21 22  1  0  0  0  0
 21  4  2  0  0  0  0
 22 13  1  0  0  0  0
 23 14  1  0  0  0  0
 26  9  1  0  0  0  0
 27  2  1  0  0  0  0
 28  6  2  0  0  0  0
 28 23  1  0  0  0  0
 30 32  1  0  0  0  0
 30 29  1  0  0  0  0
 31 30  2  0  0  0  0
M  END
>  <MODEL>
1

>  <REMARK>
 VINA RESULT:     -10.0      0.000      0.000
  Name = 
  2 active torsions:
  status: ('A' for Active; 'I' for Inactive)
    1  A    between atoms: C_1  and  C_10
    2  A    between atoms: C_10  and  C_24
                            x       y       z     vdW  Elec       q    Type
                         _______ _______ _______ _____ _____    ______ ____

>  <TORSDO>
F 2

$$$$
=
 OpenBabel10262421223D

 32 37  0  0  1  0  0  0  0  0999 V2000
  185.8030  177.8850  147.2230 O   0  0  0  0  0  0  0  0  0  0  0  0
  185.1370  178.8120  142.1680 C   0  0  1  0  0  3  0  0  0  0  0  0
  180.2280  178.8160  142.6990 C   0  0  0  0  0  3  0  0  0  0  0  0
  180.0740  178.3160  141.4090 C   0  0  0  0  0  3  0  0  0  0  0  0
  186.0000  178.4700  139.8420 C   0  0  0  0  0  0  0  0  0  0  0  0
  185.7550  178.1170  138.4460 C   0  0  0  0  0  0  0  0  0  0  0  0
  186.1720  178.1110  144.3420 C   0  0  1  0  0  3  0  0  0  0  0  0
  184.0680  179.5200  144.3560 C   0  0  0  0  0  2  0  0  0  0  0  0
  184.6600  177.4520  136.6450 N   0  0  0  0  0  0  0  0  0  0  0  0
  185.1400  178.8940  146.5120 C   0  0  0  0  0  2  0  0  0  0  0  0
  181.5030  179.0860  143.1920 C   0  0  0  0  0  3  0  0  0  0  0  0
  183.8710  179.1120  142.9240 C   0  0  0  0  0  0  0  0  0  0  0  0
  182.6500  178.8650  142.4060 C   0  0  0  0  0  0  0  0  0  0  0  0
  183.5630  178.1480  140.2880 C   0  0  0  0  0  0  0  0  0  0  0  0
  185.9560  177.6490  136.1410 N   0  0  0  0  0  0  0  0  0  0  0  0
  187.7950  177.6850  145.8300 C   0  0  0  0  0  2  0  0  0  0  0  0
  184.8560  178.4320  145.0850 C   0  0  2  0  0  3  0  0  0  0  0  0
  186.7270  178.0990  137.3140 C   0  0  0  0  0  3  0  0  0  0  0  0
  186.8460  177.0700  144.9960 O   0  0  0  0  0  0  0  0  0  0  0  0
  187.1700  178.1970  147.1400 C   0  0  2  0  0  3  0  0  0  0  0  0
  181.1960  178.0910  140.6120 C   0  0  0  0  0  3  0  0  0  0  0  0
  182.4950  178.3610  141.0860 C   0  0  0  0  0  0  0  0  0  0  0  0
  183.3710  177.5770  138.8900 C   0  0  0  0  0  2  0  0  0  0  0  0
  185.8900  177.6990  142.8960 C   0  0  0  0  0  2  0  0  0  0  0  0
  187.1590  178.7920  140.2200 O   0  0  0  0  0  0  0  0  0  0  0  0
  183.5570  176.9810  135.8260 C   0  0  0  0  0  1  0  0  0  0  0  0
  184.8970  178.4550  140.7670 N   0  0  0  0  0  0  0  0  0  0  0  0
  184.5810  177.7510  138.0200 C   0  0  0  0  0  0  0  0  0  0  0  0
  187.9150  177.5970  148.3210 C   0  0  0  0  0  2  0  0  0  0  0  0
  189.3870  177.6880  148.1120 C   0  0  0  0  0  0  0  0  0  0  0  0
  190.0690  176.6440  147.5020 O   0  0  0  0  0  0  0  0  0  0  0  0
  190.0090  178.7250  148.4620 O   0  0  0  0  0  1  0  0  0  0  0  0
  2 24  1  1  0  0  0
  2 12  1  0  0  0  0
  3 11  2  0  0  0  0
  4  3  1  0  0  0  0
  5 25  2  0  0  0  0
  5 27  1  0  0  0  0
  6  5  1  0  0  0  0
  7 24  1  6  0  0  0
  7 19  1  0  0  0  0
  7 17  1  0  0  0  0
  9 28  1  0  0  0  0
 10  1  1  0  0  0  0
 12  8  1  0  0  0  0
 13 12  2  0  0  0  0
 13 11  1  0  0  0  0
 14 27  1  0  0  0  0
 14 22  2  0  0  0  0
 15  9  1  0  0  0  0
 15 18  2  0  0  0  0
 16 20  1  0  0  0  0
 17  8  1  6  0  0  0
 17 10  1  0  0  0  0
 18  6  1  0  0  0  0
 19 16  1  0  0  0  0
 20  1  1  0  0  0  0
 20 29  1  1  0  0  0
 21 22  1  0  0  0  0
 21  4  2  0  0  0  0
 22 13  1  0  0  0  0
 23 14  1  0  0  0  0
 26  9  1  0  0  0  0
 27  2  1  0  0  0  0
 28  6  2  0  0  0  0
 28 23  1  0  0  0  0
 30 29  1  0  0  0  0
 30 32  1  0  0  0  0
 31 30  2  0  0  0  0
M  END
>  <MODEL>
2

>  <REMARK>
 VINA RESULT:      -9.6      1.105      1.351
  Name = 
  2 active torsions:
  status: ('A' for Active; 'I' for Inactive)
    1  A    between atoms: C_1  and  C_10
    2  A    between atoms: C_10  and  C_24
                            x       y       z     vdW  Elec       q    Type
                         _______ _______ _______ _____ _____    ______ ____

>  <TORSDO>
F 2

$$$$
=
 OpenBabel10262421223D

 32 37  0  0  1  0  0  0  0  0999 V2000
  186.4060  177.3510  146.2780 O   0  0  0  0  0  0  0  0  0  0  0  0
  186.6190  178.6640  141.2690 C   0  0  1  0  0  3  0  0  0  0  0  0
  181.6930  178.6410  140.9350 C   0  0  0  0  0  3  0  0  0  0  0  0
  181.7710  178.2410  139.6040 C   0  0  0  0  0  3  0  0  0  0  0  0
  187.8760  178.4980  139.1100 C   0  0  0  0  0  0  0  0  0  0  0  0
  187.8820  178.2540  137.6700 C   0  0  0  0  0  0  0  0  0  0  0  0
  187.2680  177.7960  143.5310 C   0  0  1  0  0  3  0  0  0  0  0  0
  185.1790  179.2060  143.2840 C   0  0  0  0  0  2  0  0  0  0  0  0
  187.1240  177.7310  135.6610 N   0  0  0  0  0  0  0  0  0  0  0  0
  185.8660  178.4140  145.5410 C   0  0  0  0  0  2  0  0  0  0  0  0
  182.8600  178.8690  141.6620 C   0  0  0  0  0  3  0  0  0  0  0  0
  185.2380  178.9090  141.8130 C   0  0  0  0  0  0  0  0  0  0  0  0
  184.1280  178.7050  141.0740 C   0  0  0  0  0  0  0  0  0  0  0  0
  185.4030  178.1500  139.0990 C   0  0  0  0  0  0  0  0  0  0  0  0
  188.4860  177.9630  135.4060 N   0  0  0  0  0  0  0  0  0  0  0  0
  188.6110  177.2530  145.2430 C   0  0  0  0  0  2  0  0  0  0  0  0
  185.8390  178.0630  144.0560 C   0  0  2  0  0  3  0  0  0  0  0  0
  189.0360  178.3200  136.7260 C   0  0  0  0  0  3  0  0  0  0  0  0
  187.8290  176.7070  144.2110 O   0  0  0  0  0  0  0  0  0  0  0  0
  187.7630  177.6650  146.4590 C   0  0  2  0  0  3  0  0  0  0  0  0
  183.0170  178.0750  139.0010 C   0  0  0  0  0  3  0  0  0  0  0  0
  184.2100  178.3040  139.7120 C   0  0  0  0  0  0  0  0  0  0  0  0
  185.4640  177.6880  137.6500 C   0  0  0  0  0  2  0  0  0  0  0  0
  187.2460  177.4970  142.0310 C   0  0  0  0  0  2  0  0  0  0  0  0
  188.9490  178.7870  139.7070 O   0  0  0  0  0  0  0  0  0  0  0  0
  186.1850  177.3280  134.6290 C   0  0  0  0  0  1  0  0  0  0  0  0
  186.6300  178.4160  139.8250 N   0  0  0  0  0  0  0  0  0  0  0  0
  186.8050  177.9240  137.0190 C   0  0  0  0  0  0  0  0  0  0  0  0
  188.2980  176.9750  147.7020 C   0  0  0  0  0  2  0  0  0  0  0  0
  189.6210  177.5410  148.0870 C   0  0  0  0  0  0  0  0  0  0  0  0
  190.7890  176.8870  147.7210 O   0  0  0  0  0  0  0  0  0  0  0  0
  189.6800  178.6270  148.7200 O   0  0  0  0  0  1  0  0  0  0  0  0
  1 20  1  0  0  0  0
  2 12  1  0  0  0  0
  2 24  1  1  0  0  0
  3 11  2  0  0  0  0
  4  3  1  0  0  0  0
  5 25  2  0  0  0  0
  5 27  1  0  0  0  0
  6  5  1  0  0  0  0
  7 24  1  6  0  0  0
  7 17  1  0  0  0  0
  7 19  1  0  0  0  0
  9 28  1  0  0  0  0
 10  1  1  0  0  0  0
 12  8  1  0  0  0  0
 13 11  1  0  0  0  0
 13 12  2  0  0  0  0
 14 22  2  0  0  0  0
 14 27  1  0  0  0  0
 15  9  1  0  0  0  0
 15 18  2  0  0  0  0
 16 20  1  0  0  0  0
 17  8  1  6  0  0  0
 17 10  1  0  0  0  0
 18  6  1  0  0  0  0
 19 16  1  0  0  0  0
 20 29  1  1  0  0  0
 21  4  2  0  0  0  0
 21 22  1  0  0  0  0
 22 13  1  0  0  0  0
 23 14  1  0  0  0  0
 26  9  1  0  0  0  0
 27  2  1  0  0  0  0
 28 23  1  0  0  0  0
 28  6  2  0  0  0  0
 29 30  1  0  0  0  0
 30 32  1  0  0  0  0
 31 30  2  0  0  0  0
M  END
>  <MODEL>
3

>  <REMARK>
 VINA RESULT:      -9.5      1.415      2.074
  Name = 
  2 active torsions:
  status: ('A' for Active; 'I' for Inactive)
    1  A    between atoms: C_1  and  C_10
    2  A    between atoms: C_10  and  C_24
                            x       y       z     vdW  Elec       q    Type
                         _______ _______ _______ _____ _____    ______ ____

>  <TORSDO>
F 2

$$$$
=
 OpenBabel10262421223D

 32 37  0  0  1  0  0  0  0  0999 V2000
  192.7140  175.7370  138.4950 O   0  0  0  0  0  0  0  0  0  0  0  0
  189.1290  178.0760  141.4150 C   0  0  1  0  0  3  0  0  0  0  0  0
  191.6800  177.1030  145.5290 C   0  0  0  0  0  3  0  0  0  0  0  0
  190.4980  177.0140  146.2580 C   0  0  0  0  0  3  0  0  0  0  0  0
  186.7050  178.6270  141.7190 C   0  0  0  0  0  0  0  0  0  0  0  0
  185.5250  178.6930  142.5780 C   0  0  0  0  0  0  0  0  0  0  0  0
  190.2420  176.9110  139.4930 C   0  0  1  0  0  3  0  0  0  0  0  0
  191.6560  177.8780  141.3590 C   0  0  0  0  0  2  0  0  0  0  0  0
  184.2640  178.4530  144.3770 N   0  0  0  0  0  0  0  0  0  0  0  0
  192.7650  176.7940  139.4140 C   0  0  0  0  0  2  0  0  0  0  0  0
  191.6370  177.4130  144.1710 C   0  0  0  0  0  3  0  0  0  0  0  0
  190.4070  177.9120  142.1930 C   0  0  0  0  0  0  0  0  0  0  0  0
  190.4140  177.6410  143.5130 C   0  0  0  0  0  0  0  0  0  0  0  0
  188.0080  177.7840  143.6760 C   0  0  0  0  0  0  0  0  0  0  0  0
  183.3580  179.0100  143.4590 N   0  0  0  0  0  0  0  0  0  0  0  0
  190.6310  176.3150  137.3670 C   0  0  0  0  0  2  0  0  0  0  0  0
  191.5390  176.7620  140.3210 C   0  0  2  0  0  3  0  0  0  0  0  0
  184.1600  179.1910  142.2360 C   0  0  0  0  0  3  0  0  0  0  0  0
  190.1270  175.8450  138.5910 O   0  0  0  0  0  0  0  0  0  0  0  0
  192.1690  176.2810  137.3200 C   0  0  2  0  0  3  0  0  0  0  0  0
  189.2740  177.2380  145.6280 C   0  0  0  0  0  3  0  0  0  0  0  0
  189.2050  177.5560  144.2580 C   0  0  0  0  0  0  0  0  0  0  0  0
  186.7270  177.6550  144.4880 C   0  0  0  0  0  2  0  0  0  0  0  0
  189.0160  176.9320  140.4080 C   0  0  0  0  0  2  0  0  0  0  0  0
  186.6340  179.0010  140.5170 O   0  0  0  0  0  0  0  0  0  0  0  0
  183.8910  178.0870  145.7320 C   0  0  0  0  0  1  0  0  0  0  0  0
  187.9410  178.1410  142.2720 N   0  0  0  0  0  0  0  0  0  0  0  0
  185.5450  178.2900  143.8150 C   0  0  0  0  0  0  0  0  0  0  0  0
  192.6170  175.4730  136.1140 C   0  0  0  0  0  2  0  0  0  0  0  0
  194.0900  175.5920  135.9220 C   0  0  0  0  0  0  0  0  0  0  0  0
  194.7160  176.8190  136.0930 O   0  0  0  0  0  1  0  0  0  0  0  0
  194.7700  174.5730  135.6350 O   0  0  0  0  0  0  0  0  0  0  0  0
  1 10  1  0  0  0  0
  2 24  1  6  0  0  0
  2 12  1  0  0  0  0
  2 27  1  0  0  0  0
  3  4  1  0  0  0  0
  5 27  1  0  0  0  0
  5  6  1  0  0  0  0
  6 28  2  0  0  0  0
  7 17  1  0  0  0  0
  7 24  1  1  0  0  0
  8 12  1  0  0  0  0
  9 26  1  0  0  0  0
 11  3  2  0  0  0  0
 12 13  2  0  0  0  0
 13 11  1  0  0  0  0
 13 22  1  0  0  0  0
 14 22  2  0  0  0  0
 14 23  1  0  0  0  0
 15  9  1  0  0  0  0
 16 19  1  0  0  0  0
 17 10  1  6  0  0  0
 17  8  1  0  0  0  0
 18  6  1  0  0  0  0
 18 15  2  0  0  0  0
 19  7  1  0  0  0  0
 20 29  1  6  0  0  0
 20 16  1  0  0  0  0
 20  1  1  0  0  0  0
 21  4  2  0  0  0  0
 22 21  1  0  0  0  0
 25  5  2  0  0  0  0
 27 14  1  0  0  0  0
 28  9  1  0  0  0  0
 28 23  1  0  0  0  0
 30 31  1  0  0  0  0
 30 29  1  0  0  0  0
 32 30  2  0  0  0  0
M  END
>  <MODEL>
4

>  <REMARK>
 VINA RESULT:      -9.4      4.231      7.872
  Name = 
  2 active torsions:
  status: ('A' for Active; 'I' for Inactive)
    1  A    between atoms: C_1  and  C_10
    2  A    between atoms: C_10  and  C_24
                            x       y       z     vdW  Elec       q    Type
                         _______ _______ _______ _____ _____    ______ ____

>  <TORSDO>
F 2

$$$$
=
 OpenBabel10262421223D

 32 37  0  0  1  0  0  0  0  0999 V2000
  186.1280  177.7250  144.2980 O   0  0  0  0  0  0  0  0  0  0  0  0
  189.4150  177.7730  140.2920 C   0  0  1  0  0  3  0  0  0  0  0  0
  185.6720  177.6850  137.0730 C   0  0  0  0  0  3  0  0  0  0  0  0
  186.4510  176.9720  136.1650 C   0  0  0  0  0  3  0  0  0  0  0  0
  191.6530  177.0810  139.4080 C   0  0  0  0  0  0  0  0  0  0  0  0
  192.4600  176.4920  138.3430 C   0  0  0  0  0  0  0  0  0  0  0  0
  188.4840  177.4820  142.6030 C   0  0  1  0  0  3  0  0  0  0  0  0
  187.1710  178.7960  140.8820 C   0  0  0  0  0  2  0  0  0  0  0  0
  192.9480  175.4960  136.4310 N   0  0  0  0  0  0  0  0  0  0  0  0
  186.2850  178.5770  143.1970 C   0  0  0  0  0  2  0  0  0  0  0  0
  186.2150  178.0810  138.2940 C   0  0  0  0  0  3  0  0  0  0  0  0
  188.0310  178.1490  139.8350 C   0  0  0  0  0  0  0  0  0  0  0  0
  187.5460  177.7740  138.6340 C   0  0  0  0  0  0  0  0  0  0  0  0
  189.6320  176.7490  137.9780 C   0  0  0  0  0  0  0  0  0  0  0  0
  194.2190  175.6540  137.0090 N   0  0  0  0  0  0  0  0  0  0  0  0
  188.4780  177.3700  144.8430 C   0  0  0  0  0  2  0  0  0  0  0  0
  187.0780  177.8740  142.0980 C   0  0  2  0  0  3  0  0  0  0  0  0
  193.9420  176.3210  138.2940 C   0  0  0  0  0  3  0  0  0  0  0  0
  188.3730  176.5900  143.6780 O   0  0  0  0  0  0  0  0  0  0  0  0
  187.1540  178.0690  145.1950 C   0  0  2  0  0  3  0  0  0  0  0  0
  187.7730  176.6590  136.4800 C   0  0  0  0  0  3  0  0  0  0  0  0
  188.3450  177.0510  137.7050 C   0  0  0  0  0  0  0  0  0  0  0  0
  190.4560  175.9460  136.9810 C   0  0  0  0  0  2  0  0  0  0  0  0
  189.2970  176.8250  141.4850 C   0  0  0  0  0  2  0  0  0  0  0  0
  192.2050  177.5030  140.4600 O   0  0  0  0  0  0  0  0  0  0  0  0
  192.7400  174.8550  135.1440 C   0  0  0  0  0  1  0  0  0  0  0  0
  190.2290  177.1790  139.2280 N   0  0  0  0  0  0  0  0  0  0  0  0
  191.9300  176.0160  137.2540 C   0  0  0  0  0  0  0  0  0  0  0  0
  186.7520  177.7020  146.6130 C   0  0  0  0  0  2  0  0  0  0  0  0
  185.6980  178.6270  147.1160 C   0  0  0  0  0  0  0  0  0  0  0  0
  186.0560  179.8260  147.7160 O   0  0  0  0  0  1  0  0  0  0  0  0
  184.4830  178.3350  146.9690 O   0  0  0  0  0  0  0  0  0  0  0  0
  1 20  1  0  0  0  0
  2 24  1  1  0  0  0
  3 11  2  0  0  0  0
  4 21  2  0  0  0  0
  4  3  1  0  0  0  0
  5 25  2  0  0  0  0
  6  5  1  0  0  0  0
  7 24  1  6  0  0  0
  7 19  1  0  0  0  0
  9 15  1  0  0  0  0
  9 28  1  0  0  0  0
 10  1  1  0  0  0  0
 11 13  1  0  0  0  0
 12  2  1  0  0  0  0
 12  8  1  0  0  0  0
 13 12  2  0  0  0  0
 14 27  1  0  0  0  0
 15 18  2  0  0  0  0
 16 20  1  0  0  0  0
 17  8  1  6  0  0  0
 17  7  1  0  0  0  0
 17 10  1  0  0  0  0
 18  6  1  0  0  0  0
 19 16  1  0  0  0  0
 20 29  1  1  0  0  0
 21 22  1  0  0  0  0
 22 14  2  0  0  0  0
 22 13  1  0  0  0  0
 23 28  1  0  0  0  0
 23 14  1  0  0  0  0
 26  9  1  0  0  0  0
 27  5  1  0  0  0  0
 27  2  1  0  0  0  0
 28  6  2  0  0  0  0
 29 30  1  0  0  0  0
 30 31  1  0  0  0  0
 32 30  2  0  0  0  0
M  END
>  <MODEL>
5

>  <REMARK>
 VINA RESULT:      -9.3      3.959      6.030
  Name = 
  2 active torsions:
  status: ('A' for Active; 'I' for Inactive)
    1  A    between atoms: C_1  and  C_10
    2  A    between atoms: C_10  and  C_24
                            x       y       z     vdW  Elec       q    Type
                         _______ _______ _______ _____ _____    ______ ____

>  <TORSDO>
F 2

$$$$
=
 OpenBabel10262421223D

 32 37  0  0  1  0  0  0  0  0999 V2000
  191.6310  176.0080  138.8050 O   0  0  0  0  0  0  0  0  0  0  0  0
  187.3260  178.4650  140.3200 C   0  0  1  0  0  3  0  0  0  0  0  0
  188.3690  177.6060  145.0690 C   0  0  0  0  0  3  0  0  0  0  0  0
  187.0120  177.5480  145.3710 C   0  0  0  0  0  3  0  0  0  0  0  0
  184.9460  179.0420  139.7950 C   0  0  0  0  0  0  0  0  0  0  0  0
  183.5520  179.1440  140.2160 C   0  0  0  0  0  0  0  0  0  0  0  0
  188.9880  177.2320  138.9040 C   0  0  1  0  0  3  0  0  0  0  0  0
  189.7280  178.2470  141.1020 C   0  0  0  0  0  2  0  0  0  0  0  0
  181.7660  178.9710  141.5070 N   0  0  0  0  0  0  0  0  0  0  0  0
  191.3960  177.0940  139.6600 C   0  0  0  0  0  2  0  0  0  0  0  0
  188.7800  177.8720  143.7640 C   0  0  0  0  0  3  0  0  0  0  0  0
  188.2750  178.3170  141.4780 C   0  0  0  0  0  0  0  0  0  0  0  0
  187.8440  178.0880  142.7350 C   0  0  0  0  0  0  0  0  0  0  0  0
  185.5210  178.2530  142.0940 C   0  0  0  0  0  0  0  0  0  0  0  0
  181.2210  179.5040  140.3270 N   0  0  0  0  0  0  0  0  0  0  0  0
  190.0430  176.5650  137.0400 C   0  0  0  0  0  2  0  0  0  0  0  0
  189.9390  177.0990  140.1140 C   0  0  2  0  0  3  0  0  0  0  0  0
  182.3830  179.6410  139.4310 C   0  0  0  0  0  3  0  0  0  0  0  0
  189.1580  176.1370  138.0440 O   0  0  0  0  0  0  0  0  0  0  0  0
  191.5100  176.5180  137.5020 C   0  0  2  0  0  3  0  0  0  0  0  0
  186.0670  177.7610  144.3680 C   0  0  0  0  0  3  0  0  0  0  0  0
  186.4570  178.0360  143.0430 C   0  0  0  0  0  0  0  0  0  0  0  0
  184.0420  178.1590  142.4430 C   0  0  0  0  0  2  0  0  0  0  0  0
  187.5300  177.2900  139.3640 C   0  0  0  0  0  2  0  0  0  0  0  0
  185.2800  179.3780  138.6260 O   0  0  0  0  0  0  0  0  0  0  0  0
  180.9630  178.6510  142.6740 C   0  0  0  0  0  1  0  0  0  0  0  0
  185.9250  178.5650  140.7370 N   0  0  0  0  0  0  0  0  0  0  0  0
  183.1580  178.7800  141.4020 C   0  0  0  0  0  0  0  0  0  0  0  0
  192.3150  175.6690  136.5330 C   0  0  0  0  0  2  0  0  0  0  0  0
  193.7710  175.7700  136.8340 C   0  0  0  0  0  0  0  0  0  0  0  0
  194.4190  174.7310  137.4880 O   0  0  0  0  0  1  0  0  0  0  0  0
  194.4200  176.7840  136.4680 O   0  0  0  0  0  0  0  0  0  0  0  0
  1 10  1  0  0  0  0
  2 24  1  6  0  0  0
  2 27  1  0  0  0  0
  2 12  1  0  0  0  0
  3  4  1  0  0  0  0
  5  6  1  0  0  0  0
  5 27  1  0  0  0  0
  6 28  2  0  0  0  0
  7 24  1  1  0  0  0
  7 17  1  0  0  0  0
  8 12  1  0  0  0  0
  9 26  1  0  0  0  0
 11  3  2  0  0  0  0
 12 13  2  0  0  0  0
 13 22  1  0  0  0  0
 13 11  1  0  0  0  0
 14 23  1  0  0  0  0
 14 22  2  0  0  0  0
 15  9  1  0  0  0  0
 16 20  1  0  0  0  0
 16 19  1  0  0  0  0
 17 10  1  6  0  0  0
 17  8  1  0  0  0  0
 18  6  1  0  0  0  0
 18 15  2  0  0  0  0
 19  7  1  0  0  0  0
 20 29  1  6  0  0  0
 20  1  1  0  0  0  0
 21  4  2  0  0  0  0
 22 21  1  0  0  0  0
 25  5  2  0  0  0  0
 27 14  1  0  0  0  0
 28  9  1  0  0  0  0
 28 23  1  0  0  0  0
 29 30  1  0  0  0  0
 30 31  1  0  0  0  0
 32 30  2  0  0  0  0
M  END
>  <MODEL>
6

>  <REMARK>
 VINA RESULT:      -9.3      3.680      6.523
  Name = 
  2 active torsions:
  status: ('A' for Active; 'I' for Inactive)
    1  A    between atoms: C_1  and  C_10
    2  A    between atoms: C_10  and  C_24
                            x       y       z     vdW  Elec       q    Type
                         _______ _______ _______ _____ _____    ______ ____

>  <TORSDO>
F 2

$$$$
=
 OpenBabel10262421223D

 32 37  0  0  1  0  0  0  0  0999 V2000
  186.1390  179.1680  138.4250 O   0  0  0  0  0  0  0  0  0  0  0  0
  187.9800  177.1500  142.8280 C   0  0  1  0  0  3  0  0  0  0  0  0
  184.1930  179.0030  145.3960 C   0  0  0  0  0  3  0  0  0  0  0  0
  185.0030  179.1410  146.5200 C   0  0  0  0  0  3  0  0  0  0  0  0
  190.0050  176.5020  144.1520 C   0  0  0  0  0  0  0  0  0  0  0  0
  190.7430  176.5110  145.4130 C   0  0  0  0  0  0  0  0  0  0  0  0
  187.8570  178.0270  140.4820 C   0  0  1  0  0  3  0  0  0  0  0  0
  185.7210  177.5030  141.7350 C   0  0  0  0  0  2  0  0  0  0  0  0
  191.2330  176.9800  147.5160 N   0  0  0  0  0  0  0  0  0  0  0  0
  185.5990  178.2960  139.3800 C   0  0  0  0  0  2  0  0  0  0  0  0
  184.7150  178.4560  144.2260 C   0  0  0  0  0  3  0  0  0  0  0  0
  186.5360  177.5340  142.9960 C   0  0  0  0  0  0  0  0  0  0  0  0
  186.0550  178.0340  144.1530 C   0  0  0  0  0  0  0  0  0  0  0  0
  188.1710  177.7630  145.2860 C   0  0  0  0  0  0  0  0  0  0  0  0
  192.3410  176.2110  147.1250 N   0  0  0  0  0  0  0  0  0  0  0  0
  188.4010  178.2620  138.3190 C   0  0  0  0  0  2  0  0  0  0  0  0
  186.3740  178.4070  140.6900 C   0  0  2  0  0  3  0  0  0  0  0  0
  192.0560  175.8700  145.7190 C   0  0  0  0  0  3  0  0  0  0  0  0
  188.4500  178.9070  139.5660 O   0  0  0  0  0  0  0  0  0  0  0  0
  187.0190  178.3900  137.6540 C   0  0  2  0  0  3  0  0  0  0  0  0
  186.3340  178.7280  146.4710 C   0  0  0  0  0  3  0  0  0  0  0  0
  186.8830  178.1690  145.3010 C   0  0  0  0  0  0  0  0  0  0  0  0
  189.0450  177.9480  146.5180 C   0  0  0  0  0  2  0  0  0  0  0  0
  188.6220  178.0880  141.8060 C   0  0  0  0  0  2  0  0  0  0  0  0
  190.4840  175.9170  143.1430 O   0  0  0  0  0  0  0  0  0  0  0  0
  191.0990  177.5550  148.8430 C   0  0  0  0  0  1  0  0  0  0  0  0
  188.7260  177.1590  144.0900 N   0  0  0  0  0  0  0  0  0  0  0  0
  190.3000  177.1270  146.4700 C   0  0  0  0  0  0  0  0  0  0  0  0
  187.1800  178.9990  136.2720 C   0  0  0  0  0  2  0  0  0  0  0  0
  187.1450  177.9400  135.2250 C   0  0  0  0  0  0  0  0  0  0  0  0
  188.3290  177.4720  134.6700 O   0  0  0  0  0  0  0  0  0  0  0  0
  186.0450  177.4470  134.8650 O   0  0  0  0  0  1  0  0  0  0  0  0
  1 10  1  0  0  0  0
  2 24  1  6  0  0  0
  2 12  1  0  0  0  0
  2 27  1  0  0  0  0
  3  4  1  0  0  0  0
  5  6  1  0  0  0  0
  6 18  1  0  0  0  0
  6 28  2  0  0  0  0
  7 17  1  0  0  0  0
  7 24  1  1  0  0  0
  8 12  1  0  0  0  0
  9 26  1  0  0  0  0
 11  3  2  0  0  0  0
 12 13  2  0  0  0  0
 13 11  1  0  0  0  0
 13 22  1  0  0  0  0
 14 22  2  0  0  0  0
 14 23  1  0  0  0  0
 15  9  1  0  0  0  0
 16 19  1  0  0  0  0
 17 10  1  6  0  0  0
 17  8  1  0  0  0  0
 18 15  2  0  0  0  0
 19  7  1  0  0  0  0
 20 29  1  6  0  0  0
 20 16  1  0  0  0  0
 20  1  1  0  0  0  0
 21  4  2  0  0  0  0
 22 21  1  0  0  0  0
 25  5  2  0  0  0  0
 27  5  1  0  0  0  0
 27 14  1  0  0  0  0
 28 23  1  0  0  0  0
 28  9  1  0  0  0  0
 30 29  1  0  0  0  0
 31 30  2  0  0  0  0
 32 30  1  0  0  0  0
M  END
>  <MODEL>
7

>  <REMARK>
 VINA RESULT:      -8.7      3.264      8.238
  Name = 
  2 active torsions:
  status: ('A' for Active; 'I' for Inactive)
    1  A    between atoms: C_1  and  C_10
    2  A    between atoms: C_10  and  C_24
                            x       y       z     vdW  Elec       q    Type
                         _______ _______ _______ _____ _____    ______ ____

>  <TORSDO>
F 2

$$$$
=
 OpenBabel10262421223D

 32 37  0  0  1  0  0  0  0  0999 V2000
  189.8800  176.4560  145.4610 O   0  0  0  0  0  0  0  0  0  0  0  0
  188.5620  178.1760  140.7540 C   0  0  1  0  0  3  0  0  0  0  0  0
  183.9130  178.9630  142.2170 C   0  0  0  0  0  3  0  0  0  0  0  0
  183.4460  178.6810  140.9360 C   0  0  0  0  0  3  0  0  0  0  0  0
  188.9330  178.0140  138.2820 C   0  0  0  0  0  0  0  0  0  0  0  0
  188.3910  177.9060  136.9310 C   0  0  0  0  0  0  0  0  0  0  0  0
  189.7930  177.0110  142.6030 C   0  0  1  0  0  3  0  0  0  0  0  0
  188.0410  178.7500  143.1670 C   0  0  0  0  0  2  0  0  0  0  0  0
  186.8970  177.6970  135.3150 N   0  0  0  0  0  0  0  0  0  0  0  0
  189.3180  177.6540  145.0000 C   0  0  0  0  0  2  0  0  0  0  0  0
  185.2810  178.9360  142.4800 C   0  0  0  0  0  3  0  0  0  0  0  0
  187.5270  178.5850  141.7660 C   0  0  0  0  0  0  0  0  0  0  0  0
  186.2120  178.6280  141.4700 C   0  0  0  0  0  0  0  0  0  0  0  0
  186.5930  178.0640  139.1530 C   0  0  0  0  0  0  0  0  0  0  0  0
  188.1020  177.7340  134.5940 N   0  0  0  0  0  0  0  0  0  0  0  0
  191.5280  176.1070  143.6980 C   0  0  0  0  0  2  0  0  0  0  0  0
  188.7110  177.4510  143.6150 C   0  0  2  0  0  3  0  0  0  0  0  0
  189.1340  177.8760  135.6360 C   0  0  0  0  0  3  0  0  0  0  0  0
  190.3500  175.7880  143.0020 O   0  0  0  0  0  0  0  0  0  0  0  0
  191.2480  176.5330  145.1500 C   0  0  2  0  0  3  0  0  0  0  0  0
  184.3510  178.3760  139.9190 C   0  0  0  0  0  3  0  0  0  0  0  0
  185.7380  178.3470  140.1590 C   0  0  0  0  0  0  0  0  0  0  0  0
  186.0580  177.7330  137.7660 C   0  0  0  0  0  2  0  0  0  0  0  0
  189.1940  176.8590  141.2020 C   0  0  0  0  0  2  0  0  0  0  0  0
  190.1800  178.0730  138.4610 O   0  0  0  0  0  0  0  0  0  0  0  0
  185.6000  177.5450  134.6790 C   0  0  0  0  0  1  0  0  0  0  0  0
  188.0220  178.0640  139.3950 N   0  0  0  0  0  0  0  0  0  0  0  0
  187.1130  177.8120  136.7020 C   0  0  0  0  0  0  0  0  0  0  0  0
  192.0490  175.6550  146.0950 C   0  0  0  0  0  2  0  0  0  0  0  0
  192.1180  176.2710  147.4500 C   0  0  0  0  0  0  0  0  0  0  0  0
  192.8060  175.6300  148.4710 O   0  0  0  0  0  1  0  0  0  0  0  0
  191.5760  177.3870  147.6610 O   0  0  0  0  0  0  0  0  0  0  0  0
  2 24  1  1  0  0  0
  2 12  1  0  0  0  0
  3 11  2  0  0  0  0
  4  3  1  0  0  0  0
  5 25  2  0  0  0  0
  5 27  1  0  0  0  0
  6  5  1  0  0  0  0
  7 24  1  6  0  0  0
  7 19  1  0  0  0  0
  7 17  1  0  0  0  0
  9 28  1  0  0  0  0
 10  1  1  0  0  0  0
 12  8  1  0  0  0  0
 13 12  2  0  0  0  0
 13 11  1  0  0  0  0
 14 27  1  0  0  0  0
 14 22  2  0  0  0  0
 15  9  1  0  0  0  0
 15 18  2  0  0  0  0
 16 20  1  0  0  0  0
 17  8  1  6  0  0  0
 17 10  1  0  0  0  0
 18  6  1  0  0  0  0
 19 16  1  0  0  0  0
 20  1  1  0  0  0  0
 20 29  1  1  0  0  0
 21 22  1  0  0  0  0
 21  4  2  0  0  0  0
 22 13  1  0  0  0  0
 23 14  1  0  0  0  0
 26  9  1  0  0  0  0
 27  2  1  0  0  0  0
 28  6  2  0  0  0  0
 28 23  1  0  0  0  0
 29 30  1  0  0  0  0
 30 32  2  0  0  0  0
 30 31  1  0  0  0  0
M  END
>  <MODEL>
8

>  <REMARK>
 VINA RESULT:      -8.6      2.001      2.935
  Name = 
  2 active torsions:
  status: ('A' for Active; 'I' for Inactive)
    1  A    between atoms: C_1  and  C_10
    2  A    between atoms: C_10  and  C_24
                            x       y       z     vdW  Elec       q    Type
                         _______ _______ _______ _____ _____    ______ ____

>  <TORSDO>
F 2

$$$$
=
 OpenBabel10262421223D

 32 37  0  0  1  0  0  0  0  0999 V2000
  191.9110  177.1320  146.2410 O   0  0  0  0  0  0  0  0  0  0  0  0
  187.8140  177.1480  143.0680 C   0  0  1  0  0  3  0  0  0  0  0  0
  190.7460  177.1900  139.0950 C   0  0  0  0  0  3  0  0  0  0  0  0
  189.7960  177.9180  138.3840 C   0  0  0  0  0  3  0  0  0  0  0  0
  185.4460  177.8780  142.7050 C   0  0  0  0  0  0  0  0  0  0  0  0
  184.4310  178.4830  141.8470 C   0  0  0  0  0  0  0  0  0  0  0  0
  189.2400  177.4160  145.1130 C   0  0  1  0  0  3  0  0  0  0  0  0
  190.1160  176.0890  143.1430 C   0  0  0  0  0  2  0  0  0  0  0  0
  183.5450  179.4920  140.0910 N   0  0  0  0  0  0  0  0  0  0  0  0
  191.4990  176.2860  145.2020 C   0  0  0  0  0  2  0  0  0  0  0  0
  190.4830  176.7980  140.4070 C   0  0  0  0  0  3  0  0  0  0  0  0
  189.0540  176.7530  142.3140 C   0  0  0  0  0  0  0  0  0  0  0  0
  189.2660  177.1240  141.0350 C   0  0  0  0  0  0  0  0  0  0  0  0
  187.1020  178.1840  140.8610 C   0  0  0  0  0  0  0  0  0  0  0  0
  182.4320  179.3520  140.9380 N   0  0  0  0  0  0  0  0  0  0  0  0
  189.7470  177.5210  147.2950 C   0  0  0  0  0  2  0  0  0  0  0  0
  190.4930  177.0050  144.3080 C   0  0  2  0  0  3  0  0  0  0  0  0
  182.9780  178.6760  142.1290 C   0  0  0  0  0  3  0  0  0  0  0  0
  189.6020  178.3030  146.1370 O   0  0  0  0  0  0  0  0  0  0  0  0
  191.1060  176.8000  147.3430 C   0  0  2  0  0  3  0  0  0  0  0  0
  188.5820  178.2500  138.9860 C   0  0  0  0  0  3  0  0  0  0  0  0
  188.2910  177.8620  140.3080 C   0  0  0  0  0  0  0  0  0  0  0  0
  186.0890  179.0030  140.0720 C   0  0  0  0  0  2  0  0  0  0  0  0
  188.2090  178.0900  144.2050 C   0  0  0  0  0  2  0  0  0  0  0  0
  185.1360  177.4600  143.8540 O   0  0  0  0  0  0  0  0  0  0  0  0
  183.4710  180.1340  138.7910 C   0  0  0  0  0  1  0  0  0  0  0  0
  186.7930  177.7580  142.2120 N   0  0  0  0  0  0  0  0  0  0  0  0
  184.7120  178.9540  140.6670 C   0  0  0  0  0  0  0  0  0  0  0  0
  191.8190  177.1560  148.6370 C   0  0  0  0  0  2  0  0  0  0  0  0
  193.0680  176.3580  148.7830 C   0  0  0  0  0  0  0  0  0  0  0  0
  194.0950  176.8180  149.5960 O   0  0  0  0  0  1  0  0  0  0  0  0
  193.1810  175.2530  148.1920 O   0  0  0  0  0  0  0  0  0  0  0  0
  1 20  1  0  0  0  0
  2 24  1  1  0  0  0
  3 11  2  0  0  0  0
  4 21  2  0  0  0  0
  4  3  1  0  0  0  0
  5 25  2  0  0  0  0
  6 18  1  0  0  0  0
  6  5  1  0  0  0  0
  7 24  1  6  0  0  0
  7 19  1  0  0  0  0
  9 28  1  0  0  0  0
  9 15  1  0  0  0  0
 10  1  1  0  0  0  0
 11 13  1  0  0  0  0
 12  2  1  0  0  0  0
 12  8  1  0  0  0  0
 13 12  2  0  0  0  0
 14 27  1  0  0  0  0
 15 18  2  0  0  0  0
 16 20  1  0  0  0  0
 17  8  1  6  0  0  0
 17  7  1  0  0  0  0
 17 10  1  0  0  0  0
 19 16  1  0  0  0  0
 20 29  1  1  0  0  0
 21 22  1  0  0  0  0
 22 14  2  0  0  0  0
 22 13  1  0  0  0  0
 23 28  1  0  0  0  0
 23 14  1  0  0  0  0
 26  9  1  0  0  0  0
 27  5  1  0  0  0  0
 27  2  1  0  0  0  0
 28  6  2  0  0  0  0
 29 30  1  0  0  0  0
 30 31  1  0  0  0  0
 32 30  2  0  0  0  0
M  END
>  <MODEL>
9

>  <REMARK>
 VINA RESULT:      -8.3      2.292      4.958
  Name = 
  2 active torsions:
  status: ('A' for Active; 'I' for Inactive)
    1  A    between atoms: C_1  and  C_10
    2  A    between atoms: C_10  and  C_24
                            x       y       z     vdW  Elec       q    Type
                         _______ _______ _______ _____ _____    ______ ____

>  <TORSDO>
F 2

$$$$
