=
 OpenBabel10262419253D

 31 34  0  0  1  0  0  0  0  0999 V2000
  185.6660  178.9290  140.8330 C   0  0  0  0  0  2  0  0  0  0  0  0
  182.7680  178.0250  139.8380 C   0  0  1  0  0  3  0  0  0  0  0  0
  184.1320  177.6500  139.4160 N   0  0  2  0  0  0  0  0  0  0  0  0
  181.4720  179.0060  141.8500 C   0  0  0  0  0  1  0  0  0  0  0  0
  184.6710  179.2470  141.9430 C   0  0  0  0  0  2  0  0  0  0  0  0
  184.9840  178.8390  139.4750 C   0  0  0  0  0  2  0  0  0  0  0  0
  183.7770  178.0470  142.2350 C   0  0  0  0  0  2  0  0  0  0  0  0
  182.5180  178.0150  141.3640 C   0  0  2  0  0  3  0  0  0  0  0  0
  186.2390  175.7570  137.4840 C   0  0  2  0  0  3  0  0  0  0  0  0
  185.9080  173.4300  137.1930 C   0  0  0  0  0  1  0  0  0  0  0  0
  185.6360  174.7360  136.6080 N   0  0  0  0  0  0  0  0  0  0  0  0
  185.5270  177.1250  137.4190 C   0  0  1  0  0  3  0  0  0  0  0  0
  185.4440  177.6910  136.0100 C   0  0  0  0  0  1  0  0  0  0  0  0
  184.1230  177.0860  138.0540 C   0  0  1  0  0  3  0  0  0  0  0  0
  184.1760  174.8600  136.5010 C   0  0  0  0  0  2  0  0  0  0  0  0
  183.3950  175.3890  138.0700 S   0  0  0  0  0  0  0  0  0  0  0  0
  189.5710  176.5120  135.5610 C   0  0  1  0  0  3  0  0  0  0  0  0
  189.6300  177.3250  137.8920 C   0  0  0  0  0  3  0  0  0  0  0  0
  190.2530  175.7960  134.5960 F   0  0  0  0  0  0  0  0  0  0  0  0
  188.1940  175.8670  135.8130 C   0  0  0  0  0  2  0  0  0  0  0  0
  188.3630  176.9590  138.1100 C   0  0  0  0  0  3  0  0  0  0  0  0
  187.7610  175.8440  137.2940 C   0  0  1  0  0  3  0  0  0  0  0  0
  190.4220  176.6280  136.8260 C   0  0  0  0  0  2  0  0  0  0  0  0
  181.9820  178.9530  138.9260 C   0  0  0  0  0  0  0  0  0  0  0  0
  181.7860  181.1410  138.0190 C   0  0  0  0  0  3  0  0  0  0  0  0
  182.4260  180.2320  138.7970 N   0  0  0  0  0  0  0  0  0  0  0  0
  180.2660  177.1870  138.2700 C   0  0  0  0  0  1  0  0  0  0  0  0
  180.6390  180.7600  137.3290 C   0  0  0  0  0  0  0  0  0  0  0  0
  179.9200  181.7370  136.4710 C   0  0  0  0  0  1  0  0  0  0  0  0
  180.8180  178.5690  138.2200 C   0  0  0  0  0  0  0  0  0  0  0  0
  180.1840  179.4860  137.4420 N   0  0  0  0  0  0  0  0  0  0  0  0
  1  5  1  0  0  0  0
  2 24  1  1  0  0  0
  2  8  1  0  0  0  0
  3  6  1  6  0  0  0
  3  2  1  0  0  0  0
  5  7  1  0  0  0  0
  6  1  1  0  0  0  0
  8  4  1  1  0  0  0
  8  7  1  0  0  0  0
  9 11  1  6  0  0  0
 11 10  1  0  0  0  0
 12 13  1  6  0  0  0
 12  9  1  0  0  0  0
 12 14  1  0  0  0  0
 14 16  1  1  0  0  0
 14  3  1  0  0  0  0
 15 11  1  0  0  0  0
 15 16  1  0  0  0  0
 17 19  1  6  0  0  0
 17 20  1  0  0  0  0
 17 23  1  0  0  0  0
 18 21  2  0  0  0  0
 22 20  1  6  0  0  0
 22  9  1  0  0  0  0
 22 21  1  0  0  0  0
 23 18  1  0  0  0  0
 25 26  2  0  0  0  0
 26 24  1  0  0  0  0
 28 31  2  0  0  0  0
 28 25  1  0  0  0  0
 29 28  1  0  0  0  0
 30 27  1  0  0  0  0
 30 24  2  0  0  0  0
 31 30  1  0  0  0  0
M  END
>  <MODEL>
1

>  <REMARK>
 VINA RESULT:      -4.9      0.000      0.000
  Name = 
  3 active torsions:
  status: ('A' for Active; 'I' for Inactive)
    1  A    between atoms: C_3  and  C_22
    2  A    between atoms: C_4  and  C_5
    3  A    between atoms: N_12  and  C_21
                            x       y       z     vdW  Elec       q    Type
                         _______ _______ _______ _____ _____    ______ ____

>  <TORSDO>
F 3

$$$$
=
 OpenBabel10262419253D

 31 34  0  0  1  0  0  0  0  0999 V2000
  185.2730  173.0200  137.3040 C   0  0  0  0  0  2  0  0  0  0  0  0
  183.0790  175.2040  136.5170 C   0  0  1  0  0  3  0  0  0  0  0  0
  184.5520  175.1840  136.4140 N   0  0  2  0  0  0  0  0  0  0  0  0
  181.0430  173.6200  136.6930 C   0  0  0  0  0  1  0  0  0  0  0  0
  183.9330  172.3070  137.1660 C   0  0  0  0  0  2  0  0  0  0  0  0
  185.0940  174.5040  137.5910 C   0  0  0  0  0  2  0  0  0  0  0  0
  183.2410  172.6930  135.8630 C   0  0  0  0  0  2  0  0  0  0  0  0
  182.3590  173.9370  136.0010 C   0  0  2  0  0  3  0  0  0  0  0  0
  187.6030  176.7010  136.7860 C   0  0  2  0  0  3  0  0  0  0  0  0
  188.9370  177.2910  134.9200 C   0  0  0  0  0  1  0  0  0  0  0  0
  187.9450  177.7960  135.8590 N   0  0  0  0  0  0  0  0  0  0  0  0
  186.1800  176.8090  137.3720 C   0  0  1  0  0  3  0  0  0  0  0  0
  185.9200  178.1330  138.0750 C   0  0  0  0  0  1  0  0  0  0  0  0
  185.0880  176.5530  136.3130 C   0  0  1  0  0  3  0  0  0  0  0  0
  186.7980  178.2530  135.0630 C   0  0  0  0  0  2  0  0  0  0  0  0
  185.6740  176.8850  134.5940 S   0  0  0  0  0  0  0  0  0  0  0  0
  191.2240  175.9880  138.1100 C   0  0  1  0  0  3  0  0  0  0  0  0
  190.1260  177.8320  139.3320 C   0  0  0  0  0  3  0  0  0  0  0  0
  191.9350  174.8100  138.2420 F   0  0  0  0  0  0  0  0  0  0  0  0
  189.9260  175.7280  137.3220 C   0  0  0  0  0  2  0  0  0  0  0  0
  189.0450  177.7810  138.5480 C   0  0  0  0  0  3  0  0  0  0  0  0
  188.6930  176.4940  137.8490 C   0  0  1  0  0  3  0  0  0  0  0  0
  190.9780  176.6070  139.4870 C   0  0  0  0  0  2  0  0  0  0  0  0
  182.4640  176.0570  137.6150 C   0  0  0  0  0  0  0  0  0  0  0  0
  182.0950  176.3170  139.9480 C   0  0  0  0  0  3  0  0  0  0  0  0
  182.6190  175.6350  138.8990 N   0  0  0  0  0  0  0  0  0  0  0  0
  181.5360  177.8100  136.0150 C   0  0  0  0  0  1  0  0  0  0  0  0
  181.3770  177.4860  139.7120 C   0  0  0  0  0  0  0  0  0  0  0  0
  180.7930  178.2510  140.8440 C   0  0  0  0  0  1  0  0  0  0  0  0
  181.7370  177.2470  137.3800 C   0  0  0  0  0  0  0  0  0  0  0  0
  181.2170  177.9240  138.4370 N   0  0  0  0  0  0  0  0  0  0  0  0
  1  6  1  0  0  0  0
  2 24  1  1  0  0  0
  3  2  1  0  0  0  0
  3  6  1  1  0  0  0
  5  1  1  0  0  0  0
  7  8  1  0  0  0  0
  7  5  1  0  0  0  0
  8  2  1  0  0  0  0
  8  4  1  1  0  0  0
  9 11  1  1  0  0  0
  9 12  1  0  0  0  0
  9 22  1  0  0  0  0
 10 11  1  0  0  0  0
 12 13  1  6  0  0  0
 14 16  1  6  0  0  0
 14  3  1  0  0  0  0
 14 12  1  0  0  0  0
 15 11  1  0  0  0  0
 16 15  1  0  0  0  0
 17 19  1  1  0  0  0
 17 23  1  0  0  0  0
 18 23  1  0  0  0  0
 20 17  1  0  0  0  0
 21 18  2  0  0  0  0
 22 20  1  6  0  0  0
 22 21  1  0  0  0  0
 24 26  1  0  0  0  0
 26 25  2  0  0  0  0
 27 30  1  0  0  0  0
 28 25  1  0  0  0  0
 28 29  1  0  0  0  0
 30 24  2  0  0  0  0
 30 31  1  0  0  0  0
 31 28  2  0  0  0  0
M  END
>  <MODEL>
2

>  <REMARK>
 VINA RESULT:      -4.8      2.366      4.439
  Name = 
  3 active torsions:
  status: ('A' for Active; 'I' for Inactive)
    1  A    between atoms: C_3  and  C_22
    2  A    between atoms: C_4  and  C_5
    3  A    between atoms: N_12  and  C_21
                            x       y       z     vdW  Elec       q    Type
                         _______ _______ _______ _____ _____    ______ ____

>  <TORSDO>
F 3

$$$$
=
 OpenBabel10262419253D

 31 34  0  0  1  0  0  0  0  0999 V2000
  183.2570  178.1210  140.9480 C   0  0  0  0  0  2  0  0  0  0  0  0
  180.8760  177.8580  138.8340 C   0  0  1  0  0  3  0  0  0  0  0  0
  182.1910  177.1970  138.9460 N   0  0  2  0  0  0  0  0  0  0  0  0
  179.1110  179.1020  140.2580 C   0  0  0  0  0  1  0  0  0  0  0  0
  181.9880  178.6480  141.6060 C   0  0  0  0  0  2  0  0  0  0  0  0
  183.1670  178.1750  139.4290 C   0  0  0  0  0  2  0  0  0  0  0  0
  180.8320  177.6700  141.4270 C   0  0  0  0  0  2  0  0  0  0  0  0
  180.0440  177.9070  140.1360 C   0  0  2  0  0  3  0  0  0  0  0  0
  185.1490  176.6950  137.2870 C   0  0  2  0  0  3  0  0  0  0  0  0
  186.1890  174.5690  137.2110 C   0  0  0  0  0  1  0  0  0  0  0  0
  185.2910  175.4620  136.4920 N   0  0  0  0  0  0  0  0  0  0  0  0
  183.8070  177.4240  137.0630 C   0  0  1  0  0  3  0  0  0  0  0  0
  183.5440  177.7610  135.6030 C   0  0  0  0  0  1  0  0  0  0  0  0
  182.6110  176.6440  137.6460 C   0  0  1  0  0  3  0  0  0  0  0  0
  184.0220  174.7410  136.3190 C   0  0  0  0  0  2  0  0  0  0  0  0
  182.9480  174.8350  137.7990 S   0  0  0  0  0  0  0  0  0  0  0  0
  188.6800  178.1170  138.2260 C   0  0  1  0  0  3  0  0  0  0  0  0
  188.4210  177.7830  135.7930 C   0  0  0  0  0  3  0  0  0  0  0  0
  189.0780  179.0030  139.2090 F   0  0  0  0  0  0  0  0  0  0  0  0
  187.2050  177.7250  138.4440 C   0  0  0  0  0  2  0  0  0  0  0  0
  187.2050  177.2490  135.9400 C   0  0  0  0  0  3  0  0  0  0  0  0
  186.3770  177.6080  137.1470 C   0  0  1  0  0  3  0  0  0  0  0  0
  188.9460  178.7150  136.8440 C   0  0  0  0  0  2  0  0  0  0  0  0
  180.7180  178.9310  137.7690 C   0  0  0  0  0  0  0  0  0  0  0  0
  181.1800  181.1730  137.1310 C   0  0  0  0  0  3  0  0  0  0  0  0
  181.2780  180.1460  138.0130 N   0  0  0  0  0  0  0  0  0  0  0  0
  179.3930  177.4440  136.1780 C   0  0  0  0  0  1  0  0  0  0  0  0
  180.4870  180.9850  135.9390 C   0  0  0  0  0  0  0  0  0  0  0  0
  180.3660  182.0950  134.9580 C   0  0  0  0  0  1  0  0  0  0  0  0
  180.0180  178.7430  136.5540 C   0  0  0  0  0  0  0  0  0  0  0  0
  179.9260  179.7770  135.6770 N   0  0  0  0  0  0  0  0  0  0  0  0
  1  5  1  0  0  0  0
  2 24  1  1  0  0  0
  2  3  1  0  0  0  0
  2  8  1  0  0  0  0
  3  6  1  6  0  0  0
  6  1  1  0  0  0  0
  7  5  1  0  0  0  0
  8  4  1  1  0  0  0
  8  7  1  0  0  0  0
  9 11  1  6  0  0  0
 11 10  1  0  0  0  0
 12 13  1  6  0  0  0
 12  9  1  0  0  0  0
 12 14  1  0  0  0  0
 14 16  1  1  0  0  0
 14  3  1  0  0  0  0
 15 11  1  0  0  0  0
 15 16  1  0  0  0  0
 17 20  1  0  0  0  0
 17 19  1  1  0  0  0
 18 21  2  0  0  0  0
 18 23  1  0  0  0  0
 22 21  1  6  0  0  0
 22  9  1  0  0  0  0
 22 20  1  0  0  0  0
 23 17  1  0  0  0  0
 24 26  1  0  0  0  0
 25 26  2  0  0  0  0
 27 30  1  0  0  0  0
 28 25  1  0  0  0  0
 29 28  1  0  0  0  0
 30 24  2  0  0  0  0
 31 28  2  0  0  0  0
 31 30  1  0  0  0  0
M  END
>  <MODEL>
3

>  <REMARK>
 VINA RESULT:      -4.5      1.763      2.324
  Name = 
  3 active torsions:
  status: ('A' for Active; 'I' for Inactive)
    1  A    between atoms: C_3  and  C_22
    2  A    between atoms: C_4  and  C_5
    3  A    between atoms: N_12  and  C_21
                            x       y       z     vdW  Elec       q    Type
                         _______ _______ _______ _____ _____    ______ ____

>  <TORSDO>
F 3

$$$$
=
 OpenBabel10262419253D

 31 34  0  0  1  0  0  0  0  0999 V2000
  181.4090  181.7200  138.1450 C   0  0  0  0  0  2  0  0  0  0  0  0
  179.9360  179.0370  137.2290 C   0  0  1  0  0  3  0  0  0  0  0  0
  180.2890  179.5810  138.5560 N   0  0  2  0  0  0  0  0  0  0  0  0
  179.5190  179.7770  134.7870 C   0  0  0  0  0  1  0  0  0  0  0  0
  180.8840  181.9350  136.7310 C   0  0  0  0  0  2  0  0  0  0  0  0
  181.5920  180.2410  138.4590 C   0  0  0  0  0  2  0  0  0  0  0  0
  179.4230  181.5120  136.6200 C   0  0  0  0  0  2  0  0  0  0  0  0
  179.2550  180.0330  136.2620 C   0  0  2  0  0  3  0  0  0  0  0  0
  182.0530  178.9130  141.4190 C   0  0  2  0  0  3  0  0  0  0  0  0
  181.1390  179.3150  143.5670 C   0  0  0  0  0  1  0  0  0  0  0  0
  181.3280  178.2950  142.5440 N   0  0  0  0  0  0  0  0  0  0  0  0
  181.7640  178.2470  140.0570 C   0  0  1  0  0  3  0  0  0  0  0  0
  182.0480  176.7520  140.0490 C   0  0  0  0  0  1  0  0  0  0  0  0
  180.3250  178.5100  139.5680 C   0  0  1  0  0  3  0  0  0  0  0  0
  179.9910  177.8130  142.1710 C   0  0  0  0  0  2  0  0  0  0  0  0
  179.1640  178.8980  140.9500 S   0  0  0  0  0  0  0  0  0  0  0  0
  185.5370  177.8740  142.8860 C   0  0  1  0  0  3  0  0  0  0  0  0
  185.7180  178.7890  140.5990 C   0  0  0  0  0  3  0  0  0  0  0  0
  186.0440  177.9330  144.1700 F   0  0  0  0  0  0  0  0  0  0  0  0
  184.0310  178.1990  142.9050 C   0  0  0  0  0  2  0  0  0  0  0  0
  184.3920  178.9120  140.4840 C   0  0  0  0  0  3  0  0  0  0  0  0
  183.5500  179.0690  141.7230 C   0  0  1  0  0  3  0  0  0  0  0  0
  186.3400  178.7930  141.9640 C   0  0  0  0  0  2  0  0  0  0  0  0
  180.7730  177.8840  136.6980 C   0  0  0  0  0  0  0  0  0  0  0  0
  182.8710  177.2020  135.8140 C   0  0  0  0  0  3  0  0  0  0  0  0
  182.0490  178.1590  136.3150 N   0  0  0  0  0  0  0  0  0  0  0  0
  178.9310  176.1470  136.9860 C   0  0  0  0  0  1  0  0  0  0  0  0
  182.4010  175.8980  135.6860 C   0  0  0  0  0  0  0  0  0  0  0  0
  183.2820  174.8330  135.1400 C   0  0  0  0  0  1  0  0  0  0  0  0
  180.3010  176.5570  136.5700 C   0  0  0  0  0  0  0  0  0  0  0  0
  181.1320  175.6060  136.0680 N   0  0  0  0  0  0  0  0  0  0  0  0
  1  6  1  0  0  0  0
  2 24  1  6  0  0  0
  2  3  1  0  0  0  0
  3  6  1  6  0  0  0
  3 14  1  0  0  0  0
  5  1  1  0  0  0  0
  7  5  1  0  0  0  0
  8  4  1  6  0  0  0
  8  7  1  0  0  0  0
  8  2  1  0  0  0  0
  9 22  1  0  0  0  0
  9 11  1  1  0  0  0
 11 10  1  0  0  0  0
 12 13  1  1  0  0  0
 12  9  1  0  0  0  0
 14 12  1  0  0  0  0
 14 16  1  1  0  0  0
 15 11  1  0  0  0  0
 16 15  1  0  0  0  0
 17 20  1  0  0  0  0
 17 19  1  1  0  0  0
 18 23  1  0  0  0  0
 21 18  2  0  0  0  0
 22 21  1  6  0  0  0
 22 20  1  0  0  0  0
 23 17  1  0  0  0  0
 25 26  1  0  0  0  0
 26 24  2  0  0  0  0
 28 25  2  0  0  0  0
 28 31  1  0  0  0  0
 29 28  1  0  0  0  0
 30 24  1  0  0  0  0
 30 27  1  0  0  0  0
 31 30  2  0  0  0  0
M  END
>  <MODEL>
4

>  <REMARK>
 VINA RESULT:      -4.5      3.760      6.291
  Name = 
  3 active torsions:
  status: ('A' for Active; 'I' for Inactive)
    1  A    between atoms: C_3  and  C_22
    2  A    between atoms: C_4  and  C_5
    3  A    between atoms: N_12  and  C_21
                            x       y       z     vdW  Elec       q    Type
                         _______ _______ _______ _____ _____    ______ ____

>  <TORSDO>
F 3

$$$$
=
 OpenBabel10262419253D

 31 34  0  0  1  0  0  0  0  0999 V2000
  185.3530  178.7550  139.9290 C   0  0  0  0  0  2  0  0  0  0  0  0
  182.5100  177.5380  139.1280 C   0  0  1  0  0  3  0  0  0  0  0  0
  183.8890  177.2130  138.7130 N   0  0  2  0  0  0  0  0  0  0  0  0
  181.1860  178.6520  141.0500 C   0  0  0  0  0  1  0  0  0  0  0  0
  184.3590  179.1280  141.0230 C   0  0  0  0  0  2  0  0  0  0  0  0
  184.6510  178.4590  138.6100 C   0  0  0  0  0  2  0  0  0  0  0  0
  183.5620  177.9100  141.4760 C   0  0  0  0  0  2  0  0  0  0  0  0
  182.2920  177.6870  140.6510 C   0  0  2  0  0  3  0  0  0  0  0  0
  186.2240  175.7140  136.7000 C   0  0  2  0  0  3  0  0  0  0  0  0
  186.5280  173.3650  136.6810 C   0  0  0  0  0  1  0  0  0  0  0  0
  185.8420  174.4650  136.0160 N   0  0  0  0  0  0  0  0  0  0  0  0
  185.1560  176.8230  136.6030 C   0  0  1  0  0  3  0  0  0  0  0  0
  184.7680  177.1590  135.1700 C   0  0  0  0  0  1  0  0  0  0  0  0
  183.8930  176.4960  137.4260 C   0  0  1  0  0  3  0  0  0  0  0  0
  184.4030  174.1820  136.1000 C   0  0  0  0  0  2  0  0  0  0  0  0
  183.6750  174.6830  137.7030 S   0  0  0  0  0  0  0  0  0  0  0  0
  190.1260  175.9700  136.9770 C   0  0  1  0  0  3  0  0  0  0  0  0
  189.3730  175.6240  134.6500 C   0  0  0  0  0  3  0  0  0  0  0  0
  190.9380  176.7260  137.8010 F   0  0  0  0  0  0  0  0  0  0  0  0
  188.6620  176.0820  137.4420 C   0  0  0  0  0  2  0  0  0  0  0  0
  188.0940  175.5170  135.0230 C   0  0  0  0  0  3  0  0  0  0  0  0
  187.6320  176.1770  136.2960 C   0  0  1  0  0  3  0  0  0  0  0  0
  190.3280  176.3870  135.5190 C   0  0  0  0  0  2  0  0  0  0  0  0
  181.6380  178.2940  138.1390 C   0  0  0  0  0  0  0  0  0  0  0  0
  181.1990  180.3720  137.0720 C   0  0  0  0  0  3  0  0  0  0  0  0
  181.9260  179.6060  137.9240 N   0  0  0  0  0  0  0  0  0  0  0  0
  180.1680  176.2880  137.5860 C   0  0  0  0  0  1  0  0  0  0  0  0
  180.1250  179.8050  136.3930 C   0  0  0  0  0  0  0  0  0  0  0  0
  179.3130  180.6230  135.4540 C   0  0  0  0  0  1  0  0  0  0  0  0
  180.5480  177.7210  137.4430 C   0  0  0  0  0  0  0  0  0  0  0  0
  179.8260  178.4960  136.5910 N   0  0  0  0  0  0  0  0  0  0  0  0
  1  5  1  0  0  0  0
  2 24  1  6  0  0  0
  2  8  1  0  0  0  0
  3  6  1  6  0  0  0
  3  2  1  0  0  0  0
  5  7  1  0  0  0  0
  6  1  1  0  0  0  0
  8  4  1  6  0  0  0
  8  7  1  0  0  0  0
  9 11  1  6  0  0  0
 11 15  1  0  0  0  0
 11 10  1  0  0  0  0
 12 13  1  6  0  0  0
 12  9  1  0  0  0  0
 12 14  1  0  0  0  0
 14 16  1  1  0  0  0
 14  3  1  0  0  0  0
 15 16  1  0  0  0  0
 17 20  1  0  0  0  0
 17 19  1  1  0  0  0
 18 21  2  0  0  0  0
 18 23  1  0  0  0  0
 22 21  1  6  0  0  0
 22  9  1  0  0  0  0
 22 20  1  0  0  0  0
 23 17  1  0  0  0  0
 25 26  2  0  0  0  0
 26 24  1  0  0  0  0
 28 31  2  0  0  0  0
 28 25  1  0  0  0  0
 29 28  1  0  0  0  0
 30 27  1  0  0  0  0
 30 24  2  0  0  0  0
 31 30  1  0  0  0  0
M  END
>  <MODEL>
5

>  <REMARK>
 VINA RESULT:      -4.4      1.156      1.520
  Name = 
  3 active torsions:
  status: ('A' for Active; 'I' for Inactive)
    1  A    between atoms: C_3  and  C_22
    2  A    between atoms: C_4  and  C_5
    3  A    between atoms: N_12  and  C_21
                            x       y       z     vdW  Elec       q    Type
                         _______ _______ _______ _____ _____    ______ ____

>  <TORSDO>
F 3

$$$$
=
 OpenBabel10262419253D

 31 34  0  0  1  0  0  0  0  0999 V2000
  185.6970  178.6280  140.2250 C   0  0  0  0  0  2  0  0  0  0  0  0
  182.5340  178.1830  140.1690 C   0  0  1  0  0  3  0  0  0  0  0  0
  183.6410  177.5920  139.3910 N   0  0  2  0  0  0  0  0  0  0  0  0
  182.0520  179.3780  142.4110 C   0  0  0  0  0  1  0  0  0  0  0  0
  185.1340  179.1100  141.5570 C   0  0  0  0  0  2  0  0  0  0  0  0
  184.6380  178.6320  139.1310 C   0  0  0  0  0  2  0  0  0  0  0  0
  184.1990  178.0700  142.1630 C   0  0  0  0  0  2  0  0  0  0  0  0
  182.7480  178.2280  141.7000 C   0  0  2  0  0  3  0  0  0  0  0  0
  184.6140  175.1310  137.2110 C   0  0  2  0  0  3  0  0  0  0  0  0
  183.6020  172.9890  137.2190 C   0  0  0  0  0  1  0  0  0  0  0  0
  183.5610  174.3040  136.5930 N   0  0  0  0  0  0  0  0  0  0  0  0
  184.3070  176.6430  137.1850 C   0  0  1  0  0  3  0  0  0  0  0  0
  184.0380  177.1760  135.7860 C   0  0  0  0  0  1  0  0  0  0  0  0
  183.1450  177.0230  138.1250 C   0  0  1  0  0  3  0  0  0  0  0  0
  182.2100  174.8380  136.8120 C   0  0  0  0  0  2  0  0  0  0  0  0
  182.0110  175.6050  138.4620 S   0  0  0  0  0  0  0  0  0  0  0  0
  188.5210  175.3460  136.9640 C   0  0  1  0  0  3  0  0  0  0  0  0
  187.7060  173.0150  136.9200 C   0  0  0  0  0  3  0  0  0  0  0  0
  189.3500  176.2650  136.3500 F   0  0  0  0  0  0  0  0  0  0  0  0
  187.0690  175.8620  136.9480 C   0  0  0  0  0  2  0  0  0  0  0  0
  186.4380  173.3970  137.1030 C   0  0  0  0  0  3  0  0  0  0  0  0
  186.0070  174.7750  136.6720 C   0  0  1  0  0  3  0  0  0  0  0  0
  188.6800  173.9750  136.3050 C   0  0  0  0  0  2  0  0  0  0  0  0
  181.6590  179.2130  139.4740 C   0  0  0  0  0  0  0  0  0  0  0  0
  181.5770  181.3020  138.3430 C   0  0  0  0  0  3  0  0  0  0  0  0
  182.2710  180.3180  138.9680 N   0  0  0  0  0  0  0  0  0  0  0  0
  179.4950  177.9150  139.8270 C   0  0  0  0  0  1  0  0  0  0  0  0
  180.1960  181.1850  138.2120 C   0  0  0  0  0  0  0  0  0  0  0  0
  179.4130  182.2490  137.5320 C   0  0  0  0  0  1  0  0  0  0  0  0
  180.2570  179.0960  139.3340 C   0  0  0  0  0  0  0  0  0  0  0  0
  179.5700  180.0870  138.7070 N   0  0  0  0  0  0  0  0  0  0  0  0
  1  5  1  0  0  0  0
  2 24  1  6  0  0  0
  2  8  1  0  0  0  0
  3  6  1  6  0  0  0
  3  2  1  0  0  0  0
  5  7  1  0  0  0  0
  6  1  1  0  0  0  0
  8  7  1  0  0  0  0
  8  4  1  6  0  0  0
  9 11  1  6  0  0  0
 11 15  1  0  0  0  0
 11 10  1  0  0  0  0
 12 13  1  6  0  0  0
 12  9  1  0  0  0  0
 12 14  1  0  0  0  0
 14 16  1  1  0  0  0
 14  3  1  0  0  0  0
 15 16  1  0  0  0  0
 17 19  1  6  0  0  0
 18 21  2  0  0  0  0
 20 17  1  0  0  0  0
 22 20  1  1  0  0  0
 22 21  1  0  0  0  0
 22  9  1  0  0  0  0
 23 18  1  0  0  0  0
 23 17  1  0  0  0  0
 25 26  1  0  0  0  0
 26 24  2  0  0  0  0
 28 25  2  0  0  0  0
 28 31  1  0  0  0  0
 29 28  1  0  0  0  0
 30 24  1  0  0  0  0
 30 27  1  0  0  0  0
 31 30  2  0  0  0  0
M  END
>  <MODEL>
6

>  <REMARK>
 VINA RESULT:      -4.4      1.316      1.839
  Name = 
  3 active torsions:
  status: ('A' for Active; 'I' for Inactive)
    1  A    between atoms: C_3  and  C_22
    2  A    between atoms: C_4  and  C_5
    3  A    between atoms: N_12  and  C_21
                            x       y       z     vdW  Elec       q    Type
                         _______ _______ _______ _____ _____    ______ ____

>  <TORSDO>
F 3

$$$$
=
 OpenBabel10262419253D

 31 34  0  0  1  0  0  0  0  0999 V2000
  183.9290  179.4730  139.1810 C   0  0  0  0  0  2  0  0  0  0  0  0
  182.6010  177.2120  137.3570 C   0  0  1  0  0  3  0  0  0  0  0  0
  182.3210  178.6510  137.5260 N   0  0  2  0  0  0  0  0  0  0  0  0
  184.4820  175.4660  137.6750 C   0  0  0  0  0  1  0  0  0  0  0  0
  184.9310  178.3330  139.0470 C   0  0  0  0  0  2  0  0  0  0  0  0
  182.5020  179.0000  138.9360 C   0  0  0  0  0  2  0  0  0  0  0  0
  185.0930  177.9160  137.5890 C   0  0  0  0  0  2  0  0  0  0  0  0
  184.0890  176.8420  137.1600 C   0  0  2  0  0  3  0  0  0  0  0  0
  180.5300  181.4890  136.8250 C   0  0  2  0  0  3  0  0  0  0  0  0
  180.1700  182.2160  134.5990 C   0  0  0  0  0  1  0  0  0  0  0  0
  179.5890  181.4460  135.6900 N   0  0  0  0  0  0  0  0  0  0  0  0
  180.4340  180.2620  137.7560 C   0  0  1  0  0  3  0  0  0  0  0  0
  179.0330  180.0340  138.3030 C   0  0  0  0  0  1  0  0  0  0  0  0
  180.9520  178.9740  137.0850 C   0  0  1  0  0  3  0  0  0  0  0  0
  179.3670  180.0850  135.1820 C   0  0  0  0  0  2  0  0  0  0  0  0
  180.8770  179.0530  135.2410 S   0  0  0  0  0  0  0  0  0  0  0  0
  181.5530  185.1870  137.6310 C   0  0  1  0  0  3  0  0  0  0  0  0
  179.1030  184.8780  137.5990 C   0  0  0  0  0  3  0  0  0  0  0  0
  182.6170  185.7080  138.3420 F   0  0  0  0  0  0  0  0  0  0  0  0
  181.7540  183.6730  137.4270 C   0  0  0  0  0  2  0  0  0  0  0  0
  179.2140  183.5990  137.2280 C   0  0  0  0  0  3  0  0  0  0  0  0
  180.4660  182.8330  137.5660 C   0  0  1  0  0  3  0  0  0  0  0  0
  180.2370  185.5310  138.3310 C   0  0  0  0  0  2  0  0  0  0  0  0
  181.6320  176.2290  137.9940 C   0  0  0  0  0  0  0  0  0  0  0  0
  180.6370  175.4510  140.0080 C   0  0  0  0  0  3  0  0  0  0  0  0
  181.4670  176.2940  139.3420 N   0  0  0  0  0  0  0  0  0  0  0  0
  180.9950  175.1140  135.7920 C   0  0  0  0  0  1  0  0  0  0  0  0
  179.9290  174.4880  139.2950 C   0  0  0  0  0  0  0  0  0  0  0  0
  179.0140  173.5540  140.0000 C   0  0  0  0  0  1  0  0  0  0  0  0
  180.9070  175.2510  137.2730 C   0  0  0  0  0  0  0  0  0  0  0  0
  180.0780  174.4120  137.9480 N   0  0  0  0  0  0  0  0  0  0  0  0
  2  3  1  0  0  0  0
  2 24  1  1  0  0  0
  3  6  1  1  0  0  0
  5  1  1  0  0  0  0
  6  1  1  0  0  0  0
  7  5  1  0  0  0  0
  8  2  1  0  0  0  0
  8  7  1  0  0  0  0
  8  4  1  1  0  0  0
  9 11  1  6  0  0  0
  9 22  1  0  0  0  0
  9 12  1  0  0  0  0
 10 11  1  0  0  0  0
 12 13  1  6  0  0  0
 14 16  1  6  0  0  0
 14  3  1  0  0  0  0
 14 12  1  0  0  0  0
 15 16  1  0  0  0  0
 15 11  1  0  0  0  0
 17 23  1  0  0  0  0
 17 19  1  1  0  0  0
 18 23  1  0  0  0  0
 20 22  1  0  0  0  0
 20 17  1  0  0  0  0
 21 18  2  0  0  0  0
 22 21  1  6  0  0  0
 24 26  1  0  0  0  0
 26 25  2  0  0  0  0
 27 30  1  0  0  0  0
 28 29  1  0  0  0  0
 28 25  1  0  0  0  0
 30 31  1  0  0  0  0
 30 24  2  0  0  0  0
 31 28  2  0  0  0  0
M  END
>  <MODEL>
7

>  <REMARK>
 VINA RESULT:      -4.4      3.711      7.634
  Name = 
  3 active torsions:
  status: ('A' for Active; 'I' for Inactive)
    1  A    between atoms: C_3  and  C_22
    2  A    between atoms: C_4  and  C_5
    3  A    between atoms: N_12  and  C_21
                            x       y       z     vdW  Elec       q    Type
                         _______ _______ _______ _____ _____    ______ ____

>  <TORSDO>
F 3

$$$$
=
 OpenBabel10262419253D

 31 34  0  0  1  0  0  0  0  0999 V2000
  186.7480  173.4730  136.7670 C   0  0  0  0  0  2  0  0  0  0  0  0
  184.3190  175.1760  135.5800 C   0  0  1  0  0  3  0  0  0  0  0  0
  185.6860  175.5420  135.9990 N   0  0  2  0  0  0  0  0  0  0  0  0
  182.9190  173.1460  134.8020 C   0  0  0  0  0  1  0  0  0  0  0  0
  185.7990  172.5080  136.0660 C   0  0  0  0  0  2  0  0  0  0  0  0
  186.0400  174.7560  137.1820 C   0  0  0  0  0  2  0  0  0  0  0  0
  185.4380  173.0110  134.6730 C   0  0  0  0  0  2  0  0  0  0  0  0
  184.2140  173.9310  134.6690 C   0  0  2  0  0  3  0  0  0  0  0  0
  187.5350  177.5610  138.0640 C   0  0  2  0  0  3  0  0  0  0  0  0
  189.3930  178.7930  137.2630 C   0  0  0  0  0  1  0  0  0  0  0  0
  187.9650  178.8700  137.5400 N   0  0  0  0  0  0  0  0  0  0  0  0
  186.0510  177.2400  137.7860 C   0  0  1  0  0  3  0  0  0  0  0  0
  185.1000  178.3040  138.3130 C   0  0  0  0  0  1  0  0  0  0  0  0
  185.7760  176.9840  136.2900 C   0  0  1  0  0  3  0  0  0  0  0  0
  187.3040  179.2290  136.2780 C   0  0  0  0  0  2  0  0  0  0  0  0
  187.0260  177.7820  135.1900 S   0  0  0  0  0  0  0  0  0  0  0  0
  190.0220  177.1770  141.0700 C   0  0  1  0  0  3  0  0  0  0  0  0
  188.1500  178.7010  141.5910 C   0  0  0  0  0  3  0  0  0  0  0  0
  190.7570  176.0960  141.5180 F   0  0  0  0  0  0  0  0  0  0  0  0
  189.3820  176.8440  139.7090 C   0  0  0  0  0  2  0  0  0  0  0  0
  187.6540  178.6030  140.3540 C   0  0  0  0  0  3  0  0  0  0  0  0
  187.9420  177.3730  139.5330 C   0  0  1  0  0  3  0  0  0  0  0  0
  189.0010  177.5900  142.1310 C   0  0  0  0  0  2  0  0  0  0  0  0
  183.1750  175.5650  136.5020 C   0  0  0  0  0  0  0  0  0  0  0  0
  182.1040  175.2010  138.5920 C   0  0  0  0  0  3  0  0  0  0  0  0
  183.0960  174.9350  137.7050 N   0  0  0  0  0  0  0  0  0  0  0  0
  182.2010  177.2920  134.9010 C   0  0  0  0  0  1  0  0  0  0  0  0
  181.1340  176.1450  138.2680 C   0  0  0  0  0  0  0  0  0  0  0  0
  180.0380  176.4530  139.2230 C   0  0  0  0  0  1  0  0  0  0  0  0
  182.1890  176.5270  136.1790 C   0  0  0  0  0  0  0  0  0  0  0  0
  181.2000  176.7860  137.0740 N   0  0  0  0  0  0  0  0  0  0  0  0
  1  6  1  0  0  0  0
  2  3  1  0  0  0  0
  2 24  1  1  0  0  0
  3 14  1  0  0  0  0
  3  6  1  1  0  0  0
  5  1  1  0  0  0  0
  7  5  1  0  0  0  0
  8  7  1  0  0  0  0
  8  4  1  1  0  0  0
  8  2  1  0  0  0  0
  9 11  1  1  0  0  0
  9 22  1  0  0  0  0
 10 11  1  0  0  0  0
 12  9  1  0  0  0  0
 12 13  1  6  0  0  0
 14 16  1  6  0  0  0
 14 12  1  0  0  0  0
 15 11  1  0  0  0  0
 16 15  1  0  0  0  0
 17 19  1  1  0  0  0
 17 23  1  0  0  0  0
 18 23  1  0  0  0  0
 20 17  1  0  0  0  0
 21 18  2  0  0  0  0
 22 20  1  6  0  0  0
 22 21  1  0  0  0  0
 24 26  1  0  0  0  0
 26 25  2  0  0  0  0
 27 30  1  0  0  0  0
 28 25  1  0  0  0  0
 28 29  1  0  0  0  0
 30 24  2  0  0  0  0
 30 31  1  0  0  0  0
 31 28  2  0  0  0  0
M  END
>  <MODEL>
8

>  <REMARK>
 VINA RESULT:      -4.4      3.125      5.417
  Name = 
  3 active torsions:
  status: ('A' for Active; 'I' for Inactive)
    1  A    between atoms: C_3  and  C_22
    2  A    between atoms: C_4  and  C_5
    3  A    between atoms: N_12  and  C_21
                            x       y       z     vdW  Elec       q    Type
                         _______ _______ _______ _____ _____    ______ ____

>  <TORSDO>
F 3

$$$$
=
 OpenBabel10262419253D

 31 34  0  0  1  0  0  0  0  0999 V2000
  179.0700  177.9620  135.2390 C   0  0  0  0  0  2  0  0  0  0  0  0
  181.0790  176.2440  137.0330 C   0  0  1  0  0  3  0  0  0  0  0  0
  180.3380  177.4960  137.2820 N   0  0  2  0  0  0  0  0  0  0  0  0
  181.0360  174.1320  135.5410 C   0  0  0  0  0  1  0  0  0  0  0  0
  179.1160  176.5500  134.6670 C   0  0  0  0  0  2  0  0  0  0  0  0
  180.3200  178.2830  136.0480 C   0  0  0  0  0  2  0  0  0  0  0  0
  178.9310  175.5090  135.7660 C   0  0  0  0  0  2  0  0  0  0  0  0
  180.2500  175.0910  136.4210 C   0  0  2  0  0  3  0  0  0  0  0  0
  180.2390  180.7230  138.4360 C   0  0  2  0  0  3  0  0  0  0  0  0
  178.9310  181.3350  140.3140 C   0  0  0  0  0  1  0  0  0  0  0  0
  180.2670  180.9330  139.8960 N   0  0  0  0  0  0  0  0  0  0  0  0
  181.2860  179.7050  137.9380 C   0  0  1  0  0  3  0  0  0  0  0  0
  182.7080  180.0610  138.3440 C   0  0  0  0  0  1  0  0  0  0  0  0
  180.9590  178.2640  138.3760 C   0  0  1  0  0  3  0  0  0  0  0  0
  180.5990  179.7130  140.6440 C   0  0  0  0  0  2  0  0  0  0  0  0
  179.8950  178.2030  139.8840 S   0  0  0  0  0  0  0  0  0  0  0  0
  181.7400  184.1350  137.2210 C   0  0  1  0  0  3  0  0  0  0  0  0
  180.6550  182.8830  135.3900 C   0  0  0  0  0  3  0  0  0  0  0  0
  181.8420  185.3640  137.8440 F   0  0  0  0  0  0  0  0  0  0  0  0
  181.2700  183.0740  138.2350 C   0  0  0  0  0  2  0  0  0  0  0  0
  180.3910  181.8420  136.1840 C   0  0  0  0  0  3  0  0  0  0  0  0
  180.2580  182.0540  137.6690 C   0  0  1  0  0  3  0  0  0  0  0  0
  180.8290  184.2440  135.9970 C   0  0  0  0  0  2  0  0  0  0  0  0
  182.5730  176.3530  136.7730 C   0  0  0  0  0  0  0  0  0  0  0  0
  184.2760  176.9290  135.2180 C   0  0  0  0  0  3  0  0  0  0  0  0
  182.9660  176.8100  135.5540 N   0  0  0  0  0  0  0  0  0  0  0  0
  183.2440  175.5130  139.0830 C   0  0  0  0  0  1  0  0  0  0  0  0
  185.2520  176.5750  136.1450 C   0  0  0  0  0  0  0  0  0  0  0  0
  186.6920  176.6960  135.8020 C   0  0  0  0  0  1  0  0  0  0  0  0
  183.5680  175.9970  137.7130 C   0  0  0  0  0  0  0  0  0  0  0  0
  184.8770  176.1210  137.3680 N   0  0  0  0  0  0  0  0  0  0  0  0
  1  6  1  0  0  0  0
  2 24  1  6  0  0  0
  2  3  1  0  0  0  0
  3  6  1  6  0  0  0
  3 14  1  0  0  0  0
  5  1  1  0  0  0  0
  5  7  1  0  0  0  0
  7  8  1  0  0  0  0
  8  4  1  6  0  0  0
  8  2  1  0  0  0  0
  9 11  1  1  0  0  0
 11 10  1  0  0  0  0
 11 15  1  0  0  0  0
 12 13  1  1  0  0  0
 12 14  1  0  0  0  0
 12  9  1  0  0  0  0
 14 16  1  1  0  0  0
 16 15  1  0  0  0  0
 17 19  1  1  0  0  0
 17 20  1  0  0  0  0
 18 23  1  0  0  0  0
 18 21  2  0  0  0  0
 22 21  1  6  0  0  0
 22 20  1  0  0  0  0
 22  9  1  0  0  0  0
 23 17  1  0  0  0  0
 24 30  1  0  0  0  0
 25 26  1  0  0  0  0
 25 28  2  0  0  0  0
 26 24  2  0  0  0  0
 28 31  1  0  0  0  0
 29 28  1  0  0  0  0
 30 27  1  0  0  0  0
 31 30  2  0  0  0  0
M  END
>  <MODEL>
9

>  <REMARK>
 VINA RESULT:      -4.3      3.462      7.814
  Name = 
  3 active torsions:
  status: ('A' for Active; 'I' for Inactive)
    1  A    between atoms: C_3  and  C_22
    2  A    between atoms: C_4  and  C_5
    3  A    between atoms: N_12  and  C_21
                            x       y       z     vdW  Elec       q    Type
                         _______ _______ _______ _____ _____    ______ ____

>  <TORSDO>
F 3

$$$$
