=
 OpenBabel10252415083D

 34 38  0  0  1  0  0  0  0  0999 V2000
  190.3520  177.0170  146.1130 C   0  0  0  0  0  0  0  0  0  0  0  0
  188.3160  177.6770  146.3500 C   0  0  0  0  0  0  0  0  0  0  0  0
  189.0670  177.2440  144.1430 C   0  0  0  0  0  0  0  0  0  0  0  0
  187.2680  177.6920  142.2850 C   0  0  2  0  0  3  0  0  0  0  0  0
  188.9290  177.6010  147.5920 C   0  0  0  0  0  0  0  0  0  0  0  0
  188.2980  177.9250  148.9000 C   0  0  0  0  0  1  0  0  0  0  0  0
  186.7570  178.0080  144.5560 C   0  0  0  0  0  0  0  0  0  0  0  0
  189.2330  177.3070  145.4680 N   0  0  0  0  0  0  0  0  0  0  0  0
  185.8000  178.1780  142.4420 C   0  0  0  0  0  2  0  0  0  0  0  0
  190.2250  177.1830  147.4510 N   0  0  0  0  0  0  0  0  0  0  0  0
  191.3130  176.5290  143.9790 C   0  0  0  0  0  3  0  0  0  0  0  0
  191.4700  176.6050  145.3890 C   0  0  0  0  0  3  0  0  0  0  0  0
  186.9590  178.0640  145.8950 C   0  0  0  0  0  3  0  0  0  0  0  0
  185.5630  178.3290  143.8790 N   0  0  0  0  0  0  0  0  0  0  0  0
  187.7760  177.6150  143.6460 N   0  0  0  0  0  0  0  0  0  0  0  0
  190.1190  176.8490  143.3730 N   0  0  0  0  0  0  0  0  0  0  0  0
  184.4220  179.0310  144.4540 C   0  0  0  0  0  2  0  0  0  0  0  0
  183.2650  179.0250  143.5070 C   0  0  0  0  0  3  0  0  0  0  0  0
  182.0320  178.7780  143.9420 C   0  0  0  0  0  3  0  0  0  0  0  0
  180.8850  178.7750  142.9870 C   0  0  0  0  0  2  0  0  0  0  0  0
  181.3030  179.2690  141.7200 O   0  0  0  0  0  0  0  0  0  0  0  0
  180.9350  178.6720  140.5100 C   0  0  0  0  0  0  0  0  0  0  0  0
  180.1940  179.3050  139.7130 O   0  0  0  0  0  0  0  0  0  0  0  0
  182.9430  177.2830  140.1790 C   0  0  0  0  0  1  0  0  0  0  0  0
  181.4290  177.3160  140.1210 C   0  0  0  0  0  2  0  0  0  0  0  0
  188.0620  178.7170  141.4950 C   0  0  0  0  0  2  0  0  0  0  0  0
  187.8350  178.5390  140.1030 O   0  0  0  0  0  0  0  0  0  0  0  0
  191.0390  176.6170  137.6430 C   0  0  0  0  0  3  0  0  0  0  0  0
  190.9770  176.8390  138.9560 C   0  0  0  0  0  3  0  0  0  0  0  0
  188.8490  178.1740  139.2130 C   0  0  0  0  0  0  0  0  0  0  0  0
  189.7970  177.3520  139.6820 C   0  0  0  0  0  3  0  0  0  0  0  0
  189.3520  178.1780  136.7540 C   0  0  0  0  0  3  0  0  0  0  0  0
  188.8720  178.7640  137.8510 C   0  0  0  0  0  3  0  0  0  0  0  0
  189.8670  176.7800  136.7350 C   0  0  0  0  0  2  0  0  0  0  0  0
  1 10  2  0  0  0  0
  2  5  2  0  0  0  0
  3  8  1  0  0  0  0
  4 26  1  6  0  0  0
  4  9  1  0  0  0  0
  4 15  1  0  0  0  0
  5  6  1  0  0  0  0
  7 13  2  0  0  0  0
  8  1  1  0  0  0  0
  8  2  1  0  0  0  0
  9 14  1  0  0  0  0
 10  5  1  0  0  0  0
 11 12  2  0  0  0  0
 12  1  1  0  0  0  0
 13  2  1  0  0  0  0
 14 17  1  0  0  0  0
 14  7  1  0  0  0  0
 15  3  1  0  0  0  0
 15  7  1  0  0  0  0
 16 11  1  0  0  0  0
 16  3  2  0  0  0  0
 18 19  2  0  0  0  0
 18 17  1  0  0  0  0
 20 19  1  0  0  0  0
 21 20  1  0  0  0  0
 22 21  1  0  0  0  0
 23 22  2  0  0  0  0
 25 24  1  0  0  0  0
 25 22  1  0  0  0  0
 27 26  1  0  0  0  0
 28 29  2  0  0  0  0
 29 31  1  0  0  0  0
 30 31  2  0  0  0  0
 30 27  1  0  0  0  0
 32 33  2  0  0  0  0
 33 30  1  0  0  0  0
 34 32  1  0  0  0  0
 34 28  1  0  0  0  0
M  END
>  <MODEL>
1

>  <REMARK>
 VINA RESULT:      -8.8      0.000      0.000
  Name = 
  9 active torsions:
  status: ('A' for Active; 'I' for Inactive)
    1  A    between atoms: C_3  and  C_17
    2  A    between atoms: C_5  and  C_26
    3  A    between atoms: C_12  and  O_28
    4  A    between atoms: C_13  and  C_33
    5  A    between atoms: C_14  and  C_20
    6  A    between atoms: C_17  and  N_29
    7  A    between atoms: C_20  and  O_34
    8  A    between atoms: C_26  and  O_28
    9  A    between atoms: C_33  and  O_34
                            x       y       z     vdW  Elec       q    Type
                         _______ _______ _______ _____ _____    ______ ____

>  <TORSDO>
F 9

$$$$
=
 OpenBabel10252415083D

 34 38  0  0  1  0  0  0  0  0999 V2000
  189.9740  176.8040  137.1370 C   0  0  0  0  0  0  0  0  0  0  0  0
  191.0900  176.7610  138.9780 C   0  0  0  0  0  0  0  0  0  0  0  0
  188.7770  177.2620  139.1220 C   0  0  0  0  0  0  0  0  0  0  0  0
  187.9280  177.7410  141.5590 C   0  0  2  0  0  3  0  0  0  0  0  0
  191.9350  176.4790  137.9150 C   0  0  0  0  0  0  0  0  0  0  0  0
  193.3910  176.1910  138.0070 C   0  0  0  0  0  1  0  0  0  0  0  0
  190.1730  177.1820  141.1550 C   0  0  0  0  0  0  0  0  0  0  0  0
  189.8910  176.9550  138.4490 N   0  0  0  0  0  0  0  0  0  0  0  0
  188.7240  177.7240  142.8940 C   0  0  0  0  0  2  0  0  0  0  0  0
  191.2340  176.5050  136.7390 N   0  0  0  0  0  0  0  0  0  0  0  0
  187.6350  177.2920  137.0540 C   0  0  0  0  0  3  0  0  0  0  0  0
  188.8300  176.9670  136.3580 C   0  0  0  0  0  3  0  0  0  0  0  0
  191.2850  176.8740  140.4430 C   0  0  0  0  0  3  0  0  0  0  0  0
  190.0990  177.3490  142.5540 N   0  0  0  0  0  0  0  0  0  0  0  0
  188.9080  177.3920  140.5430 N   0  0  0  0  0  0  0  0  0  0  0  0
  187.6210  177.4360  138.4230 N   0  0  0  0  0  0  0  0  0  0  0  0
  191.2350  177.4890  143.4540 C   0  0  0  0  0  2  0  0  0  0  0  0
  190.7920  177.4190  144.8810 C   0  0  0  0  0  3  0  0  0  0  0  0
  191.5160  176.7670  145.7870 C   0  0  0  0  0  3  0  0  0  0  0  0
  191.0630  176.7040  147.2070 C   0  0  0  0  0  2  0  0  0  0  0  0
  189.6430  176.6590  147.2650 O   0  0  0  0  0  0  0  0  0  0  0  0
  188.8730  177.6500  147.8850 C   0  0  0  0  0  0  0  0  0  0  0  0
  189.4150  178.4060  148.7330 O   0  0  0  0  0  0  0  0  0  0  0  0
  187.2280  177.6580  146.0520 C   0  0  0  0  0  1  0  0  0  0  0  0
  187.4350  177.8570  147.5400 C   0  0  0  0  0  2  0  0  0  0  0  0
  187.3950  179.1400  141.3030 C   0  0  0  0  0  2  0  0  0  0  0  0
  186.0360  179.0730  140.8900 O   0  0  0  0  0  0  0  0  0  0  0  0
  182.9310  178.8290  144.1010 C   0  0  0  0  0  3  0  0  0  0  0  0
  184.2610  178.8330  144.1870 C   0  0  0  0  0  3  0  0  0  0  0  0
  184.9940  178.7730  141.7710 C   0  0  0  0  0  0  0  0  0  0  0  0
  185.1900  179.0680  143.0630 C   0  0  0  0  0  3  0  0  0  0  0  0
  182.5470  178.2130  141.7460 C   0  0  0  0  0  3  0  0  0  0  0  0
  183.7820  178.0840  141.2600 C   0  0  0  0  0  3  0  0  0  0  0  0
  182.1970  179.1570  142.8450 C   0  0  0  0  0  2  0  0  0  0  0  0
  1  8  1  0  0  0  0
  2 13  1  0  0  0  0
  3 15  1  0  0  0  0
  4 26  1  6  0  0  0
  4  9  1  0  0  0  0
  5  6  1  0  0  0  0
  5  2  2  0  0  0  0
  7 14  1  0  0  0  0
  8  2  1  0  0  0  0
  8  3  1  0  0  0  0
 10  1  2  0  0  0  0
 10  5  1  0  0  0  0
 11 16  1  0  0  0  0
 12 11  2  0  0  0  0
 12  1  1  0  0  0  0
 13  7  2  0  0  0  0
 14  9  1  0  0  0  0
 14 17  1  0  0  0  0
 15  7  1  0  0  0  0
 15  4  1  0  0  0  0
 16  3  2  0  0  0  0
 17 18  1  0  0  0  0
 18 19  2  0  0  0  0
 19 20  1  0  0  0  0
 20 21  1  0  0  0  0
 21 22  1  0  0  0  0
 22 23  2  0  0  0  0
 24 25  1  0  0  0  0
 25 22  1  0  0  0  0
 27 26  1  0  0  0  0
 27 30  1  0  0  0  0
 28 29  2  0  0  0  0
 30 31  2  0  0  0  0
 31 29  1  0  0  0  0
 32 34  1  0  0  0  0
 33 32  2  0  0  0  0
 33 30  1  0  0  0  0
 34 28  1  0  0  0  0
M  END
>  <MODEL>
2

>  <REMARK>
 VINA RESULT:      -8.5      2.901      8.079
  Name = 
  9 active torsions:
  status: ('A' for Active; 'I' for Inactive)
    1  A    between atoms: C_3  and  C_17
    2  A    between atoms: C_5  and  C_26
    3  A    between atoms: C_12  and  O_28
    4  A    between atoms: C_13  and  C_33
    5  A    between atoms: C_14  and  C_20
    6  A    between atoms: C_17  and  N_29
    7  A    between atoms: C_20  and  O_34
    8  A    between atoms: C_26  and  O_28
    9  A    between atoms: C_33  and  O_34
                            x       y       z     vdW  Elec       q    Type
                         _______ _______ _______ _____ _____    ______ ____

>  <TORSDO>
F 9

$$$$
=
 OpenBabel10252415083D

 34 38  0  0  1  0  0  0  0  0999 V2000
  191.0890  177.1720  139.7010 C   0  0  0  0  0  0  0  0  0  0  0  0
  189.2210  177.4900  138.6800 C   0  0  0  0  0  0  0  0  0  0  0  0
  189.2560  177.8660  141.0200 C   0  0  0  0  0  0  0  0  0  0  0  0
  186.9420  178.5840  142.0310 C   0  0  2  0  0  3  0  0  0  0  0  0
  190.1860  177.0840  137.7700 C   0  0  0  0  0  0  0  0  0  0  0  0
  189.9840  176.8870  136.3100 C   0  0  0  0  0  1  0  0  0  0  0  0
  187.1790  178.1900  139.7270 C   0  0  0  0  0  0  0  0  0  0  0  0
  189.8250  177.5300  139.8580 N   0  0  0  0  0  0  0  0  0  0  0  0
  185.5850  178.8060  141.3070 C   0  0  0  0  0  2  0  0  0  0  0  0
  191.3780  176.8780  138.4110 N   0  0  0  0  0  0  0  0  0  0  0  0
  191.3440  177.4880  142.0570 C   0  0  0  0  0  3  0  0  0  0  0  0
  191.9300  177.1320  140.8130 C   0  0  0  0  0  3  0  0  0  0  0  0
  187.7860  177.8430  138.5660 C   0  0  0  0  0  3  0  0  0  0  0  0
  185.8270  178.5610  139.8840 N   0  0  0  0  0  0  0  0  0  0  0  0
  187.8660  178.2090  140.9720 N   0  0  0  0  0  0  0  0  0  0  0  0
  190.0190  177.8480  142.1480 N   0  0  0  0  0  0  0  0  0  0  0  0
  184.7770  178.3810  138.8900 C   0  0  0  0  0  2  0  0  0  0  0  0
  183.4510  178.1760  139.5530 C   0  0  0  0  0  3  0  0  0  0  0  0
  182.6370  179.2050  139.7750 C   0  0  0  0  0  3  0  0  0  0  0  0
  181.3170  178.9890  140.4370 C   0  0  0  0  0  2  0  0  0  0  0  0
  181.5030  178.3760  141.7070 O   0  0  0  0  0  0  0  0  0  0  0  0
  181.5680  179.1010  142.9020 C   0  0  0  0  0  0  0  0  0  0  0  0
  180.8570  180.1320  143.0330 O   0  0  0  0  0  0  0  0  0  0  0  0
  183.5620  179.6510  144.2390 C   0  0  0  0  0  1  0  0  0  0  0  0
  182.4300  178.6630  144.0400 C   0  0  0  0  0  2  0  0  0  0  0  0
  186.8080  177.4450  143.0250 C   0  0  0  0  0  2  0  0  0  0  0  0
  186.3680  177.9460  144.2810 O   0  0  0  0  0  0  0  0  0  0  0  0
  188.3770  177.7210  148.2720 C   0  0  0  0  0  3  0  0  0  0  0  0
  187.2480  178.3290  147.9080 C   0  0  0  0  0  3  0  0  0  0  0  0
  187.1960  177.9980  145.4050 C   0  0  0  0  0  0  0  0  0  0  0  0
  186.6000  178.2110  146.5870 C   0  0  0  0  0  3  0  0  0  0  0  0
  189.5250  177.3870  146.1160 C   0  0  0  0  0  3  0  0  0  0  0  0
  188.6680  177.8990  145.2330 C   0  0  0  0  0  3  0  0  0  0  0  0
  189.0970  176.7520  147.3950 C   0  0  0  0  0  2  0  0  0  0  0  0
  1  8  1  0  0  0  0
  1 12  1  0  0  0  0
  2  8  1  0  0  0  0
  3 16  2  0  0  0  0
  4 26  1  1  0  0  0
  5 10  1  0  0  0  0
  5  2  2  0  0  0  0
  6  5  1  0  0  0  0
  7 14  1  0  0  0  0
  7 15  1  0  0  0  0
  8  3  1  0  0  0  0
  9  4  1  0  0  0  0
 10  1  2  0  0  0  0
 11 16  1  0  0  0  0
 12 11  2  0  0  0  0
 13  2  1  0  0  0  0
 13  7  2  0  0  0  0
 14  9  1  0  0  0  0
 15  3  1  0  0  0  0
 15  4  1  0  0  0  0
 17 18  1  0  0  0  0
 17 14  1  0  0  0  0
 18 19  2  0  0  0  0
 19 20  1  0  0  0  0
 20 21  1  0  0  0  0
 21 22  1  0  0  0  0
 22 23  2  0  0  0  0
 22 25  1  0  0  0  0
 25 24  1  0  0  0  0
 26 27  1  0  0  0  0
 27 30  1  0  0  0  0
 29 28  2  0  0  0  0
 30 31  2  0  0  0  0
 31 29  1  0  0  0  0
 32 34  1  0  0  0  0
 33 30  1  0  0  0  0
 33 32  2  0  0  0  0
 34 28  1  0  0  0  0
M  END
>  <MODEL>
3

>  <REMARK>
 VINA RESULT:      -8.4      1.964      6.309
  Name = 
  9 active torsions:
  status: ('A' for Active; 'I' for Inactive)
    1  A    between atoms: C_3  and  C_17
    2  A    between atoms: C_5  and  C_26
    3  A    between atoms: C_12  and  O_28
    4  A    between atoms: C_13  and  C_33
    5  A    between atoms: C_14  and  C_20
    6  A    between atoms: C_17  and  N_29
    7  A    between atoms: C_20  and  O_34
    8  A    between atoms: C_26  and  O_28
    9  A    between atoms: C_33  and  O_34
                            x       y       z     vdW  Elec       q    Type
                         _______ _______ _______ _____ _____    ______ ____

>  <TORSDO>
F 9

$$$$
=
 OpenBabel10252415083D

 34 38  0  0  1  0  0  0  0  0999 V2000
  190.3410  176.4130  136.5910 C   0  0  0  0  0  0  0  0  0  0  0  0
  188.4470  177.2080  137.2360 C   0  0  0  0  0  0  0  0  0  0  0  0
  190.1920  177.1210  138.8400 C   0  0  0  0  0  0  0  0  0  0  0  0
  189.5110  177.9870  141.2220 C   0  0  2  0  0  3  0  0  0  0  0  0
  188.3660  176.8370  135.9030 C   0  0  0  0  0  0  0  0  0  0  0  0
  187.1650  176.9560  135.0330 C   0  0  0  0  0  1  0  0  0  0  0  0
  187.9710  178.0080  139.4490 C   0  0  0  0  0  0  0  0  0  0  0  0
  189.6850  176.9280  137.6180 N   0  0  0  0  0  0  0  0  0  0  0  0
  188.1460  178.5530  141.7040 C   0  0  0  0  0  2  0  0  0  0  0  0
  189.5660  176.3290  135.4830 N   0  0  0  0  0  0  0  0  0  0  0  0
  192.2300  176.2300  138.0440 C   0  0  0  0  0  3  0  0  0  0  0  0
  191.6720  176.0310  136.7530 C   0  0  0  0  0  3  0  0  0  0  0  0
  187.4870  177.7970  138.2000 C   0  0  0  0  0  3  0  0  0  0  0  0
  187.2590  178.5490  140.5390 N   0  0  0  0  0  0  0  0  0  0  0  0
  189.3050  177.6810  139.8150 N   0  0  0  0  0  0  0  0  0  0  0  0
  191.4880  176.7690  139.0700 N   0  0  0  0  0  0  0  0  0  0  0  0
  185.8140  178.7280  140.6050 C   0  0  0  0  0  2  0  0  0  0  0  0
  185.3930  179.1200  141.9860 C   0  0  0  0  0  3  0  0  0  0  0  0
  184.4040  178.4790  142.6030 C   0  0  0  0  0  3  0  0  0  0  0  0
  183.9930  178.8790  143.9800 C   0  0  0  0  0  2  0  0  0  0  0  0
  185.1410  179.1630  144.7700 O   0  0  0  0  0  0  0  0  0  0  0  0
  185.4010  178.5320  145.9910 C   0  0  0  0  0  0  0  0  0  0  0  0
  184.5590  178.6250  146.9210 O   0  0  0  0  0  0  0  0  0  0  0  0
  187.4060  178.2580  147.3970 C   0  0  0  0  0  1  0  0  0  0  0  0
  186.6360  177.7200  146.2070 C   0  0  0  0  0  2  0  0  0  0  0  0
  189.8320  176.7140  141.9850 C   0  0  0  0  0  2  0  0  0  0  0  0
  190.9740  176.9170  142.8080 O   0  0  0  0  0  0  0  0  0  0  0  0
  192.0440  175.2980  146.8390 C   0  0  0  0  0  3  0  0  0  0  0  0
  192.1330  174.7370  145.6330 C   0  0  0  0  0  3  0  0  0  0  0  0
  191.0510  176.4460  144.1220 C   0  0  0  0  0  0  0  0  0  0  0  0
  191.8880  175.4240  144.3500 C   0  0  0  0  0  3  0  0  0  0  0  0
  190.4480  177.1370  146.4580 C   0  0  0  0  0  3  0  0  0  0  0  0
  190.1650  177.0300  145.1600 C   0  0  0  0  0  3  0  0  0  0  0  0
  191.7630  176.7490  147.0420 C   0  0  0  0  0  2  0  0  0  0  0  0
  1 12  1  0  0  0  0
  1  8  1  0  0  0  0
  2  8  1  0  0  0  0
  2 13  1  0  0  0  0
  3 16  2  0  0  0  0
  3 15  1  0  0  0  0
  4  9  1  0  0  0  0
  4 26  1  1  0  0  0
  5  2  2  0  0  0  0
  6  5  1  0  0  0  0
  7 15  1  0  0  0  0
  7 14  1  0  0  0  0
  8  3  1  0  0  0  0
 10  5  1  0  0  0  0
 10  1  2  0  0  0  0
 11 16  1  0  0  0  0
 12 11  2  0  0  0  0
 13  7  2  0  0  0  0
 14 17  1  0  0  0  0
 14  9  1  0  0  0  0
 15  4  1  0  0  0  0
 17 18  1  0  0  0  0
 18 19  2  0  0  0  0
 19 20  1  0  0  0  0
 20 21  1  0  0  0  0
 21 22  1  0  0  0  0
 22 25  1  0  0  0  0
 22 23  2  0  0  0  0
 25 24  1  0  0  0  0
 26 27  1  0  0  0  0
 27 30  1  0  0  0  0
 28 34  1  0  0  0  0
 29 28  2  0  0  0  0
 30 31  2  0  0  0  0
 30 33  1  0  0  0  0
 31 29  1  0  0  0  0
 32 34  1  0  0  0  0
 33 32  2  0  0  0  0
M  END
>  <MODEL>
4

>  <REMARK>
 VINA RESULT:      -8.2      3.006      7.316
  Name = 
  9 active torsions:
  status: ('A' for Active; 'I' for Inactive)
    1  A    between atoms: C_3  and  C_17
    2  A    between atoms: C_5  and  C_26
    3  A    between atoms: C_12  and  O_28
    4  A    between atoms: C_13  and  C_33
    5  A    between atoms: C_14  and  C_20
    6  A    between atoms: C_17  and  N_29
    7  A    between atoms: C_20  and  O_34
    8  A    between atoms: C_26  and  O_28
    9  A    between atoms: C_33  and  O_34
                            x       y       z     vdW  Elec       q    Type
                         _______ _______ _______ _____ _____    ______ ____

>  <TORSDO>
F 9

$$$$
=
 OpenBabel10252415083D

 34 38  0  0  1  0  0  0  0  0999 V2000
  189.0750  177.1570  147.2450 C   0  0  0  0  0  0  0  0  0  0  0  0
  190.3890  176.8650  145.5660 C   0  0  0  0  0  0  0  0  0  0  0  0
  188.2770  177.8500  145.1320 C   0  0  0  0  0  0  0  0  0  0  0  0
  187.8440  178.4020  142.6020 C   0  0  2  0  0  3  0  0  0  0  0  0
  191.0010  176.4040  146.7220 C   0  0  0  0  0  0  0  0  0  0  0  0
  192.3550  175.7940  146.8120 C   0  0  0  0  0  1  0  0  0  0  0  0
  189.8790  177.4560  143.2970 C   0  0  0  0  0  0  0  0  0  0  0  0
  189.2030  177.3200  145.9380 N   0  0  0  0  0  0  0  0  0  0  0  0
  188.7790  178.1860  141.3800 C   0  0  0  0  0  2  0  0  0  0  0  0
  190.1720  176.5850  147.7960 N   0  0  0  0  0  0  0  0  0  0  0  0
  186.9000  178.1280  147.0320 C   0  0  0  0  0  3  0  0  0  0  0  0
  187.8960  177.5610  147.8710 C   0  0  0  0  0  3  0  0  0  0  0  0
  190.7950  176.9220  144.1410 C   0  0  0  0  0  3  0  0  0  0  0  0
  190.0230  177.6160  141.9030 N   0  0  0  0  0  0  0  0  0  0  0  0
  188.6120  177.9230  143.7410 N   0  0  0  0  0  0  0  0  0  0  0  0
  187.1000  178.2650  145.6770 N   0  0  0  0  0  0  0  0  0  0  0  0
  191.0540  177.0000  141.0790 C   0  0  0  0  0  2  0  0  0  0  0  0
  190.8300  177.3070  139.6330 C   0  0  0  0  0  3  0  0  0  0  0  0
  190.7800  176.3310  138.7300 C   0  0  0  0  0  3  0  0  0  0  0  0
  190.5560  176.6500  137.2900 C   0  0  0  0  0  2  0  0  0  0  0  0
  189.7970  177.8470  137.1670 O   0  0  0  0  0  0  0  0  0  0  0  0
  188.7160  177.9780  136.2890 C   0  0  0  0  0  0  0  0  0  0  0  0
  188.8250  177.5450  135.1120 O   0  0  0  0  0  0  0  0  0  0  0  0
  186.9680  177.9590  138.0250 C   0  0  0  0  0  1  0  0  0  0  0  0
  187.4220  178.5860  136.7230 C   0  0  0  0  0  2  0  0  0  0  0  0
  186.5890  177.5630  142.4370 C   0  0  0  0  0  2  0  0  0  0  0  0
  185.6220  178.2800  141.6810 O   0  0  0  0  0  0  0  0  0  0  0  0
  181.4240  178.9890  143.0560 C   0  0  0  0  0  3  0  0  0  0  0  0
  181.9260  178.9120  141.8240 C   0  0  0  0  0  3  0  0  0  0  0  0
  184.4120  178.7180  142.2260 C   0  0  0  0  0  0  0  0  0  0  0  0
  183.3100  178.5240  141.4870 C   0  0  0  0  0  3  0  0  0  0  0  0
  183.4280  179.4230  144.4250 C   0  0  0  0  0  3  0  0  0  0  0  0
  184.4130  179.4330  143.5270 C   0  0  0  0  0  3  0  0  0  0  0  0
  182.1940  178.6000  144.2730 C   0  0  0  0  0  2  0  0  0  0  0  0
  1 10  2  0  0  0  0
  1 12  1  0  0  0  0
  2  8  1  0  0  0  0
  2  5  2  0  0  0  0
  3 16  2  0  0  0  0
  3  8  1  0  0  0  0
  4 26  1  6  0  0  0
  4 15  1  0  0  0  0
  5  6  1  0  0  0  0
  5 10  1  0  0  0  0
  7 15  1  0  0  0  0
  7 13  2  0  0  0  0
  8  1  1  0  0  0  0
  9 14  1  0  0  0  0
  9  4  1  0  0  0  0
 11 12  2  0  0  0  0
 13  2  1  0  0  0  0
 14  7  1  0  0  0  0
 15  3  1  0  0  0  0
 16 11  1  0  0  0  0
 17 14  1  0  0  0  0
 18 17  1  0  0  0  0
 19 18  2  0  0  0  0
 20 19  1  0  0  0  0
 21 20  1  0  0  0  0
 22 25  1  0  0  0  0
 22 21  1  0  0  0  0
 23 22  2  0  0  0  0
 25 24  1  0  0  0  0
 27 30  1  0  0  0  0
 27 26  1  0  0  0  0
 28 34  1  0  0  0  0
 29 28  2  0  0  0  0
 30 33  1  0  0  0  0
 31 29  1  0  0  0  0
 31 30  2  0  0  0  0
 33 32  2  0  0  0  0
 34 32  1  0  0  0  0
M  END
>  <MODEL>
5

>  <REMARK>
 VINA RESULT:      -8.1      1.796      6.579
  Name = 
  9 active torsions:
  status: ('A' for Active; 'I' for Inactive)
    1  A    between atoms: C_3  and  C_17
    2  A    between atoms: C_5  and  C_26
    3  A    between atoms: C_12  and  O_28
    4  A    between atoms: C_13  and  C_33
    5  A    between atoms: C_14  and  C_20
    6  A    between atoms: C_17  and  N_29
    7  A    between atoms: C_20  and  O_34
    8  A    between atoms: C_26  and  O_28
    9  A    between atoms: C_33  and  O_34
                            x       y       z     vdW  Elec       q    Type
                         _______ _______ _______ _____ _____    ______ ____

>  <TORSDO>
F 9

$$$$
=
 OpenBabel10252415083D

 34 38  0  0  1  0  0  0  0  0999 V2000
  188.7970  177.2810  147.1940 C   0  0  0  0  0  0  0  0  0  0  0  0
  190.0780  176.9910  145.4880 C   0  0  0  0  0  0  0  0  0  0  0  0
  187.9680  178.0020  145.1020 C   0  0  0  0  0  0  0  0  0  0  0  0
  187.4940  178.5810  142.5860 C   0  0  2  0  0  3  0  0  0  0  0  0
  190.7060  176.5140  146.6280 C   0  0  0  0  0  0  0  0  0  0  0  0
  192.0550  175.8890  146.6870 C   0  0  0  0  0  1  0  0  0  0  0  0
  189.5310  177.6090  143.2340 C   0  0  0  0  0  0  0  0  0  0  0  0
  188.9030  177.4550  145.8870 N   0  0  0  0  0  0  0  0  0  0  0  0
  188.4040  178.3670  141.3450 C   0  0  0  0  0  2  0  0  0  0  0  0
  189.8990  176.6930  147.7190 N   0  0  0  0  0  0  0  0  0  0  0  0
  186.6290  178.2760  147.0300 C   0  0  0  0  0  3  0  0  0  0  0  0
  187.6340  177.6910  147.8450 C   0  0  0  0  0  3  0  0  0  0  0  0
  190.4570  177.0570  144.0560 C   0  0  0  0  0  3  0  0  0  0  0  0
  189.6510  177.7800  141.8400 N   0  0  0  0  0  0  0  0  0  0  0  0
  188.2780  178.0840  143.7060 N   0  0  0  0  0  0  0  0  0  0  0  0
  186.8050  178.4240  145.6720 N   0  0  0  0  0  0  0  0  0  0  0  0
  190.6610  177.1610  140.9910 C   0  0  0  0  0  2  0  0  0  0  0  0
  190.4240  177.4990  139.5530 C   0  0  0  0  0  3  0  0  0  0  0  0
  190.1780  176.5430  138.6620 C   0  0  0  0  0  3  0  0  0  0  0  0
  189.9430  176.8920  137.2310 C   0  0  0  0  0  2  0  0  0  0  0  0
  188.5600  176.7710  136.9190 O   0  0  0  0  0  0  0  0  0  0  0  0
  187.6220  177.7670  137.2100 C   0  0  0  0  0  0  0  0  0  0  0  0
  188.0220  178.9380  137.4400 O   0  0  0  0  0  0  0  0  0  0  0  0
  185.4890  178.2530  138.3440 C   0  0  0  0  0  1  0  0  0  0  0  0
  186.1550  177.4850  137.2200 C   0  0  0  0  0  2  0  0  0  0  0  0
  186.2280  177.7560  142.4370 C   0  0  0  0  0  2  0  0  0  0  0  0
  185.2050  178.5410  141.8370 O   0  0  0  0  0  0  0  0  0  0  0  0
  181.0910  178.8930  143.5580 C   0  0  0  0  0  3  0  0  0  0  0  0
  182.2540  178.6280  144.1520 C   0  0  0  0  0  3  0  0  0  0  0  0
  183.8630  178.4480  142.2140 C   0  0  0  0  0  0  0  0  0  0  0  0
  183.5790  178.6830  143.5030 C   0  0  0  0  0  3  0  0  0  0  0  0
  181.5700  178.3930  141.1920 C   0  0  0  0  0  3  0  0  0  0  0  0
  182.8510  178.0230  141.2140 C   0  0  0  0  0  3  0  0  0  0  0  0
  180.9890  179.3760  142.1500 C   0  0  0  0  0  2  0  0  0  0  0  0
  1 10  2  0  0  0  0
  1 12  1  0  0  0  0
  2  8  1  0  0  0  0
  2  5  2  0  0  0  0
  3 16  2  0  0  0  0
  3  8  1  0  0  0  0
  4 26  1  6  0  0  0
  4 15  1  0  0  0  0
  5  6  1  0  0  0  0
  5 10  1  0  0  0  0
  7 15  1  0  0  0  0
  7 13  2  0  0  0  0
  8  1  1  0  0  0  0
  9 14  1  0  0  0  0
  9  4  1  0  0  0  0
 11 12  2  0  0  0  0
 13  2  1  0  0  0  0
 14  7  1  0  0  0  0
 15  3  1  0  0  0  0
 16 11  1  0  0  0  0
 17 14  1  0  0  0  0
 18 17  1  0  0  0  0
 19 18  2  0  0  0  0
 20 19  1  0  0  0  0
 21 22  1  0  0  0  0
 21 20  1  0  0  0  0
 22 25  1  0  0  0  0
 22 23  2  0  0  0  0
 25 24  1  0  0  0  0
 27 30  1  0  0  0  0
 27 26  1  0  0  0  0
 28 29  2  0  0  0  0
 30 31  2  0  0  0  0
 31 29  1  0  0  0  0
 32 33  2  0  0  0  0
 32 34  1  0  0  0  0
 33 30  1  0  0  0  0
 34 28  1  0  0  0  0
M  END
>  <MODEL>
6

>  <REMARK>
 VINA RESULT:      -8.1      1.660      6.307
  Name = 
  9 active torsions:
  status: ('A' for Active; 'I' for Inactive)
    1  A    between atoms: C_3  and  C_17
    2  A    between atoms: C_5  and  C_26
    3  A    between atoms: C_12  and  O_28
    4  A    between atoms: C_13  and  C_33
    5  A    between atoms: C_14  and  C_20
    6  A    between atoms: C_17  and  N_29
    7  A    between atoms: C_20  and  O_34
    8  A    between atoms: C_26  and  O_28
    9  A    between atoms: C_33  and  O_34
                            x       y       z     vdW  Elec       q    Type
                         _______ _______ _______ _____ _____    ______ ____

>  <TORSDO>
F 9

$$$$
=
 OpenBabel10252415083D

 34 38  0  0  1  0  0  0  0  0999 V2000
  190.3240  176.1950  136.9900 C   0  0  0  0  0  0  0  0  0  0  0  0
  188.3680  176.9860  137.4170 C   0  0  0  0  0  0  0  0  0  0  0  0
  189.9950  177.1280  139.1360 C   0  0  0  0  0  0  0  0  0  0  0  0
  189.1220  178.2130  141.3610 C   0  0  2  0  0  3  0  0  0  0  0  0
  188.3920  176.4760  136.1280 C   0  0  0  0  0  0  0  0  0  0  0  0
  187.2530  176.4610  135.1720 C   0  0  0  0  0  1  0  0  0  0  0  0
  187.7120  177.9940  139.4950 C   0  0  0  0  0  0  0  0  0  0  0  0
  189.5820  176.7910  137.9100 N   0  0  0  0  0  0  0  0  0  0  0  0
  187.7110  178.7780  141.6860 C   0  0  0  0  0  2  0  0  0  0  0  0
  189.6320  175.9690  135.8470 N   0  0  0  0  0  0  0  0  0  0  0  0
  192.1090  176.2320  138.5800 C   0  0  0  0  0  3  0  0  0  0  0  0
  191.6500  175.8800  137.2820 C   0  0  0  0  0  3  0  0  0  0  0  0
  187.3250  177.6380  138.2460 C   0  0  0  0  0  3  0  0  0  0  0  0
  186.9100  178.6210  140.4700 N   0  0  0  0  0  0  0  0  0  0  0  0
  189.0250  177.7550  139.9840 N   0  0  0  0  0  0  0  0  0  0  0  0
  191.2800  176.8480  139.4900 N   0  0  0  0  0  0  0  0  0  0  0  0
  185.4600  178.7550  140.4190 C   0  0  0  0  0  2  0  0  0  0  0  0
  184.9120  179.1000  141.7670 C   0  0  0  0  0  3  0  0  0  0  0  0
  184.0370  178.3000  142.3700 C   0  0  0  0  0  3  0  0  0  0  0  0
  183.4970  178.6550  143.7160 C   0  0  0  0  0  2  0  0  0  0  0  0
  182.3310  179.4570  143.5780 O   0  0  0  0  0  0  0  0  0  0  0  0
  181.0890  178.9390  143.1970 C   0  0  0  0  0  0  0  0  0  0  0  0
  180.3830  178.3450  144.0530 O   0  0  0  0  0  0  0  0  0  0  0  0
  180.9230  177.8930  140.9730 C   0  0  0  0  0  1  0  0  0  0  0  0
  180.5630  179.1040  141.8080 C   0  0  0  0  0  2  0  0  0  0  0  0
  189.4230  177.0390  142.2750 C   0  0  0  0  0  2  0  0  0  0  0  0
  189.9280  177.5090  143.5190 O   0  0  0  0  0  0  0  0  0  0  0  0
  188.3770  177.3950  147.7130 C   0  0  0  0  0  3  0  0  0  0  0  0
  189.5450  176.9900  147.2150 C   0  0  0  0  0  3  0  0  0  0  0  0
  189.2540  177.3180  144.7280 C   0  0  0  0  0  0  0  0  0  0  0  0
  190.0080  177.2150  145.8310 C   0  0  0  0  0  3  0  0  0  0  0  0
  186.9510  177.5180  145.7060 C   0  0  0  0  0  3  0  0  0  0  0  0
  187.7770  177.1600  144.7240 C   0  0  0  0  0  3  0  0  0  0  0  0
  187.4050  178.2210  146.9400 C   0  0  0  0  0  2  0  0  0  0  0  0
  1 12  1  0  0  0  0
  1  8  1  0  0  0  0
  2  8  1  0  0  0  0
  2 13  1  0  0  0  0
  3 16  2  0  0  0  0
  3 15  1  0  0  0  0
  4  9  1  0  0  0  0
  4 26  1  1  0  0  0
  5  2  2  0  0  0  0
  6  5  1  0  0  0  0
  7 15  1  0  0  0  0
  7 14  1  0  0  0  0
  8  3  1  0  0  0  0
 10  5  1  0  0  0  0
 10  1  2  0  0  0  0
 11 16  1  0  0  0  0
 12 11  2  0  0  0  0
 13  7  2  0  0  0  0
 14  9  1  0  0  0  0
 15  4  1  0  0  0  0
 17 14  1  0  0  0  0
 17 18  1  0  0  0  0
 18 19  2  0  0  0  0
 19 20  1  0  0  0  0
 21 20  1  0  0  0  0
 22 21  1  0  0  0  0
 22 23  2  0  0  0  0
 24 25  1  0  0  0  0
 25 22  1  0  0  0  0
 26 27  1  0  0  0  0
 27 30  1  0  0  0  0
 29 28  2  0  0  0  0
 30 31  2  0  0  0  0
 31 29  1  0  0  0  0
 32 34  1  0  0  0  0
 33 30  1  0  0  0  0
 33 32  2  0  0  0  0
 34 28  1  0  0  0  0
M  END
>  <MODEL>
7

>  <REMARK>
 VINA RESULT:      -7.9      2.471      6.743
  Name = 
  9 active torsions:
  status: ('A' for Active; 'I' for Inactive)
    1  A    between atoms: C_3  and  C_17
    2  A    between atoms: C_5  and  C_26
    3  A    between atoms: C_12  and  O_28
    4  A    between atoms: C_13  and  C_33
    5  A    between atoms: C_14  and  C_20
    6  A    between atoms: C_17  and  N_29
    7  A    between atoms: C_20  and  O_34
    8  A    between atoms: C_26  and  O_28
    9  A    between atoms: C_33  and  O_34
                            x       y       z     vdW  Elec       q    Type
                         _______ _______ _______ _____ _____    ______ ____

>  <TORSDO>
F 9

$$$$
=
 OpenBabel10252415083D

 34 38  0  0  1  0  0  0  0  0999 V2000
  190.0080  177.1670  145.8070 C   0  0  0  0  0  0  0  0  0  0  0  0
  187.9880  177.7240  146.2990 C   0  0  0  0  0  0  0  0  0  0  0  0
  188.4980  177.4070  144.0060 C   0  0  0  0  0  0  0  0  0  0  0  0
  186.4810  177.8400  142.3830 C   0  0  2  0  0  3  0  0  0  0  0  0
  188.7410  177.6310  147.4600 C   0  0  0  0  0  0  0  0  0  0  0  0
  188.2520  177.8780  148.8430 C   0  0  0  0  0  1  0  0  0  0  0  0
  186.2210  178.0500  144.7080 C   0  0  0  0  0  0  0  0  0  0  0  0
  188.8120  177.4290  145.3050 N   0  0  0  0  0  0  0  0  0  0  0  0
  185.0220  178.2530  142.7240 C   0  0  0  0  0  2  0  0  0  0  0  0
  190.0290  177.2780  147.1570 N   0  0  0  0  0  0  0  0  0  0  0  0
  190.7380  176.8020  143.5600 C   0  0  0  0  0  3  0  0  0  0  0  0
  191.0520  176.8330  144.9440 C   0  0  0  0  0  3  0  0  0  0  0  0
  186.5730  178.0650  146.0170 C   0  0  0  0  0  3  0  0  0  0  0  0
  184.9450  178.3400  144.1840 N   0  0  0  0  0  0  0  0  0  0  0  0
  187.1440  177.7370  143.6730 N   0  0  0  0  0  0  0  0  0  0  0  0
  189.4700  177.0890  143.1060 N   0  0  0  0  0  0  0  0  0  0  0  0
  183.8500  178.9680  144.9130 C   0  0  0  0  0  2  0  0  0  0  0  0
  182.7570  179.3770  143.9770 C   0  0  0  0  0  3  0  0  0  0  0  0
  181.6280  178.6770  143.9040 C   0  0  0  0  0  3  0  0  0  0  0  0
  180.5450  179.0950  142.9670 C   0  0  0  0  0  2  0  0  0  0  0  0
  180.9140  178.7920  141.6270 O   0  0  0  0  0  0  0  0  0  0  0  0
  180.2440  179.3120  140.5150 C   0  0  0  0  0  0  0  0  0  0  0  0
  179.0200  179.0610  140.3630 O   0  0  0  0  0  0  0  0  0  0  0  0
  180.5260  179.7990  138.1160 C   0  0  0  0  0  1  0  0  0  0  0  0
  180.9350  180.1890  139.5220 C   0  0  0  0  0  2  0  0  0  0  0  0
  187.1360  178.9290  141.5520 C   0  0  0  0  0  2  0  0  0  0  0  0
  187.5460  178.4010  140.2970 O   0  0  0  0  0  0  0  0  0  0  0  0
  185.1110  177.1710  136.7510 C   0  0  0  0  0  3  0  0  0  0  0  0
  186.4270  177.3390  136.8770 C   0  0  0  0  0  3  0  0  0  0  0  0
  186.6700  178.2540  139.2180 C   0  0  0  0  0  0  0  0  0  0  0  0
  187.1390  177.6050  138.1430 C   0  0  0  0  0  3  0  0  0  0  0  0
  184.2240  178.4230  138.6810 C   0  0  0  0  0  3  0  0  0  0  0  0
  185.3240  178.8780  139.2790 C   0  0  0  0  0  3  0  0  0  0  0  0
  184.1800  177.1430  137.9170 C   0  0  0  0  0  2  0  0  0  0  0  0
  1 10  2  0  0  0  0
  2  5  2  0  0  0  0
  3  8  1  0  0  0  0
  4 26  1  6  0  0  0
  4  9  1  0  0  0  0
  4 15  1  0  0  0  0
  5  6  1  0  0  0  0
  7 13  2  0  0  0  0
  8  1  1  0  0  0  0
  8  2  1  0  0  0  0
  9 14  1  0  0  0  0
 10  5  1  0  0  0  0
 11 12  2  0  0  0  0
 12  1  1  0  0  0  0
 13  2  1  0  0  0  0
 14  7  1  0  0  0  0
 14 17  1  0  0  0  0
 15  3  1  0  0  0  0
 15  7  1  0  0  0  0
 16 11  1  0  0  0  0
 16  3  2  0  0  0  0
 18 17  1  0  0  0  0
 19 18  2  0  0  0  0
 20 19  1  0  0  0  0
 21 20  1  0  0  0  0
 22 21  1  0  0  0  0
 23 22  2  0  0  0  0
 24 25  1  0  0  0  0
 25 22  1  0  0  0  0
 27 26  1  0  0  0  0
 28 29  2  0  0  0  0
 28 34  1  0  0  0  0
 29 31  1  0  0  0  0
 30 33  1  0  0  0  0
 30 27  1  0  0  0  0
 31 30  2  0  0  0  0
 32 33  2  0  0  0  0
 34 32  1  0  0  0  0
M  END
>  <MODEL>
8

>  <REMARK>
 VINA RESULT:      -7.8      1.625      2.369
  Name = 
  9 active torsions:
  status: ('A' for Active; 'I' for Inactive)
    1  A    between atoms: C_3  and  C_17
    2  A    between atoms: C_5  and  C_26
    3  A    between atoms: C_12  and  O_28
    4  A    between atoms: C_13  and  C_33
    5  A    between atoms: C_14  and  C_20
    6  A    between atoms: C_17  and  N_29
    7  A    between atoms: C_20  and  O_34
    8  A    between atoms: C_26  and  O_28
    9  A    between atoms: C_33  and  O_34
                            x       y       z     vdW  Elec       q    Type
                         _______ _______ _______ _____ _____    ______ ____

>  <TORSDO>
F 9

$$$$
=
 OpenBabel10252415083D

 34 38  0  0  1  0  0  0  0  0999 V2000
  190.3680  177.3270  139.5140 C   0  0  0  0  0  0  0  0  0  0  0  0
  188.4230  177.8210  138.7340 C   0  0  0  0  0  0  0  0  0  0  0  0
  188.7260  177.9870  141.0790 C   0  0  0  0  0  0  0  0  0  0  0  0
  186.5760  178.7210  142.3950 C   0  0  2  0  0  3  0  0  0  0  0  0
  189.2630  177.4520  137.6930 C   0  0  0  0  0  0  0  0  0  0  0  0
  188.8960  177.3950  136.2520 C   0  0  0  0  0  1  0  0  0  0  0  0
  186.5460  178.5220  140.0540 C   0  0  0  0  0  0  0  0  0  0  0  0
  189.1500  177.7280  139.8380 N   0  0  0  0  0  0  0  0  0  0  0  0
  185.1650  179.0700  141.8450 C   0  0  0  0  0  2  0  0  0  0  0  0
  190.5020  177.1350  138.1800 N   0  0  0  0  0  0  0  0  0  0  0  0
  190.8880  177.4210  141.8450 C   0  0  0  0  0  3  0  0  0  0  0  0
  191.3180  177.1500  140.5190 C   0  0  0  0  0  3  0  0  0  0  0  0
  187.0060  178.2500  138.8090 C   0  0  0  0  0  3  0  0  0  0  0  0
  185.2410  178.9400  140.3880 N   0  0  0  0  0  0  0  0  0  0  0  0
  187.3600  178.3980  141.2130 N   0  0  0  0  0  0  0  0  0  0  0  0
  189.6020  177.8340  142.1110 N   0  0  0  0  0  0  0  0  0  0  0  0
  184.0830  178.8980  139.5050 C   0  0  0  0  0  2  0  0  0  0  0  0
  183.5560  177.5030  139.3910 C   0  0  0  0  0  3  0  0  0  0  0  0
  182.7980  177.1450  138.3570 C   0  0  0  0  0  3  0  0  0  0  0  0
  182.2780  175.7510  138.2540 C   0  0  0  0  0  2  0  0  0  0  0  0
  182.8380  175.1040  137.1170 O   0  0  0  0  0  0  0  0  0  0  0  0
  183.8880  174.1840  137.2030 C   0  0  0  0  0  0  0  0  0  0  0  0
  183.6260  172.9530  137.2280 O   0  0  0  0  0  0  0  0  0  0  0  0
  185.5540  175.6640  136.1520 C   0  0  0  0  0  1  0  0  0  0  0  0
  185.3160  174.6240  137.2280 C   0  0  0  0  0  2  0  0  0  0  0  0
  186.4840  177.5060  143.3000 C   0  0  0  0  0  2  0  0  0  0  0  0
  186.1990  177.9140  144.6320 O   0  0  0  0  0  0  0  0  0  0  0  0
  188.7550  177.7390  148.3000 C   0  0  0  0  0  3  0  0  0  0  0  0
  187.5860  178.3440  148.0920 C   0  0  0  0  0  3  0  0  0  0  0  0
  187.1790  177.9800  145.6270 C   0  0  0  0  0  0  0  0  0  0  0  0
  186.7570  178.2100  146.8780 C   0  0  0  0  0  3  0  0  0  0  0  0
  189.5860  177.3750  146.0080 C   0  0  0  0  0  3  0  0  0  0  0  0
  188.6120  177.8760  145.2480 C   0  0  0  0  0  3  0  0  0  0  0  0
  189.3440  176.7570  147.3430 C   0  0  0  0  0  2  0  0  0  0  0  0
  1  8  1  0  0  0  0
  1 12  1  0  0  0  0
  2 13  1  0  0  0  0
  2  8  1  0  0  0  0
  3 15  1  0  0  0  0
  3 16  2  0  0  0  0
  4 26  1  1  0  0  0
  5 10  1  0  0  0  0
  5  2  2  0  0  0  0
  6  5  1  0  0  0  0
  7 14  1  0  0  0  0
  7 15  1  0  0  0  0
  8  3  1  0  0  0  0
  9  4  1  0  0  0  0
 10  1  2  0  0  0  0
 11 16  1  0  0  0  0
 12 11  2  0  0  0  0
 13  7  2  0  0  0  0
 14  9  1  0  0  0  0
 15  4  1  0  0  0  0
 17 14  1  0  0  0  0
 18 17  1  0  0  0  0
 19 18  2  0  0  0  0
 20 19  1  0  0  0  0
 21 22  1  0  0  0  0
 21 20  1  0  0  0  0
 22 25  1  0  0  0  0
 22 23  2  0  0  0  0
 24 25  1  0  0  0  0
 26 27  1  0  0  0  0
 27 30  1  0  0  0  0
 29 28  2  0  0  0  0
 30 31  2  0  0  0  0
 31 29  1  0  0  0  0
 32 34  1  0  0  0  0
 33 30  1  0  0  0  0
 33 32  2  0  0  0  0
 34 28  1  0  0  0  0
M  END
>  <MODEL>
9

>  <REMARK>
 VINA RESULT:      -7.8      2.884      6.708
  Name = 
  9 active torsions:
  status: ('A' for Active; 'I' for Inactive)
    1  A    between atoms: C_3  and  C_17
    2  A    between atoms: C_5  and  C_26
    3  A    between atoms: C_12  and  O_28
    4  A    between atoms: C_13  and  C_33
    5  A    between atoms: C_14  and  C_20
    6  A    between atoms: C_17  and  N_29
    7  A    between atoms: C_20  and  O_34
    8  A    between atoms: C_26  and  O_28
    9  A    between atoms: C_33  and  O_34
                            x       y       z     vdW  Elec       q    Type
                         _______ _______ _______ _____ _____    ______ ____

>  <TORSDO>
F 9

$$$$
