=
 OpenBabel10262423143D

 34 38  0  0  1  0  0  0  0  0999 V2000
  187.6990  177.6320  144.5080 C   0  0  2  0  0  3  0  0  0  0  0  0
  183.9240  178.4700  145.0680 C   0  0  0  0  0  2  0  0  0  0  0  0
  182.9170  178.8870  141.7310 C   0  0  0  0  0  0  0  0  0  0  0  0
  185.7870  178.2770  146.5750 O   0  0  0  0  0  0  0  0  0  0  0  0
  189.4330  177.6730  146.3510 C   0  0  0  0  0  3  0  0  0  0  0  0
  188.8210  178.0350  148.6640 C   0  0  0  0  0  3  0  0  0  0  0  0
  183.2860  178.6630  140.5480 O   0  0  0  0  0  0  0  0  0  0  0  0
  189.7970  177.7900  147.6950 C   0  0  0  0  0  3  0  0  0  0  0  0
  187.1190  178.0830  146.9410 C   0  0  0  0  0  0  0  0  0  0  0  0
  188.0910  177.7940  145.9650 C   0  0  0  0  0  0  0  0  0  0  0  0
  187.4840  178.1820  148.2880 C   0  0  0  0  0  3  0  0  0  0  0  0
  183.4360  179.5340  144.0940 C   0  0  0  0  0  2  0  0  0  0  0  0
  181.5670  178.7980  142.0520 O   0  0  0  0  0  1  0  0  0  0  0  0
  183.8770  179.2390  142.7360 N   0  0  0  0  0  0  0  0  0  0  0  0
  185.3040  179.2250  142.4320 C   0  0  0  0  0  2  0  0  0  0  0  0
  185.4330  178.5680  145.2290 C   0  0  1  0  0  3  0  0  0  0  0  0
  185.8810  177.8560  142.7700 C   0  0  0  0  0  2  0  0  0  0  0  0
  186.1770  177.6280  144.2650 C   0  0  1  0  0  3  0  0  0  0  0  0
  188.3370  176.3860  143.8780 C   0  0  0  0  0  2  0  0  0  0  0  0
  189.7820  176.6340  143.4540 C   0  0  0  0  0  2  0  0  0  0  0  0
  189.8950  177.8890  142.6010 C   0  0  0  0  0  2  0  0  0  0  0  0
  190.1100  176.5250  139.1000 N   0  0  0  0  0  0  0  0  0  0  0  0
  188.3940  178.0960  140.6090 C   0  0  0  0  0  3  0  0  0  0  0  0
  187.4850  177.1650  136.6170 C   0  0  0  0  0  0  0  0  0  0  0  0
  188.6620  176.6790  137.2040 C   0  0  0  0  0  3  0  0  0  0  0  0
  188.9670  176.9920  138.5310 C   0  0  0  0  0  0  0  0  0  0  0  0
  186.9130  178.2830  138.6980 C   0  0  0  0  0  3  0  0  0  0  0  0
  188.0840  177.7980  139.2820 C   0  0  0  0  0  0  0  0  0  0  0  0
  186.6160  177.9680  137.3690 C   0  0  0  0  0  3  0  0  0  0  0  0
  189.5700  177.5970  141.1720 C   0  0  0  0  0  0  0  0  0  0  0  0
  190.4270  176.8110  140.3930 C   0  0  0  0  0  3  0  0  0  0  0  0
  187.1530  176.8320  135.2230 C   0  0  0  0  0  0  0  0  0  0  0  0
  186.1330  177.4680  134.5950 F   0  0  0  0  0  0  0  0  0  0  0  0
  187.8080  175.9540  134.6000 O   0  0  0  0  0  0  0  0  0  0  0  0
  1 19  1  1  0  0  0
  1 10  1  0  0  0  0
  3 13  1  0  0  0  0
  3 14  1  0  0  0  0
  4  9  1  0  0  0  0
  5  8  1  0  0  0  0
  7  3  2  0  0  0  0
  8  6  2  0  0  0  0
  9 11  2  0  0  0  0
 10  5  2  0  0  0  0
 10  9  1  0  0  0  0
 11  6  1  0  0  0  0
 12  2  1  0  0  0  0
 14 12  1  0  0  0  0
 15 14  1  0  0  0  0
 15 17  1  0  0  0  0
 16  2  1  1  0  0  0
 16  4  1  0  0  0  0
 18 17  1  6  0  0  0
 18  1  1  0  0  0  0
 18 16  1  0  0  0  0
 20 19  1  0  0  0  0
 21 20  1  0  0  0  0
 22 31  1  0  0  0  0
 23 30  1  0  0  0  0
 24 25  2  0  0  0  0
 24 29  1  0  0  0  0
 25 26  1  0  0  0  0
 26 22  2  0  0  0  0
 26 28  1  0  0  0  0
 27 28  1  0  0  0  0
 28 23  2  0  0  0  0
 29 27  2  0  0  0  0
 30 21  1  0  0  0  0
 31 30  2  0  0  0  0
 32 24  1  0  0  0  0
 33 32  1  0  0  0  0
 34 32  2  0  0  0  0
M  END
>  <MODEL>
1

>  <REMARK>
 VINA RESULT:     -10.2      0.000      0.000
  Name = 
  5 active torsions:
  status: ('A' for Active; 'I' for Inactive)
    1  A    between atoms: C_1  and  C_9
    2  A    between atoms: C_7  and  C_11
    3  A    between atoms: C_8  and  C_9
    4  A    between atoms: C_8  and  C_18
    5  A    between atoms: C_18  and  C_30
                            x       y       z     vdW  Elec       q    Type
                         _______ _______ _______ _____ _____    ______ ____

>  <TORSDO>
F 5

$$$$
=
 OpenBabel10262423143D

 34 38  0  0  1  0  0  0  0  0999 V2000
  184.9490  178.3740  141.8190 C   0  0  2  0  0  3  0  0  0  0  0  0
  183.2180  179.1080  138.3940 C   0  0  0  0  0  2  0  0  0  0  0  0
  179.8620  178.7020  139.3360 C   0  0  0  0  0  0  0  0  0  0  0  0
  185.5160  178.7600  139.0130 O   0  0  0  0  0  0  0  0  0  0  0  0
  187.4230  177.9020  142.0680 C   0  0  0  0  0  3  0  0  0  0  0  0
  188.9460  178.0840  140.1960 C   0  0  0  0  0  3  0  0  0  0  0  0
  179.1180  178.6240  140.3500 O   0  0  0  0  0  1  0  0  0  0  0  0
  188.7180  177.8190  141.5490 C   0  0  0  0  0  3  0  0  0  0  0  0
  186.5780  178.4770  139.8710 C   0  0  0  0  0  0  0  0  0  0  0  0
  186.3470  178.2540  141.2410 C   0  0  0  0  0  0  0  0  0  0  0  0
  187.8780  178.4110  139.3580 C   0  0  0  0  0  3  0  0  0  0  0  0
  182.0180  178.1990  138.1670 C   0  0  0  0  0  2  0  0  0  0  0  0
  179.3890  179.3360  138.1930 O   0  0  0  0  0  0  0  0  0  0  0  0
  181.1790  178.1370  139.3580 N   0  0  0  0  0  0  0  0  0  0  0  0
  181.7210  177.5710  140.5880 C   0  0  0  0  0  2  0  0  0  0  0  0
  184.1750  178.4640  139.3850 C   0  0  1  0  0  3  0  0  0  0  0  0
  182.4830  178.6490  141.3490 C   0  0  0  0  0  2  0  0  0  0  0  0
  183.9060  178.9270  140.8280 C   0  0  1  0  0  3  0  0  0  0  0  0
  184.9340  179.1980  143.1140 C   0  0  0  0  0  2  0  0  0  0  0  0
  184.5640  178.3510  144.3280 C   0  0  0  0  0  2  0  0  0  0  0  0
  184.9090  179.0700  145.6240 C   0  0  0  0  0  2  0  0  0  0  0  0
  187.6280  178.1260  148.0490 N   0  0  0  0  0  0  0  0  0  0  0  0
  187.2010  178.1150  145.3090 C   0  0  0  0  0  3  0  0  0  0  0  0
  190.8080  176.6870  146.9160 C   0  0  0  0  0  0  0  0  0  0  0  0
  189.8010  177.1720  147.7630 C   0  0  0  0  0  3  0  0  0  0  0  0
  188.6030  177.6520  147.2280 C   0  0  0  0  0  0  0  0  0  0  0  0
  189.4070  177.1620  144.9870 C   0  0  0  0  0  3  0  0  0  0  0  0
  188.4050  177.6440  145.8310 C   0  0  0  0  0  0  0  0  0  0  0  0
  190.6050  176.6870  145.5290 C   0  0  0  0  0  3  0  0  0  0  0  0
  186.2120  178.5900  146.1740 C   0  0  0  0  0  0  0  0  0  0  0  0
  186.4490  178.5930  147.5540 C   0  0  0  0  0  3  0  0  0  0  0  0
  192.0690  176.1730  147.4720 C   0  0  0  0  0  0  0  0  0  0  0  0
  192.6930  175.1210  146.8860 F   0  0  0  0  0  0  0  0  0  0  0  0
  192.5810  176.7000  148.4950 O   0  0  0  0  0  0  0  0  0  0  0  0
  1 19  1  1  0  0  0
  3 14  1  0  0  0  0
  3  7  1  0  0  0  0
  4 16  1  0  0  0  0
  4  9  1  0  0  0  0
  6  8  2  0  0  0  0
  8  5  1  0  0  0  0
  9 10  1  0  0  0  0
 10  1  1  0  0  0  0
 10  5  2  0  0  0  0
 11  9  2  0  0  0  0
 11  6  1  0  0  0  0
 12  2  1  0  0  0  0
 12 14  1  0  0  0  0
 13  3  2  0  0  0  0
 14 15  1  0  0  0  0
 15 17  1  0  0  0  0
 16  2  1  6  0  0  0
 16 18  1  0  0  0  0
 18 17  1  1  0  0  0
 18  1  1  0  0  0  0
 19 20  1  0  0  0  0
 20 21  1  0  0  0  0
 21 30  1  0  0  0  0
 23 28  2  0  0  0  0
 23 30  1  0  0  0  0
 24 32  1  0  0  0  0
 24 25  2  0  0  0  0
 26 25  1  0  0  0  0
 26 22  2  0  0  0  0
 27 29  2  0  0  0  0
 27 28  1  0  0  0  0
 28 26  1  0  0  0  0
 29 24  1  0  0  0  0
 30 31  2  0  0  0  0
 31 22  1  0  0  0  0
 32 34  2  0  0  0  0
 33 32  1  0  0  0  0
M  END
>  <MODEL>
2

>  <REMARK>
 VINA RESULT:     -10.0      3.771      7.639
  Name = 
  5 active torsions:
  status: ('A' for Active; 'I' for Inactive)
    1  A    between atoms: C_1  and  C_9
    2  A    between atoms: C_7  and  C_11
    3  A    between atoms: C_8  and  C_9
    4  A    between atoms: C_8  and  C_18
    5  A    between atoms: C_18  and  C_30
                            x       y       z     vdW  Elec       q    Type
                         _______ _______ _______ _____ _____    ______ ____

>  <TORSDO>
F 5

$$$$
=
 OpenBabel10262423143D

 34 38  0  0  1  0  0  0  0  0999 V2000
  187.6290  177.5990  144.4750 C   0  0  2  0  0  3  0  0  0  0  0  0
  183.8880  178.5250  145.1150 C   0  0  0  0  0  2  0  0  0  0  0  0
  182.8160  178.9510  141.8000 C   0  0  0  0  0  0  0  0  0  0  0  0
  185.7790  178.2960  146.5820 O   0  0  0  0  0  0  0  0  0  0  0  0
  189.4050  177.6070  146.2790 C   0  0  0  0  0  3  0  0  0  0  0  0
  188.8530  177.9930  148.6030 C   0  0  0  0  0  3  0  0  0  0  0  0
  183.1530  178.7130  140.6100 O   0  0  0  0  0  0  0  0  0  0  0  0
  189.8010  177.7220  147.6140 C   0  0  0  0  0  3  0  0  0  0  0  0
  187.1140  178.0730  146.9190 C   0  0  0  0  0  0  0  0  0  0  0  0
  188.0570  177.7570  145.9220 C   0  0  0  0  0  0  0  0  0  0  0  0
  187.5120  178.1690  148.2560 C   0  0  0  0  0  3  0  0  0  0  0  0
  183.4030  179.5950  144.1470 C   0  0  0  0  0  2  0  0  0  0  0  0
  181.4720  178.8930  142.1510 O   0  0  0  0  0  1  0  0  0  0  0  0
  183.8060  179.2850  142.7810 N   0  0  0  0  0  0  0  0  0  0  0  0
  185.2250  179.2370  142.4460 C   0  0  0  0  0  2  0  0  0  0  0  0
  185.4020  178.5890  145.2420 C   0  0  1  0  0  3  0  0  0  0  0  0
  185.7780  177.8560  142.7770 C   0  0  0  0  0  2  0  0  0  0  0  0
  186.1020  177.6280  144.2660 C   0  0  1  0  0  3  0  0  0  0  0  0
  188.2250  176.3350  143.8370 C   0  0  0  0  0  2  0  0  0  0  0  0
  189.5110  176.6310  143.0730 C   0  0  0  0  0  2  0  0  0  0  0  0
  189.2260  177.4260  141.8070 C   0  0  0  0  0  2  0  0  0  0  0  0
  192.6340  177.2810  140.2180 N   0  0  0  0  0  0  0  0  0  0  0  0
  189.9970  176.7940  139.5110 C   0  0  0  0  0  3  0  0  0  0  0  0
  193.0980  176.1880  136.7460 C   0  0  0  0  0  0  0  0  0  0  0  0
  193.3870  176.6370  138.0430 C   0  0  0  0  0  3  0  0  0  0  0  0
  192.3550  176.8420  138.9620 C   0  0  0  0  0  0  0  0  0  0  0  0
  190.7300  176.1500  137.2910 C   0  0  0  0  0  3  0  0  0  0  0  0
  191.0180  176.5950  138.5820 C   0  0  0  0  0  0  0  0  0  0  0  0
  191.7670  175.9490  136.3760 C   0  0  0  0  0  3  0  0  0  0  0  0
  190.3110  177.2370  140.7980 C   0  0  0  0  0  0  0  0  0  0  0  0
  191.6480  177.4830  141.1340 C   0  0  0  0  0  3  0  0  0  0  0  0
  194.1800  175.9610  135.7760 C   0  0  0  0  0  0  0  0  0  0  0  0
  194.1490  174.8750  134.9640 F   0  0  0  0  0  0  0  0  0  0  0  0
  195.1440  176.7680  135.6890 O   0  0  0  0  0  0  0  0  0  0  0  0
  1 19  1  1  0  0  0
  1 10  1  0  0  0  0
  3 13  1  0  0  0  0
  3 14  1  0  0  0  0
  4  9  1  0  0  0  0
  5  8  1  0  0  0  0
  7  3  2  0  0  0  0
  8  6  2  0  0  0  0
  9 11  2  0  0  0  0
 10  5  2  0  0  0  0
 10  9  1  0  0  0  0
 11  6  1  0  0  0  0
 12  2  1  0  0  0  0
 14 12  1  0  0  0  0
 15 17  1  0  0  0  0
 15 14  1  0  0  0  0
 16  2  1  1  0  0  0
 16  4  1  0  0  0  0
 18 17  1  6  0  0  0
 18  1  1  0  0  0  0
 18 16  1  0  0  0  0
 20 19  1  0  0  0  0
 21 20  1  0  0  0  0
 22 31  1  0  0  0  0
 23 30  1  0  0  0  0
 24 25  2  0  0  0  0
 25 26  1  0  0  0  0
 26 22  2  0  0  0  0
 27 28  1  0  0  0  0
 28 26  1  0  0  0  0
 28 23  2  0  0  0  0
 29 24  1  0  0  0  0
 29 27  2  0  0  0  0
 30 31  2  0  0  0  0
 30 21  1  0  0  0  0
 32 24  1  0  0  0  0
 33 32  1  0  0  0  0
 34 32  2  0  0  0  0
M  END
>  <MODEL>
3

>  <REMARK>
 VINA RESULT:      -9.9      2.612      3.098
  Name = 
  5 active torsions:
  status: ('A' for Active; 'I' for Inactive)
    1  A    between atoms: C_1  and  C_9
    2  A    between atoms: C_7  and  C_11
    3  A    between atoms: C_8  and  C_9
    4  A    between atoms: C_8  and  C_18
    5  A    between atoms: C_18  and  C_30
                            x       y       z     vdW  Elec       q    Type
                         _______ _______ _______ _____ _____    ______ ____

>  <TORSDO>
F 5

$$$$
=
 OpenBabel10262423143D

 34 38  0  0  1  0  0  0  0  0999 V2000
  183.1530  178.6960  141.9000 C   0  0  2  0  0  3  0  0  0  0  0  0
  182.6900  177.0560  138.3840 C   0  0  0  0  0  2  0  0  0  0  0  0
  185.9280  177.4960  137.1030 C   0  0  0  0  0  0  0  0  0  0  0  0
  181.1320  177.6680  140.1100 O   0  0  0  0  0  0  0  0  0  0  0  0
  181.2280  179.3480  143.4080 C   0  0  0  0  0  3  0  0  0  0  0  0
  178.9370  178.7980  142.8540 C   0  0  0  0  0  3  0  0  0  0  0  0
  187.1040  177.7790  137.4540 O   0  0  0  0  0  1  0  0  0  0  0  0
  179.8670  179.3710  143.7240 C   0  0  0  0  0  3  0  0  0  0  0  0
  180.7240  178.2090  141.3280 C   0  0  0  0  0  0  0  0  0  0  0  0
  181.6710  178.7470  142.2210 C   0  0  0  0  0  0  0  0  0  0  0  0
  179.3650  178.2180  141.6570 C   0  0  0  0  0  3  0  0  0  0  0  0
  183.4530  177.8150  137.3070 C   0  0  0  0  0  2  0  0  0  0  0  0
  185.7250  176.5770  136.0790 O   0  0  0  0  0  0  0  0  0  0  0  0
  184.8090  178.1200  137.7460 N   0  0  0  0  0  0  0  0  0  0  0  0
  185.0110  178.9980  138.8940 C   0  0  0  0  0  2  0  0  0  0  0  0
  182.4090  177.9730  139.5640 C   0  0  1  0  0  3  0  0  0  0  0  0
  184.9270  178.1810  140.1770 C   0  0  0  0  0  2  0  0  0  0  0  0
  183.4950  177.8620  140.6490 C   0  0  1  0  0  3  0  0  0  0  0  0
  183.9820  178.2130  143.0980 C   0  0  0  0  0  2  0  0  0  0  0  0
  184.5790  179.3750  143.8870 C   0  0  0  0  0  2  0  0  0  0  0  0
  184.5120  179.1120  145.3850 C   0  0  0  0  0  2  0  0  0  0  0  0
  187.2730  178.1330  147.7470 N   0  0  0  0  0  0  0  0  0  0  0  0
  186.8100  178.1900  145.0130 C   0  0  0  0  0  3  0  0  0  0  0  0
  190.4520  176.7590  146.5330 C   0  0  0  0  0  0  0  0  0  0  0  0
  189.4520  177.2110  147.4070 C   0  0  0  0  0  3  0  0  0  0  0  0
  188.2420  177.6910  146.9010 C   0  0  0  0  0  0  0  0  0  0  0  0
  189.0210  177.2690  144.6360 C   0  0  0  0  0  3  0  0  0  0  0  0
  188.0250  177.7170  145.5060 C   0  0  0  0  0  0  0  0  0  0  0  0
  190.2310  176.7930  145.1490 C   0  0  0  0  0  3  0  0  0  0  0  0
  185.8280  178.6310  145.9040 C   0  0  0  0  0  0  0  0  0  0  0  0
  186.0830  178.6000  147.2800 C   0  0  0  0  0  3  0  0  0  0  0  0
  191.7260  176.2430  147.0580 C   0  0  0  0  0  0  0  0  0  0  0  0
  192.3470  175.2070  146.4420 F   0  0  0  0  0  0  0  0  0  0  0  0
  192.2510  176.7550  148.0830 O   0  0  0  0  0  0  0  0  0  0  0  0
  1 10  1  0  0  0  0
  1 19  1  1  0  0  0
  3  7  1  0  0  0  0
  3 14  1  0  0  0  0
  4  9  1  0  0  0  0
  5  8  1  0  0  0  0
  6  8  2  0  0  0  0
  9 11  2  0  0  0  0
  9 10  1  0  0  0  0
 10  5  2  0  0  0  0
 11  6  1  0  0  0  0
 12 14  1  0  0  0  0
 12  2  1  0  0  0  0
 13  3  2  0  0  0  0
 14 15  1  0  0  0  0
 15 17  1  0  0  0  0
 16  2  1  6  0  0  0
 16  4  1  0  0  0  0
 16 18  1  0  0  0  0
 18 17  1  6  0  0  0
 18  1  1  0  0  0  0
 19 20  1  0  0  0  0
 20 21  1  0  0  0  0
 21 30  1  0  0  0  0
 23 28  2  0  0  0  0
 23 30  1  0  0  0  0
 24 32  1  0  0  0  0
 24 25  2  0  0  0  0
 26 25  1  0  0  0  0
 26 22  2  0  0  0  0
 27 29  2  0  0  0  0
 27 28  1  0  0  0  0
 28 26  1  0  0  0  0
 29 24  1  0  0  0  0
 30 31  2  0  0  0  0
 31 22  1  0  0  0  0
 32 34  2  0  0  0  0
 33 32  1  0  0  0  0
M  END
>  <MODEL>
4

>  <REMARK>
 VINA RESULT:      -9.6      3.609      8.182
  Name = 
  5 active torsions:
  status: ('A' for Active; 'I' for Inactive)
    1  A    between atoms: C_1  and  C_9
    2  A    between atoms: C_7  and  C_11
    3  A    between atoms: C_8  and  C_9
    4  A    between atoms: C_8  and  C_18
    5  A    between atoms: C_18  and  C_30
                            x       y       z     vdW  Elec       q    Type
                         _______ _______ _______ _____ _____    ______ ____

>  <TORSDO>
F 5

$$$$
=
 OpenBabel10262423143D

 34 38  0  0  1  0  0  0  0  0999 V2000
  185.2080  178.7630  140.6560 C   0  0  2  0  0  3  0  0  0  0  0  0
  187.6070  177.1390  138.0340 C   0  0  0  0  0  2  0  0  0  0  0  0
  190.6350  177.3610  139.7960 C   0  0  0  0  0  0  0  0  0  0  0  0
  185.3160  177.8600  137.9140 O   0  0  0  0  0  0  0  0  0  0  0  0
  182.8630  179.5470  140.1160 C   0  0  0  0  0  3  0  0  0  0  0  0
  181.8550  179.1440  137.9520 C   0  0  0  0  0  3  0  0  0  0  0  0
  191.0990  177.5690  140.9480 O   0  0  0  0  0  1  0  0  0  0  0  0
  181.7730  179.6600  139.2480 C   0  0  0  0  0  3  0  0  0  0  0  0
  184.1320  178.4330  138.3770 C   0  0  0  0  0  0  0  0  0  0  0  0
  184.0410  178.9120  139.6980 C   0  0  0  0  0  0  0  0  0  0  0  0
  183.0330  178.5320  137.5170 C   0  0  0  0  0  3  0  0  0  0  0  0
  188.9570  177.8420  138.0000 C   0  0  0  0  0  2  0  0  0  0  0  0
  191.2710  176.4530  138.9580 O   0  0  0  0  0  0  0  0  0  0  0  0
  189.4650  178.0600  139.3480 N   0  0  0  0  0  0  0  0  0  0  0  0
  188.7290  178.9280  140.2610 C   0  0  0  0  0  2  0  0  0  0  0  0
  186.5480  178.0780  138.5910 C   0  0  1  0  0  3  0  0  0  0  0  0
  187.6340  178.1260  140.9520 C   0  0  0  0  0  2  0  0  0  0  0  0
  186.3640  177.9030  140.1080 C   0  0  1  0  0  3  0  0  0  0  0  0
  184.7600  178.2340  142.0260 C   0  0  0  0  0  2  0  0  0  0  0  0
  184.9610  179.2650  143.1330 C   0  0  0  0  0  2  0  0  0  0  0  0
  184.6740  178.6630  144.5010 C   0  0  0  0  0  2  0  0  0  0  0  0
  187.1600  177.9360  147.2300 N   0  0  0  0  0  0  0  0  0  0  0  0
  187.0600  177.9090  144.4590 C   0  0  0  0  0  3  0  0  0  0  0  0
  190.5630  176.7830  146.4810 C   0  0  0  0  0  0  0  0  0  0  0  0
  189.4260  177.1740  147.2040 C   0  0  0  0  0  3  0  0  0  0  0  0
  188.2620  177.5530  146.5300 C   0  0  0  0  0  0  0  0  0  0  0  0
  189.3630  177.1510  144.4000 C   0  0  0  0  0  3  0  0  0  0  0  0
  188.2310  177.5380  145.1190 C   0  0  0  0  0  0  0  0  0  0  0  0
  190.5250  176.7760  145.0800 C   0  0  0  0  0  3  0  0  0  0  0  0
  185.9400  178.2910  145.2000 C   0  0  0  0  0  0  0  0  0  0  0  0
  186.0120  178.3040  146.5980 C   0  0  0  0  0  3  0  0  0  0  0  0
  191.7890  176.3740  147.1830 C   0  0  0  0  0  0  0  0  0  0  0  0
  192.4790  175.2810  146.7690 F   0  0  0  0  0  0  0  0  0  0  0  0
  192.2110  177.0290  148.1720 O   0  0  0  0  0  0  0  0  0  0  0  0
  1 19  1  1  0  0  0
  3  7  1  0  0  0  0
  4  9  1  0  0  0  0
  4 16  1  0  0  0  0
  6  8  1  0  0  0  0
  8  5  2  0  0  0  0
  9 10  2  0  0  0  0
 10  5  1  0  0  0  0
 10  1  1  0  0  0  0
 11  6  2  0  0  0  0
 11  9  1  0  0  0  0
 12  2  1  0  0  0  0
 12 14  1  0  0  0  0
 13  3  2  0  0  0  0
 14  3  1  0  0  0  0
 14 15  1  0  0  0  0
 15 17  1  0  0  0  0
 16  2  1  6  0  0  0
 16 18  1  0  0  0  0
 18  1  1  0  0  0  0
 18 17  1  1  0  0  0
 19 20  1  0  0  0  0
 20 21  1  0  0  0  0
 21 30  1  0  0  0  0
 23 28  2  0  0  0  0
 23 30  1  0  0  0  0
 24 32  1  0  0  0  0
 24 25  2  0  0  0  0
 26 25  1  0  0  0  0
 26 22  2  0  0  0  0
 27 29  2  0  0  0  0
 27 28  1  0  0  0  0
 28 26  1  0  0  0  0
 29 24  1  0  0  0  0
 30 31  2  0  0  0  0
 31 22  1  0  0  0  0
 32 34  2  0  0  0  0
 33 32  1  0  0  0  0
M  END
>  <MODEL>
5

>  <REMARK>
 VINA RESULT:      -9.5      3.656      8.601
  Name = 
  5 active torsions:
  status: ('A' for Active; 'I' for Inactive)
    1  A    between atoms: C_1  and  C_9
    2  A    between atoms: C_7  and  C_11
    3  A    between atoms: C_8  and  C_9
    4  A    between atoms: C_8  and  C_18
    5  A    between atoms: C_18  and  C_30
                            x       y       z     vdW  Elec       q    Type
                         _______ _______ _______ _____ _____    ______ ____

>  <TORSDO>
F 5

$$$$
=
 OpenBabel10262423143D

 34 38  0  0  1  0  0  0  0  0999 V2000
  184.4210  179.0070  138.7230 C   0  0  2  0  0  3  0  0  0  0  0  0
  185.6350  175.8820  136.7170 C   0  0  0  0  0  2  0  0  0  0  0  0
  189.1050  176.2590  137.0920 C   0  0  0  0  0  0  0  0  0  0  0  0
  183.4820  176.9270  136.9510 O   0  0  0  0  0  0  0  0  0  0  0  0
  182.0640  179.9210  138.6040 C   0  0  0  0  0  3  0  0  0  0  0  0
  180.3170  178.7760  137.3820 C   0  0  0  0  0  3  0  0  0  0  0  0
  189.9680  176.8770  137.7680 O   0  0  0  0  0  1  0  0  0  0  0  0
  180.7340  179.8420  138.1830 C   0  0  0  0  0  3  0  0  0  0  0  0
  182.5690  177.8840  137.3920 C   0  0  0  0  0  0  0  0  0  0  0  0
  182.9870  178.9330  138.2340 C   0  0  0  0  0  0  0  0  0  0  0  0
  181.2330  177.7990  136.9860 C   0  0  0  0  0  3  0  0  0  0  0  0
  186.8950  176.1850  135.9170 C   0  0  0  0  0  2  0  0  0  0  0  0
  189.3620  174.9530  136.6900 O   0  0  0  0  0  0  0  0  0  0  0  0
  187.8710  176.8960  136.7320 N   0  0  0  0  0  0  0  0  0  0  0  0
  187.5480  178.2230  137.2450 C   0  0  0  0  0  2  0  0  0  0  0  0
  184.8830  177.1710  137.0060 C   0  0  1  0  0  3  0  0  0  0  0  0
  186.7660  178.0870  138.5450 C   0  0  0  0  0  2  0  0  0  0  0  0
  185.2690  177.7690  138.3700 C   0  0  1  0  0  3  0  0  0  0  0  0
  184.4980  179.2870  140.2300 C   0  0  0  0  0  2  0  0  0  0  0  0
  183.9830  178.1140  141.0580 C   0  0  0  0  0  2  0  0  0  0  0  0
  183.2220  178.6010  142.2840 C   0  0  0  0  0  2  0  0  0  0  0  0
  184.3880  178.9630  145.8430 N   0  0  0  0  0  0  0  0  0  0  0  0
  185.3880  178.0640  143.4180 C   0  0  0  0  0  3  0  0  0  0  0  0
  187.7430  177.9070  146.8900 C   0  0  0  0  0  0  0  0  0  0  0  0
  186.4360  178.4130  146.9460 C   0  0  0  0  0  3  0  0  0  0  0  0
  185.6540  178.4690  145.7900 C   0  0  0  0  0  0  0  0  0  0  0  0
  187.4830  177.5100  144.5060 C   0  0  0  0  0  3  0  0  0  0  0  0
  186.1820  178.0120  144.5630 C   0  0  0  0  0  0  0  0  0  0  0  0
  188.2610  177.4600  145.6660 C   0  0  0  0  0  3  0  0  0  0  0  0
  184.0880  178.5680  143.5000 C   0  0  0  0  0  0  0  0  0  0  0  0
  183.6030  179.0230  144.7330 C   0  0  0  0  0  3  0  0  0  0  0  0
  188.5700  177.8360  148.1040 C   0  0  0  0  0  0  0  0  0  0  0  0
  188.0250  178.1070  149.3160 F   0  0  0  0  0  0  0  0  0  0  0  0
  189.7890  177.5260  148.0330 O   0  0  0  0  0  0  0  0  0  0  0  0
  1 19  1  1  0  0  0
  3  7  1  0  0  0  0
  4 16  1  0  0  0  0
  4  9  1  0  0  0  0
  6  8  1  0  0  0  0
  8  5  2  0  0  0  0
  9 10  2  0  0  0  0
 10  5  1  0  0  0  0
 10  1  1  0  0  0  0
 11  6  2  0  0  0  0
 11  9  1  0  0  0  0
 12  2  1  0  0  0  0
 12 14  1  0  0  0  0
 13  3  2  0  0  0  0
 14  3  1  0  0  0  0
 14 15  1  0  0  0  0
 15 17  1  0  0  0  0
 16  2  1  1  0  0  0
 16 18  1  0  0  0  0
 18 17  1  6  0  0  0
 18  1  1  0  0  0  0
 19 20  1  0  0  0  0
 20 21  1  0  0  0  0
 21 30  1  0  0  0  0
 23 30  2  0  0  0  0
 23 28  1  0  0  0  0
 24 25  1  0  0  0  0
 24 32  1  0  0  0  0
 26 22  1  0  0  0  0
 26 25  2  0  0  0  0
 27 28  2  0  0  0  0
 27 29  1  0  0  0  0
 28 26  1  0  0  0  0
 29 24  2  0  0  0  0
 30 31  1  0  0  0  0
 31 22  2  0  0  0  0
 32 33  1  0  0  0  0
 34 32  2  0  0  0  0
M  END
>  <MODEL>
6

>  <REMARK>
 VINA RESULT:      -9.5      3.613      9.298
  Name = 
  5 active torsions:
  status: ('A' for Active; 'I' for Inactive)
    1  A    between atoms: C_1  and  C_9
    2  A    between atoms: C_7  and  C_11
    3  A    between atoms: C_8  and  C_9
    4  A    between atoms: C_8  and  C_18
    5  A    between atoms: C_18  and  C_30
                            x       y       z     vdW  Elec       q    Type
                         _______ _______ _______ _____ _____    ______ ____

>  <TORSDO>
F 5

$$$$
=
 OpenBabel10262423143D

 34 38  0  0  1  0  0  0  0  0999 V2000
  188.3260  177.4450  143.8890 C   0  0  2  0  0  3  0  0  0  0  0  0
  185.0230  177.7890  145.9470 C   0  0  0  0  0  2  0  0  0  0  0  0
  182.8630  178.8870  143.4070 C   0  0  0  0  0  0  0  0  0  0  0  0
  187.3080  177.4130  146.5930 O   0  0  0  0  0  0  0  0  0  0  0  0
  190.6160  177.2050  144.9410 C   0  0  0  0  0  3  0  0  0  0  0  0
  190.8950  176.9570  147.3320 C   0  0  0  0  0  3  0  0  0  0  0  0
  182.7720  178.9810  142.1540 O   0  0  0  0  0  0  0  0  0  0  0  0
  191.4470  177.0350  146.0510 C   0  0  0  0  0  3  0  0  0  0  0  0
  188.6800  177.2570  146.3990 C   0  0  0  0  0  0  0  0  0  0  0  0
  189.2250  177.2940  145.1020 C   0  0  0  0  0  0  0  0  0  0  0  0
  189.5140  177.0690  147.5060 C   0  0  0  0  0  3  0  0  0  0  0  0
  184.2150  179.0040  145.5110 C   0  0  0  0  0  2  0  0  0  0  0  0
  181.7250  178.6050  144.1540 O   0  0  0  0  0  1  0  0  0  0  0  0
  184.1270  179.0770  144.0580 N   0  0  0  0  0  0  0  0  0  0  0  0
  185.3420  179.2610  143.2740 C   0  0  0  0  0  2  0  0  0  0  0  0
  186.4860  177.9800  145.5800 C   0  0  1  0  0  3  0  0  0  0  0  0
  185.9970  177.9080  143.0280 C   0  0  0  0  0  2  0  0  0  0  0  0
  186.8200  177.3620  144.2110 C   0  0  1  0  0  3  0  0  0  0  0  0
  188.6840  176.4430  142.7820 C   0  0  0  0  0  2  0  0  0  0  0  0
  189.7650  176.9820  141.8490 C   0  0  0  0  0  2  0  0  0  0  0  0
  189.2800  178.2190  141.1060 C   0  0  0  0  0  2  0  0  0  0  0  0
  188.3050  176.6790  137.8150 N   0  0  0  0  0  0  0  0  0  0  0  0
  187.1630  178.2760  139.7720 C   0  0  0  0  0  3  0  0  0  0  0  0
  184.9450  177.1090  136.4050 C   0  0  0  0  0  0  0  0  0  0  0  0
  186.2750  176.6890  136.5530 C   0  0  0  0  0  3  0  0  0  0  0  0
  187.0140  177.0810  137.6720 C   0  0  0  0  0  0  0  0  0  0  0  0
  185.0950  178.3180  138.5070 C   0  0  0  0  0  3  0  0  0  0  0  0
  186.4180  177.9000  138.6550 C   0  0  0  0  0  0  0  0  0  0  0  0
  184.3620  177.9250  137.3840 C   0  0  0  0  0  3  0  0  0  0  0  0
  188.4850  177.8430  139.8990 C   0  0  0  0  0  0  0  0  0  0  0  0
  189.0460  177.0420  138.8970 C   0  0  0  0  0  3  0  0  0  0  0  0
  184.1560  176.6930  135.2340 C   0  0  0  0  0  0  0  0  0  0  0  0
  183.1600  177.4850  134.7670 F   0  0  0  0  0  0  0  0  0  0  0  0
  184.3960  175.5990  134.6560 O   0  0  0  0  0  0  0  0  0  0  0  0
  1 19  1  6  0  0  0
  1 18  1  0  0  0  0
  1 10  1  0  0  0  0
  3 14  1  0  0  0  0
  3 13  1  0  0  0  0
  5 10  2  0  0  0  0
  5  8  1  0  0  0  0
  6 11  1  0  0  0  0
  7  3  2  0  0  0  0
  8  6  2  0  0  0  0
  9  4  1  0  0  0  0
  9 11  2  0  0  0  0
 10  9  1  0  0  0  0
 12  2  1  0  0  0  0
 14 12  1  0  0  0  0
 15 14  1  0  0  0  0
 16  2  1  1  0  0  0
 16  4  1  0  0  0  0
 17 15  1  0  0  0  0
 18 17  1  6  0  0  0
 18 16  1  0  0  0  0
 20 19  1  0  0  0  0
 21 20  1  0  0  0  0
 22 31  1  0  0  0  0
 23 30  1  0  0  0  0
 24 25  2  0  0  0  0
 24 29  1  0  0  0  0
 25 26  1  0  0  0  0
 26 22  2  0  0  0  0
 26 28  1  0  0  0  0
 27 28  1  0  0  0  0
 28 23  2  0  0  0  0
 29 27  2  0  0  0  0
 30 21  1  0  0  0  0
 31 30  2  0  0  0  0
 32 24  1  0  0  0  0
 33 32  1  0  0  0  0
 34 32  2  0  0  0  0
M  END
>  <MODEL>
7

>  <REMARK>
 VINA RESULT:      -9.3      1.588      1.971
  Name = 
  5 active torsions:
  status: ('A' for Active; 'I' for Inactive)
    1  A    between atoms: C_1  and  C_9
    2  A    between atoms: C_7  and  C_11
    3  A    between atoms: C_8  and  C_9
    4  A    between atoms: C_8  and  C_18
    5  A    between atoms: C_18  and  C_30
                            x       y       z     vdW  Elec       q    Type
                         _______ _______ _______ _____ _____    ______ ____

>  <TORSDO>
F 5

$$$$
=
 OpenBabel10262423143D

 34 38  0  0  1  0  0  0  0  0999 V2000
  184.5530  178.9740  141.5660 C   0  0  2  0  0  3  0  0  0  0  0  0
  180.7310  178.5720  140.8600 C   0  0  0  0  0  2  0  0  0  0  0  0
  180.6790  179.3830  137.4450 C   0  0  0  0  0  0  0  0  0  0  0  0
  182.0150  178.5990  142.8930 O   0  0  0  0  0  0  0  0  0  0  0  0
  185.5430  179.1130  143.8910 C   0  0  0  0  0  3  0  0  0  0  0  0
  184.1880  178.7890  145.8700 C   0  0  0  0  0  3  0  0  0  0  0  0
  181.4350  179.5270  136.4480 O   0  0  0  0  0  0  0  0  0  0  0  0
  185.4300  179.0410  145.2820 C   0  0  0  0  0  3  0  0  0  0  0  0
  183.1610  178.7170  143.6770 C   0  0  0  0  0  0  0  0  0  0  0  0
  184.4170  178.9280  143.0760 C   0  0  0  0  0  0  0  0  0  0  0  0
  183.0560  178.6280  145.0690 C   0  0  0  0  0  3  0  0  0  0  0  0
  180.2250  179.6350  139.8940 C   0  0  0  0  0  2  0  0  0  0  0  0
  179.4080  178.8490  137.2640 O   0  0  0  0  0  1  0  0  0  0  0  0
  181.1210  179.7710  138.7530 N   0  0  0  0  0  0  0  0  0  0  0  0
  182.4910  180.2250  138.9650 C   0  0  0  0  0  2  0  0  0  0  0  0
  181.9990  179.0560  141.5460 C   0  0  1  0  0  3  0  0  0  0  0  0
  183.3680  179.0360  139.3370 C   0  0  0  0  0  2  0  0  0  0  0  0
  183.2660  178.5900  140.8080 C   0  0  1  0  0  3  0  0  0  0  0  0
  185.7300  178.1220  141.0710 C   0  0  0  0  0  2  0  0  0  0  0  0
  187.0340  178.9130  141.0300 C   0  0  0  0  0  2  0  0  0  0  0  0
  188.1900  178.0400  140.5640 C   0  0  0  0  0  2  0  0  0  0  0  0
  191.1200  176.7580  142.5460 N   0  0  0  0  0  0  0  0  0  0  0  0
  188.5990  177.8100  143.0220 C   0  0  0  0  0  3  0  0  0  0  0  0
  191.1070  176.7440  146.2160 C   0  0  0  0  0  0  0  0  0  0  0  0
  191.5400  176.5750  144.8920 C   0  0  0  0  0  3  0  0  0  0  0  0
  190.7030  176.9250  143.8300 C   0  0  0  0  0  0  0  0  0  0  0  0
  188.9900  177.6220  145.4080 C   0  0  0  0  0  3  0  0  0  0  0  0
  189.4210  177.4540  144.0910 C   0  0  0  0  0  0  0  0  0  0  0  0
  189.8310  177.2660  146.4660 C   0  0  0  0  0  3  0  0  0  0  0  0
  189.0540  177.6360  141.7130 C   0  0  0  0  0  0  0  0  0  0  0  0
  190.3270  177.0970  141.4930 C   0  0  0  0  0  3  0  0  0  0  0  0
  191.9860  176.3860  147.3400 C   0  0  0  0  0  0  0  0  0  0  0  0
  192.7300  175.2530  147.2890 F   0  0  0  0  0  0  0  0  0  0  0  0
  192.0560  177.1230  148.3590 O   0  0  0  0  0  0  0  0  0  0  0  0
  1 19  1  6  0  0  0
  1 10  1  0  0  0  0
  3 14  1  0  0  0  0
  4  9  1  0  0  0  0
  5  8  1  0  0  0  0
  7  3  2  0  0  0  0
  8  6  2  0  0  0  0
  9 11  2  0  0  0  0
 10  9  1  0  0  0  0
 10  5  2  0  0  0  0
 11  6  1  0  0  0  0
 12  2  1  0  0  0  0
 13  3  1  0  0  0  0
 14 15  1  0  0  0  0
 14 12  1  0  0  0  0
 15 17  1  0  0  0  0
 16  2  1  6  0  0  0
 16  4  1  0  0  0  0
 18 17  1  6  0  0  0
 18 16  1  0  0  0  0
 18  1  1  0  0  0  0
 20 19  1  0  0  0  0
 21 20  1  0  0  0  0
 21 30  1  0  0  0  0
 22 26  1  0  0  0  0
 23 28  1  0  0  0  0
 24 29  1  0  0  0  0
 24 32  1  0  0  0  0
 25 24  2  0  0  0  0
 26 28  2  0  0  0  0
 26 25  1  0  0  0  0
 27 29  2  0  0  0  0
 28 27  1  0  0  0  0
 30 23  2  0  0  0  0
 31 30  1  0  0  0  0
 31 22  2  0  0  0  0
 32 34  2  0  0  0  0
 33 32  1  0  0  0  0
M  END
>  <MODEL>
8

>  <REMARK>
 VINA RESULT:      -9.3      3.719      6.580
  Name = 
  5 active torsions:
  status: ('A' for Active; 'I' for Inactive)
    1  A    between atoms: C_1  and  C_9
    2  A    between atoms: C_7  and  C_11
    3  A    between atoms: C_8  and  C_9
    4  A    between atoms: C_8  and  C_18
    5  A    between atoms: C_18  and  C_30
                            x       y       z     vdW  Elec       q    Type
                         _______ _______ _______ _____ _____    ______ ____

>  <TORSDO>
F 5

$$$$
=
 OpenBabel10262423143D

 34 38  0  0  1  0  0  0  0  0999 V2000
  188.6560  177.4190  144.6560 C   0  0  2  0  0  3  0  0  0  0  0  0
  191.0760  177.8360  141.6170 C   0  0  0  0  0  2  0  0  0  0  0  0
  188.7210  178.2480  139.0470 C   0  0  0  0  0  0  0  0  0  0  0  0
  191.4350  177.1780  143.9020 O   0  0  0  0  0  0  0  0  0  0  0  0
  189.3810  176.5410  146.9170 C   0  0  0  0  0  3  0  0  0  0  0  0
  191.7060  176.0910  147.4190 C   0  0  0  0  0  3  0  0  0  0  0  0
  187.5020  178.4960  138.8490 O   0  0  0  0  0  1  0  0  0  0  0  0
  190.3660  176.1230  147.8160 C   0  0  0  0  0  3  0  0  0  0  0  0
  191.0730  176.8590  145.2100 C   0  0  0  0  0  0  0  0  0  0  0  0
  189.7270  176.9350  145.6160 C   0  0  0  0  0  0  0  0  0  0  0  0
  192.0580  176.4570  146.1190 C   0  0  0  0  0  3  0  0  0  0  0  0
  190.5360  177.1440  140.3730 C   0  0  0  0  0  2  0  0  0  0  0  0
  189.6700  178.7430  138.1600 O   0  0  0  0  0  0  0  0  0  0  0  0
  189.1270  177.4580  140.1730 N   0  0  0  0  0  0  0  0  0  0  0  0
  188.1490  177.0320  141.1680 C   0  0  0  0  0  2  0  0  0  0  0  0
  190.4650  177.2130  142.8620 C   0  0  1  0  0  3  0  0  0  0  0  0
  188.0780  178.0650  142.2840 C   0  0  0  0  0  2  0  0  0  0  0  0
  189.2090  177.9710  143.3270 C   0  0  1  0  0  3  0  0  0  0  0  0
  187.7270  178.4510  145.3100 C   0  0  0  0  0  2  0  0  0  0  0  0
  186.3510  177.8680  145.6210 C   0  0  0  0  0  2  0  0  0  0  0  0
  185.2930  178.9600  145.6780 C   0  0  0  0  0  2  0  0  0  0  0  0
  182.1680  178.8940  143.5830 N   0  0  0  0  0  0  0  0  0  0  0  0
  184.9140  178.7880  143.2100 C   0  0  0  0  0  3  0  0  0  0  0  0
  182.3050  178.6800  139.9220 C   0  0  0  0  0  0  0  0  0  0  0  0
  181.7950  178.7750  141.2250 C   0  0  0  0  0  3  0  0  0  0  0  0
  182.6620  178.8070  142.3190 C   0  0  0  0  0  0  0  0  0  0  0  0
  184.5660  178.6500  140.8150 C   0  0  0  0  0  3  0  0  0  0  0  0
  184.0570  178.7460  142.1110 C   0  0  0  0  0  0  0  0  0  0  0  0
  183.6920  178.6160  139.7250 C   0  0  0  0  0  3  0  0  0  0  0  0
  184.3810  178.8860  144.4980 C   0  0  0  0  0  0  0  0  0  0  0  0
  182.9920  178.9330  144.6660 C   0  0  0  0  0  3  0  0  0  0  0  0
  181.3990  178.6560  138.7640 C   0  0  0  0  0  0  0  0  0  0  0  0
  181.7950  179.1780  137.5770 F   0  0  0  0  0  0  0  0  0  0  0  0
  180.2470  178.1530  138.8620 O   0  0  0  0  0  0  0  0  0  0  0  0
  1 19  1  1  0  0  0
  1 10  1  0  0  0  0
  3 14  1  0  0  0  0
  4  9  1  0  0  0  0
  5  8  1  0  0  0  0
  6  8  2  0  0  0  0
  7  3  1  0  0  0  0
  9 10  1  0  0  0  0
  9 11  2  0  0  0  0
 10  5  2  0  0  0  0
 11  6  1  0  0  0  0
 12  2  1  0  0  0  0
 13  3  2  0  0  0  0
 14 12  1  0  0  0  0
 14 15  1  0  0  0  0
 15 17  1  0  0  0  0
 16  2  1  6  0  0  0
 16 18  1  0  0  0  0
 16  4  1  0  0  0  0
 18 17  1  6  0  0  0
 18  1  1  0  0  0  0
 19 20  1  0  0  0  0
 20 21  1  0  0  0  0
 22 31  1  0  0  0  0
 23 30  1  0  0  0  0
 24 25  2  0  0  0  0
 25 26  1  0  0  0  0
 26 22  2  0  0  0  0
 27 28  1  0  0  0  0
 28 26  1  0  0  0  0
 28 23  2  0  0  0  0
 29 24  1  0  0  0  0
 29 27  2  0  0  0  0
 30 31  2  0  0  0  0
 30 21  1  0  0  0  0
 32 34  2  0  0  0  0
 32 24  1  0  0  0  0
 33 32  1  0  0  0  0
M  END
>  <MODEL>
9

>  <REMARK>
 VINA RESULT:      -9.2      2.480      5.803
  Name = 
  5 active torsions:
  status: ('A' for Active; 'I' for Inactive)
    1  A    between atoms: C_1  and  C_9
    2  A    between atoms: C_7  and  C_11
    3  A    between atoms: C_8  and  C_9
    4  A    between atoms: C_8  and  C_18
    5  A    between atoms: C_18  and  C_30
                            x       y       z     vdW  Elec       q    Type
                         _______ _______ _______ _____ _____    ______ ____

>  <TORSDO>
F 5

$$$$
