=
 OpenBabel10262421363D

 32 38  0  0  1  0  0  0  0  0999 V2000
  187.3500  177.4260  136.9410 C   0  0  1  0  0  3  0  0  0  0  0  0
  188.2010  178.2180  141.9370 C   0  0  1  0  0  3  0  0  0  0  0  0
  183.5710  178.5920  143.6070 C   0  0  0  0  0  2  0  0  0  0  0  0
  184.1250  178.9490  144.9730 C   0  0  0  0  0  2  0  0  0  0  0  0
  189.9200  177.4510  143.4600 C   0  0  0  0  0  0  0  0  0  0  0  0
  190.2960  177.1250  144.7670 C   0  0  0  0  0  0  0  0  0  0  0  0
  188.5750  178.0540  139.5810 C   0  0  0  0  0  0  0  0  0  0  0  0
  186.3400  178.5110  140.3720 N   0  0  0  0  0  0  0  0  0  0  0  0
  191.0300  176.4870  147.3670 C   0  0  0  0  0  3  0  0  0  0  0  0
  186.4480  177.9920  138.0300 C   0  0  0  0  0  2  0  0  0  0  0  0
  184.5360  179.0970  142.5460 C   0  0  0  0  0  2  0  0  0  0  0  0
  186.8660  178.8710  141.6920 C   0  0  1  0  0  3  0  0  0  0  0  0
  185.8950  178.5850  142.7480 N   0  0  1  0  0  0  0  0  0  0  0  0
  187.6750  177.9520  144.2730 C   0  0  0  0  0  0  0  0  0  0  0  0
  191.9320  176.3970  146.3520 N   0  0  0  0  0  0  0  0  0  0  0  0
  188.9230  178.3480  136.8500 S   0  0  0  0  0  0  0  0  0  0  0  0
  187.1030  178.1870  139.3690 C   0  0  0  0  0  0  0  0  0  0  0  0
  191.5960  176.7040  145.0700 C   0  0  0  0  0  3  0  0  0  0  0  0
  189.5190  177.7470  138.4620 C   0  0  0  0  0  2  0  0  0  0  0  0
  185.4000  178.1580  145.2210 C   0  0  0  0  0  2  0  0  0  0  0  0
  186.3780  178.2780  144.0770 C   0  0  2  0  0  3  0  0  0  0  0  0
  188.0880  177.6200  145.5300 N   0  0  0  0  0  0  0  0  0  0  0  0
  189.0450  178.0240  140.7930 N   0  0  0  0  0  0  0  0  0  0  0  0
  190.8560  177.3600  142.4770 F   0  0  0  0  0  0  0  0  0  0  0  0
  189.7220  176.9020  147.1100 C   0  0  0  0  0  3  0  0  0  0  0  0
  188.5990  177.8920  143.1900 C   0  0  0  0  0  0  0  0  0  0  0  0
  189.3540  177.2240  145.8020 C   0  0  0  0  0  0  0  0  0  0  0  0
  187.5510  175.9250  137.1070 C   0  0  0  0  0  2  0  0  0  0  0  0
  186.3170  175.2220  136.8080 N   0  0  0  0  0  2  0  0  0  0  0  0
  186.5020  173.8480  137.2380 C   0  0  0  0  0  3  0  0  0  0  0  0
  185.7070  172.9310  136.3300 C   0  0  0  0  0  2  0  0  0  0  0  0
  185.1710  173.2880  137.6990 C   0  0  0  0  0  2  0  0  0  0  0  0
  1 28  1  1  0  0  0
  1 10  1  0  0  0  0
  2 23  1  1  0  0  0
  2 26  1  0  0  0  0
  3  4  1  0  0  0  0
  4 20  1  0  0  0  0
  5  6  1  0  0  0  0
  6 18  2  0  0  0  0
  6 27  1  0  0  0  0
  7 23  2  0  0  0  0
 10 17  1  0  0  0  0
 11  3  1  0  0  0  0
 12  8  1  6  0  0  0
 12  2  1  0  0  0  0
 12 13  1  0  0  0  0
 13 11  1  1  0  0  0
 13 21  1  0  0  0  0
 14 22  2  0  0  0  0
 15  9  2  0  0  0  0
 16  1  1  0  0  0  0
 16 19  1  0  0  0  0
 17  7  1  0  0  0  0
 17  8  2  0  0  0  0
 18 15  1  0  0  0  0
 19  7  1  0  0  0  0
 21 14  1  0  0  0  0
 21 20  1  6  0  0  0
 22 27  1  0  0  0  0
 24  5  1  0  0  0  0
 25  9  1  0  0  0  0
 26  5  2  0  0  0  0
 26 14  1  0  0  0  0
 27 25  2  0  0  0  0
 29 28  1  0  0  0  0
 29 30  1  0  0  0  0
 30 32  1  0  0  0  0
 31 30  1  0  0  0  0
 31 32  1  0  0  0  0
M  END
>  <MODEL>
1

>  <REMARK>
 VINA RESULT:     -10.4      0.000      0.000
  Name = 
  3 active torsions:
  status: ('A' for Active; 'I' for Inactive)
    1  A    between atoms: C_1  and  N_10
    2  A    between atoms: C_2  and  C_24
    3  A    between atoms: N_10  and  C_24
                            x       y       z     vdW  Elec       q    Type
                         _______ _______ _______ _____ _____    ______ ____

>  <TORSDO>
F 3

$$$$
=
 OpenBabel10262421363D

 32 38  0  0  1  0  0  0  0  0999 V2000
  187.4040  177.5060  136.9670 C   0  0  1  0  0  3  0  0  0  0  0  0
  188.2200  178.2450  141.9770 C   0  0  1  0  0  3  0  0  0  0  0  0
  183.5780  178.5590  143.6260 C   0  0  0  0  0  2  0  0  0  0  0  0
  184.1210  178.9040  144.9990 C   0  0  0  0  0  2  0  0  0  0  0  0
  189.9370  177.4750  143.5010 C   0  0  0  0  0  0  0  0  0  0  0  0
  190.3090  177.1370  144.8060 C   0  0  0  0  0  0  0  0  0  0  0  0
  188.6090  178.1130  139.6220 C   0  0  0  0  0  0  0  0  0  0  0  0
  186.3660  178.5400  140.4060 N   0  0  0  0  0  0  0  0  0  0  0  0
  191.0340  176.4740  147.4020 C   0  0  0  0  0  3  0  0  0  0  0  0
  186.4900  178.0510  138.0580 C   0  0  0  0  0  2  0  0  0  0  0  0
  184.5440  179.0850  142.5760 C   0  0  0  0  0  2  0  0  0  0  0  0
  186.8810  178.8890  141.7330 C   0  0  1  0  0  3  0  0  0  0  0  0
  185.9070  178.5820  142.7800 N   0  0  1  0  0  0  0  0  0  0  0  0
  187.6830  177.9460  144.3070 C   0  0  0  0  0  0  0  0  0  0  0  0
  191.9420  176.4040  146.3910 N   0  0  0  0  0  0  0  0  0  0  0  0
  188.9690  178.4420  136.8970 S   0  0  0  0  0  0  0  0  0  0  0  0
  187.1370  178.2350  139.4030 C   0  0  0  0  0  0  0  0  0  0  0  0
  191.6110  176.7240  145.1110 C   0  0  0  0  0  3  0  0  0  0  0  0
  189.5620  177.8270  138.5050 C   0  0  0  0  0  2  0  0  0  0  0  0
  185.4020  178.1210  145.2450 C   0  0  0  0  0  2  0  0  0  0  0  0
  186.3850  178.2630  144.1070 C   0  0  2  0  0  3  0  0  0  0  0  0
  188.0930  177.6040  145.5620 N   0  0  0  0  0  0  0  0  0  0  0  0
  189.0720  178.0720  140.8350 N   0  0  0  0  0  0  0  0  0  0  0  0
  190.8790  177.4030  142.5220 F   0  0  0  0  0  0  0  0  0  0  0  0
  189.7240  176.8810  147.1420 C   0  0  0  0  0  3  0  0  0  0  0  0
  188.6140  177.9080  143.2280 C   0  0  0  0  0  0  0  0  0  0  0  0
  189.3610  177.2150  145.8370 C   0  0  0  0  0  0  0  0  0  0  0  0
  187.6170  176.0050  137.1170 C   0  0  0  0  0  2  0  0  0  0  0  0
  188.2100  175.4630  135.9070 N   0  0  0  0  0  2  0  0  0  0  0  0
  187.9380  174.0380  135.9080 C   0  0  0  0  0  3  0  0  0  0  0  0
  188.6160  173.4010  134.7110 C   0  0  0  0  0  2  0  0  0  0  0  0
  187.1300  173.6860  134.6760 C   0  0  0  0  0  2  0  0  0  0  0  0
  1 28  1  1  0  0  0
  1 10  1  0  0  0  0
  2 23  1  1  0  0  0
  2 26  1  0  0  0  0
  3  4  1  0  0  0  0
  4 20  1  0  0  0  0
  5  6  1  0  0  0  0
  6 18  2  0  0  0  0
  6 27  1  0  0  0  0
  7 23  2  0  0  0  0
 10 17  1  0  0  0  0
 11  3  1  0  0  0  0
 12  8  1  6  0  0  0
 12  2  1  0  0  0  0
 12 13  1  0  0  0  0
 13 11  1  1  0  0  0
 13 21  1  0  0  0  0
 14 22  2  0  0  0  0
 15  9  2  0  0  0  0
 16  1  1  0  0  0  0
 16 19  1  0  0  0  0
 17  7  1  0  0  0  0
 17  8  2  0  0  0  0
 18 15  1  0  0  0  0
 19  7  1  0  0  0  0
 21 14  1  0  0  0  0
 21 20  1  6  0  0  0
 22 27  1  0  0  0  0
 24  5  1  0  0  0  0
 25  9  1  0  0  0  0
 26  5  2  0  0  0  0
 26 14  1  0  0  0  0
 27 25  2  0  0  0  0
 29 30  1  0  0  0  0
 29 28  1  0  0  0  0
 31 30  1  0  0  0  0
 32 31  1  0  0  0  0
 32 30  1  0  0  0  0
M  END
>  <MODEL>
2

>  <REMARK>
 VINA RESULT:      -9.9      0.887      1.014
  Name = 
  3 active torsions:
  status: ('A' for Active; 'I' for Inactive)
    1  A    between atoms: C_1  and  N_10
    2  A    between atoms: C_2  and  C_24
    3  A    between atoms: N_10  and  C_24
                            x       y       z     vdW  Elec       q    Type
                         _______ _______ _______ _____ _____    ______ ____

>  <TORSDO>
F 3

$$$$
=
 OpenBabel10262421363D

 32 38  0  0  1  0  0  0  0  0999 V2000
  189.7430  175.7570  136.5700 C   0  0  1  0  0  3  0  0  0  0  0  0
  189.4230  177.5340  141.3720 C   0  0  1  0  0  3  0  0  0  0  0  0
  184.5910  178.4970  141.6730 C   0  0  0  0  0  2  0  0  0  0  0  0
  184.8280  179.1020  143.0420 C   0  0  0  0  0  2  0  0  0  0  0  0
  190.6260  177.0130  143.4080 C   0  0  0  0  0  0  0  0  0  0  0  0
  190.6340  176.9500  144.8040 C   0  0  0  0  0  0  0  0  0  0  0  0
  190.3430  176.8590  139.2700 C   0  0  0  0  0  0  0  0  0  0  0  0
  188.0440  177.5910  139.3490 N   0  0  0  0  0  0  0  0  0  0  0  0
  190.6370  176.8330  147.5780 C   0  0  0  0  0  3  0  0  0  0  0  0
  188.6660  176.5870  137.2580 C   0  0  0  0  0  2  0  0  0  0  0  0
  185.8340  178.7160  140.8240 C   0  0  0  0  0  2  0  0  0  0  0  0
  188.2650  178.1920  140.6680 C   0  0  1  0  0  3  0  0  0  0  0  0
  187.0410  178.1860  141.4680 N   0  0  1  0  0  0  0  0  0  0  0  0
  188.3160  177.7930  143.4960 C   0  0  0  0  0  0  0  0  0  0  0  0
  191.7460  176.4840  146.8700 N   0  0  0  0  0  0  0  0  0  0  0  0
  191.3780  176.5540  136.7210 S   0  0  0  0  0  0  0  0  0  0  0  0
  188.9900  177.0230  138.6600 C   0  0  0  0  0  0  0  0  0  0  0  0
  191.7680  176.5330  145.5110 C   0  0  0  0  0  3  0  0  0  0  0  0
  191.4950  176.2740  138.5160 C   0  0  0  0  0  2  0  0  0  0  0  0
  185.9130  178.3150  143.7600 C   0  0  0  0  0  2  0  0  0  0  0  0
  187.1490  178.1390  142.9100 C   0  0  2  0  0  3  0  0  0  0  0  0
  188.3710  177.7110  144.8560 N   0  0  0  0  0  0  0  0  0  0  0  0
  190.4960  177.0590  140.5460 N   0  0  0  0  0  0  0  0  0  0  0  0
  191.7590  176.6680  142.7390 F   0  0  0  0  0  0  0  0  0  0  0  0
  189.4830  177.2540  146.9140 C   0  0  0  0  0  3  0  0  0  0  0  0
  189.4660  177.4580  142.7230 C   0  0  0  0  0  0  0  0  0  0  0  0
  189.4830  177.3140  145.5200 C   0  0  0  0  0  0  0  0  0  0  0  0
  189.7380  174.3160  137.0650 C   0  0  0  0  0  2  0  0  0  0  0  0
  188.9940  173.4760  136.1420 N   0  0  0  0  0  2  0  0  0  0  0  0
  188.1870  172.5800  136.9480 C   0  0  0  0  0  3  0  0  0  0  0  0
  187.4680  171.6040  136.0380 C   0  0  0  0  0  2  0  0  0  0  0  0
  186.7250  172.7910  136.6120 C   0  0  0  0  0  2  0  0  0  0  0  0
  1 16  1  0  0  0  0
  1 28  1  1  0  0  0
  1 10  1  0  0  0  0
  2 23  1  1  0  0  0
  2 26  1  0  0  0  0
  3  4  1  0  0  0  0
  4 20  1  0  0  0  0
  5  6  1  0  0  0  0
  6 18  2  0  0  0  0
  6 27  1  0  0  0  0
  7 23  2  0  0  0  0
 10 17  1  0  0  0  0
 11  3  1  0  0  0  0
 12  8  1  6  0  0  0
 12  2  1  0  0  0  0
 12 13  1  0  0  0  0
 13 11  1  1  0  0  0
 13 21  1  0  0  0  0
 14 22  2  0  0  0  0
 15  9  2  0  0  0  0
 16 19  1  0  0  0  0
 17  7  1  0  0  0  0
 17  8  2  0  0  0  0
 18 15  1  0  0  0  0
 19  7  1  0  0  0  0
 21 14  1  0  0  0  0
 21 20  1  6  0  0  0
 22 27  1  0  0  0  0
 24  5  1  0  0  0  0
 25  9  1  0  0  0  0
 26  5  2  0  0  0  0
 26 14  1  0  0  0  0
 27 25  2  0  0  0  0
 29 30  1  0  0  0  0
 29 28  1  0  0  0  0
 31 32  1  0  0  0  0
 31 30  1  0  0  0  0
 32 30  1  0  0  0  0
M  END
>  <MODEL>
3

>  <REMARK>
 VINA RESULT:      -9.4      1.541      1.888
  Name = 
  3 active torsions:
  status: ('A' for Active; 'I' for Inactive)
    1  A    between atoms: C_1  and  N_10
    2  A    between atoms: C_2  and  C_24
    3  A    between atoms: N_10  and  C_24
                            x       y       z     vdW  Elec       q    Type
                         _______ _______ _______ _____ _____    ______ ____

>  <TORSDO>
F 3

$$$$
=
 OpenBabel10262421363D

 32 38  0  0  1  0  0  0  0  0999 V2000
  180.6880  178.4040  140.4350 C   0  0  1  0  0  3  0  0  0  0  0  0
  185.6110  178.7930  141.8240 C   0  0  1  0  0  3  0  0  0  0  0  0
  185.2650  177.9400  146.6730 C   0  0  0  0  0  2  0  0  0  0  0  0
  186.7430  178.2540  146.8030 C   0  0  0  0  0  2  0  0  0  0  0  0
  187.6890  178.2580  140.7020 C   0  0  0  0  0  0  0  0  0  0  0  0
  189.0310  177.8780  140.7970 C   0  0  0  0  0  0  0  0  0  0  0  0
  183.6070  178.9840  140.5330 C   0  0  0  0  0  0  0  0  0  0  0  0
  183.4300  178.8420  142.9370 N   0  0  0  0  0  0  0  0  0  0  0  0
  191.6960  177.1280  141.0010 C   0  0  0  0  0  3  0  0  0  0  0  0
  181.3250  178.6280  141.8000 C   0  0  0  0  0  2  0  0  0  0  0  0
  184.6930  178.7630  145.5300 C   0  0  0  0  0  2  0  0  0  0  0  0
  184.8550  179.1580  143.0740 C   0  0  1  0  0  3  0  0  0  0  0  0
  185.4220  178.5460  144.2760 N   0  0  1  0  0  0  0  0  0  0  0  0
  187.5290  178.1540  143.1350 C   0  0  0  0  0  0  0  0  0  0  0  0
  191.1330  177.3560  139.7830 N   0  0  0  0  0  0  0  0  0  0  0  0
  181.2560  179.6550  139.2340 S   0  0  0  0  0  0  0  0  0  0  0  0
  182.8180  178.8100  141.7890 C   0  0  0  0  0  0  0  0  0  0  0  0
  189.8300  177.7240  139.6580 C   0  0  0  0  0  3  0  0  0  0  0  0
  182.9630  179.0220  139.1830 C   0  0  0  0  0  2  0  0  0  0  0  0
  187.4750  177.7430  145.5720 C   0  0  0  0  0  2  0  0  0  0  0  0
  186.8280  178.2050  144.2890 C   0  0  2  0  0  3  0  0  0  0  0  0
  188.8400  177.7820  143.1750 N   0  0  0  0  0  0  0  0  0  0  0  0
  184.9040  178.9220  140.5810 N   0  0  0  0  0  0  0  0  0  0  0  0
  187.1690  178.4880  139.4670 F   0  0  0  0  0  0  0  0  0  0  0  0
  190.9370  177.2700  142.1640 C   0  0  0  0  0  3  0  0  0  0  0  0
  186.9120  178.4240  141.8780 C   0  0  0  0  0  0  0  0  0  0  0  0
  189.5970  177.6480  142.0600 C   0  0  0  0  0  0  0  0  0  0  0  0
  180.9010  176.9750  139.9480 C   0  0  0  0  0  2  0  0  0  0  0  0
  179.6960  176.1930  140.1610 N   0  0  0  0  0  2  0  0  0  0  0  0
  180.1040  174.8010  140.2160 C   0  0  0  0  0  3  0  0  0  0  0  0
  178.9310  173.9230  139.8290 C   0  0  0  0  0  2  0  0  0  0  0  0
  179.3020  174.0900  141.2870 C   0  0  0  0  0  2  0  0  0  0  0  0
  1 28  1  6  0  0  0
  1 10  1  0  0  0  0
  2 23  1  6  0  0  0
  2 26  1  0  0  0  0
  2 12  1  0  0  0  0
  3  4  1  0  0  0  0
  5  6  2  0  0  0  0
  5 26  1  0  0  0  0
  6 27  1  0  0  0  0
  7 23  2  0  0  0  0
  7 17  1  0  0  0  0
  9 25  2  0  0  0  0
 11  3  1  0  0  0  0
 12  8  1  6  0  0  0
 12 13  1  0  0  0  0
 13 21  1  0  0  0  0
 13 11  1  1  0  0  0
 14 22  1  0  0  0  0
 14 21  1  0  0  0  0
 15  9  1  0  0  0  0
 16  1  1  0  0  0  0
 17 10  1  0  0  0  0
 17  8  2  0  0  0  0
 18 15  2  0  0  0  0
 18  6  1  0  0  0  0
 19 16  1  0  0  0  0
 19  7  1  0  0  0  0
 20  4  1  0  0  0  0
 21 20  1  6  0  0  0
 24  5  1  0  0  0  0
 26 14  2  0  0  0  0
 27 25  1  0  0  0  0
 27 22  2  0  0  0  0
 28 29  1  0  0  0  0
 29 30  1  0  0  0  0
 30 32  1  0  0  0  0
 31 30  1  0  0  0  0
 31 32  1  0  0  0  0
M  END
>  <MODEL>
4

>  <REMARK>
 VINA RESULT:      -8.8      3.484      5.128
  Name = 
  3 active torsions:
  status: ('A' for Active; 'I' for Inactive)
    1  A    between atoms: C_1  and  N_10
    2  A    between atoms: C_2  and  C_24
    3  A    between atoms: N_10  and  C_24
                            x       y       z     vdW  Elec       q    Type
                         _______ _______ _______ _____ _____    ______ ____

>  <TORSDO>
F 3

$$$$
=
 OpenBabel10262421363D

 32 38  0  0  1  0  0  0  0  0999 V2000
  187.4770  176.8510  136.1820 C   0  0  1  0  0  3  0  0  0  0  0  0
  185.7320  178.6280  140.6660 C   0  0  1  0  0  3  0  0  0  0  0  0
  180.8790  178.7500  139.7790 C   0  0  0  0  0  2  0  0  0  0  0  0
  180.6790  179.4100  141.1290 C   0  0  0  0  0  2  0  0  0  0  0  0
  186.4820  178.3570  142.9530 C   0  0  0  0  0  0  0  0  0  0  0  0
  186.1670  178.3200  144.3150 C   0  0  0  0  0  0  0  0  0  0  0  0
  187.2260  178.0860  138.8800 C   0  0  0  0  0  0  0  0  0  0  0  0
  184.8870  178.4110  138.3790 N   0  0  0  0  0  0  0  0  0  0  0  0
  185.5250  178.2530  147.0150 C   0  0  0  0  0  3  0  0  0  0  0  0
  186.1470  177.4940  136.5510 C   0  0  0  0  0  2  0  0  0  0  0  0
  182.2360  179.1650  139.2320 C   0  0  0  0  0  2  0  0  0  0  0  0
  184.6860  179.0640  139.6760 C   0  0  1  0  0  3  0  0  0  0  0  0
  183.3230  178.8610  140.1680 N   0  0  1  0  0  0  0  0  0  0  0  0
  184.1230  178.7290  142.4560 C   0  0  0  0  0  0  0  0  0  0  0  0
  186.8120  178.0880  146.6060 N   0  0  0  0  0  0  0  0  0  0  0  0
  188.8760  177.9200  136.6630 S   0  0  0  0  0  0  0  0  0  0  0  0
  186.0500  178.0040  137.9630 C   0  0  0  0  0  0  0  0  0  0  0  0
  187.1510  178.1160  145.2880 C   0  0  0  0  0  3  0  0  0  0  0  0
  188.6050  177.6940  138.4490 C   0  0  0  0  0  2  0  0  0  0  0  0
  181.6750  178.8330  142.1230 C   0  0  0  0  0  2  0  0  0  0  0  0
  183.0890  178.8590  141.5960 C   0  0  2  0  0  3  0  0  0  0  0  0
  183.8640  178.6810  143.7940 N   0  0  0  0  0  0  0  0  0  0  0  0
  187.0350  178.3310  140.1420 N   0  0  0  0  0  0  0  0  0  0  0  0
  187.7830  178.2000  142.5880 F   0  0  0  0  0  0  0  0  0  0  0  0
  184.5110  178.4580  146.0780 C   0  0  0  0  0  3  0  0  0  0  0  0
  185.4630  178.5830  141.9930 C   0  0  0  0  0  0  0  0  0  0  0  0
  184.8340  178.4920  144.7210 C   0  0  0  0  0  0  0  0  0  0  0  0
  187.5890  175.4390  136.7440 C   0  0  0  0  0  2  0  0  0  0  0  0
  186.3140  174.7540  136.6250 N   0  0  0  0  0  2  0  0  0  0  0  0
  186.5120  173.4080  137.1320 C   0  0  0  0  0  3  0  0  0  0  0  0
  185.4620  172.4930  136.5350 C   0  0  0  0  0  2  0  0  0  0  0  0
  185.3040  173.0030  137.9500 C   0  0  0  0  0  2  0  0  0  0  0  0
  1 10  1  0  0  0  0
  1 16  1  0  0  0  0
  1 28  1  1  0  0  0
  2 23  1  1  0  0  0
  2 26  1  0  0  0  0
  3  4  1  0  0  0  0
  4 20  1  0  0  0  0
  5  6  1  0  0  0  0
  6 27  2  0  0  0  0
  6 18  1  0  0  0  0
  7 23  2  0  0  0  0
 10 17  1  0  0  0  0
 11  3  1  0  0  0  0
 12  8  1  6  0  0  0
 12 13  1  0  0  0  0
 12  2  1  0  0  0  0
 13 11  1  6  0  0  0
 13 21  1  0  0  0  0
 14 22  2  0  0  0  0
 15  9  1  0  0  0  0
 16 19  1  0  0  0  0
 17  8  2  0  0  0  0
 17  7  1  0  0  0  0
 18 15  2  0  0  0  0
 19  7  1  0  0  0  0
 21 20  1  6  0  0  0
 21 14  1  0  0  0  0
 22 27  1  0  0  0  0
 24  5  1  0  0  0  0
 25  9  2  0  0  0  0
 26 14  1  0  0  0  0
 26  5  2  0  0  0  0
 27 25  1  0  0  0  0
 29 28  1  0  0  0  0
 29 30  1  0  0  0  0
 30 32  1  0  0  0  0
 31 30  1  0  0  0  0
 31 32  1  0  0  0  0
M  END
>  <MODEL>
5

>  <REMARK>
 VINA RESULT:      -8.5      2.216      3.485
  Name = 
  3 active torsions:
  status: ('A' for Active; 'I' for Inactive)
    1  A    between atoms: C_1  and  N_10
    2  A    between atoms: C_2  and  C_24
    3  A    between atoms: N_10  and  C_24
                            x       y       z     vdW  Elec       q    Type
                         _______ _______ _______ _____ _____    ______ ____

>  <TORSDO>
F 3

$$$$
=
 OpenBabel10262421363D

 32 38  0  0  1  0  0  0  0  0999 V2000
  181.8190  178.5960  140.6680 C   0  0  1  0  0  3  0  0  0  0  0  0
  186.9460  178.4250  140.6080 C   0  0  1  0  0  3  0  0  0  0  0  0
  187.8770  177.2030  145.2980 C   0  0  0  0  0  2  0  0  0  0  0  0
  189.3580  177.3710  145.0160 C   0  0  0  0  0  2  0  0  0  0  0  0
  188.5570  177.8020  138.9100 C   0  0  0  0  0  0  0  0  0  0  0  0
  189.8210  177.2970  138.5950 C   0  0  0  0  0  0  0  0  0  0  0  0
  184.6950  178.9030  139.9580 C   0  0  0  0  0  0  0  0  0  0  0  0
  185.1820  178.5750  142.3000 N   0  0  0  0  0  0  0  0  0  0  0  0
  192.3380  176.2960  137.9860 C   0  0  0  0  0  3  0  0  0  0  0  0
  182.8330  178.6480  141.8040 C   0  0  0  0  0  2  0  0  0  0  0  0
  187.1030  178.1670  144.4140 C   0  0  0  0  0  2  0  0  0  0  0  0
  186.6140  178.7500  142.0410 C   0  0  1  0  0  3  0  0  0  0  0  0
  187.4240  177.9910  142.9930 N   0  0  1  0  0  0  0  0  0  0  0  0
  189.0710  177.5090  141.2770 C   0  0  0  0  0  0  0  0  0  0  0  0
  191.4860  176.6750  136.9950 N   0  0  0  0  0  0  0  0  0  0  0  0
  182.1630  179.8880  139.4250 S   0  0  0  0  0  0  0  0  0  0  0  0
  184.2740  178.6950  141.3760 C   0  0  0  0  0  0  0  0  0  0  0  0
  190.2480  177.1680  137.2690 C   0  0  0  0  0  3  0  0  0  0  0  0
  183.7070  179.1110  138.8530 C   0  0  0  0  0  2  0  0  0  0  0  0
  189.6570  176.9010  143.6010 C   0  0  0  0  0  2  0  0  0  0  0  0
  188.7310  177.5260  142.5840 C   0  0  2  0  0  3  0  0  0  0  0  0
  190.2930  177.0200  140.9200 N   0  0  0  0  0  0  0  0  0  0  0  0
  185.9390  178.7200  139.6280 N   0  0  0  0  0  0  0  0  0  0  0  0
  187.7400  178.1810  137.8900 F   0  0  0  0  0  0  0  0  0  0  0  0
  191.9540  176.4080  139.3240 C   0  0  0  0  0  3  0  0  0  0  0  0
  188.1620  177.9380  140.2660 C   0  0  0  0  0  0  0  0  0  0  0  0
  190.6890  176.9120  139.6290 C   0  0  0  0  0  0  0  0  0  0  0  0
  181.7300  177.2000  140.0630 C   0  0  0  0  0  2  0  0  0  0  0  0
  180.3390  176.8030  139.9330 N   0  0  0  0  0  2  0  0  0  0  0  0
  180.3160  175.3520  139.9250 C   0  0  0  0  0  3  0  0  0  0  0  0
  178.9710  174.8790  139.4120 C   0  0  0  0  0  2  0  0  0  0  0  0
  179.2600  174.8670  140.8970 C   0  0  0  0  0  2  0  0  0  0  0  0
  1 28  1  6  0  0  0
  1 10  1  0  0  0  0
  2 23  1  6  0  0  0
  2 12  1  0  0  0  0
  4  3  1  0  0  0  0
  5 26  1  0  0  0  0
  6  5  2  0  0  0  0
  6 27  1  0  0  0  0
  7 17  1  0  0  0  0
  9 25  2  0  0  0  0
 11  3  1  0  0  0  0
 12  8  1  1  0  0  0
 12 13  1  0  0  0  0
 13 11  1  1  0  0  0
 14 21  1  0  0  0  0
 15 18  2  0  0  0  0
 15  9  1  0  0  0  0
 16  1  1  0  0  0  0
 17 10  1  0  0  0  0
 17  8  2  0  0  0  0
 18  6  1  0  0  0  0
 19 16  1  0  0  0  0
 19  7  1  0  0  0  0
 20  4  1  0  0  0  0
 21 13  1  0  0  0  0
 21 20  1  6  0  0  0
 22 14  1  0  0  0  0
 23  7  2  0  0  0  0
 24  5  1  0  0  0  0
 25 27  1  0  0  0  0
 26  2  1  0  0  0  0
 26 14  2  0  0  0  0
 27 22  2  0  0  0  0
 29 28  1  0  0  0  0
 30 29  1  0  0  0  0
 30 32  1  0  0  0  0
 31 30  1  0  0  0  0
 31 32  1  0  0  0  0
M  END
>  <MODEL>
6

>  <REMARK>
 VINA RESULT:      -8.1      3.325      5.705
  Name = 
  3 active torsions:
  status: ('A' for Active; 'I' for Inactive)
    1  A    between atoms: C_1  and  N_10
    2  A    between atoms: C_2  and  C_24
    3  A    between atoms: N_10  and  C_24
                            x       y       z     vdW  Elec       q    Type
                         _______ _______ _______ _____ _____    ______ ____

>  <TORSDO>
F 3

$$$$
=
 OpenBabel10262421363D

 32 38  0  0  1  0  0  0  0  0999 V2000
  190.9700  175.2340  136.0930 C   0  0  1  0  0  3  0  0  0  0  0  0
  189.9560  177.4060  140.6280 C   0  0  1  0  0  3  0  0  0  0  0  0
  185.1710  178.4850  140.0790 C   0  0  0  0  0  2  0  0  0  0  0  0
  185.2090  179.1970  141.4170 C   0  0  0  0  0  2  0  0  0  0  0  0
  190.8070  177.0320  142.8640 C   0  0  0  0  0  0  0  0  0  0  0  0
  190.5940  177.0840  144.2450 C   0  0  0  0  0  0  0  0  0  0  0  0
  191.1740  176.5430  138.7600 C   0  0  0  0  0  0  0  0  0  0  0  0
  188.9150  177.3230  138.4140 N   0  0  0  0  0  0  0  0  0  0  0  0
  190.1560  177.1960  146.9840 C   0  0  0  0  0  3  0  0  0  0  0  0
  189.8260  176.1380  136.5330 C   0  0  0  0  0  2  0  0  0  0  0  0
  186.5380  178.6090  139.4250 C   0  0  0  0  0  2  0  0  0  0  0  0
  188.9460  178.0260  139.6990 C   0  0  1  0  0  3  0  0  0  0  0  0
  187.6110  178.1100  140.2920 N   0  0  1  0  0  0  0  0  0  0  0  0
  188.5380  177.8610  142.5220 C   0  0  0  0  0  0  0  0  0  0  0  0
  191.3510  176.7690  146.4910 N   0  0  0  0  0  0  0  0  0  0  0  0
  192.5860  176.0090  136.4390 S   0  0  0  0  0  0  0  0  0  0  0  0
  189.9390  176.6820  137.9310 C   0  0  0  0  0  0  0  0  0  0  0  0
  191.5880  176.7050  145.1530 C   0  0  0  0  0  3  0  0  0  0  0  0
  192.4100  175.8750  138.2470 C   0  0  0  0  0  2  0  0  0  0  0  0
  186.1420  178.4500  142.3580 C   0  0  0  0  0  2  0  0  0  0  0  0
  187.4890  178.1810  141.7320 C   0  0  2  0  0  3  0  0  0  0  0  0
  188.3770  177.8910  143.8750 N   0  0  0  0  0  0  0  0  0  0  0  0
  191.1310  176.8440  140.0230 N   0  0  0  0  0  0  0  0  0  0  0  0
  192.0190  176.6110  142.4140 F   0  0  0  0  0  0  0  0  0  0  0  0
  189.1360  177.5840  146.1140 C   0  0  0  0  0  3  0  0  0  0  0  0
  189.7840  177.4410  141.9710 C   0  0  0  0  0  0  0  0  0  0  0  0
  189.3570  177.5280  144.7370 C   0  0  0  0  0  0  0  0  0  0  0  0
  190.8410  173.8390  136.6920 C   0  0  0  0  0  2  0  0  0  0  0  0
  191.3140  172.8450  135.7440 N   0  0  0  0  0  2  0  0  0  0  0  0
  192.7600  172.8070  135.8640 C   0  0  0  0  0  3  0  0  0  0  0  0
  193.3490  172.2270  134.5940 C   0  0  0  0  0  2  0  0  0  0  0  0
  193.2230  171.3650  135.8320 C   0  0  0  0  0  2  0  0  0  0  0  0
  1 16  1  0  0  0  0
  1 10  1  0  0  0  0
  1 28  1  1  0  0  0
  2 23  1  1  0  0  0
  2 26  1  0  0  0  0
  3  4  1  0  0  0  0
  4 20  1  0  0  0  0
  5  6  1  0  0  0  0
  6 27  2  0  0  0  0
  6 18  1  0  0  0  0
  7 23  2  0  0  0  0
 10 17  1  0  0  0  0
 11  3  1  0  0  0  0
 12  8  1  6  0  0  0
 12 13  1  0  0  0  0
 12  2  1  0  0  0  0
 13 11  1  6  0  0  0
 13 21  1  0  0  0  0
 14 22  2  0  0  0  0
 15  9  1  0  0  0  0
 16 19  1  0  0  0  0
 17  8  2  0  0  0  0
 17  7  1  0  0  0  0
 18 15  2  0  0  0  0
 19  7  1  0  0  0  0
 21 20  1  1  0  0  0
 21 14  1  0  0  0  0
 22 27  1  0  0  0  0
 24  5  1  0  0  0  0
 25  9  2  0  0  0  0
 26 14  1  0  0  0  0
 26  5  2  0  0  0  0
 27 25  1  0  0  0  0
 29 30  1  0  0  0  0
 29 28  1  0  0  0  0
 31 32  1  0  0  0  0
 31 30  1  0  0  0  0
 32 30  1  0  0  0  0
M  END
>  <MODEL>
7

>  <REMARK>
 VINA RESULT:      -8.0      2.986      3.668
  Name = 
  3 active torsions:
  status: ('A' for Active; 'I' for Inactive)
    1  A    between atoms: C_1  and  N_10
    2  A    between atoms: C_2  and  C_24
    3  A    between atoms: N_10  and  C_24
                            x       y       z     vdW  Elec       q    Type
                         _______ _______ _______ _____ _____    ______ ____

>  <TORSDO>
F 3

$$$$
