=
 OpenBabel10262420093D

 27 31  0  0  1  0  0  0  0  0999 V2000
  184.9190  178.7470  142.2870 C   0  0  0  0  0  0  0  0  0  0  0  0
  185.1090  178.4210  146.6220 S   0  0  0  0  0  0  0  0  0  0  0  0
  187.4560  177.3050  147.5160 N   0  0  0  0  0  1  0  0  0  0  0  0
  183.7750  179.2290  143.0570 C   0  0  0  0  0  0  0  0  0  0  0  0
  186.9890  177.6530  145.0900 C   0  0  0  0  0  0  0  0  0  0  0  0
  188.5390  177.0090  144.5590 Cl  0  0  0  0  0  0  0  0  0  0  0  0
  185.9880  178.1530  144.2370 C   0  0  0  0  0  0  0  0  0  0  0  0
  183.7890  179.3000  141.6490 C   0  0  2  0  0  3  0  0  0  0  0  0
  186.6380  177.7370  146.4360 C   0  0  0  0  0  0  0  0  0  0  0  0
  184.8260  178.6420  144.9820 C   0  0  0  0  0  0  0  0  0  0  0  0
  186.0580  178.1930  142.7980 C   0  0  0  0  0  0  0  0  0  0  0  0
  183.6350  179.2150  144.4170 C   0  0  0  0  0  3  0  0  0  0  0  0
  181.3100  176.3330  139.8330 N   0  0  0  0  0  0  0  0  0  0  0  0
  182.9250  178.2270  141.0480 C   0  0  0  0  0  0  0  0  0  0  0  0
  181.5360  178.2660  141.2180 C   0  0  0  0  0  3  0  0  0  0  0  0
  180.7390  177.2970  140.6040 C   0  0  0  0  0  3  0  0  0  0  0  0
  182.6540  176.2820  139.6370 C   0  0  0  0  0  3  0  0  0  0  0  0
  183.4860  177.2320  140.2330 C   0  0  0  0  0  3  0  0  0  0  0  0
  187.1310  177.7210  142.0390 O   0  0  0  0  0  0  0  0  0  0  0  0
  186.7150  178.4370  139.1290 O   0  0  0  0  0  1  0  0  0  0  0  0
  191.4870  177.1830  141.9710 C   0  0  0  0  0  1  0  0  0  0  0  0
  190.1030  177.2560  141.3600 C   0  0  1  0  0  3  0  0  0  0  0  0
  187.8910  178.1870  139.8220 C   0  0  0  0  0  0  0  0  0  0  0  0
  189.4070  178.5280  141.8240 C   0  0  0  0  0  2  0  0  0  0  0  0
  190.2190  177.2900  139.8410 C   0  0  0  0  0  2  0  0  0  0  0  0
  188.8900  177.5560  139.1920 C   0  0  0  0  0  3  0  0  0  0  0  0
  187.9750  178.5760  141.2780 C   0  0  2  0  0  3  0  0  0  0  0  0
  1 11  2  0  0  0  0
  1  4  1  0  0  0  0
  4 12  2  0  0  0  0
  5  9  2  0  0  0  0
  6  5  1  0  0  0  0
  7 10  2  0  0  0  0
  7  5  1  0  0  0  0
  8 14  1  6  0  0  0
  8  1  1  0  0  0  0
  8  4  1  0  0  0  0
  9  2  1  0  0  0  0
  9  3  1  0  0  0  0
 10  2  1  0  0  0  0
 11  7  1  0  0  0  0
 12 10  1  0  0  0  0
 13 16  1  0  0  0  0
 14 15  1  0  0  0  0
 16 15  2  0  0  0  0
 17 13  2  0  0  0  0
 17 18  1  0  0  0  0
 18 14  2  0  0  0  0
 19 11  1  0  0  0  0
 20 23  1  0  0  0  0
 22 24  1  0  0  0  0
 22 21  1  1  0  0  0
 23 27  1  0  0  0  0
 25 22  1  0  0  0  0
 26 23  2  0  0  0  0
 26 25  1  0  0  0  0
 27 24  1  0  0  0  0
 27 19  1  1  0  0  0
M  END
>  <MODEL>
1

>  <REMARK>
 VINA RESULT:      -8.3      0.000      0.000
  Name = 
  3 active torsions:
  status: ('A' for Active; 'I' for Inactive)
    1  A    between atoms: O_3  and  C_19
    2  A    between atoms: O_3  and  C_26
    3  A    between atoms: C_9  and  C_15
                            x       y       z     vdW  Elec       q    Type
                         _______ _______ _______ _____ _____    ______ ____

>  <TORSDO>
F 3

$$$$
=
 OpenBabel10262420093D

 27 31  0  0  1  0  0  0  0  0999 V2000
  190.2860  178.1760  142.7720 C   0  0  0  0  0  0  0  0  0  0  0  0
  190.3090  177.1460  138.5440 S   0  0  0  0  0  0  0  0  0  0  0  0
  187.8030  177.1760  137.4150 N   0  0  0  0  0  1  0  0  0  0  0  0
  191.5740  177.8740  142.1520 C   0  0  0  0  0  0  0  0  0  0  0  0
  188.1840  177.7160  139.8210 C   0  0  0  0  0  0  0  0  0  0  0  0
  186.4850  178.0320  140.1610 Cl  0  0  0  0  0  0  0  0  0  0  0  0
  189.2260  177.8150  140.7610 C   0  0  0  0  0  0  0  0  0  0  0  0
  191.4840  178.2150  143.5160 C   0  0  2  0  0  3  0  0  0  0  0  0
  188.6360  177.3520  138.5550 C   0  0  0  0  0  0  0  0  0  0  0  0
  190.5300  177.5150  140.1670 C   0  0  0  0  0  0  0  0  0  0  0  0
  189.0700  178.1650  142.1500 C   0  0  0  0  0  0  0  0  0  0  0  0
  191.7960  177.5280  140.8480 C   0  0  0  0  0  3  0  0  0  0  0  0
  192.0170  174.7640  145.9750 N   0  0  0  0  0  0  0  0  0  0  0  0
  191.6240  176.9980  144.3860 C   0  0  0  0  0  0  0  0  0  0  0  0
  191.7920  175.7350  143.8050 C   0  0  0  0  0  3  0  0  0  0  0  0
  191.9800  174.6190  144.6240 C   0  0  0  0  0  3  0  0  0  0  0  0
  191.8730  175.9800  146.5650 C   0  0  0  0  0  3  0  0  0  0  0  0
  191.6820  177.1200  145.7820 C   0  0  0  0  0  3  0  0  0  0  0  0
  187.8490  178.4370  142.7710 O   0  0  0  0  0  0  0  0  0  0  0  0
  184.8310  178.2150  142.7400 O   0  0  0  0  0  1  0  0  0  0  0  0
  188.5320  177.5560  147.0170 C   0  0  0  0  0  1  0  0  0  0  0  0
  187.7150  177.9970  145.8200 C   0  0  1  0  0  3  0  0  0  0  0  0
  185.7260  177.9990  143.7780 C   0  0  0  0  0  0  0  0  0  0  0  0
  187.8510  176.9720  144.7030 C   0  0  0  0  0  2  0  0  0  0  0  0
  186.2460  178.0960  146.2160 C   0  0  0  0  0  2  0  0  0  0  0  0
  185.3680  178.3420  145.0210 C   0  0  0  0  0  3  0  0  0  0  0  0
  187.0930  177.4450  143.4570 C   0  0  2  0  0  3  0  0  0  0  0  0
  1  8  1  0  0  0  0
  2  9  1  0  0  0  0
  2 10  1  0  0  0  0
  3  9  1  0  0  0  0
  4  1  1  0  0  0  0
  4  8  1  0  0  0  0
  5  6  1  0  0  0  0
  5  7  1  0  0  0  0
  7 11  1  0  0  0  0
  8 14  1  1  0  0  0
  9  5  2  0  0  0  0
 10  7  2  0  0  0  0
 10 12  1  0  0  0  0
 11 19  1  0  0  0  0
 11  1  2  0  0  0  0
 12  4  2  0  0  0  0
 13 17  1  0  0  0  0
 14 18  1  0  0  0  0
 15 14  2  0  0  0  0
 15 16  1  0  0  0  0
 16 13  2  0  0  0  0
 18 17  2  0  0  0  0
 20 23  1  0  0  0  0
 22 25  1  0  0  0  0
 22 21  1  1  0  0  0
 23 26  2  0  0  0  0
 24 22  1  0  0  0  0
 26 25  1  0  0  0  0
 27 19  1  1  0  0  0
 27 23  1  0  0  0  0
 27 24  1  0  0  0  0
M  END
>  <MODEL>
2

>  <REMARK>
 VINA RESULT:      -8.3      3.691      7.721
  Name = 
  3 active torsions:
  status: ('A' for Active; 'I' for Inactive)
    1  A    between atoms: O_3  and  C_19
    2  A    between atoms: O_3  and  C_26
    3  A    between atoms: C_9  and  C_15
                            x       y       z     vdW  Elec       q    Type
                         _______ _______ _______ _____ _____    ______ ____

>  <TORSDO>
F 3

$$$$
=
 OpenBabel10262420093D

 27 31  0  0  1  0  0  0  0  0999 V2000
  187.6070  178.9120  141.8540 C   0  0  0  0  0  0  0  0  0  0  0  0
  185.0080  177.8970  138.5150 S   0  0  0  0  0  0  0  0  0  0  0  0
  182.3450  177.8570  139.1970 N   0  0  0  0  0  1  0  0  0  0  0  0
  188.2330  178.6490  140.5590 C   0  0  0  0  0  0  0  0  0  0  0  0
  184.1330  178.4000  140.8500 C   0  0  0  0  0  0  0  0  0  0  0  0
  183.0120  178.6670  142.1810 Cl  0  0  0  0  0  0  0  0  0  0  0  0
  185.5320  178.5270  140.9360 C   0  0  0  0  0  0  0  0  0  0  0  0
  189.0070  178.9840  141.6890 C   0  0  2  0  0  3  0  0  0  0  0  0
  183.7040  178.0540  139.5710 C   0  0  0  0  0  0  0  0  0  0  0  0
  186.1860  178.2670  139.6530 C   0  0  0  0  0  0  0  0  0  0  0  0
  186.2700  178.8680  142.1260 C   0  0  0  0  0  0  0  0  0  0  0  0
  187.6000  178.3140  139.3950 C   0  0  0  0  0  3  0  0  0  0  0  0
  190.8850  175.5640  143.4260 N   0  0  0  0  0  0  0  0  0  0  0  0
  189.6840  177.7680  142.2560 C   0  0  0  0  0  0  0  0  0  0  0  0
  190.9480  177.8800  142.8470 C   0  0  0  0  0  3  0  0  0  0  0  0
  191.5420  176.7550  143.4240 C   0  0  0  0  0  3  0  0  0  0  0  0
  189.6500  175.4310  142.8750 C   0  0  0  0  0  3  0  0  0  0  0  0
  189.0230  176.5320  142.2880 C   0  0  0  0  0  3  0  0  0  0  0  0
  185.6980  179.1030  143.3780 O   0  0  0  0  0  0  0  0  0  0  0  0
  183.4520  179.1490  145.4060 O   0  0  0  0  0  1  0  0  0  0  0  0
  188.8240  177.3240  145.8950 C   0  0  0  0  0  1  0  0  0  0  0  0
  187.5300  178.0660  145.6320 C   0  0  1  0  0  3  0  0  0  0  0  0
  184.7420  178.6520  145.5220 C   0  0  0  0  0  0  0  0  0  0  0  0
  186.6840  177.2820  144.6400 C   0  0  0  0  0  2  0  0  0  0  0  0
  186.7500  178.2070  146.9340 C   0  0  0  0  0  2  0  0  0  0  0  0
  185.3750  178.7640  146.6960 C   0  0  0  0  0  3  0  0  0  0  0  0
  185.4070  178.0610  144.3020 C   0  0  2  0  0  3  0  0  0  0  0  0
  1 11  1  0  0  0  0
  2  9  1  0  0  0  0
  2 10  1  0  0  0  0
  3  9  1  0  0  0  0
  4  8  1  0  0  0  0
  4  1  2  0  0  0  0
  5  7  1  0  0  0  0
  5  6  1  0  0  0  0
  7 11  2  0  0  0  0
  8  1  1  0  0  0  0
  8 14  1  1  0  0  0
  9  5  2  0  0  0  0
 10  7  1  0  0  0  0
 11 19  1  0  0  0  0
 12 10  2  0  0  0  0
 12  4  1  0  0  0  0
 14 18  2  0  0  0  0
 14 15  1  0  0  0  0
 15 16  2  0  0  0  0
 16 13  1  0  0  0  0
 17 13  2  0  0  0  0
 18 17  1  0  0  0  0
 20 23  1  0  0  0  0
 22 21  1  1  0  0  0
 22 25  1  0  0  0  0
 23 26  2  0  0  0  0
 24 22  1  0  0  0  0
 26 25  1  0  0  0  0
 27 19  1  6  0  0  0
 27 24  1  0  0  0  0
 27 23  1  0  0  0  0
M  END
>  <MODEL>
3

>  <REMARK>
 VINA RESULT:      -8.1      2.833      6.684
  Name = 
  3 active torsions:
  status: ('A' for Active; 'I' for Inactive)
    1  A    between atoms: O_3  and  C_19
    2  A    between atoms: O_3  and  C_26
    3  A    between atoms: C_9  and  C_15
                            x       y       z     vdW  Elec       q    Type
                         _______ _______ _______ _____ _____    ______ ____

>  <TORSDO>
F 3

$$$$
=
 OpenBabel10262420093D

 27 31  0  0  1  0  0  0  0  0999 V2000
  188.6230  178.0350  140.9850 C   0  0  0  0  0  0  0  0  0  0  0  0
  184.3960  178.8500  141.6240 S   0  0  0  0  0  0  0  0  0  0  0  0
  183.5690  178.2980  144.1870 N   0  0  0  0  0  1  0  0  0  0  0  0
  187.8510  178.5530  139.8570 C   0  0  0  0  0  0  0  0  0  0  0  0
  185.9280  177.9560  143.4480 C   0  0  0  0  0  0  0  0  0  0  0  0
  186.4830  177.3940  145.0220 Cl  0  0  0  0  0  0  0  0  0  0  0  0
  186.7400  178.0940  142.3080 C   0  0  0  0  0  0  0  0  0  0  0  0
  189.2240  178.2640  139.7290 C   0  0  2  0  0  3  0  0  0  0  0  0
  184.6080  178.3360  143.2150 C   0  0  0  0  0  0  0  0  0  0  0  0
  185.9920  178.6090  141.1600 C   0  0  0  0  0  0  0  0  0  0  0  0
  188.1440  177.7760  142.2370 C   0  0  0  0  0  0  0  0  0  0  0  0
  186.5200  178.8680  139.8490 C   0  0  0  0  0  3  0  0  0  0  0  0
  189.8630  174.6730  137.5060 N   0  0  0  0  0  0  0  0  0  0  0  0
  189.4360  176.9750  138.9860 C   0  0  0  0  0  0  0  0  0  0  0  0
  188.4290  176.4690  138.1560 C   0  0  0  0  0  3  0  0  0  0  0  0
  188.6600  175.3020  137.4250 C   0  0  0  0  0  3  0  0  0  0  0  0
  190.8640  175.1520  138.2910 C   0  0  0  0  0  3  0  0  0  0  0  0
  190.6730  176.3150  139.0380 C   0  0  0  0  0  3  0  0  0  0  0  0
  188.8980  177.2610  143.2940 O   0  0  0  0  0  0  0  0  0  0  0  0
  191.7880  177.0160  142.4270 O   0  0  0  0  0  1  0  0  0  0  0  0
  189.5170  177.3500  147.6390 C   0  0  0  0  0  1  0  0  0  0  0  0
  189.8930  177.0420  146.2040 C   0  0  1  0  0  3  0  0  0  0  0  0
  191.2510  177.1510  143.7000 C   0  0  0  0  0  0  0  0  0  0  0  0
  189.6900  178.2830  145.3460 C   0  0  0  0  0  2  0  0  0  0  0  0
  191.3620  176.6390  146.1390 C   0  0  0  0  0  2  0  0  0  0  0  0
  191.8370  176.5100  144.7190 C   0  0  0  0  0  3  0  0  0  0  0  0
  189.9910  177.9630  143.8760 C   0  0  2  0  0  3  0  0  0  0  0  0
  1 11  1  0  0  0  0
  2  9  1  0  0  0  0
  4  1  2  0  0  0  0
  5  6  1  0  0  0  0
  7  5  1  0  0  0  0
  8 14  1  6  0  0  0
  8  4  1  0  0  0  0
  8  1  1  0  0  0  0
  9  5  2  0  0  0  0
  9  3  1  0  0  0  0
 10  2  1  0  0  0  0
 10  7  1  0  0  0  0
 11  7  2  0  0  0  0
 11 19  1  0  0  0  0
 12  4  1  0  0  0  0
 12 10  2  0  0  0  0
 13 17  1  0  0  0  0
 14 18  1  0  0  0  0
 15 14  2  0  0  0  0
 16 13  2  0  0  0  0
 16 15  1  0  0  0  0
 17 18  2  0  0  0  0
 20 23  1  0  0  0  0
 22 21  1  1  0  0  0
 23 27  1  0  0  0  0
 23 26  2  0  0  0  0
 24 22  1  0  0  0  0
 25 22  1  0  0  0  0
 26 25  1  0  0  0  0
 27 19  1  1  0  0  0
 27 24  1  0  0  0  0
M  END
>  <MODEL>
4

>  <REMARK>
 VINA RESULT:      -7.9      3.095      5.561
  Name = 
  3 active torsions:
  status: ('A' for Active; 'I' for Inactive)
    1  A    between atoms: O_3  and  C_19
    2  A    between atoms: O_3  and  C_26
    3  A    between atoms: C_9  and  C_15
                            x       y       z     vdW  Elec       q    Type
                         _______ _______ _______ _____ _____    ______ ____

>  <TORSDO>
F 3

$$$$
=
 OpenBabel10262420093D

 27 31  0  0  1  0  0  0  0  0999 V2000
  190.1920  176.9310  140.1260 C   0  0  0  0  0  0  0  0  0  0  0  0
  186.3850  178.7860  141.1230 S   0  0  0  0  0  0  0  0  0  0  0  0
  185.5710  178.2580  143.6950 N   0  0  0  0  0  1  0  0  0  0  0  0
  189.5330  177.7300  139.0950 C   0  0  0  0  0  0  0  0  0  0  0  0
  187.7070  177.3640  142.7660 C   0  0  0  0  0  0  0  0  0  0  0  0
  188.1690  176.5420  144.2540 Cl  0  0  0  0  0  0  0  0  0  0  0  0
  188.4670  177.3770  141.5820 C   0  0  0  0  0  0  0  0  0  0  0  0
  190.7680  177.0980  138.8480 C   0  0  2  0  0  3  0  0  0  0  0  0
  186.5300  178.1000  142.6560 C   0  0  0  0  0  0  0  0  0  0  0  0
  187.8280  178.1690  140.5300 C   0  0  0  0  0  0  0  0  0  0  0  0
  189.7260  176.7030  141.3890 C   0  0  0  0  0  0  0  0  0  0  0  0
  188.3400  178.3880  139.2040 C   0  0  0  0  0  3  0  0  0  0  0  0
  190.2320  173.5260  136.5670 N   0  0  0  0  0  0  0  0  0  0  0  0
  190.5840  175.8670  138.0050 C   0  0  0  0  0  0  0  0  0  0  0  0
  191.6720  175.0270  137.7420 C   0  0  0  0  0  3  0  0  0  0  0  0
  191.4760  173.8550  137.0070 C   0  0  0  0  0  3  0  0  0  0  0  0
  189.1560  174.3150  136.8230 C   0  0  0  0  0  3  0  0  0  0  0  0
  189.3090  175.4950  137.5540 C   0  0  0  0  0  3  0  0  0  0  0  0
  190.3650  175.9180  142.3500 O   0  0  0  0  0  0  0  0  0  0  0  0
  191.9580  174.1740  144.2420 O   0  0  0  0  0  1  0  0  0  0  0  0
  191.0860  179.8010  144.2660 C   0  0  0  0  0  1  0  0  0  0  0  0
  191.0020  178.2900  144.2160 C   0  0  1  0  0  3  0  0  0  0  0  0
  191.7980  175.5520  144.2280 C   0  0  0  0  0  0  0  0  0  0  0  0
  191.7770  177.7760  143.0100 C   0  0  0  0  0  2  0  0  0  0  0  0
  191.6200  177.7030  145.4800 C   0  0  0  0  0  2  0  0  0  0  0  0
  191.7370  176.2070  145.3940 C   0  0  0  0  0  3  0  0  0  0  0  0
  191.6340  176.2520  142.9010 C   0  0  2  0  0  3  0  0  0  0  0  0
  1 11  1  0  0  0  0
  2  9  1  0  0  0  0
  4 12  1  0  0  0  0
  4  1  2  0  0  0  0
  5  6  1  0  0  0  0
  7  5  1  0  0  0  0
  8 14  1  6  0  0  0
  8  4  1  0  0  0  0
  8  1  1  0  0  0  0
  9  5  2  0  0  0  0
  9  3  1  0  0  0  0
 10  2  1  0  0  0  0
 10  7  1  0  0  0  0
 11  7  2  0  0  0  0
 11 19  1  0  0  0  0
 12 10  2  0  0  0  0
 13 17  2  0  0  0  0
 13 16  1  0  0  0  0
 15 14  1  0  0  0  0
 16 15  2  0  0  0  0
 17 18  1  0  0  0  0
 18 14  2  0  0  0  0
 22 21  1  1  0  0  0
 22 25  1  0  0  0  0
 23 20  1  0  0  0  0
 23 26  2  0  0  0  0
 24 22  1  0  0  0  0
 26 25  1  0  0  0  0
 27 19  1  1  0  0  0
 27 24  1  0  0  0  0
 27 23  1  0  0  0  0
M  END
>  <MODEL>
5

>  <REMARK>
 VINA RESULT:      -7.7      3.494      6.460
  Name = 
  3 active torsions:
  status: ('A' for Active; 'I' for Inactive)
    1  A    between atoms: O_3  and  C_19
    2  A    between atoms: O_3  and  C_26
    3  A    between atoms: C_9  and  C_15
                            x       y       z     vdW  Elec       q    Type
                         _______ _______ _______ _____ _____    ______ ____

>  <TORSDO>
F 3

$$$$
=
 OpenBabel10262420093D

 27 31  0  0  1  0  0  0  0  0999 V2000
  187.4340  178.9580  141.2120 C   0  0  0  0  0  0  0  0  0  0  0  0
  185.9670  177.5190  137.3770 S   0  0  0  0  0  0  0  0  0  0  0  0
  183.2250  177.3580  137.2640 N   0  0  0  0  0  1  0  0  0  0  0  0
  188.4200  178.6380  140.1820 C   0  0  0  0  0  0  0  0  0  0  0  0
  184.4290  178.1430  139.3040 C   0  0  0  0  0  0  0  0  0  0  0  0
  182.9570  178.4380  140.2260 Cl  0  0  0  0  0  0  0  0  0  0  0  0
  185.7350  178.3680  139.7760 C   0  0  0  0  0  0  0  0  0  0  0  0
  188.8170  179.1090  141.4500 C   0  0  2  0  0  3  0  0  0  0  0  0
  184.4060  177.6720  137.9940 C   0  0  0  0  0  0  0  0  0  0  0  0
  186.7450  178.0530  138.7650 C   0  0  0  0  0  0  0  0  0  0  0  0
  186.0780  178.8470  141.0910 C   0  0  0  0  0  0  0  0  0  0  0  0
  188.1690  178.1730  138.9210 C   0  0  0  0  0  3  0  0  0  0  0  0
  190.2370  175.9600  143.9620 N   0  0  0  0  0  0  0  0  0  0  0  0
  189.3470  177.9880  142.2990 C   0  0  0  0  0  0  0  0  0  0  0  0
  190.3310  178.2420  143.2630 C   0  0  0  0  0  3  0  0  0  0  0  0
  190.7730  177.2040  144.0860 C   0  0  0  0  0  3  0  0  0  0  0  0
  189.2690  175.6900  143.0470 C   0  0  0  0  0  3  0  0  0  0  0  0
  188.8000  176.7000  142.2050 C   0  0  0  0  0  3  0  0  0  0  0  0
  185.1570  179.1410  142.0980 O   0  0  0  0  0  0  0  0  0  0  0  0
  182.3940  179.1470  143.3340 O   0  0  0  0  0  1  0  0  0  0  0  0
  187.4550  177.8910  145.6240 C   0  0  0  0  0  1  0  0  0  0  0  0
  186.2620  178.4810  144.9010 C   0  0  1  0  0  3  0  0  0  0  0  0
  183.6140  178.7860  143.8890 C   0  0  0  0  0  0  0  0  0  0  0  0
  185.8180  177.5370  143.7930 C   0  0  0  0  0  2  0  0  0  0  0  0
  185.1090  178.6590  145.8820 C   0  0  0  0  0  2  0  0  0  0  0  0
  183.8420  179.0590  145.1800 C   0  0  0  0  0  3  0  0  0  0  0  0
  184.6610  178.1590  143.0010 C   0  0  2  0  0  3  0  0  0  0  0  0
  1  8  1  0  0  0  0
  2  9  1  0  0  0  0
  2 10  1  0  0  0  0
  3  9  1  0  0  0  0
  4  1  2  0  0  0  0
  4  8  1  0  0  0  0
  5  7  1  0  0  0  0
  5  6  1  0  0  0  0
  7 11  2  0  0  0  0
  8 14  1  1  0  0  0
  9  5  2  0  0  0  0
 10 12  2  0  0  0  0
 10  7  1  0  0  0  0
 11  1  1  0  0  0  0
 11 19  1  0  0  0  0
 12  4  1  0  0  0  0
 13 16  1  0  0  0  0
 14 15  1  0  0  0  0
 15 16  2  0  0  0  0
 17 13  2  0  0  0  0
 18 14  2  0  0  0  0
 18 17  1  0  0  0  0
 20 23  1  0  0  0  0
 22 21  1  1  0  0  0
 22 25  1  0  0  0  0
 23 26  2  0  0  0  0
 24 22  1  0  0  0  0
 26 25  1  0  0  0  0
 27 19  1  6  0  0  0
 27 24  1  0  0  0  0
 27 23  1  0  0  0  0
M  END
>  <MODEL>
6

>  <REMARK>
 VINA RESULT:      -7.7      3.088      6.881
  Name = 
  3 active torsions:
  status: ('A' for Active; 'I' for Inactive)
    1  A    between atoms: O_3  and  C_19
    2  A    between atoms: O_3  and  C_26
    3  A    between atoms: C_9  and  C_15
                            x       y       z     vdW  Elec       q    Type
                         _______ _______ _______ _____ _____    ______ ____

>  <TORSDO>
F 3

$$$$
=
 OpenBabel10262420093D

 27 31  0  0  1  0  0  0  0  0999 V2000
  188.5060  178.3360  139.3800 C   0  0  0  0  0  0  0  0  0  0  0  0
  184.1580  178.4130  139.2110 S   0  0  0  0  0  0  0  0  0  0  0  0
  182.9880  178.6300  141.6890 N   0  0  0  0  0  1  0  0  0  0  0  0
  187.8730  178.2520  138.0650 C   0  0  0  0  0  0  0  0  0  0  0  0
  185.4640  178.5570  141.3890 C   0  0  0  0  0  0  0  0  0  0  0  0
  185.8140  178.7110  143.1080 Cl  0  0  0  0  0  0  0  0  0  0  0  0
  186.4330  178.4560  140.3740 C   0  0  0  0  0  0  0  0  0  0  0  0
  189.2760  178.2330  138.2020 C   0  0  2  0  0  3  0  0  0  0  0  0
  184.1630  178.5440  140.8910 C   0  0  0  0  0  0  0  0  0  0  0  0
  185.8280  178.3670  139.0450 C   0  0  0  0  0  0  0  0  0  0  0  0
  187.8600  178.4350  140.5790 C   0  0  0  0  0  0  0  0  0  0  0  0
  186.5330  178.2560  137.7970 C   0  0  0  0  0  3  0  0  0  0  0  0
  190.8410  174.3090  137.5730 N   0  0  0  0  0  0  0  0  0  0  0  0
  189.8150  176.8410  138.0260 C   0  0  0  0  0  0  0  0  0  0  0  0
  189.0230  175.8500  137.4340 C   0  0  0  0  0  3  0  0  0  0  0  0
  189.5550  174.5770  137.2220 C   0  0  0  0  0  3  0  0  0  0  0  0
  191.6380  175.2560  138.1340 C   0  0  0  0  0  3  0  0  0  0  0  0
  191.1430  176.5410  138.3630 C   0  0  0  0  0  3  0  0  0  0  0  0
  188.4870  178.4940  141.8250 O   0  0  0  0  0  0  0  0  0  0  0  0
  187.5560  175.9740  143.2180 O   0  0  0  0  0  1  0  0  0  0  0  0
  191.9740  179.3870  144.3380 C   0  0  0  0  0  1  0  0  0  0  0  0
  190.6350  178.7530  144.0230 C   0  0  1  0  0  3  0  0  0  0  0  0
  188.6670  176.7670  143.4680 C   0  0  0  0  0  0  0  0  0  0  0  0
  190.7110  178.0420  142.6790 C   0  0  0  0  0  2  0  0  0  0  0  0
  190.2910  177.7300  145.0990 C   0  0  0  0  0  2  0  0  0  0  0  0
  189.0690  176.9350  144.7340 C   0  0  0  0  0  3  0  0  0  0  0  0
  189.3400  177.4630  142.3100 C   0  0  2  0  0  3  0  0  0  0  0  0
  1 11  1  0  0  0  0
  2  9  1  0  0  0  0
  4  8  1  0  0  0  0
  4  1  2  0  0  0  0
  5  6  1  0  0  0  0
  7 11  2  0  0  0  0
  7  5  1  0  0  0  0
  8 14  1  1  0  0  0
  8  1  1  0  0  0  0
  9  5  2  0  0  0  0
  9  3  1  0  0  0  0
 10  2  1  0  0  0  0
 10  7  1  0  0  0  0
 11 19  1  0  0  0  0
 12  4  1  0  0  0  0
 12 10  2  0  0  0  0
 13 17  1  0  0  0  0
 14 18  1  0  0  0  0
 15 14  2  0  0  0  0
 16 15  1  0  0  0  0
 16 13  2  0  0  0  0
 17 18  2  0  0  0  0
 20 23  1  0  0  0  0
 22 21  1  1  0  0  0
 22 25  1  0  0  0  0
 23 26  2  0  0  0  0
 24 22  1  0  0  0  0
 26 25  1  0  0  0  0
 27 19  1  1  0  0  0
 27 24  1  0  0  0  0
 27 23  1  0  0  0  0
M  END
>  <MODEL>
7

>  <REMARK>
 VINA RESULT:      -7.7      3.250      6.099
  Name = 
  3 active torsions:
  status: ('A' for Active; 'I' for Inactive)
    1  A    between atoms: O_3  and  C_19
    2  A    between atoms: O_3  and  C_26
    3  A    between atoms: C_9  and  C_15
                            x       y       z     vdW  Elec       q    Type
                         _______ _______ _______ _____ _____    ______ ____

>  <TORSDO>
F 3

$$$$
=
 OpenBabel10262420093D

 27 31  0  0  1  0  0  0  0  0999 V2000
  183.9640  178.9380  140.1480 C   0  0  0  0  0  0  0  0  0  0  0  0
  179.7070  179.5540  140.8060 S   0  0  0  0  0  0  0  0  0  0  0  0
  178.9310  179.0350  143.3910 N   0  0  0  0  0  1  0  0  0  0  0  0
  183.1570  179.3830  139.0140 C   0  0  0  0  0  0  0  0  0  0  0  0
  181.2980  178.7930  142.6390 C   0  0  0  0  0  0  0  0  0  0  0  0
  181.8950  178.3050  144.2220 Cl  0  0  0  0  0  0  0  0  0  0  0  0
  182.0920  178.9390  141.4870 C   0  0  0  0  0  0  0  0  0  0  0  0
  184.5420  179.1610  138.8800 C   0  0  2  0  0  3  0  0  0  0  0  0
  179.9580  179.0980  142.4090 C   0  0  0  0  0  0  0  0  0  0  0  0
  181.3090  179.3820  140.3330 C   0  0  0  0  0  0  0  0  0  0  0  0
  183.5100  178.6900  141.4120 C   0  0  0  0  0  0  0  0  0  0  0  0
  181.8120  179.6300  139.0100 C   0  0  0  0  0  3  0  0  0  0  0  0
  185.2630  175.5290  136.7510 N   0  0  0  0  0  0  0  0  0  0  0  0
  184.8140  177.8640  138.1710 C   0  0  0  0  0  0  0  0  0  0  0  0
  183.7880  176.9250  138.0070 C   0  0  0  0  0  3  0  0  0  0  0  0
  184.0370  175.7500  137.2950 C   0  0  0  0  0  3  0  0  0  0  0  0
  186.2720  176.4310  136.8800 C   0  0  0  0  0  3  0  0  0  0  0  0
  186.0640  177.6180  137.5850 C   0  0  0  0  0  3  0  0  0  0  0  0
  184.2990  178.2460  142.4740 O   0  0  0  0  0  0  0  0  0  0  0  0
  187.1360  178.0800  141.4340 O   0  0  0  0  0  1  0  0  0  0  0  0
  185.1790  178.4060  146.7720 C   0  0  0  0  0  1  0  0  0  0  0  0
  185.4770  178.0930  145.3200 C   0  0  1  0  0  3  0  0  0  0  0  0
  186.6750  178.2140  142.7360 C   0  0  0  0  0  0  0  0  0  0  0  0
  185.1810  179.3160  144.4630 C   0  0  0  0  0  2  0  0  0  0  0  0
  186.9510  177.7360  145.1690 C   0  0  0  0  0  2  0  0  0  0  0  0
  187.3410  177.6040  143.7240 C   0  0  0  0  0  3  0  0  0  0  0  0
  185.4020  178.9880  142.9810 C   0  0  2  0  0  3  0  0  0  0  0  0
  1 11  1  0  0  0  0
  2  9  1  0  0  0  0
  4  1  2  0  0  0  0
  5  6  1  0  0  0  0
  7  5  1  0  0  0  0
  8 14  1  6  0  0  0
  8  4  1  0  0  0  0
  8  1  1  0  0  0  0
  9  5  2  0  0  0  0
  9  3  1  0  0  0  0
 10  2  1  0  0  0  0
 10  7  1  0  0  0  0
 11  7  2  0  0  0  0
 11 19  1  0  0  0  0
 12  4  1  0  0  0  0
 12 10  2  0  0  0  0
 13 17  2  0  0  0  0
 13 16  1  0  0  0  0
 15 14  1  0  0  0  0
 16 15  2  0  0  0  0
 17 18  1  0  0  0  0
 18 14  2  0  0  0  0
 20 23  1  0  0  0  0
 22 21  1  1  0  0  0
 23 27  1  0  0  0  0
 23 26  2  0  0  0  0
 24 22  1  0  0  0  0
 25 22  1  0  0  0  0
 26 25  1  0  0  0  0
 27 19  1  1  0  0  0
 27 24  1  0  0  0  0
M  END
>  <MODEL>
8

>  <REMARK>
 VINA RESULT:      -7.6      3.581      5.348
  Name = 
  3 active torsions:
  status: ('A' for Active; 'I' for Inactive)
    1  A    between atoms: O_3  and  C_19
    2  A    between atoms: O_3  and  C_26
    3  A    between atoms: C_9  and  C_15
                            x       y       z     vdW  Elec       q    Type
                         _______ _______ _______ _____ _____    ______ ____

>  <TORSDO>
F 3

$$$$
=
 OpenBabel10262420093D

 27 31  0  0  1  0  0  0  0  0999 V2000
  185.9740  178.9100  141.4310 C   0  0  0  0  0  0  0  0  0  0  0  0
  185.3040  178.2450  145.6780 S   0  0  0  0  0  0  0  0  0  0  0  0
  187.5560  177.3920  147.0040 N   0  0  0  0  0  1  0  0  0  0  0  0
  184.6340  179.1630  141.9570 C   0  0  0  0  0  0  0  0  0  0  0  0
  187.5570  177.8780  144.5560 C   0  0  0  0  0  0  0  0  0  0  0  0
  189.2640  177.5010  144.3430 Cl  0  0  0  0  0  0  0  0  0  0  0  0
  186.6910  178.3050  143.5330 C   0  0  0  0  0  0  0  0  0  0  0  0
  184.9300  179.3540  140.5920 C   0  0  2  0  0  3  0  0  0  0  0  0
  186.9250  177.7980  145.7950 C   0  0  0  0  0  0  0  0  0  0  0  0
  185.3390  178.5640  144.0310 C   0  0  0  0  0  0  0  0  0  0  0  0
  187.0530  178.4770  142.1480 C   0  0  0  0  0  0  0  0  0  0  0  0
  184.2190  179.0130  143.2500 C   0  0  0  0  0  3  0  0  0  0  0  0
  183.2780  176.2330  138.1890 N   0  0  0  0  0  0  0  0  0  0  0  0
  184.3860  178.2270  139.7600 C   0  0  0  0  0  0  0  0  0  0  0  0
  183.3730  177.4050  140.2680 C   0  0  0  0  0  3  0  0  0  0  0  0
  182.8330  176.3990  139.4630 C   0  0  0  0  0  3  0  0  0  0  0  0
  184.2480  177.0270  137.6650 C   0  0  0  0  0  3  0  0  0  0  0  0
  184.8140  178.0440  138.4370 C   0  0  0  0  0  3  0  0  0  0  0  0
  188.3190  178.2230  141.6180 O   0  0  0  0  0  0  0  0  0  0  0  0
  190.4390  176.0880  141.9490 O   0  0  0  0  0  1  0  0  0  0  0  0
  188.8310  179.0030  137.3290 C   0  0  0  0  0  1  0  0  0  0  0  0
  189.2620  178.5150  138.6960 C   0  0  1  0  0  3  0  0  0  0  0  0
  190.0190  176.7530  140.8050 C   0  0  0  0  0  0  0  0  0  0  0  0
  188.1860  177.6070  139.2760 C   0  0  0  0  0  2  0  0  0  0  0  0
  190.5550  177.7190  138.5690 C   0  0  0  0  0  2  0  0  0  0  0  0
  190.9230  177.0520  139.8640 C   0  0  0  0  0  3  0  0  0  0  0  0
  188.5730  177.1700  140.6950 C   0  0  2  0  0  3  0  0  0  0  0  0
  1  4  2  0  0  0  0
  1 11  1  0  0  0  0
  2  9  1  0  0  0  0
  4 12  1  0  0  0  0
  5  9  2  0  0  0  0
  6  5  1  0  0  0  0
  7 10  1  0  0  0  0
  7  5  1  0  0  0  0
  8 14  1  6  0  0  0
  8  1  1  0  0  0  0
  8  4  1  0  0  0  0
  9  3  1  0  0  0  0
 10  2  1  0  0  0  0
 11  7  2  0  0  0  0
 12 10  2  0  0  0  0
 13 16  1  0  0  0  0
 14 15  1  0  0  0  0
 16 15  2  0  0  0  0
 17 13  2  0  0  0  0
 17 18  1  0  0  0  0
 18 14  2  0  0  0  0
 19 11  1  0  0  0  0
 22 21  1  6  0  0  0
 22 24  1  0  0  0  0
 23 20  1  0  0  0  0
 24 27  1  0  0  0  0
 25 22  1  0  0  0  0
 25 26  1  0  0  0  0
 26 23  2  0  0  0  0
 27 23  1  0  0  0  0
 27 19  1  1  0  0  0
M  END
>  <MODEL>
9

>  <REMARK>
 VINA RESULT:      -7.5      1.500      2.323
  Name = 
  3 active torsions:
  status: ('A' for Active; 'I' for Inactive)
    1  A    between atoms: O_3  and  C_19
    2  A    between atoms: O_3  and  C_26
    3  A    between atoms: C_9  and  C_15
                            x       y       z     vdW  Elec       q    Type
                         _______ _______ _______ _____ _____    ______ ____

>  <TORSDO>
F 3

$$$$
