=
 OpenBabel10262419403D

 31 34  0  0  1  0  0  0  0  0999 V2000
  187.8080  177.5580  144.2200 C   0  0  0  0  0  0  0  0  0  0  0  0
  186.7000  178.0090  144.9830 C   0  0  0  0  0  0  0  0  0  0  0  0
  185.6920  178.5260  147.0690 C   0  0  0  0  0  3  0  0  0  0  0  0
  189.0460  177.1490  144.7820 C   0  0  0  0  0  0  0  0  0  0  0  0
  191.2470  177.0020  146.0490 C   0  0  2  0  0  3  0  0  0  0  0  0
  186.7520  178.0930  146.3400 N   0  0  0  0  0  2  0  0  0  0  0  0
  188.7310  177.0600  141.9920 C   0  0  0  0  0  0  0  0  0  0  0  0
  185.4330  178.3080  142.9370 C   0  0  0  0  0  3  0  0  0  0  0  0
  184.5400  178.8900  146.4480 N   0  0  0  0  0  0  0  0  0  0  0  0
  189.9420  176.6850  142.5850 C   0  0  0  0  0  3  0  0  0  0  0  0
  187.6680  177.5020  142.8030 C   0  0  0  0  0  0  0  0  0  0  0  0
  189.4840  177.1150  146.5180 S   0  0  0  0  0  0  0  0  0  0  0  0
  183.3420  179.1740  144.5520 O   0  0  0  0  0  0  0  0  0  0  0  0
  190.0850  176.7420  143.9660 C   0  0  0  0  0  0  0  0  0  0  0  0
  191.3440  176.3870  144.6590 C   0  0  0  0  0  2  0  0  0  0  0  0
  186.4970  177.8750  142.2180 N   0  0  0  0  0  0  0  0  0  0  0  0
  185.5090  178.3860  144.3270 C   0  0  0  0  0  0  0  0  0  0  0  0
  184.4250  178.8300  145.0970 C   0  0  0  0  0  0  0  0  0  0  0  0
  188.8590  179.2810  140.0490 O   0  0  0  0  0  0  0  0  0  0  0  0
  188.6220  178.1120  139.6480 C   0  0  0  0  0  0  0  0  0  0  0  0
  188.5540  177.0120  140.5670 N   0  0  0  0  0  2  0  0  0  0  0  0
  188.9560  179.0400  137.3720 C   0  0  0  0  0  1  0  0  0  0  0  0
  188.4130  177.8740  138.1880 C   0  0  2  0  0  3  0  0  0  0  0  0
  186.7900  177.0660  136.4590 C   0  0  0  0  0  1  0  0  0  0  0  0
  186.9440  177.5800  137.8810 C   0  0  2  0  0  3  0  0  0  0  0  0
  186.1380  178.7380  138.0780 O   0  0  0  0  0  0  0  0  0  0  0  0
  185.0050  178.7310  138.8940 C   0  0  0  0  0  0  0  0  0  0  0  0
  184.1550  177.8050  138.8120 O   0  0  0  0  0  0  0  0  0  0  0  0
  184.8180  179.7540  139.8130 O   0  0  0  0  0  1  0  0  0  0  0  0
  192.0080  176.1490  147.0440 C   0  0  0  0  0  2  0  0  0  0  0  0
  192.4390  174.9850  146.4350 F   0  0  0  0  0  0  0  0  0  0  0  0
  1  4  1  0  0  0  0
  1  2  2  0  0  0  0
  2  6  1  0  0  0  0
  4 12  1  0  0  0  0
  5 12  1  0  0  0  0
  5 30  1  1  0  0  0
  6  3  1  0  0  0  0
  7 10  2  0  0  0  0
  7 11  1  0  0  0  0
  8 17  2  0  0  0  0
  9  3  2  0  0  0  0
 10 14  1  0  0  0  0
 11  1  1  0  0  0  0
 13 18  2  0  0  0  0
 14 15  1  0  0  0  0
 14  4  2  0  0  0  0
 15  5  1  0  0  0  0
 16 11  2  0  0  0  0
 16  8  1  0  0  0  0
 17  2  1  0  0  0  0
 17 18  1  0  0  0  0
 18  9  1  0  0  0  0
 20 19  2  0  0  0  0
 20 21  1  0  0  0  0
 21  7  1  0  0  0  0
 23 22  1  6  0  0  0
 23 20  1  0  0  0  0
 25 24  1  6  0  0  0
 25 26  1  0  0  0  0
 25 23  1  0  0  0  0
 26 27  1  0  0  0  0
 27 29  1  0  0  0  0
 28 27  2  0  0  0  0
 31 30  1  0  0  0  0
M  END
>  <MODEL>
1

>  <REMARK>
 VINA RESULT:      -9.7      0.000      0.000
  Name = 
  6 active torsions:
  status: ('A' for Active; 'I' for Inactive)
    1  A    between atoms: C_1  and  O_24
    2  A    between atoms: C_2  and  C_13
    3  A    between atoms: C_9  and  C_22
    4  A    between atoms: C_15  and  N_23
    5  A    between atoms: C_19  and  C_22
    6  A    between atoms: C_19  and  O_24
                            x       y       z     vdW  Elec       q    Type
                         _______ _______ _______ _____ _____    ______ ____

>  <TORSDO>
F 6

$$$$
=
 OpenBabel10262419403D

 31 34  0  0  1  0  0  0  0  0999 V2000
  187.8520  177.6340  144.2420 C   0  0  0  0  0  0  0  0  0  0  0  0
  186.7440  178.0370  145.0320 C   0  0  0  0  0  0  0  0  0  0  0  0
  185.7340  178.4180  147.1460 C   0  0  0  0  0  3  0  0  0  0  0  0
  189.0870  177.1850  144.7770 C   0  0  0  0  0  0  0  0  0  0  0  0
  191.2860  176.9490  146.0340 C   0  0  2  0  0  3  0  0  0  0  0  0
  186.7940  178.0310  146.3910 N   0  0  0  0  0  2  0  0  0  0  0  0
  188.7760  177.2800  141.9870 C   0  0  0  0  0  0  0  0  0  0  0  0
  185.4800  178.4720  143.0080 C   0  0  0  0  0  3  0  0  0  0  0  0
  184.5840  178.8250  146.5490 N   0  0  0  0  0  0  0  0  0  0  0  0
  189.9850  176.8630  142.5560 C   0  0  0  0  0  3  0  0  0  0  0  0
  187.7130  177.6710  142.8240 C   0  0  0  0  0  0  0  0  0  0  0  0
  189.5230  177.0360  146.5080 S   0  0  0  0  0  0  0  0  0  0  0  0
  183.3890  179.2370  144.6740 O   0  0  0  0  0  0  0  0  0  0  0  0
  190.1260  176.8300  143.9380 C   0  0  0  0  0  0  0  0  0  0  0  0
  191.3830  176.4270  144.6070 C   0  0  0  0  0  2  0  0  0  0  0  0
  186.5440  178.0840  142.2640 N   0  0  0  0  0  0  0  0  0  0  0  0
  185.5540  178.4590  144.4010 C   0  0  0  0  0  0  0  0  0  0  0  0
  184.4710  178.8540  145.1970 C   0  0  0  0  0  0  0  0  0  0  0  0
  190.8260  177.6630  139.8950 O   0  0  0  0  0  0  0  0  0  0  0  0
  189.6200  177.5140  139.5690 C   0  0  0  0  0  0  0  0  0  0  0  0
  188.6010  177.3260  140.5620 N   0  0  0  0  0  2  0  0  0  0  0  0
  189.1960  178.9600  137.5990 C   0  0  0  0  0  1  0  0  0  0  0  0
  189.2520  177.5310  138.1210 C   0  0  2  0  0  3  0  0  0  0  0  0
  188.2050  175.5540  136.9920 C   0  0  0  0  0  1  0  0  0  0  0  0
  187.9510  176.7670  137.8730 C   0  0  2  0  0  3  0  0  0  0  0  0
  186.9670  177.6110  137.2810 O   0  0  0  0  0  0  0  0  0  0  0  0
  185.8020  177.9870  137.9520 C   0  0  0  0  0  0  0  0  0  0  0  0
  185.8540  178.7230  138.9730 O   0  0  0  0  0  1  0  0  0  0  0  0
  184.5710  177.5490  137.4840 O   0  0  0  0  0  0  0  0  0  0  0  0
  192.0440  176.0310  146.9720 C   0  0  0  0  0  2  0  0  0  0  0  0
  192.4350  174.8880  146.2990 F   0  0  0  0  0  0  0  0  0  0  0  0
  1  4  1  0  0  0  0
  1  2  2  0  0  0  0
  2  6  1  0  0  0  0
  4 12  1  0  0  0  0
  5 12  1  0  0  0  0
  5 30  1  1  0  0  0
  6  3  1  0  0  0  0
  7 10  2  0  0  0  0
  7 11  1  0  0  0  0
  8 17  2  0  0  0  0
  9  3  2  0  0  0  0
 10 14  1  0  0  0  0
 11  1  1  0  0  0  0
 13 18  2  0  0  0  0
 14 15  1  0  0  0  0
 14  4  2  0  0  0  0
 15  5  1  0  0  0  0
 16 11  2  0  0  0  0
 16  8  1  0  0  0  0
 17  2  1  0  0  0  0
 17 18  1  0  0  0  0
 18  9  1  0  0  0  0
 20 19  2  0  0  0  0
 20 21  1  0  0  0  0
 21  7  1  0  0  0  0
 23 22  1  1  0  0  0
 23 20  1  0  0  0  0
 25 24  1  6  0  0  0
 25 23  1  0  0  0  0
 26 25  1  0  0  0  0
 26 27  1  0  0  0  0
 27 28  1  0  0  0  0
 29 27  2  0  0  0  0
 31 30  1  0  0  0  0
M  END
>  <MODEL>
2

>  <REMARK>
 VINA RESULT:      -9.4      0.849      1.052
  Name = 
  6 active torsions:
  status: ('A' for Active; 'I' for Inactive)
    1  A    between atoms: C_1  and  O_24
    2  A    between atoms: C_2  and  C_13
    3  A    between atoms: C_9  and  C_22
    4  A    between atoms: C_15  and  N_23
    5  A    between atoms: C_19  and  C_22
    6  A    between atoms: C_19  and  O_24
                            x       y       z     vdW  Elec       q    Type
                         _______ _______ _______ _____ _____    ______ ____

>  <TORSDO>
F 6

$$$$
=
 OpenBabel10262419403D

 31 34  0  0  1  0  0  0  0  0999 V2000
  187.9250  177.6650  144.2010 C   0  0  0  0  0  0  0  0  0  0  0  0
  186.7610  178.0350  144.9240 C   0  0  0  0  0  0  0  0  0  0  0  0
  185.6060  178.3490  146.9730 C   0  0  0  0  0  3  0  0  0  0  0  0
  189.1270  177.2170  144.8080 C   0  0  0  0  0  0  0  0  0  0  0  0
  191.2400  176.9750  146.2050 C   0  0  2  0  0  3  0  0  0  0  0  0
  186.7190  177.9950  146.2830 N   0  0  0  0  0  2  0  0  0  0  0  0
  189.0040  177.3800  142.0060 C   0  0  0  0  0  0  0  0  0  0  0  0
  185.6300  178.5070  142.8300 C   0  0  0  0  0  3  0  0  0  0  0  0
  184.4930  178.7580  146.3100 N   0  0  0  0  0  0  0  0  0  0  0  0
  190.1770  176.9630  142.6450 C   0  0  0  0  0  3  0  0  0  0  0  0
  187.8810  177.7370  142.7780 C   0  0  0  0  0  0  0  0  0  0  0  0
  189.4470  177.0290  146.5590 S   0  0  0  0  0  0  0  0  0  0  0  0
  183.4220  179.2040  144.3690 O   0  0  0  0  0  0  0  0  0  0  0  0
  190.2250  176.8960  144.0320 C   0  0  0  0  0  0  0  0  0  0  0  0
  191.4390  176.4900  144.7750 C   0  0  0  0  0  2  0  0  0  0  0  0
  186.7470  178.1510  142.1510 N   0  0  0  0  0  0  0  0  0  0  0  0
  185.6110  178.4580  144.2240 C   0  0  0  0  0  0  0  0  0  0  0  0
  184.4710  178.8200  144.9540 C   0  0  0  0  0  0  0  0  0  0  0  0
  191.2110  177.5720  140.0520 O   0  0  0  0  0  0  0  0  0  0  0  0
  190.0180  177.5530  139.6490 C   0  0  0  0  0  0  0  0  0  0  0  0
  188.9240  177.4600  140.5740 N   0  0  0  0  0  2  0  0  0  0  0  0
  188.5280  178.4950  137.9040 C   0  0  0  0  0  1  0  0  0  0  0  0
  189.7470  177.6250  138.1820 C   0  0  2  0  0  3  0  0  0  0  0  0
  188.1670  175.7710  137.5920 C   0  0  0  0  0  1  0  0  0  0  0  0
  189.6170  176.2270  137.5750 C   0  0  2  0  0  3  0  0  0  0  0  0
  190.4380  175.2900  138.2680 O   0  0  0  0  0  0  0  0  0  0  0  0
  191.6100  174.7700  137.7150 C   0  0  0  0  0  0  0  0  0  0  0  0
  192.7230  175.3200  137.9250 O   0  0  0  0  0  1  0  0  0  0  0  0
  191.5460  173.6280  136.9290 O   0  0  0  0  0  0  0  0  0  0  0  0
  191.9450  176.0410  147.1690 C   0  0  0  0  0  2  0  0  0  0  0  0
  192.4430  174.9470  146.4860 F   0  0  0  0  0  0  0  0  0  0  0  0
  1  4  1  0  0  0  0
  1  2  2  0  0  0  0
  2  6  1  0  0  0  0
  4 12  1  0  0  0  0
  5 12  1  0  0  0  0
  5 30  1  1  0  0  0
  6  3  1  0  0  0  0
  7 10  2  0  0  0  0
  7 11  1  0  0  0  0
  8 17  2  0  0  0  0
  9  3  2  0  0  0  0
 10 14  1  0  0  0  0
 11  1  1  0  0  0  0
 13 18  2  0  0  0  0
 14 15  1  0  0  0  0
 14  4  2  0  0  0  0
 15  5  1  0  0  0  0
 16 11  2  0  0  0  0
 16  8  1  0  0  0  0
 17  2  1  0  0  0  0
 17 18  1  0  0  0  0
 18  9  1  0  0  0  0
 20 19  2  0  0  0  0
 20 21  1  0  0  0  0
 21  7  1  0  0  0  0
 23 22  1  1  0  0  0
 23 20  1  0  0  0  0
 25 24  1  1  0  0  0
 25 23  1  0  0  0  0
 25 26  1  0  0  0  0
 27 28  1  0  0  0  0
 27 26  1  0  0  0  0
 29 27  2  0  0  0  0
 31 30  1  0  0  0  0
M  END
>  <MODEL>
3

>  <REMARK>
 VINA RESULT:      -9.0      2.196      3.065
  Name = 
  6 active torsions:
  status: ('A' for Active; 'I' for Inactive)
    1  A    between atoms: C_1  and  O_24
    2  A    between atoms: C_2  and  C_13
    3  A    between atoms: C_9  and  C_22
    4  A    between atoms: C_15  and  N_23
    5  A    between atoms: C_19  and  C_22
    6  A    between atoms: C_19  and  O_24
                            x       y       z     vdW  Elec       q    Type
                         _______ _______ _______ _____ _____    ______ ____

>  <TORSDO>
F 6

$$$$
=
 OpenBabel10262419403D

 31 34  0  0  1  0  0  0  0  0999 V2000
  187.2160  178.0110  141.3850 C   0  0  0  0  0  0  0  0  0  0  0  0
  187.3560  178.2080  139.9870 C   0  0  0  0  0  0  0  0  0  0  0  0
  186.4610  178.8490  137.8830 C   0  0  0  0  0  3  0  0  0  0  0  0
  186.0160  178.2470  142.1040 C   0  0  0  0  0  0  0  0  0  0  0  0
  183.9220  179.2570  143.1380 C   0  0  2  0  0  3  0  0  0  0  0  0
  186.3270  178.6590  139.2200 N   0  0  0  0  0  0  0  0  0  0  0  0
  188.2690  177.3180  143.5010 C   0  0  0  0  0  0  0  0  0  0  0  0
  189.6630  177.4710  140.1290 C   0  0  0  0  0  3  0  0  0  0  0  0
  187.6470  178.5870  137.2740 N   0  0  0  0  0  2  0  0  0  0  0  0
  187.0720  177.5830  144.1750 C   0  0  0  0  0  3  0  0  0  0  0  0
  188.3470  177.5360  142.1110 C   0  0  0  0  0  0  0  0  0  0  0  0
  184.4600  178.8360  141.4420 S   0  0  0  0  0  0  0  0  0  0  0  0
  189.7990  177.9030  137.3860 O   0  0  0  0  0  0  0  0  0  0  0  0
  185.9690  178.0510  143.4710 C   0  0  0  0  0  0  0  0  0  0  0  0
  184.6800  178.3780  144.1230 C   0  0  0  0  0  2  0  0  0  0  0  0
  189.5170  177.2850  141.4640 N   0  0  0  0  0  0  0  0  0  0  0  0
  188.5930  177.9340  139.3640 C   0  0  0  0  0  0  0  0  0  0  0  0
  188.7130  178.1360  137.9820 C   0  0  0  0  0  0  0  0  0  0  0  0
  190.3640  178.8760  144.8810 O   0  0  0  0  0  0  0  0  0  0  0  0
  190.4290  177.6190  144.8630 C   0  0  0  0  0  0  0  0  0  0  0  0
  189.4260  176.8340  144.2010 N   0  0  0  0  0  2  0  0  0  0  0  0
  191.8740  175.6030  144.8880 C   0  0  0  0  0  1  0  0  0  0  0  0
  191.5710  176.9420  145.5480 C   0  0  2  0  0  3  0  0  0  0  0  0
  192.2660  175.7970  147.6660 C   0  0  0  0  0  1  0  0  0  0  0  0
  191.3120  176.8070  147.0500 C   0  0  2  0  0  3  0  0  0  0  0  0
  189.9610  176.4320  147.3050 O   0  0  0  0  0  0  0  0  0  0  0  0
  189.0240  177.3230  147.8320 C   0  0  0  0  0  0  0  0  0  0  0  0
  187.7930  177.1720  147.6080 O   0  0  0  0  0  0  0  0  0  0  0  0
  189.4540  178.3830  148.6170 O   0  0  0  0  0  1  0  0  0  0  0  0
  182.4300  179.0380  143.2930 C   0  0  0  0  0  2  0  0  0  0  0  0
  182.1430  178.6550  144.5900 F   0  0  0  0  0  0  0  0  0  0  0  0
  1  4  2  0  0  0  0
  1 11  1  0  0  0  0
  2  1  1  0  0  0  0
  3  6  2  0  0  0  0
  4 14  1  0  0  0  0
  5 30  1  6  0  0  0
  5 15  1  0  0  0  0
  6  2  1  0  0  0  0
  7 10  1  0  0  0  0
  7 21  1  0  0  0  0
  8 16  2  0  0  0  0
  9  3  1  0  0  0  0
  9 18  1  0  0  0  0
 11  7  2  0  0  0  0
 12  4  1  0  0  0  0
 12  5  1  0  0  0  0
 13 18  2  0  0  0  0
 14 15  1  0  0  0  0
 14 10  2  0  0  0  0
 16 11  1  0  0  0  0
 17  2  2  0  0  0  0
 17  8  1  0  0  0  0
 18 17  1  0  0  0  0
 20 19  2  0  0  0  0
 20 23  1  0  0  0  0
 21 20  1  0  0  0  0
 23 22  1  6  0  0  0
 23 25  1  0  0  0  0
 25 26  1  0  0  0  0
 25 24  1  6  0  0  0
 26 27  1  0  0  0  0
 27 29  1  0  0  0  0
 28 27  2  0  0  0  0
 30 31  1  0  0  0  0
M  END
>  <MODEL>
4

>  <REMARK>
 VINA RESULT:      -8.8      3.739      7.675
  Name = 
  6 active torsions:
  status: ('A' for Active; 'I' for Inactive)
    1  A    between atoms: C_1  and  O_24
    2  A    between atoms: C_2  and  C_13
    3  A    between atoms: C_9  and  C_22
    4  A    between atoms: C_15  and  N_23
    5  A    between atoms: C_19  and  C_22
    6  A    between atoms: C_19  and  O_24
                            x       y       z     vdW  Elec       q    Type
                         _______ _______ _______ _____ _____    ______ ____

>  <TORSDO>
F 6

$$$$
=
 OpenBabel10262419403D

 31 34  0  0  1  0  0  0  0  0999 V2000
  187.7740  177.7810  144.2440 C   0  0  0  0  0  0  0  0  0  0  0  0
  186.5830  178.0910  144.9490 C   0  0  0  0  0  0  0  0  0  0  0  0
  185.3620  178.2760  146.9760 C   0  0  0  0  0  3  0  0  0  0  0  0
  188.9670  177.3240  144.8630 C   0  0  0  0  0  0  0  0  0  0  0  0
  191.0420  177.0480  146.3090 C   0  0  2  0  0  3  0  0  0  0  0  0
  186.5020  177.9790  146.3030 N   0  0  0  0  0  0  0  0  0  0  0  0
  188.9230  177.6320  142.0710 C   0  0  0  0  0  0  0  0  0  0  0  0
  185.5050  178.6510  142.8500 C   0  0  0  0  0  3  0  0  0  0  0  0
  184.2610  178.6990  146.3020 N   0  0  0  0  0  2  0  0  0  0  0  0
  190.0850  177.2030  142.7230 C   0  0  0  0  0  3  0  0  0  0  0  0
  187.7710  177.9260  142.8260 C   0  0  0  0  0  0  0  0  0  0  0  0
  189.2400  177.0510  146.6110 S   0  0  0  0  0  0  0  0  0  0  0  0
  183.2390  179.2250  144.3550 O   0  0  0  0  0  0  0  0  0  0  0  0
  190.0940  177.0640  144.1050 C   0  0  0  0  0  0  0  0  0  0  0  0
  191.2940  176.6430  144.8630 C   0  0  0  0  0  2  0  0  0  0  0  0
  186.6480  178.3520  142.1870 N   0  0  0  0  0  0  0  0  0  0  0  0
  185.4460  178.5290  144.2380 C   0  0  0  0  0  0  0  0  0  0  0  0
  184.2780  178.8310  144.9510 C   0  0  0  0  0  0  0  0  0  0  0  0
  190.4570  176.1560  140.0230 O   0  0  0  0  0  0  0  0  0  0  0  0
  189.6440  177.0510  139.6720 C   0  0  0  0  0  0  0  0  0  0  0  0
  188.8840  177.7850  140.6430 N   0  0  0  0  0  2  0  0  0  0  0  0
  188.2190  178.1780  137.9840 C   0  0  0  0  0  1  0  0  0  0  0  0
  189.4710  177.3440  138.2170 C   0  0  2  0  0  3  0  0  0  0  0  0
  190.7980  175.9080  136.6500 C   0  0  0  0  0  1  0  0  0  0  0  0
  189.4790  176.0580  137.3900 C   0  0  2  0  0  3  0  0  0  0  0  0
  188.3900  176.0340  136.4700 O   0  0  0  0  0  0  0  0  0  0  0  0
  187.5250  174.9430  136.3630 C   0  0  0  0  0  0  0  0  0  0  0  0
  186.8130  174.5850  137.3380 O   0  0  0  0  0  1  0  0  0  0  0  0
  187.4460  174.2500  135.1630 O   0  0  0  0  0  0  0  0  0  0  0  0
  191.7370  176.0790  147.2440 C   0  0  0  0  0  2  0  0  0  0  0  0
  192.4600  175.1540  146.5130 F   0  0  0  0  0  0  0  0  0  0  0  0
  1  4  1  0  0  0  0
  1  2  1  0  0  0  0
  2  6  1  0  0  0  0
  4 12  1  0  0  0  0
  5 12  1  0  0  0  0
  5 30  1  1  0  0  0
  6  3  2  0  0  0  0
  7 10  2  0  0  0  0
  7 11  1  0  0  0  0
  8 17  1  0  0  0  0
  9  3  1  0  0  0  0
 10 14  1  0  0  0  0
 11  1  2  0  0  0  0
 13 18  2  0  0  0  0
 14 15  1  0  0  0  0
 14  4  2  0  0  0  0
 15  5  1  0  0  0  0
 16 11  1  0  0  0  0
 16  8  2  0  0  0  0
 17  2  2  0  0  0  0
 17 18  1  0  0  0  0
 18  9  1  0  0  0  0
 20 19  2  0  0  0  0
 20 21  1  0  0  0  0
 21  7  1  0  0  0  0
 23 22  1  1  0  0  0
 23 20  1  0  0  0  0
 25 24  1  6  0  0  0
 25 23  1  0  0  0  0
 26 25  1  0  0  0  0
 27 26  1  0  0  0  0
 27 28  1  0  0  0  0
 29 27  2  0  0  0  0
 31 30  1  0  0  0  0
M  END
>  <MODEL>
5

>  <REMARK>
 VINA RESULT:      -8.6      1.839      2.326
  Name = 
  6 active torsions:
  status: ('A' for Active; 'I' for Inactive)
    1  A    between atoms: C_1  and  O_24
    2  A    between atoms: C_2  and  C_13
    3  A    between atoms: C_9  and  C_22
    4  A    between atoms: C_15  and  N_23
    5  A    between atoms: C_19  and  C_22
    6  A    between atoms: C_19  and  O_24
                            x       y       z     vdW  Elec       q    Type
                         _______ _______ _______ _____ _____    ______ ____

>  <TORSDO>
F 6

$$$$
=
 OpenBabel10262419403D

 31 34  0  0  1  0  0  0  0  0999 V2000
  188.2590  177.8240  143.5950 C   0  0  0  0  0  0  0  0  0  0  0  0
  188.8910  177.4960  144.8220 C   0  0  0  0  0  0  0  0  0  0  0  0
  188.8160  177.1820  147.1740 C   0  0  0  0  0  3  0  0  0  0  0  0
  186.8920  178.1870  143.4770 C   0  0  0  0  0  0  0  0  0  0  0  0
  184.3510  178.2700  143.5550 C   0  0  2  0  0  3  0  0  0  0  0  0
  188.2110  177.4960  146.0000 N   0  0  0  0  0  2  0  0  0  0  0  0
  188.4770  178.1170  141.1590 C   0  0  0  0  0  0  0  0  0  0  0  0
  190.9790  177.1510  143.6370 C   0  0  0  0  0  3  0  0  0  0  0  0
  190.1340  176.8550  147.1950 N   0  0  0  0  0  0  0  0  0  0  0  0
  187.1200  178.4500  141.0850 C   0  0  0  0  0  3  0  0  0  0  0  0
  189.0470  177.7980  142.4070 C   0  0  0  0  0  0  0  0  0  0  0  0
  185.6890  178.3030  144.7990 S   0  0  0  0  0  0  0  0  0  0  0  0
  192.0900  176.5280  146.1080 O   0  0  0  0  0  0  0  0  0  0  0  0
  186.3470  178.4720  142.2400 C   0  0  0  0  0  0  0  0  0  0  0  0
  184.9010  178.7870  142.2320 C   0  0  0  0  0  2  0  0  0  0  0  0
  190.3650  177.4660  142.4710 N   0  0  0  0  0  0  0  0  0  0  0  0
  190.2610  177.1570  144.8320 C   0  0  0  0  0  0  0  0  0  0  0  0
  190.8680  176.8360  146.0540 C   0  0  0  0  0  0  0  0  0  0  0  0
  187.8040  177.0920  138.4720 O   0  0  0  0  0  0  0  0  0  0  0  0
  188.9440  177.5790  138.6880 C   0  0  0  0  0  0  0  0  0  0  0  0
  189.3010  178.0850  139.9830 N   0  0  0  0  0  2  0  0  0  0  0  0
  189.2250  177.7780  136.2320 C   0  0  0  0  0  1  0  0  0  0  0  0
  189.9350  177.6300  137.5710 C   0  0  2  0  0  3  0  0  0  0  0  0
  190.0700  175.1280  137.5860 C   0  0  0  0  0  1  0  0  0  0  0  0
  190.8700  176.4210  137.6060 C   0  0  2  0  0  3  0  0  0  0  0  0
  191.7160  176.4610  138.7530 O   0  0  0  0  0  0  0  0  0  0  0  0
  193.0710  176.7850  138.6720 C   0  0  0  0  0  0  0  0  0  0  0  0
  193.6800  176.7460  137.5690 O   0  0  0  0  0  0  0  0  0  0  0  0
  193.7550  177.1610  139.8200 O   0  0  0  0  0  1  0  0  0  0  0  0
  183.1880  179.1340  144.0020 C   0  0  0  0  0  2  0  0  0  0  0  0
  183.0900  179.1150  145.3810 F   0  0  0  0  0  0  0  0  0  0  0  0
  1  2  2  0  0  0  0
  2 17  1  0  0  0  0
  2  6  1  0  0  0  0
  3  9  2  0  0  0  0
  4  1  1  0  0  0  0
  4 12  1  0  0  0  0
  5 30  1  1  0  0  0
  5 12  1  0  0  0  0
  6  3  1  0  0  0  0
  7 11  1  0  0  0  0
  8 17  2  0  0  0  0
 10  7  2  0  0  0  0
 10 14  1  0  0  0  0
 11 16  2  0  0  0  0
 11  1  1  0  0  0  0
 14  4  2  0  0  0  0
 15 14  1  0  0  0  0
 15  5  1  0  0  0  0
 16  8  1  0  0  0  0
 17 18  1  0  0  0  0
 18 13  2  0  0  0  0
 18  9  1  0  0  0  0
 19 20  2  0  0  0  0
 20 21  1  0  0  0  0
 21  7  1  0  0  0  0
 23 22  1  6  0  0  0
 23 25  1  0  0  0  0
 23 20  1  0  0  0  0
 25 24  1  1  0  0  0
 25 26  1  0  0  0  0
 27 26  1  0  0  0  0
 27 29  1  0  0  0  0
 28 27  2  0  0  0  0
 30 31  1  0  0  0  0
M  END
>  <MODEL>
6

>  <REMARK>
 VINA RESULT:      -8.5      3.428      5.593
  Name = 
  6 active torsions:
  status: ('A' for Active; 'I' for Inactive)
    1  A    between atoms: C_1  and  O_24
    2  A    between atoms: C_2  and  C_13
    3  A    between atoms: C_9  and  C_22
    4  A    between atoms: C_15  and  N_23
    5  A    between atoms: C_19  and  C_22
    6  A    between atoms: C_19  and  O_24
                            x       y       z     vdW  Elec       q    Type
                         _______ _______ _______ _____ _____    ______ ____

>  <TORSDO>
F 6

$$$$
=
 OpenBabel10262419403D

 31 34  0  0  1  0  0  0  0  0999 V2000
  186.2330  178.2260  142.1110 C   0  0  0  0  0  0  0  0  0  0  0  0
  186.5740  178.3450  140.7380 C   0  0  0  0  0  0  0  0  0  0  0  0
  185.9790  178.8020  138.4860 C   0  0  0  0  0  3  0  0  0  0  0  0
  184.9280  178.4360  142.6260 C   0  0  0  0  0  0  0  0  0  0  0  0
  182.6550  179.3840  143.2650 C   0  0  2  0  0  3  0  0  0  0  0  0
  185.6520  178.6880  139.7990 N   0  0  0  0  0  0  0  0  0  0  0  0
  186.9860  177.7280  144.4020 C   0  0  0  0  0  0  0  0  0  0  0  0
  188.8650  177.7540  141.2720 C   0  0  0  0  0  3  0  0  0  0  0  0
  187.2540  178.5730  138.0790 N   0  0  0  0  0  2  0  0  0  0  0  0
  185.6880  177.9630  144.8720 C   0  0  0  0  0  3  0  0  0  0  0  0
  187.2630  177.8640  143.0280 C   0  0  0  0  0  0  0  0  0  0  0  0
  183.4630  178.8900  141.7020 S   0  0  0  0  0  0  0  0  0  0  0  0
  189.3950  178.0240  138.5560 O   0  0  0  0  0  0  0  0  0  0  0  0
  184.6830  178.3210  143.9810 C   0  0  0  0  0  0  0  0  0  0  0  0
  183.2970  178.6120  144.4100 C   0  0  0  0  0  2  0  0  0  0  0  0
  188.5280  177.6430  142.5800 N   0  0  0  0  0  0  0  0  0  0  0  0
  187.9020  178.1060  140.3270 C   0  0  0  0  0  0  0  0  0  0  0  0
  188.2210  178.2290  138.9670 C   0  0  0  0  0  0  0  0  0  0  0  0
  187.2320  178.2940  147.2900 O   0  0  0  0  0  0  0  0  0  0  0  0
  188.1360  177.6480  146.7010 C   0  0  0  0  0  0  0  0  0  0  0  0
  188.0450  177.3560  145.2980 N   0  0  0  0  0  2  0  0  0  0  0  0
  189.7340  178.2210  148.5090 C   0  0  0  0  0  1  0  0  0  0  0  0
  189.3190  177.1760  147.4820 C   0  0  2  0  0  3  0  0  0  0  0  0
  191.5380  176.0220  147.3290 C   0  0  0  0  0  1  0  0  0  0  0  0
  190.4700  176.7780  146.5560 C   0  0  2  0  0  3  0  0  0  0  0  0
  191.0350  177.9220  145.9210 O   0  0  0  0  0  0  0  0  0  0  0  0
  191.4390  177.9120  144.5850 C   0  0  0  0  0  0  0  0  0  0  0  0
  191.7040  176.8290  143.9980 O   0  0  0  0  0  1  0  0  0  0  0  0
  191.5440  179.1110  143.8930 O   0  0  0  0  0  0  0  0  0  0  0  0
  181.1690  179.0870  143.2120 C   0  0  0  0  0  2  0  0  0  0  0  0
  180.8200  178.2410  144.2490 F   0  0  0  0  0  0  0  0  0  0  0  0
  1  4  2  0  0  0  0
  1 11  1  0  0  0  0
  2  1  1  0  0  0  0
  3  6  2  0  0  0  0
  4 14  1  0  0  0  0
  5 30  1  6  0  0  0
  5 15  1  0  0  0  0
  6  2  1  0  0  0  0
  7 10  1  0  0  0  0
  7 21  1  0  0  0  0
  8 16  2  0  0  0  0
  9  3  1  0  0  0  0
  9 18  1  0  0  0  0
 11  7  2  0  0  0  0
 12  4  1  0  0  0  0
 12  5  1  0  0  0  0
 13 18  2  0  0  0  0
 14 15  1  0  0  0  0
 14 10  2  0  0  0  0
 16 11  1  0  0  0  0
 17  2  2  0  0  0  0
 17  8  1  0  0  0  0
 18 17  1  0  0  0  0
 20 19  2  0  0  0  0
 20 23  1  0  0  0  0
 21 20  1  0  0  0  0
 23 22  1  1  0  0  0
 25 24  1  1  0  0  0
 25 23  1  0  0  0  0
 26 25  1  0  0  0  0
 27 26  1  0  0  0  0
 28 27  1  0  0  0  0
 29 27  2  0  0  0  0
 30 31  1  0  0  0  0
M  END
>  <MODEL>
7

>  <REMARK>
 VINA RESULT:      -8.5      3.673      7.764
  Name = 
  6 active torsions:
  status: ('A' for Active; 'I' for Inactive)
    1  A    between atoms: C_1  and  O_24
    2  A    between atoms: C_2  and  C_13
    3  A    between atoms: C_9  and  C_22
    4  A    between atoms: C_15  and  N_23
    5  A    between atoms: C_19  and  C_22
    6  A    between atoms: C_19  and  O_24
                            x       y       z     vdW  Elec       q    Type
                         _______ _______ _______ _____ _____    ______ ____

>  <TORSDO>
F 6

$$$$
=
 OpenBabel10262419403D

 31 34  0  0  1  0  0  0  0  0999 V2000
  188.1130  177.8250  144.1690 C   0  0  0  0  0  0  0  0  0  0  0  0
  188.7930  177.5310  145.3790 C   0  0  0  0  0  0  0  0  0  0  0  0
  188.8080  177.2760  147.7390 C   0  0  0  0  0  3  0  0  0  0  0  0
  186.7400  178.1780  144.0940 C   0  0  0  0  0  0  0  0  0  0  0  0
  184.2030  178.2520  144.2650 C   0  0  2  0  0  3  0  0  0  0  0  0
  188.1580  177.5580  146.5820 N   0  0  0  0  0  2  0  0  0  0  0  0
  188.2370  178.0560  141.7200 C   0  0  0  0  0  0  0  0  0  0  0  0
  190.8360  177.1650  144.1240 C   0  0  0  0  0  3  0  0  0  0  0  0
  190.1280  176.9560  147.7190 N   0  0  0  0  0  0  0  0  0  0  0  0
  186.8760  178.3810  141.6890 C   0  0  0  0  0  3  0  0  0  0  0  0
  188.8560  177.7720  142.9530 C   0  0  0  0  0  0  0  0  0  0  0  0
  185.5880  178.3230  145.4560 S   0  0  0  0  0  0  0  0  0  0  0  0
  192.0430  176.6100  146.5670 O   0  0  0  0  0  0  0  0  0  0  0  0
  186.1480  178.4290  142.8710 C   0  0  0  0  0  0  0  0  0  0  0  0
  184.7000  178.7380  142.9100 C   0  0  0  0  0  2  0  0  0  0  0  0
  190.1770  177.4480  142.9750 N   0  0  0  0  0  0  0  0  0  0  0  0
  190.1640  177.1990  145.3460 C   0  0  0  0  0  0  0  0  0  0  0  0
  190.8180  176.9110  146.5510 C   0  0  0  0  0  0  0  0  0  0  0  0
  187.3490  178.4910  138.9360 O   0  0  0  0  0  0  0  0  0  0  0  0
  188.5540  178.2150  139.1730 C   0  0  0  0  0  0  0  0  0  0  0  0
  189.0160  177.9980  140.5150 N   0  0  0  0  0  2  0  0  0  0  0  0
  189.0640  179.0000  136.8760 C   0  0  0  0  0  1  0  0  0  0  0  0
  189.5140  178.1170  138.0320 C   0  0  2  0  0  3  0  0  0  0  0  0
  191.1910  176.3920  137.3280 C   0  0  0  0  0  1  0  0  0  0  0  0
  189.7210  176.6610  137.6080 C   0  0  2  0  0  3  0  0  0  0  0  0
  188.9330  176.3450  136.4630 O   0  0  0  0  0  0  0  0  0  0  0  0
  187.6480  175.8090  136.5650 C   0  0  0  0  0  0  0  0  0  0  0  0
  187.4410  174.7460  137.2080 O   0  0  0  0  0  1  0  0  0  0  0  0
  186.5860  176.4590  135.9540 O   0  0  0  0  0  0  0  0  0  0  0  0
  183.0540  179.1220  144.7340 C   0  0  0  0  0  2  0  0  0  0  0  0
  181.8600  178.6370  144.2320 F   0  0  0  0  0  0  0  0  0  0  0  0
  1  2  2  0  0  0  0
  2  6  1  0  0  0  0
  4  1  1  0  0  0  0
  4 12  1  0  0  0  0
  5 30  1  1  0  0  0
  5 12  1  0  0  0  0
  6  3  1  0  0  0  0
  7 11  1  0  0  0  0
  8 17  2  0  0  0  0
  9  3  2  0  0  0  0
 10  7  2  0  0  0  0
 10 14  1  0  0  0  0
 11 16  2  0  0  0  0
 11  1  1  0  0  0  0
 14 15  1  0  0  0  0
 14  4  2  0  0  0  0
 15  5  1  0  0  0  0
 16  8  1  0  0  0  0
 17  2  1  0  0  0  0
 17 18  1  0  0  0  0
 18 13  2  0  0  0  0
 18  9  1  0  0  0  0
 19 20  2  0  0  0  0
 20 21  1  0  0  0  0
 21  7  1  0  0  0  0
 23 22  1  6  0  0  0
 23 20  1  0  0  0  0
 25 24  1  6  0  0  0
 25 23  1  0  0  0  0
 26 27  1  0  0  0  0
 26 25  1  0  0  0  0
 27 28  1  0  0  0  0
 29 27  2  0  0  0  0
 31 30  1  0  0  0  0
M  END
>  <MODEL>
8

>  <REMARK>
 VINA RESULT:      -8.1      3.224      5.002
  Name = 
  6 active torsions:
  status: ('A' for Active; 'I' for Inactive)
    1  A    between atoms: C_1  and  O_24
    2  A    between atoms: C_2  and  C_13
    3  A    between atoms: C_9  and  C_22
    4  A    between atoms: C_15  and  N_23
    5  A    between atoms: C_19  and  C_22
    6  A    between atoms: C_19  and  O_24
                            x       y       z     vdW  Elec       q    Type
                         _______ _______ _______ _____ _____    ______ ____

>  <TORSDO>
F 6

$$$$
=
 OpenBabel10262419403D

 31 34  0  0  1  0  0  0  0  0999 V2000
  188.7950  177.6250  143.2680 C   0  0  0  0  0  0  0  0  0  0  0  0
  189.6040  177.6190  142.1020 C   0  0  0  0  0  0  0  0  0  0  0  0
  191.7190  177.4000  141.0480 C   0  0  0  0  0  3  0  0  0  0  0  0
  189.2940  177.4270  144.5820 C   0  0  0  0  0  0  0  0  0  0  0  0
  190.4130  176.5290  146.6830 C   0  0  2  0  0  3  0  0  0  0  0  0
  190.9460  177.4070  142.1630 N   0  0  0  0  0  0  0  0  0  0  0  0
  186.5430  177.8750  144.2330 C   0  0  0  0  0  0  0  0  0  0  0  0
  187.6360  178.0540  140.7530 C   0  0  0  0  0  3  0  0  0  0  0  0
  191.1590  177.6080  139.8280 N   0  0  0  0  0  2  0  0  0  0  0  0
  187.0730  177.6550  145.5090 C   0  0  0  0  0  3  0  0  0  0  0  0
  187.3970  177.8540  143.1130 C   0  0  0  0  0  0  0  0  0  0  0  0
  190.9940  177.1270  145.0570 S   0  0  0  0  0  0  0  0  0  0  0  0
  189.3350  178.0130  138.5540 O   0  0  0  0  0  0  0  0  0  0  0  0
  188.4350  177.4270  145.6650 C   0  0  0  0  0  0  0  0  0  0  0  0
  189.0600  177.1610  146.9800 C   0  0  0  0  0  2  0  0  0  0  0  0
  186.8730  178.0580  141.8740 N   0  0  0  0  0  0  0  0  0  0  0  0
  189.0100  177.8340  140.8410 C   0  0  0  0  0  0  0  0  0  0  0  0
  189.8250  177.8240  139.7000 C   0  0  0  0  0  0  0  0  0  0  0  0
  185.1620  180.4460  143.7810 O   0  0  0  0  0  0  0  0  0  0  0  0
  184.4970  179.3780  143.8230 C   0  0  0  0  0  0  0  0  0  0  0  0
  185.1400  178.1130  144.0400 N   0  0  0  0  0  2  0  0  0  0  0  0
  182.3220  178.4230  144.5370 C   0  0  0  0  0  1  0  0  0  0  0  0
  183.0160  179.4370  143.6380 C   0  0  2  0  0  3  0  0  0  0  0  0
  181.2780  178.5980  142.0400 C   0  0  0  0  0  1  0  0  0  0  0  0
  182.6360  179.2680  142.1650 C   0  0  2  0  0  3  0  0  0  0  0  0
  183.6250  178.5180  141.4650 O   0  0  0  0  0  0  0  0  0  0  0  0
  183.8840  178.7070  140.1060 C   0  0  0  0  0  0  0  0  0  0  0  0
  183.4350  177.9040  139.2460 O   0  0  0  0  0  0  0  0  0  0  0  0
  184.6410  179.7970  139.6990 O   0  0  0  0  0  1  0  0  0  0  0  0
  191.4030  176.8960  147.7700 C   0  0  0  0  0  2  0  0  0  0  0  0
  192.1380  175.7820  148.1340 F   0  0  0  0  0  0  0  0  0  0  0  0
  1  4  1  0  0  0  0
  2  6  1  0  0  0  0
  2  1  1  0  0  0  0
  3  6  2  0  0  0  0
  4 12  1  0  0  0  0
  4 14  2  0  0  0  0
  5 15  1  0  0  0  0
  5 30  1  1  0  0  0
  7 10  2  0  0  0  0
  8 17  1  0  0  0  0
  8 16  2  0  0  0  0
  9  3  1  0  0  0  0
 10 14  1  0  0  0  0
 11  1  2  0  0  0  0
 11  7  1  0  0  0  0
 12  5  1  0  0  0  0
 13 18  2  0  0  0  0
 14 15  1  0  0  0  0
 16 11  1  0  0  0  0
 17  2  2  0  0  0  0
 18  9  1  0  0  0  0
 18 17  1  0  0  0  0
 19 20  2  0  0  0  0
 20 21  1  0  0  0  0
 21  7  1  0  0  0  0
 23 20  1  0  0  0  0
 23 22  1  1  0  0  0
 25 24  1  1  0  0  0
 25 23  1  0  0  0  0
 26 25  1  0  0  0  0
 27 26  1  0  0  0  0
 28 27  2  0  0  0  0
 29 27  1  0  0  0  0
 30 31  1  0  0  0  0
M  END
>  <MODEL>
9

>  <REMARK>
 VINA RESULT:      -8.0      1.930      5.122
  Name = 
  6 active torsions:
  status: ('A' for Active; 'I' for Inactive)
    1  A    between atoms: C_1  and  O_24
    2  A    between atoms: C_2  and  C_13
    3  A    between atoms: C_9  and  C_22
    4  A    between atoms: C_15  and  N_23
    5  A    between atoms: C_19  and  C_22
    6  A    between atoms: C_19  and  O_24
                            x       y       z     vdW  Elec       q    Type
                         _______ _______ _______ _____ _____    ______ ____

>  <TORSDO>
F 6

$$$$
