=
 OpenBabel10262420533D

 28 32  0  0  1  0  0  0  0  0999 V2000
  190.3020  176.3240  143.8820 C   0  0  0  0  0  0  0  0  0  0  0  0
  185.5340  177.8810  143.3250 C   0  0  0  0  0  3  0  0  0  0  0  0
  189.0850  177.9390  148.1650 O   0  0  0  0  0  0  0  0  0  0  0  0
  184.9670  178.6920  145.5450 C   0  0  0  0  0  0  0  0  0  0  0  0
  187.1830  177.7820  145.1320 C   0  0  0  0  0  0  0  0  0  0  0  0
  183.3310  178.7930  143.7620 C   0  0  0  0  0  0  0  0  0  0  0  0
  185.9030  178.1120  144.6580 C   0  0  0  0  0  0  0  0  0  0  0  0
  186.5730  178.6000  147.3090 N   0  0  0  0  0  0  0  0  0  0  0  0
  183.6880  179.0290  145.0940 C   0  0  0  0  0  3  0  0  0  0  0  0
  189.7180  177.1420  146.0920 C   0  0  0  0  0  0  0  0  0  0  0  0
  188.1120  177.2220  144.3100 N   0  0  0  0  0  2  0  0  0  0  0  0
  185.3290  178.9270  146.8710 C   0  0  0  0  0  3  0  0  0  0  0  0
  191.8940  176.2720  145.6970 C   0  0  0  0  0  3  0  0  0  0  0  0
  188.7810  177.7150  146.9620 C   0  0  0  0  0  0  0  0  0  0  0  0
  190.9690  176.8230  146.5260 N   0  0  0  0  0  0  0  0  0  0  0  0
  182.0610  179.1290  143.3160 O   0  0  0  0  0  1  0  0  0  0  0  0
  184.2530  178.2210  142.8810 C   0  0  0  0  0  3  0  0  0  0  0  0
  187.5030  178.0400  146.4840 C   0  0  0  0  0  0  0  0  0  0  0  0
  191.5780  176.0160  144.3610 C   0  0  0  0  0  3  0  0  0  0  0  0
  189.3590  176.8980  144.7490 C   0  0  0  0  0  0  0  0  0  0  0  0
  189.9820  176.0650  142.4460 C   0  0  0  0  0  2  0  0  0  0  0  0
  189.8570  177.3240  141.7290 N   0  0  0  0  0  0  0  0  0  0  0  0
  188.8390  177.8550  138.9680 C   0  0  1  0  0  3  0  0  0  0  0  0
  190.7240  177.2420  140.5370 C   0  0  0  0  0  2  0  0  0  0  0  0
  188.4300  177.5010  141.4220 C   0  0  0  0  0  2  0  0  0  0  0  0
  188.2260  178.4460  140.2410 C   0  0  0  0  0  2  0  0  0  0  0  0
  189.3410  178.9760  138.0820 C   0  0  0  0  0  1  0  0  0  0  0  0
  189.9690  176.8630  139.2580 C   0  0  0  0  0  2  0  0  0  0  0  0
  1 19  2  0  0  0  0
  1 20  1  0  0  0  0
  2  7  1  0  0  0  0
  4 12  1  0  0  0  0
  5 18  2  0  0  0  0
  6  9  2  0  0  0  0
  7  5  1  0  0  0  0
  7  4  2  0  0  0  0
  9  4  1  0  0  0  0
 10 15  1  0  0  0  0
 10 14  1  0  0  0  0
 11 20  1  0  0  0  0
 11  5  1  0  0  0  0
 12  8  2  0  0  0  0
 13 15  2  0  0  0  0
 14  3  2  0  0  0  0
 16  6  1  0  0  0  0
 17  2  2  0  0  0  0
 17  6  1  0  0  0  0
 18 14  1  0  0  0  0
 18  8  1  0  0  0  0
 19 13  1  0  0  0  0
 20 10  2  0  0  0  0
 21  1  1  0  0  0  0
 22 21  1  0  0  0  0
 23 27  1  6  0  0  0
 23 28  1  0  0  0  0
 23 26  1  0  0  0  0
 24 22  1  0  0  0  0
 25 22  1  0  0  0  0
 26 25  1  0  0  0  0
 28 24  1  0  0  0  0
M  END
>  <MODEL>
1

>  <REMARK>
 VINA RESULT:     -11.1      0.000      0.000
  Name = 
  2 active torsions:
  status: ('A' for Active; 'I' for Inactive)
    1  A    between atoms: C_1  and  C_2
    2  A    between atoms: C_2  and  N_3
                            x       y       z     vdW  Elec       q    Type
                         _______ _______ _______ _____ _____    ______ ____

>  <TORSDO>
F 2

$$$$
=
 OpenBabel10262420533D

 28 32  0  0  1  0  0  0  0  0999 V2000
  186.8340  178.4090  141.0540 C   0  0  0  0  0  0  0  0  0  0  0  0
  190.2670  177.0990  144.5130 C   0  0  0  0  0  3  0  0  0  0  0  0
  184.4810  178.5610  145.1620 O   0  0  0  0  0  0  0  0  0  0  0  0
  189.0090  177.1970  146.5890 C   0  0  0  0  0  0  0  0  0  0  0  0
  187.9030  177.7340  144.4910 C   0  0  0  0  0  0  0  0  0  0  0  0
  191.3460  176.5680  146.6170 C   0  0  0  0  0  0  0  0  0  0  0  0
  189.0610  177.3450  145.1840 C   0  0  0  0  0  0  0  0  0  0  0  0
  186.7020  177.8140  146.5720 N   0  0  0  0  0  0  0  0  0  0  0  0
  190.1490  176.8100  147.2980 C   0  0  0  0  0  3  0  0  0  0  0  0
  185.5920  178.4990  143.1370 C   0  0  0  0  0  0  0  0  0  0  0  0
  187.9130  177.8870  143.1390 N   0  0  0  0  0  2  0  0  0  0  0  0
  187.8110  177.4390  147.2620 C   0  0  0  0  0  3  0  0  0  0  0  0
  184.4950  179.0070  141.0920 C   0  0  0  0  0  3  0  0  0  0  0  0
  185.5530  178.3510  144.5310 C   0  0  0  0  0  0  0  0  0  0  0  0
  184.4790  178.8650  142.4430 N   0  0  0  0  0  0  0  0  0  0  0  0
  192.4780  176.1840  147.3230 O   0  0  0  0  0  1  0  0  0  0  0  0
  191.4040  176.7120  145.2270 C   0  0  0  0  0  3  0  0  0  0  0  0
  186.7140  177.9650  145.2180 C   0  0  0  0  0  0  0  0  0  0  0  0
  185.6710  178.7790  140.3740 C   0  0  0  0  0  3  0  0  0  0  0  0
  186.8010  178.2600  142.4490 C   0  0  0  0  0  0  0  0  0  0  0  0
  188.0810  178.1480  140.2730 C   0  0  0  0  0  2  0  0  0  0  0  0
  187.8140  178.2880  138.8500 N   0  0  0  0  0  0  0  0  0  0  0  0
  189.1200  176.9390  136.5220 C   0  0  1  0  0  3  0  0  0  0  0  0
  189.0430  178.8100  138.2200 C   0  0  0  0  0  2  0  0  0  0  0  0
  187.4060  176.9630  138.3590 C   0  0  0  0  0  2  0  0  0  0  0  0
  187.6290  176.8320  136.8550 C   0  0  0  0  0  2  0  0  0  0  0  0
  189.2890  177.5780  135.1590 C   0  0  0  0  0  1  0  0  0  0  0  0
  189.9090  177.7220  137.5750 C   0  0  0  0  0  2  0  0  0  0  0  0
  1 20  1  0  0  0  0
  2  7  2  0  0  0  0
  2 17  1  0  0  0  0
  4 12  1  0  0  0  0
  4  9  2  0  0  0  0
  5  7  1  0  0  0  0
  5 18  2  0  0  0  0
  6  9  1  0  0  0  0
  6 16  1  0  0  0  0
  7  4  1  0  0  0  0
  8 12  2  0  0  0  0
 10 14  1  0  0  0  0
 11  5  1  0  0  0  0
 13 15  2  0  0  0  0
 14  3  2  0  0  0  0
 14 18  1  0  0  0  0
 15 10  1  0  0  0  0
 17  6  2  0  0  0  0
 18  8  1  0  0  0  0
 19  1  2  0  0  0  0
 19 13  1  0  0  0  0
 20 10  2  0  0  0  0
 20 11  1  0  0  0  0
 21  1  1  0  0  0  0
 22 21  1  0  0  0  0
 23 27  1  6  0  0  0
 23 26  1  0  0  0  0
 23 28  1  0  0  0  0
 24 22  1  0  0  0  0
 25 22  1  0  0  0  0
 26 25  1  0  0  0  0
 28 24  1  0  0  0  0
M  END
>  <MODEL>
2

>  <REMARK>
 VINA RESULT:     -10.3      2.022      5.316
  Name = 
  2 active torsions:
  status: ('A' for Active; 'I' for Inactive)
    1  A    between atoms: C_1  and  C_2
    2  A    between atoms: C_2  and  N_3
                            x       y       z     vdW  Elec       q    Type
                         _______ _______ _______ _____ _____    ______ ____

>  <TORSDO>
F 2

$$$$
=
 OpenBabel10262420533D

 28 32  0  0  1  0  0  0  0  0999 V2000
  189.7850  177.4980  140.1540 C   0  0  0  0  0  0  0  0  0  0  0  0
  187.1500  177.8920  144.4400 C   0  0  0  0  0  3  0  0  0  0  0  0
  185.5140  179.0110  138.7740 O   0  0  0  0  0  0  0  0  0  0  0  0
  184.9800  178.6710  143.6720 C   0  0  0  0  0  0  0  0  0  0  0  0
  186.7520  178.2750  142.0550 C   0  0  0  0  0  0  0  0  0  0  0  0
  185.3670  178.2940  146.0320 C   0  0  0  0  0  0  0  0  0  0  0  0
  186.3070  178.2760  143.3870 C   0  0  0  0  0  0  0  0  0  0  0  0
  184.5870  179.0420  141.3460 N   0  0  0  0  0  0  0  0  0  0  0  0
  184.5170  178.6780  144.9900 C   0  0  0  0  0  3  0  0  0  0  0  0
  187.6100  178.2730  139.4050 C   0  0  0  0  0  0  0  0  0  0  0  0
  188.0230  177.9010  141.7400 N   0  0  0  0  0  2  0  0  0  0  0  0
  184.1360  179.0510  142.6280 C   0  0  0  0  0  3  0  0  0  0  0  0
  189.3280  177.8710  137.8130 C   0  0  0  0  0  3  0  0  0  0  0  0
  186.2970  178.6650  139.7000 C   0  0  0  0  0  0  0  0  0  0  0  0
  188.0600  178.2540  138.1200 N   0  0  0  0  0  0  0  0  0  0  0  0
  184.9050  178.3020  147.3410 O   0  0  0  0  0  1  0  0  0  0  0  0
  186.6800  177.9020  145.7570 C   0  0  0  0  0  3  0  0  0  0  0  0
  185.8590  178.6670  141.0330 C   0  0  0  0  0  0  0  0  0  0  0  0
  190.2110  177.4850  138.8240 C   0  0  0  0  0  3  0  0  0  0  0  0
  188.4710  177.8900  140.4550 C   0  0  0  0  0  0  0  0  0  0  0  0
  190.7320  177.0620  141.2250 C   0  0  0  0  0  2  0  0  0  0  0  0
  190.1700  177.3530  142.5340 N   0  0  0  0  0  0  0  0  0  0  0  0
  191.4590  177.2480  145.2300 C   0  0  1  0  0  3  0  0  0  0  0  0
  190.2390  176.1110  143.3300 C   0  0  0  0  0  2  0  0  0  0  0  0
  190.9470  178.4690  143.0950 C   0  0  0  0  0  2  0  0  0  0  0  0
  190.8460  178.5090  144.6170 C   0  0  0  0  0  2  0  0  0  0  0  0
  190.7230  176.8970  146.5070 C   0  0  0  0  0  1  0  0  0  0  0  0
  191.4480  176.0550  144.2700 C   0  0  0  0  0  2  0  0  0  0  0  0
  1 20  1  0  0  0  0
  1 21  1  0  0  0  0
  2 17  1  0  0  0  0
  3 14  2  0  0  0  0
  4  9  2  0  0  0  0
  5  7  1  0  0  0  0
  6 16  1  0  0  0  0
  7  4  1  0  0  0  0
  7  2  2  0  0  0  0
  8 12  2  0  0  0  0
  9  6  1  0  0  0  0
 10 14  1  0  0  0  0
 10 20  2  0  0  0  0
 11  5  1  0  0  0  0
 12  4  1  0  0  0  0
 13 15  2  0  0  0  0
 13 19  1  0  0  0  0
 14 18  1  0  0  0  0
 15 10  1  0  0  0  0
 17  6  2  0  0  0  0
 18  8  1  0  0  0  0
 18  5  2  0  0  0  0
 19  1  2  0  0  0  0
 20 11  1  0  0  0  0
 21 22  1  0  0  0  0
 22 25  1  0  0  0  0
 22 24  1  0  0  0  0
 23 27  1  1  0  0  0
 24 28  1  0  0  0  0
 25 26  1  0  0  0  0
 26 23  1  0  0  0  0
 28 23  1  0  0  0  0
M  END
>  <MODEL>
3

>  <REMARK>
 VINA RESULT:      -9.9      2.184      5.358
  Name = 
  2 active torsions:
  status: ('A' for Active; 'I' for Inactive)
    1  A    between atoms: C_1  and  C_2
    2  A    between atoms: C_2  and  N_3
                            x       y       z     vdW  Elec       q    Type
                         _______ _______ _______ _____ _____    ______ ____

>  <TORSDO>
F 2

$$$$
=
 OpenBabel10262420533D

 28 32  0  0  1  0  0  0  0  0999 V2000
  185.3170  178.9040  144.6970 C   0  0  0  0  0  0  0  0  0  0  0  0
  187.9410  178.2180  140.4410 C   0  0  0  0  0  3  0  0  0  0  0  0
  189.2650  176.6910  146.0930 O   0  0  0  0  0  0  0  0  0  0  0  0
  189.9460  177.0870  141.2180 C   0  0  0  0  0  0  0  0  0  0  0  0
  188.2300  177.7170  142.8200 C   0  0  0  0  0  0  0  0  0  0  0  0
  189.6670  177.5790  138.8640 C   0  0  0  0  0  0  0  0  0  0  0  0
  188.6940  177.6800  141.4950 C   0  0  0  0  0  0  0  0  0  0  0  0
  190.2300  176.5930  143.5370 N   0  0  0  0  0  0  0  0  0  0  0  0
  190.4260  177.0390  139.9060 C   0  0  0  0  0  3  0  0  0  0  0  0
  187.3260  177.7710  145.4540 C   0  0  0  0  0  0  0  0  0  0  0  0
  187.0290  178.2800  143.1270 N   0  0  0  0  0  2  0  0  0  0  0  0
  190.6980  176.5480  142.2620 C   0  0  0  0  0  3  0  0  0  0  0  0
  185.6470  178.3640  147.0270 C   0  0  0  0  0  3  0  0  0  0  0  0
  188.5670  177.1870  145.1670 C   0  0  0  0  0  0  0  0  0  0  0  0
  186.8510  177.8080  146.7300 N   0  0  0  0  0  0  0  0  0  0  0  0
  190.1460  177.5310  137.5620 O   0  0  0  0  0  1  0  0  0  0  0  0
  188.4270  178.1670  139.1310 C   0  0  0  0  0  3  0  0  0  0  0  0
  189.0270  177.1560  143.8420 C   0  0  0  0  0  0  0  0  0  0  0  0
  184.8590  178.9190  146.0160 C   0  0  0  0  0  3  0  0  0  0  0  0
  186.5600  178.3210  144.4040 C   0  0  0  0  0  0  0  0  0  0  0  0
  184.4560  179.4820  143.6210 C   0  0  0  0  0  2  0  0  0  0  0  0
  183.5920  178.4520  143.0690 N   0  0  0  0  0  0  0  0  0  0  0  0
  181.1660  178.7190  141.3410 C   0  0  1  0  0  3  0  0  0  0  0  0
  182.2420  178.6610  143.6280 C   0  0  0  0  0  2  0  0  0  0  0  0
  183.6600  178.5750  141.6050 C   0  0  0  0  0  2  0  0  0  0  0  0
  182.4340  177.9630  140.9350 C   0  0  0  0  0  2  0  0  0  0  0  0
  179.9940  177.7600  141.3730 C   0  0  0  0  0  1  0  0  0  0  0  0
  181.3040  179.4300  142.6900 C   0  0  0  0  0  2  0  0  0  0  0  0
  1 19  1  0  0  0  0
  2  7  1  0  0  0  0
  4  7  2  0  0  0  0
  4 12  1  0  0  0  0
  5 11  1  0  0  0  0
  5 18  2  0  0  0  0
  6 17  1  0  0  0  0
  6  9  2  0  0  0  0
  7  5  1  0  0  0  0
  8 18  1  0  0  0  0
  9  4  1  0  0  0  0
 10 15  2  0  0  0  0
 11 20  1  0  0  0  0
 12  8  2  0  0  0  0
 14 10  1  0  0  0  0
 14  3  2  0  0  0  0
 15 13  1  0  0  0  0
 16  6  1  0  0  0  0
 17  2  2  0  0  0  0
 18 14  1  0  0  0  0
 19 13  2  0  0  0  0
 20  1  2  0  0  0  0
 20 10  1  0  0  0  0
 21  1  1  0  0  0  0
 22 21  1  0  0  0  0
 22 24  1  0  0  0  0
 23 27  1  1  0  0  0
 23 28  1  0  0  0  0
 25 22  1  0  0  0  0
 26 23  1  0  0  0  0
 26 25  1  0  0  0  0
 28 24  1  0  0  0  0
M  END
>  <MODEL>
4

>  <REMARK>
 VINA RESULT:      -9.8      2.642      6.336
  Name = 
  2 active torsions:
  status: ('A' for Active; 'I' for Inactive)
    1  A    between atoms: C_1  and  C_2
    2  A    between atoms: C_2  and  N_3
                            x       y       z     vdW  Elec       q    Type
                         _______ _______ _______ _____ _____    ______ ____

>  <TORSDO>
F 2

$$$$
=
 OpenBabel10262420533D

 28 32  0  0  1  0  0  0  0  0999 V2000
  189.3420  177.6730  139.5570 C   0  0  0  0  0  0  0  0  0  0  0  0
  185.9680  178.3270  143.2530 C   0  0  0  0  0  3  0  0  0  0  0  0
  191.7640  176.7850  143.5300 O   0  0  0  0  0  0  0  0  0  0  0  0
  187.2620  177.8570  145.2550 C   0  0  0  0  0  0  0  0  0  0  0  0
  188.3320  177.7120  143.0770 C   0  0  0  0  0  0  0  0  0  0  0  0
  184.9250  178.4650  145.4360 C   0  0  0  0  0  0  0  0  0  0  0  0
  187.1860  177.9660  143.8480 C   0  0  0  0  0  0  0  0  0  0  0  0
  189.5680  177.2600  145.0890 N   0  0  0  0  0  0  0  0  0  0  0  0
  186.1340  178.1070  146.0420 C   0  0  0  0  0  3  0  0  0  0  0  0
  190.6190  177.2110  141.5680 C   0  0  0  0  0  0  0  0  0  0  0  0
  188.2980  177.8060  141.7190 N   0  0  0  0  0  2  0  0  0  0  0  0
  188.4710  177.5010  145.8540 C   0  0  0  0  0  3  0  0  0  0  0  0
  191.6810  177.0840  139.4470 C   0  0  0  0  0  3  0  0  0  0  0  0
  190.6820  177.1040  142.9650 C   0  0  0  0  0  0  0  0  0  0  0  0
  191.7200  176.9790  140.8010 N   0  0  0  0  0  0  0  0  0  0  0  0
  183.8060  178.7130  146.2180 O   0  0  0  0  0  1  0  0  0  0  0  0
  184.8440  178.5750  144.0440 C   0  0  0  0  0  3  0  0  0  0  0  0
  189.5330  177.3560  143.7290 C   0  0  0  0  0  0  0  0  0  0  0  0
  190.4930  177.4350  138.8020 C   0  0  0  0  0  3  0  0  0  0  0  0
  189.3990  177.5670  140.9550 C   0  0  0  0  0  0  0  0  0  0  0  0
  188.0820  178.0690  138.8570 C   0  0  0  0  0  2  0  0  0  0  0  0
  188.0970  177.5740  137.4890 N   0  0  0  0  0  0  0  0  0  0  0  0
  185.8150  176.9740  135.6520 C   0  0  1  0  0  3  0  0  0  0  0  0
  187.4080  176.2690  137.4840 C   0  0  0  0  0  2  0  0  0  0  0  0
  187.4480  178.5980  136.6570 C   0  0  0  0  0  2  0  0  0  0  0  0
  186.9100  178.0040  135.3590 C   0  0  0  0  0  2  0  0  0  0  0  0
  185.8430  175.8910  134.5940 C   0  0  0  0  0  1  0  0  0  0  0  0
  185.9420  176.3540  137.0460 C   0  0  0  0  0  2  0  0  0  0  0  0
  1 20  1  0  0  0  0
  2  7  2  0  0  0  0
  2 17  1  0  0  0  0
  4 12  1  0  0  0  0
  4  9  2  0  0  0  0
  5 18  2  0  0  0  0
  5  7  1  0  0  0  0
  6  9  1  0  0  0  0
  6 16  1  0  0  0  0
  7  4  1  0  0  0  0
  8 12  2  0  0  0  0
 10 14  1  0  0  0  0
 11  5  1  0  0  0  0
 13 15  2  0  0  0  0
 14  3  2  0  0  0  0
 14 18  1  0  0  0  0
 15 10  1  0  0  0  0
 17  6  2  0  0  0  0
 18  8  1  0  0  0  0
 19 13  1  0  0  0  0
 19  1  2  0  0  0  0
 20 10  2  0  0  0  0
 20 11  1  0  0  0  0
 21  1  1  0  0  0  0
 22 21  1  0  0  0  0
 23 27  1  6  0  0  0
 23 28  1  0  0  0  0
 24 22  1  0  0  0  0
 25 22  1  0  0  0  0
 26 23  1  0  0  0  0
 26 25  1  0  0  0  0
 28 24  1  0  0  0  0
M  END
>  <MODEL>
5

>  <REMARK>
 VINA RESULT:      -9.7      2.575      4.198
  Name = 
  2 active torsions:
  status: ('A' for Active; 'I' for Inactive)
    1  A    between atoms: C_1  and  C_2
    2  A    between atoms: C_2  and  N_3
                            x       y       z     vdW  Elec       q    Type
                         _______ _______ _______ _____ _____    ______ ____

>  <TORSDO>
F 2

$$$$
=
 OpenBabel10262420533D

 28 32  0  0  1  0  0  0  0  0999 V2000
  183.7650  178.3630  142.1690 C   0  0  0  0  0  0  0  0  0  0  0  0
  188.5500  176.8650  142.7470 C   0  0  0  0  0  3  0  0  0  0  0  0
  184.6270  178.9350  146.7920 O   0  0  0  0  0  0  0  0  0  0  0  0
  188.9330  177.1820  145.1250 C   0  0  0  0  0  0  0  0  0  0  0  0
  186.7640  177.7350  144.1770 C   0  0  0  0  0  0  0  0  0  0  0  0
  190.7030  176.3210  143.7160 C   0  0  0  0  0  0  0  0  0  0  0  0
  188.0750  177.2620  144.0050 C   0  0  0  0  0  0  0  0  0  0  0  0
  187.1930  178.0280  146.5240 N   0  0  0  0  0  0  0  0  0  0  0  0
  190.2410  176.7130  144.9760 C   0  0  0  0  0  3  0  0  0  0  0  0
  184.1660  178.6700  144.5430 C   0  0  0  0  0  0  0  0  0  0  0  0
  185.9070  177.8270  143.1230 N   0  0  0  0  0  2  0  0  0  0  0  0
  188.4650  177.5740  146.3800 C   0  0  0  0  0  3  0  0  0  0  0  0
  182.0350  179.1960  143.6330 C   0  0  0  0  0  3  0  0  0  0  0  0
  185.0270  178.5890  145.6470 C   0  0  0  0  0  0  0  0  0  0  0  0
  182.8870  179.1170  144.6890 N   0  0  0  0  0  0  0  0  0  0  0  0
  192.0030  175.8550  143.5700 O   0  0  0  0  0  1  0  0  0  0  0  0
  189.8590  176.3960  142.6040 C   0  0  0  0  0  3  0  0  0  0  0  0
  186.3360  178.1180  145.4680 C   0  0  0  0  0  0  0  0  0  0  0  0
  182.4580  178.8190  142.3560 C   0  0  0  0  0  3  0  0  0  0  0  0
  184.6320  178.2790  143.2700 C   0  0  0  0  0  0  0  0  0  0  0  0
  184.2000  177.9420  140.8030 C   0  0  0  0  0  2  0  0  0  0  0  0
  183.0520  177.8860  139.9120 N   0  0  0  0  0  0  0  0  0  0  0  0
  182.8210  176.7140  137.1700 C   0  0  1  0  0  3  0  0  0  0  0  0
  183.4010  178.6460  138.6950 C   0  0  0  0  0  2  0  0  0  0  0  0
  182.7670  176.4640  139.6690 C   0  0  0  0  0  2  0  0  0  0  0  0
  181.9880  176.2630  138.3730 C   0  0  0  0  0  2  0  0  0  0  0  0
  181.9020  177.2550  136.0940 C   0  0  0  0  0  1  0  0  0  0  0  0
  183.8770  177.7600  137.5380 C   0  0  0  0  0  2  0  0  0  0  0  0
  1 19  2  0  0  0  0
  1 20  1  0  0  0  0
  2  7  1  0  0  0  0
  4 12  1  0  0  0  0
  5 18  2  0  0  0  0
  6  9  2  0  0  0  0
  7  5  1  0  0  0  0
  7  4  2  0  0  0  0
  9  4  1  0  0  0  0
 10 15  1  0  0  0  0
 10 14  1  0  0  0  0
 11 20  1  0  0  0  0
 11  5  1  0  0  0  0
 12  8  2  0  0  0  0
 13 15  2  0  0  0  0
 14  3  2  0  0  0  0
 16  6  1  0  0  0  0
 17  2  2  0  0  0  0
 17  6  1  0  0  0  0
 18 14  1  0  0  0  0
 18  8  1  0  0  0  0
 19 13  1  0  0  0  0
 20 10  2  0  0  0  0
 21  1  1  0  0  0  0
 22 21  1  0  0  0  0
 23 27  1  6  0  0  0
 23 28  1  0  0  0  0
 23 26  1  0  0  0  0
 24 22  1  0  0  0  0
 25 22  1  0  0  0  0
 26 25  1  0  0  0  0
 28 24  1  0  0  0  0
M  END
>  <MODEL>
6

>  <REMARK>
 VINA RESULT:      -9.7      3.409      6.316
  Name = 
  2 active torsions:
  status: ('A' for Active; 'I' for Inactive)
    1  A    between atoms: C_1  and  C_2
    2  A    between atoms: C_2  and  N_3
                            x       y       z     vdW  Elec       q    Type
                         _______ _______ _______ _____ _____    ______ ____

>  <TORSDO>
F 2

$$$$
=
 OpenBabel10262420533D

 28 32  0  0  1  0  0  0  0  0999 V2000
  189.9930  177.4930  139.2140 C   0  0  0  0  0  0  0  0  0  0  0  0
  191.1440  176.7300  144.0690 C   0  0  0  0  0  3  0  0  0  0  0  0
  186.0590  178.7010  141.5600 O   0  0  0  0  0  0  0  0  0  0  0  0
  189.0990  177.3670  145.2160 C   0  0  0  0  0  0  0  0  0  0  0  0
  189.2060  177.5100  142.7920 C   0  0  0  0  0  0  0  0  0  0  0  0
  191.0110  176.5970  146.4850 C   0  0  0  0  0  0  0  0  0  0  0  0
  189.8240  177.2010  144.0140 C   0  0  0  0  0  0  0  0  0  0  0  0
  187.2050  178.1250  143.9740 N   0  0  0  0  0  0  0  0  0  0  0  0
  189.6940  177.0640  146.4440 C   0  0  0  0  0  3  0  0  0  0  0  0
  187.9580  178.1210  140.3780 C   0  0  0  0  0  0  0  0  0  0  0  0
  189.8710  177.3640  141.6130 N   0  0  0  0  0  2  0  0  0  0  0  0
  187.7840  177.8320  145.1680 C   0  0  0  0  0  3  0  0  0  0  0  0
  188.0430  178.2470  138.0070 C   0  0  0  0  0  3  0  0  0  0  0  0
  187.2490  178.2840  141.5770 C   0  0  0  0  0  0  0  0  0  0  0  0
  187.3750  178.4040  139.1800 N   0  0  0  0  0  0  0  0  0  0  0  0
  191.6010  176.2970  147.7050 O   0  0  0  0  0  1  0  0  0  0  0  0
  191.7340  176.4300  145.3000 C   0  0  0  0  0  3  0  0  0  0  0  0
  187.8730  177.9770  142.7950 C   0  0  0  0  0  0  0  0  0  0  0  0
  189.3620  177.7870  138.0040 C   0  0  0  0  0  3  0  0  0  0  0  0
  189.2880  177.6540  140.4180 C   0  0  0  0  0  0  0  0  0  0  0  0
  191.3970  176.9810  139.1970 C   0  0  0  0  0  2  0  0  0  0  0  0
  191.6880  176.3740  137.9080 N   0  0  0  0  0  0  0  0  0  0  0  0
  193.4630  174.0600  137.2470 C   0  0  1  0  0  3  0  0  0  0  0  0
  193.1350  176.5320  137.6630 C   0  0  0  0  0  2  0  0  0  0  0  0
  191.2420  174.9740  137.9840 C   0  0  0  0  0  2  0  0  0  0  0  0
  191.9600  174.1030  136.9570 C   0  0  0  0  0  2  0  0  0  0  0  0
  194.2250  173.9220  135.9450 C   0  0  0  0  0  1  0  0  0  0  0  0
  193.9550  175.2860  138.0200 C   0  0  0  0  0  2  0  0  0  0  0  0
  1 20  1  0  0  0  0
  2 17  1  0  0  0  0
  3 14  2  0  0  0  0
  4  9  2  0  0  0  0
  5 18  2  0  0  0  0
  5  7  1  0  0  0  0
  6 16  1  0  0  0  0
  7  2  2  0  0  0  0
  7  4  1  0  0  0  0
  8 12  2  0  0  0  0
  9  6  1  0  0  0  0
 10 20  2  0  0  0  0
 10 14  1  0  0  0  0
 11  5  1  0  0  0  0
 12  4  1  0  0  0  0
 13 15  2  0  0  0  0
 14 18  1  0  0  0  0
 15 10  1  0  0  0  0
 17  6  2  0  0  0  0
 18  8  1  0  0  0  0
 19 13  1  0  0  0  0
 19  1  2  0  0  0  0
 20 11  1  0  0  0  0
 21  1  1  0  0  0  0
 22 25  1  0  0  0  0
 22 21  1  0  0  0  0
 23 27  1  6  0  0  0
 23 28  1  0  0  0  0
 24 22  1  0  0  0  0
 24 28  1  0  0  0  0
 26 23  1  0  0  0  0
 26 25  1  0  0  0  0
M  END
>  <MODEL>
7

>  <REMARK>
 VINA RESULT:      -9.7      2.671      6.006
  Name = 
  2 active torsions:
  status: ('A' for Active; 'I' for Inactive)
    1  A    between atoms: C_1  and  C_2
    2  A    between atoms: C_2  and  N_3
                            x       y       z     vdW  Elec       q    Type
                         _______ _______ _______ _____ _____    ______ ____

>  <TORSDO>
F 2

$$$$
=
 OpenBabel10262420533D

 28 32  0  0  1  0  0  0  0  0999 V2000
  189.5340  177.4780  141.2500 C   0  0  0  0  0  0  0  0  0  0  0  0
  184.8100  178.3890  142.7740 C   0  0  0  0  0  3  0  0  0  0  0  0
  189.8290  177.6110  145.9760 O   0  0  0  0  0  0  0  0  0  0  0  0
  185.0230  178.4430  145.1940 C   0  0  0  0  0  0  0  0  0  0  0  0
  186.9920  178.0330  143.8280 C   0  0  0  0  0  0  0  0  0  0  0  0
  182.8630  178.7970  144.1600 C   0  0  0  0  0  0  0  0  0  0  0  0
  185.6130  178.2870  143.9200 C   0  0  0  0  0  0  0  0  0  0  0  0
  187.1500  178.1000  146.2260 N   0  0  0  0  0  0  0  0  0  0  0  0
  183.6540  178.6970  145.3090 C   0  0  0  0  0  3  0  0  0  0  0  0
  189.7280  177.5390  143.6690 C   0  0  0  0  0  0  0  0  0  0  0  0
  187.5970  177.8760  142.6180 N   0  0  0  0  0  2  0  0  0  0  0  0
  185.8180  178.3450  146.3370 C   0  0  0  0  0  3  0  0  0  0  0  0
  191.6630  177.1560  142.3430 C   0  0  0  0  0  3  0  0  0  0  0  0
  189.1320  177.6940  144.9280 C   0  0  0  0  0  0  0  0  0  0  0  0
  191.0650  177.3030  143.5550 N   0  0  0  0  0  0  0  0  0  0  0  0
  181.5030  179.0480  144.2750 O   0  0  0  0  0  1  0  0  0  0  0  0
  183.4410  178.6430  142.8960 C   0  0  0  0  0  3  0  0  0  0  0  0
  187.7540  177.9440  145.0140 C   0  0  0  0  0  0  0  0  0  0  0  0
  190.9090  177.2440  141.1710 C   0  0  0  0  0  3  0  0  0  0  0  0
  188.9310  177.6340  142.5080 C   0  0  0  0  0  0  0  0  0  0  0  0
  188.7420  177.5910  139.9880 C   0  0  0  0  0  2  0  0  0  0  0  0
  189.6340  177.5960  138.8400 N   0  0  0  0  0  0  0  0  0  0  0  0
  189.0710  176.9170  135.9830 C   0  0  1  0  0  3  0  0  0  0  0  0
  189.7030  176.2140  138.3270 C   0  0  0  0  0  2  0  0  0  0  0  0
  189.0880  178.5660  137.8780 C   0  0  0  0  0  2  0  0  0  0  0  0
  189.5760  178.2810  136.4610 C   0  0  0  0  0  2  0  0  0  0  0  0
  190.0880  176.3040  135.0420 C   0  0  0  0  0  1  0  0  0  0  0  0
  188.7720  175.9560  137.1370 C   0  0  0  0  0  2  0  0  0  0  0  0
  1 20  1  0  0  0  0
  2 17  2  0  0  0  0
  2  7  1  0  0  0  0
  4  9  1  0  0  0  0
  4 12  1  0  0  0  0
  5  7  1  0  0  0  0
  5 18  2  0  0  0  0
  6 16  1  0  0  0  0
  6  9  2  0  0  0  0
  7  4  2  0  0  0  0
  8 12  2  0  0  0  0
 10 14  1  0  0  0  0
 11  5  1  0  0  0  0
 13 15  2  0  0  0  0
 14 18  1  0  0  0  0
 14  3  2  0  0  0  0
 15 10  1  0  0  0  0
 17  6  1  0  0  0  0
 18  8  1  0  0  0  0
 19  1  2  0  0  0  0
 19 13  1  0  0  0  0
 20 11  1  0  0  0  0
 20 10  2  0  0  0  0
 21  1  1  0  0  0  0
 22 21  1  0  0  0  0
 23 27  1  6  0  0  0
 23 26  1  0  0  0  0
 23 28  1  0  0  0  0
 24 22  1  0  0  0  0
 25 22  1  0  0  0  0
 26 25  1  0  0  0  0
 28 24  1  0  0  0  0
M  END
>  <MODEL>
8

>  <REMARK>
 VINA RESULT:      -9.7      1.675      2.446
  Name = 
  2 active torsions:
  status: ('A' for Active; 'I' for Inactive)
    1  A    between atoms: C_1  and  C_2
    2  A    between atoms: C_2  and  N_3
                            x       y       z     vdW  Elec       q    Type
                         _______ _______ _______ _____ _____    ______ ____

>  <TORSDO>
F 2

$$$$
=
 OpenBabel10262420533D

 28 32  0  0  1  0  0  0  0  0999 V2000
  189.4140  176.7500  144.1460 C   0  0  0  0  0  0  0  0  0  0  0  0
  184.8270  177.8750  142.3650 C   0  0  0  0  0  3  0  0  0  0  0  0
  187.1320  178.6040  147.8600 O   0  0  0  0  0  0  0  0  0  0  0  0
  183.7090  178.8150  144.3070 C   0  0  0  0  0  0  0  0  0  0  0  0
  186.0090  178.0530  144.5030 C   0  0  0  0  0  0  0  0  0  0  0  0
  182.5350  178.6430  142.1970 C   0  0  0  0  0  0  0  0  0  0  0  0
  184.8590  178.2410  143.7190 C   0  0  0  0  0  0  0  0  0  0  0  0
  184.8580  178.9930  146.3930 N   0  0  0  0  0  0  0  0  0  0  0  0
  182.5540  179.0130  143.5450 C   0  0  0  0  0  3  0  0  0  0  0  0
  188.2810  177.6950  146.0740 C   0  0  0  0  0  0  0  0  0  0  0  0
  187.1360  177.5030  143.9730 N   0  0  0  0  0  2  0  0  0  0  0  0
  183.7350  179.1840  145.6530 C   0  0  0  0  0  3  0  0  0  0  0  0
  190.5350  176.9710  146.2730 C   0  0  0  0  0  3  0  0  0  0  0  0
  187.1330  178.2600  146.6470 C   0  0  0  0  0  0  0  0  0  0  0  0
  189.4110  177.5120  146.8120 N   0  0  0  0  0  0  0  0  0  0  0  0
  181.3870  178.8400  141.4410 O   0  0  0  0  0  1  0  0  0  0  0  0
  183.6700  178.0760  141.6090 C   0  0  0  0  0  3  0  0  0  0  0  0
  185.9870  178.4430  145.8600 C   0  0  0  0  0  0  0  0  0  0  0  0
  190.5570  176.5830  144.9310 C   0  0  0  0  0  3  0  0  0  0  0  0
  188.2620  177.3160  144.7150 C   0  0  0  0  0  0  0  0  0  0  0  0
  189.4560  176.3510  142.7070 C   0  0  0  0  0  2  0  0  0  0  0  0
  189.3690  177.5310  141.8610 N   0  0  0  0  0  0  0  0  0  0  0  0
  188.8700  177.7390  138.9200 C   0  0  1  0  0  3  0  0  0  0  0  0
  190.4560  177.4430  140.8660 C   0  0  0  0  0  2  0  0  0  0  0  0
  188.0190  177.5400  141.2760 C   0  0  0  0  0  2  0  0  0  0  0  0
  187.9730  178.3630  139.9920 C   0  0  0  0  0  2  0  0  0  0  0  0
  189.4410  178.8310  138.0400 C   0  0  0  0  0  1  0  0  0  0  0  0
  190.0000  176.8910  139.5110 C   0  0  0  0  0  2  0  0  0  0  0  0
  1 20  2  0  0  0  0
  1 19  1  0  0  0  0
  2  7  1  0  0  0  0
  4 12  1  0  0  0  0
  5 18  2  0  0  0  0
  6  9  2  0  0  0  0
  7  4  2  0  0  0  0
  7  5  1  0  0  0  0
  9  4  1  0  0  0  0
 10 14  1  0  0  0  0
 10 15  2  0  0  0  0
 11  5  1  0  0  0  0
 11 20  1  0  0  0  0
 12  8  2  0  0  0  0
 13 15  1  0  0  0  0
 14  3  2  0  0  0  0
 16  6  1  0  0  0  0
 17  6  1  0  0  0  0
 17  2  2  0  0  0  0
 18  8  1  0  0  0  0
 18 14  1  0  0  0  0
 19 13  2  0  0  0  0
 20 10  1  0  0  0  0
 21  1  1  0  0  0  0
 22 21  1  0  0  0  0
 23 27  1  1  0  0  0
 23 28  1  0  0  0  0
 23 26  1  0  0  0  0
 24 22  1  0  0  0  0
 25 22  1  0  0  0  0
 26 25  1  0  0  0  0
 28 24  1  0  0  0  0
M  END
>  <MODEL>
9

>  <REMARK>
 VINA RESULT:      -9.7      1.071      1.391
  Name = 
  2 active torsions:
  status: ('A' for Active; 'I' for Inactive)
    1  A    between atoms: C_1  and  C_2
    2  A    between atoms: C_2  and  N_3
                            x       y       z     vdW  Elec       q    Type
                         _______ _______ _______ _____ _____    ______ ____

>  <TORSDO>
F 2

$$$$
