=
 OpenBabel10262420573D

 28 33  0  0  1  0  0  0  0  0999 V2000
  186.4820  177.9470  142.5600 O   0  0  0  0  0  0  0  0  0  0  0  0
  187.4930  176.0730  144.3320 O   0  0  0  0  0  1  0  0  0  0  0  0
  188.1130  177.3230  144.2490 C   0  0  1  0  0  0  0  0  0  0  0  0
  184.3450  177.9980  140.0960 C   0  0  0  0  0  2  0  0  0  0  0  0
  190.2320  176.5720  142.6890 S   0  0  0  0  0  0  0  0  0  0  0  0
  188.9930  177.7530  140.4600 C   0  0  2  0  0  3  0  0  0  0  0  0
  189.6280  177.0960  144.3330 C   0  0  1  0  0  3  0  0  0  0  0  0
  186.5460  178.1980  140.3350 C   0  0  2  0  0  3  0  0  0  0  0  0
  188.6850  177.0740  141.8480 C   0  0  2  0  0  3  0  0  0  0  0  0
  184.2120  178.5570  141.3450 O   0  0  0  0  0  0  0  0  0  0  0  0
  187.8970  178.7080  139.9070 C   0  0  0  0  0  2  0  0  0  0  0  0
  185.2940  179.0610  140.5670 C   0  0  2  0  0  0  0  0  0  0  0  0
  186.4370  178.9480  141.5930 C   0  0  1  0  0  3  0  0  0  0  0  0
  187.8610  177.9030  142.8650 C   0  0  1  0  0  3  0  0  0  0  0  0
  190.9440  175.7350  137.8160 C   0  0  0  0  0  2  0  0  0  0  0  0
  188.8600  177.1340  137.9380 C   0  0  1  0  0  3  0  0  0  0  0  0
  189.8030  176.3580  137.0510 C   0  0  2  0  0  0  0  0  0  0  0  0
  189.3080  176.7250  139.3510 C   0  0  1  0  0  3  0  0  0  0  0  0
  189.0980  175.3670  136.3460 O   0  0  0  0  0  0  0  0  0  0  0  0
  189.7340  176.3590  135.5760 C   0  0  0  0  0  2  0  0  0  0  0  0
  190.7620  176.2580  139.2340 C   0  0  0  0  0  2  0  0  0  0  0  0
  188.9250  178.6450  137.6520 C   0  0  0  0  0  2  0  0  0  0  0  0
  187.7550  179.1990  136.3650 S   0  0  0  0  0  0  0  0  0  0  0  0
  186.5870  177.8710  136.7640 C   0  0  0  0  0  1  0  0  0  0  0  0
  190.4690  178.2580  144.8840 C   0  0  0  0  0  2  0  0  0  0  0  0
  191.3310  178.9320  143.8260 C   0  0  0  0  0  1  0  0  0  0  0  0
  187.5420  178.1900  145.3880 C   0  0  0  0  0  2  0  0  0  0  0  0
  186.3890  177.5570  146.1540 C   0  0  0  0  0  1  0  0  0  0  0  0
  3  2  1  1  0  0  0
  3  7  1  0  0  0  0
  3 27  1  0  0  0  0
  4 10  1  0  0  0  0
  5  7  1  0  0  0  0
  6 11  1  6  0  0  0
  6  9  1  0  0  0  0
  7 25  1  6  0  0  0
  8 11  1  6  0  0  0
  8 12  1  0  0  0  0
  8 13  1  0  0  0  0
  9  5  1  1  0  0  0
  9 14  1  0  0  0  0
 12  4  1  6  0  0  0
 12 10  1  0  0  0  0
 12 13  1  0  0  0  0
 13  1  1  1  0  0  0
 14  1  1  6  0  0  0
 14  3  1  0  0  0  0
 15 21  1  0  0  0  0
 16 22  1  1  0  0  0
 16 18  1  0  0  0  0
 17 20  1  6  0  0  0
 17 15  1  0  0  0  0
 17 16  1  0  0  0  0
 18 21  1  6  0  0  0
 18  6  1  0  0  0  0
 19 17  1  0  0  0  0
 20 19  1  0  0  0  0
 23 24  1  0  0  0  0
 23 22  1  0  0  0  0
 26 25  1  0  0  0  0
 27 28  1  0  0  0  0
M  END
>  <MODEL>
1

>  <REMARK>
 VINA RESULT:      -6.0      0.000      0.000
  Name = 
  5 active torsions:
  status: ('A' for Active; 'I' for Inactive)
    1  A    between atoms: C_3  and  C_7
    2  A    between atoms: C_6  and  C_11
    3  A    between atoms: C_9  and  C_18
    4  A    between atoms: C_10  and  C_13
    5  A    between atoms: S_14  and  C_18
                            x       y       z     vdW  Elec       q    Type
                         _______ _______ _______ _____ _____    ______ ____

>  <TORSDO>
F 5

$$$$
=
 OpenBabel10262420573D

 28 33  0  0  1  0  0  0  0  0999 V2000
  184.3090  179.1410  141.5990 O   0  0  0  0  0  0  0  0  0  0  0  0
  184.6140  180.2640  139.0850 O   0  0  0  0  0  1  0  0  0  0  0  0
  184.4440  178.8810  139.1880 C   0  0  1  0  0  0  0  0  0  0  0  0
  184.6570  180.0910  144.7010 C   0  0  0  0  0  2  0  0  0  0  0  0
  187.0690  178.1720  138.8770 S   0  0  0  0  0  0  0  0  0  0  0  0
  187.2560  177.7070  141.6430 C   0  0  2  0  0  3  0  0  0  0  0  0
  185.3840  178.2220  138.1700 C   0  0  1  0  0  3  0  0  0  0  0  0
  185.6950  178.7080  143.3050 C   0  0  2  0  0  3  0  0  0  0  0  0
  186.4810  178.5580  140.5680 C   0  0  2  0  0  3  0  0  0  0  0  0
  183.4920  179.8140  144.0250 O   0  0  0  0  0  0  0  0  0  0  0  0
  186.5300  177.4920  143.0000 C   0  0  0  0  0  2  0  0  0  0  0  0
  184.4020  178.7240  144.1370 C   0  0  2  0  0  0  0  0  0  0  0  0
  184.4490  178.2610  142.6700 C   0  0  1  0  0  3  0  0  0  0  0  0
  184.9370  178.4270  140.5540 C   0  0  1  0  0  3  0  0  0  0  0  0
  191.0900  177.9810  141.9550 C   0  0  0  0  0  2  0  0  0  0  0  0
  189.0730  178.2040  143.4360 C   0  0  1  0  0  3  0  0  0  0  0  0
  190.5800  178.1930  143.3580 C   0  0  2  0  0  0  0  0  0  0  0  0
  188.6560  178.2790  141.9580 C   0  0  1  0  0  3  0  0  0  0  0  0
  191.1010  179.3870  143.8850 O   0  0  0  0  0  0  0  0  0  0  0  0
  191.4660  178.1960  144.5410 C   0  0  0  0  0  2  0  0  0  0  0  0
  189.8290  177.7270  141.1420 C   0  0  0  0  0  2  0  0  0  0  0  0
  188.5330  176.9810  144.1980 C   0  0  0  0  0  2  0  0  0  0  0  0
  188.9260  176.9950  145.9810 S   0  0  0  0  0  0  0  0  0  0  0  0
  187.3630  177.8210  146.3840 C   0  0  0  0  0  1  0  0  0  0  0  0
  184.9670  176.8410  137.6410 C   0  0  0  0  0  2  0  0  0  0  0  0
  184.7110  176.8220  136.1400 C   0  0  0  0  0  1  0  0  0  0  0  0
  182.9510  178.5880  138.9480 C   0  0  0  0  0  2  0  0  0  0  0  0
  182.1320  179.7860  138.4870 C   0  0  0  0  0  1  0  0  0  0  0  0
  3  2  1  6  0  0  0
  3 14  1  0  0  0  0
  6 18  1  0  0  0  0
  6 11  1  1  0  0  0
  7 25  1  1  0  0  0
  7  5  1  0  0  0  0
  7  3  1  0  0  0  0
  8 11  1  1  0  0  0
  8 12  1  0  0  0  0
  9  5  1  6  0  0  0
  9  6  1  0  0  0  0
 10 12  1  0  0  0  0
 10  4  1  0  0  0  0
 12  4  1  1  0  0  0
 13  1  1  6  0  0  0
 13  8  1  0  0  0  0
 13 12  1  0  0  0  0
 14  9  1  0  0  0  0
 14  1  1  1  0  0  0
 16 22  1  6  0  0  0
 17 15  1  6  0  0  0
 17 16  1  0  0  0  0
 17 19  1  0  0  0  0
 17 20  1  0  0  0  0
 18 21  1  6  0  0  0
 18 16  1  0  0  0  0
 19 20  1  0  0  0  0
 21 15  1  0  0  0  0
 22 23  1  0  0  0  0
 23 24  1  0  0  0  0
 26 25  1  0  0  0  0
 27  3  1  0  0  0  0
 28 27  1  0  0  0  0
M  END
>  <MODEL>
2

>  <REMARK>
 VINA RESULT:      -5.9      2.797      6.387
  Name = 
  5 active torsions:
  status: ('A' for Active; 'I' for Inactive)
    1  A    between atoms: C_3  and  C_7
    2  A    between atoms: C_6  and  C_11
    3  A    between atoms: C_9  and  C_18
    4  A    between atoms: C_10  and  C_13
    5  A    between atoms: S_14  and  C_18
                            x       y       z     vdW  Elec       q    Type
                         _______ _______ _______ _____ _____    ______ ____

>  <TORSDO>
F 5

$$$$
=
 OpenBabel10262420573D

 28 33  0  0  1  0  0  0  0  0999 V2000
  188.8390  174.5550  136.1250 O   0  0  0  0  0  0  0  0  0  0  0  0
  189.8040  176.9980  135.2460 O   0  0  0  0  0  1  0  0  0  0  0  0
  189.6420  176.7930  136.6190 C   0  0  1  0  0  0  0  0  0  0  0  0
  187.4610  171.9110  134.8010 C   0  0  0  0  0  2  0  0  0  0  0  0
  187.2840  178.1510  136.9090 S   0  0  0  0  0  0  0  0  0  0  0  0
  185.9060  175.7040  137.0340 C   0  0  2  0  0  3  0  0  0  0  0  0
  189.0850  178.0920  137.2180 C   0  0  1  0  0  3  0  0  0  0  0  0
  186.8260  173.5720  136.1340 C   0  0  2  0  0  3  0  0  0  0  0  0
  187.2020  176.3810  136.4460 C   0  0  2  0  0  3  0  0  0  0  0  0
  188.7200  172.0300  135.3400 O   0  0  0  0  0  0  0  0  0  0  0  0
  185.9640  174.1620  137.2190 C   0  0  0  0  0  2  0  0  0  0  0  0
  187.6470  172.2770  136.2440 C   0  0  2  0  0  0  0  0  0  0  0  0
  188.1080  173.6150  136.8480 C   0  0  1  0  0  3  0  0  0  0  0  0
  188.5600  175.7450  136.8340 C   0  0  1  0  0  3  0  0  0  0  0  0
  183.5020  177.4730  134.5940 C   0  0  0  0  0  2  0  0  0  0  0  0
  183.5050  176.7010  136.9840 C   0  0  1  0  0  3  0  0  0  0  0  0
  182.7540  177.4380  135.9030 C   0  0  2  0  0  0  0  0  0  0  0  0
  184.6410  176.0190  136.2050 C   0  0  1  0  0  3  0  0  0  0  0  0
  181.4840  176.8650  135.7180 O   0  0  0  0  0  0  0  0  0  0  0  0
  181.5150  178.2080  136.1380 C   0  0  0  0  0  2  0  0  0  0  0  0
  184.8400  176.8270  134.9190 C   0  0  0  0  0  2  0  0  0  0  0  0
  183.9690  177.6510  138.1030 C   0  0  0  0  0  2  0  0  0  0  0  0
  183.0410  177.4570  139.6630 S   0  0  0  0  0  0  0  0  0  0  0  0
  182.5120  175.7810  139.2140 C   0  0  0  0  0  1  0  0  0  0  0  0
  189.3990  178.3570  138.6980 C   0  0  0  0  0  2  0  0  0  0  0  0
  188.1970  178.1630  139.6130 C   0  0  0  0  0  1  0  0  0  0  0  0
  191.0150  176.3790  137.1820 C   0  0  0  0  0  2  0  0  0  0  0  0
  192.0520  176.0150  136.1280 C   0  0  0  0  0  1  0  0  0  0  0  0
  3  2  1  6  0  0  0
  3 14  1  0  0  0  0
  3 27  1  0  0  0  0
  3  7  1  0  0  0  0
  4 10  1  0  0  0  0
  5  7  1  0  0  0  0
  6 11  1  6  0  0  0
  7 25  1  1  0  0  0
  8 12  1  0  0  0  0
  8 13  1  0  0  0  0
  8 11  1  1  0  0  0
  9 14  1  0  0  0  0
  9  5  1  1  0  0  0
  9  6  1  0  0  0  0
 10 12  1  0  0  0  0
 12  4  1  1  0  0  0
 12 13  1  0  0  0  0
 13  1  1  6  0  0  0
 14  1  1  6  0  0  0
 15 21  1  0  0  0  0
 16 22  1  1  0  0  0
 17 15  1  6  0  0  0
 17 20  1  0  0  0  0
 17 16  1  0  0  0  0
 18 21  1  6  0  0  0
 18 16  1  0  0  0  0
 18  6  1  0  0  0  0
 19 17  1  0  0  0  0
 19 20  1  0  0  0  0
 22 23  1  0  0  0  0
 24 23  1  0  0  0  0
 25 26  1  0  0  0  0
 28 27  1  0  0  0  0
M  END
>  <MODEL>
3

>  <REMARK>
 VINA RESULT:      -5.7      4.082      7.355
  Name = 
  5 active torsions:
  status: ('A' for Active; 'I' for Inactive)
    1  A    between atoms: C_3  and  C_7
    2  A    between atoms: C_6  and  C_11
    3  A    between atoms: C_9  and  C_18
    4  A    between atoms: C_10  and  C_13
    5  A    between atoms: S_14  and  C_18
                            x       y       z     vdW  Elec       q    Type
                         _______ _______ _______ _____ _____    ______ ____

>  <TORSDO>
F 5

$$$$
=
 OpenBabel10262420573D

 28 33  0  0  1  0  0  0  0  0999 V2000
  187.9710  178.3450  142.9950 O   0  0  0  0  0  0  0  0  0  0  0  0
  186.0460  180.2420  142.3850 O   0  0  0  0  0  1  0  0  0  0  0  0
  185.6790  178.8940  142.4040 C   0  0  1  0  0  0  0  0  0  0  0  0
  191.2150  178.2490  143.3180 C   0  0  0  0  0  2  0  0  0  0  0  0
  185.7130  178.4740  139.7000 S   0  0  0  0  0  0  0  0  0  0  0  0
  188.1760  177.1440  139.9520 C   0  0  2  0  0  3  0  0  0  0  0  0
  184.7240  178.6570  141.2260 C   0  0  1  0  0  3  0  0  0  0  0  0
  189.7060  177.4580  141.8910 C   0  0  2  0  0  3  0  0  0  0  0  0
  187.2810  178.2540  140.6210 C   0  0  2  0  0  3  0  0  0  0  0  0
  190.2620  178.1430  144.3030 O   0  0  0  0  0  0  0  0  0  0  0  0
  189.2210  176.4570  140.8760 C   0  0  0  0  0  2  0  0  0  0  0  0
  190.2170  177.1290  143.3030 C   0  0  2  0  0  0  0  0  0  0  0  0
  188.7220  177.1740  142.9420 C   0  0  1  0  0  3  0  0  0  0  0  0
  186.9090  178.0480  142.1110 C   0  0  1  0  0  3  0  0  0  0  0  0
  189.0650  179.2470  136.8440 C   0  0  0  0  0  2  0  0  0  0  0  0
  188.7370  176.8270  137.4320 C   0  0  1  0  0  3  0  0  0  0  0  0
  188.9960  177.8290  136.3340 C   0  0  2  0  0  0  0  0  0  0  0  0
  188.9350  177.6600  138.7080 C   0  0  1  0  0  3  0  0  0  0  0  0
  190.1810  177.5050  135.6520 O   0  0  0  0  0  0  0  0  0  0  0  0
  188.9940  177.4950  134.8960 C   0  0  0  0  0  2  0  0  0  0  0  0
  188.7070  179.1230  138.3180 C   0  0  0  0  0  2  0  0  0  0  0  0
  187.3480  176.1780  137.2930 C   0  0  0  0  0  2  0  0  0  0  0  0
  187.3890  174.4990  136.5790 S   0  0  0  0  0  0  0  0  0  0  0  0
  189.1340  174.2830  137.0240 C   0  0  0  0  0  1  0  0  0  0  0  0
  183.7210  177.5020  141.3750 C   0  0  0  0  0  2  0  0  0  0  0  0
  183.0250  177.1380  140.0710 C   0  0  0  0  0  1  0  0  0  0  0  0
  185.0580  178.6110  143.7850 C   0  0  0  0  0  2  0  0  0  0  0  0
  184.1170  179.6940  144.2950 C   0  0  0  0  0  1  0  0  0  0  0  0
  3  2  1  6  0  0  0
  3 27  1  0  0  0  0
  4 10  1  0  0  0  0
  5  7  1  0  0  0  0
  6  9  1  0  0  0  0
  6 11  1  1  0  0  0
  7 25  1  1  0  0  0
  7  3  1  0  0  0  0
  8 11  1  6  0  0  0
  8 13  1  0  0  0  0
  8 12  1  0  0  0  0
  9  5  1  6  0  0  0
  9 14  1  0  0  0  0
 12  4  1  1  0  0  0
 12 10  1  0  0  0  0
 13  1  1  1  0  0  0
 13 12  1  0  0  0  0
 14  3  1  0  0  0  0
 14  1  1  1  0  0  0
 15 21  1  0  0  0  0
 16 22  1  6  0  0  0
 16 18  1  0  0  0  0
 17 20  1  6  0  0  0
 17 15  1  0  0  0  0
 17 16  1  0  0  0  0
 18 21  1  6  0  0  0
 18  6  1  0  0  0  0
 19 17  1  0  0  0  0
 20 19  1  0  0  0  0
 23 24  1  0  0  0  0
 23 22  1  0  0  0  0
 26 25  1  0  0  0  0
 27 28  1  0  0  0  0
M  END
>  <MODEL>
4

>  <REMARK>
 VINA RESULT:      -5.6      2.129      4.411
  Name = 
  5 active torsions:
  status: ('A' for Active; 'I' for Inactive)
    1  A    between atoms: C_3  and  C_7
    2  A    between atoms: C_6  and  C_11
    3  A    between atoms: C_9  and  C_18
    4  A    between atoms: C_10  and  C_13
    5  A    between atoms: S_14  and  C_18
                            x       y       z     vdW  Elec       q    Type
                         _______ _______ _______ _____ _____    ______ ____

>  <TORSDO>
F 5

$$$$
=
 OpenBabel10262420573D

 28 33  0  0  1  0  0  0  0  0999 V2000
  181.0790  179.0680  137.0830 O   0  0  0  0  0  0  0  0  0  0  0  0
  182.8110  177.0440  136.3240 O   0  0  0  0  0  1  0  0  0  0  0  0
  181.5590  176.6990  136.8400 C   0  0  1  0  0  0  0  0  0  0  0  0
  181.2300  182.2920  137.5600 C   0  0  0  0  0  2  0  0  0  0  0  0
  182.3770  176.0620  139.3720 S   0  0  0  0  0  0  0  0  0  0  0  0
  181.3690  178.5160  140.3010 C   0  0  2  0  0  3  0  0  0  0  0  0
  181.7550  175.4830  137.7540 C   0  0  1  0  0  3  0  0  0  0  0  0
  180.9760  180.4790  138.8200 C   0  0  2  0  0  3  0  0  0  0  0  0
  181.9590  177.8100  139.0220 C   0  0  2  0  0  3  0  0  0  0  0  0
  180.5910  181.6140  136.5490 O   0  0  0  0  0  0  0  0  0  0  0  0
  180.4730  179.7600  140.0440 C   0  0  0  0  0  2  0  0  0  0  0  0
  180.1220  181.3260  137.8620 C   0  0  2  0  0  0  0  0  0  0  0  0
  180.1460  179.7880  137.8250 C   0  0  1  0  0  3  0  0  0  0  0  0
  181.0780  177.8220  137.7480 C   0  0  1  0  0  3  0  0  0  0  0  0
  184.3990  178.3210  142.6770 C   0  0  0  0  0  2  0  0  0  0  0  0
  181.9970  179.0510  142.7670 C   0  0  1  0  0  3  0  0  0  0  0  0
  183.2720  178.8250  143.5420 C   0  0  2  0  0  0  0  0  0  0  0  0
  182.4630  178.9390  141.3070 C   0  0  1  0  0  3  0  0  0  0  0  0
  183.6580  180.0090  144.1960 O   0  0  0  0  0  0  0  0  0  0  0  0
  183.3650  178.9020  145.0150 C   0  0  0  0  0  2  0  0  0  0  0  0
  183.7500  178.1090  141.3180 C   0  0  0  0  0  2  0  0  0  0  0  0
  180.8990  178.0520  143.1740 C   0  0  0  0  0  2  0  0  0  0  0  0
  179.6170  178.7700  144.2570 S   0  0  0  0  0  0  0  0  0  0  0  0
  179.4770  180.2490  143.2170 C   0  0  0  0  0  1  0  0  0  0  0  0
  180.5440  174.5530  137.9300 C   0  0  0  0  0  2  0  0  0  0  0  0
  179.9290  174.6210  139.3220 C   0  0  0  0  0  1  0  0  0  0  0  0
  180.6290  176.4430  135.6390 C   0  0  0  0  0  2  0  0  0  0  0  0
  181.1850  175.4850  134.5950 C   0  0  0  0  0  1  0  0  0  0  0  0
  3  2  1  6  0  0  0
  3 14  1  0  0  0  0
  3  7  1  0  0  0  0
  6 11  1  6  0  0  0
  6 18  1  0  0  0  0
  7 25  1  1  0  0  0
  7  5  1  0  0  0  0
  8 11  1  1  0  0  0
  9  5  1  1  0  0  0
  9  6  1  0  0  0  0
 10  4  1  0  0  0  0
 10 12  1  0  0  0  0
 12  4  1  1  0  0  0
 12  8  1  0  0  0  0
 13  1  1  6  0  0  0
 13 12  1  0  0  0  0
 13  8  1  0  0  0  0
 14  1  1  6  0  0  0
 14  9  1  0  0  0  0
 16 22  1  1  0  0  0
 16 17  1  0  0  0  0
 17 15  1  6  0  0  0
 17 19  1  0  0  0  0
 17 20  1  0  0  0  0
 18 21  1  1  0  0  0
 18 16  1  0  0  0  0
 19 20  1  0  0  0  0
 21 15  1  0  0  0  0
 22 23  1  0  0  0  0
 24 23  1  0  0  0  0
 25 26  1  0  0  0  0
 27  3  1  0  0  0  0
 28 27  1  0  0  0  0
M  END
>  <MODEL>
5

>  <REMARK>
 VINA RESULT:      -5.6      5.614      9.338
  Name = 
  5 active torsions:
  status: ('A' for Active; 'I' for Inactive)
    1  A    between atoms: C_3  and  C_7
    2  A    between atoms: C_6  and  C_11
    3  A    between atoms: C_9  and  C_18
    4  A    between atoms: C_10  and  C_13
    5  A    between atoms: S_14  and  C_18
                            x       y       z     vdW  Elec       q    Type
                         _______ _______ _______ _____ _____    ______ ____

>  <TORSDO>
F 5

$$$$
=
 OpenBabel10262420573D

 28 33  0  0  1  0  0  0  0  0999 V2000
  186.0220  173.8370  136.5570 O   0  0  0  0  0  0  0  0  0  0  0  0
  187.6010  175.6460  135.1770 O   0  0  0  0  0  1  0  0  0  0  0  0
  187.6510  175.6400  136.5740 C   0  0  1  0  0  0  0  0  0  0  0  0
  183.5610  171.8060  135.8790 C   0  0  0  0  0  2  0  0  0  0  0  0
  186.0370  177.8080  137.0010 S   0  0  0  0  0  0  0  0  0  0  0  0
  183.9320  176.0850  137.7080 C   0  0  2  0  0  3  0  0  0  0  0  0
  187.7220  177.0990  137.0420 C   0  0  1  0  0  3  0  0  0  0  0  0
  183.8350  173.6940  137.0200 C   0  0  2  0  0  3  0  0  0  0  0  0
  185.2400  176.1680  136.8340 C   0  0  2  0  0  3  0  0  0  0  0  0
  184.8590  171.4870  136.1980 O   0  0  0  0  0  0  0  0  0  0  0  0
  183.4710  174.6580  138.1180 C   0  0  0  0  0  2  0  0  0  0  0  0
  184.1450  172.1990  137.2040 C   0  0  2  0  0  0  0  0  0  0  0  0
  185.1620  173.3110  137.5180 C   0  0  1  0  0  3  0  0  0  0  0  0
  186.3310  175.1010  137.1070 C   0  0  1  0  0  3  0  0  0  0  0  0
  181.8810  178.3400  135.3450 C   0  0  0  0  0  2  0  0  0  0  0  0
  182.1510  177.9770  137.8160 C   0  0  1  0  0  3  0  0  0  0  0  0
  181.5060  178.8030  136.7300 C   0  0  2  0  0  0  0  0  0  0  0  0
  182.7250  176.7820  137.0390 C   0  0  1  0  0  3  0  0  0  0  0  0
  180.1080  178.7930  136.8800 O   0  0  0  0  0  0  0  0  0  0  0  0
  180.7460  180.0440  136.9810 C   0  0  0  0  0  2  0  0  0  0  0  0
  182.9090  177.2450  135.5910 C   0  0  0  0  0  2  0  0  0  0  0  0
  183.1890  178.7910  138.6090 C   0  0  0  0  0  2  0  0  0  0  0  0
  183.0730  178.5700  140.4170 S   0  0  0  0  0  0  0  0  0  0  0  0
  184.8240  178.9800  140.6440 C   0  0  0  0  0  1  0  0  0  0  0  0
  188.3940  177.3540  138.4000 C   0  0  0  0  0  2  0  0  0  0  0  0
  189.1670  178.6650  138.4520 C   0  0  0  0  0  1  0  0  0  0  0  0
  188.8680  174.7870  136.9810 C   0  0  0  0  0  2  0  0  0  0  0  0
  190.0750  174.9210  136.0640 C   0  0  0  0  0  1  0  0  0  0  0  0
  3  2  1  6  0  0  0
  3 27  1  0  0  0  0
  3  7  1  0  0  0  0
  3 14  1  0  0  0  0
  4 10  1  0  0  0  0
  5  7  1  0  0  0  0
  6 11  1  6  0  0  0
  7 25  1  1  0  0  0
  8 12  1  0  0  0  0
  8 13  1  0  0  0  0
  8 11  1  1  0  0  0
  9  5  1  1  0  0  0
  9 14  1  0  0  0  0
  9  6  1  0  0  0  0
 10 12  1  0  0  0  0
 12  4  1  1  0  0  0
 12 13  1  0  0  0  0
 13  1  1  6  0  0  0
 14  1  1  6  0  0  0
 15 21  1  0  0  0  0
 16 22  1  6  0  0  0
 17 15  1  6  0  0  0
 17 19  1  0  0  0  0
 17 20  1  0  0  0  0
 17 16  1  0  0  0  0
 18 21  1  6  0  0  0
 18  6  1  0  0  0  0
 18 16  1  0  0  0  0
 19 20  1  0  0  0  0
 22 23  1  0  0  0  0
 23 24  1  0  0  0  0
 25 26  1  0  0  0  0
 28 27  1  0  0  0  0
M  END
>  <MODEL>
6

>  <REMARK>
 VINA RESULT:      -5.5      4.188      7.686
  Name = 
  5 active torsions:
  status: ('A' for Active; 'I' for Inactive)
    1  A    between atoms: C_3  and  C_7
    2  A    between atoms: C_6  and  C_11
    3  A    between atoms: C_9  and  C_18
    4  A    between atoms: C_10  and  C_13
    5  A    between atoms: S_14  and  C_18
                            x       y       z     vdW  Elec       q    Type
                         _______ _______ _______ _____ _____    ______ ____

>  <TORSDO>
F 5

$$$$
=
 OpenBabel10262420573D

 28 33  0  0  1  0  0  0  0  0999 V2000
  184.7600  175.2200  136.4220 O   0  0  0  0  0  0  0  0  0  0  0  0
  186.1130  177.4530  135.4950 O   0  0  0  0  0  1  0  0  0  0  0  0
  186.4820  176.9060  136.7270 C   0  0  1  0  0  0  0  0  0  0  0  0
  182.0600  173.5650  135.6410 C   0  0  0  0  0  2  0  0  0  0  0  0
  185.1830  178.7080  138.3250 S   0  0  0  0  0  0  0  0  0  0  0  0
  183.1710  176.8070  138.8100 C   0  0  2  0  0  3  0  0  0  0  0  0
  186.7710  178.0720  137.6820 C   0  0  1  0  0  3  0  0  0  0  0  0
  182.7340  174.8680  137.3100 C   0  0  2  0  0  3  0  0  0  0  0  0
  184.2450  177.2470  137.7450 C   0  0  2  0  0  3  0  0  0  0  0  0
  183.3680  173.1720  135.4890 O   0  0  0  0  0  0  0  0  0  0  0  0
  182.7090  175.3240  138.7460 C   0  0  0  0  0  2  0  0  0  0  0  0
  182.9630  173.4250  136.8310 C   0  0  2  0  0  0  0  0  0  0  0  0
  184.1070  174.3470  137.2880 C   0  0  1  0  0  3  0  0  0  0  0  0
  185.2840  176.1790  137.3190 C   0  0  1  0  0  3  0  0  0  0  0  0
  180.8400  179.8090  138.1600 C   0  0  0  0  0  2  0  0  0  0  0  0
  181.5440  178.3740  140.0980 C   0  0  1  0  0  3  0  0  0  0  0  0
  180.7530  179.5780  139.6480 C   0  0  2  0  0  0  0  0  0  0  0  0
  181.9000  177.6850  138.7720 C   0  0  1  0  0  3  0  0  0  0  0  0
  179.4090  179.4490  140.0380 O   0  0  0  0  0  0  0  0  0  0  0  0
  180.1190  180.5400  140.5720 C   0  0  0  0  0  2  0  0  0  0  0  0
  181.8370  178.7620  137.6850 C   0  0  0  0  0  2  0  0  0  0  0  0
  182.7520  178.7780  140.9620 C   0  0  0  0  0  2  0  0  0  0  0  0
  182.4210  178.7340  142.7560 S   0  0  0  0  0  0  0  0  0  0  0  0
  184.1910  178.6680  143.1460 C   0  0  0  0  0  1  0  0  0  0  0  0
  187.7570  177.7930  138.8280 C   0  0  0  0  0  2  0  0  0  0  0  0
  189.0470  178.5950  138.7210 C   0  0  0  0  0  1  0  0  0  0  0  0
  187.6910  175.9860  136.4710 C   0  0  0  0  0  2  0  0  0  0  0  0
  188.6840  176.5090  135.4420 C   0  0  0  0  0  1  0  0  0  0  0  0
  3  2  1  6  0  0  0
  3 14  1  0  0  0  0
  3  7  1  0  0  0  0
  6 11  1  6  0  0  0
  7  5  1  0  0  0  0
  7 25  1  1  0  0  0
  8 11  1  1  0  0  0
  9  5  1  1  0  0  0
  9  6  1  0  0  0  0
 10  4  1  0  0  0  0
 10 12  1  0  0  0  0
 12  4  1  1  0  0  0
 12 13  1  0  0  0  0
 12  8  1  0  0  0  0
 13  1  1  6  0  0  0
 13  8  1  0  0  0  0
 14  1  1  6  0  0  0
 14  9  1  0  0  0  0
 16 22  1  6  0  0  0
 17 15  1  6  0  0  0
 17 19  1  0  0  0  0
 17 16  1  0  0  0  0
 17 20  1  0  0  0  0
 18 21  1  6  0  0  0
 18  6  1  0  0  0  0
 18 16  1  0  0  0  0
 19 20  1  0  0  0  0
 21 15  1  0  0  0  0
 22 23  1  0  0  0  0
 23 24  1  0  0  0  0
 26 25  1  0  0  0  0
 27  3  1  0  0  0  0
 28 27  1  0  0  0  0
M  END
>  <MODEL>
7

>  <REMARK>
 VINA RESULT:      -5.5      4.049      8.048
  Name = 
  5 active torsions:
  status: ('A' for Active; 'I' for Inactive)
    1  A    between atoms: C_3  and  C_7
    2  A    between atoms: C_6  and  C_11
    3  A    between atoms: C_9  and  C_18
    4  A    between atoms: C_10  and  C_13
    5  A    between atoms: S_14  and  C_18
                            x       y       z     vdW  Elec       q    Type
                         _______ _______ _______ _____ _____    ______ ____

>  <TORSDO>
F 5

$$$$
=
 OpenBabel10262420573D

 28 33  0  0  1  0  0  0  0  0999 V2000
  187.7710  177.3950  137.8430 O   0  0  0  0  0  0  0  0  0  0  0  0
  188.6810  179.3770  139.5510 O   0  0  0  0  0  1  0  0  0  0  0  0
  188.2470  178.1660  140.0970 C   0  0  1  0  0  0  0  0  0  0  0  0
  186.9520  177.1400  134.6960 C   0  0  0  0  0  2  0  0  0  0  0  0
  185.7690  179.0030  140.9040 S   0  0  0  0  0  0  0  0  0  0  0  0
  184.6220  177.6830  138.7040 C   0  0  2  0  0  3  0  0  0  0  0  0
  187.4600  178.4900  141.3740 C   0  0  1  0  0  3  0  0  0  0  0  0
  185.9000  177.0840  136.6530 C   0  0  2  0  0  3  0  0  0  0  0  0
  185.9470  178.3820  139.1910 C   0  0  2  0  0  3  0  0  0  0  0  0
  188.0500  176.6110  135.3310 O   0  0  0  0  0  0  0  0  0  0  0  0
  184.7760  176.6480  137.5550 C   0  0  0  0  0  2  0  0  0  0  0  0
  186.7910  176.1530  135.8140 C   0  0  2  0  0  0  0  0  0  0  0  0
  186.9890  176.3660  137.3250 C   0  0  1  0  0  3  0  0  0  0  0  0
  187.2420  177.5330  139.1460 C   0  0  1  0  0  3  0  0  0  0  0  0
  182.2990  180.7610  138.7190 C   0  0  0  0  0  2  0  0  0  0  0  0
  182.0920  178.2640  138.5410 C   0  0  1  0  0  3  0  0  0  0  0  0
  181.3630  179.5810  138.6420 C   0  0  2  0  0  0  0  0  0  0  0  0
  183.5410  178.6970  138.2660 C   0  0  1  0  0  3  0  0  0  0  0  0
  180.4840  179.7330  137.5550 O   0  0  0  0  0  0  0  0  0  0  0  0
  179.9040  179.7020  138.8370 C   0  0  0  0  0  2  0  0  0  0  0  0
  183.6800  180.1280  138.7920 C   0  0  0  0  0  2  0  0  0  0  0  0
  181.9030  177.4110  139.8090 C   0  0  0  0  0  2  0  0  0  0  0  0
  181.3860  175.6940  139.4690 S   0  0  0  0  0  0  0  0  0  0  0  0
  180.9680  176.0920  137.7500 C   0  0  0  0  0  1  0  0  0  0  0  0
  187.4240  177.3980  142.4550 C   0  0  0  0  0  2  0  0  0  0  0  0
  186.8290  177.8750  143.7730 C   0  0  0  0  0  1  0  0  0  0  0  0
  189.4980  177.2990  140.3310 C   0  0  0  0  0  2  0  0  0  0  0  0
  190.6140  177.5030  139.3160 C   0  0  0  0  0  1  0  0  0  0  0  0
  3  2  1  6  0  0  0
  3 27  1  0  0  0  0
  3  7  1  0  0  0  0
  4 10  1  0  0  0  0
  5  7  1  0  0  0  0
  6 11  1  6  0  0  0
  6  9  1  0  0  0  0
  7 25  1  1  0  0  0
  8 13  1  0  0  0  0
  8 11  1  1  0  0  0
  9  5  1  1  0  0  0
 10 12  1  0  0  0  0
 12  4  1  6  0  0  0
 12  8  1  0  0  0  0
 12 13  1  0  0  0  0
 13  1  1  6  0  0  0
 14  1  1  6  0  0  0
 14  9  1  0  0  0  0
 14  3  1  0  0  0  0
 15 21  1  0  0  0  0
 16 17  1  0  0  0  0
 16 22  1  1  0  0  0
 17 15  1  1  0  0  0
 17 20  1  0  0  0  0
 18 16  1  0  0  0  0
 18  6  1  0  0  0  0
 18 21  1  1  0  0  0
 19 17  1  0  0  0  0
 19 20  1  0  0  0  0
 23 22  1  0  0  0  0
 24 23  1  0  0  0  0
 25 26  1  0  0  0  0
 28 27  1  0  0  0  0
M  END
>  <MODEL>
8

>  <REMARK>
 VINA RESULT:      -5.5      3.117      6.531
  Name = 
  5 active torsions:
  status: ('A' for Active; 'I' for Inactive)
    1  A    between atoms: C_3  and  C_7
    2  A    between atoms: C_6  and  C_11
    3  A    between atoms: C_9  and  C_18
    4  A    between atoms: C_10  and  C_13
    5  A    between atoms: S_14  and  C_18
                            x       y       z     vdW  Elec       q    Type
                         _______ _______ _______ _____ _____    ______ ____

>  <TORSDO>
F 5

$$$$
=
 OpenBabel10262420573D

 28 33  0  0  1  0  0  0  0  0999 V2000
  186.6010  175.1510  137.3160 O   0  0  0  0  0  0  0  0  0  0  0  0
  185.2970  172.9340  138.3420 O   0  0  0  0  0  1  0  0  0  0  0  0
  185.0120  173.3350  137.0350 C   0  0  1  0  0  0  0  0  0  0  0  0
  188.4670  177.5700  138.4580 C   0  0  0  0  0  2  0  0  0  0  0  0
  182.6490  174.6130  137.5580 S   0  0  0  0  0  0  0  0  0  0  0  0
  183.9580  177.0910  137.3500 C   0  0  2  0  0  3  0  0  0  0  0  0
  183.5010  173.1740  136.8200 C   0  0  1  0  0  3  0  0  0  0  0  0
  186.4180  177.3630  137.6230 C   0  0  2  0  0  3  0  0  0  0  0  0
  184.1970  175.5780  137.7160 C   0  0  2  0  0  3  0  0  0  0  0  0
  188.8420  176.5150  137.6610 O   0  0  0  0  0  0  0  0  0  0  0  0
  185.2110  177.8910  136.8940 C   0  0  0  0  0  2  0  0  0  0  0  0
  187.8630  177.3830  137.0970 C   0  0  2  0  0  0  0  0  0  0  0  0
  186.8200  176.3490  136.6390 C   0  0  1  0  0  3  0  0  0  0  0  0
  185.2870  174.8270  136.9100 C   0  0  1  0  0  3  0  0  0  0  0  0
  181.9500  177.8780  140.5460 C   0  0  0  0  0  2  0  0  0  0  0  0
  181.9820  178.5860  138.1360 C   0  0  1  0  0  3  0  0  0  0  0  0
  181.2820  178.6950  139.4690 C   0  0  2  0  0  0  0  0  0  0  0  0
  183.3000  177.8860  138.5000 C   0  0  1  0  0  3  0  0  0  0  0  0
  181.2000  180.0410  139.8660 O   0  0  0  0  0  0  0  0  0  0  0  0
  179.9810  179.3660  139.6640 C   0  0  0  0  0  2  0  0  0  0  0  0
  183.0500  177.1300  139.8080 C   0  0  0  0  0  2  0  0  0  0  0  0
  181.1200  177.8440  137.1000 C   0  0  0  0  0  2  0  0  0  0  0  0
  181.0710  178.6570  135.4660 S   0  0  0  0  0  0  0  0  0  0  0  0
  180.8220  180.2900  136.2150 C   0  0  0  0  0  1  0  0  0  0  0  0
  183.0340  172.9380  135.3750 C   0  0  0  0  0  2  0  0  0  0  0  0
  182.0680  174.0030  134.8730 C   0  0  0  0  0  1  0  0  0  0  0  0
  185.8780  172.4740  136.0960 C   0  0  0  0  0  2  0  0  0  0  0  0
  187.2900  172.2060  136.5980 C   0  0  0  0  0  1  0  0  0  0  0  0
  3  2  1  1  0  0  0
  6 11  1  1  0  0  0
  6  9  1  0  0  0  0
  6 18  1  0  0  0  0
  7 25  1  6  0  0  0
  7  3  1  0  0  0  0
  7  5  1  0  0  0  0
  8 11  1  6  0  0  0
  9  5  1  6  0  0  0
 10  4  1  0  0  0  0
 12  8  1  0  0  0  0
 12 10  1  0  0  0  0
 12  4  1  6  0  0  0
 13 12  1  0  0  0  0
 13  1  1  1  0  0  0
 13  8  1  0  0  0  0
 14  3  1  0  0  0  0
 14  1  1  1  0  0  0
 14  9  1  0  0  0  0
 16 22  1  6  0  0  0
 16 18  1  0  0  0  0
 16 17  1  0  0  0  0
 17 20  1  6  0  0  0
 17 19  1  0  0  0  0
 17 15  1  0  0  0  0
 18 21  1  1  0  0  0
 20 19  1  0  0  0  0
 21 15  1  0  0  0  0
 23 24  1  0  0  0  0
 23 22  1  0  0  0  0
 26 25  1  0  0  0  0
 27 28  1  0  0  0  0
 27  3  1  0  0  0  0
M  END
>  <MODEL>
9

>  <REMARK>
 VINA RESULT:      -5.3      4.603      8.281
  Name = 
  5 active torsions:
  status: ('A' for Active; 'I' for Inactive)
    1  A    between atoms: C_3  and  C_7
    2  A    between atoms: C_6  and  C_11
    3  A    between atoms: C_9  and  C_18
    4  A    between atoms: C_10  and  C_13
    5  A    between atoms: S_14  and  C_18
                            x       y       z     vdW  Elec       q    Type
                         _______ _______ _______ _____ _____    ______ ____

>  <TORSDO>
F 5

$$$$
