=
 OpenBabel10262422343D

 43 49  0  0  1  0  0  0  0  0999 V2000
  191.0820  176.6900  146.9880 C   0  0  0  0  0  0  0  0  0  0  0  0
  189.2370  177.9650  142.4550 C   0  0  0  0  0  0  0  0  0  0  0  0
  186.4970  178.0770  142.7680 C   0  0  0  0  0  0  0  0  0  0  0  0
  190.8480  177.2840  144.6500 C   0  0  0  0  0  0  0  0  0  0  0  0
  189.6960  176.7350  147.1430 C   0  0  0  0  0  3  0  0  0  0  0  0
  191.8720  176.3870  148.0470 F   0  0  0  0  0  0  0  0  0  0  0  0
  189.4400  177.3290  144.8010 C   0  0  0  0  0  0  0  0  0  0  0  0
  191.6590  176.9630  145.7440 C   0  0  0  0  0  3  0  0  0  0  0  0
  188.8760  177.0520  146.0550 C   0  0  0  0  0  3  0  0  0  0  0  0
  187.2830  177.7270  143.8190 N   0  0  0  0  0  0  0  0  0  0  0  0
  188.6350  177.6620  143.6970 C   0  0  0  0  0  0  0  0  0  0  0  0
  190.6310  177.9090  142.3220 C   0  0  0  0  0  3  0  0  0  0  0  0
  188.4050  178.3270  141.3830 C   0  0  0  0  0  0  0  0  0  0  0  0
  187.0590  178.3830  141.5700 N   0  0  0  0  0  0  0  0  0  0  0  0
  191.4310  177.5690  143.4140 C   0  0  0  0  0  3  0  0  0  0  0  0
  188.9640  178.7300  140.0530 C   0  0  0  0  0  2  0  0  0  0  0  0
  189.0480  175.7770  137.6800 C   0  0  0  0  0  3  0  0  0  0  0  0
  187.8420  175.9450  136.9860 C   0  0  0  0  0  0  0  0  0  0  0  0
  187.3520  177.9100  138.3150 C   0  0  0  0  0  3  0  0  0  0  0  0
  189.4080  176.6800  138.6830 C   0  0  0  0  0  3  0  0  0  0  0  0
  188.5610  177.7470  139.0040 C   0  0  0  0  0  0  0  0  0  0  0  0
  186.9920  177.0110  137.3070 C   0  0  0  0  0  3  0  0  0  0  0  0
  186.2380  174.3660  136.2730 O   0  0  0  0  0  1  0  0  0  0  0  0
  187.4500  174.9700  135.9310 C   0  0  0  0  0  2  0  0  0  0  0  0
  185.0240  178.2160  142.9600 C   0  0  0  0  0  2  0  0  0  0  0  0
  184.4090  179.1180  141.8930 C   0  0  0  0  0  2  0  0  0  0  0  0
  183.9820  178.3370  140.7400 N   0  0  0  0  0  2  0  0  0  0  0  0
  183.9490  178.8680  139.4120 C   0  0  0  0  0  0  0  0  0  0  0  0
  184.4860  180.0180  139.1480 N   0  0  0  0  0  2  0  0  0  0  0  0
  183.3810  178.0230  138.3100 C   0  0  1  0  0  3  0  0  0  0  0  0
  183.4490  176.6570  138.6410 O   0  0  0  0  0  0  0  0  0  0  0  0
  181.3610  177.4910  136.7720 C   0  0  0  0  0  2  0  0  0  0  0  0
  181.4770  179.8300  137.9900 C   0  0  2  0  0  3  0  0  0  0  0  0
  183.2220  175.9370  137.4500 C   0  0  0  0  0  2  0  0  0  0  0  0
  181.9510  178.3890  137.8550 C   0  0  2  0  0  0  0  0  0  0  0  0
  180.9610  178.7490  138.9420 C   0  0  0  0  0  2  0  0  0  0  0  0
  181.7460  176.0340  137.0440 C   0  0  0  0  0  2  0  0  0  0  0  0
  180.4930  180.1360  137.0460 O   0  0  0  0  0  0  0  0  0  0  0  0
  180.8330  181.4120  136.5960 C   0  0  0  0  0  2  0  0  0  0  0  0
  181.1140  182.3170  137.7790 C   0  0  0  0  0  2  0  0  0  0  0  0
  180.9760  184.1560  136.1330 C   0  0  0  0  0  2  0  0  0  0  0  0
  180.5370  183.6910  137.5050 C   0  0  0  0  0  3  0  0  0  0  0  0
  181.6690  184.6880  137.3680 C   0  0  0  0  0  2  0  0  0  0  0  0
  1  5  1  0  0  0  0
  1  6  1  0  0  0  0
  2 11  1  0  0  0  0
  3 25  1  0  0  0  0
  3 10  2  0  0  0  0
  4  7  1  0  0  0  0
  4  8  1  0  0  0  0
  7  9  1  0  0  0  0
  8  1  2  0  0  0  0
  9  5  2  0  0  0  0
 11 10  1  0  0  0  0
 11  7  2  0  0  0  0
 12  2  2  0  0  0  0
 12 15  1  0  0  0  0
 13 14  2  0  0  0  0
 13  2  1  0  0  0  0
 14  3  1  0  0  0  0
 15  4  2  0  0  0  0
 16 13  1  0  0  0  0
 17 20  1  0  0  0  0
 18 22  1  0  0  0  0
 18 17  2  0  0  0  0
 19 21  1  0  0  0  0
 20 21  2  0  0  0  0
 21 16  1  0  0  0  0
 22 19  2  0  0  0  0
 24 23  1  0  0  0  0
 24 18  1  0  0  0  0
 26 25  1  0  0  0  0
 27 26  1  0  0  0  0
 28 27  1  0  0  0  0
 29 28  2  0  0  0  0
 30 31  1  0  0  0  0
 30 28  1  1  0  0  0
 32 37  1  0  0  0  0
 33 38  1  6  0  0  0
 33 36  1  0  0  0  0
 34 31  1  0  0  0  0
 35 32  1  6  0  0  0
 35 33  1  0  0  0  0
 35 30  1  0  0  0  0
 35 36  1  0  0  0  0
 37 34  1  0  0  0  0
 39 38  1  0  0  0  0
 39 40  1  0  0  0  0
 41 43  1  0  0  0  0
 41 42  1  0  0  0  0
 42 40  1  0  0  0  0
 43 42  1  0  0  0  0
M  END
>  <MODEL>
1

>  <REMARK>
 VINA RESULT:      -9.0      0.000      0.000
  Name = 
  11 active torsions:
  status: ('A' for Active; 'I' for Inactive)
    1  A    between atoms: C_1  and  C_34
    2  A    between atoms: C_1  and  C_35
    3  A    between atoms: C_2  and  N_6
    4  A    between atoms: C_2  and  C_7
    5  A    between atoms: C_3  and  C_12
    6  A    between atoms: C_7  and  C_13
    7  A    between atoms: O_11  and  C_14
    8  A    between atoms: O_11  and  C_36
    9  A    between atoms: C_19  and  C_37
   10  A    between atoms: C_29  and  C_31
   11  A    between atoms: C_29  and  C_36
                            x       y       z     vdW  Elec       q    Type
                         _______ _______ _______ _____ _____    ______ ____

>  <TORSDO>
F 11

$$$$
=
 OpenBabel10262422343D

 43 49  0  0  1  0  0  0  0  0999 V2000
  184.6870  178.6120  145.5460 C   0  0  0  0  0  0  0  0  0  0  0  0
  182.7110  178.9140  140.9000 C   0  0  0  0  0  0  0  0  0  0  0  0
  184.8390  178.6340  139.1640 C   0  0  0  0  0  0  0  0  0  0  0  0
  183.1740  178.8460  143.6680 C   0  0  0  0  0  0  0  0  0  0  0  0
  185.7640  178.4820  144.6680 C   0  0  0  0  0  3  0  0  0  0  0  0
  184.8940  178.5560  146.8840 F   0  0  0  0  0  0  0  0  0  0  0  0
  184.2640  178.7170  142.7710 C   0  0  0  0  0  0  0  0  0  0  0  0
  183.3930  178.7940  145.0490 C   0  0  0  0  0  3  0  0  0  0  0  0
  185.5560  178.5350  143.2860 C   0  0  0  0  0  3  0  0  0  0  0  0
  185.0560  178.6240  140.5050 N   0  0  0  0  0  0  0  0  0  0  0  0
  184.0300  178.7610  141.3860 C   0  0  0  0  0  0  0  0  0  0  0  0
  181.6460  179.0470  141.8020 C   0  0  0  0  0  3  0  0  0  0  0  0
  182.5110  178.9200  139.5100 C   0  0  0  0  0  0  0  0  0  0  0  0
  183.5780  178.7690  138.6790 N   0  0  0  0  0  0  0  0  0  0  0  0
  181.8780  179.0150  143.1780 C   0  0  0  0  0  3  0  0  0  0  0  0
  181.1410  179.0080  138.9130 C   0  0  0  0  0  2  0  0  0  0  0  0
  180.9780  182.6370  137.8310 C   0  0  0  0  0  3  0  0  0  0  0  0
  180.7480  182.5050  136.4550 C   0  0  0  0  0  0  0  0  0  0  0  0
  180.8060  180.0940  136.6760 C   0  0  0  0  0  3  0  0  0  0  0  0
  181.1140  181.4970  138.6280 C   0  0  0  0  0  3  0  0  0  0  0  0
  181.0290  180.2250  138.0540 C   0  0  0  0  0  0  0  0  0  0  0  0
  180.6650  181.2320  135.8770 C   0  0  0  0  0  3  0  0  0  0  0  0
  181.4150  184.7460  136.1280 O   0  0  0  0  0  1  0  0  0  0  0  0
  180.6230  183.7210  135.6040 C   0  0  0  0  0  2  0  0  0  0  0  0
  185.9780  178.4020  138.2290 C   0  0  0  0  0  2  0  0  0  0  0  0
  185.7100  177.2080  137.3160 C   0  0  0  0  0  2  0  0  0  0  0  0
  186.8020  176.2470  137.3890 N   0  0  0  0  0  2  0  0  0  0  0  0
  187.8190  176.1500  136.3880 C   0  0  0  0  0  0  0  0  0  0  0  0
  187.9200  177.0510  135.4610 N   0  0  0  0  0  2  0  0  0  0  0  0
  188.8340  175.0490  136.4910 C   0  0  1  0  0  3  0  0  0  0  0  0
  189.2230  174.6070  135.2140 O   0  0  0  0  0  0  0  0  0  0  0  0
  191.1320  174.2630  137.4020 C   0  0  0  0  0  2  0  0  0  0  0  0
  189.9560  176.3580  138.4960 C   0  0  2  0  0  3  0  0  0  0  0  0
  189.8960  173.3800  135.3940 C   0  0  0  0  0  2  0  0  0  0  0  0
  190.0810  175.3680  137.3470 C   0  0  2  0  0  0  0  0  0  0  0  0
  190.6710  176.7530  137.2020 C   0  0  0  0  0  2  0  0  0  0  0  0
  191.2750  173.6180  136.0200 C   0  0  0  0  0  2  0  0  0  0  0  0
  190.8980  176.1020  139.4970 O   0  0  0  0  0  0  0  0  0  0  0  0
  190.6610  177.0890  140.4540 C   0  0  0  0  0  2  0  0  0  0  0  0
  190.2660  176.4450  141.7680 C   0  0  0  0  0  2  0  0  0  0  0  0
  189.2990  177.6720  143.6850 C   0  0  0  0  0  2  0  0  0  0  0  0
  189.0210  177.1240  142.3010 C   0  0  0  0  0  3  0  0  0  0  0  0
  188.5320  176.3770  143.5250 C   0  0  0  0  0  2  0  0  0  0  0  0
  1  6  1  0  0  0  0
  2 11  2  0  0  0  0
  2 12  1  0  0  0  0
  3 10  2  0  0  0  0
  4  8  2  0  0  0  0
  5  1  2  0  0  0  0
  7  9  2  0  0  0  0
  7  4  1  0  0  0  0
  8  1  1  0  0  0  0
  9  5  1  0  0  0  0
 10 11  1  0  0  0  0
 11  7  1  0  0  0  0
 12 15  2  0  0  0  0
 13  2  1  0  0  0  0
 14  3  1  0  0  0  0
 14 13  2  0  0  0  0
 15  4  1  0  0  0  0
 16 13  1  0  0  0  0
 17 20  1  0  0  0  0
 18 17  2  0  0  0  0
 19 21  1  0  0  0  0
 21 20  2  0  0  0  0
 21 16  1  0  0  0  0
 22 18  1  0  0  0  0
 22 19  2  0  0  0  0
 24 23  1  0  0  0  0
 24 18  1  0  0  0  0
 25  3  1  0  0  0  0
 26 27  1  0  0  0  0
 26 25  1  0  0  0  0
 28 27  1  0  0  0  0
 29 28  2  0  0  0  0
 30 28  1  6  0  0  0
 30 35  1  0  0  0  0
 31 34  1  0  0  0  0
 31 30  1  0  0  0  0
 33 38  1  1  0  0  0
 34 37  1  0  0  0  0
 35 36  1  6  0  0  0
 35 32  1  0  0  0  0
 35 33  1  0  0  0  0
 36 33  1  0  0  0  0
 37 32  1  0  0  0  0
 38 39  1  0  0  0  0
 39 40  1  0  0  0  0
 40 42  1  0  0  0  0
 42 43  1  0  0  0  0
 42 41  1  0  0  0  0
 43 41  1  0  0  0  0
M  END
>  <MODEL>
2

>  <REMARK>
 VINA RESULT:      -8.8      2.575      8.422
  Name = 
  11 active torsions:
  status: ('A' for Active; 'I' for Inactive)
    1  A    between atoms: C_1  and  C_34
    2  A    between atoms: C_1  and  C_35
    3  A    between atoms: C_2  and  N_6
    4  A    between atoms: C_2  and  C_7
    5  A    between atoms: C_3  and  C_12
    6  A    between atoms: C_7  and  C_13
    7  A    between atoms: O_11  and  C_14
    8  A    between atoms: O_11  and  C_36
    9  A    between atoms: C_19  and  C_37
   10  A    between atoms: C_29  and  C_31
   11  A    between atoms: C_29  and  C_36
                            x       y       z     vdW  Elec       q    Type
                         _______ _______ _______ _____ _____    ______ ____

>  <TORSDO>
F 11

$$$$
=
 OpenBabel10262422343D

 43 49  0  0  1  0  0  0  0  0999 V2000
  191.5170  176.4080  146.7230 C   0  0  0  0  0  0  0  0  0  0  0  0
  187.0510  177.9560  144.9250 C   0  0  0  0  0  0  0  0  0  0  0  0
  187.3700  178.1420  142.1890 C   0  0  0  0  0  0  0  0  0  0  0  0
  189.2190  177.1440  146.5130 C   0  0  0  0  0  0  0  0  0  0  0  0
  191.6820  176.5130  145.3410 C   0  0  0  0  0  3  0  0  0  0  0  0
  192.5490  175.9930  147.4980 F   0  0  0  0  0  0  0  0  0  0  0  0
  189.3800  177.2560  145.1100 C   0  0  0  0  0  0  0  0  0  0  0  0
  190.2880  176.7230  147.3100 C   0  0  0  0  0  3  0  0  0  0  0  0
  190.6190  176.9360  144.5360 C   0  0  0  0  0  3  0  0  0  0  0  0
  188.4200  177.7710  142.9680 N   0  0  0  0  0  0  0  0  0  0  0  0
  188.2950  177.6710  144.3180 C   0  0  0  0  0  0  0  0  0  0  0  0
  186.9110  177.8460  146.3150 C   0  0  0  0  0  3  0  0  0  0  0  0
  185.9800  178.3350  144.1000 C   0  0  0  0  0  0  0  0  0  0  0  0
  186.1640  178.4080  142.7540 N   0  0  0  0  0  0  0  0  0  0  0  0
  187.9900  177.4450  147.1040 C   0  0  0  0  0  3  0  0  0  0  0  0
  184.6110  178.5870  144.6530 C   0  0  0  0  0  2  0  0  0  0  0  0
  181.3540  179.0880  142.7810 C   0  0  0  0  0  3  0  0  0  0  0  0
  181.7120  178.6820  141.4880 C   0  0  0  0  0  0  0  0  0  0  0  0
  183.9690  178.2450  142.2510 C   0  0  0  0  0  3  0  0  0  0  0  0
  182.3010  179.0630  143.8080 C   0  0  0  0  0  3  0  0  0  0  0  0
  183.6090  178.6440  143.5460 C   0  0  0  0  0  0  0  0  0  0  0  0
  183.0230  178.2640  141.2240 C   0  0  0  0  0  3  0  0  0  0  0  0
  180.2060  177.4440  140.1570 O   0  0  0  0  0  1  0  0  0  0  0  0
  180.7070  178.7270  140.3910 C   0  0  0  0  0  2  0  0  0  0  0  0
  187.5220  178.1630  140.7060 C   0  0  0  0  0  2  0  0  0  0  0  0
  188.9420  178.5500  140.3000 C   0  0  0  0  0  2  0  0  0  0  0  0
  189.3820  177.7670  139.1530 N   0  0  0  0  0  2  0  0  0  0  0  0
  189.2400  178.2210  137.8040 C   0  0  0  0  0  0  0  0  0  0  0  0
  188.8850  179.4420  137.5520 N   0  0  0  0  0  2  0  0  0  0  0  0
  189.6140  177.2930  136.6850 C   0  0  1  0  0  3  0  0  0  0  0  0
  190.7580  176.5450  137.0180 O   0  0  0  0  0  0  0  0  0  0  0  0
  188.8950  175.3760  135.0910 C   0  0  0  0  0  2  0  0  0  0  0  0
  187.0410  176.8050  136.3130 C   0  0  2  0  0  3  0  0  0  0  0  0
  191.2310  175.9680  135.8210 C   0  0  0  0  0  2  0  0  0  0  0  0
  188.4900  176.3540  136.1910 C   0  0  2  0  0  0  0  0  0  0  0  0
  187.6050  175.7340  137.2500 C   0  0  0  0  0  2  0  0  0  0  0  0
  190.2990  174.8350  135.3740 C   0  0  0  0  0  2  0  0  0  0  0  0
  186.2350  176.2060  135.3410 O   0  0  0  0  0  0  0  0  0  0  0  0
  185.2510  177.1580  135.0750 C   0  0  0  0  0  2  0  0  0  0  0  0
  183.9000  176.6400  135.5280 C   0  0  0  0  0  2  0  0  0  0  0  0
  183.6250  176.5230  137.9820 C   0  0  0  0  0  2  0  0  0  0  0  0
  183.4610  177.4030  136.7610 C   0  0  0  0  0  3  0  0  0  0  0  0
  182.2550  176.7160  137.3680 C   0  0  0  0  0  2  0  0  0  0  0  0
  1  8  1  0  0  0  0
  1  6  1  0  0  0  0
  2 12  1  0  0  0  0
  3 14  1  0  0  0  0
  3 10  2  0  0  0  0
  4 15  1  0  0  0  0
  4  8  2  0  0  0  0
  5  1  2  0  0  0  0
  7  4  1  0  0  0  0
  9  7  2  0  0  0  0
  9  5  1  0  0  0  0
 10 11  1  0  0  0  0
 11  2  2  0  0  0  0
 11  7  1  0  0  0  0
 12 15  2  0  0  0  0
 13 16  1  0  0  0  0
 13  2  1  0  0  0  0
 14 13  2  0  0  0  0
 17 20  1  0  0  0  0
 18 17  2  0  0  0  0
 19 21  1  0  0  0  0
 21 20  2  0  0  0  0
 21 16  1  0  0  0  0
 22 18  1  0  0  0  0
 22 19  2  0  0  0  0
 23 24  1  0  0  0  0
 24 18  1  0  0  0  0
 25  3  1  0  0  0  0
 26 25  1  0  0  0  0
 27 26  1  0  0  0  0
 28 27  1  0  0  0  0
 29 28  2  0  0  0  0
 30 31  1  0  0  0  0
 30 28  1  1  0  0  0
 32 37  1  0  0  0  0
 33 38  1  6  0  0  0
 33 36  1  0  0  0  0
 34 31  1  0  0  0  0
 35 32  1  6  0  0  0
 35 33  1  0  0  0  0
 35 30  1  0  0  0  0
 35 36  1  0  0  0  0
 37 34  1  0  0  0  0
 39 38  1  0  0  0  0
 39 40  1  0  0  0  0
 40 42  1  0  0  0  0
 42 43  1  0  0  0  0
 42 41  1  0  0  0  0
 43 41  1  0  0  0  0
M  END
>  <MODEL>
3

>  <REMARK>
 VINA RESULT:      -8.8      2.607      5.970
  Name = 
  11 active torsions:
  status: ('A' for Active; 'I' for Inactive)
    1  A    between atoms: C_1  and  C_34
    2  A    between atoms: C_1  and  C_35
    3  A    between atoms: C_2  and  N_6
    4  A    between atoms: C_2  and  C_7
    5  A    between atoms: C_3  and  C_12
    6  A    between atoms: C_7  and  C_13
    7  A    between atoms: O_11  and  C_14
    8  A    between atoms: O_11  and  C_36
    9  A    between atoms: C_19  and  C_37
   10  A    between atoms: C_29  and  C_31
   11  A    between atoms: C_29  and  C_36
                            x       y       z     vdW  Elec       q    Type
                         _______ _______ _______ _____ _____    ______ ____

>  <TORSDO>
F 11

$$$$
=
 OpenBabel10262422343D

 43 49  0  0  1  0  0  0  0  0999 V2000
  181.4350  178.9960  141.5670 C   0  0  0  0  0  0  0  0  0  0  0  0
  185.6150  178.3250  144.3330 C   0  0  0  0  0  0  0  0  0  0  0  0
  187.5950  177.6330  142.5380 C   0  0  0  0  0  0  0  0  0  0  0  0
  183.0170  178.8220  143.3930 C   0  0  0  0  0  0  0  0  0  0  0  0
  182.4330  178.6350  140.6600 C   0  0  0  0  0  3  0  0  0  0  0  0
  180.1820  179.2630  141.1220 F   0  0  0  0  0  0  0  0  0  0  0  0
  184.0350  178.4530  142.4790 C   0  0  0  0  0  0  0  0  0  0  0  0
  181.7240  179.0900  142.9310 C   0  0  0  0  0  3  0  0  0  0  0  0
  183.7280  178.3630  141.1130 C   0  0  0  0  0  3  0  0  0  0  0  0
  186.3300  177.8540  142.0950 N   0  0  0  0  0  0  0  0  0  0  0  0
  185.3320  178.1960  142.9540 C   0  0  0  0  0  0  0  0  0  0  0  0
  184.5940  178.6850  145.2230 C   0  0  0  0  0  3  0  0  0  0  0  0
  186.9300  178.0930  144.7670 C   0  0  0  0  0  0  0  0  0  0  0  0
  187.8870  177.7640  143.8580 N   0  0  0  0  0  0  0  0  0  0  0  0
  183.3030  178.9300  144.7550 C   0  0  0  0  0  3  0  0  0  0  0  0
  187.3300  178.2760  146.1980 C   0  0  0  0  0  2  0  0  0  0  0  0
  190.9700  177.2970  145.8020 C   0  0  0  0  0  3  0  0  0  0  0  0
  191.1350  176.4050  146.8710 C   0  0  0  0  0  0  0  0  0  0  0  0
  188.8280  176.7590  147.5200 C   0  0  0  0  0  3  0  0  0  0  0  0
  189.7330  177.9100  145.5890 C   0  0  0  0  0  3  0  0  0  0  0  0
  188.6610  177.6450  146.4470 C   0  0  0  0  0  0  0  0  0  0  0  0
  190.0630  176.1390  147.7320 C   0  0  0  0  0  3  0  0  0  0  0  0
  192.9050  176.0720  148.3960 O   0  0  0  0  0  1  0  0  0  0  0  0
  192.4590  175.7670  147.1080 C   0  0  0  0  0  2  0  0  0  0  0  0
  188.6800  177.3390  141.5580 C   0  0  0  0  0  2  0  0  0  0  0  0
  188.5670  178.2290  140.3230 C   0  0  0  0  0  2  0  0  0  0  0  0
  189.0700  177.5400  139.1420 N   0  0  0  0  0  2  0  0  0  0  0  0
  189.0600  178.1270  137.8380 C   0  0  0  0  0  0  0  0  0  0  0  0
  188.7770  179.3820  137.6810 N   0  0  0  0  0  2  0  0  0  0  0  0
  189.4890  177.2930  136.6660 C   0  0  1  0  0  3  0  0  0  0  0  0
  190.6110  176.5100  136.9950 O   0  0  0  0  0  0  0  0  0  0  0  0
  188.8480  175.5250  134.8800 C   0  0  0  0  0  2  0  0  0  0  0  0
  186.9380  176.8620  136.1180 C   0  0  2  0  0  3  0  0  0  0  0  0
  191.1440  176.0310  135.7800 C   0  0  0  0  0  2  0  0  0  0  0  0
  188.3890  176.4090  136.0350 C   0  0  2  0  0  0  0  0  0  0  0  0
  187.4460  175.7110  136.9900 C   0  0  0  0  0  2  0  0  0  0  0  0
  190.2330  174.9490  135.1900 C   0  0  0  0  0  2  0  0  0  0  0  0
  186.1820  176.3540  135.0580 O   0  0  0  0  0  0  0  0  0  0  0  0
  185.1450  177.2730  134.9020 C   0  0  0  0  0  2  0  0  0  0  0  0
  183.8140  176.5960  135.1630 C   0  0  0  0  0  2  0  0  0  0  0  0
  183.7810  176.8760  137.6190 C   0  0  0  0  0  2  0  0  0  0  0  0
  183.1200  177.2860  136.3200 C   0  0  0  0  0  3  0  0  0  0  0  0
  182.4710  176.2430  137.2040 C   0  0  0  0  0  2  0  0  0  0  0  0
  1  8  1  0  0  0  0
  2 13  1  0  0  0  0
  2 12  1  0  0  0  0
  3 14  1  0  0  0  0
  4 15  1  0  0  0  0
  5  9  1  0  0  0  0
  5  1  2  0  0  0  0
  6  1  1  0  0  0  0
  7 11  1  0  0  0  0
  7  4  1  0  0  0  0
  8  4  2  0  0  0  0
  9  7  2  0  0  0  0
 10  3  2  0  0  0  0
 10 11  1  0  0  0  0
 11  2  2  0  0  0  0
 13 16  1  0  0  0  0
 14 13  2  0  0  0  0
 15 12  2  0  0  0  0
 16 21  1  0  0  0  0
 17 18  1  0  0  0  0
 18 24  1  0  0  0  0
 18 22  2  0  0  0  0
 19 22  1  0  0  0  0
 20 17  2  0  0  0  0
 20 21  1  0  0  0  0
 21 19  2  0  0  0  0
 24 23  1  0  0  0  0
 25  3  1  0  0  0  0
 26 25  1  0  0  0  0
 27 26  1  0  0  0  0
 28 27  1  0  0  0  0
 29 28  2  0  0  0  0
 30 31  1  0  0  0  0
 30 28  1  1  0  0  0
 32 37  1  0  0  0  0
 33 38  1  6  0  0  0
 33 36  1  0  0  0  0
 34 31  1  0  0  0  0
 35 32  1  6  0  0  0
 35 33  1  0  0  0  0
 35 30  1  0  0  0  0
 35 36  1  0  0  0  0
 37 34  1  0  0  0  0
 39 38  1  0  0  0  0
 39 40  1  0  0  0  0
 40 42  1  0  0  0  0
 42 43  1  0  0  0  0
 42 41  1  0  0  0  0
 43 41  1  0  0  0  0
M  END
>  <MODEL>
4

>  <REMARK>
 VINA RESULT:      -8.7      3.565      7.796
  Name = 
  11 active torsions:
  status: ('A' for Active; 'I' for Inactive)
    1  A    between atoms: C_1  and  C_34
    2  A    between atoms: C_1  and  C_35
    3  A    between atoms: C_2  and  N_6
    4  A    between atoms: C_2  and  C_7
    5  A    between atoms: C_3  and  C_12
    6  A    between atoms: C_7  and  C_13
    7  A    between atoms: O_11  and  C_14
    8  A    between atoms: O_11  and  C_36
    9  A    between atoms: C_19  and  C_37
   10  A    between atoms: C_29  and  C_31
   11  A    between atoms: C_29  and  C_36
                            x       y       z     vdW  Elec       q    Type
                         _______ _______ _______ _____ _____    ______ ____

>  <TORSDO>
F 11

$$$$
=
 OpenBabel10262422343D

 43 49  0  0  1  0  0  0  0  0999 V2000
  188.6250  177.3040  147.6150 C   0  0  0  0  0  0  0  0  0  0  0  0
  189.5400  177.4380  142.6430 C   0  0  0  0  0  0  0  0  0  0  0  0
  187.1670  178.2200  141.4670 C   0  0  0  0  0  0  0  0  0  0  0  0
  189.6690  177.1620  145.4330 C   0  0  0  0  0  0  0  0  0  0  0  0
  187.4220  177.6880  147.0200 C   0  0  0  0  0  3  0  0  0  0  0  0
  188.7060  177.1920  148.9630 F   0  0  0  0  0  0  0  0  0  0  0  0
  188.4500  177.5500  144.8220 C   0  0  0  0  0  0  0  0  0  0  0  0
  189.7470  177.0410  146.8250 C   0  0  0  0  0  3  0  0  0  0  0  0
  187.3330  177.8100  145.6290 C   0  0  0  0  0  3  0  0  0  0  0  0
  187.2340  178.0630  142.8150 N   0  0  0  0  0  0  0  0  0  0  0  0
  188.3870  177.6780  143.4240 C   0  0  0  0  0  0  0  0  0  0  0  0
  190.7350  177.0490  143.2630 C   0  0  0  0  0  3  0  0  0  0  0  0
  189.4480  177.6080  141.2520 C   0  0  0  0  0  0  0  0  0  0  0  0
  188.2690  178.0050  140.7020 N   0  0  0  0  0  0  0  0  0  0  0  0
  190.7980  176.9110  144.6510 C   0  0  0  0  0  3  0  0  0  0  0  0
  190.6380  177.4420  140.3580 C   0  0  0  0  0  2  0  0  0  0  0  0
  189.2050  178.1560  136.9230 C   0  0  0  0  0  3  0  0  0  0  0  0
  189.3110  176.8990  136.3130 C   0  0  0  0  0  0  0  0  0  0  0  0
  190.3110  176.0040  138.3290 C   0  0  0  0  0  3  0  0  0  0  0  0
  189.6450  178.3320  138.2370 C   0  0  0  0  0  3  0  0  0  0  0  0
  190.2000  177.2590  138.9430 C   0  0  0  0  0  0  0  0  0  0  0  0
  189.8680  175.8230  137.0160 C   0  0  0  0  0  3  0  0  0  0  0  0
  188.2940  175.4490  134.7520 O   0  0  0  0  0  1  0  0  0  0  0  0
  188.8590  176.7170  134.9050 C   0  0  0  0  0  2  0  0  0  0  0  0
  185.9090  178.7200  140.8420 C   0  0  0  0  0  2  0  0  0  0  0  0
  185.9490  178.5730  139.3240 C   0  0  0  0  0  2  0  0  0  0  0  0
  184.6220  178.2790  138.7990 N   0  0  0  0  0  2  0  0  0  0  0  0
  183.5760  179.2540  138.7410 C   0  0  0  0  0  0  0  0  0  0  0  0
  183.8250  180.5040  138.9780 N   0  0  0  0  0  2  0  0  0  0  0  0
  182.2100  178.8230  138.2950 C   0  0  1  0  0  3  0  0  0  0  0  0
  182.2840  178.0840  137.1000 O   0  0  0  0  0  0  0  0  0  0  0  0
  180.0090  177.5730  138.8640 C   0  0  0  0  0  2  0  0  0  0  0  0
  181.6080  178.3310  140.8230 C   0  0  2  0  0  3  0  0  0  0  0  0
  180.9740  178.0150  136.5810 C   0  0  0  0  0  2  0  0  0  0  0  0
  181.3750  178.0540  139.3440 C   0  0  2  0  0  0  0  0  0  0  0  0
  182.1100  177.0340  140.1850 C   0  0  0  0  0  2  0  0  0  0  0  0
  180.1190  177.0620  137.4240 C   0  0  0  0  0  2  0  0  0  0  0  0
  180.4610  178.0730  141.5790 O   0  0  0  0  0  0  0  0  0  0  0  0
  180.7140  178.6810  142.8080 C   0  0  0  0  0  2  0  0  0  0  0  0
  182.1730  179.0820  142.8930 C   0  0  0  0  0  2  0  0  0  0  0  0
  183.8890  179.7650  144.5370 C   0  0  0  0  0  2  0  0  0  0  0  0
  182.6550  178.9150  144.3200 C   0  0  0  0  0  3  0  0  0  0  0  0
  184.0270  178.2750  144.3100 C   0  0  0  0  0  2  0  0  0  0  0  0
  1  6  1  0  0  0  0
  2 12  2  0  0  0  0
  2 11  1  0  0  0  0
  3 10  2  0  0  0  0
  4  8  1  0  0  0  0
  5  1  1  0  0  0  0
  7  4  1  0  0  0  0
  7  9  1  0  0  0  0
  8  1  2  0  0  0  0
  9  5  2  0  0  0  0
 10 11  1  0  0  0  0
 11  7  2  0  0  0  0
 12 15  1  0  0  0  0
 13  2  1  0  0  0  0
 14 13  2  0  0  0  0
 14  3  1  0  0  0  0
 15  4  2  0  0  0  0
 16 13  1  0  0  0  0
 17 20  1  0  0  0  0
 18 17  2  0  0  0  0
 18 22  1  0  0  0  0
 19 21  1  0  0  0  0
 20 21  2  0  0  0  0
 21 16  1  0  0  0  0
 22 19  2  0  0  0  0
 23 24  1  0  0  0  0
 24 18  1  0  0  0  0
 25  3  1  0  0  0  0
 26 25  1  0  0  0  0
 27 26  1  0  0  0  0
 28 27  1  0  0  0  0
 28 29  2  0  0  0  0
 30 28  1  1  0  0  0
 30 35  1  0  0  0  0
 31 30  1  0  0  0  0
 33 38  1  1  0  0  0
 34 31  1  0  0  0  0
 34 37  1  0  0  0  0
 35 32  1  6  0  0  0
 35 36  1  0  0  0  0
 35 33  1  0  0  0  0
 36 33  1  0  0  0  0
 37 32  1  0  0  0  0
 38 39  1  0  0  0  0
 39 40  1  0  0  0  0
 40 42  1  0  0  0  0
 42 41  1  0  0  0  0
 43 42  1  0  0  0  0
 43 41  1  0  0  0  0
M  END
>  <MODEL>
5

>  <REMARK>
 VINA RESULT:      -8.5      2.297      3.564
  Name = 
  11 active torsions:
  status: ('A' for Active; 'I' for Inactive)
    1  A    between atoms: C_1  and  C_34
    2  A    between atoms: C_1  and  C_35
    3  A    between atoms: C_2  and  N_6
    4  A    between atoms: C_2  and  C_7
    5  A    between atoms: C_3  and  C_12
    6  A    between atoms: C_7  and  C_13
    7  A    between atoms: O_11  and  C_14
    8  A    between atoms: O_11  and  C_36
    9  A    between atoms: C_19  and  C_37
   10  A    between atoms: C_29  and  C_31
   11  A    between atoms: C_29  and  C_36
                            x       y       z     vdW  Elec       q    Type
                         _______ _______ _______ _____ _____    ______ ____

>  <TORSDO>
F 11

$$$$
=
 OpenBabel10262422343D

 43 49  0  0  1  0  0  0  0  0999 V2000
  181.4970  178.9060  143.3610 C   0  0  0  0  0  0  0  0  0  0  0  0
  184.6650  178.3610  139.4570 C   0  0  0  0  0  0  0  0  0  0  0  0
  187.2030  178.6260  140.5120 C   0  0  0  0  0  0  0  0  0  0  0  0
  182.4390  178.5820  141.1530 C   0  0  0  0  0  0  0  0  0  0  0  0
  182.7790  179.0520  143.8920 C   0  0  0  0  0  3  0  0  0  0  0  0
  180.4150  178.9860  144.1740 F   0  0  0  0  0  0  0  0  0  0  0  0
  183.7440  178.7320  141.6850 C   0  0  0  0  0  0  0  0  0  0  0  0
  181.3250  178.6720  141.9940 C   0  0  0  0  0  3  0  0  0  0  0  0
  183.8990  178.9660  143.0590 C   0  0  0  0  0  3  0  0  0  0  0  0
  186.1190  178.7540  141.3200 N   0  0  0  0  0  0  0  0  0  0  0  0
  184.8560  178.6290  140.8320 C   0  0  0  0  0  0  0  0  0  0  0  0
  183.3670  178.2230  138.9470 C   0  0  0  0  0  3  0  0  0  0  0  0
  185.8010  178.2320  138.6410 C   0  0  0  0  0  0  0  0  0  0  0  0
  187.0390  178.3570  139.1910 N   0  0  0  0  0  0  0  0  0  0  0  0
  182.2610  178.3340  139.7900 C   0  0  0  0  0  3  0  0  0  0  0  0
  185.6910  177.8800  137.1900 C   0  0  0  0  0  2  0  0  0  0  0  0
  185.2240  174.1260  136.9520 C   0  0  0  0  0  3  0  0  0  0  0  0
  186.5310  173.7020  136.6780 C   0  0  0  0  0  0  0  0  0  0  0  0
  187.2840  176.0040  136.7050 C   0  0  0  0  0  3  0  0  0  0  0  0
  184.9510  175.4880  137.1110 C   0  0  0  0  0  3  0  0  0  0  0  0
  185.9790  176.4290  136.9870 C   0  0  0  0  0  0  0  0  0  0  0  0
  187.5610  174.6430  136.5520 C   0  0  0  0  0  3  0  0  0  0  0  0
  188.1960  172.0530  136.3870 O   0  0  0  0  0  1  0  0  0  0  0  0
  186.8170  172.2530  136.4900 C   0  0  0  0  0  2  0  0  0  0  0  0
  188.5730  178.6890  141.0970 C   0  0  0  0  0  2  0  0  0  0  0  0
  189.4090  177.4820  140.6800 C   0  0  0  0  0  2  0  0  0  0  0  0
  190.1090  176.9180  141.8270 N   0  0  0  0  0  2  0  0  0  0  0  0
  189.4300  176.2890  142.9180 C   0  0  0  0  0  0  0  0  0  0  0  0
  188.1640  176.0210  142.8410 N   0  0  0  0  0  2  0  0  0  0  0  0
  190.2290  175.8460  144.1080 C   0  0  1  0  0  3  0  0  0  0  0  0
  191.5240  175.4520  143.7220 O   0  0  0  0  0  0  0  0  0  0  0  0
  191.1660  176.4190  146.4580 C   0  0  0  0  0  2  0  0  0  0  0  0
  189.1570  177.8300  145.4890 C   0  0  2  0  0  3  0  0  0  0  0  0
  192.0770  174.7460  144.8110 C   0  0  0  0  0  2  0  0  0  0  0  0
  190.3070  176.8550  145.2750 C   0  0  2  0  0  0  0  0  0  0  0  0
  190.4880  178.3120  144.9060 C   0  0  0  0  0  2  0  0  0  0  0  0
  192.4270  175.7150  145.9470 C   0  0  0  0  0  2  0  0  0  0  0  0
  189.0590  178.2200  146.8270 O   0  0  0  0  0  0  0  0  0  0  0  0
  187.9070  177.5810  147.2890 C   0  0  0  0  0  2  0  0  0  0  0  0
  186.9410  177.3700  146.1400 C   0  0  0  0  0  2  0  0  0  0  0  0
  185.8080  179.2110  147.3390 C   0  0  0  0  0  2  0  0  0  0  0  0
  186.0800  178.6060  145.9780 C   0  0  0  0  0  3  0  0  0  0  0  0
  184.7470  178.3760  146.6570 C   0  0  0  0  0  2  0  0  0  0  0  0
  1  5  1  0  0  0  0
  1  6  1  0  0  0  0
  2 11  1  0  0  0  0
  3 25  1  0  0  0  0
  3 10  2  0  0  0  0
  4  7  1  0  0  0  0
  4  8  1  0  0  0  0
  7  9  1  0  0  0  0
  8  1  2  0  0  0  0
  9  5  2  0  0  0  0
 11 10  1  0  0  0  0
 11  7  2  0  0  0  0
 12  2  2  0  0  0  0
 12 15  1  0  0  0  0
 13 14  2  0  0  0  0
 13  2  1  0  0  0  0
 14  3  1  0  0  0  0
 15  4  2  0  0  0  0
 16 13  1  0  0  0  0
 17 20  1  0  0  0  0
 18 17  2  0  0  0  0
 19 21  1  0  0  0  0
 21 20  2  0  0  0  0
 21 16  1  0  0  0  0
 22 18  1  0  0  0  0
 22 19  2  0  0  0  0
 23 24  1  0  0  0  0
 24 18  1  0  0  0  0
 26 25  1  0  0  0  0
 26 27  1  0  0  0  0
 27 28  1  0  0  0  0
 29 28  2  0  0  0  0
 30 28  1  6  0  0  0
 30 35  1  0  0  0  0
 31 30  1  0  0  0  0
 31 34  1  0  0  0  0
 33 38  1  1  0  0  0
 34 37  1  0  0  0  0
 35 36  1  6  0  0  0
 35 33  1  0  0  0  0
 35 32  1  0  0  0  0
 36 33  1  0  0  0  0
 37 32  1  0  0  0  0
 38 39  1  0  0  0  0
 40 39  1  0  0  0  0
 42 40  1  0  0  0  0
 42 43  1  0  0  0  0
 42 41  1  0  0  0  0
 43 41  1  0  0  0  0
M  END
>  <MODEL>
6

>  <REMARK>
 VINA RESULT:      -8.5      3.783      8.548
  Name = 
  11 active torsions:
  status: ('A' for Active; 'I' for Inactive)
    1  A    between atoms: C_1  and  C_34
    2  A    between atoms: C_1  and  C_35
    3  A    between atoms: C_2  and  N_6
    4  A    between atoms: C_2  and  C_7
    5  A    between atoms: C_3  and  C_12
    6  A    between atoms: C_7  and  C_13
    7  A    between atoms: O_11  and  C_14
    8  A    between atoms: O_11  and  C_36
    9  A    between atoms: C_19  and  C_37
   10  A    between atoms: C_29  and  C_31
   11  A    between atoms: C_29  and  C_36
                            x       y       z     vdW  Elec       q    Type
                         _______ _______ _______ _____ _____    ______ ____

>  <TORSDO>
F 11

$$$$
=
 OpenBabel10262422343D

 43 49  0  0  1  0  0  0  0  0999 V2000
  187.9050  177.6540  147.8500 C   0  0  0  0  0  0  0  0  0  0  0  0
  188.7090  177.6420  142.8570 C   0  0  0  0  0  0  0  0  0  0  0  0
  186.3610  178.5470  141.7200 C   0  0  0  0  0  0  0  0  0  0  0  0
  188.8870  177.4090  145.6490 C   0  0  0  0  0  0  0  0  0  0  0  0
  186.7140  178.1000  147.2750 C   0  0  0  0  0  3  0  0  0  0  0  0
  188.0110  177.5610  149.1980 F   0  0  0  0  0  0  0  0  0  0  0  0
  187.6800  177.8590  145.0580 C   0  0  0  0  0  0  0  0  0  0  0  0
  188.9900  177.3080  147.0400 C   0  0  0  0  0  3  0  0  0  0  0  0
  186.5990  178.2020  145.8840 C   0  0  0  0  0  3  0  0  0  0  0  0
  186.4490  178.4100  143.0680 N   0  0  0  0  0  0  0  0  0  0  0  0
  187.5910  177.9660  143.6590 C   0  0  0  0  0  0  0  0  0  0  0  0
  189.8920  177.1930  143.4580 C   0  0  0  0  0  3  0  0  0  0  0  0
  188.5940  177.7930  141.4650 C   0  0  0  0  0  0  0  0  0  0  0  0
  187.4290  178.2510  140.9350 N   0  0  0  0  0  0  0  0  0  0  0  0
  189.9790  177.0760  144.8460 C   0  0  0  0  0  3  0  0  0  0  0  0
  189.7510  177.5390  140.5490 C   0  0  0  0  0  2  0  0  0  0  0  0
  188.7350  176.3670  137.0900 C   0  0  0  0  0  3  0  0  0  0  0  0
  188.5140  177.5870  136.4390 C   0  0  0  0  0  0  0  0  0  0  0  0
  189.0680  178.7750  138.4750 C   0  0  0  0  0  3  0  0  0  0  0  0
  189.1310  176.3530  138.4310 C   0  0  0  0  0  3  0  0  0  0  0  0
  189.2960  177.5550  139.1260 C   0  0  0  0  0  0  0  0  0  0  0  0
  188.6780  178.7930  137.1340 C   0  0  0  0  0  3  0  0  0  0  0  0
  186.8570  178.2770  134.9050 O   0  0  0  0  0  1  0  0  0  0  0  0
  188.0740  177.6000  135.0160 C   0  0  0  0  0  2  0  0  0  0  0  0
  185.1210  179.1120  141.1140 C   0  0  0  0  0  2  0  0  0  0  0  0
  184.0340  178.0480  140.9830 C   0  0  0  0  0  2  0  0  0  0  0  0
  183.4440  178.0740  139.6510 N   0  0  0  0  0  2  0  0  0  0  0  0
  182.6810  176.9880  139.1190 C   0  0  0  0  0  0  0  0  0  0  0  0
  182.3150  176.0030  139.8790 N   0  0  0  0  0  2  0  0  0  0  0  0
  182.2160  177.0610  137.6940 C   0  0  1  0  0  3  0  0  0  0  0  0
  181.9490  178.3910  137.3230 O   0  0  0  0  0  0  0  0  0  0  0  0
  182.6900  176.5200  135.2010 C   0  0  0  0  0  2  0  0  0  0  0  0
  184.0110  175.2180  137.0800 C   0  0  2  0  0  3  0  0  0  0  0  0
  181.2120  178.3390  136.1210 C   0  0  0  0  0  2  0  0  0  0  0  0
  183.1430  176.3940  136.6530 C   0  0  2  0  0  0  0  0  0  0  0  0
  184.6310  176.5960  136.8380 C   0  0  0  0  0  2  0  0  0  0  0  0
  182.1210  177.9210  134.9590 C   0  0  0  0  0  2  0  0  0  0  0  0
  184.2970  174.3750  136.0020 O   0  0  0  0  0  0  0  0  0  0  0  0
  184.4320  173.1120  136.5790 C   0  0  0  0  0  2  0  0  0  0  0  0
  185.5650  173.1260  137.5870 C   0  0  0  0  0  2  0  0  0  0  0  0
  187.1070  172.2530  135.8630 C   0  0  0  0  0  2  0  0  0  0  0  0
  186.8740  173.3660  136.8630 C   0  0  0  0  0  3  0  0  0  0  0  0
  187.8360  172.2440  137.1890 C   0  0  0  0  0  2  0  0  0  0  0  0
  1  6  1  0  0  0  0
  2 12  2  0  0  0  0
  2 11  1  0  0  0  0
  3 10  2  0  0  0  0
  4  8  1  0  0  0  0
  5  1  1  0  0  0  0
  7  4  1  0  0  0  0
  7  9  1  0  0  0  0
  8  1  2  0  0  0  0
  9  5  2  0  0  0  0
 10 11  1  0  0  0  0
 11  7  2  0  0  0  0
 12 15  1  0  0  0  0
 13  2  1  0  0  0  0
 14 13  2  0  0  0  0
 14  3  1  0  0  0  0
 15  4  2  0  0  0  0
 16 13  1  0  0  0  0
 17 20  1  0  0  0  0
 18 17  2  0  0  0  0
 18 22  1  0  0  0  0
 19 21  1  0  0  0  0
 20 21  2  0  0  0  0
 21 16  1  0  0  0  0
 22 19  2  0  0  0  0
 23 24  1  0  0  0  0
 24 18  1  0  0  0  0
 25  3  1  0  0  0  0
 26 25  1  0  0  0  0
 27 26  1  0  0  0  0
 28 27  1  0  0  0  0
 28 29  2  0  0  0  0
 30 28  1  1  0  0  0
 31 30  1  0  0  0  0
 33 38  1  6  0  0  0
 34 31  1  0  0  0  0
 35 32  1  6  0  0  0
 35 36  1  0  0  0  0
 35 33  1  0  0  0  0
 35 30  1  0  0  0  0
 36 33  1  0  0  0  0
 37 32  1  0  0  0  0
 37 34  1  0  0  0  0
 38 39  1  0  0  0  0
 39 40  1  0  0  0  0
 41 42  1  0  0  0  0
 41 43  1  0  0  0  0
 42 43  1  0  0  0  0
 42 40  1  0  0  0  0
M  END
>  <MODEL>
7

>  <REMARK>
 VINA RESULT:      -8.5      2.360      4.823
  Name = 
  11 active torsions:
  status: ('A' for Active; 'I' for Inactive)
    1  A    between atoms: C_1  and  C_34
    2  A    between atoms: C_1  and  C_35
    3  A    between atoms: C_2  and  N_6
    4  A    between atoms: C_2  and  C_7
    5  A    between atoms: C_3  and  C_12
    6  A    between atoms: C_7  and  C_13
    7  A    between atoms: O_11  and  C_14
    8  A    between atoms: O_11  and  C_36
    9  A    between atoms: C_19  and  C_37
   10  A    between atoms: C_29  and  C_31
   11  A    between atoms: C_29  and  C_36
                            x       y       z     vdW  Elec       q    Type
                         _______ _______ _______ _____ _____    ______ ____

>  <TORSDO>
F 11

$$$$
=
 OpenBabel10262422343D

 43 49  0  0  1  0  0  0  0  0999 V2000
  180.3470  178.9460  140.3220 C   0  0  0  0  0  0  0  0  0  0  0  0
  184.1100  178.6560  143.6890 C   0  0  0  0  0  0  0  0  0  0  0  0
  186.4350  178.5510  142.2040 C   0  0  0  0  0  0  0  0  0  0  0  0
  181.6380  178.8150  142.3680 C   0  0  0  0  0  0  0  0  0  0  0  0
  181.5220  178.8810  139.5710 C   0  0  0  0  0  3  0  0  0  0  0  0
  179.1490  179.0480  139.6960 F   0  0  0  0  0  0  0  0  0  0  0  0
  182.8340  178.7460  141.6120 C   0  0  0  0  0  0  0  0  0  0  0  0
  180.4030  178.9130  141.7180 C   0  0  0  0  0  3  0  0  0  0  0  0
  182.7610  178.7800  140.2110 C   0  0  0  0  0  3  0  0  0  0  0  0
  185.2330  178.6050  141.5730 N   0  0  0  0  0  0  0  0  0  0  0  0
  184.0700  178.6570  142.2760 C   0  0  0  0  0  0  0  0  0  0  0  0
  182.9160  178.7190  144.4210 C   0  0  0  0  0  3  0  0  0  0  0  0
  185.3640  178.6010  144.3180 C   0  0  0  0  0  0  0  0  0  0  0  0
  186.4930  178.5600  143.5600 N   0  0  0  0  0  0  0  0  0  0  0  0
  181.6880  178.7960  143.7640 C   0  0  0  0  0  3  0  0  0  0  0  0
  185.5000  178.6660  145.8080 C   0  0  0  0  0  2  0  0  0  0  0  0
  188.4790  177.7520  147.9660 C   0  0  0  0  0  3  0  0  0  0  0  0
  189.3910  177.3030  147.0020 C   0  0  0  0  0  0  0  0  0  0  0  0
  187.7560  177.7110  145.2640 C   0  0  0  0  0  3  0  0  0  0  0  0
  187.2100  178.1880  147.5760 C   0  0  0  0  0  3  0  0  0  0  0  0
  186.8450  178.1680  146.2260 C   0  0  0  0  0  0  0  0  0  0  0  0
  189.0270  177.2800  145.6500 C   0  0  0  0  0  3  0  0  0  0  0  0
  191.3850  176.2290  146.3350 O   0  0  0  0  0  1  0  0  0  0  0  0
  190.7360  176.8200  147.4220 C   0  0  0  0  0  2  0  0  0  0  0  0
  187.6910  178.5750  141.4010 C   0  0  0  0  0  2  0  0  0  0  0  0
  187.4190  178.2490  139.9350 C   0  0  0  0  0  2  0  0  0  0  0  0
  188.2290  177.1200  139.4980 N   0  0  0  0  0  2  0  0  0  0  0  0
  188.2470  176.6540  138.1460 C   0  0  0  0  0  0  0  0  0  0  0  0
  187.6850  177.3440  137.2030 N   0  0  0  0  0  2  0  0  0  0  0  0
  189.0210  175.4110  137.8190 C   0  0  1  0  0  3  0  0  0  0  0  0
  188.4480  174.7400  136.7230 O   0  0  0  0  0  0  0  0  0  0  0  0
  191.3060  174.3470  137.2050 C   0  0  0  0  0  2  0  0  0  0  0  0
  191.2510  176.7470  138.3020 C   0  0  2  0  0  3  0  0  0  0  0  0
  189.0090  173.4460  136.6990 C   0  0  0  0  0  2  0  0  0  0  0  0
  190.5360  175.6070  137.5900 C   0  0  2  0  0  0  0  0  0  0  0  0
  190.9540  176.8300  136.8030 C   0  0  0  0  0  2  0  0  0  0  0  0
  190.4690  173.5100  136.2330 C   0  0  0  0  0  2  0  0  0  0  0  0
  192.6040  176.4580  138.5000 O   0  0  0  0  0  0  0  0  0  0  0  0
  192.9490  177.1850  139.6400 C   0  0  0  0  0  2  0  0  0  0  0  0
  191.7160  177.4260  140.4880 C   0  0  0  0  0  2  0  0  0  0  0  0
  190.7810  176.6790  142.6520 C   0  0  0  0  0  2  0  0  0  0  0  0
  192.0400  177.1240  141.9370 C   0  0  0  0  0  3  0  0  0  0  0  0
  191.2900  178.0930  142.8270 C   0  0  0  0  0  2  0  0  0  0  0  0
  1  8  1  0  0  0  0
  2 13  1  0  0  0  0
  2 12  1  0  0  0  0
  3 14  1  0  0  0  0
  4 15  1  0  0  0  0
  5  9  1  0  0  0  0
  5  1  2  0  0  0  0
  6  1  1  0  0  0  0
  7 11  1  0  0  0  0
  7  4  1  0  0  0  0
  8  4  2  0  0  0  0
  9  7  2  0  0  0  0
 10  3  2  0  0  0  0
 10 11  1  0  0  0  0
 11  2  2  0  0  0  0
 13 16  1  0  0  0  0
 14 13  2  0  0  0  0
 15 12  2  0  0  0  0
 16 21  1  0  0  0  0
 18 24  1  0  0  0  0
 18 17  2  0  0  0  0
 19 22  2  0  0  0  0
 19 21  1  0  0  0  0
 20 17  1  0  0  0  0
 21 20  2  0  0  0  0
 22 18  1  0  0  0  0
 23 24  1  0  0  0  0
 25  3  1  0  0  0  0
 26 25  1  0  0  0  0
 27 26  1  0  0  0  0
 28 27  1  0  0  0  0
 29 28  2  0  0  0  0
 30 28  1  6  0  0  0
 31 30  1  0  0  0  0
 32 35  1  0  0  0  0
 33 38  1  6  0  0  0
 34 31  1  0  0  0  0
 35 36  1  6  0  0  0
 35 30  1  0  0  0  0
 35 33  1  0  0  0  0
 36 33  1  0  0  0  0
 37 34  1  0  0  0  0
 37 32  1  0  0  0  0
 38 39  1  0  0  0  0
 39 40  1  0  0  0  0
 40 42  1  0  0  0  0
 41 43  1  0  0  0  0
 42 41  1  0  0  0  0
 42 43  1  0  0  0  0
M  END
>  <MODEL>
8

>  <REMARK>
 VINA RESULT:      -8.4      3.786      9.242
  Name = 
  11 active torsions:
  status: ('A' for Active; 'I' for Inactive)
    1  A    between atoms: C_1  and  C_34
    2  A    between atoms: C_1  and  C_35
    3  A    between atoms: C_2  and  N_6
    4  A    between atoms: C_2  and  C_7
    5  A    between atoms: C_3  and  C_12
    6  A    between atoms: C_7  and  C_13
    7  A    between atoms: O_11  and  C_14
    8  A    between atoms: O_11  and  C_36
    9  A    between atoms: C_19  and  C_37
   10  A    between atoms: C_29  and  C_31
   11  A    between atoms: C_29  and  C_36
                            x       y       z     vdW  Elec       q    Type
                         _______ _______ _______ _____ _____    ______ ____

>  <TORSDO>
F 11

$$$$
=
 OpenBabel10262422343D

 43 49  0  0  1  0  0  0  0  0999 V2000
  190.7740  176.7860  146.6920 C   0  0  0  0  0  0  0  0  0  0  0  0
  189.6800  177.5840  141.8190 C   0  0  0  0  0  0  0  0  0  0  0  0
  187.1070  178.5850  141.7860 C   0  0  0  0  0  0  0  0  0  0  0  0
  190.8680  176.9200  144.2750 C   0  0  0  0  0  0  0  0  0  0  0  0
  189.4690  177.2810  146.6740 C   0  0  0  0  0  3  0  0  0  0  0  0
  191.3670  176.4860  147.8740 F   0  0  0  0  0  0  0  0  0  0  0  0
  189.5420  177.4210  144.2490 C   0  0  0  0  0  0  0  0  0  0  0  0
  191.4730  176.6050  145.4960 C   0  0  0  0  0  3  0  0  0  0  0  0
  188.8540  177.5970  145.4590 C   0  0  0  0  0  3  0  0  0  0  0  0
  187.6820  178.2410  142.9670 N   0  0  0  0  0  0  0  0  0  0  0  0
  188.9470  177.7440  143.0180 C   0  0  0  0  0  0  0  0  0  0  0  0
  190.9870  177.0810  141.8630 C   0  0  0  0  0  3  0  0  0  0  0  0
  189.0650  177.9480  140.6110 C   0  0  0  0  0  0  0  0  0  0  0  0
  187.8010  178.4490  140.6260 N   0  0  0  0  0  0  0  0  0  0  0  0
  191.5760  176.7490  143.0840 C   0  0  0  0  0  3  0  0  0  0  0  0
  189.7940  177.8750  139.3040 C   0  0  0  0  0  2  0  0  0  0  0  0
  187.4260  176.1610  136.8920 C   0  0  0  0  0  3  0  0  0  0  0  0
  187.0770  177.2220  136.0460 C   0  0  0  0  0  0  0  0  0  0  0  0
  188.4730  178.7160  137.3440 C   0  0  0  0  0  3  0  0  0  0  0  0
  188.3050  176.3770  137.9560 C   0  0  0  0  0  3  0  0  0  0  0  0
  188.8290  177.6540  138.1860 C   0  0  0  0  0  0  0  0  0  0  0  0
  187.5990  178.5020  136.2750 C   0  0  0  0  0  3  0  0  0  0  0  0
  185.8980  175.6240  134.7690 O   0  0  0  0  0  1  0  0  0  0  0  0
  186.1250  176.9940  134.9240 C   0  0  0  0  0  2  0  0  0  0  0  0
  185.7490  179.2010  141.7770 C   0  0  0  0  0  2  0  0  0  0  0  0
  184.6690  178.1630  142.0690 C   0  0  0  0  0  2  0  0  0  0  0  0
  183.3440  178.7050  141.7930 N   0  0  0  0  0  2  0  0  0  0  0  0
  182.4740  178.1580  140.7990 C   0  0  0  0  0  0  0  0  0  0  0  0
  182.7510  177.0270  140.2290 N   0  0  0  0  0  2  0  0  0  0  0  0
  181.1790  178.8590  140.5060 C   0  0  1  0  0  3  0  0  0  0  0  0
  180.8410  179.7400  141.5500 O   0  0  0  0  0  0  0  0  0  0  0  0
  179.8090  180.3460  138.8820 C   0  0  0  0  0  2  0  0  0  0  0  0
  181.9370  179.0710  137.9820 C   0  0  2  0  0  3  0  0  0  0  0  0
  179.4870  180.0890  141.3660 C   0  0  0  0  0  2  0  0  0  0  0  0
  181.1080  179.5910  139.1470 C   0  0  2  0  0  0  0  0  0  0  0  0
  182.3430  180.3510  138.7160 C   0  0  0  0  0  2  0  0  0  0  0  0
  179.3410  181.0340  140.1680 C   0  0  0  0  0  2  0  0  0  0  0  0
  181.3540  179.3960  136.7530 O   0  0  0  0  0  0  0  0  0  0  0  0
  181.5130  178.2450  135.9810 C   0  0  0  0  0  2  0  0  0  0  0  0
  182.7610  177.5030  136.4160 C   0  0  0  0  0  2  0  0  0  0  0  0
  181.8050  175.3350  137.1220 C   0  0  0  0  0  2  0  0  0  0  0  0
  182.6200  176.0370  136.0570 C   0  0  0  0  0  3  0  0  0  0  0  0
  183.3110  175.1980  137.1110 C   0  0  0  0  0  2  0  0  0  0  0  0
  1  6  1  0  0  0  0
  2 12  2  0  0  0  0
  2 11  1  0  0  0  0
  3 10  2  0  0  0  0
  4  8  1  0  0  0  0
  5  1  1  0  0  0  0
  7  4  1  0  0  0  0
  7  9  1  0  0  0  0
  8  1  2  0  0  0  0
  9  5  2  0  0  0  0
 10 11  1  0  0  0  0
 11  7  2  0  0  0  0
 12 15  1  0  0  0  0
 13 14  2  0  0  0  0
 13  2  1  0  0  0  0
 14  3  1  0  0  0  0
 15  4  2  0  0  0  0
 16 13  1  0  0  0  0
 17 20  1  0  0  0  0
 18 22  1  0  0  0  0
 18 17  2  0  0  0  0
 19 21  1  0  0  0  0
 20 21  2  0  0  0  0
 21 16  1  0  0  0  0
 22 19  2  0  0  0  0
 23 24  1  0  0  0  0
 24 18  1  0  0  0  0
 25  3  1  0  0  0  0
 25 26  1  0  0  0  0
 27 26  1  0  0  0  0
 28 27  1  0  0  0  0
 29 28  2  0  0  0  0
 30 28  1  1  0  0  0
 30 31  1  0  0  0  0
 32 35  1  0  0  0  0
 32 37  1  0  0  0  0
 33 38  1  6  0  0  0
 33 36  1  0  0  0  0
 33 35  1  0  0  0  0
 34 31  1  0  0  0  0
 35 36  1  1  0  0  0
 35 30  1  0  0  0  0
 37 34  1  0  0  0  0
 39 40  1  0  0  0  0
 39 38  1  0  0  0  0
 42 40  1  0  0  0  0
 42 43  1  0  0  0  0
 42 41  1  0  0  0  0
 43 41  1  0  0  0  0
M  END
>  <MODEL>
9

>  <REMARK>
 VINA RESULT:      -8.4      1.798      3.363
  Name = 
  11 active torsions:
  status: ('A' for Active; 'I' for Inactive)
    1  A    between atoms: C_1  and  C_34
    2  A    between atoms: C_1  and  C_35
    3  A    between atoms: C_2  and  N_6
    4  A    between atoms: C_2  and  C_7
    5  A    between atoms: C_3  and  C_12
    6  A    between atoms: C_7  and  C_13
    7  A    between atoms: O_11  and  C_14
    8  A    between atoms: O_11  and  C_36
    9  A    between atoms: C_19  and  C_37
   10  A    between atoms: C_29  and  C_31
   11  A    between atoms: C_29  and  C_36
                            x       y       z     vdW  Elec       q    Type
                         _______ _______ _______ _____ _____    ______ ____

>  <TORSDO>
F 11

$$$$
