=
 OpenBabel10262419433D

 25 28  0  0  1  0  0  0  0  0999 V2000
  187.2000  177.8500  145.5080 C   0  0  0  0  0  0  0  0  0  0  0  0
  188.4860  177.3890  145.1600 C   0  0  0  0  0  0  0  0  0  0  0  0
  187.8060  177.8730  147.8730 C   0  0  0  0  0  3  0  0  0  0  0  0
  186.1080  178.1330  144.6630 C   0  0  0  0  0  0  0  0  0  0  0  0
  183.7450  178.7910  143.3210 C   0  0  0  0  0  3  0  0  0  0  0  0
  189.0840  177.4150  147.5390 C   0  0  0  0  0  3  0  0  0  0  0  0
  184.9850  178.5730  145.3610 C   0  0  0  0  0  0  0  0  0  0  0  0
  183.7960  178.9070  144.7180 C   0  0  0  0  0  3  0  0  0  0  0  0
  190.7300  176.7060  145.8660 C   0  0  0  0  0  0  0  0  0  0  0  0
  191.7670  176.4540  146.9100 C   0  0  0  0  0  1  0  0  0  0  0  0
  188.8490  177.1430  143.8290 C   0  0  0  0  0  3  0  0  0  0  0  0
  184.8690  178.3480  142.6010 C   0  0  0  0  0  3  0  0  0  0  0  0
  186.8890  178.0820  146.8500 C   0  0  0  0  0  0  0  0  0  0  0  0
  185.3010  178.6250  147.0140 S   0  0  0  0  0  0  0  0  0  0  0  0
  191.0630  176.4670  144.5310 C   0  0  0  0  0  3  0  0  0  0  0  0
  186.0580  178.0170  143.2700 C   0  0  0  0  0  3  0  0  0  0  0  0
  190.1320  176.6890  143.5140 C   0  0  0  0  0  0  0  0  0  0  0  0
  189.4400  177.1690  146.1950 C   0  0  0  0  0  0  0  0  0  0  0  0
  190.4950  176.4120  142.0980 C   0  0  0  0  0  2  0  0  0  0  0  0
  190.1710  177.6180  141.2310 C   0  0  0  0  0  2  0  0  0  0  0  0
  189.3470  177.1990  140.0250 C   0  0  2  0  0  3  0  0  0  0  0  0
  190.1950  176.7380  139.0180 O   0  0  0  0  0  1  0  0  0  0  0  0
  188.5290  178.3400  139.5140 C   0  0  0  0  0  0  0  0  0  0  0  0
  189.0530  179.1810  138.5410 O   0  0  0  0  0  0  0  0  0  0  0  0
  187.3630  178.5370  139.9480 O   0  0  0  0  0  1  0  0  0  0  0  0
  1 13  1  0  0  0  0
  2  1  2  0  0  0  0
  2 18  1  0  0  0  0
  4  7  1  0  0  0  0
  4  1  1  0  0  0  0
  5  8  1  0  0  0  0
  6  3  1  0  0  0  0
  7 14  1  0  0  0  0
  8  7  2  0  0  0  0
  9 18  1  0  0  0  0
  9 10  1  0  0  0  0
 11  2  1  0  0  0  0
 12 16  1  0  0  0  0
 12  5  2  0  0  0  0
 13 14  1  0  0  0  0
 13  3  2  0  0  0  0
 15  9  2  0  0  0  0
 16  4  2  0  0  0  0
 17 11  2  0  0  0  0
 17 15  1  0  0  0  0
 18  6  2  0  0  0  0
 19 17  1  0  0  0  0
 20 19  1  0  0  0  0
 21 22  1  6  0  0  0
 21 20  1  0  0  0  0
 23 25  1  0  0  0  0
 23 21  1  0  0  0  0
 24 23  2  0  0  0  0
M  END
>  <MODEL>
1

>  <REMARK>
 VINA RESULT:     -10.8      0.000      0.000
  Name = 
  4 active torsions:
  status: ('A' for Active; 'I' for Inactive)
    1  A    between atoms: C_2  and  C_21
    2  A    between atoms: C_6  and  C_15
    3  A    between atoms: C_6  and  C_23
    4  A    between atoms: C_15  and  C_21
                            x       y       z     vdW  Elec       q    Type
                         _______ _______ _______ _____ _____    ______ ____

>  <TORSDO>
F 4

$$$$
=
 OpenBabel10262419433D

 25 28  0  0  1  0  0  0  0  0999 V2000
  187.0720  177.8940  145.3300 C   0  0  0  0  0  0  0  0  0  0  0  0
  188.3460  177.4830  144.8860 C   0  0  0  0  0  0  0  0  0  0  0  0
  187.8060  177.7900  147.6550 C   0  0  0  0  0  3  0  0  0  0  0  0
  185.9300  178.2040  144.5620 C   0  0  0  0  0  0  0  0  0  0  0  0
  183.4870  178.8900  143.3910 C   0  0  0  0  0  3  0  0  0  0  0  0
  189.0720  177.3800  147.2260 C   0  0  0  0  0  3  0  0  0  0  0  0
  184.8400  178.5770  145.3450 C   0  0  0  0  0  0  0  0  0  0  0  0
  183.6120  178.9240  144.7870 C   0  0  0  0  0  3  0  0  0  0  0  0
  190.6360  176.8060  145.4280 C   0  0  0  0  0  0  0  0  0  0  0  0
  191.7340  176.5150  146.3980 C   0  0  0  0  0  1  0  0  0  0  0  0
  188.6390  177.3230  143.5250 C   0  0  0  0  0  3  0  0  0  0  0  0
  184.5770  178.5150  142.5860 C   0  0  0  0  0  3  0  0  0  0  0  0
  186.8310  178.0390  146.6970 C   0  0  0  0  0  0  0  0  0  0  0  0
  185.2450  178.5380  146.9780 S   0  0  0  0  0  0  0  0  0  0  0  0
  190.9000  176.6540  144.0640 C   0  0  0  0  0  3  0  0  0  0  0  0
  185.8070  178.1690  143.1690 C   0  0  0  0  0  3  0  0  0  0  0  0
  189.9110  176.9160  143.1150 C   0  0  0  0  0  0  0  0  0  0  0  0
  189.3580  177.2220  145.8530 C   0  0  0  0  0  0  0  0  0  0  0  0
  190.2010  176.7320  141.6670 C   0  0  0  0  0  2  0  0  0  0  0  0
  189.1270  177.4060  140.8290 C   0  0  0  0  0  2  0  0  0  0  0  0
  189.6650  177.7460  139.4490 C   0  0  2  0  0  3  0  0  0  0  0  0
  188.9960  178.8640  138.9500 O   0  0  0  0  0  1  0  0  0  0  0  0
  189.4970  176.5950  138.5110 C   0  0  0  0  0  0  0  0  0  0  0  0
  190.4680  175.6040  138.4580 O   0  0  0  0  0  1  0  0  0  0  0  0
  188.4760  176.5100  137.7790 O   0  0  0  0  0  0  0  0  0  0  0  0
  1 13  1  0  0  0  0
  2  1  2  0  0  0  0
  2 18  1  0  0  0  0
  4  1  1  0  0  0  0
  4  7  1  0  0  0  0
  5  8  1  0  0  0  0
  6  3  1  0  0  0  0
  7 14  1  0  0  0  0
  8  7  2  0  0  0  0
  9 18  1  0  0  0  0
  9 10  1  0  0  0  0
 11  2  1  0  0  0  0
 12 16  1  0  0  0  0
 12  5  2  0  0  0  0
 13 14  1  0  0  0  0
 13  3  2  0  0  0  0
 15  9  2  0  0  0  0
 16  4  2  0  0  0  0
 17 11  2  0  0  0  0
 17 15  1  0  0  0  0
 18  6  2  0  0  0  0
 19 17  1  0  0  0  0
 20 19  1  0  0  0  0
 21 22  1  6  0  0  0
 21 20  1  0  0  0  0
 23 21  1  0  0  0  0
 24 23  1  0  0  0  0
 25 23  2  0  0  0  0
M  END
>  <MODEL>
2

>  <REMARK>
 VINA RESULT:     -10.5      0.723      1.269
  Name = 
  4 active torsions:
  status: ('A' for Active; 'I' for Inactive)
    1  A    between atoms: C_2  and  C_21
    2  A    between atoms: C_6  and  C_15
    3  A    between atoms: C_6  and  C_23
    4  A    between atoms: C_15  and  C_21
                            x       y       z     vdW  Elec       q    Type
                         _______ _______ _______ _____ _____    ______ ____

>  <TORSDO>
F 4

$$$$
=
 OpenBabel10262419433D

 25 28  0  0  1  0  0  0  0  0999 V2000
  187.6040  177.7860  145.7350 C   0  0  0  0  0  0  0  0  0  0  0  0
  186.7590  178.0740  144.6430 C   0  0  0  0  0  0  0  0  0  0  0  0
  185.7950  178.2500  147.3060 C   0  0  0  0  0  3  0  0  0  0  0  0
  188.9580  177.3930  145.7200 C   0  0  0  0  0  0  0  0  0  0  0  0
  191.6150  176.6060  146.0900 C   0  0  0  0  0  3  0  0  0  0  0  0
  184.9490  178.5390  146.2310 C   0  0  0  0  0  3  0  0  0  0  0  0
  189.4750  177.1920  146.9980 C   0  0  0  0  0  0  0  0  0  0  0  0
  190.7940  176.8000  147.2110 C   0  0  0  0  0  3  0  0  0  0  0  0
  184.5540  178.7520  143.8210 C   0  0  0  0  0  0  0  0  0  0  0  0
  183.1340  179.1630  144.0330 C   0  0  0  0  0  1  0  0  0  0  0  0
  187.2090  177.9950  143.3180 C   0  0  0  0  0  3  0  0  0  0  0  0
  191.1090  176.8040  144.7930 C   0  0  0  0  0  3  0  0  0  0  0  0
  187.1070  177.8790  147.0360 C   0  0  0  0  0  0  0  0  0  0  0  0
  188.2970  177.4880  148.1640 S   0  0  0  0  0  0  0  0  0  0  0  0
  185.0300  178.6660  142.5110 C   0  0  0  0  0  3  0  0  0  0  0  0
  189.7760  177.2000  144.6010 C   0  0  0  0  0  3  0  0  0  0  0  0
  186.3490  178.2840  142.2560 C   0  0  0  0  0  0  0  0  0  0  0  0
  185.4120  178.4580  144.9000 C   0  0  0  0  0  0  0  0  0  0  0  0
  186.8480  178.2150  140.8560 C   0  0  0  0  0  2  0  0  0  0  0  0
  188.3430  178.4820  140.8210 C   0  0  0  0  0  2  0  0  0  0  0  0
  189.0460  177.4540  139.9500 C   0  0  2  0  0  3  0  0  0  0  0  0
  190.1730  176.9710  140.6140 O   0  0  0  0  0  1  0  0  0  0  0  0
  189.4470  178.0480  138.6390 C   0  0  0  0  0  0  0  0  0  0  0  0
  189.0050  179.3180  138.2950 O   0  0  0  0  0  1  0  0  0  0  0  0
  190.1950  177.4110  137.8500 O   0  0  0  0  0  0  0  0  0  0  0  0
  1 13  2  0  0  0  0
  2 18  1  0  0  0  0
  2  1  1  0  0  0  0
  4  1  1  0  0  0  0
  4  7  1  0  0  0  0
  5  8  1  0  0  0  0
  6  3  2  0  0  0  0
  7  8  2  0  0  0  0
  7 14  1  0  0  0  0
  9 10  1  0  0  0  0
  9 18  2  0  0  0  0
 11  2  2  0  0  0  0
 12  5  2  0  0  0  0
 13  3  1  0  0  0  0
 13 14  1  0  0  0  0
 15  9  1  0  0  0  0
 16 12  1  0  0  0  0
 16  4  2  0  0  0  0
 17 15  2  0  0  0  0
 17 11  1  0  0  0  0
 18  6  1  0  0  0  0
 19 17  1  0  0  0  0
 20 19  1  0  0  0  0
 21 22  1  1  0  0  0
 21 20  1  0  0  0  0
 23 21  1  0  0  0  0
 24 23  1  0  0  0  0
 25 23  2  0  0  0  0
M  END
>  <MODEL>
3

>  <REMARK>
 VINA RESULT:     -10.5      1.314      4.628
  Name = 
  4 active torsions:
  status: ('A' for Active; 'I' for Inactive)
    1  A    between atoms: C_2  and  C_21
    2  A    between atoms: C_6  and  C_15
    3  A    between atoms: C_6  and  C_23
    4  A    between atoms: C_15  and  C_21
                            x       y       z     vdW  Elec       q    Type
                         _______ _______ _______ _____ _____    ______ ____

>  <TORSDO>
F 4

$$$$
=
 OpenBabel10262419433D

 25 28  0  0  1  0  0  0  0  0999 V2000
  186.9430  177.8780  144.7430 C   0  0  0  0  0  0  0  0  0  0  0  0
  188.1390  177.4800  144.1090 C   0  0  0  0  0  0  0  0  0  0  0  0
  187.9790  177.6310  146.9390 C   0  0  0  0  0  3  0  0  0  0  0  0
  185.7140  178.2420  144.1540 C   0  0  0  0  0  0  0  0  0  0  0  0
  183.1480  179.0180  143.3630 C   0  0  0  0  0  3  0  0  0  0  0  0
  189.1690  177.2350  146.3210 C   0  0  0  0  0  3  0  0  0  0  0  0
  184.7450  178.5800  145.0960 C   0  0  0  0  0  0  0  0  0  0  0  0
  183.4590  178.9700  144.7290 C   0  0  0  0  0  3  0  0  0  0  0  0
  190.4690  176.7520  144.3000 C   0  0  0  0  0  0  0  0  0  0  0  0
  191.6810  176.3940  145.0960 C   0  0  0  0  0  1  0  0  0  0  0  0
  188.2450  177.3980  142.7140 C   0  0  0  0  0  3  0  0  0  0  0  0
  184.1150  178.6800  142.3990 C   0  0  0  0  0  3  0  0  0  0  0  0
  186.8890  177.9450  146.1360 C   0  0  0  0  0  0  0  0  0  0  0  0
  185.3640  178.4420  146.6560 S   0  0  0  0  0  0  0  0  0  0  0  0
  190.5460  176.6770  142.9070 C   0  0  0  0  0  3  0  0  0  0  0  0
  185.4050  178.2900  142.7910 C   0  0  0  0  0  3  0  0  0  0  0  0
  189.4430  177.0030  142.1150 C   0  0  0  0  0  0  0  0  0  0  0  0
  189.2670  177.1540  144.9150 C   0  0  0  0  0  0  0  0  0  0  0  0
  189.5340  176.9000  140.6330 C   0  0  0  0  0  2  0  0  0  0  0  0
  190.9200  177.3130  140.1650 C   0  0  0  0  0  2  0  0  0  0  0  0
  191.2510  176.6540  138.8370 C   0  0  2  0  0  3  0  0  0  0  0  0
  190.5840  175.4330  138.7430 O   0  0  0  0  0  1  0  0  0  0  0  0
  192.7230  176.4380  138.6990 C   0  0  0  0  0  0  0  0  0  0  0  0
  193.6050  177.2190  139.4340 O   0  0  0  0  0  1  0  0  0  0  0  0
  193.1690  175.5440  137.9320 O   0  0  0  0  0  0  0  0  0  0  0  0
  1 13  1  0  0  0  0
  2  1  2  0  0  0  0
  2 18  1  0  0  0  0
  4  1  1  0  0  0  0
  4  7  1  0  0  0  0
  5  8  1  0  0  0  0
  6  3  1  0  0  0  0
  7 14  1  0  0  0  0
  8  7  2  0  0  0  0
  9 18  1  0  0  0  0
  9 10  1  0  0  0  0
 11  2  1  0  0  0  0
 12 16  1  0  0  0  0
 12  5  2  0  0  0  0
 13 14  1  0  0  0  0
 13  3  2  0  0  0  0
 15  9  2  0  0  0  0
 16  4  2  0  0  0  0
 17 11  2  0  0  0  0
 17 15  1  0  0  0  0
 18  6  2  0  0  0  0
 19 17  1  0  0  0  0
 20 19  1  0  0  0  0
 21 22  1  1  0  0  0
 21 20  1  0  0  0  0
 23 21  1  0  0  0  0
 23 24  1  0  0  0  0
 25 23  2  0  0  0  0
M  END
>  <MODEL>
4

>  <REMARK>
 VINA RESULT:      -9.9      1.548      2.268
  Name = 
  4 active torsions:
  status: ('A' for Active; 'I' for Inactive)
    1  A    between atoms: C_2  and  C_21
    2  A    between atoms: C_6  and  C_15
    3  A    between atoms: C_6  and  C_23
    4  A    between atoms: C_15  and  C_21
                            x       y       z     vdW  Elec       q    Type
                         _______ _______ _______ _____ _____    ______ ____

>  <TORSDO>
F 4

$$$$
=
 OpenBabel10262419433D

 25 28  0  0  1  0  0  0  0  0999 V2000
  185.9430  178.0940  144.7290 C   0  0  0  0  0  0  0  0  0  0  0  0
  187.2690  177.6210  144.6560 C   0  0  0  0  0  0  0  0  0  0  0  0
  186.1490  178.4130  147.1400 C   0  0  0  0  0  3  0  0  0  0  0  0
  185.0060  178.2520  143.6870 C   0  0  0  0  0  0  0  0  0  0  0  0
  182.8980  178.6970  141.9060 C   0  0  0  0  0  3  0  0  0  0  0  0
  187.4650  177.9440  147.0790 C   0  0  0  0  0  3  0  0  0  0  0  0
  183.7830  178.7500  144.1320 C   0  0  0  0  0  0  0  0  0  0  0  0
  182.7170  178.9810  143.2670 C   0  0  0  0  0  3  0  0  0  0  0  0
  189.3650  177.0720  145.7990 C   0  0  0  0  0  0  0  0  0  0  0  0
  190.2150  176.9680  147.0220 C   0  0  0  0  0  1  0  0  0  0  0  0
  187.8470  177.2240  143.4420 C   0  0  0  0  0  3  0  0  0  0  0  0
  184.1260  178.1940  141.4390 C   0  0  0  0  0  3  0  0  0  0  0  0
  185.4140  178.4790  145.9630 C   0  0  0  0  0  0  0  0  0  0  0  0
  183.8210  179.0060  145.7960 S   0  0  0  0  0  0  0  0  0  0  0  0
  189.9140  176.6820  144.5750 C   0  0  0  0  0  3  0  0  0  0  0  0
  185.1880  177.9680  142.3300 C   0  0  0  0  0  3  0  0  0  0  0  0
  189.1640  176.7610  143.4000 C   0  0  0  0  0  0  0  0  0  0  0  0
  188.0380  177.5450  145.8520 C   0  0  0  0  0  0  0  0  0  0  0  0
  189.7570  176.3240  142.1070 C   0  0  0  0  0  2  0  0  0  0  0  0
  190.1810  177.5340  141.2910 C   0  0  0  0  0  2  0  0  0  0  0  0
  189.7480  177.3780  139.8430 C   0  0  2  0  0  3  0  0  0  0  0  0
  190.8660  177.4480  139.0120 O   0  0  0  0  0  1  0  0  0  0  0  0
  188.7650  178.4360  139.4610 C   0  0  0  0  0  0  0  0  0  0  0  0
  189.0680  179.3160  138.4300 O   0  0  0  0  0  0  0  0  0  0  0  0
  187.6590  178.5270  140.0560 O   0  0  0  0  0  1  0  0  0  0  0  0
  1 13  1  0  0  0  0
  2  1  2  0  0  0  0
  2 18  1  0  0  0  0
  4  7  1  0  0  0  0
  4  1  1  0  0  0  0
  5  8  1  0  0  0  0
  6  3  1  0  0  0  0
  7 14  1  0  0  0  0
  8  7  2  0  0  0  0
  9 18  1  0  0  0  0
  9 10  1  0  0  0  0
 11  2  1  0  0  0  0
 12  5  2  0  0  0  0
 12 16  1  0  0  0  0
 13  3  2  0  0  0  0
 14 13  1  0  0  0  0
 15  9  2  0  0  0  0
 16  4  2  0  0  0  0
 17 11  2  0  0  0  0
 17 15  1  0  0  0  0
 18  6  2  0  0  0  0
 19 17  1  0  0  0  0
 20 19  1  0  0  0  0
 21 22  1  6  0  0  0
 21 20  1  0  0  0  0
 23 21  1  0  0  0  0
 23 25  1  0  0  0  0
 24 23  2  0  0  0  0
M  END
>  <MODEL>
5

>  <REMARK>
 VINA RESULT:      -9.7      0.914      1.338
  Name = 
  4 active torsions:
  status: ('A' for Active; 'I' for Inactive)
    1  A    between atoms: C_2  and  C_21
    2  A    between atoms: C_6  and  C_15
    3  A    between atoms: C_6  and  C_23
    4  A    between atoms: C_15  and  C_21
                            x       y       z     vdW  Elec       q    Type
                         _______ _______ _______ _____ _____    ______ ____

>  <TORSDO>
F 4

$$$$
=
 OpenBabel10262419433D

 25 28  0  0  1  0  0  0  0  0999 V2000
  187.2060  178.1200  141.6480 C   0  0  0  0  0  0  0  0  0  0  0  0
  186.6470  178.1730  142.9420 C   0  0  0  0  0  0  0  0  0  0  0  0
  185.0890  178.8310  140.6620 C   0  0  0  0  0  3  0  0  0  0  0  0
  188.5170  177.7660  141.2700 C   0  0  0  0  0  0  0  0  0  0  0  0
  190.9960  177.1310  140.1450 C   0  0  0  0  0  3  0  0  0  0  0  0
  184.5250  178.8860  141.9400 C   0  0  0  0  0  3  0  0  0  0  0  0
  188.7170  177.8270  139.8930 C   0  0  0  0  0  0  0  0  0  0  0  0
  189.9410  177.5160  139.3060 C   0  0  0  0  0  3  0  0  0  0  0  0
  184.7070  178.6180  144.3690 C   0  0  0  0  0  0  0  0  0  0  0  0
  183.2830  179.0150  144.5780 C   0  0  0  0  0  1  0  0  0  0  0  0
  187.3930  177.8540  144.0840 C   0  0  0  0  0  3  0  0  0  0  0  0
  190.8120  177.0630  141.5380 C   0  0  0  0  0  3  0  0  0  0  0  0
  186.4200  178.4490  140.5420 C   0  0  0  0  0  0  0  0  0  0  0  0
  187.3050  178.3120  139.1130 S   0  0  0  0  0  0  0  0  0  0  0  0
  185.4750  178.2920  145.4910 C   0  0  0  0  0  3  0  0  0  0  0  0
  189.5690  177.3810  142.1080 C   0  0  0  0  0  3  0  0  0  0  0  0
  186.8120  177.9170  145.3530 C   0  0  0  0  0  0  0  0  0  0  0  0
  185.2840  178.5620  143.0850 C   0  0  0  0  0  0  0  0  0  0  0  0
  187.6120  177.5560  146.5550 C   0  0  0  0  0  2  0  0  0  0  0  0
  189.0210  177.1600  146.1450 C   0  0  0  0  0  2  0  0  0  0  0  0
  189.8670  176.8620  147.3710 C   0  0  2  0  0  3  0  0  0  0  0  0
  189.6950  177.8740  148.3140 O   0  0  0  0  0  1  0  0  0  0  0  0
  191.3130  176.7480  147.0080 C   0  0  0  0  0  0  0  0  0  0  0  0
  191.6890  176.7530  145.6720 O   0  0  0  0  0  0  0  0  0  0  0  0
  192.1920  176.6620  147.9050 O   0  0  0  0  0  1  0  0  0  0  0  0
  1  2  2  0  0  0  0
  2 18  1  0  0  0  0
  2 11  1  0  0  0  0
  3  6  1  0  0  0  0
  4  1  1  0  0  0  0
  4 16  1  0  0  0  0
  5 12  1  0  0  0  0
  6 18  2  0  0  0  0
  7  4  2  0  0  0  0
  8  7  1  0  0  0  0
  8  5  2  0  0  0  0
  9 10  1  0  0  0  0
  9 15  2  0  0  0  0
 11 17  2  0  0  0  0
 12 16  2  0  0  0  0
 13  3  2  0  0  0  0
 13  1  1  0  0  0  0
 14  7  1  0  0  0  0
 14 13  1  0  0  0  0
 17 15  1  0  0  0  0
 17 19  1  0  0  0  0
 18  9  1  0  0  0  0
 20 19  1  0  0  0  0
 20 21  1  0  0  0  0
 21 22  1  1  0  0  0
 23 21  1  0  0  0  0
 23 25  1  0  0  0  0
 24 23  2  0  0  0  0
M  END
>  <MODEL>
6

>  <REMARK>
 VINA RESULT:      -9.6      3.473      6.695
  Name = 
  4 active torsions:
  status: ('A' for Active; 'I' for Inactive)
    1  A    between atoms: C_2  and  C_21
    2  A    between atoms: C_6  and  C_15
    3  A    between atoms: C_6  and  C_23
    4  A    between atoms: C_15  and  C_21
                            x       y       z     vdW  Elec       q    Type
                         _______ _______ _______ _____ _____    ______ ____

>  <TORSDO>
F 4

$$$$
=
 OpenBabel10262419433D

 25 28  0  0  1  0  0  0  0  0999 V2000
  187.2170  177.9320  145.3690 C   0  0  0  0  0  0  0  0  0  0  0  0
  186.3960  178.2740  144.2740 C   0  0  0  0  0  0  0  0  0  0  0  0
  185.3640  178.2880  146.9180 C   0  0  0  0  0  3  0  0  0  0  0  0
  188.5750  177.5540  145.3660 C   0  0  0  0  0  0  0  0  0  0  0  0
  191.2300  176.7740  145.7580 C   0  0  0  0  0  3  0  0  0  0  0  0
  184.5420  178.6300  145.8400 C   0  0  0  0  0  3  0  0  0  0  0  0
  189.0620  177.2850  146.6430 C   0  0  0  0  0  0  0  0  0  0  0  0
  190.3800  176.8950  146.8670 C   0  0  0  0  0  3  0  0  0  0  0  0
  184.2040  178.9760  143.4370 C   0  0  0  0  0  0  0  0  0  0  0  0
  182.7740  179.3600  143.6360 C   0  0  0  0  0  1  0  0  0  0  0  0
  186.8790  178.2750  142.9590 C   0  0  0  0  0  3  0  0  0  0  0  0
  190.7540  177.0410  144.4620 C   0  0  0  0  0  3  0  0  0  0  0  0
  186.6860  177.9450  146.6600 C   0  0  0  0  0  0  0  0  0  0  0  0
  187.8530  177.5030  147.7940 S   0  0  0  0  0  0  0  0  0  0  0  0
  184.7130  178.9700  142.1360 C   0  0  0  0  0  3  0  0  0  0  0  0
  189.4220  177.4330  144.2590 C   0  0  0  0  0  3  0  0  0  0  0  0
  186.0420  178.6170  141.8940 C   0  0  0  0  0  0  0  0  0  0  0  0
  185.0380  178.6290  144.5180 C   0  0  0  0  0  0  0  0  0  0  0  0
  186.5760  178.6330  140.5050 C   0  0  0  0  0  2  0  0  0  0  0  0
  187.8610  177.8260  140.4300 C   0  0  0  0  0  2  0  0  0  0  0  0
  188.5720  178.0790  139.1110 C   0  0  2  0  0  3  0  0  0  0  0  0
  189.0720  179.3810  139.0930 O   0  0  0  0  0  1  0  0  0  0  0  0
  187.6460  177.8770  137.9560 C   0  0  0  0  0  0  0  0  0  0  0  0
  187.4700  178.8950  137.0290 O   0  0  0  0  0  0  0  0  0  0  0  0
  187.0350  176.7850  137.8100 O   0  0  0  0  0  1  0  0  0  0  0  0
  1 13  2  0  0  0  0
  2 18  1  0  0  0  0
  2  1  1  0  0  0  0
  4  1  1  0  0  0  0
  4  7  1  0  0  0  0
  5  8  1  0  0  0  0
  6  3  2  0  0  0  0
  7  8  2  0  0  0  0
  7 14  1  0  0  0  0
  9 10  1  0  0  0  0
  9 18  2  0  0  0  0
 11  2  2  0  0  0  0
 12  5  2  0  0  0  0
 13  3  1  0  0  0  0
 13 14  1  0  0  0  0
 15  9  1  0  0  0  0
 16 12  1  0  0  0  0
 16  4  2  0  0  0  0
 17 15  2  0  0  0  0
 17 11  1  0  0  0  0
 18  6  1  0  0  0  0
 19 17  1  0  0  0  0
 20 19  1  0  0  0  0
 21 22  1  1  0  0  0
 21 20  1  0  0  0  0
 23 21  1  0  0  0  0
 24 23  2  0  0  0  0
 25 23  1  0  0  0  0
M  END
>  <MODEL>
7

>  <REMARK>
 VINA RESULT:      -9.5      1.392      4.726
  Name = 
  4 active torsions:
  status: ('A' for Active; 'I' for Inactive)
    1  A    between atoms: C_2  and  C_21
    2  A    between atoms: C_6  and  C_15
    3  A    between atoms: C_6  and  C_23
    4  A    between atoms: C_15  and  C_21
                            x       y       z     vdW  Elec       q    Type
                         _______ _______ _______ _____ _____    ______ ____

>  <TORSDO>
F 4

$$$$
=
 OpenBabel10262419433D

 25 28  0  0  1  0  0  0  0  0999 V2000
  185.9450  178.3050  144.5340 C   0  0  0  0  0  0  0  0  0  0  0  0
  185.8450  178.4270  143.1330 C   0  0  0  0  0  0  0  0  0  0  0  0
  183.5670  178.7940  144.7860 C   0  0  0  0  0  3  0  0  0  0  0  0
  187.0830  178.0060  145.3120 C   0  0  0  0  0  0  0  0  0  0  0  0
  189.0930  177.4430  147.1700 C   0  0  0  0  0  3  0  0  0  0  0  0
  183.4560  178.9180  143.3980 C   0  0  0  0  0  3  0  0  0  0  0  0
  186.8070  177.9660  146.6770 C   0  0  0  0  0  0  0  0  0  0  0  0
  187.7890  177.6880  147.6240 C   0  0  0  0  0  3  0  0  0  0  0  0
  184.4600  178.8690  141.1620 C   0  0  0  0  0  0  0  0  0  0  0  0
  183.1580  179.1990  140.5080 C   0  0  0  0  0  1  0  0  0  0  0  0
  186.9530  178.2510  142.2930 C   0  0  0  0  0  3  0  0  0  0  0  0
  189.3890  177.4800  145.7960 C   0  0  0  0  0  3  0  0  0  0  0  0
  184.8110  178.4890  145.3260 C   0  0  0  0  0  0  0  0  0  0  0  0
  185.1800  178.2920  146.9600 S   0  0  0  0  0  0  0  0  0  0  0  0
  185.5820  178.6890  140.3490 C   0  0  0  0  0  3  0  0  0  0  0  0
  188.3830  177.7620  144.8580 C   0  0  0  0  0  3  0  0  0  0  0  0
  186.8220  178.3760  140.9080 C   0  0  0  0  0  0  0  0  0  0  0  0
  184.5780  178.7400  142.5600 C   0  0  0  0  0  0  0  0  0  0  0  0
  188.0130  178.2060  140.0310 C   0  0  0  0  0  2  0  0  0  0  0  0
  189.2700  178.0820  140.8760 C   0  0  0  0  0  2  0  0  0  0  0  0
  190.0050  176.7930  140.5490 C   0  0  2  0  0  3  0  0  0  0  0  0
  190.2630  176.0900  141.7260 O   0  0  0  0  0  1  0  0  0  0  0  0
  191.2880  177.0740  139.8360 C   0  0  0  0  0  0  0  0  0  0  0  0
  192.3570  177.6210  140.5340 O   0  0  0  0  0  1  0  0  0  0  0  0
  191.4120  176.8070  138.6120 O   0  0  0  0  0  0  0  0  0  0  0  0
  1  4  1  0  0  0  0
  1 13  2  0  0  0  0
  2  1  1  0  0  0  0
  3 13  1  0  0  0  0
  4  7  1  0  0  0  0
  5  8  1  0  0  0  0
  6  3  2  0  0  0  0
  7 14  1  0  0  0  0
  7  8  2  0  0  0  0
  9 18  2  0  0  0  0
 10  9  1  0  0  0  0
 11  2  2  0  0  0  0
 12  5  2  0  0  0  0
 13 14  1  0  0  0  0
 15 17  2  0  0  0  0
 15  9  1  0  0  0  0
 16  4  2  0  0  0  0
 16 12  1  0  0  0  0
 17 11  1  0  0  0  0
 18  2  1  0  0  0  0
 18  6  1  0  0  0  0
 19 20  1  0  0  0  0
 19 17  1  0  0  0  0
 21 20  1  0  0  0  0
 21 22  1  1  0  0  0
 23 24  1  0  0  0  0
 23 21  1  0  0  0  0
 25 23  2  0  0  0  0
M  END
>  <MODEL>
8

>  <REMARK>
 VINA RESULT:      -9.2      1.562      4.891
  Name = 
  4 active torsions:
  status: ('A' for Active; 'I' for Inactive)
    1  A    between atoms: C_2  and  C_21
    2  A    between atoms: C_6  and  C_15
    3  A    between atoms: C_6  and  C_23
    4  A    between atoms: C_15  and  C_21
                            x       y       z     vdW  Elec       q    Type
                         _______ _______ _______ _____ _____    ______ ____

>  <TORSDO>
F 4

$$$$
=
 OpenBabel10262419433D

 25 28  0  0  1  0  0  0  0  0999 V2000
  184.6550  178.3290  143.7910 C   0  0  0  0  0  0  0  0  0  0  0  0
  185.9460  177.9200  144.1850 C   0  0  0  0  0  0  0  0  0  0  0  0
  184.0760  178.8580  146.1030 C   0  0  0  0  0  3  0  0  0  0  0  0
  184.0950  178.3510  142.4970 C   0  0  0  0  0  0  0  0  0  0  0  0
  182.6540  178.5360  140.1090 C   0  0  0  0  0  3  0  0  0  0  0  0
  185.3530  178.4540  146.5040 C   0  0  0  0  0  3  0  0  0  0  0  0
  182.7830  178.8200  142.4850 C   0  0  0  0  0  0  0  0  0  0  0  0
  182.0430  178.9230  141.3100 C   0  0  0  0  0  3  0  0  0  0  0  0
  187.5800  177.5770  145.9760 C   0  0  0  0  0  0  0  0  0  0  0  0
  187.9990  177.6200  147.4090 C   0  0  0  0  0  1  0  0  0  0  0  0
  186.8890  177.4540  143.2590 C   0  0  0  0  0  3  0  0  0  0  0  0
  183.9770  178.0600  140.1030 C   0  0  0  0  0  3  0  0  0  0  0  0
  183.7530  178.7880  144.7530 C   0  0  0  0  0  0  0  0  0  0  0  0
  182.2840  179.2170  144.0440 S   0  0  0  0  0  0  0  0  0  0  0  0
  188.4990  177.1150  145.0310 C   0  0  0  0  0  3  0  0  0  0  0  0
  184.7050  177.9650  141.3000 C   0  0  0  0  0  3  0  0  0  0  0  0
  188.1610  177.0570  143.6780 C   0  0  0  0  0  0  0  0  0  0  0  0
  186.2960  177.9840  145.5640 C   0  0  0  0  0  0  0  0  0  0  0  0
  189.1440  176.5450  142.6850 C   0  0  0  0  0  2  0  0  0  0  0  0
  190.1040  177.6520  142.2810 C   0  0  0  0  0  2  0  0  0  0  0  0
  191.4560  177.4500  142.9430 C   0  0  2  0  0  3  0  0  0  0  0  0
  191.6040  176.1110  143.3040 O   0  0  0  0  0  1  0  0  0  0  0  0
  191.5960  178.3180  144.1520 C   0  0  0  0  0  0  0  0  0  0  0  0
  191.3650  179.6830  144.0480 O   0  0  0  0  0  0  0  0  0  0  0  0
  191.9060  177.8190  145.2660 O   0  0  0  0  0  1  0  0  0  0  0  0
  1  2  2  0  0  0  0
  1 13  1  0  0  0  0
  2 18  1  0  0  0  0
  3  6  1  0  0  0  0
  4  1  1  0  0  0  0
  5  8  1  0  0  0  0
  7  4  1  0  0  0  0
  7 14  1  0  0  0  0
  8  7  2  0  0  0  0
  9 10  1  0  0  0  0
 11 17  2  0  0  0  0
 11  2  1  0  0  0  0
 12  5  2  0  0  0  0
 12 16  1  0  0  0  0
 13  3  2  0  0  0  0
 14 13  1  0  0  0  0
 15  9  2  0  0  0  0
 16  4  2  0  0  0  0
 17 15  1  0  0  0  0
 18  9  1  0  0  0  0
 18  6  2  0  0  0  0
 19 17  1  0  0  0  0
 20 19  1  0  0  0  0
 20 21  1  0  0  0  0
 21 22  1  1  0  0  0
 21 23  1  0  0  0  0
 23 25  1  0  0  0  0
 24 23  2  0  0  0  0
M  END
>  <MODEL>
9

>  <REMARK>
 VINA RESULT:      -9.2      2.550      3.752
  Name = 
  4 active torsions:
  status: ('A' for Active; 'I' for Inactive)
    1  A    between atoms: C_2  and  C_21
    2  A    between atoms: C_6  and  C_15
    3  A    between atoms: C_6  and  C_23
    4  A    between atoms: C_15  and  C_21
                            x       y       z     vdW  Elec       q    Type
                         _______ _______ _______ _____ _____    ______ ____

>  <TORSDO>
F 4

$$$$
