=
 OpenBabel10262419353D

 31 34  0  0  1  0  0  0  0  0999 V2000
  186.0080  178.1990  146.3930 C   0  0  0  0  0  0  0  0  0  0  0  0
  186.9290  178.0950  142.7760 C   0  0  0  0  0  0  0  0  0  0  0  0
  188.3760  177.6160  142.8170 C   0  0  1  0  0  3  0  0  0  0  0  0
  189.5530  175.4290  143.3700 C   0  0  0  0  0  3  0  0  0  0  0  0
  186.1920  178.2650  143.9680 C   0  0  0  0  0  0  0  0  0  0  0  0
  184.6760  178.6120  146.3090 C   0  0  0  0  0  3  0  0  0  0  0  0
  188.4570  176.2110  143.3690 C   0  0  0  0  0  3  0  0  0  0  0  0
  184.9690  178.8320  141.5270 C   0  0  0  0  0  0  0  0  0  0  0  0
  186.5670  177.9610  147.6030 F   0  0  0  0  0  0  0  0  0  0  0  0
  188.5410  178.7170  140.5110 C   0  0  0  0  0  2  0  0  0  0  0  0
  190.8810  175.7580  142.7330 C   0  0  0  0  0  2  0  0  0  0  0  0
  184.2780  178.9500  142.6910 N   0  0  0  0  0  0  0  0  0  0  0  0
  186.3150  178.4210  141.5450 C   0  0  0  0  0  0  0  0  0  0  0  0
  186.7620  178.0260  145.2300 C   0  0  0  0  0  3  0  0  0  0  0  0
  191.2480  177.2320  142.8570 C   0  0  0  0  0  2  0  0  0  0  0  0
  184.8480  178.6930  143.8950 C   0  0  0  0  0  0  0  0  0  0  0  0
  184.0970  178.8590  145.0630 C   0  0  0  0  0  3  0  0  0  0  0  0
  187.0940  178.3320  140.2640 C   0  0  0  0  0  2  0  0  0  0  0  0
  189.1470  177.7220  141.4870 C   0  0  1  0  0  3  0  0  0  0  0  0
  190.6180  178.0590  141.7330 C   0  0  0  0  0  2  0  0  0  0  0  0
  184.2600  179.1190  140.2410 C   0  0  0  0  0  2  0  0  0  0  0  0
  182.8520  177.2360  140.3230 O   0  0  0  0  0  0  0  0  0  0  0  0
  182.9240  178.4520  140.2250 C   0  0  0  0  0  0  0  0  0  0  0  0
  181.6420  179.9000  138.6630 C   0  0  0  0  0  1  0  0  0  0  0  0
  181.6860  179.2800  140.0490 C   0  0  1  0  0  3  0  0  0  0  0  0
  179.9460  177.6480  139.3270 O   0  0  0  0  0  1  0  0  0  0  0  0
  180.4470  178.4790  140.3230 C   0  0  0  0  0  0  0  0  0  0  0  0
  179.8080  178.5160  141.4970 C   0  0  0  0  0  3  0  0  0  0  0  0
  180.1780  179.3180  142.6780 C   0  0  0  0  0  0  0  0  0  0  0  0
  180.7040  178.6230  143.8800 C   0  0  0  0  0  1  0  0  0  0  0  0
  180.0600  180.5730  142.6940 O   0  0  0  0  0  0  0  0  0  0  0  0
  1  9  1  0  0  0  0
  2  3  1  0  0  0  0
  2  5  1  0  0  0  0
  3  7  1  6  0  0  0
  5 14  1  0  0  0  0
  6  1  1  0  0  0  0
  7  4  2  0  0  0  0
  8 13  1  0  0  0  0
  8 12  2  0  0  0  0
 11 15  1  0  0  0  0
 11  4  1  0  0  0  0
 12 16  1  0  0  0  0
 13  2  2  0  0  0  0
 14  1  2  0  0  0  0
 16  5  2  0  0  0  0
 16 17  1  0  0  0  0
 17  6  2  0  0  0  0
 18 10  1  0  0  0  0
 18 13  1  0  0  0  0
 19 10  1  6  0  0  0
 19 20  1  0  0  0  0
 19  3  1  0  0  0  0
 20 15  1  0  0  0  0
 21  8  1  0  0  0  0
 23 21  1  0  0  0  0
 23 22  2  0  0  0  0
 25 24  1  6  0  0  0
 25 23  1  0  0  0  0
 25 27  1  0  0  0  0
 26 27  1  0  0  0  0
 27 28  2  0  0  0  0
 28 29  1  0  0  0  0
 29 31  2  0  0  0  0
 29 30  1  0  0  0  0
M  END
>  <MODEL>
1

>  <REMARK>
 VINA RESULT:      -8.4      0.000      0.000
  Name = 
  5 active torsions:
  status: ('A' for Active; 'I' for Inactive)
    1  A    between atoms: C_1  and  C_24
    2  A    between atoms: C_9  and  C_22
    3  A    between atoms: C_9  and  C_23
    4  A    between atoms: C_15  and  C_23
    5  A    between atoms: C_19  and  C_22
                            x       y       z     vdW  Elec       q    Type
                         _______ _______ _______ _____ _____    ______ ____

>  <TORSDO>
F 5

$$$$
=
 OpenBabel10262419353D

 31 34  0  0  1  0  0  0  0  0999 V2000
  190.5040  177.2440  138.8550 C   0  0  0  0  0  0  0  0  0  0  0  0
  188.3230  177.9850  141.7950 C   0  0  0  0  0  0  0  0  0  0  0  0
  189.2570  177.7280  142.9720 C   0  0  1  0  0  3  0  0  0  0  0  0
  191.2970  178.8820  143.9610 C   0  0  0  0  0  3  0  0  0  0  0  0
  188.7750  177.8200  140.4680 C   0  0  0  0  0  0  0  0  0  0  0  0
  189.6240  177.5170  137.8050 C   0  0  0  0  0  3  0  0  0  0  0  0
  190.4020  178.7140  142.9690 C   0  0  0  0  0  3  0  0  0  0  0  0
  186.1370  178.6100  140.9120 C   0  0  0  0  0  0  0  0  0  0  0  0
  191.7680  176.8360  138.5910 F   0  0  0  0  0  0  0  0  0  0  0  0
  187.0890  177.4050  144.2960 C   0  0  0  0  0  2  0  0  0  0  0  0
  191.2740  178.1970  145.3050 C   0  0  0  0  0  2  0  0  0  0  0  0
  186.6160  178.4780  139.6480 N   0  0  0  0  0  0  0  0  0  0  0  0
  186.9740  178.3480  142.0140 C   0  0  0  0  0  0  0  0  0  0  0  0
  190.0820  177.3940  140.1790 C   0  0  0  0  0  3  0  0  0  0  0  0
  190.7960  176.7520  145.2250 C   0  0  0  0  0  2  0  0  0  0  0  0
  187.8900  178.0840  139.3980 C   0  0  0  0  0  0  0  0  0  0  0  0
  188.3200  177.9360  138.0760 C   0  0  0  0  0  3  0  0  0  0  0  0
  186.4360  178.4520  143.4120 C   0  0  0  0  0  2  0  0  0  0  0  0
  188.5810  177.6850  144.3570 C   0  0  1  0  0  3  0  0  0  0  0  0
  189.2680  176.6690  145.2690 C   0  0  0  0  0  2  0  0  0  0  0  0
  184.7250  179.0650  141.0990 C   0  0  0  0  0  2  0  0  0  0  0  0
  184.5420  180.2670  139.0850 O   0  0  0  0  0  0  0  0  0  0  0  0
  184.0960  179.3650  139.7780 C   0  0  0  0  0  0  0  0  0  0  0  0
  183.1120  177.0920  139.5600 C   0  0  0  0  0  1  0  0  0  0  0  0
  182.8990  178.5790  139.3340 C   0  0  1  0  0  3  0  0  0  0  0  0
  181.2350  178.4280  141.1840 O   0  0  0  0  0  1  0  0  0  0  0  0
  181.6490  179.0550  140.0130 C   0  0  0  0  0  0  0  0  0  0  0  0
  180.9180  180.0750  139.5490 C   0  0  0  0  0  3  0  0  0  0  0  0
  181.1860  180.8730  138.3390 C   0  0  0  0  0  0  0  0  0  0  0  0
  180.7600  180.3400  137.0200 C   0  0  0  0  0  1  0  0  0  0  0  0
  181.7660  181.9900  138.3930 O   0  0  0  0  0  0  0  0  0  0  0  0
  1 14  1  0  0  0  0
  2 13  2  0  0  0  0
  2  3  1  0  0  0  0
  3  7  1  1  0  0  0
  3 19  1  0  0  0  0
  4 11  1  0  0  0  0
  5  2  1  0  0  0  0
  6 17  1  0  0  0  0
  6  1  2  0  0  0  0
  7  4  2  0  0  0  0
  8 21  1  0  0  0  0
  8 13  1  0  0  0  0
  9  1  1  0  0  0  0
 12  8  2  0  0  0  0
 13 18  1  0  0  0  0
 14  5  2  0  0  0  0
 15 20  1  0  0  0  0
 15 11  1  0  0  0  0
 16 12  1  0  0  0  0
 16  5  1  0  0  0  0
 17 16  2  0  0  0  0
 18 10  1  0  0  0  0
 19 10  1  6  0  0  0
 19 20  1  0  0  0  0
 22 23  2  0  0  0  0
 23 21  1  0  0  0  0
 25 24  1  1  0  0  0
 25 23  1  0  0  0  0
 25 27  1  0  0  0  0
 27 26  1  0  0  0  0
 28 27  2  0  0  0  0
 29 31  2  0  0  0  0
 29 28  1  0  0  0  0
 30 29  1  0  0  0  0
M  END
>  <MODEL>
2

>  <REMARK>
 VINA RESULT:      -8.3      2.762      4.747
  Name = 
  5 active torsions:
  status: ('A' for Active; 'I' for Inactive)
    1  A    between atoms: C_1  and  C_24
    2  A    between atoms: C_9  and  C_22
    3  A    between atoms: C_9  and  C_23
    4  A    between atoms: C_15  and  C_23
    5  A    between atoms: C_19  and  C_22
                            x       y       z     vdW  Elec       q    Type
                         _______ _______ _______ _____ _____    ______ ____

>  <TORSDO>
F 5

$$$$
=
 OpenBabel10262419353D

 31 34  0  0  1  0  0  0  0  0999 V2000
  189.8540  177.5550  138.8660 C   0  0  0  0  0  0  0  0  0  0  0  0
  188.0070  178.0680  142.0710 C   0  0  0  0  0  0  0  0  0  0  0  0
  189.0770  177.7810  143.1180 C   0  0  1  0  0  3  0  0  0  0  0  0
  191.1860  178.9500  143.9310 C   0  0  0  0  0  3  0  0  0  0  0  0
  188.3070  177.9880  140.6940 C   0  0  0  0  0  0  0  0  0  0  0  0
  188.8510  177.8540  137.9390 C   0  0  0  0  0  3  0  0  0  0  0  0
  190.1870  178.8040  143.0400 C   0  0  0  0  0  3  0  0  0  0  0  0
  185.7180  178.6650  141.4790 C   0  0  0  0  0  0  0  0  0  0  0  0
  191.0890  177.2050  138.4370 F   0  0  0  0  0  0  0  0  0  0  0  0
  187.0860  177.3160  144.6600 C   0  0  0  0  0  2  0  0  0  0  0  0
  191.3370  178.1950  145.2290 C   0  0  0  0  0  2  0  0  0  0  0  0
  186.0510  178.6150  140.1630 N   0  0  0  0  0  0  0  0  0  0  0  0
  186.6830  178.3740  142.4620 C   0  0  0  0  0  0  0  0  0  0  0  0
  189.5830  177.6220  140.2350 C   0  0  0  0  0  3  0  0  0  0  0  0
  190.8930  176.7410  145.1230 C   0  0  0  0  0  2  0  0  0  0  0  0
  187.2970  178.2770  139.7480 C   0  0  0  0  0  0  0  0  0  0  0  0
  187.5760  178.2140  138.3790 C   0  0  0  0  0  3  0  0  0  0  0  0
  186.3070  178.3860  143.9150 C   0  0  0  0  0  2  0  0  0  0  0  0
  188.5670  177.6430  144.5660 C   0  0  1  0  0  3  0  0  0  0  0  0
  189.3820  176.6040  145.3360 C   0  0  0  0  0  2  0  0  0  0  0  0
  184.3240  179.0620  141.8500 C   0  0  0  0  0  2  0  0  0  0  0  0
  183.4280  177.1820  140.7560 O   0  0  0  0  0  0  0  0  0  0  0  0
  183.3360  178.3830  140.9590 C   0  0  0  0  0  0  0  0  0  0  0  0
  182.6580  179.5440  138.8680 C   0  0  0  0  0  1  0  0  0  0  0  0
  182.2650  179.1930  140.2930 C   0  0  1  0  0  3  0  0  0  0  0  0
  180.5800  177.6700  139.2630 O   0  0  0  0  0  1  0  0  0  0  0  0
  180.9410  178.4870  140.3300 C   0  0  0  0  0  0  0  0  0  0  0  0
  180.0930  178.5960  141.3590 C   0  0  0  0  0  3  0  0  0  0  0  0
  180.2880  179.3970  142.5810 C   0  0  0  0  0  0  0  0  0  0  0  0
  180.7370  178.7140  143.8220 C   0  0  0  0  0  1  0  0  0  0  0  0
  180.0850  180.6400  142.6020 O   0  0  0  0  0  0  0  0  0  0  0  0
  1 14  1  0  0  0  0
  2 13  2  0  0  0  0
  2  3  1  0  0  0  0
  3  7  1  1  0  0  0
  3 19  1  0  0  0  0
  4 11  1  0  0  0  0
  5  2  1  0  0  0  0
  6 17  1  0  0  0  0
  6  1  2  0  0  0  0
  7  4  2  0  0  0  0
  8 21  1  0  0  0  0
  8 13  1  0  0  0  0
  9  1  1  0  0  0  0
 12  8  2  0  0  0  0
 13 18  1  0  0  0  0
 14  5  2  0  0  0  0
 15 11  1  0  0  0  0
 15 20  1  0  0  0  0
 16 12  1  0  0  0  0
 16  5  1  0  0  0  0
 17 16  2  0  0  0  0
 18 10  1  0  0  0  0
 19 10  1  6  0  0  0
 19 20  1  0  0  0  0
 22 23  2  0  0  0  0
 23 21  1  0  0  0  0
 25 24  1  6  0  0  0
 25 27  1  0  0  0  0
 25 23  1  0  0  0  0
 26 27  1  0  0  0  0
 27 28  2  0  0  0  0
 28 29  1  0  0  0  0
 29 31  2  0  0  0  0
 29 30  1  0  0  0  0
M  END
>  <MODEL>
3

>  <REMARK>
 VINA RESULT:      -8.3      2.331      4.089
  Name = 
  5 active torsions:
  status: ('A' for Active; 'I' for Inactive)
    1  A    between atoms: C_1  and  C_24
    2  A    between atoms: C_9  and  C_22
    3  A    between atoms: C_9  and  C_23
    4  A    between atoms: C_15  and  C_23
    5  A    between atoms: C_19  and  C_22
                            x       y       z     vdW  Elec       q    Type
                         _______ _______ _______ _____ _____    ______ ____

>  <TORSDO>
F 5

$$$$
=
 OpenBabel10262419353D

 31 34  0  0  1  0  0  0  0  0999 V2000
  190.6540  177.0700  139.0380 C   0  0  0  0  0  0  0  0  0  0  0  0
  188.4300  177.9630  141.9030 C   0  0  0  0  0  0  0  0  0  0  0  0
  189.3280  177.7130  143.1080 C   0  0  1  0  0  3  0  0  0  0  0  0
  191.3800  178.8340  144.1120 C   0  0  0  0  0  3  0  0  0  0  0  0
  188.9070  177.7460  140.5920 C   0  0  0  0  0  0  0  0  0  0  0  0
  189.8070  177.3390  137.9600 C   0  0  0  0  0  3  0  0  0  0  0  0
  190.5040  178.6630  143.1040 C   0  0  0  0  0  3  0  0  0  0  0  0
  186.2860  178.6280  140.9500 C   0  0  0  0  0  0  0  0  0  0  0  0
  191.9100  176.6170  138.8160 F   0  0  0  0  0  0  0  0  0  0  0  0
  187.1220  177.4950  144.3890 C   0  0  0  0  0  2  0  0  0  0  0  0
  191.3060  178.1900  145.4740 C   0  0  0  0  0  2  0  0  0  0  0  0
  186.7890  178.4440  139.7020 N   0  0  0  0  0  0  0  0  0  0  0  0
  187.0880  178.3730  142.0790 C   0  0  0  0  0  0  0  0  0  0  0  0
  190.2060  177.2720  140.3470 C   0  0  0  0  0  3  0  0  0  0  0  0
  190.7860  176.7580  145.4240 C   0  0  0  0  0  2  0  0  0  0  0  0
  188.0550  178.0040  139.4940 C   0  0  0  0  0  0  0  0  0  0  0  0
  188.5100  177.8050  138.1870 C   0  0  0  0  0  3  0  0  0  0  0  0
  186.5220  178.5340  143.4600 C   0  0  0  0  0  2  0  0  0  0  0  0
  188.6200  177.7310  144.4780 C   0  0  1  0  0  3  0  0  0  0  0  0
  189.2550  176.7220  145.4350 C   0  0  0  0  0  2  0  0  0  0  0  0
  184.8840  179.1310  141.0910 C   0  0  0  0  0  2  0  0  0  0  0  0
  184.2980  180.1280  139.0430 O   0  0  0  0  0  0  0  0  0  0  0  0
  184.2020  179.1450  139.7620 C   0  0  0  0  0  0  0  0  0  0  0  0
  182.4000  177.5720  140.4400 C   0  0  0  0  0  1  0  0  0  0  0  0
  183.3740  177.9680  139.3430 C   0  0  1  0  0  3  0  0  0  0  0  0
  181.5920  179.1290  138.0440 O   0  0  0  0  0  1  0  0  0  0  0  0
  182.6560  178.2340  138.0530 C   0  0  0  0  0  0  0  0  0  0  0  0
  183.0070  177.6570  136.8990 C   0  0  0  0  0  3  0  0  0  0  0  0
  184.1040  176.6930  136.6920 C   0  0  0  0  0  0  0  0  0  0  0  0
  185.4530  177.2070  136.3450 C   0  0  0  0  0  1  0  0  0  0  0  0
  183.9270  175.4500  136.8010 O   0  0  0  0  0  0  0  0  0  0  0  0
  1 14  1  0  0  0  0
  2 13  2  0  0  0  0
  2  3  1  0  0  0  0
  3  7  1  1  0  0  0
  3 19  1  0  0  0  0
  4 11  1  0  0  0  0
  5  2  1  0  0  0  0
  6 17  1  0  0  0  0
  6  1  2  0  0  0  0
  7  4  2  0  0  0  0
  8 21  1  0  0  0  0
  8 13  1  0  0  0  0
  9  1  1  0  0  0  0
 12  8  2  0  0  0  0
 13 18  1  0  0  0  0
 14  5  2  0  0  0  0
 15 20  1  0  0  0  0
 15 11  1  0  0  0  0
 16 12  1  0  0  0  0
 16  5  1  0  0  0  0
 17 16  2  0  0  0  0
 18 10  1  0  0  0  0
 19 10  1  6  0  0  0
 19 20  1  0  0  0  0
 22 23  2  0  0  0  0
 23 21  1  0  0  0  0
 25 23  1  0  0  0  0
 25 24  1  1  0  0  0
 26 27  1  0  0  0  0
 27 25  1  0  0  0  0
 28 27  2  0  0  0  0
 29 31  2  0  0  0  0
 29 28  1  0  0  0  0
 30 29  1  0  0  0  0
M  END
>  <MODEL>
4

>  <REMARK>
 VINA RESULT:      -8.2      2.978      5.249
  Name = 
  5 active torsions:
  status: ('A' for Active; 'I' for Inactive)
    1  A    between atoms: C_1  and  C_24
    2  A    between atoms: C_9  and  C_22
    3  A    between atoms: C_9  and  C_23
    4  A    between atoms: C_15  and  C_23
    5  A    between atoms: C_19  and  C_22
                            x       y       z     vdW  Elec       q    Type
                         _______ _______ _______ _____ _____    ______ ____

>  <TORSDO>
F 5

$$$$
=
 OpenBabel10262419353D

 31 34  0  0  1  0  0  0  0  0999 V2000
  182.2000  178.7450  143.6840 C   0  0  0  0  0  0  0  0  0  0  0  0
  184.3850  178.6740  140.6560 C   0  0  0  0  0  0  0  0  0  0  0  0
  183.3730  178.5770  139.5210 C   0  0  1  0  0  3  0  0  0  0  0  0
  181.6590  180.1390  138.4740 C   0  0  0  0  0  3  0  0  0  0  0  0
  183.9570  178.7320  142.0000 C   0  0  0  0  0  0  0  0  0  0  0  0
  183.1600  178.8620  144.6930 C   0  0  0  0  0  3  0  0  0  0  0  0
  182.5180  179.8220  139.4610 C   0  0  0  0  0  3  0  0  0  0  0  0
  186.6900  178.7800  141.4470 C   0  0  0  0  0  0  0  0  0  0  0  0
  180.8850  178.6980  144.0030 F   0  0  0  0  0  0  0  0  0  0  0  0
  185.3350  177.6060  138.1920 C   0  0  0  0  0  2  0  0  0  0  0  0
  181.4550  179.3700  137.1910 C   0  0  0  0  0  2  0  0  0  0  0  0
  186.2410  178.8720  142.7260 N   0  0  0  0  0  0  0  0  0  0  0  0
  185.7730  178.6590  140.3850 C   0  0  0  0  0  0  0  0  0  0  0  0
  182.5960  178.6800  142.3460 C   0  0  0  0  0  3  0  0  0  0  0  0
  181.5510  177.8620  137.3840 C   0  0  0  0  0  2  0  0  0  0  0  0
  184.9200  178.8390  143.0290 C   0  0  0  0  0  0  0  0  0  0  0  0
  184.5160  178.9090  144.3660 C   0  0  0  0  0  3  0  0  0  0  0  0
  186.2660  178.5140  138.9750 C   0  0  0  0  0  2  0  0  0  0  0  0
  183.9620  178.2560  138.1330 C   0  0  1  0  0  3  0  0  0  0  0  0
  183.0040  177.3840  137.3200 C   0  0  0  0  0  2  0  0  0  0  0  0
  188.1630  178.8410  141.1990 C   0  0  0  0  0  2  0  0  0  0  0  0
  189.0620  176.7740  140.5260 O   0  0  0  0  0  0  0  0  0  0  0  0
  188.7890  177.5100  141.4620 C   0  0  0  0  0  0  0  0  0  0  0  0
  189.5000  175.6310  142.9260 C   0  0  0  0  0  1  0  0  0  0  0  0
  189.0390  177.0780  142.8750 C   0  0  1  0  0  3  0  0  0  0  0  0
  191.0800  178.5080  142.8270 O   0  0  0  0  0  1  0  0  0  0  0  0
  190.0210  177.9820  143.5600 C   0  0  0  0  0  0  0  0  0  0  0  0
  189.9130  178.3220  144.8490 C   0  0  0  0  0  3  0  0  0  0  0  0
  188.8670  177.8850  145.7920 C   0  0  0  0  0  0  0  0  0  0  0  0
  189.2540  177.0370  146.9480 C   0  0  0  0  0  1  0  0  0  0  0  0
  187.6590  178.2090  145.6430 O   0  0  0  0  0  0  0  0  0  0  0  0
  1  9  1  0  0  0  0
  1  6  1  0  0  0  0
  2  5  1  0  0  0  0
  3  7  1  6  0  0  0
  3  2  1  0  0  0  0
  4  7  2  0  0  0  0
  5 14  1  0  0  0  0
  5 16  2  0  0  0  0
  8 12  2  0  0  0  0
 10 18  1  0  0  0  0
 11 15  1  0  0  0  0
 11  4  1  0  0  0  0
 12 16  1  0  0  0  0
 13  2  2  0  0  0  0
 13  8  1  0  0  0  0
 14  1  2  0  0  0  0
 16 17  1  0  0  0  0
 17  6  2  0  0  0  0
 18 13  1  0  0  0  0
 19 20  1  1  0  0  0
 19 10  1  0  0  0  0
 19  3  1  0  0  0  0
 20 15  1  0  0  0  0
 21  8  1  0  0  0  0
 21 23  1  0  0  0  0
 22 23  2  0  0  0  0
 23 25  1  0  0  0  0
 25 24  1  6  0  0  0
 25 27  1  0  0  0  0
 26 27  1  0  0  0  0
 27 28  2  0  0  0  0
 28 29  1  0  0  0  0
 29 30  1  0  0  0  0
 31 29  2  0  0  0  0
M  END
>  <MODEL>
5

>  <REMARK>
 VINA RESULT:      -8.1      3.150      7.150
  Name = 
  5 active torsions:
  status: ('A' for Active; 'I' for Inactive)
    1  A    between atoms: C_1  and  C_24
    2  A    between atoms: C_9  and  C_22
    3  A    between atoms: C_9  and  C_23
    4  A    between atoms: C_15  and  C_23
    5  A    between atoms: C_19  and  C_22
                            x       y       z     vdW  Elec       q    Type
                         _______ _______ _______ _____ _____    ______ ____

>  <TORSDO>
F 5

$$$$
=
 OpenBabel10262419353D

 31 34  0  0  1  0  0  0  0  0999 V2000
  184.9020  178.6060  145.4960 C   0  0  0  0  0  0  0  0  0  0  0  0
  186.5970  178.2220  142.1900 C   0  0  0  0  0  0  0  0  0  0  0  0
  187.9930  177.7570  142.5880 C   0  0  1  0  0  3  0  0  0  0  0  0
  188.9930  175.6270  143.5560 C   0  0  0  0  0  3  0  0  0  0  0  0
  185.6180  178.4820  143.1740 C   0  0  0  0  0  0  0  0  0  0  0  0
  183.6260  179.0040  145.0870 C   0  0  0  0  0  3  0  0  0  0  0  0
  187.9340  176.4000  143.2520 C   0  0  0  0  0  3  0  0  0  0  0  0
  184.9700  178.8480  140.4860 C   0  0  0  0  0  0  0  0  0  0  0  0
  185.1780  178.4670  146.8140 F   0  0  0  0  0  0  0  0  0  0  0  0
  188.6770  178.6730  140.2970 C   0  0  0  0  0  2  0  0  0  0  0  0
  190.4330  175.9110  143.2040 C   0  0  0  0  0  2  0  0  0  0  0  0
  184.0410  179.0530  141.4560 N   0  0  0  0  0  0  0  0  0  0  0  0
  186.2740  178.4470  140.8320 C   0  0  0  0  0  0  0  0  0  0  0  0
  185.8920  178.3460  144.5440 C   0  0  0  0  0  3  0  0  0  0  0  0
  190.7810  177.3920  143.2910 C   0  0  0  0  0  2  0  0  0  0  0  0
  184.3280  178.8950  142.7720 C   0  0  0  0  0  0  0  0  0  0  0  0
  183.3400  179.1490  143.7290 C   0  0  0  0  0  3  0  0  0  0  0  0
  187.3150  178.2620  139.7670 C   0  0  0  0  0  2  0  0  0  0  0  0
  189.0400  177.7610  141.4560 C   0  0  1  0  0  3  0  0  0  0  0  0
  190.4250  178.1250  141.9950 C   0  0  0  0  0  2  0  0  0  0  0  0
  184.5660  179.0290  139.0570 C   0  0  0  0  0  2  0  0  0  0  0  0
  182.2620  178.7520  138.6710 O   0  0  0  0  0  0  0  0  0  0  0  0
  183.3540  178.2100  138.7530 C   0  0  0  0  0  0  0  0  0  0  0  0
  182.5090  175.9920  139.4910 C   0  0  0  0  0  1  0  0  0  0  0  0
  183.4870  176.7260  138.5900 C   0  0  1  0  0  3  0  0  0  0  0  0
  182.0310  176.1370  136.6540 O   0  0  0  0  0  1  0  0  0  0  0  0
  183.3160  176.3140  137.1570 C   0  0  0  0  0  0  0  0  0  0  0  0
  184.3510  176.1250  136.3320 C   0  0  0  0  0  3  0  0  0  0  0  0
  185.7800  176.2690  136.6620 C   0  0  0  0  0  0  0  0  0  0  0  0
  186.4690  177.5410  136.3250 C   0  0  0  0  0  1  0  0  0  0  0  0
  186.4310  175.3450  137.2200 O   0  0  0  0  0  0  0  0  0  0  0  0
  1  9  1  0  0  0  0
  2  3  1  0  0  0  0
  2  5  1  0  0  0  0
  3  7  1  6  0  0  0
  5 14  1  0  0  0  0
  6  1  1  0  0  0  0
  7  4  2  0  0  0  0
  8 13  1  0  0  0  0
  8 12  2  0  0  0  0
 11 15  1  0  0  0  0
 11  4  1  0  0  0  0
 12 16  1  0  0  0  0
 13  2  2  0  0  0  0
 14  1  2  0  0  0  0
 16  5  2  0  0  0  0
 16 17  1  0  0  0  0
 17  6  2  0  0  0  0
 18 10  1  0  0  0  0
 18 13  1  0  0  0  0
 19 10  1  6  0  0  0
 19 20  1  0  0  0  0
 19  3  1  0  0  0  0
 20 15  1  0  0  0  0
 21  8  1  0  0  0  0
 22 23  2  0  0  0  0
 23 21  1  0  0  0  0
 25 23  1  0  0  0  0
 25 24  1  1  0  0  0
 26 27  1  0  0  0  0
 27 25  1  0  0  0  0
 28 29  1  0  0  0  0
 28 27  2  0  0  0  0
 29 31  2  0  0  0  0
 30 29  1  0  0  0  0
M  END
>  <MODEL>
6

>  <REMARK>
 VINA RESULT:      -8.1      2.191      3.654
  Name = 
  5 active torsions:
  status: ('A' for Active; 'I' for Inactive)
    1  A    between atoms: C_1  and  C_24
    2  A    between atoms: C_9  and  C_22
    3  A    between atoms: C_9  and  C_23
    4  A    between atoms: C_15  and  C_23
    5  A    between atoms: C_19  and  C_22
                            x       y       z     vdW  Elec       q    Type
                         _______ _______ _______ _____ _____    ______ ____

>  <TORSDO>
F 5

$$$$
=
 OpenBabel10262419353D

 31 34  0  0  1  0  0  0  0  0999 V2000
  185.0540  178.6030  145.6640 C   0  0  0  0  0  0  0  0  0  0  0  0
  186.6310  178.2160  142.3010 C   0  0  0  0  0  0  0  0  0  0  0  0
  188.0400  177.7500  142.6480 C   0  0  1  0  0  3  0  0  0  0  0  0
  189.0730  175.6200  143.5820 C   0  0  0  0  0  3  0  0  0  0  0  0
  185.6870  178.4770  143.3180 C   0  0  0  0  0  0  0  0  0  0  0  0
  183.7650  179.0010  145.3010 C   0  0  0  0  0  3  0  0  0  0  0  0
  188.0030  176.3940  143.3150 C   0  0  0  0  0  3  0  0  0  0  0  0
  184.9440  178.8410  140.6550 C   0  0  0  0  0  0  0  0  0  0  0  0
  185.3770  178.4650  146.9720 F   0  0  0  0  0  0  0  0  0  0  0  0
  188.6420  178.6640  140.3340 C   0  0  0  0  0  2  0  0  0  0  0  0
  190.4990  175.9040  143.1790 C   0  0  0  0  0  2  0  0  0  0  0  0
  184.0500  179.0470  141.6570 N   0  0  0  0  0  0  0  0  0  0  0  0
  186.2590  178.4400  140.9550 C   0  0  0  0  0  0  0  0  0  0  0  0
  186.0100  178.3420  144.6780 C   0  0  0  0  0  3  0  0  0  0  0  0
  190.8510  177.3840  143.2520 C   0  0  0  0  0  2  0  0  0  0  0  0
  184.3840  178.8900  142.9620 C   0  0  0  0  0  0  0  0  0  0  0  0
  183.4300  179.1450  143.9530 C   0  0  0  0  0  3  0  0  0  0  0  0
  187.2620  178.2530  139.8530 C   0  0  0  0  0  2  0  0  0  0  0  0
  189.0460  177.7530  141.4800 C   0  0  1  0  0  3  0  0  0  0  0  0
  190.4490  178.1160  141.9680 C   0  0  0  0  0  2  0  0  0  0  0  0
  184.4890  179.0210  139.2410 C   0  0  0  0  0  2  0  0  0  0  0  0
  183.5440  176.8710  139.1160 O   0  0  0  0  0  0  0  0  0  0  0  0
  183.3840  178.0670  138.9260 C   0  0  0  0  0  0  0  0  0  0  0  0
  181.3480  177.4790  137.6250 C   0  0  0  0  0  1  0  0  0  0  0  0
  182.1050  178.5850  138.3410 C   0  0  1  0  0  3  0  0  0  0  0  0
  180.6570  178.4430  140.3650 O   0  0  0  0  0  1  0  0  0  0  0  0
  181.2480  179.2360  139.3870 C   0  0  0  0  0  0  0  0  0  0  0  0
  181.0400  180.5560  139.4310 C   0  0  0  0  0  3  0  0  0  0  0  0
  181.5790  181.5650  138.5010 C   0  0  0  0  0  0  0  0  0  0  0  0
  180.8090  181.8920  137.2740 C   0  0  0  0  0  1  0  0  0  0  0  0
  182.6710  182.1550  138.7180 O   0  0  0  0  0  0  0  0  0  0  0  0
  1  9  1  0  0  0  0
  2  3  1  0  0  0  0
  2  5  1  0  0  0  0
  3  7  1  6  0  0  0
  5 14  1  0  0  0  0
  6  1  1  0  0  0  0
  7  4  2  0  0  0  0
  8 13  1  0  0  0  0
  8 12  2  0  0  0  0
 11 15  1  0  0  0  0
 11  4  1  0  0  0  0
 12 16  1  0  0  0  0
 13  2  2  0  0  0  0
 14  1  2  0  0  0  0
 16  5  2  0  0  0  0
 16 17  1  0  0  0  0
 17  6  2  0  0  0  0
 18 10  1  0  0  0  0
 18 13  1  0  0  0  0
 19 10  1  6  0  0  0
 19 20  1  0  0  0  0
 19  3  1  0  0  0  0
 20 15  1  0  0  0  0
 21  8  1  0  0  0  0
 23 22  2  0  0  0  0
 23 21  1  0  0  0  0
 25 24  1  1  0  0  0
 25 23  1  0  0  0  0
 25 27  1  0  0  0  0
 27 28  2  0  0  0  0
 27 26  1  0  0  0  0
 29 31  2  0  0  0  0
 29 28  1  0  0  0  0
 30 29  1  0  0  0  0
M  END
>  <MODEL>
7

>  <REMARK>
 VINA RESULT:      -8.1      1.440      2.189
  Name = 
  5 active torsions:
  status: ('A' for Active; 'I' for Inactive)
    1  A    between atoms: C_1  and  C_24
    2  A    between atoms: C_9  and  C_22
    3  A    between atoms: C_9  and  C_23
    4  A    between atoms: C_15  and  C_23
    5  A    between atoms: C_19  and  C_22
                            x       y       z     vdW  Elec       q    Type
                         _______ _______ _______ _____ _____    ______ ____

>  <TORSDO>
F 5

$$$$
=
 OpenBabel10262419353D

 31 34  0  0  1  0  0  0  0  0999 V2000
  186.7450  178.4880  138.4790 C   0  0  0  0  0  0  0  0  0  0  0  0
  184.8280  178.3190  141.6800 C   0  0  0  0  0  0  0  0  0  0  0  0
  183.3830  178.4010  141.2040 C   0  0  1  0  0  3  0  0  0  0  0  0
  181.7900  176.8590  139.9540 C   0  0  0  0  0  3  0  0  0  0  0  0
  185.8940  178.3450  140.7540 C   0  0  0  0  0  0  0  0  0  0  0  0
  188.0540  178.3820  138.9560 C   0  0  0  0  0  3  0  0  0  0  0  0
  183.0270  177.1900  140.3720 C   0  0  0  0  0  3  0  0  0  0  0  0
  186.4690  178.1590  143.4770 C   0  0  0  0  0  0  0  0  0  0  0  0
  186.5160  178.6040  137.1500 F   0  0  0  0  0  0  0  0  0  0  0  0
  182.9100  179.2230  143.5820 C   0  0  0  0  0  2  0  0  0  0  0  0
  180.5090  177.5700  140.3160 C   0  0  0  0  0  2  0  0  0  0  0  0
  187.4680  178.1490  142.5570 N   0  0  0  0  0  0  0  0  0  0  0  0
  185.1280  178.2640  143.0610 C   0  0  0  0  0  0  0  0  0  0  0  0
  185.6710  178.4690  139.3730 C   0  0  0  0  0  3  0  0  0  0  0  0
  180.6780  179.0810  140.4140 C   0  0  0  0  0  2  0  0  0  0  0  0
  187.2230  178.2500  141.2270 C   0  0  0  0  0  0  0  0  0  0  0  0
  188.2930  178.2640  140.3260 C   0  0  0  0  0  3  0  0  0  0  0  0
  184.0250  178.3180  144.0770 C   0  0  0  0  0  2  0  0  0  0  0  0
  182.3320  178.6270  142.3090 C   0  0  1  0  0  3  0  0  0  0  0  0
  181.1820  179.4960  141.8000 C   0  0  0  0  0  2  0  0  0  0  0  0
  186.8260  178.0260  144.9230 C   0  0  0  0  0  2  0  0  0  0  0  0
  188.4210  176.3780  144.4020 O   0  0  0  0  0  0  0  0  0  0  0  0
  188.1580  177.3660  145.0710 C   0  0  0  0  0  0  0  0  0  0  0  0
  188.5560  177.8770  147.4710 C   0  0  0  0  0  1  0  0  0  0  0  0
  189.1410  177.8990  146.0690 C   0  0  1  0  0  3  0  0  0  0  0  0
  190.6980  176.1730  146.9680 O   0  0  0  0  0  1  0  0  0  0  0  0
  190.4400  177.1500  146.0130 C   0  0  0  0  0  0  0  0  0  0  0  0
  191.3610  177.3710  145.0680 C   0  0  0  0  0  3  0  0  0  0  0  0
  191.2780  178.3480  143.9680 C   0  0  0  0  0  0  0  0  0  0  0  0
  191.1590  177.8500  142.5740 C   0  0  0  0  0  1  0  0  0  0  0  0
  191.3080  179.5910  144.1770 O   0  0  0  0  0  0  0  0  0  0  0  0
  1  6  2  0  0  0  0
  1 14  1  0  0  0  0
  2 13  2  0  0  0  0
  3  7  1  1  0  0  0
  3  2  1  0  0  0  0
  3 19  1  0  0  0  0
  4 11  1  0  0  0  0
  4  7  2  0  0  0  0
  5 16  1  0  0  0  0
  5  2  1  0  0  0  0
  6 17  1  0  0  0  0
  8 21  1  0  0  0  0
  9  1  1  0  0  0  0
 10 18  1  0  0  0  0
 11 15  1  0  0  0  0
 12  8  2  0  0  0  0
 13  8  1  0  0  0  0
 13 18  1  0  0  0  0
 14  5  2  0  0  0  0
 15 20  1  0  0  0  0
 16 12  1  0  0  0  0
 17 16  2  0  0  0  0
 19 20  1  6  0  0  0
 19 10  1  0  0  0  0
 21 23  1  0  0  0  0
 22 23  2  0  0  0  0
 23 25  1  0  0  0  0
 25 24  1  1  0  0  0
 27 25  1  0  0  0  0
 27 26  1  0  0  0  0
 28 27  2  0  0  0  0
 29 31  2  0  0  0  0
 29 28  1  0  0  0  0
 30 29  1  0  0  0  0
M  END
>  <MODEL>
8

>  <REMARK>
 VINA RESULT:      -8.1      3.743      8.283
  Name = 
  5 active torsions:
  status: ('A' for Active; 'I' for Inactive)
    1  A    between atoms: C_1  and  C_24
    2  A    between atoms: C_9  and  C_22
    3  A    between atoms: C_9  and  C_23
    4  A    between atoms: C_15  and  C_23
    5  A    between atoms: C_19  and  C_22
                            x       y       z     vdW  Elec       q    Type
                         _______ _______ _______ _____ _____    ______ ____

>  <TORSDO>
F 5

$$$$
=
 OpenBabel10262419353D

 31 34  0  0  1  0  0  0  0  0999 V2000
  190.5070  177.1740  138.8240 C   0  0  0  0  0  0  0  0  0  0  0  0
  188.1070  178.0560  141.5460 C   0  0  0  0  0  0  0  0  0  0  0  0
  188.9190  177.7770  142.8050 C   0  0  1  0  0  3  0  0  0  0  0  0
  190.9120  178.8560  143.9610 C   0  0  0  0  0  3  0  0  0  0  0  0
  188.6690  177.8510  140.2670 C   0  0  0  0  0  0  0  0  0  0  0  0
  189.7390  177.4690  137.6960 C   0  0  0  0  0  3  0  0  0  0  0  0
  190.1030  178.7120  142.8940 C   0  0  0  0  0  3  0  0  0  0  0  0
  186.0400  178.7630  140.4620 C   0  0  0  0  0  0  0  0  0  0  0  0
  191.7700  176.7080  138.6800 F   0  0  0  0  0  0  0  0  0  0  0  0
  186.6290  177.5700  143.9320 C   0  0  0  0  0  2  0  0  0  0  0  0
  190.7380  178.1940  145.3060 C   0  0  0  0  0  2  0  0  0  0  0  0
  186.6240  178.5890  139.2470 N   0  0  0  0  0  0  0  0  0  0  0  0
  186.7620  178.4820  141.6370 C   0  0  0  0  0  0  0  0  0  0  0  0
  189.9750  177.3640  140.1030 C   0  0  0  0  0  3  0  0  0  0  0  0
  190.2050  176.7710  145.2000 C   0  0  0  0  0  2  0  0  0  0  0  0
  187.8960  178.1360  139.1190 C   0  0  0  0  0  0  0  0  0  0  0  0
  188.4360  177.9490  137.8420 C   0  0  0  0  0  3  0  0  0  0  0  0
  186.1060  178.6310  142.9790 C   0  0  0  0  0  2  0  0  0  0  0  0
  188.1200  177.7860  144.1240 C   0  0  1  0  0  3  0  0  0  0  0  0
  188.6760  176.7550  145.1070 C   0  0  0  0  0  2  0  0  0  0  0  0
  184.6380  179.2820  140.5150 C   0  0  0  0  0  2  0  0  0  0  0  0
  183.8890  177.6680  138.9760 O   0  0  0  0  0  0  0  0  0  0  0  0
  183.6800  178.2420  140.0340 C   0  0  0  0  0  0  0  0  0  0  0  0
  182.5080  178.6260  142.1930 C   0  0  0  0  0  1  0  0  0  0  0  0
  182.4510  177.9420  140.8380 C   0  0  1  0  0  3  0  0  0  0  0  0
  180.9030  179.6670  139.9200 O   0  0  0  0  0  1  0  0  0  0  0  0
  181.2040  178.3210  140.0940 C   0  0  0  0  0  0  0  0  0  0  0  0
  180.3710  177.4130  139.5720 C   0  0  0  0  0  3  0  0  0  0  0  0
  180.5110  175.9470  139.6360 C   0  0  0  0  0  0  0  0  0  0  0  0
  179.6640  175.1870  140.5910 C   0  0  0  0  0  1  0  0  0  0  0  0
  181.3270  175.3240  138.9060 O   0  0  0  0  0  0  0  0  0  0  0  0
  1 14  1  0  0  0  0
  2 13  2  0  0  0  0
  2  3  1  0  0  0  0
  3  7  1  1  0  0  0
  3 19  1  0  0  0  0
  4 11  1  0  0  0  0
  5  2  1  0  0  0  0
  6 17  1  0  0  0  0
  6  1  2  0  0  0  0
  7  4  2  0  0  0  0
  8 21  1  0  0  0  0
  8 13  1  0  0  0  0
  9  1  1  0  0  0  0
 12  8  2  0  0  0  0
 13 18  1  0  0  0  0
 14  5  2  0  0  0  0
 15 11  1  0  0  0  0
 16 12  1  0  0  0  0
 16  5  1  0  0  0  0
 17 16  2  0  0  0  0
 18 10  1  0  0  0  0
 19 10  1  6  0  0  0
 19 20  1  0  0  0  0
 20 15  1  0  0  0  0
 22 23  2  0  0  0  0
 23 21  1  0  0  0  0
 23 25  1  0  0  0  0
 25 24  1  1  0  0  0
 26 27  1  0  0  0  0
 27 25  1  0  0  0  0
 28 29  1  0  0  0  0
 28 27  2  0  0  0  0
 29 30  1  0  0  0  0
 31 29  2  0  0  0  0
M  END
>  <MODEL>
9

>  <REMARK>
 VINA RESULT:      -7.8      2.725      4.704
  Name = 
  5 active torsions:
  status: ('A' for Active; 'I' for Inactive)
    1  A    between atoms: C_1  and  C_24
    2  A    between atoms: C_9  and  C_22
    3  A    between atoms: C_9  and  C_23
    4  A    between atoms: C_15  and  C_23
    5  A    between atoms: C_19  and  C_22
                            x       y       z     vdW  Elec       q    Type
                         _______ _______ _______ _____ _____    ______ ____

>  <TORSDO>
F 5

$$$$
