=
 OpenBabel10262419593D

 27 31  0  0  1  0  0  0  0  0999 V2000
  189.8450  176.5120  140.7170 O   0  0  0  0  0  0  0  0  0  0  0  0
  188.2850  178.0120  141.6650 C   0  0  0  0  0  0  0  0  0  0  0  0
  187.7500  178.3240  139.2040 N   0  0  0  0  0  2  0  0  0  0  0  0
  183.9120  178.6270  142.8860 C   0  0  0  0  0  3  0  0  0  0  0  0
  182.4990  178.9540  140.8490 C   0  0  0  0  0  1  0  0  0  0  0  0
  187.6000  177.9940  142.8350 N   0  0  0  0  0  0  0  0  0  0  0  0
  184.9820  178.6500  140.5680 C   0  0  0  0  0  0  0  0  0  0  0  0
  188.7220  178.1570  136.0940 C   0  0  0  0  0  2  0  0  0  0  0  0
  184.8550  178.8140  139.0860 C   0  0  0  0  0  1  0  0  0  0  0  0
  188.2720  176.7850  136.6110 C   0  0  0  0  0  2  0  0  0  0  0  0
  186.1690  178.4160  141.1450 C   0  0  0  0  0  0  0  0  0  0  0  0
  189.7290  177.6390  141.5380 C   0  0  1  0  0  3  0  0  0  0  0  0
  183.8170  178.7310  141.4190 N   0  0  0  0  0  0  0  0  0  0  0  0
  185.3120  178.3240  143.3670 C   0  0  0  0  0  3  0  0  0  0  0  0
  190.6980  176.9110  139.6880 C   0  0  0  0  0  2  0  0  0  0  0  0
  187.4310  178.2750  140.6010 C   0  0  0  0  0  0  0  0  0  0  0  0
  188.8140  179.2100  137.2190 C   0  0  0  0  0  2  0  0  0  0  0  0
  186.3210  178.2530  142.5010 C   0  0  0  0  0  0  0  0  0  0  0  0
  189.2260  176.2330  137.6830 C   0  0  0  0  0  2  0  0  0  0  0  0
  189.9210  177.3590  138.4560 C   0  0  1  0  0  3  0  0  0  0  0  0
  189.0560  178.6180  138.6160 C   0  0  2  0  0  3  0  0  0  0  0  0
  191.6800  176.9400  145.3070 C   0  0  0  0  0  3  0  0  0  0  0  0
  190.3950  177.4070  142.8620 C   0  0  0  0  0  0  0  0  0  0  0  0
  190.7650  176.1070  143.2250 C   0  0  0  0  0  3  0  0  0  0  0  0
  191.4050  175.8730  144.4460 C   0  0  0  0  0  3  0  0  0  0  0  0
  191.3190  178.2410  144.9470 C   0  0  0  0  0  3  0  0  0  0  0  0
  190.6780  178.4750  143.7270 C   0  0  0  0  0  3  0  0  0  0  0  0
  1 12  1  0  0  0  0
  2  6  1  0  0  0  0
  3 16  1  0  0  0  0
  4 14  2  0  0  0  0
  5 13  1  0  0  0  0
  7 11  2  0  0  0  0
  7 13  1  0  0  0  0
  8 10  1  0  0  0  0
  8 17  1  0  0  0  0
  9  7  1  0  0  0  0
 10 19  1  0  0  0  0
 11 18  1  0  0  0  0
 12  2  1  0  0  0  0
 12 23  1  1  0  0  0
 13  4  1  0  0  0  0
 15  1  1  0  0  0  0
 16 11  1  0  0  0  0
 16  2  2  0  0  0  0
 18  6  2  0  0  0  0
 18 14  1  0  0  0  0
 20 19  1  1  0  0  0
 20 21  1  0  0  0  0
 20 15  1  0  0  0  0
 21 17  1  6  0  0  0
 21  3  1  0  0  0  0
 23 24  2  0  0  0  0
 23 27  1  0  0  0  0
 24 25  1  0  0  0  0
 25 22  2  0  0  0  0
 26 22  1  0  0  0  0
 27 26  2  0  0  0  0
M  END
>  <MODEL>
1

>  <REMARK>
 VINA RESULT:      -9.1      0.000      0.000
  Name = 
  1 active torsions:
  status: ('A' for Active; 'I' for Inactive)
    1  A    between atoms: C_9  and  C_15
                            x       y       z     vdW  Elec       q    Type
                         _______ _______ _______ _____ _____    ______ ____

>  <TORSDO>
F 1

$$$$
=
 OpenBabel10262419593D

 27 31  0  0  1  0  0  0  0  0999 V2000
  190.1730  178.2870  140.6720 O   0  0  0  0  0  0  0  0  0  0  0  0
  187.9400  177.6670  141.1300 C   0  0  0  0  0  0  0  0  0  0  0  0
  188.9990  177.1740  143.3820 N   0  0  0  0  0  2  0  0  0  0  0  0
  183.9910  178.9600  143.0590 C   0  0  0  0  0  3  0  0  0  0  0  0
  184.1880  178.8560  145.5500 C   0  0  0  0  0  1  0  0  0  0  0  0
  186.7530  178.1370  140.6720 N   0  0  0  0  0  0  0  0  0  0  0  0
  186.1540  178.1490  144.1450 C   0  0  0  0  0  0  0  0  0  0  0  0
  191.6680  176.4410  145.1100 C   0  0  0  0  0  2  0  0  0  0  0  0
  186.9330  177.8010  145.3760 C   0  0  0  0  0  1  0  0  0  0  0  0
  191.5810  177.9470  144.8320 C   0  0  0  0  0  2  0  0  0  0  0  0
  186.6830  178.0100  142.9220 C   0  0  0  0  0  0  0  0  0  0  0  0
  189.1380  177.4410  140.2610 C   0  0  1  0  0  3  0  0  0  0  0  0
  184.8050  178.6570  144.2490 N   0  0  0  0  0  0  0  0  0  0  0  0
  184.7500  178.7880  141.7640 C   0  0  0  0  0  3  0  0  0  0  0  0
  191.2350  177.4300  140.9620 C   0  0  0  0  0  2  0  0  0  0  0  0
  187.9280  177.5720  142.5150 C   0  0  0  0  0  0  0  0  0  0  0  0
  190.6100  175.6350  144.3260 C   0  0  0  0  0  2  0  0  0  0  0  0
  186.0000  178.3280  141.7730 C   0  0  0  0  0  0  0  0  0  0  0  0
  191.7680  178.2690  143.3410 C   0  0  0  0  0  2  0  0  0  0  0  0
  191.3080  177.1100  142.4500 C   0  0  1  0  0  3  0  0  0  0  0  0
  190.1300  176.3160  143.0350 C   0  0  2  0  0  3  0  0  0  0  0  0
  188.3600  177.9840  136.0650 C   0  0  0  0  0  3  0  0  0  0  0  0
  188.8470  177.6220  138.7990 C   0  0  0  0  0  0  0  0  0  0  0  0
  189.1060  178.8580  138.1970 C   0  0  0  0  0  3  0  0  0  0  0  0
  188.8610  179.0400  136.8330 C   0  0  0  0  0  3  0  0  0  0  0  0
  188.1050  176.7460  136.6600 C   0  0  0  0  0  3  0  0  0  0  0  0
  188.3490  176.5640  138.0250 C   0  0  0  0  0  3  0  0  0  0  0  0
  1 15  1  0  0  0  0
  2 16  2  0  0  0  0
  4 13  1  0  0  0  0
  6  2  1  0  0  0  0
  6 18  2  0  0  0  0
  7 13  1  0  0  0  0
  7  9  1  0  0  0  0
 10  8  1  0  0  0  0
 11  7  2  0  0  0  0
 12 23  1  6  0  0  0
 12  1  1  0  0  0  0
 12  2  1  0  0  0  0
 13  5  1  0  0  0  0
 14 18  1  0  0  0  0
 14  4  2  0  0  0  0
 16 11  1  0  0  0  0
 16  3  1  0  0  0  0
 17  8  1  0  0  0  0
 18 11  1  0  0  0  0
 19 10  1  0  0  0  0
 20 15  1  6  0  0  0
 20 21  1  0  0  0  0
 20 19  1  0  0  0  0
 21  3  1  0  0  0  0
 21 17  1  1  0  0  0
 22 26  2  0  0  0  0
 22 25  1  0  0  0  0
 24 23  1  0  0  0  0
 25 24  2  0  0  0  0
 26 27  1  0  0  0  0
 27 23  2  0  0  0  0
M  END
>  <MODEL>
2

>  <REMARK>
 VINA RESULT:      -8.3      1.333      5.491
  Name = 
  1 active torsions:
  status: ('A' for Active; 'I' for Inactive)
    1  A    between atoms: C_9  and  C_15
                            x       y       z     vdW  Elec       q    Type
                         _______ _______ _______ _____ _____    ______ ____

>  <TORSDO>
F 1

$$$$
=
 OpenBabel10262419593D

 27 31  0  0  1  0  0  0  0  0999 V2000
  186.7110  177.2470  143.7480 O   0  0  0  0  0  0  0  0  0  0  0  0
  186.7160  178.4320  141.7040 C   0  0  0  0  0  0  0  0  0  0  0  0
  189.2140  178.1650  142.0580 N   0  0  0  0  0  2  0  0  0  0  0  0
  187.1350  178.0950  137.1540 C   0  0  0  0  0  3  0  0  0  0  0  0
  189.5280  177.6870  136.5490 C   0  0  0  0  0  1  0  0  0  0  0  0
  185.8580  178.4400  140.6550 N   0  0  0  0  0  0  0  0  0  0  0  0
  188.9230  177.9930  138.9740 C   0  0  0  0  0  0  0  0  0  0  0  0
  191.7090  177.7200  144.1130 C   0  0  0  0  0  2  0  0  0  0  0  0
  190.3610  177.8590  139.3700 C   0  0  0  0  0  1  0  0  0  0  0  0
  191.0320  176.3890  143.7640 C   0  0  0  0  0  2  0  0  0  0  0  0
  187.9620  178.1780  139.8890 C   0  0  0  0  0  0  0  0  0  0  0  0
  186.2820  178.4300  143.1370 C   0  0  1  0  0  3  0  0  0  0  0  0
  188.5330  177.9150  137.5840 N   0  0  0  0  0  0  0  0  0  0  0  0
  186.1760  178.2530  138.3110 C   0  0  0  0  0  3  0  0  0  0  0  0
  187.4840  177.6700  144.8300 C   0  0  0  0  0  2  0  0  0  0  0  0
  188.0250  178.2770  141.2650 C   0  0  0  0  0  0  0  0  0  0  0  0
  190.9180  178.9390  143.5940 C   0  0  0  0  0  2  0  0  0  0  0  0
  186.6320  178.2970  139.5620 C   0  0  0  0  0  0  0  0  0  0  0  0
  189.6110  176.2970  144.3430 C   0  0  0  0  0  2  0  0  0  0  0  0
  188.9690  177.6810  144.4900 C   0  0  1  0  0  3  0  0  0  0  0  0
  189.4140  178.6810  143.4120 C   0  0  2  0  0  3  0  0  0  0  0  0
  182.0480  179.0030  143.6400 C   0  0  0  0  0  3  0  0  0  0  0  0
  184.8010  178.6110  143.3030 C   0  0  0  0  0  0  0  0  0  0  0  0
  184.2930  178.9920  144.5490 C   0  0  0  0  0  3  0  0  0  0  0  0
  182.9190  179.1870  144.7190 C   0  0  0  0  0  3  0  0  0  0  0  0
  182.5510  178.6280  142.3910 C   0  0  0  0  0  3  0  0  0  0  0  0
  183.9250  178.4330  142.2210 C   0  0  0  0  0  3  0  0  0  0  0  0
  1 15  1  0  0  0  0
  2 12  1  0  0  0  0
  3 21  1  0  0  0  0
  4 13  1  0  0  0  0
  4 14  2  0  0  0  0
  5 13  1  0  0  0  0
  6  2  1  0  0  0  0
  7  9  1  0  0  0  0
  7 11  2  0  0  0  0
 10  8  1  0  0  0  0
 10 19  1  0  0  0  0
 11 16  1  0  0  0  0
 12 23  1  6  0  0  0
 12  1  1  0  0  0  0
 13  7  1  0  0  0  0
 14 18  1  0  0  0  0
 16  2  2  0  0  0  0
 16  3  1  0  0  0  0
 17  8  1  0  0  0  0
 18 11  1  0  0  0  0
 18  6  2  0  0  0  0
 20 19  1  6  0  0  0
 20 15  1  0  0  0  0
 21 17  1  1  0  0  0
 21 20  1  0  0  0  0
 22 25  1  0  0  0  0
 23 24  1  0  0  0  0
 24 25  2  0  0  0  0
 26 22  2  0  0  0  0
 27 26  1  0  0  0  0
 27 23  2  0  0  0  0
M  END
>  <MODEL>
3

>  <REMARK>
 VINA RESULT:      -8.1      1.674      6.134
  Name = 
  1 active torsions:
  status: ('A' for Active; 'I' for Inactive)
    1  A    between atoms: C_9  and  C_15
                            x       y       z     vdW  Elec       q    Type
                         _______ _______ _______ _____ _____    ______ ____

>  <TORSDO>
F 1

$$$$
=
 OpenBabel10262419593D

 27 31  0  0  1  0  0  0  0  0999 V2000
  187.1420  177.2800  142.8490 O   0  0  0  0  0  0  0  0  0  0  0  0
  187.9690  178.0600  140.7780 C   0  0  0  0  0  0  0  0  0  0  0  0
  190.1420  177.8800  142.0740 N   0  0  0  0  0  2  0  0  0  0  0  0
  189.9980  176.8760  136.8450 C   0  0  0  0  0  3  0  0  0  0  0  0
  192.4150  176.3780  137.2520 C   0  0  0  0  0  1  0  0  0  0  0  0
  187.5550  177.8640  139.5010 N   0  0  0  0  0  0  0  0  0  0  0  0
  190.9870  177.1300  139.1850 C   0  0  0  0  0  0  0  0  0  0  0  0
  191.6810  177.8470  144.9510 C   0  0  0  0  0  2  0  0  0  0  0  0
  192.1700  177.0830  140.1020 C   0  0  0  0  0  1  0  0  0  0  0  0
  191.0940  176.4690  144.6170 C   0  0  0  0  0  2  0  0  0  0  0  0
  189.7720  177.4770  139.6300 C   0  0  0  0  0  0  0  0  0  0  0  0
  187.0420  178.3240  141.9230 C   0  0  1  0  0  3  0  0  0  0  0  0
  191.1280  176.7890  137.7870 N   0  0  0  0  0  0  0  0  0  0  0  0
  188.6950  177.2420  137.5160 C   0  0  0  0  0  3  0  0  0  0  0  0
  187.4910  177.9040  144.0470 C   0  0  0  0  0  2  0  0  0  0  0  0
  189.3350  177.8340  140.8900 C   0  0  0  0  0  0  0  0  0  0  0  0
  191.2130  178.9410  143.9680 C   0  0  0  0  0  2  0  0  0  0  0  0
  188.6650  177.5230  138.8170 C   0  0  0  0  0  0  0  0  0  0  0  0
  189.5570  176.4780  144.6350 C   0  0  0  0  0  2  0  0  0  0  0  0
  188.9960  177.8600  144.2860 C   0  0  1  0  0  3  0  0  0  0  0  0
  189.8670  178.6430  143.2910 C   0  0  2  0  0  3  0  0  0  0  0  0
  182.9490  178.9260  140.7430 C   0  0  0  0  0  3  0  0  0  0  0  0
  185.6180  178.5230  141.4940 C   0  0  0  0  0  0  0  0  0  0  0  0
  184.5850  178.2540  142.3980 C   0  0  0  0  0  3  0  0  0  0  0  0
  183.2520  178.4530  142.0240 C   0  0  0  0  0  3  0  0  0  0  0  0
  183.9770  179.2020  139.8380 C   0  0  0  0  0  3  0  0  0  0  0  0
  185.3090  179.0030  140.2120 C   0  0  0  0  0  3  0  0  0  0  0  0
  1 15  1  0  0  0  0
  2 16  2  0  0  0  0
  2 12  1  0  0  0  0
  3 21  1  0  0  0  0
  4 14  2  0  0  0  0
  4 13  1  0  0  0  0
  5 13  1  0  0  0  0
  6  2  1  0  0  0  0
  7 11  2  0  0  0  0
  7  9  1  0  0  0  0
 10 19  1  0  0  0  0
 10  8  1  0  0  0  0
 11 16  1  0  0  0  0
 12 23  1  6  0  0  0
 12  1  1  0  0  0  0
 13  7  1  0  0  0  0
 14 18  1  0  0  0  0
 16  3  1  0  0  0  0
 17  8  1  0  0  0  0
 18  6  2  0  0  0  0
 18 11  1  0  0  0  0
 20 15  1  6  0  0  0
 20 19  1  0  0  0  0
 21 17  1  1  0  0  0
 21 20  1  0  0  0  0
 22 25  1  0  0  0  0
 23 24  1  0  0  0  0
 25 24  2  0  0  0  0
 26 27  1  0  0  0  0
 26 22  2  0  0  0  0
 27 23  2  0  0  0  0
M  END
>  <MODEL>
4

>  <REMARK>
 VINA RESULT:      -7.6      1.634      6.708
  Name = 
  1 active torsions:
  status: ('A' for Active; 'I' for Inactive)
    1  A    between atoms: C_9  and  C_15
                            x       y       z     vdW  Elec       q    Type
                         _______ _______ _______ _____ _____    ______ ____

>  <TORSDO>
F 1

$$$$
=
 OpenBabel10262419593D

 27 31  0  0  1  0  0  0  0  0999 V2000
  191.7330  177.6020  140.3990 O   0  0  0  0  0  0  0  0  0  0  0  0
  189.6080  176.9920  139.5650 C   0  0  0  0  0  0  0  0  0  0  0  0
  189.0010  177.4970  141.9770 N   0  0  0  0  0  2  0  0  0  0  0  0
  185.5770  178.5370  138.0300 C   0  0  0  0  0  3  0  0  0  0  0  0
  184.2180  179.4070  139.9410 C   0  0  0  0  0  1  0  0  0  0  0  0
  189.0330  177.1360  138.3460 N   0  0  0  0  0  0  0  0  0  0  0  0
  186.4810  178.4110  140.4150 C   0  0  0  0  0  0  0  0  0  0  0  0
  189.9280  177.7350  145.0960 C   0  0  0  0  0  2  0  0  0  0  0  0
  186.2930  178.6330  141.8840 C   0  0  0  0  0  1  0  0  0  0  0  0
  190.2780  179.0060  144.3130 C   0  0  0  0  0  2  0  0  0  0  0  0
  187.6060  177.8690  139.9300 C   0  0  0  0  0  0  0  0  0  0  0  0
  191.0290  176.5680  139.7720 C   0  0  1  0  0  3  0  0  0  0  0  0
  185.4480  178.7880  139.4770 N   0  0  0  0  0  0  0  0  0  0  0  0
  186.9200  177.9590  137.6490 C   0  0  0  0  0  3  0  0  0  0  0  0
  192.2460  177.0260  141.5610 C   0  0  0  0  0  2  0  0  0  0  0  0
  188.7510  177.4300  140.5660 C   0  0  0  0  0  0  0  0  0  0  0  0
  189.4370  176.5940  144.1800 C   0  0  0  0  0  2  0  0  0  0  0  0
  187.8150  177.6590  138.5880 C   0  0  0  0  0  0  0  0  0  0  0  0
  191.3740  178.7530  143.2650 C   0  0  0  0  0  2  0  0  0  0  0  0
  191.3560  177.3040  142.7670 C   0  0  1  0  0  3  0  0  0  0  0  0
  189.9510  176.6830  142.7350 C   0  0  2  0  0  3  0  0  0  0  0  0
  193.0330  175.3720  136.1590 C   0  0  0  0  0  3  0  0  0  0  0  0
  191.7090  176.1510  138.5010 C   0  0  0  0  0  0  0  0  0  0  0  0
  192.8720  176.8170  138.0960 C   0  0  0  0  0  3  0  0  0  0  0  0
  193.5320  176.4290  136.9260 C   0  0  0  0  0  3  0  0  0  0  0  0
  191.8760  174.7000  136.5620 C   0  0  0  0  0  3  0  0  0  0  0  0
  191.2150  175.0870  137.7320 C   0  0  0  0  0  3  0  0  0  0  0  0
  1 15  1  0  0  0  0
  2 12  1  0  0  0  0
  2 16  2  0  0  0  0
  3 21  1  0  0  0  0
  4 13  1  0  0  0  0
  6 18  2  0  0  0  0
  6  2  1  0  0  0  0
  7  9  1  0  0  0  0
 10  8  1  0  0  0  0
 11  7  2  0  0  0  0
 11 16  1  0  0  0  0
 12 23  1  6  0  0  0
 12  1  1  0  0  0  0
 13  5  1  0  0  0  0
 13  7  1  0  0  0  0
 14  4  2  0  0  0  0
 14 18  1  0  0  0  0
 16  3  1  0  0  0  0
 17  8  1  0  0  0  0
 18 11  1  0  0  0  0
 19 10  1  0  0  0  0
 20 15  1  6  0  0  0
 20 19  1  0  0  0  0
 21 20  1  0  0  0  0
 21 17  1  1  0  0  0
 22 26  2  0  0  0  0
 22 25  1  0  0  0  0
 24 23  1  0  0  0  0
 25 24  2  0  0  0  0
 26 27  1  0  0  0  0
 27 23  2  0  0  0  0
M  END
>  <MODEL>
5

>  <REMARK>
 VINA RESULT:      -7.2      1.976      5.410
  Name = 
  1 active torsions:
  status: ('A' for Active; 'I' for Inactive)
    1  A    between atoms: C_9  and  C_15
                            x       y       z     vdW  Elec       q    Type
                         _______ _______ _______ _____ _____    ______ ____

>  <TORSDO>
F 1

$$$$
=
 OpenBabel10262419593D

 27 31  0  0  1  0  0  0  0  0999 V2000
  187.6310  178.7390  141.4160 O   0  0  0  0  0  0  0  0  0  0  0  0
  186.5280  177.9440  143.3480 C   0  0  0  0  0  0  0  0  0  0  0  0
  188.8750  177.0990  143.8080 N   0  0  0  0  0  2  0  0  0  0  0  0
  185.7200  178.6830  147.7970 C   0  0  0  0  0  3  0  0  0  0  0  0
  187.7620  178.1350  149.1330 C   0  0  0  0  0  1  0  0  0  0  0  0
  185.4900  178.4350  144.0700 N   0  0  0  0  0  0  0  0  0  0  0  0
  187.8130  177.7870  146.6400 C   0  0  0  0  0  0  0  0  0  0  0  0
  191.7880  176.1850  142.6550 C   0  0  0  0  0  2  0  0  0  0  0  0
  189.2100  177.2560  146.7230 C   0  0  0  0  0  1  0  0  0  0  0  0
  191.6920  177.7110  142.7790 C   0  0  0  0  0  2  0  0  0  0  0  0
  187.1770  177.8980  145.4660 C   0  0  0  0  0  0  0  0  0  0  0  0
  186.5720  177.9350  141.8510 C   0  0  1  0  0  3  0  0  0  0  0  0
  187.1130  178.2050  147.8340 N   0  0  0  0  0  0  0  0  0  0  0  0
  185.1680  178.7840  146.3940 C   0  0  0  0  0  3  0  0  0  0  0  0
  188.4170  177.8930  140.6330 C   0  0  0  0  0  2  0  0  0  0  0  0
  187.5840  177.5980  144.1810 C   0  0  0  0  0  0  0  0  0  0  0  0
  190.4310  175.4880  142.8890 C   0  0  0  0  0  2  0  0  0  0  0  0
  185.8980  178.3880  145.3530 C   0  0  0  0  0  0  0  0  0  0  0  0
  190.6890  178.3080  141.7790 C   0  0  0  0  0  2  0  0  0  0  0  0
  189.5790  177.3110  141.4270 C   0  0  1  0  0  3  0  0  0  0  0  0
  189.2100  176.3700  142.5850 C   0  0  2  0  0  3  0  0  0  0  0  0
  182.8860  179.1470  139.9950 C   0  0  0  0  0  3  0  0  0  0  0  0
  185.2790  178.3660  141.2220 C   0  0  0  0  0  0  0  0  0  0  0  0
  185.3050  179.0500  140.0020 C   0  0  0  0  0  3  0  0  0  0  0  0
  184.1110  179.4410  139.3890 C   0  0  0  0  0  3  0  0  0  0  0  0
  182.8530  178.4590  141.2100 C   0  0  0  0  0  3  0  0  0  0  0  0
  184.0470  178.0680  141.8230 C   0  0  0  0  0  3  0  0  0  0  0  0
  1 12  1  0  0  0  0
  2  6  1  0  0  0  0
  2 16  2  0  0  0  0
  3 16  1  0  0  0  0
  4 13  1  0  0  0  0
  6 18  2  0  0  0  0
  7  9  1  0  0  0  0
  7 13  1  0  0  0  0
  8 10  1  0  0  0  0
  8 17  1  0  0  0  0
 11  7  2  0  0  0  0
 12 23  1  6  0  0  0
 12  2  1  0  0  0  0
 13  5  1  0  0  0  0
 14  4  2  0  0  0  0
 15  1  1  0  0  0  0
 16 11  1  0  0  0  0
 18 11  1  0  0  0  0
 18 14  1  0  0  0  0
 19 10  1  0  0  0  0
 20 15  1  1  0  0  0
 20 19  1  0  0  0  0
 20 21  1  0  0  0  0
 21 17  1  1  0  0  0
 21  3  1  0  0  0  0
 22 26  1  0  0  0  0
 23 27  1  0  0  0  0
 24 23  2  0  0  0  0
 25 22  2  0  0  0  0
 25 24  1  0  0  0  0
 26 27  2  0  0  0  0
M  END
>  <MODEL>
6

>  <REMARK>
 VINA RESULT:      -7.2      2.442      6.204
  Name = 
  1 active torsions:
  status: ('A' for Active; 'I' for Inactive)
    1  A    between atoms: C_9  and  C_15
                            x       y       z     vdW  Elec       q    Type
                         _______ _______ _______ _____ _____    ______ ____

>  <TORSDO>
F 1

$$$$
=
 OpenBabel10262419593D

 27 31  0  0  1  0  0  0  0  0999 V2000
  190.1160  175.9650  142.4510 O   0  0  0  0  0  0  0  0  0  0  0  0
  188.7090  177.5000  143.5690 C   0  0  0  0  0  0  0  0  0  0  0  0
  188.1370  178.0590  141.1610 N   0  0  0  0  0  2  0  0  0  0  0  0
  184.4350  178.3550  144.9800 C   0  0  0  0  0  3  0  0  0  0  0  0
  183.0000  178.9640  143.0230 C   0  0  0  0  0  1  0  0  0  0  0  0
  188.0560  177.4380  144.7550 N   0  0  0  0  0  0  0  0  0  0  0  0
  185.4430  178.4870  142.6370 C   0  0  0  0  0  0  0  0  0  0  0  0
  189.0110  178.0770  138.0170 C   0  0  0  0  0  2  0  0  0  0  0  0
  185.2900  178.7850  141.1780 C   0  0  0  0  0  1  0  0  0  0  0  0
  188.4640  176.7060  138.4350 C   0  0  0  0  0  2  0  0  0  0  0  0
  186.6210  178.1130  143.1530 C   0  0  0  0  0  0  0  0  0  0  0  0
  190.1140  177.0250  143.3640 C   0  0  1  0  0  3  0  0  0  0  0  0
  184.3100  178.5890  143.5300 N   0  0  0  0  0  0  0  0  0  0  0  0
  185.8180  177.9030  145.3880 C   0  0  0  0  0  3  0  0  0  0  0  0
  190.9710  176.3800  141.4310 C   0  0  0  0  0  2  0  0  0  0  0  0
  187.8520  177.9180  142.5590 C   0  0  0  0  0  0  0  0  0  0  0  0
  189.2180  179.0210  139.2210 C   0  0  0  0  0  2  0  0  0  0  0  0
  186.7940  177.8240  144.4860 C   0  0  0  0  0  0  0  0  0  0  0  0
  189.3970  175.9920  139.4260 C   0  0  0  0  0  2  0  0  0  0  0  0
  190.2020  176.9900  140.2650 C   0  0  1  0  0  3  0  0  0  0  0  0
  189.4470  178.2970  140.5560 C   0  0  2  0  0  3  0  0  0  0  0  0
  192.0070  175.8960  147.0580 C   0  0  0  0  0  3  0  0  0  0  0  0
  190.7940  176.6300  144.6430 C   0  0  0  0  0  0  0  0  0  0  0  0
  190.5240  177.3500  145.8130 C   0  0  0  0  0  3  0  0  0  0  0  0
  191.1310  176.9840  147.0180 C   0  0  0  0  0  3  0  0  0  0  0  0
  192.2760  175.1710  145.8950 C   0  0  0  0  0  3  0  0  0  0  0  0
  191.6700  175.5350  144.6890 C   0  0  0  0  0  3  0  0  0  0  0  0
  1 12  1  0  0  0  0
  2  6  1  0  0  0  0
  3 16  1  0  0  0  0
  4 14  2  0  0  0  0
  5 13  1  0  0  0  0
  7 11  2  0  0  0  0
  7 13  1  0  0  0  0
  8 10  1  0  0  0  0
  8 17  1  0  0  0  0
  9  7  1  0  0  0  0
 10 19  1  0  0  0  0
 11 18  1  0  0  0  0
 12  2  1  0  0  0  0
 12 23  1  1  0  0  0
 13  4  1  0  0  0  0
 15  1  1  0  0  0  0
 16 11  1  0  0  0  0
 16  2  2  0  0  0  0
 18  6  2  0  0  0  0
 18 14  1  0  0  0  0
 20 19  1  1  0  0  0
 20 21  1  0  0  0  0
 20 15  1  0  0  0  0
 21 17  1  6  0  0  0
 21  3  1  0  0  0  0
 23 27  2  0  0  0  0
 23 24  1  0  0  0  0
 24 25  2  0  0  0  0
 25 22  1  0  0  0  0
 26 22  2  0  0  0  0
 27 26  1  0  0  0  0
M  END
>  <MODEL>
7

>  <REMARK>
 VINA RESULT:      -7.1      1.473      2.211
  Name = 
  1 active torsions:
  status: ('A' for Active; 'I' for Inactive)
    1  A    between atoms: C_9  and  C_15
                            x       y       z     vdW  Elec       q    Type
                         _______ _______ _______ _____ _____    ______ ____

>  <TORSDO>
F 1

$$$$
=
 OpenBabel10262420003D

 27 31  0  0  1  0  0  0  0  0999 V2000
  184.0700  179.3160  142.9510 O   0  0  0  0  0  0  0  0  0  0  0  0
  185.8830  178.1650  141.9650 C   0  0  0  0  0  0  0  0  0  0  0  0
  184.2110  178.0580  140.0600 N   0  0  0  0  0  2  0  0  0  0  0  0
  189.4300  178.4870  139.0840 C   0  0  0  0  0  3  0  0  0  0  0  0
  188.6050  178.5440  136.7240 C   0  0  0  0  0  1  0  0  0  0  0  0
  187.2260  178.2960  142.1020 N   0  0  0  0  0  0  0  0  0  0  0  0
  186.9320  178.3040  138.5900 C   0  0  0  0  0  0  0  0  0  0  0  0
  181.1030  178.1070  139.0690 C   0  0  0  0  0  2  0  0  0  0  0  0
  185.8110  178.2200  137.6010 C   0  0  0  0  0  1  0  0  0  0  0  0
  181.6420  179.5270  139.2820 C   0  0  0  0  0  2  0  0  0  0  0  0
  186.7040  178.2530  139.9090 C   0  0  0  0  0  0  0  0  0  0  0  0
  184.9200  178.2160  143.1100 C   0  0  1  0  0  3  0  0  0  0  0  0
  188.2980  178.4540  138.1410 N   0  0  0  0  0  0  0  0  0  0  0  0
  188.9960  178.4590  140.5310 C   0  0  0  0  0  3  0  0  0  0  0  0
  182.7850  178.7720  142.9540 C   0  0  0  0  0  2  0  0  0  0  0  0
  185.5280  178.1310  140.6230 C   0  0  0  0  0  0  0  0  0  0  0  0
  182.0750  177.0240  139.5820 C   0  0  0  0  0  2  0  0  0  0  0  0
  187.7080  178.3350  140.8440 C   0  0  0  0  0  0  0  0  0  0  0  0
  181.9180  179.8210  140.7650 C   0  0  0  0  0  2  0  0  0  0  0  0
  182.2670  178.5460  141.5390 C   0  0  1  0  0  3  0  0  0  0  0  0
  183.0180  177.5030  140.6970 C   0  0  2  0  0  3  0  0  0  0  0  0
  186.8100  178.3150  146.9730 C   0  0  0  0  0  3  0  0  0  0  0  0
  185.5980  178.2540  144.4490 C   0  0  0  0  0  0  0  0  0  0  0  0
  185.0710  179.0610  145.4620 C   0  0  0  0  0  3  0  0  0  0  0  0
  185.6760  179.0940  146.7220 C   0  0  0  0  0  3  0  0  0  0  0  0
  187.3380  177.5030  145.9660 C   0  0  0  0  0  3  0  0  0  0  0  0
  186.7330  177.4700  144.7060 C   0  0  0  0  0  3  0  0  0  0  0  0
  1 15  1  0  0  0  0
  1 12  1  0  0  0  0
  2  6  1  0  0  0  0
  2 12  1  0  0  0  0
  3 16  1  0  0  0  0
  3 21  1  0  0  0  0
  4 14  2  0  0  0  0
  5 13  1  0  0  0  0
  7 11  2  0  0  0  0
  8 10  1  0  0  0  0
  8 17  1  0  0  0  0
  9  7  1  0  0  0  0
 10 19  1  0  0  0  0
 11 16  1  0  0  0  0
 11 18  1  0  0  0  0
 12 23  1  1  0  0  0
 13  7  1  0  0  0  0
 13  4  1  0  0  0  0
 14 18  1  0  0  0  0
 16  2  2  0  0  0  0
 18  6  2  0  0  0  0
 20 19  1  6  0  0  0
 20 15  1  0  0  0  0
 21 17  1  6  0  0  0
 21 20  1  0  0  0  0
 23 27  2  0  0  0  0
 23 24  1  0  0  0  0
 24 25  2  0  0  0  0
 25 22  1  0  0  0  0
 26 22  2  0  0  0  0
 27 26  1  0  0  0  0
M  END
>  <MODEL>
8

>  <REMARK>
 VINA RESULT:      -6.8      2.550      5.757
  Name = 
  1 active torsions:
  status: ('A' for Active; 'I' for Inactive)
    1  A    between atoms: C_9  and  C_15
                            x       y       z     vdW  Elec       q    Type
                         _______ _______ _______ _____ _____    ______ ____

>  <TORSDO>
F 1

$$$$
=
 OpenBabel10262420003D

 27 31  0  0  1  0  0  0  0  0999 V2000
  190.1610  178.2850  144.2640 O   0  0  0  0  0  0  0  0  0  0  0  0
  188.1250  177.6250  143.2650 C   0  0  0  0  0  0  0  0  0  0  0  0
  187.4420  177.5920  145.7080 N   0  0  0  0  0  2  0  0  0  0  0  0
  183.9650  179.0020  141.9260 C   0  0  0  0  0  3  0  0  0  0  0  0
  182.4990  179.3410  143.9240 C   0  0  0  0  0  1  0  0  0  0  0  0
  187.5500  177.9390  142.0780 N   0  0  0  0  0  0  0  0  0  0  0  0
  184.8530  178.5170  144.2710 C   0  0  0  0  0  0  0  0  0  0  0  0
  188.3050  177.3240  148.8440 C   0  0  0  0  0  2  0  0  0  0  0  0
  184.6260  178.4330  145.7480 C   0  0  0  0  0  1  0  0  0  0  0  0
  188.5220  178.7520  148.3260 C   0  0  0  0  0  2  0  0  0  0  0  0
  186.0360  178.2000  143.7270 C   0  0  0  0  0  0  0  0  0  0  0  0
  189.5820  177.3220  143.4320 C   0  0  1  0  0  3  0  0  0  0  0  0
  183.7950  178.9560  143.3890 N   0  0  0  0  0  0  0  0  0  0  0  0
  185.3670  178.6520  141.4840 C   0  0  0  0  0  3  0  0  0  0  0  0
  190.7230  177.5540  145.3120 C   0  0  0  0  0  2  0  0  0  0  0  0
  187.2150  177.7710  144.3040 C   0  0  0  0  0  0  0  0  0  0  0  0
  187.9520  176.3350  147.7130 C   0  0  0  0  0  2  0  0  0  0  0  0
  186.2800  178.2740  142.3760 C   0  0  0  0  0  0  0  0  0  0  0  0
  189.6490  178.8210  147.2840 C   0  0  0  0  0  2  0  0  0  0  0  0
  189.7960  177.5010  146.5200 C   0  0  1  0  0  3  0  0  0  0  0  0
  188.4670  176.7530  146.3280 C   0  0  2  0  0  3  0  0  0  0  0  0
  191.6430  177.0900  139.6640 C   0  0  0  0  0  3  0  0  0  0  0  0
  190.3170  177.2310  142.1260 C   0  0  0  0  0  0  0  0  0  0  0  0
  189.6270  176.8240  140.9790 C   0  0  0  0  0  3  0  0  0  0  0  0
  190.2890  176.7520  139.7490 C   0  0  0  0  0  3  0  0  0  0  0  0
  192.3350  177.5030  140.8050 C   0  0  0  0  0  3  0  0  0  0  0  0
  191.6740  177.5740  142.0350 C   0  0  0  0  0  3  0  0  0  0  0  0
  1 15  1  0  0  0  0
  2 12  1  0  0  0  0
  2 16  2  0  0  0  0
  3 21  1  0  0  0  0
  4 13  1  0  0  0  0
  6 18  2  0  0  0  0
  6  2  1  0  0  0  0
  7  9  1  0  0  0  0
 10  8  1  0  0  0  0
 11  7  2  0  0  0  0
 11 16  1  0  0  0  0
 12 23  1  6  0  0  0
 12  1  1  0  0  0  0
 13  5  1  0  0  0  0
 13  7  1  0  0  0  0
 14  4  2  0  0  0  0
 14 18  1  0  0  0  0
 16  3  1  0  0  0  0
 17  8  1  0  0  0  0
 18 11  1  0  0  0  0
 19 10  1  0  0  0  0
 20 15  1  6  0  0  0
 20 19  1  0  0  0  0
 21 20  1  0  0  0  0
 21 17  1  1  0  0  0
 22 25  2  0  0  0  0
 22 26  1  0  0  0  0
 24 23  2  0  0  0  0
 25 24  1  0  0  0  0
 26 27  2  0  0  0  0
 27 23  1  0  0  0  0
M  END
>  <MODEL>
9

>  <REMARK>
 VINA RESULT:      -6.7      2.352      5.879
  Name = 
  1 active torsions:
  status: ('A' for Active; 'I' for Inactive)
    1  A    between atoms: C_9  and  C_15
                            x       y       z     vdW  Elec       q    Type
                         _______ _______ _______ _____ _____    ______ ____

>  <TORSDO>
F 1

$$$$
