=
 OpenBabel10262419573D

 25 27  0  0  1  0  0  0  0  0999 V2000
  190.1500  176.3980  142.1290 C   0  0  1  0  0  3  0  0  0  0  0  0
  189.4380  177.6810  141.7020 C   0  0  1  0  0  0  0  0  0  0  0  0
  187.3370  177.8070  144.4690 O   0  0  0  0  0  0  0  0  0  0  0  0
  190.6170  177.7620  142.6850 C   0  0  1  0  0  3  0  0  0  0  0  0
  188.8860  177.5940  139.5020 C   0  0  1  0  0  3  0  0  0  0  0  0
  187.2880  177.2720  143.1770 C   0  0  0  0  0  2  0  0  0  0  0  0
  189.0320  177.1640  146.0520 C   0  0  0  0  0  2  0  0  0  0  0  0
  190.2730  177.1210  145.1630 C   0  0  1  0  0  3  0  0  0  0  0  0
  187.1710  178.5550  141.0860 N   0  0  0  0  0  0  0  0  0  0  0  0
  185.9850  179.3630  141.3320 C   0  0  0  0  0  1  0  0  0  0  0  0
  189.8160  178.1240  140.4210 O   0  0  0  0  0  0  0  0  0  0  0  0
  189.4080  175.6390  143.0320 O   0  0  0  0  0  1  0  0  0  0  0  0
  187.7710  176.7590  145.2890 C   0  0  0  0  0  2  0  0  0  0  0  0
  187.5170  178.1740  139.7480 C   0  0  0  0  0  0  0  0  0  0  0  0
  190.1700  178.2000  144.0930 C   0  0  0  0  0  2  0  0  0  0  0  0
  186.6740  178.2710  138.8140 O   0  0  0  0  0  0  0  0  0  0  0  0
  188.0390  178.1900  142.2090 C   0  0  2  0  0  3  0  0  0  0  0  0
  191.5130  177.3350  146.0140 C   0  0  0  0  0  2  0  0  0  0  0  0
  191.8670  176.0620  146.7590 C   0  0  0  0  0  1  0  0  0  0  0  0
  189.3730  177.8060  138.0660 C   0  0  0  0  0  2  0  0  0  0  0  0
  189.7890  176.5060  137.3910 C   0  0  0  0  0  2  0  0  0  0  0  0
  190.7320  175.7230  138.2860 C   0  0  0  0  0  2  0  0  0  0  0  0
  192.1110  176.2710  138.1750 C   0  0  0  0  0  0  0  0  0  0  0  0
  192.6870  176.9340  139.2510 O   0  0  0  0  0  1  0  0  0  0  0  0
  192.7900  176.1330  137.0470 C   0  0  0  0  0  2  0  0  0  0  0  0
  1  4  1  0  0  0  0
  1 12  1  1  0  0  0
  2 11  1  6  0  0  0
  2  1  1  0  0  0  0
  2 17  1  0  0  0  0
  2  4  1  0  0  0  0
  3 13  1  0  0  0  0
  4 15  1  1  0  0  0
  5 20  1  6  0  0  0
  5 14  1  0  0  0  0
  5 11  1  0  0  0  0
  6  3  1  0  0  0  0
  8 18  1  1  0  0  0
  8  7  1  0  0  0  0
  9 10  1  0  0  0  0
  9 17  1  0  0  0  0
 13  7  1  0  0  0  0
 14  9  1  0  0  0  0
 15  8  1  0  0  0  0
 16 14  2  0  0  0  0
 17  6  1  6  0  0  0
 18 19  1  0  0  0  0
 21 20  1  0  0  0  0
 21 22  1  0  0  0  0
 23 22  1  0  0  0  0
 23 24  1  0  0  0  0
 25 23  2  0  0  0  0
M  END
>  <MODEL>
1

>  <REMARK>
 VINA RESULT:      -7.1      0.000      0.000
  Name = 
  5 active torsions:
  status: ('A' for Active; 'I' for Inactive)
    1  A    between atoms: C_2  and  C_21
    2  A    between atoms: C_6  and  C_15
    3  A    between atoms: C_8  and  C_11
    4  A    between atoms: C_15  and  C_25
    5  A    between atoms: C_21  and  C_25
                            x       y       z     vdW  Elec       q    Type
                         _______ _______ _______ _____ _____    ______ ____

>  <TORSDO>
F 5

$$$$
=
 OpenBabel10262419573D

 25 27  0  0  1  0  0  0  0  0999 V2000
  187.7530  176.7490  143.2830 C   0  0  1  0  0  3  0  0  0  0  0  0
  188.0210  177.7680  144.3900 C   0  0  1  0  0  0  0  0  0  0  0  0
  191.3420  176.8540  144.8560 O   0  0  0  0  0  0  0  0  0  0  0  0
  188.3950  178.1110  142.9380 C   0  0  1  0  0  3  0  0  0  0  0  0
  186.3240  177.7760  145.8970 C   0  0  1  0  0  3  0  0  0  0  0  0
  190.1020  176.4960  145.3970 C   0  0  0  0  0  2  0  0  0  0  0  0
  191.8280  176.6150  142.5100 C   0  0  0  0  0  2  0  0  0  0  0  0
  190.5210  177.0930  141.8830 C   0  0  1  0  0  3  0  0  0  0  0  0
  188.6760  177.9150  146.8040 N   0  0  0  0  0  0  0  0  0  0  0  0
  189.6040  178.2510  147.8750 C   0  0  0  0  0  1  0  0  0  0  0  0
  186.8670  178.4650  144.7930 O   0  0  0  0  0  0  0  0  0  0  0  0
  188.6500  175.6830  143.2960 O   0  0  0  0  0  1  0  0  0  0  0  0
  191.5940  175.9150  143.8490 C   0  0  0  0  0  2  0  0  0  0  0  0
  187.2700  177.8370  147.0700 C   0  0  0  0  0  0  0  0  0  0  0  0
  189.9200  178.2010  142.7380 C   0  0  0  0  0  2  0  0  0  0  0  0
  186.8420  177.7650  148.2540 O   0  0  0  0  0  0  0  0  0  0  0  0
  189.1860  177.7210  145.4440 C   0  0  2  0  0  3  0  0  0  0  0  0
  190.7900  177.5970  140.4750 C   0  0  0  0  0  2  0  0  0  0  0  0
  189.7380  177.0700  139.5170 C   0  0  0  0  0  1  0  0  0  0  0  0
  184.9290  178.3110  146.2300 C   0  0  0  0  0  2  0  0  0  0  0  0
  184.3900  179.2490  145.1580 C   0  0  0  0  0  2  0  0  0  0  0  0
  183.0970  178.7060  144.5790 C   0  0  0  0  0  2  0  0  0  0  0  0
  183.1540  178.7330  143.0920 C   0  0  0  0  0  0  0  0  0  0  0  0
  182.0270  179.0760  142.3570 O   0  0  0  0  0  1  0  0  0  0  0  0
  184.2800  178.4250  142.4670 C   0  0  0  0  0  2  0  0  0  0  0  0
  1 12  1  1  0  0  0
  1  2  1  0  0  0  0
  2 11  1  1  0  0  0
  2 17  1  0  0  0  0
  3  6  1  0  0  0  0
  4 15  1  1  0  0  0
  4  1  1  0  0  0  0
  4  2  1  0  0  0  0
  5 20  1  1  0  0  0
  5 14  1  0  0  0  0
  7 13  1  0  0  0  0
  8 18  1  6  0  0  0
  8  7  1  0  0  0  0
  8 15  1  0  0  0  0
  9 14  1  0  0  0  0
  9 10  1  0  0  0  0
 11  5  1  0  0  0  0
 13  3  1  0  0  0  0
 14 16  2  0  0  0  0
 17  6  1  1  0  0  0
 17  9  1  0  0  0  0
 19 18  1  0  0  0  0
 21 20  1  0  0  0  0
 22 21  1  0  0  0  0
 23 22  1  0  0  0  0
 24 23  1  0  0  0  0
 25 23  2  0  0  0  0
M  END
>  <MODEL>
2

>  <REMARK>
 VINA RESULT:      -7.1      2.744      6.787
  Name = 
  5 active torsions:
  status: ('A' for Active; 'I' for Inactive)
    1  A    between atoms: C_2  and  C_21
    2  A    between atoms: C_6  and  C_15
    3  A    between atoms: C_8  and  C_11
    4  A    between atoms: C_15  and  C_25
    5  A    between atoms: C_21  and  C_25
                            x       y       z     vdW  Elec       q    Type
                         _______ _______ _______ _____ _____    ______ ____

>  <TORSDO>
F 5

$$$$
=
 OpenBabel10262419573D

 25 27  0  0  1  0  0  0  0  0999 V2000
  189.9650  176.3850  142.0240 C   0  0  1  0  0  3  0  0  0  0  0  0
  189.2610  177.6850  141.6380 C   0  0  1  0  0  0  0  0  0  0  0  0
  187.3250  177.8610  144.5190 O   0  0  0  0  0  0  0  0  0  0  0  0
  190.4960  177.7370  142.5520 C   0  0  1  0  0  3  0  0  0  0  0  0
  188.5840  177.6130  139.4720 C   0  0  1  0  0  3  0  0  0  0  0  0
  187.1890  177.3280  143.2320 C   0  0  0  0  0  2  0  0  0  0  0  0
  189.0910  177.1750  146.0040 C   0  0  0  0  0  2  0  0  0  0  0  0
  190.2780  177.1030  145.0460 C   0  0  1  0  0  3  0  0  0  0  0  0
  186.9850  178.6140  141.1500 N   0  0  0  0  0  0  0  0  0  0  0  0
  185.8350  179.4500  141.4630 C   0  0  0  0  0  1  0  0  0  0  0  0
  189.5760  178.1190  140.3370 O   0  0  0  0  0  0  0  0  0  0  0  0
  189.2570  175.6430  142.9680 O   0  0  0  0  0  1  0  0  0  0  0  0
  187.7790  176.8020  145.3140 C   0  0  0  0  0  2  0  0  0  0  0  0
  187.2450  178.2260  139.7960 C   0  0  0  0  0  0  0  0  0  0  0  0
  190.1410  178.1840  143.9820 C   0  0  0  0  0  2  0  0  0  0  0  0
  186.3530  178.3430  138.9110 O   0  0  0  0  0  0  0  0  0  0  0  0
  187.9060  178.2270  142.2220 C   0  0  2  0  0  3  0  0  0  0  0  0
  191.5690  177.2860  145.8250 C   0  0  0  0  0  2  0  0  0  0  0  0
  191.7010  176.2100  146.8860 C   0  0  0  0  0  1  0  0  0  0  0  0
  188.9930  177.8130  138.0110 C   0  0  0  0  0  2  0  0  0  0  0  0
  188.6160  176.6300  137.1290 C   0  0  0  0  0  2  0  0  0  0  0  0
  189.8560  176.0180  136.5040 C   0  0  0  0  0  2  0  0  0  0  0  0
  190.2630  174.8060  137.2660 C   0  0  0  0  0  0  0  0  0  0  0  0
  191.2060  174.9050  138.2810 O   0  0  0  0  0  1  0  0  0  0  0  0
  189.7310  173.6300  136.9730 C   0  0  0  0  0  2  0  0  0  0  0  0
  1  4  1  0  0  0  0
  1 12  1  1  0  0  0
  2 11  1  6  0  0  0
  2  1  1  0  0  0  0
  2 17  1  0  0  0  0
  2  4  1  0  0  0  0
  3 13  1  0  0  0  0
  4 15  1  1  0  0  0
  5 20  1  6  0  0  0
  5 14  1  0  0  0  0
  5 11  1  0  0  0  0
  6  3  1  0  0  0  0
  8 18  1  1  0  0  0
  8  7  1  0  0  0  0
  9 10  1  0  0  0  0
  9 17  1  0  0  0  0
 13  7  1  0  0  0  0
 14  9  1  0  0  0  0
 15  8  1  0  0  0  0
 16 14  2  0  0  0  0
 17  6  1  6  0  0  0
 18 19  1  0  0  0  0
 21 20  1  0  0  0  0
 22 21  1  0  0  0  0
 22 23  1  0  0  0  0
 23 24  1  0  0  0  0
 25 23  2  0  0  0  0
M  END
>  <MODEL>
3

>  <REMARK>
 VINA RESULT:      -6.9      1.017      1.194
  Name = 
  5 active torsions:
  status: ('A' for Active; 'I' for Inactive)
    1  A    between atoms: C_2  and  C_21
    2  A    between atoms: C_6  and  C_15
    3  A    between atoms: C_8  and  C_11
    4  A    between atoms: C_15  and  C_25
    5  A    between atoms: C_21  and  C_25
                            x       y       z     vdW  Elec       q    Type
                         _______ _______ _______ _____ _____    ______ ____

>  <TORSDO>
F 5

$$$$
=
 OpenBabel10262419573D

 25 27  0  0  1  0  0  0  0  0999 V2000
  191.2370  176.1260  142.6840 C   0  0  1  0  0  3  0  0  0  0  0  0
  190.9540  177.2760  141.7190 C   0  0  1  0  0  0  0  0  0  0  0  0
  187.6400  177.6850  142.6840 O   0  0  0  0  0  0  0  0  0  0  0  0
  191.3410  177.5870  143.1750 C   0  0  1  0  0  3  0  0  0  0  0  0
  191.7880  176.8150  139.6590 C   0  0  1  0  0  3  0  0  0  0  0  0
  188.3350  176.9550  141.7130 C   0  0  0  0  0  2  0  0  0  0  0  0
  188.0680  177.4090  145.0370 C   0  0  0  0  0  2  0  0  0  0  0  0
  189.5920  177.3140  145.0560 C   0  0  1  0  0  3  0  0  0  0  0  0
  189.5060  177.8890  139.7680 N   0  0  0  0  0  0  0  0  0  0  0  0
  188.4290  178.6430  139.1420 C   0  0  0  0  0  1  0  0  0  0  0  0
  192.0250  177.5410  140.8450 O   0  0  0  0  0  0  0  0  0  0  0  0
  190.0820  175.4660  143.0980 O   0  0  0  0  0  1  0  0  0  0  0  0
  187.4760  176.8070  143.7630 C   0  0  0  0  0  2  0  0  0  0  0  0
  190.5540  177.3310  138.9650 C   0  0  0  0  0  0  0  0  0  0  0  0
  190.1720  178.2050  143.9650 C   0  0  0  0  0  2  0  0  0  0  0  0
  190.4190  177.2260  137.7150 O   0  0  0  0  0  0  0  0  0  0  0  0
  189.5420  177.7610  141.2270 C   0  0  2  0  0  3  0  0  0  0  0  0
  190.1090  177.7400  146.4190 C   0  0  0  0  0  2  0  0  0  0  0  0
  189.0840  177.4280  147.4930 C   0  0  0  0  0  1  0  0  0  0  0  0
  193.0290  176.8350  138.7620 C   0  0  0  0  0  2  0  0  0  0  0  0
  193.2260  175.5280  138.0050 C   0  0  0  0  0  2  0  0  0  0  0  0
  194.6170  174.9750  138.2580 C   0  0  0  0  0  2  0  0  0  0  0  0
  194.6460  173.5170  137.9590 C   0  0  0  0  0  0  0  0  0  0  0  0
  195.2750  172.6390  138.8310 O   0  0  0  0  0  1  0  0  0  0  0  0
  194.0750  173.0550  136.8570 C   0  0  0  0  0  2  0  0  0  0  0  0
  1 12  1  1  0  0  0
  1  4  1  0  0  0  0
  2 11  1  6  0  0  0
  2  1  1  0  0  0  0
  2  4  1  0  0  0  0
  3 13  1  0  0  0  0
  4 15  1  1  0  0  0
  5 20  1  6  0  0  0
  5 11  1  0  0  0  0
  6  3  1  0  0  0  0
  7  8  1  0  0  0  0
  8 18  1  1  0  0  0
  9 17  1  0  0  0  0
 10  9  1  0  0  0  0
 13  7  1  0  0  0  0
 14  5  1  0  0  0  0
 14  9  1  0  0  0  0
 15  8  1  0  0  0  0
 16 14  2  0  0  0  0
 17  6  1  6  0  0  0
 17  2  1  0  0  0  0
 18 19  1  0  0  0  0
 21 22  1  0  0  0  0
 21 20  1  0  0  0  0
 23 22  1  0  0  0  0
 23 24  1  0  0  0  0
 25 23  2  0  0  0  0
M  END
>  <MODEL>
4

>  <REMARK>
 VINA RESULT:      -6.6      1.966      2.736
  Name = 
  5 active torsions:
  status: ('A' for Active; 'I' for Inactive)
    1  A    between atoms: C_2  and  C_21
    2  A    between atoms: C_6  and  C_15
    3  A    between atoms: C_8  and  C_11
    4  A    between atoms: C_15  and  C_25
    5  A    between atoms: C_21  and  C_25
                            x       y       z     vdW  Elec       q    Type
                         _______ _______ _______ _____ _____    ______ ____

>  <TORSDO>
F 5

$$$$
=
 OpenBabel10262419573D

 25 27  0  0  1  0  0  0  0  0999 V2000
  187.8880  176.9060  142.7620 C   0  0  1  0  0  3  0  0  0  0  0  0
  187.3350  178.1110  143.5210 C   0  0  1  0  0  0  0  0  0  0  0  0
  189.2890  177.6220  146.3530 O   0  0  0  0  0  0  0  0  0  0  0  0
  188.6460  178.2520  142.7290 C   0  0  1  0  0  3  0  0  0  0  0  0
  185.0730  178.1930  143.3520 C   0  0  1  0  0  3  0  0  0  0  0  0
  188.0190  177.2330  145.9130 C   0  0  0  0  0  2  0  0  0  0  0  0
  191.2890  177.0580  145.1370 C   0  0  0  0  0  2  0  0  0  0  0  0
  190.8410  177.2950  143.6960 C   0  0  1  0  0  3  0  0  0  0  0  0
  186.0820  178.7110  145.6070 N   0  0  0  0  0  0  0  0  0  0  0  0
  185.9860  179.3060  146.9320 C   0  0  0  0  0  1  0  0  0  0  0  0
  186.2710  178.7450  142.8520 O   0  0  0  0  0  0  0  0  0  0  0  0
  188.4590  175.9510  143.6010 O   0  0  0  0  0  1  0  0  0  0  0  0
  190.1400  176.5620  146.0160 C   0  0  0  0  0  2  0  0  0  0  0  0
  184.9040  178.5370  144.8090 C   0  0  0  0  0  0  0  0  0  0  0  0
  189.8610  178.4600  143.6530 C   0  0  0  0  0  2  0  0  0  0  0  0
  183.7580  178.6140  145.3310 O   0  0  0  0  0  0  0  0  0  0  0  0
  187.3990  178.3530  145.0730 C   0  0  2  0  0  3  0  0  0  0  0  0
  192.0540  177.5900  142.8310 C   0  0  0  0  0  2  0  0  0  0  0  0
  191.6860  177.5030  141.3610 C   0  0  0  0  0  1  0  0  0  0  0  0
  183.8820  178.6320  142.4950 C   0  0  0  0  0  2  0  0  0  0  0  0
  184.0480  178.2590  141.0270 C   0  0  0  0  0  2  0  0  0  0  0  0
  182.8120  178.6520  140.2390 C   0  0  0  0  0  2  0  0  0  0  0  0
  183.1420  179.7530  139.2930 C   0  0  0  0  0  0  0  0  0  0  0  0
  184.4640  180.1280  139.0940 O   0  0  0  0  0  1  0  0  0  0  0  0
  182.1740  180.3800  138.6420 C   0  0  0  0  0  2  0  0  0  0  0  0
  1  2  1  0  0  0  0
  1 12  1  1  0  0  0
  2 11  1  6  0  0  0
  2 17  1  0  0  0  0
  4  1  1  0  0  0  0
  4  2  1  0  0  0  0
  4 15  1  1  0  0  0
  5 20  1  6  0  0  0
  5 14  1  0  0  0  0
  6  3  1  0  0  0  0
  7 13  1  0  0  0  0
  8 18  1  6  0  0  0
  8  7  1  0  0  0  0
  9 10  1  0  0  0  0
 11  5  1  0  0  0  0
 13  3  1  0  0  0  0
 14 16  2  0  0  0  0
 14  9  1  0  0  0  0
 15  8  1  0  0  0  0
 17  9  1  0  0  0  0
 17  6  1  1  0  0  0
 19 18  1  0  0  0  0
 21 20  1  0  0  0  0
 22 21  1  0  0  0  0
 23 22  1  0  0  0  0
 24 23  1  0  0  0  0
 25 23  2  0  0  0  0
M  END
>  <MODEL>
5

>  <REMARK>
 VINA RESULT:      -6.5      2.943      5.531
  Name = 
  5 active torsions:
  status: ('A' for Active; 'I' for Inactive)
    1  A    between atoms: C_2  and  C_21
    2  A    between atoms: C_6  and  C_15
    3  A    between atoms: C_8  and  C_11
    4  A    between atoms: C_15  and  C_25
    5  A    between atoms: C_21  and  C_25
                            x       y       z     vdW  Elec       q    Type
                         _______ _______ _______ _____ _____    ______ ____

>  <TORSDO>
F 5

$$$$
=
 OpenBabel10262419573D

 25 27  0  0  1  0  0  0  0  0999 V2000
  190.0530  178.0390  143.2650 C   0  0  1  0  0  3  0  0  0  0  0  0
  188.6830  177.3760  143.3990 C   0  0  1  0  0  0  0  0  0  0  0  0
  187.5650  178.3270  140.2490 O   0  0  0  0  0  0  0  0  0  0  0  0
  189.8210  176.6240  142.6880 C   0  0  1  0  0  3  0  0  0  0  0  0
  187.7710  177.8290  145.4280 C   0  0  1  0  0  3  0  0  0  0  0  0
  187.5130  178.8470  141.5470 C   0  0  0  0  0  2  0  0  0  0  0  0
  189.6520  177.8760  139.1370 C   0  0  0  0  0  2  0  0  0  0  0  0
  190.4690  177.2610  140.2710 C   0  0  1  0  0  3  0  0  0  0  0  0
  186.2360  177.9150  143.4260 N   0  0  0  0  0  0  0  0  0  0  0  0
  184.8980  177.8840  142.8530 C   0  0  0  0  0  1  0  0  0  0  0  0
  188.4490  176.8430  144.6810 O   0  0  0  0  0  0  0  0  0  0  0  0
  190.0770  179.0490  142.3050 O   0  0  0  0  0  1  0  0  0  0  0  0
  188.6750  178.9340  139.6490 C   0  0  0  0  0  2  0  0  0  0  0  0
  186.4090  178.0900  144.8380 C   0  0  0  0  0  0  0  0  0  0  0  0
  189.5510  176.4550  141.1810 C   0  0  0  0  0  2  0  0  0  0  0  0
  185.4590  178.5050  145.5560 O   0  0  0  0  0  0  0  0  0  0  0  0
  187.3960  177.7020  142.5570 C   0  0  2  0  0  3  0  0  0  0  0  0
  191.5520  176.3700  139.6880 C   0  0  0  0  0  2  0  0  0  0  0  0
  191.2700  176.0840  138.2250 C   0  0  0  0  0  1  0  0  0  0  0  0
  187.7150  177.4350  146.9070 C   0  0  0  0  0  2  0  0  0  0  0  0
  188.9540  176.6750  147.3590 C   0  0  0  0  0  2  0  0  0  0  0  0
  190.1760  177.5740  147.3080 C   0  0  0  0  0  2  0  0  0  0  0  0
  191.4030  176.7540  147.1220 C   0  0  0  0  0  0  0  0  0  0  0  0
  192.3260  176.6370  148.1530 O   0  0  0  0  0  1  0  0  0  0  0  0
  191.6200  176.1380  145.9710 C   0  0  0  0  0  2  0  0  0  0  0  0
  1 12  1  6  0  0  0
  1  2  1  0  0  0  0
  2 11  1  1  0  0  0
  3  6  1  0  0  0  0
  4 15  1  6  0  0  0
  4  1  1  0  0  0  0
  4  2  1  0  0  0  0
  5 20  1  1  0  0  0
  7 13  1  0  0  0  0
  7  8  1  0  0  0  0
  8 18  1  6  0  0  0
  8 15  1  0  0  0  0
  9 14  1  0  0  0  0
 10  9  1  0  0  0  0
 11  5  1  0  0  0  0
 13  3  1  0  0  0  0
 14  5  1  0  0  0  0
 14 16  2  0  0  0  0
 17  6  1  1  0  0  0
 17  2  1  0  0  0  0
 17  9  1  0  0  0  0
 19 18  1  0  0  0  0
 20 21  1  0  0  0  0
 22 21  1  0  0  0  0
 23 22  1  0  0  0  0
 23 24  1  0  0  0  0
 25 23  2  0  0  0  0
M  END
>  <MODEL>
6

>  <REMARK>
 VINA RESULT:      -6.3      1.919      6.114
  Name = 
  5 active torsions:
  status: ('A' for Active; 'I' for Inactive)
    1  A    between atoms: C_2  and  C_21
    2  A    between atoms: C_6  and  C_15
    3  A    between atoms: C_8  and  C_11
    4  A    between atoms: C_15  and  C_25
    5  A    between atoms: C_21  and  C_25
                            x       y       z     vdW  Elec       q    Type
                         _______ _______ _______ _____ _____    ______ ____

>  <TORSDO>
F 5

$$$$
=
 OpenBabel10262419573D

 25 27  0  0  1  0  0  0  0  0999 V2000
  188.3060  178.8230  141.7330 C   0  0  1  0  0  3  0  0  0  0  0  0
  188.5890  177.6300  140.8230 C   0  0  1  0  0  0  0  0  0  0  0  0
  191.5870  176.7720  142.3570 O   0  0  0  0  0  0  0  0  0  0  0  0
  187.9100  177.3990  142.1840 C   0  0  1  0  0  3  0  0  0  0  0  0
  188.2070  178.1720  138.6520 C   0  0  1  0  0  3  0  0  0  0  0  0
  191.1860  177.5770  141.2850 C   0  0  0  0  0  2  0  0  0  0  0  0
  190.7930  177.1430  144.5990 C   0  0  0  0  0  2  0  0  0  0  0  0
  189.3190  177.4520  144.3480 C   0  0  1  0  0  3  0  0  0  0  0  0
  190.2570  176.7870  139.1540 N   0  0  0  0  0  0  0  0  0  0  0  0
  191.3100  175.8790  138.7220 C   0  0  0  0  0  1  0  0  0  0  0  0
  187.6630  177.5050  139.7700 O   0  0  0  0  0  0  0  0  0  0  0  0
  189.4510  179.3200  142.3520 O   0  0  0  0  0  1  0  0  0  0  0  0
  191.6810  177.6340  143.4560 C   0  0  0  0  0  2  0  0  0  0  0  0
  189.4580  177.4750  138.1830 C   0  0  0  0  0  0  0  0  0  0  0  0
  188.8210  176.6350  143.1630 C   0  0  0  0  0  2  0  0  0  0  0  0
  189.8260  177.5410  136.9780 O   0  0  0  0  0  0  0  0  0  0  0  0
  189.9820  176.9420  140.5850 C   0  0  2  0  0  3  0  0  0  0  0  0
  188.5130  177.1250  145.5930 C   0  0  0  0  0  2  0  0  0  0  0  0
  187.1960  177.8780  145.5810 C   0  0  0  0  0  1  0  0  0  0  0  0
  187.1550  178.3130  137.5490 C   0  0  0  0  0  2  0  0  0  0  0  0
  185.9430  177.4190  137.7770 C   0  0  0  0  0  2  0  0  0  0  0  0
  184.6810  178.2560  137.8830 C   0  0  0  0  0  2  0  0  0  0  0  0
  184.4100  178.5880  139.3090 C   0  0  0  0  0  0  0  0  0  0  0  0
  184.9300  179.7500  139.8640 O   0  0  0  0  0  1  0  0  0  0  0  0
  183.6780  177.7730  140.0510 C   0  0  0  0  0  2  0  0  0  0  0  0
  1  4  1  0  0  0  0
  1 12  1  1  0  0  0
  2 11  1  6  0  0  0
  2  1  1  0  0  0  0
  2  4  1  0  0  0  0
  3 13  1  0  0  0  0
  4 15  1  1  0  0  0
  5 20  1  6  0  0  0
  5 11  1  0  0  0  0
  6  3  1  0  0  0  0
  8  7  1  0  0  0  0
  8 18  1  1  0  0  0
  9 17  1  0  0  0  0
 10  9  1  0  0  0  0
 13  7  1  0  0  0  0
 14  5  1  0  0  0  0
 14  9  1  0  0  0  0
 15  8  1  0  0  0  0
 16 14  2  0  0  0  0
 17  2  1  0  0  0  0
 17  6  1  6  0  0  0
 19 18  1  0  0  0  0
 20 21  1  0  0  0  0
 21 22  1  0  0  0  0
 22 23  1  0  0  0  0
 23 24  1  0  0  0  0
 23 25  2  0  0  0  0
M  END
>  <MODEL>
7

>  <REMARK>
 VINA RESULT:      -6.3      2.072      4.626
  Name = 
  5 active torsions:
  status: ('A' for Active; 'I' for Inactive)
    1  A    between atoms: C_2  and  C_21
    2  A    between atoms: C_6  and  C_15
    3  A    between atoms: C_8  and  C_11
    4  A    between atoms: C_15  and  C_25
    5  A    between atoms: C_21  and  C_25
                            x       y       z     vdW  Elec       q    Type
                         _______ _______ _______ _____ _____    ______ ____

>  <TORSDO>
F 5

$$$$
=
 OpenBabel10262419573D

 25 27  0  0  1  0  0  0  0  0999 V2000
  188.3130  176.8150  142.3200 C   0  0  1  0  0  3  0  0  0  0  0  0
  187.5240  178.1190  142.4120 C   0  0  1  0  0  0  0  0  0  0  0  0
  186.9630  177.9030  145.8350 O   0  0  0  0  0  0  0  0  0  0  0  0
  189.0280  178.1210  142.7320 C   0  0  1  0  0  3  0  0  0  0  0  0
  186.0070  178.2570  140.7290 C   0  0  1  0  0  3  0  0  0  0  0  0
  186.2990  177.5080  144.6680 C   0  0  0  0  0  2  0  0  0  0  0  0
  189.1810  177.1310  146.3660 C   0  0  0  0  0  2  0  0  0  0  0  0
  189.8610  177.2110  145.0010 C   0  0  1  0  0  3  0  0  0  0  0  0
  185.2590  179.0040  143.0220 N   0  0  0  0  0  0  0  0  0  0  0  0
  184.3510  179.7540  143.8770 C   0  0  0  0  0  1  0  0  0  0  0  0
  187.2740  178.7050  141.1570 O   0  0  0  0  0  0  0  0  0  0  0  0
  188.0560  175.9470  143.3790 O   0  0  0  0  0  1  0  0  0  0  0  0
  187.6970  176.7820  146.2430 C   0  0  0  0  0  2  0  0  0  0  0  0
  184.9290  178.7760  141.6460 C   0  0  0  0  0  0  0  0  0  0  0  0
  189.3030  178.3960  144.2230 C   0  0  0  0  0  2  0  0  0  0  0  0
  183.7510  178.9530  141.2300 O   0  0  0  0  0  0  0  0  0  0  0  0
  186.5400  178.5400  143.5640 C   0  0  2  0  0  3  0  0  0  0  0  0
  191.3600  177.3600  145.1910 C   0  0  0  0  0  2  0  0  0  0  0  0
  191.8620  176.3690  146.2240 C   0  0  0  0  0  1  0  0  0  0  0  0
  185.7730  178.6310  139.2630 C   0  0  0  0  0  2  0  0  0  0  0  0
  186.3440  177.6020  138.2970 C   0  0  0  0  0  2  0  0  0  0  0  0
  187.1450  178.2870  137.2050 C   0  0  0  0  0  2  0  0  0  0  0  0
  188.5830  178.3390  137.5860 C   0  0  0  0  0  0  0  0  0  0  0  0
  189.0570  179.3740  138.3810 O   0  0  0  0  0  1  0  0  0  0  0  0
  189.4140  177.3990  137.1640 C   0  0  0  0  0  2  0  0  0  0  0  0
  1  2  1  0  0  0  0
  1  4  1  0  0  0  0
  1 12  1  1  0  0  0
  2 11  1  6  0  0  0
  2  4  1  0  0  0  0
  2 17  1  0  0  0  0
  3 13  1  0  0  0  0
  4 15  1  1  0  0  0
  5 20  1  6  0  0  0
  5 11  1  0  0  0  0
  5 14  1  0  0  0  0
  6  3  1  0  0  0  0
  8 18  1  1  0  0  0
  8  7  1  0  0  0  0
  9 17  1  0  0  0  0
  9 10  1  0  0  0  0
 13  7  1  0  0  0  0
 14  9  1  0  0  0  0
 15  8  1  0  0  0  0
 16 14  2  0  0  0  0
 17  6  1  1  0  0  0
 18 19  1  0  0  0  0
 21 20  1  0  0  0  0
 22 23  1  0  0  0  0
 22 21  1  0  0  0  0
 23 24  1  0  0  0  0
 25 23  2  0  0  0  0
M  END
>  <MODEL>
8

>  <REMARK>
 VINA RESULT:      -6.2      1.958      2.719
  Name = 
  5 active torsions:
  status: ('A' for Active; 'I' for Inactive)
    1  A    between atoms: C_2  and  C_21
    2  A    between atoms: C_6  and  C_15
    3  A    between atoms: C_8  and  C_11
    4  A    between atoms: C_15  and  C_25
    5  A    between atoms: C_21  and  C_25
                            x       y       z     vdW  Elec       q    Type
                         _______ _______ _______ _____ _____    ______ ____

>  <TORSDO>
F 5

$$$$
=
 OpenBabel10262419573D

 25 27  0  0  1  0  0  0  0  0999 V2000
  184.2620  179.1480  139.8870 C   0  0  1  0  0  3  0  0  0  0  0  0
  183.5300  178.4110  141.0060 C   0  0  1  0  0  0  0  0  0  0  0  0
  180.3450  179.2920  139.9310 O   0  0  0  0  0  0  0  0  0  0  0  0
  183.7200  177.7220  139.6450 C   0  0  1  0  0  3  0  0  0  0  0  0
  184.5160  178.8170  143.0100 C   0  0  1  0  0  3  0  0  0  0  0  0
  181.3020  179.8110  140.8100 C   0  0  0  0  0  2  0  0  0  0  0  0
  180.8090  178.9550  137.5930 C   0  0  0  0  0  2  0  0  0  0  0  0
  182.2250  178.3880  137.6470 C   0  0  1  0  0  3  0  0  0  0  0  0
  181.9930  178.8140  142.9450 N   0  0  0  0  0  0  0  0  0  0  0  0
  180.7080  178.7080  143.6200 C   0  0  0  0  0  1  0  0  0  0  0  0
  184.3980  177.8690  141.9730 O   0  0  0  0  0  0  0  0  0  0  0  0
  183.4940  180.1560  139.3060 O   0  0  0  0  0  1  0  0  0  0  0  0
  180.5540  179.9590  138.7170 C   0  0  0  0  0  2  0  0  0  0  0  0
  183.1920  179.0010  143.7060 C   0  0  0  0  0  0  0  0  0  0  0  0
  182.3860  177.5350  138.8980 C   0  0  0  0  0  2  0  0  0  0  0  0
  183.1370  179.3650  144.9130 O   0  0  0  0  0  0  0  0  0  0  0  0
  182.0550  178.6640  141.4880 C   0  0  2  0  0  3  0  0  0  0  0  0
  182.4860  177.5570  136.4020 C   0  0  0  0  0  2  0  0  0  0  0  0
  181.7520  176.2320  136.4900 C   0  0  0  0  0  1  0  0  0  0  0  0
  185.6440  178.4240  143.9690 C   0  0  0  0  0  2  0  0  0  0  0  0
  186.8330  177.7990  143.2500 C   0  0  0  0  0  2  0  0  0  0  0  0
  187.5350  176.8040  144.1560 C   0  0  0  0  0  2  0  0  0  0  0  0
  188.4810  177.5170  145.0570 C   0  0  0  0  0  0  0  0  0  0  0  0
  189.5560  178.2180  144.5250 O   0  0  0  0  0  1  0  0  0  0  0  0
  188.3030  177.4810  146.3680 C   0  0  0  0  0  2  0  0  0  0  0  0
  1 12  1  6  0  0  0
  1  2  1  0  0  0  0
  2 17  1  0  0  0  0
  2 11  1  1  0  0  0
  3  6  1  0  0  0  0
  4 15  1  6  0  0  0
  4  1  1  0  0  0  0
  4  2  1  0  0  0  0
  5 14  1  0  0  0  0
  5 20  1  1  0  0  0
  7  8  1  0  0  0  0
  7 13  1  0  0  0  0
  8 18  1  6  0  0  0
  8 15  1  0  0  0  0
  9 10  1  0  0  0  0
  9 14  1  0  0  0  0
 11  5  1  0  0  0  0
 13  3  1  0  0  0  0
 14 16  2  0  0  0  0
 17  6  1  6  0  0  0
 17  9  1  0  0  0  0
 18 19  1  0  0  0  0
 21 20  1  0  0  0  0
 21 22  1  0  0  0  0
 22 23  1  0  0  0  0
 23 25  2  0  0  0  0
 24 23  1  0  0  0  0
M  END
>  <MODEL>
9

>  <REMARK>
 VINA RESULT:      -6.0      4.332      8.415
  Name = 
  5 active torsions:
  status: ('A' for Active; 'I' for Inactive)
    1  A    between atoms: C_2  and  C_21
    2  A    between atoms: C_6  and  C_15
    3  A    between atoms: C_8  and  C_11
    4  A    between atoms: C_15  and  C_25
    5  A    between atoms: C_21  and  C_25
                            x       y       z     vdW  Elec       q    Type
                         _______ _______ _______ _____ _____    ______ ____

>  <TORSDO>
F 5

$$$$
