=
 OpenBabel10262421593D

 30 34  0  0  1  0  0  0  0  0999 V2000
  190.5290  176.9670  139.8740 C   0  0  0  0  0  0  0  0  0  0  0  0
  188.8720  175.5760  136.5820 C   0  0  0  0  0  2  0  0  0  0  0  0
  187.9740  177.1390  136.4180 S   0  0  2  0  0  0  0  0  0  0  0  0
  190.9160  175.9620  138.8300 C   0  0  1  0  0  3  0  0  0  0  0  0
  191.4260  177.5990  140.5420 N   0  0  0  0  0  2  0  0  0  0  0  0
  190.3810  175.7620  136.4340 C   0  0  0  0  0  2  0  0  0  0  0  0
  190.9080  176.7010  137.5020 C   0  0  2  0  0  3  0  0  0  0  0  0
  189.0670  177.3190  140.0000 C   0  0  2  0  0  3  0  0  0  0  0  0
  187.4570  177.5590  138.1090 C   0  0  1  0  0  3  0  0  0  0  0  0
  186.6880  176.7090  135.7270 O   0  0  0  0  0  0  0  0  0  0  0  0
  192.2200  176.2490  138.0980 C   0  0  0  0  0  2  0  0  0  0  0  0
  188.6040  178.2150  138.8560 C   0  0  0  0  0  2  0  0  0  0  0  0
  188.6740  177.8300  141.3660 C   0  0  0  0  0  0  0  0  0  0  0  0
  188.9850  178.9700  141.6730 O   0  0  0  0  0  0  0  0  0  0  0  0
  187.9900  176.9520  142.3910 C   0  0  2  0  0  3  0  0  0  0  0  0
  188.0220  177.5860  143.7710 C   0  0  2  0  0  3  0  0  0  0  0  0
  188.8930  176.3800  143.4960 C   0  0  2  0  0  3  0  0  0  0  0  0
  186.0800  178.3830  145.0690 C   0  0  0  0  0  2  0  0  0  0  0  0
  186.9550  177.5670  145.9950 C   0  0  0  0  0  2  0  0  0  0  0  0
  186.7950  177.1540  144.5460 C   0  0  0  0  0  3  0  0  0  0  0  0
  190.3590  176.8220  143.4480 C   0  0  0  0  0  2  0  0  0  0  0  0
  191.4090  177.0930  145.7220 C   0  0  0  0  0  1  0  0  0  0  0  0
  191.5720  178.9440  144.0590 C   0  0  0  0  0  1  0  0  0  0  0  0
  190.7190  177.7960  144.5680 C   0  0  0  0  0  3  0  0  0  0  0  0
  186.2910  178.5330  138.0830 C   0  0  0  0  0  2  0  0  0  0  0  0
  185.1530  177.9660  138.7920 N   0  0  0  0  0  2  0  0  0  0  0  0
  184.6460  178.9770  139.7110 C   0  0  0  0  0  0  0  0  0  0  0  0
  184.3060  180.2270  139.1930 O   0  0  0  0  0  1  0  0  0  0  0  0
  183.9200  178.5030  140.9460 C   0  0  0  0  0  2  0  0  0  0  0  0
  185.3560  179.0200  141.0380 C   0  0  0  0  0  2  0  0  0  0  0  0
  1  8  1  0  0  0  0
  1  5  2  0  0  0  0
  3 10  2  6  0  0  0
  3  2  1  0  0  0  0
  3  9  1  0  0  0  0
  4 11  1  1  0  0  0
  4  1  1  0  0  0  0
  6  2  1  0  0  0  0
  7  6  1  6  0  0  0
  7 11  1  0  0  0  0
  7  4  1  0  0  0  0
  8 13  1  1  0  0  0
  9 25  1  6  0  0  0
  9 12  1  0  0  0  0
 12  8  1  0  0  0  0
 13 14  2  0  0  0  0
 15 13  1  6  0  0  0
 15 17  1  0  0  0  0
 15 16  1  0  0  0  0
 16 20  1  1  0  0  0
 17 21  1  6  0  0  0
 17 16  1  0  0  0  0
 18 19  1  0  0  0  0
 20 18  1  0  0  0  0
 20 19  1  0  0  0  0
 21 24  1  0  0  0  0
 23 24  1  0  0  0  0
 24 22  1  0  0  0  0
 25 26  1  0  0  0  0
 26 27  1  0  0  0  0
 27 29  1  0  0  0  0
 27 30  1  0  0  0  0
 28 27  1  0  0  0  0
 29 30  1  0  0  0  0
M  END
>  <MODEL>
1

>  <REMARK>
 VINA RESULT:      -8.1      0.000      0.000
  Name = 
  8 active torsions:
  status: ('A' for Active; 'I' for Inactive)
    1  A    between atoms: C_1  and  C_4
    2  A    between atoms: C_1  and  C_22
    3  A    between atoms: N_7  and  C_10
    4  A    between atoms: N_7  and  C_25
    5  A    between atoms: C_8  and  C_30
    6  A    between atoms: C_9  and  C_12
    7  A    between atoms: C_9  and  C_21
    8  A    between atoms: C_23  and  C_25
                            x       y       z     vdW  Elec       q    Type
                         _______ _______ _______ _____ _____    ______ ____

>  <TORSDO>
F 8

$$$$
=
 OpenBabel10262421593D

 30 34  0  0  1  0  0  0  0  0999 V2000
  187.7890  178.3580  140.0810 C   0  0  0  0  0  0  0  0  0  0  0  0
  191.4420  177.6920  141.3960 C   0  0  0  0  0  2  0  0  0  0  0  0
  190.7460  176.6160  142.6740 S   0  0  2  0  0  0  0  0  0  0  0  0
  189.1590  178.3700  139.4700 C   0  0  1  0  0  3  0  0  0  0  0  0
  186.7520  178.1100  139.3640 N   0  0  0  0  0  2  0  0  0  0  0  0
  191.2230  177.1320  139.9920 C   0  0  0  0  0  2  0  0  0  0  0  0
  189.7420  176.9860  139.7030 C   0  0  2  0  0  3  0  0  0  0  0  0
  187.6900  178.4930  141.5800 C   0  0  2  0  0  3  0  0  0  0  0  0
  189.2490  177.4760  143.2430 C   0  0  1  0  0  3  0  0  0  0  0  0
  191.7340  176.7850  143.8200 O   0  0  0  0  0  0  0  0  0  0  0  0
  189.3630  177.4120  138.3040 C   0  0  0  0  0  2  0  0  0  0  0  0
  188.1000  177.2050  142.2880 C   0  0  0  0  0  2  0  0  0  0  0  0
  186.3720  179.0540  142.0600 C   0  0  0  0  0  0  0  0  0  0  0  0
  186.2540  180.2660  142.1530 O   0  0  0  0  0  0  0  0  0  0  0  0
  185.2320  178.1670  142.5100 C   0  0  2  0  0  3  0  0  0  0  0  0
  184.1110  178.9820  143.1320 C   0  0  2  0  0  3  0  0  0  0  0  0
  184.9750  178.1180  144.0250 C   0  0  2  0  0  3  0  0  0  0  0  0
  181.7250  179.3240  142.6020 C   0  0  0  0  0  2  0  0  0  0  0  0
  181.8100  178.6800  143.9690 C   0  0  0  0  0  2  0  0  0  0  0  0
  182.7900  178.2830  142.8840 C   0  0  0  0  0  3  0  0  0  0  0  0
  185.8720  179.0210  144.8780 C   0  0  0  0  0  2  0  0  0  0  0  0
  186.2270  179.8260  147.2380 C   0  0  0  0  0  1  0  0  0  0  0  0
  184.4970  178.0910  146.7740 C   0  0  0  0  0  1  0  0  0  0  0  0
  185.8460  178.6490  146.3600 C   0  0  0  0  0  3  0  0  0  0  0  0
  188.8440  176.9870  144.6220 C   0  0  0  0  0  2  0  0  0  0  0  0
  189.1880  177.9830  145.6260 N   0  0  0  0  0  2  0  0  0  0  0  0
  189.5680  177.2830  146.8450 C   0  0  0  0  0  0  0  0  0  0  0  0
  190.6930  176.4570  146.8080 O   0  0  0  0  0  1  0  0  0  0  0  0
  189.2010  177.9180  148.1630 C   0  0  0  0  0  2  0  0  0  0  0  0
  188.4070  176.7260  147.6270 C   0  0  0  0  0  2  0  0  0  0  0  0
  1  8  1  0  0  0  0
  2  3  1  0  0  0  0
  3  9  1  0  0  0  0
  3 10  2  1  0  0  0
  4 11  1  6  0  0  0
  4  7  1  0  0  0  0
  4  1  1  0  0  0  0
  5  1  2  0  0  0  0
  6  2  1  0  0  0  0
  7 11  1  6  0  0  0
  7  6  1  0  0  0  0
  8 13  1  6  0  0  0
  8 12  1  0  0  0  0
  9 25  1  1  0  0  0
 12  9  1  0  0  0  0
 13 14  2  0  0  0  0
 15 13  1  1  0  0  0
 15 16  1  0  0  0  0
 15 17  1  0  0  0  0
 16 20  1  6  0  0  0
 16 17  1  0  0  0  0
 17 21  1  1  0  0  0
 18 20  1  0  0  0  0
 18 19  1  0  0  0  0
 20 19  1  0  0  0  0
 21 24  1  0  0  0  0
 24 23  1  0  0  0  0
 24 22  1  0  0  0  0
 25 26  1  0  0  0  0
 26 27  1  0  0  0  0
 27 30  1  0  0  0  0
 27 29  1  0  0  0  0
 28 27  1  0  0  0  0
 30 29  1  0  0  0  0
M  END
>  <MODEL>
2

>  <REMARK>
 VINA RESULT:      -7.4      2.783      5.852
  Name = 
  8 active torsions:
  status: ('A' for Active; 'I' for Inactive)
    1  A    between atoms: C_1  and  C_4
    2  A    between atoms: C_1  and  C_22
    3  A    between atoms: N_7  and  C_10
    4  A    between atoms: N_7  and  C_25
    5  A    between atoms: C_8  and  C_30
    6  A    between atoms: C_9  and  C_12
    7  A    between atoms: C_9  and  C_21
    8  A    between atoms: C_23  and  C_25
                            x       y       z     vdW  Elec       q    Type
                         _______ _______ _______ _____ _____    ______ ____

>  <TORSDO>
F 8

$$$$
=
 OpenBabel10262421593D

 30 34  0  0  1  0  0  0  0  0999 V2000
  190.2630  176.8450  141.2750 C   0  0  0  0  0  0  0  0  0  0  0  0
  188.0200  177.0890  138.0460 C   0  0  0  0  0  2  0  0  0  0  0  0
  187.2280  178.5550  138.7520 S   0  0  2  0  0  0  0  0  0  0  0  0
  190.4080  176.4210  139.8440 C   0  0  1  0  0  3  0  0  0  0  0  0
  191.2970  177.1080  141.9900 N   0  0  0  0  0  2  0  0  0  0  0  0
  189.4980  177.3240  137.7410 C   0  0  0  0  0  2  0  0  0  0  0  0
  190.2520  177.6800  139.0080 C   0  0  2  0  0  3  0  0  0  0  0  0
  188.8680  177.0990  141.7920 C   0  0  2  0  0  3  0  0  0  0  0  0
  187.0100  178.1650  140.5140 C   0  0  1  0  0  3  0  0  0  0  0  0
  185.8220  178.4810  138.1740 O   0  0  0  0  0  0  0  0  0  0  0  0
  191.6020  177.0100  139.1050 C   0  0  0  0  0  2  0  0  0  0  0  0
  188.3050  178.4140  141.2660 C   0  0  0  0  0  2  0  0  0  0  0  0
  188.7300  176.9360  143.2880 C   0  0  0  0  0  0  0  0  0  0  0  0
  187.8100  176.2570  143.7170 O   0  0  0  0  0  0  0  0  0  0  0  0
  189.6340  177.6530  144.2660 C   0  0  2  0  0  3  0  0  0  0  0  0
  189.9090  176.7990  145.4920 C   0  0  2  0  0  3  0  0  0  0  0  0
  189.0080  178.0080  145.6250 C   0  0  2  0  0  3  0  0  0  0  0  0
  192.0090  175.8490  146.3750 C   0  0  0  0  0  2  0  0  0  0  0  0
  191.3720  176.6710  147.4740 C   0  0  0  0  0  2  0  0  0  0  0  0
  191.2830  177.1350  146.0340 C   0  0  0  0  0  3  0  0  0  0  0  0
  187.5660  177.5360  145.8330 C   0  0  0  0  0  2  0  0  0  0  0  0
  188.1300  178.2810  148.1710 C   0  0  0  0  0  1  0  0  0  0  0  0
  185.9810  179.0020  147.1320 C   0  0  0  0  0  1  0  0  0  0  0  0
  187.0190  177.8980  147.2120 C   0  0  0  0  0  3  0  0  0  0  0  0
  185.9310  179.0430  141.1250 C   0  0  0  0  0  2  0  0  0  0  0  0
  184.7040  178.2790  141.2950 N   0  0  0  0  0  2  0  0  0  0  0  0
  184.1080  178.6600  142.5680 C   0  0  0  0  0  0  0  0  0  0  0  0
  182.7360  178.9120  142.6050 O   0  0  0  0  0  1  0  0  0  0  0  0
  184.7690  178.1610  143.8300 C   0  0  0  0  0  2  0  0  0  0  0  0
  184.9430  179.6130  143.3820 C   0  0  0  0  0  2  0  0  0  0  0  0
  1  8  1  0  0  0  0
  1  5  2  0  0  0  0
  2  3  1  0  0  0  0
  3 10  2  6  0  0  0
  3  9  1  0  0  0  0
  4 11  1  1  0  0  0
  4  1  1  0  0  0  0
  6  2  1  0  0  0  0
  7  6  1  6  0  0  0
  7 11  1  0  0  0  0
  7  4  1  0  0  0  0
  8 13  1  1  0  0  0
  9 25  1  1  0  0  0
  9 12  1  0  0  0  0
 12  8  1  0  0  0  0
 13 14  2  0  0  0  0
 15 13  1  6  0  0  0
 15 16  1  0  0  0  0
 15 17  1  0  0  0  0
 16 17  1  0  0  0  0
 16 20  1  1  0  0  0
 17 21  1  6  0  0  0
 18 19  1  0  0  0  0
 20 18  1  0  0  0  0
 20 19  1  0  0  0  0
 21 24  1  0  0  0  0
 23 24  1  0  0  0  0
 24 22  1  0  0  0  0
 25 26  1  0  0  0  0
 26 27  1  0  0  0  0
 27 28  1  0  0  0  0
 27 30  1  0  0  0  0
 27 29  1  0  0  0  0
 30 29  1  0  0  0  0
M  END
>  <MODEL>
3

>  <REMARK>
 VINA RESULT:      -7.4      1.862      3.322
  Name = 
  8 active torsions:
  status: ('A' for Active; 'I' for Inactive)
    1  A    between atoms: C_1  and  C_4
    2  A    between atoms: C_1  and  C_22
    3  A    between atoms: N_7  and  C_10
    4  A    between atoms: N_7  and  C_25
    5  A    between atoms: C_8  and  C_30
    6  A    between atoms: C_9  and  C_12
    7  A    between atoms: C_9  and  C_21
    8  A    between atoms: C_23  and  C_25
                            x       y       z     vdW  Elec       q    Type
                         _______ _______ _______ _____ _____    ______ ____

>  <TORSDO>
F 8

$$$$
=
 OpenBabel10262421593D

 30 34  0  0  1  0  0  0  0  0999 V2000
  185.4540  178.4460  143.2210 C   0  0  0  0  0  0  0  0  0  0  0  0
  188.7590  176.3190  143.4790 C   0  0  0  0  0  2  0  0  0  0  0  0
  189.5220  177.4250  142.2660 S   0  0  2  0  0  0  0  0  0  0  0  0
  186.0870  177.5850  144.2740 C   0  0  1  0  0  3  0  0  0  0  0  0
  184.6670  179.4090  143.5450 N   0  0  0  0  0  2  0  0  0  0  0  0
  188.4330  177.0380  144.7860 C   0  0  0  0  0  2  0  0  0  0  0  0
  187.4610  178.1760  144.5380 C   0  0  2  0  0  3  0  0  0  0  0  0
  185.8930  178.2410  141.7920 C   0  0  2  0  0  3  0  0  0  0  0  0
  188.2190  177.7400  141.0380 C   0  0  1  0  0  3  0  0  0  0  0  0
  190.4980  176.5040  141.5480 O   0  0  0  0  0  0  0  0  0  0  0  0
  186.3870  178.2820  145.5950 C   0  0  0  0  0  2  0  0  0  0  0  0
  187.2810  178.8230  141.5420 C   0  0  0  0  0  2  0  0  0  0  0  0
  184.8660  178.6640  140.7680 C   0  0  0  0  0  0  0  0  0  0  0  0
  184.8120  179.8410  140.4480 O   0  0  0  0  0  0  0  0  0  0  0  0
  183.8520  177.6980  140.1950 C   0  0  2  0  0  3  0  0  0  0  0  0
  182.8330  178.4180  139.3280 C   0  0  2  0  0  3  0  0  0  0  0  0
  182.4030  177.8810  140.6760 C   0  0  2  0  0  3  0  0  0  0  0  0
  181.9280  178.2960  137.0350 C   0  0  0  0  0  2  0  0  0  0  0  0
  180.8850  177.7370  137.9770 C   0  0  0  0  0  2  0  0  0  0  0  0
  182.3550  177.4800  138.2390 C   0  0  0  0  0  3  0  0  0  0  0  0
  182.1660  179.0560  141.6310 C   0  0  0  0  0  2  0  0  0  0  0  0
  179.8850  177.9880  141.6570 C   0  0  0  0  0  1  0  0  0  0  0  0
  180.9560  178.6600  143.8050 C   0  0  0  0  0  1  0  0  0  0  0  0
  180.8100  178.9850  142.3300 C   0  0  0  0  0  3  0  0  0  0  0  0
  188.8230  178.2110  139.7270 C   0  0  0  0  0  2  0  0  0  0  0  0
  188.4000  177.3380  138.6410 N   0  0  0  0  0  2  0  0  0  0  0  0
  187.8670  178.1740  137.5740 C   0  0  0  0  0  0  0  0  0  0  0  0
  188.4720  179.4090  137.3390 O   0  0  0  0  0  1  0  0  0  0  0  0
  187.1940  177.4850  136.4120 C   0  0  0  0  0  2  0  0  0  0  0  0
  186.3630  178.1860  137.4880 C   0  0  0  0  0  2  0  0  0  0  0  0
  1  5  2  0  0  0  0
  1  4  1  0  0  0  0
  2  6  1  0  0  0  0
  3 10  2  6  0  0  0
  3  2  1  0  0  0  0
  4  7  1  0  0  0  0
  4 11  1  1  0  0  0
  7  6  1  1  0  0  0
  7 11  1  0  0  0  0
  8 13  1  6  0  0  0
  8  1  1  0  0  0  0
  9 25  1  6  0  0  0
  9 12  1  0  0  0  0
  9  3  1  0  0  0  0
 12  8  1  0  0  0  0
 14 13  2  0  0  0  0
 15 17  1  0  0  0  0
 15 13  1  1  0  0  0
 16 20  1  6  0  0  0
 16 15  1  0  0  0  0
 16 17  1  0  0  0  0
 17 21  1  1  0  0  0
 18 19  1  0  0  0  0
 18 20  1  0  0  0  0
 19 20  1  0  0  0  0
 21 24  1  0  0  0  0
 22 24  1  0  0  0  0
 24 23  1  0  0  0  0
 26 25  1  0  0  0  0
 27 26  1  0  0  0  0
 28 27  1  0  0  0  0
 29 30  1  0  0  0  0
 29 27  1  0  0  0  0
 30 27  1  0  0  0  0
M  END
>  <MODEL>
4

>  <REMARK>
 VINA RESULT:      -6.9      2.675      7.068
  Name = 
  8 active torsions:
  status: ('A' for Active; 'I' for Inactive)
    1  A    between atoms: C_1  and  C_4
    2  A    between atoms: C_1  and  C_22
    3  A    between atoms: N_7  and  C_10
    4  A    between atoms: N_7  and  C_25
    5  A    between atoms: C_8  and  C_30
    6  A    between atoms: C_9  and  C_12
    7  A    between atoms: C_9  and  C_21
    8  A    between atoms: C_23  and  C_25
                            x       y       z     vdW  Elec       q    Type
                         _______ _______ _______ _____ _____    ______ ____

>  <TORSDO>
F 8

$$$$
=
 OpenBabel10262421593D

 30 34  0  0  1  0  0  0  0  0999 V2000
  185.6220  178.2410  144.0470 C   0  0  0  0  0  0  0  0  0  0  0  0
  188.9060  176.2360  143.2050 C   0  0  0  0  0  2  0  0  0  0  0  0
  189.3060  177.4880  141.9600 S   0  0  2  0  0  0  0  0  0  0  0  0
  186.5210  177.3070  144.8010 C   0  0  1  0  0  3  0  0  0  0  0  0
  184.9350  179.1340  144.6660 N   0  0  0  0  0  2  0  0  0  0  0  0
  188.9260  176.8080  144.6210 C   0  0  0  0  0  2  0  0  0  0  0  0
  187.9090  177.9240  144.7580 C   0  0  2  0  0  3  0  0  0  0  0  0
  185.6710  178.1970  142.5400 C   0  0  2  0  0  3  0  0  0  0  0  0
  187.7210  177.8690  141.1560 C   0  0  1  0  0  3  0  0  0  0  0  0
  190.0710  176.6830  140.9190 O   0  0  0  0  0  0  0  0  0  0  0  0
  187.1500  177.8810  146.0640 C   0  0  0  0  0  2  0  0  0  0  0  0
  186.9350  178.8570  142.0000 C   0  0  0  0  0  2  0  0  0  0  0  0
  184.4040  178.6770  141.8710 C   0  0  0  0  0  0  0  0  0  0  0  0
  183.3760  178.7160  142.5280 O   0  0  0  0  0  0  0  0  0  0  0  0
  184.3500  179.0240  140.3990 C   0  0  2  0  0  3  0  0  0  0  0  0
  182.9170  179.2040  139.9260 C   0  0  2  0  0  3  0  0  0  0  0  0
  183.6890  177.9790  139.4850 C   0  0  2  0  0  3  0  0  0  0  0  0
  181.5040  180.8240  138.7140 C   0  0  0  0  0  2  0  0  0  0  0  0
  181.9110  179.7410  137.7390 C   0  0  0  0  0  2  0  0  0  0  0  0
  182.8880  180.2120  138.7970 C   0  0  0  0  0  3  0  0  0  0  0  0
  183.1190  176.7460  140.1940 C   0  0  0  0  0  2  0  0  0  0  0  0
  180.9010  175.9570  139.2990 C   0  0  0  0  0  1  0  0  0  0  0  0
  182.9020  175.9540  137.8120 C   0  0  0  0  0  1  0  0  0  0  0  0
  182.4070  175.7910  139.2370 C   0  0  0  0  0  3  0  0  0  0  0  0
  187.9520  178.4920  139.7900 C   0  0  0  0  0  2  0  0  0  0  0  0
  187.7970  177.4850  138.7510 N   0  0  0  0  0  2  0  0  0  0  0  0
  187.6950  178.1710  137.4700 C   0  0  0  0  0  0  0  0  0  0  0  0
  188.3920  179.3690  137.3070 O   0  0  0  0  0  1  0  0  0  0  0  0
  187.4350  177.3330  136.2430 C   0  0  0  0  0  2  0  0  0  0  0  0
  186.3140  178.1630  136.8710 C   0  0  0  0  0  2  0  0  0  0  0  0
  1  5  2  0  0  0  0
  1  4  1  0  0  0  0
  2  6  1  0  0  0  0
  3 10  2  6  0  0  0
  3  2  1  0  0  0  0
  4 11  1  1  0  0  0
  7  6  1  1  0  0  0
  7  4  1  0  0  0  0
  7 11  1  0  0  0  0
  8 13  1  6  0  0  0
  8  1  1  0  0  0  0
  9 25  1  6  0  0  0
  9  3  1  0  0  0  0
  9 12  1  0  0  0  0
 12  8  1  0  0  0  0
 13 14  2  0  0  0  0
 15 13  1  1  0  0  0
 16 20  1  6  0  0  0
 16 15  1  0  0  0  0
 17 16  1  0  0  0  0
 17 21  1  1  0  0  0
 17 15  1  0  0  0  0
 18 20  1  0  0  0  0
 19 18  1  0  0  0  0
 19 20  1  0  0  0  0
 23 24  1  0  0  0  0
 24 22  1  0  0  0  0
 24 21  1  0  0  0  0
 26 25  1  0  0  0  0
 27 26  1  0  0  0  0
 28 27  1  0  0  0  0
 29 30  1  0  0  0  0
 29 27  1  0  0  0  0
 30 27  1  0  0  0  0
M  END
>  <MODEL>
5

>  <REMARK>
 VINA RESULT:      -6.7      2.691      7.007
  Name = 
  8 active torsions:
  status: ('A' for Active; 'I' for Inactive)
    1  A    between atoms: C_1  and  C_4
    2  A    between atoms: C_1  and  C_22
    3  A    between atoms: N_7  and  C_10
    4  A    between atoms: N_7  and  C_25
    5  A    between atoms: C_8  and  C_30
    6  A    between atoms: C_9  and  C_12
    7  A    between atoms: C_9  and  C_21
    8  A    between atoms: C_23  and  C_25
                            x       y       z     vdW  Elec       q    Type
                         _______ _______ _______ _____ _____    ______ ____

>  <TORSDO>
F 8

$$$$
=
 OpenBabel10262421593D

 30 34  0  0  1  0  0  0  0  0999 V2000
  190.4050  177.0630  141.1410 C   0  0  0  0  0  0  0  0  0  0  0  0
  188.0840  176.6830  137.9810 C   0  0  0  0  0  2  0  0  0  0  0  0
  187.2380  178.2090  138.4650 S   0  0  2  0  0  0  0  0  0  0  0  0
  190.5390  176.4200  139.7930 C   0  0  1  0  0  3  0  0  0  0  0  0
  191.4410  177.4840  141.7750 N   0  0  0  0  0  2  0  0  0  0  0  0
  189.5420  176.9310  137.6000 C   0  0  0  0  0  2  0  0  0  0  0  0
  190.3050  177.5190  138.7700 C   0  0  2  0  0  3  0  0  0  0  0  0
  189.0120  177.3360  141.6510 C   0  0  2  0  0  3  0  0  0  0  0  0
  187.0770  178.0990  140.2720 C   0  0  1  0  0  3  0  0  0  0  0  0
  185.8250  177.9810  137.9470 O   0  0  0  0  0  0  0  0  0  0  0  0
  191.6880  176.9340  138.9340 C   0  0  0  0  0  2  0  0  0  0  0  0
  188.3740  178.5240  140.9370 C   0  0  0  0  0  2  0  0  0  0  0  0
  188.9130  177.4110  143.1570 C   0  0  0  0  0  0  0  0  0  0  0  0
  189.9060  177.7320  143.7910 O   0  0  0  0  0  0  0  0  0  0  0  0
  187.6570  177.0200  143.9050 C   0  0  2  0  0  3  0  0  0  0  0  0
  187.0340  178.2180  144.6010 C   0  0  2  0  0  3  0  0  0  0  0  0
  187.7160  177.1550  145.4350 C   0  0  2  0  0  3  0  0  0  0  0  0
  184.8580  179.3820  144.6550 C   0  0  0  0  0  2  0  0  0  0  0  0
  185.0190  178.6370  145.9620 C   0  0  0  0  0  2  0  0  0  0  0  0
  185.5330  178.0260  144.6740 C   0  0  0  0  0  3  0  0  0  0  0  0
  189.0220  177.7240  146.0000 C   0  0  0  0  0  2  0  0  0  0  0  0
  190.8730  176.7650  147.4140 C   0  0  0  0  0  1  0  0  0  0  0  0
  189.0150  178.0230  148.5010 C   0  0  0  0  0  1  0  0  0  0  0  0
  189.3980  177.1130  147.3490 C   0  0  0  0  0  3  0  0  0  0  0  0
  185.9710  179.0160  140.7660 C   0  0  0  0  0  2  0  0  0  0  0  0
  184.8530  178.2260  141.2610 N   0  0  0  0  0  2  0  0  0  0  0  0
  183.6520  178.6540  140.5570 C   0  0  0  0  0  0  0  0  0  0  0  0
  183.7470  179.7500  139.6980 O   0  0  0  0  0  1  0  0  0  0  0  0
  182.6040  177.6120  140.2580 C   0  0  0  0  0  2  0  0  0  0  0  0
  182.3980  178.6180  141.3910 C   0  0  0  0  0  2  0  0  0  0  0  0
  1  8  1  0  0  0  0
  1  5  2  0  0  0  0
  2  3  1  0  0  0  0
  3 10  2  6  0  0  0
  3  9  1  0  0  0  0
  4 11  1  6  0  0  0
  4  1  1  0  0  0  0
  6  2  1  0  0  0  0
  7  6  1  6  0  0  0
  7 11  1  0  0  0  0
  7  4  1  0  0  0  0
  8 13  1  1  0  0  0
  9 25  1  1  0  0  0
  9 12  1  0  0  0  0
 12  8  1  0  0  0  0
 13 14  2  0  0  0  0
 15 13  1  6  0  0  0
 15 16  1  0  0  0  0
 15 17  1  0  0  0  0
 16 20  1  1  0  0  0
 16 17  1  0  0  0  0
 17 21  1  6  0  0  0
 18 20  1  0  0  0  0
 18 19  1  0  0  0  0
 20 19  1  0  0  0  0
 21 24  1  0  0  0  0
 24 22  1  0  0  0  0
 24 23  1  0  0  0  0
 25 26  1  0  0  0  0
 27 26  1  0  0  0  0
 27 30  1  0  0  0  0
 28 27  1  0  0  0  0
 29 27  1  0  0  0  0
 29 30  1  0  0  0  0
M  END
>  <MODEL>
6

>  <REMARK>
 VINA RESULT:      -6.7      1.666      2.233
  Name = 
  8 active torsions:
  status: ('A' for Active; 'I' for Inactive)
    1  A    between atoms: C_1  and  C_4
    2  A    between atoms: C_1  and  C_22
    3  A    between atoms: N_7  and  C_10
    4  A    between atoms: N_7  and  C_25
    5  A    between atoms: C_8  and  C_30
    6  A    between atoms: C_9  and  C_12
    7  A    between atoms: C_9  and  C_21
    8  A    between atoms: C_23  and  C_25
                            x       y       z     vdW  Elec       q    Type
                         _______ _______ _______ _____ _____    ______ ____

>  <TORSDO>
F 8

$$$$
=
 OpenBabel10262421593D

 30 34  0  0  1  0  0  0  0  0999 V2000
  190.8770  177.1180  144.1520 C   0  0  0  0  0  0  0  0  0  0  0  0
  188.9820  178.2080  147.4290 C   0  0  0  0  0  2  0  0  0  0  0  0
  187.4720  177.4700  146.7560 S   0  0  2  0  0  0  0  0  0  0  0  0
  191.2740  177.3770  145.5750 C   0  0  1  0  0  3  0  0  0  0  0  0
  191.5530  176.3070  143.4190 N   0  0  0  0  0  2  0  0  0  0  0  0
  190.0590  177.1610  147.7060 C   0  0  0  0  0  2  0  0  0  0  0  0
  190.4390  176.4380  146.4290 C   0  0  2  0  0  3  0  0  0  0  0  0
  189.5810  177.7180  143.6660 C   0  0  2  0  0  3  0  0  0  0  0  0
  187.4780  177.9190  144.9950 C   0  0  1  0  0  3  0  0  0  0  0  0
  186.3820  178.3420  147.3620 O   0  0  0  0  0  0  0  0  0  0  0  0
  191.9250  176.2040  146.2960 C   0  0  0  0  0  2  0  0  0  0  0  0
  188.3730  176.9690  144.2190 C   0  0  0  0  0  2  0  0  0  0  0  0
  189.5270  177.9340  142.1720 C   0  0  0  0  0  0  0  0  0  0  0  0
  189.1310  179.0100  141.7530 O   0  0  0  0  0  0  0  0  0  0  0  0
  189.8630  176.8390  141.1840 C   0  0  2  0  0  3  0  0  0  0  0  0
  190.5540  177.3990  139.9520 C   0  0  2  0  0  3  0  0  0  0  0  0
  189.1290  176.9010  139.8340 C   0  0  2  0  0  3  0  0  0  0  0  0
  191.9000  176.7530  137.9870 C   0  0  0  0  0  2  0  0  0  0  0  0
  190.8450  175.6890  138.1980 C   0  0  0  0  0  2  0  0  0  0  0  0
  191.4970  176.3540  139.3930 C   0  0  0  0  0  3  0  0  0  0  0  0
  188.1950  178.1000  139.6450 C   0  0  0  0  0  2  0  0  0  0  0  0
  188.7330  178.9810  137.3470 C   0  0  0  0  0  1  0  0  0  0  0  0
  187.3630  176.9110  137.5850 C   0  0  0  0  0  1  0  0  0  0  0  0
  187.7140  178.2520  138.2030 C   0  0  0  0  0  3  0  0  0  0  0  0
  186.0770  177.8280  144.4150 C   0  0  0  0  0  2  0  0  0  0  0  0
  186.1330  177.9040  142.9630 N   0  0  0  0  0  2  0  0  0  0  0  0
  185.0970  178.8260  142.5200 C   0  0  0  0  0  0  0  0  0  0  0  0
  185.2320  179.4150  141.2620 O   0  0  0  0  0  1  0  0  0  0  0  0
  183.7020  178.6280  143.0590 C   0  0  0  0  0  2  0  0  0  0  0  0
  184.5900  179.7520  143.5940 C   0  0  0  0  0  2  0  0  0  0  0  0
  1  4  1  0  0  0  0
  2  6  1  0  0  0  0
  3 10  2  1  0  0  0
  3  2  1  0  0  0  0
  4 11  1  6  0  0  0
  4  7  1  0  0  0  0
  5  1  2  0  0  0  0
  7 11  1  1  0  0  0
  7  6  1  0  0  0  0
  8 13  1  6  0  0  0
  8  1  1  0  0  0  0
  8 12  1  0  0  0  0
  9 25  1  6  0  0  0
  9  3  1  0  0  0  0
 12  9  1  0  0  0  0
 14 13  2  0  0  0  0
 15 13  1  1  0  0  0
 16 20  1  6  0  0  0
 16 15  1  0  0  0  0
 17 21  1  1  0  0  0
 17 16  1  0  0  0  0
 17 15  1  0  0  0  0
 18 19  1  0  0  0  0
 18 20  1  0  0  0  0
 19 20  1  0  0  0  0
 22 24  1  0  0  0  0
 23 24  1  0  0  0  0
 24 21  1  0  0  0  0
 26 25  1  0  0  0  0
 27 26  1  0  0  0  0
 27 29  1  0  0  0  0
 27 30  1  0  0  0  0
 28 27  1  0  0  0  0
 29 30  1  0  0  0  0
M  END
>  <MODEL>
7

>  <REMARK>
 VINA RESULT:      -6.7      2.741      6.760
  Name = 
  8 active torsions:
  status: ('A' for Active; 'I' for Inactive)
    1  A    between atoms: C_1  and  C_4
    2  A    between atoms: C_1  and  C_22
    3  A    between atoms: N_7  and  C_10
    4  A    between atoms: N_7  and  C_25
    5  A    between atoms: C_8  and  C_30
    6  A    between atoms: C_9  and  C_12
    7  A    between atoms: C_9  and  C_21
    8  A    between atoms: C_23  and  C_25
                            x       y       z     vdW  Elec       q    Type
                         _______ _______ _______ _____ _____    ______ ____

>  <TORSDO>
F 8

$$$$
=
 OpenBabel10262421593D

 30 34  0  0  1  0  0  0  0  0999 V2000
  189.0910  177.5820  144.1600 C   0  0  0  0  0  0  0  0  0  0  0  0
  186.0470  179.0020  146.2170 C   0  0  0  0  0  2  0  0  0  0  0  0
  184.9310  178.3070  144.9730 S   0  0  2  0  0  0  0  0  0  0  0  0
  188.8430  177.9150  145.6010 C   0  0  1  0  0  3  0  0  0  0  0  0
  189.9510  176.6840  143.8310 N   0  0  0  0  0  2  0  0  0  0  0  0
  186.8030  177.9170  146.9800 C   0  0  0  0  0  2  0  0  0  0  0  0
  187.6440  177.0870  146.0300 C   0  0  2  0  0  3  0  0  0  0  0  0
  188.1940  178.2200  143.1290 C   0  0  2  0  0  3  0  0  0  0  0  0
  185.7460  178.6320  143.3810 C   0  0  1  0  0  3  0  0  0  0  0  0
  183.7600  179.2800  145.0010 O   0  0  0  0  0  0  0  0  0  0  0  0
  189.0130  176.7590  146.5780 C   0  0  0  0  0  2  0  0  0  0  0  0
  186.8090  177.5810  143.1170 C   0  0  0  0  0  2  0  0  0  0  0  0
  188.8190  178.3350  141.7580 C   0  0  0  0  0  0  0  0  0  0  0  0
  188.9590  179.4460  141.2730 O   0  0  0  0  0  0  0  0  0  0  0  0
  189.1930  177.1210  140.9360 C   0  0  2  0  0  3  0  0  0  0  0  0
  190.0160  177.5100  139.7200 C   0  0  2  0  0  3  0  0  0  0  0  0
  188.5880  177.0510  139.5250 C   0  0  2  0  0  3  0  0  0  0  0  0
  191.7190  176.7330  138.1110 C   0  0  0  0  0  2  0  0  0  0  0  0
  190.5460  175.7800  138.0440 C   0  0  0  0  0  2  0  0  0  0  0  0
  190.9590  176.3770  139.3730 C   0  0  0  0  0  3  0  0  0  0  0  0
  187.7280  178.2510  139.1130 C   0  0  0  0  0  2  0  0  0  0  0  0
  188.4140  178.6850  136.7290 C   0  0  0  0  0  1  0  0  0  0  0  0
  186.8520  176.8100  137.2410 C   0  0  0  0  0  1  0  0  0  0  0  0
  187.3070  178.2000  137.6460 C   0  0  0  0  0  3  0  0  0  0  0  0
  184.7380  178.5820  142.2450 C   0  0  0  0  0  2  0  0  0  0  0  0
  185.2130  179.3780  141.1230 N   0  0  0  0  0  2  0  0  0  0  0  0
  184.2440  179.2550  140.0420 C   0  0  0  0  0  0  0  0  0  0  0  0
  184.1790  180.2780  139.0950 O   0  0  0  0  0  1  0  0  0  0  0  0
  183.8480  177.8650  139.6080 C   0  0  0  0  0  2  0  0  0  0  0  0
  182.9060  178.7100  140.4680 C   0  0  0  0  0  2  0  0  0  0  0  0
  1  4  1  0  0  0  0
  2  6  1  0  0  0  0
  3 10  2  6  0  0  0
  3  2  1  0  0  0  0
  4  7  1  0  0  0  0
  4 11  1  1  0  0  0
  5  1  2  0  0  0  0
  7 11  1  1  0  0  0
  7  6  1  0  0  0  0
  8 13  1  6  0  0  0
  8  1  1  0  0  0  0
  9 25  1  6  0  0  0
  9  3  1  0  0  0  0
 12  8  1  0  0  0  0
 12  9  1  0  0  0  0
 14 13  2  0  0  0  0
 15 13  1  1  0  0  0
 16 20  1  6  0  0  0
 16 15  1  0  0  0  0
 17 21  1  1  0  0  0
 17 16  1  0  0  0  0
 17 15  1  0  0  0  0
 18 20  1  0  0  0  0
 19 18  1  0  0  0  0
 19 20  1  0  0  0  0
 22 24  1  0  0  0  0
 23 24  1  0  0  0  0
 24 21  1  0  0  0  0
 26 25  1  0  0  0  0
 27 30  1  0  0  0  0
 27 26  1  0  0  0  0
 28 27  1  0  0  0  0
 29 27  1  0  0  0  0
 29 30  1  0  0  0  0
M  END
>  <MODEL>
8

>  <REMARK>
 VINA RESULT:      -6.6      2.471      6.540
  Name = 
  8 active torsions:
  status: ('A' for Active; 'I' for Inactive)
    1  A    between atoms: C_1  and  C_4
    2  A    between atoms: C_1  and  C_22
    3  A    between atoms: N_7  and  C_10
    4  A    between atoms: N_7  and  C_25
    5  A    between atoms: C_8  and  C_30
    6  A    between atoms: C_9  and  C_12
    7  A    between atoms: C_9  and  C_21
    8  A    between atoms: C_23  and  C_25
                            x       y       z     vdW  Elec       q    Type
                         _______ _______ _______ _____ _____    ______ ____

>  <TORSDO>
F 8

$$$$
=
 OpenBabel10262421593D

 30 34  0  0  1  0  0  0  0  0999 V2000
  182.1710  179.0040  143.1680 C   0  0  0  0  0  0  0  0  0  0  0  0
  180.8870  179.4480  139.4710 C   0  0  0  0  0  2  0  0  0  0  0  0
  182.0260  178.1380  138.9580 S   0  0  2  0  0  0  0  0  0  0  0  0
  180.8990  179.4800  142.5330 C   0  0  1  0  0  3  0  0  0  0  0  0
  182.1650  178.4830  144.3430 N   0  0  0  0  0  2  0  0  0  0  0  0
  179.7950  178.9270  140.4020 C   0  0  0  0  0  2  0  0  0  0  0  0
  180.4040  178.3390  141.6600 C   0  0  2  0  0  3  0  0  0  0  0  0
  183.4220  179.0160  142.3250 C   0  0  2  0  0  3  0  0  0  0  0  0
  183.5500  178.4500  139.8980 C   0  0  1  0  0  3  0  0  0  0  0  0
  182.3740  178.5440  137.5330 O   0  0  0  0  0  0  0  0  0  0  0  0
  179.6460  178.7020  142.9150 C   0  0  0  0  0  2  0  0  0  0  0  0
  183.4200  177.8850  141.3010 C   0  0  0  0  0  2  0  0  0  0  0  0
  184.7000  179.1060  143.1250 C   0  0  0  0  0  0  0  0  0  0  0  0
  185.2900  180.1750  143.1620 O   0  0  0  0  0  0  0  0  0  0  0  0
  185.3160  177.9020  143.8030 C   0  0  2  0  0  3  0  0  0  0  0  0
  186.6280  178.2610  144.4800 C   0  0  2  0  0  3  0  0  0  0  0  0
  186.6560  177.4160  143.2250 C   0  0  2  0  0  3  0  0  0  0  0  0
  187.1330  178.2320  146.8960 C   0  0  0  0  0  2  0  0  0  0  0  0
  188.2510  177.5080  146.1780 C   0  0  0  0  0  2  0  0  0  0  0  0
  186.8240  177.3700  145.6890 C   0  0  0  0  0  3  0  0  0  0  0  0
  187.2210  178.2520  142.0720 C   0  0  0  0  0  2  0  0  0  0  0  0
  189.1510  176.6830  142.4710 C   0  0  0  0  0  1  0  0  0  0  0  0
  189.0090  177.9420  140.3240 C   0  0  0  0  0  1  0  0  0  0  0  0
  188.6990  177.9710  141.8090 C   0  0  0  0  0  3  0  0  0  0  0  0
  184.7370  177.7810  139.2270 C   0  0  0  0  0  2  0  0  0  0  0  0
  185.6910  178.7870  138.7840 N   0  0  0  0  0  2  0  0  0  0  0  0
  186.3900  178.2630  137.6180 C   0  0  0  0  0  0  0  0  0  0  0  0
  187.2180  179.1280  136.9020 O   0  0  0  0  0  1  0  0  0  0  0  0
  186.7240  176.7920  137.6030 C   0  0  0  0  0  2  0  0  0  0  0  0
  185.5650  177.3350  136.7660 C   0  0  0  0  0  2  0  0  0  0  0  0
  1  5  2  0  0  0  0
  2  6  1  0  0  0  0
  3 10  2  6  0  0  0
  3  2  1  0  0  0  0
  3  9  1  0  0  0  0
  4 11  1  1  0  0  0
  4  1  1  0  0  0  0
  7  6  1  6  0  0  0
  7  4  1  0  0  0  0
  7 11  1  0  0  0  0
  8 13  1  1  0  0  0
  8  1  1  0  0  0  0
  9 25  1  6  0  0  0
  9 12  1  0  0  0  0
 12  8  1  0  0  0  0
 13 14  2  0  0  0  0
 15 13  1  6  0  0  0
 15 16  1  0  0  0  0
 16 20  1  1  0  0  0
 17 21  1  6  0  0  0
 17 15  1  0  0  0  0
 17 16  1  0  0  0  0
 19 18  1  0  0  0  0
 20 19  1  0  0  0  0
 20 18  1  0  0  0  0
 23 24  1  0  0  0  0
 24 21  1  0  0  0  0
 24 22  1  0  0  0  0
 26 25  1  0  0  0  0
 27 26  1  0  0  0  0
 28 27  1  0  0  0  0
 29 27  1  0  0  0  0
 30 29  1  0  0  0  0
 30 27  1  0  0  0  0
M  END
>  <MODEL>
9

>  <REMARK>
 VINA RESULT:      -6.5      2.804      6.361
  Name = 
  8 active torsions:
  status: ('A' for Active; 'I' for Inactive)
    1  A    between atoms: C_1  and  C_4
    2  A    between atoms: C_1  and  C_22
    3  A    between atoms: N_7  and  C_10
    4  A    between atoms: N_7  and  C_25
    5  A    between atoms: C_8  and  C_30
    6  A    between atoms: C_9  and  C_12
    7  A    between atoms: C_9  and  C_21
    8  A    between atoms: C_23  and  C_25
                            x       y       z     vdW  Elec       q    Type
                         _______ _______ _______ _____ _____    ______ ____

>  <TORSDO>
F 8

$$$$
