=
 OpenBabel10262421013D

 32 38  0  0  1  0  0  0  0  0999 V2000
  183.5080  178.2110  138.2600 C   0  0  2  0  0  3  0  0  0  0  0  0
  182.8210  177.5020  140.7120 C   0  0  2  0  0  3  0  0  0  0  0  0
  182.6850  179.3020  137.5960 C   0  0  0  0  0  2  0  0  0  0  0  0
  182.6780  177.2880  139.1950 C   0  0  1  0  0  3  0  0  0  0  0  0
  181.6560  178.2570  141.3410 C   0  0  2  0  0  0  0  0  0  0  0  0
  185.4710  178.7960  144.6680 C   0  0  0  0  0  3  0  0  0  0  0  0
  184.1790  178.0370  141.1780 C   0  0  1  0  0  3  0  0  0  0  0  0
  183.0560  178.9570  144.7180 C   0  0  0  0  0  3  0  0  0  0  0  0
  182.9990  178.6280  143.3610 C   0  0  0  0  0  0  0  0  0  0  0  0
  180.8000  179.2010  140.5050 C   0  0  2  0  0  3  0  0  0  0  0  0
  181.2020  177.0500  138.7680 C   0  0  1  0  0  3  0  0  0  0  0  0
  181.7520  178.5300  142.7340 O   0  0  0  0  0  0  0  0  0  0  0  0
  180.3420  176.7810  139.8700 O   0  0  0  0  0  0  0  0  0  0  0  0
  180.5620  178.0710  137.8110 C   0  0  0  0  0  2  0  0  0  0  0  0
  184.6110  179.2270  140.3380 C   0  0  0  0  0  2  0  0  0  0  0  0
  180.0920  180.2440  141.3540 C   0  0  0  0  0  1  0  0  0  0  0  0
  184.7780  178.8120  138.8790 C   0  0  1  0  0  3  0  0  0  0  0  0
  184.1940  178.3780  142.6470 C   0  0  0  0  0  0  0  0  0  0  0  0
  180.2800  177.8000  140.8850 C   0  0  1  0  0  3  0  0  0  0  0  0
  181.5560  178.6530  136.8240 C   0  0  0  0  0  2  0  0  0  0  0  0
  184.2880  179.0420  145.3710 C   0  0  0  0  0  3  0  0  0  0  0  0
  185.4230  178.4650  143.3120 C   0  0  0  0  0  3  0  0  0  0  0  0
  187.7250  177.0520  136.9760 C   0  0  2  0  0  3  0  0  0  0  0  0
  187.1550  175.8970  136.4390 O   0  0  0  0  0  1  0  0  0  0  0  0
  188.5330  177.8430  139.2700 C   0  0  0  0  0  2  0  0  0  0  0  0
  186.0620  178.0140  138.6170 C   0  0  2  0  0  3  0  0  0  0  0  0
  188.5030  176.6940  138.2580 C   0  0  2  0  0  3  0  0  0  0  0  0
  187.1200  178.2530  139.7040 C   0  0  0  0  0  2  0  0  0  0  0  0
  186.6350  178.1100  137.1920 C   0  0  1  0  0  3  0  0  0  0  0  0
  187.1710  179.3780  136.9540 O   0  0  0  0  0  1  0  0  0  0  0  0
  190.8750  176.4080  139.0940 C   0  0  0  0  0  1  0  0  0  0  0  0
  189.9080  176.1890  137.9400 C   0  0  0  0  0  2  0  0  0  0  0  0
  1  3  1  1  0  0  0
  1 17  1  0  0  0  0
  1  4  1  0  0  0  0
  2  7  1  0  0  0  0
  2  5  1  0  0  0  0
  4  2  1  0  0  0  0
  5 12  1  0  0  0  0
  6 21  1  0  0  0  0
  7 18  1  0  0  0  0
  8 21  2  0  0  0  0
  9  8  1  0  0  0  0
 10 19  1  0  0  0  0
 10  5  1  0  0  0  0
 10 16  1  0  0  0  0
 11  4  1  0  0  0  0
 11 13  1  0  0  0  0
 12  9  1  0  0  0  0
 13 19  1  0  0  0  0
 14 11  1  0  0  0  0
 15  7  1  0  0  0  0
 17 15  1  0  0  0  0
 18 22  1  0  0  0  0
 18  9  2  0  0  0  0
 19  5  1  0  0  0  0
 20  3  1  0  0  0  0
 20 14  1  0  0  0  0
 22  6  2  0  0  0  0
 23 29  1  0  0  0  0
 23 27  1  0  0  0  0
 24 23  1  0  0  0  0
 25 28  1  0  0  0  0
 26 17  1  0  0  0  0
 26 28  1  0  0  0  0
 27 25  1  0  0  0  0
 29 26  1  0  0  0  0
 30 29  1  0  0  0  0
 32 27  1  0  0  0  0
 32 31  1  0  0  0  0
M  END
>  <MODEL>
1

>  <REMARK>
 VINA RESULT:      -8.2      0.000      0.000
  Name = 
  2 active torsions:
  status: ('A' for Active; 'I' for Inactive)
    1  A    between atoms: C_16  and  C_27
    2  A    between atoms: C_19  and  C_26
                            x       y       z     vdW  Elec       q    Type
                         _______ _______ _______ _____ _____    ______ ____

>  <TORSDO>
F 2

$$$$
=
 OpenBabel10262421013D

 32 38  0  0  1  0  0  0  0  0999 V2000
  190.2070  176.4410  143.3530 C   0  0  2  0  0  3  0  0  0  0  0  0
  188.7980  178.1400  144.8070 C   0  0  2  0  0  3  0  0  0  0  0  0
  190.6730  175.1650  144.0330 C   0  0  0  0  0  2  0  0  0  0  0  0
  190.1740  177.6730  144.2980 C   0  0  1  0  0  3  0  0  0  0  0  0
  188.4970  177.7260  146.2430 C   0  0  2  0  0  0  0  0  0  0  0  0
  183.9320  178.7080  144.2160 C   0  0  0  0  0  3  0  0  0  0  0  0
  187.6200  177.8690  143.8660 C   0  0  1  0  0  3  0  0  0  0  0  0
  184.8770  178.5700  146.4410 C   0  0  0  0  0  3  0  0  0  0  0  0
  186.1310  178.2770  145.8970 C   0  0  0  0  0  0  0  0  0  0  0  0
  189.1750  176.5070  146.8580 C   0  0  2  0  0  3  0  0  0  0  0  0
  191.2540  177.6940  145.4160 C   0  0  1  0  0  3  0  0  0  0  0  0
  187.2200  178.0860  146.7550 O   0  0  0  0  0  0  0  0  0  0  0  0
  190.8400  178.4090  146.5750 O   0  0  0  0  0  0  0  0  0  0  0  0
  191.9060  176.3550  145.8030 C   0  0  0  0  0  2  0  0  0  0  0  0
  187.6440  176.4340  143.3640 C   0  0  0  0  0  2  0  0  0  0  0  0
  188.3850  175.9320  148.0220 C   0  0  0  0  0  1  0  0  0  0  0  0
  188.9170  176.1760  142.5640 C   0  0  1  0  0  3  0  0  0  0  0  0
  186.2890  178.1990  144.4940 C   0  0  0  0  0  0  0  0  0  0  0  0
  189.6450  177.9320  147.2180 C   0  0  1  0  0  3  0  0  0  0  0  0
  192.0440  175.4080  144.6270 C   0  0  0  0  0  2  0  0  0  0  0  0
  183.7800  178.7840  145.6030 C   0  0  0  0  0  3  0  0  0  0  0  0
  185.1820  178.4160  143.6640 C   0  0  0  0  0  3  0  0  0  0  0  0
  188.0190  178.5590  139.5770 C   0  0  2  0  0  3  0  0  0  0  0  0
  186.7250  178.1890  139.2100 O   0  0  0  0  0  1  0  0  0  0  0  0
  190.3850  177.6390  139.2620 C   0  0  0  0  0  2  0  0  0  0  0  0
  188.8860  176.7880  141.1570 C   0  0  2  0  0  3  0  0  0  0  0  0
  189.0320  177.9230  138.6030 C   0  0  2  0  0  3  0  0  0  0  0  0
  190.2460  176.6810  140.4520 C   0  0  0  0  0  2  0  0  0  0  0  0
  188.2620  178.1900  141.0460 C   0  0  1  0  0  3  0  0  0  0  0  0
  189.0900  179.1520  141.6310 O   0  0  0  0  0  1  0  0  0  0  0  0
  189.1910  177.8980  136.0770 C   0  0  0  0  0  1  0  0  0  0  0  0
  189.1890  178.7560  137.3340 C   0  0  0  0  0  2  0  0  0  0  0  0
  1  3  1  1  0  0  0
  1  4  1  0  0  0  0
  2  5  1  0  0  0  0
  3 20  1  0  0  0  0
  4  2  1  0  0  0  0
  4 11  1  0  0  0  0
  5 12  1  0  0  0  0
  5 10  1  0  0  0  0
  5 19  1  0  0  0  0
  6 21  1  0  0  0  0
  7 18  1  0  0  0  0
  7  2  1  0  0  0  0
  9  8  1  0  0  0  0
  9 12  1  0  0  0  0
 10 19  1  0  0  0  0
 10 16  1  0  0  0  0
 11 14  1  0  0  0  0
 11 13  1  0  0  0  0
 13 19  1  0  0  0  0
 15  7  1  0  0  0  0
 17  1  1  0  0  0  0
 17 15  1  0  0  0  0
 18  9  2  0  0  0  0
 20 14  1  0  0  0  0
 21  8  2  0  0  0  0
 22  6  2  0  0  0  0
 22 18  1  0  0  0  0
 23 29  1  0  0  0  0
 24 23  1  0  0  0  0
 25 28  1  0  0  0  0
 26 17  1  0  0  0  0
 27 25  1  0  0  0  0
 27 23  1  0  0  0  0
 28 26  1  0  0  0  0
 29 26  1  0  0  0  0
 29 30  1  0  0  0  0
 31 32  1  0  0  0  0
 32 27  1  0  0  0  0
M  END
>  <MODEL>
2

>  <REMARK>
 VINA RESULT:      -7.6      4.016      7.384
  Name = 
  2 active torsions:
  status: ('A' for Active; 'I' for Inactive)
    1  A    between atoms: C_16  and  C_27
    2  A    between atoms: C_19  and  C_26
                            x       y       z     vdW  Elec       q    Type
                         _______ _______ _______ _____ _____    ______ ____

>  <TORSDO>
F 2

$$$$
=
 OpenBabel10262421013D

 32 38  0  0  1  0  0  0  0  0999 V2000
  191.2070  177.1480  140.7490 C   0  0  2  0  0  3  0  0  0  0  0  0
  188.8120  176.7040  139.7230 C   0  0  2  0  0  3  0  0  0  0  0  0
  192.2070  177.8920  139.8810 C   0  0  0  0  0  2  0  0  0  0  0  0
  190.2550  176.2190  139.9450 C   0  0  1  0  0  3  0  0  0  0  0  0
  188.5540  177.2550  138.3250 C   0  0  2  0  0  0  0  0  0  0  0  0
  184.8170  179.2100  141.1760 C   0  0  0  0  0  3  0  0  0  0  0  0
  188.2440  177.6120  140.8180 C   0  0  1  0  0  3  0  0  0  0  0  0
  185.2050  178.8030  138.8210 C   0  0  0  0  0  3  0  0  0  0  0  0
  186.4560  178.2540  139.1150 C   0  0  0  0  0  0  0  0  0  0  0  0
  189.6960  177.8220  137.4900 C   0  0  2  0  0  3  0  0  0  0  0  0
  190.8640  175.5740  138.6690 C   0  0  1  0  0  3  0  0  0  0  0  0
  187.2500  177.7640  138.0720 O   0  0  0  0  0  0  0  0  0  0  0  0
  189.8900  175.2920  137.6700 O   0  0  0  0  0  0  0  0  0  0  0  0
  192.1030  176.2460  138.0510 C   0  0  0  0  0  2  0  0  0  0  0  0
  189.2250  178.7190  141.1680 C   0  0  0  0  0  2  0  0  0  0  0  0
  189.2080  178.7910  136.4270 C   0  0  0  0  0  1  0  0  0  0  0  0
  190.5200  178.1240  141.7150 C   0  0  1  0  0  3  0  0  0  0  0  0
  186.8940  178.1810  140.4580 C   0  0  0  0  0  0  0  0  0  0  0  0
  189.1300  176.4170  137.1950 C   0  0  1  0  0  3  0  0  0  0  0  0
  193.0080  176.8790  139.0900 C   0  0  0  0  0  2  0  0  0  0  0  0
  184.3870  179.2810  139.8480 C   0  0  0  0  0  3  0  0  0  0  0  0
  186.0660  178.6620  141.4790 C   0  0  0  0  0  3  0  0  0  0  0  0
  191.5020  176.9590  145.3320 C   0  0  2  0  0  3  0  0  0  0  0  0
  192.0210  175.6760  145.1580 O   0  0  0  0  0  1  0  0  0  0  0  0
  189.1880  178.0470  145.3770 C   0  0  0  0  0  2  0  0  0  0  0  0
  190.3960  177.6200  143.1590 C   0  0  2  0  0  3  0  0  0  0  0  0
  190.0460  176.8620  145.8300 C   0  0  2  0  0  3  0  0  0  0  0  0
  189.1320  178.1550  143.8480 C   0  0  0  0  0  2  0  0  0  0  0  0
  191.6570  177.7560  144.0300 C   0  0  1  0  0  3  0  0  0  0  0  0
  191.9070  179.0960  144.3390 O   0  0  0  0  0  1  0  0  0  0  0  0
  189.0910  177.6980  148.0200 C   0  0  0  0  0  1  0  0  0  0  0  0
  189.9810  176.6670  147.3420 C   0  0  0  0  0  2  0  0  0  0  0  0
  1  3  1  6  0  0  0
  1 17  1  0  0  0  0
  2  4  1  0  0  0  0
  2  7  1  0  0  0  0
  4  1  1  0  0  0  0
  5  2  1  0  0  0  0
  6 22  1  0  0  0  0
  7 15  1  0  0  0  0
  8  9  2  0  0  0  0
  8 21  1  0  0  0  0
  9 18  1  0  0  0  0
 10  5  1  0  0  0  0
 11  4  1  0  0  0  0
 12  5  1  0  0  0  0
 12  9  1  0  0  0  0
 13 11  1  0  0  0  0
 14 11  1  0  0  0  0
 14 20  1  0  0  0  0
 15 17  1  0  0  0  0
 16 10  1  0  0  0  0
 17 26  1  0  0  0  0
 18  7  1  0  0  0  0
 18 22  2  0  0  0  0
 19 10  1  0  0  0  0
 19 13  1  0  0  0  0
 19  5  1  0  0  0  0
 20  3  1  0  0  0  0
 21  6  2  0  0  0  0
 23 27  1  0  0  0  0
 24 23  1  0  0  0  0
 25 27  1  0  0  0  0
 26 28  1  0  0  0  0
 26 29  1  0  0  0  0
 27 32  1  0  0  0  0
 28 25  1  0  0  0  0
 29 30  1  0  0  0  0
 29 23  1  0  0  0  0
 32 31  1  0  0  0  0
M  END
>  <MODEL>
3

>  <REMARK>
 VINA RESULT:      -7.3      3.706      7.922
  Name = 
  2 active torsions:
  status: ('A' for Active; 'I' for Inactive)
    1  A    between atoms: C_16  and  C_27
    2  A    between atoms: C_19  and  C_26
                            x       y       z     vdW  Elec       q    Type
                         _______ _______ _______ _____ _____    ______ ____

>  <TORSDO>
F 2

$$$$
=
 OpenBabel10262421013D

 32 38  0  0  1  0  0  0  0  0999 V2000
  186.3420  178.3110  142.4420 C   0  0  2  0  0  3  0  0  0  0  0  0
  188.5780  176.9110  142.2810 C   0  0  2  0  0  3  0  0  0  0  0  0
  186.3410  179.5130  143.3710 C   0  0  0  0  0  2  0  0  0  0  0  0
  187.2130  177.1300  142.9550 C   0  0  1  0  0  3  0  0  0  0  0  0
  189.7600  177.4130  143.1030 C   0  0  2  0  0  0  0  0  0  0  0  0
  191.5460  177.1310  138.3440 C   0  0  0  0  0  3  0  0  0  0  0  0
  188.6680  177.3430  140.8140 C   0  0  1  0  0  3  0  0  0  0  0  0
  192.4830  177.1800  140.5760 C   0  0  0  0  0  3  0  0  0  0  0  0
  191.1980  177.2460  141.1220 C   0  0  0  0  0  0  0  0  0  0  0  0
  189.5760  178.5210  144.1320 C   0  0  2  0  0  3  0  0  0  0  0  0
  187.2840  176.9670  144.5000 C   0  0  1  0  0  3  0  0  0  0  0  0
  191.0480  177.2830  142.5120 O   0  0  0  0  0  0  0  0  0  0  0  0
  188.4960  176.3650  144.9390 O   0  0  0  0  0  0  0  0  0  0  0  0
  186.9360  178.1920  145.3640 C   0  0  0  0  0  2  0  0  0  0  0  0
  188.0960  178.7380  140.6230 C   0  0  0  0  0  2  0  0  0  0  0  0
  190.8730  179.2530  144.4320 C   0  0  0  0  0  1  0  0  0  0  0  0
  186.6170  178.7590  141.0010 C   0  0  1  0  0  3  0  0  0  0  0  0
  190.0710  177.2550  140.2680 C   0  0  0  0  0  0  0  0  0  0  0  0
  189.7080  177.0510  144.5790 C   0  0  1  0  0  3  0  0  0  0  0  0
  185.8670  179.0670  144.7380 C   0  0  0  0  0  2  0  0  0  0  0  0
  192.6580  177.1240  139.1910 C   0  0  0  0  0  3  0  0  0  0  0  0
  190.2580  177.1970  138.8810 C   0  0  0  0  0  3  0  0  0  0  0  0
  183.3960  177.7590  138.9940 C   0  0  2  0  0  3  0  0  0  0  0  0
  182.7610  176.8120  139.7990 O   0  0  0  0  0  1  0  0  0  0  0  0
  185.4080  177.8200  137.4160 C   0  0  0  0  0  2  0  0  0  0  0  0
  185.7100  178.1180  139.9420 C   0  0  2  0  0  3  0  0  0  0  0  0
  184.1690  177.0410  137.8690 C   0  0  2  0  0  3  0  0  0  0  0  0
  186.3950  178.0370  138.5700 C   0  0  0  0  0  2  0  0  0  0  0  0
  184.2750  178.6670  139.8640 C   0  0  1  0  0  3  0  0  0  0  0  0
  184.2630  179.9600  139.3360 O   0  0  0  0  0  1  0  0  0  0  0  0
  182.2870  177.8240  136.3680 C   0  0  0  0  0  1  0  0  0  0  0  0
  183.2590  176.6990  136.6920 C   0  0  0  0  0  2  0  0  0  0  0  0
  1  4  1  0  0  0  0
  1  3  1  1  0  0  0
  2  4  1  0  0  0  0
  2  5  1  0  0  0  0
  3 20  1  0  0  0  0
  4 11  1  0  0  0  0
  5 10  1  0  0  0  0
  5 19  1  0  0  0  0
  6 22  2  0  0  0  0
  6 21  1  0  0  0  0
  7  2  1  0  0  0  0
  8  9  1  0  0  0  0
  9 12  1  0  0  0  0
 10 16  1  0  0  0  0
 10 19  1  0  0  0  0
 11 13  1  0  0  0  0
 11 14  1  0  0  0  0
 12  5  1  0  0  0  0
 15  7  1  0  0  0  0
 15 17  1  0  0  0  0
 17  1  1  0  0  0  0
 18  7  1  0  0  0  0
 18  9  2  0  0  0  0
 19 13  1  0  0  0  0
 20 14  1  0  0  0  0
 21  8  2  0  0  0  0
 22 18  1  0  0  0  0
 23 24  1  0  0  0  0
 23 29  1  0  0  0  0
 25 27  1  0  0  0  0
 25 28  1  0  0  0  0
 26 17  1  0  0  0  0
 27 23  1  0  0  0  0
 28 26  1  0  0  0  0
 29 26  1  0  0  0  0
 30 29  1  0  0  0  0
 31 32  1  0  0  0  0
 32 27  1  0  0  0  0
M  END
>  <MODEL>
4

>  <REMARK>
 VINA RESULT:      -7.1      2.946      7.314
  Name = 
  2 active torsions:
  status: ('A' for Active; 'I' for Inactive)
    1  A    between atoms: C_16  and  C_27
    2  A    between atoms: C_19  and  C_26
                            x       y       z     vdW  Elec       q    Type
                         _______ _______ _______ _____ _____    ______ ____

>  <TORSDO>
F 2

$$$$
=
 OpenBabel10262421013D

 32 38  0  0  1  0  0  0  0  0999 V2000
  186.7180  178.4580  142.2040 C   0  0  2  0  0  3  0  0  0  0  0  0
  187.2660  177.0890  144.3970 C   0  0  2  0  0  3  0  0  0  0  0  0
  186.1220  179.8440  142.3820 C   0  0  0  0  0  2  0  0  0  0  0  0
  186.2610  177.4410  143.2860 C   0  0  1  0  0  3  0  0  0  0  0  0
  186.9880  177.7840  145.7250 C   0  0  2  0  0  0  0  0  0  0  0  0
  191.8860  176.4220  146.0000 C   0  0  0  0  0  3  0  0  0  0  0  0
  188.7440  177.1670  143.9990 C   0  0  1  0  0  3  0  0  0  0  0  0
  190.1300  177.0020  147.5620 C   0  0  0  0  0  3  0  0  0  0  0  0
  189.2350  177.1780  146.5030 C   0  0  0  0  0  0  0  0  0  0  0  0
  186.2210  179.1000  145.7670 C   0  0  2  0  0  3  0  0  0  0  0  0
  184.8210  177.6440  143.8360 C   0  0  1  0  0  3  0  0  0  0  0  0
  187.9110  177.5360  146.7790 O   0  0  0  0  0  0  0  0  0  0  0  0
  184.6660  177.1770  145.1710 O   0  0  0  0  0  0  0  0  0  0  0  0
  184.1810  179.0320  143.6630 C   0  0  0  0  0  2  0  0  0  0  0  0
  189.0440  178.4720  143.2800 C   0  0  0  0  0  2  0  0  0  0  0  0
  186.5120  179.8980  147.0270 C   0  0  0  0  0  1  0  0  0  0  0  0
  188.2340  178.5610  141.9890 C   0  0  1  0  0  3  0  0  0  0  0  0
  189.6710  176.9720  145.1730 C   0  0  0  0  0  0  0  0  0  0  0  0
  185.5300  177.7760  146.1540 C   0  0  1  0  0  3  0  0  0  0  0  0
  184.6120  179.7240  142.3840 C   0  0  0  0  0  2  0  0  0  0  0  0
  191.4510  176.6260  147.3130 C   0  0  0  0  0  3  0  0  0  0  0  0
  190.9980  176.5940  144.9350 C   0  0  0  0  0  3  0  0  0  0  0  0
  188.7750  177.0040  138.4270 C   0  0  2  0  0  3  0  0  0  0  0  0
  187.6640  176.1840  138.2300 O   0  0  0  0  0  1  0  0  0  0  0  0
  190.9600  176.9010  139.7520 C   0  0  0  0  0  2  0  0  0  0  0  0
  188.7870  177.6790  140.8620 C   0  0  2  0  0  3  0  0  0  0  0  0
  189.9810  176.1420  138.8510 C   0  0  2  0  0  3  0  0  0  0  0  0
  190.2850  177.3890  141.0400 C   0  0  0  0  0  2  0  0  0  0  0  0
  188.4260  178.1110  139.4300 C   0  0  1  0  0  3  0  0  0  0  0  0
  189.1030  179.2810  139.0770 O   0  0  0  0  0  1  0  0  0  0  0  0
  192.1990  175.6890  137.7170 C   0  0  0  0  0  1  0  0  0  0  0  0
  190.6870  175.5310  137.6440 C   0  0  0  0  0  2  0  0  0  0  0  0
  1  3  1  1  0  0  0
  1  4  1  0  0  0  0
  2  5  1  0  0  0  0
  3 20  1  0  0  0  0
  4 11  1  0  0  0  0
  4  2  1  0  0  0  0
  5 10  1  0  0  0  0
  5 19  1  0  0  0  0
  5 12  1  0  0  0  0
  6 21  1  0  0  0  0
  7  2  1  0  0  0  0
  7 18  1  0  0  0  0
  9 12  1  0  0  0  0
  9  8  1  0  0  0  0
 10 19  1  0  0  0  0
 10 16  1  0  0  0  0
 11 13  1  0  0  0  0
 13 19  1  0  0  0  0
 14 11  1  0  0  0  0
 15  7  1  0  0  0  0
 17  1  1  0  0  0  0
 17 15  1  0  0  0  0
 18  9  2  0  0  0  0
 20 14  1  0  0  0  0
 21  8  2  0  0  0  0
 22 18  1  0  0  0  0
 22  6  2  0  0  0  0
 23 27  1  0  0  0  0
 23 29  1  0  0  0  0
 24 23  1  0  0  0  0
 25 28  1  0  0  0  0
 26 28  1  0  0  0  0
 26 17  1  0  0  0  0
 27 25  1  0  0  0  0
 29 26  1  0  0  0  0
 30 29  1  0  0  0  0
 32 31  1  0  0  0  0
 32 27  1  0  0  0  0
M  END
>  <MODEL>
5

>  <REMARK>
 VINA RESULT:      -6.7      3.523      5.674
  Name = 
  2 active torsions:
  status: ('A' for Active; 'I' for Inactive)
    1  A    between atoms: C_16  and  C_27
    2  A    between atoms: C_19  and  C_26
                            x       y       z     vdW  Elec       q    Type
                         _______ _______ _______ _____ _____    ______ ____

>  <TORSDO>
F 2

$$$$
=
 OpenBabel10262421013D

 32 38  0  0  1  0  0  0  0  0999 V2000
  185.9130  177.1980  137.0830 C   0  0  2  0  0  3  0  0  0  0  0  0
  183.7300  176.5320  138.4150 C   0  0  2  0  0  3  0  0  0  0  0  0
  185.7240  177.8840  135.7400 C   0  0  0  0  0  2  0  0  0  0  0  0
  184.8190  176.1420  137.4000 C   0  0  1  0  0  3  0  0  0  0  0  0
  182.3970  176.9080  137.7770 C   0  0  2  0  0  0  0  0  0  0  0  0
  182.2270  179.0010  142.4150 C   0  0  0  0  0  3  0  0  0  0  0  0
  184.1600  177.5310  139.4930 C   0  0  1  0  0  3  0  0  0  0  0  0
  180.6280  178.3470  140.7190 C   0  0  0  0  0  3  0  0  0  0  0  0
  181.6680  177.8930  139.9030 C   0  0  0  0  0  0  0  0  0  0  0  0
  182.3400  177.4280  136.3460 C   0  0  2  0  0  3  0  0  0  0  0  0
  184.2380  175.3840  136.1730 C   0  0  1  0  0  3  0  0  0  0  0  0
  181.3630  177.3250  138.6610 O   0  0  0  0  0  0  0  0  0  0  0  0
  182.8980  174.9470  136.3730 O   0  0  0  0  0  0  0  0  0  0  0  0
  184.3990  176.0380  134.7890 C   0  0  0  0  0  2  0  0  0  0  0  0
  184.8880  178.7140  138.8770 C   0  0  0  0  0  2  0  0  0  0  0  0
  181.0890  178.2470  136.0780 C   0  0  0  0  0  1  0  0  0  0  0  0
  186.1610  178.2450  138.1780 C   0  0  1  0  0  3  0  0  0  0  0  0
  183.0060  177.9930  140.3490 C   0  0  0  0  0  0  0  0  0  0  0  0
  181.9360  175.9750  136.6690 C   0  0  1  0  0  3  0  0  0  0  0  0
  185.6880  176.8250  134.6580 C   0  0  0  0  0  2  0  0  0  0  0  0
  180.9060  178.9010  141.9710 C   0  0  0  0  0  3  0  0  0  0  0  0
  183.2730  178.5490  141.6060 C   0  0  0  0  0  3  0  0  0  0  0  0
  189.7440  177.4070  139.5420 C   0  0  2  0  0  3  0  0  0  0  0  0
  189.9650  176.0840  139.1590 O   0  0  0  0  0  1  0  0  0  0  0  0
  188.4020  178.6310  141.3430 C   0  0  0  0  0  2  0  0  0  0  0  0
  187.2990  177.9030  139.1490 C   0  0  2  0  0  3  0  0  0  0  0  0
  189.3250  177.4500  141.0260 C   0  0  2  0  0  3  0  0  0  0  0  0
  187.1120  178.5820  140.5140 C   0  0  0  0  0  2  0  0  0  0  0  0
  188.7260  178.0540  138.5940 C   0  0  1  0  0  3  0  0  0  0  0  0
  189.0520  179.4000  138.4180 O   0  0  0  0  0  1  0  0  0  0  0  0
  190.1430  177.5150  143.4200 C   0  0  0  0  0  1  0  0  0  0  0  0
  190.5360  177.4180  141.9530 C   0  0  0  0  0  2  0  0  0  0  0  0
  1  3  1  6  0  0  0
  1  4  1  0  0  0  0
  1 17  1  0  0  0  0
  2  7  1  0  0  0  0
  4  2  1  0  0  0  0
  5  2  1  0  0  0  0
  5 12  1  0  0  0  0
  7 18  1  0  0  0  0
  8 21  2  0  0  0  0
  9 18  2  0  0  0  0
  9  8  1  0  0  0  0
 10 19  1  0  0  0  0
 10  5  1  0  0  0  0
 11 13  1  0  0  0  0
 11  4  1  0  0  0  0
 12  9  1  0  0  0  0
 13 19  1  0  0  0  0
 14 11  1  0  0  0  0
 15  7  1  0  0  0  0
 16 10  1  0  0  0  0
 17 15  1  0  0  0  0
 17 26  1  0  0  0  0
 18 22  1  0  0  0  0
 19  5  1  0  0  0  0
 20 14  1  0  0  0  0
 20  3  1  0  0  0  0
 21  6  1  0  0  0  0
 22  6  2  0  0  0  0
 23 27  1  0  0  0  0
 24 23  1  0  0  0  0
 26 28  1  0  0  0  0
 27 25  1  0  0  0  0
 27 32  1  0  0  0  0
 28 25  1  0  0  0  0
 29 26  1  0  0  0  0
 29 23  1  0  0  0  0
 30 29  1  0  0  0  0
 32 31  1  0  0  0  0
M  END
>  <MODEL>
6

>  <REMARK>
 VINA RESULT:      -6.5      2.203      3.694
  Name = 
  2 active torsions:
  status: ('A' for Active; 'I' for Inactive)
    1  A    between atoms: C_16  and  C_27
    2  A    between atoms: C_19  and  C_26
                            x       y       z     vdW  Elec       q    Type
                         _______ _______ _______ _____ _____    ______ ____

>  <TORSDO>
F 2

$$$$
=
 OpenBabel10262421013D

 32 38  0  0  1  0  0  0  0  0999 V2000
  191.4140  176.4010  139.2430 C   0  0  2  0  0  3  0  0  0  0  0  0
  189.1030  175.8480  138.0860 C   0  0  2  0  0  3  0  0  0  0  0  0
  192.4960  177.0180  138.3730 C   0  0  0  0  0  2  0  0  0  0  0  0
  190.5140  175.3840  138.4880 C   0  0  1  0  0  3  0  0  0  0  0  0
  188.9710  176.2160  136.6120 C   0  0  2  0  0  0  0  0  0  0  0  0
  185.0510  178.5550  138.8670 C   0  0  0  0  0  3  0  0  0  0  0  0
  188.4650  176.8950  139.0040 C   0  0  1  0  0  3  0  0  0  0  0  0
  185.6230  177.8430  136.6250 C   0  0  0  0  0  3  0  0  0  0  0  0
  186.8350  177.3260  137.0900 C   0  0  0  0  0  0  0  0  0  0  0  0
  190.1870  176.6600  135.8100 C   0  0  2  0  0  3  0  0  0  0  0  0
  191.2130  174.5740  137.3600 C   0  0  1  0  0  3  0  0  0  0  0  0
  187.7010  176.6990  136.1880 O   0  0  0  0  0  0  0  0  0  0  0  0
  190.3180  174.1740  136.3280 O   0  0  0  0  0  0  0  0  0  0  0  0
  192.5100  175.1500  136.7670 C   0  0  0  0  0  2  0  0  0  0  0  0
  189.4350  178.0300  139.2900 C   0  0  0  0  0  2  0  0  0  0  0  0
  189.8070  177.4880  134.5940 C   0  0  0  0  0  1  0  0  0  0  0  0
  190.6690  177.4990  140.0150 C   0  0  1  0  0  3  0  0  0  0  0  0
  187.1600  177.4240  138.4630 C   0  0  0  0  0  0  0  0  0  0  0  0
  189.6210  175.2340  135.6510 C   0  0  1  0  0  3  0  0  0  0  0  0
  193.3390  175.9040  137.7890 C   0  0  0  0  0  2  0  0  0  0  0  0
  184.7330  178.4560  137.5100 C   0  0  0  0  0  3  0  0  0  0  0  0
  186.2610  178.0400  139.3410 C   0  0  0  0  0  3  0  0  0  0  0  0
  191.3340  176.6850  143.7970 C   0  0  2  0  0  3  0  0  0  0  0  0
  191.7210  175.3450  143.8040 O   0  0  0  0  0  1  0  0  0  0  0  0
  189.1500  177.9970  143.5700 C   0  0  0  0  0  2  0  0  0  0  0  0
  190.4180  177.1880  141.4970 C   0  0  2  0  0  3  0  0  0  0  0  0
  189.8520  176.7950  144.2090 C   0  0  2  0  0  3  0  0  0  0  0  0
  189.1850  177.9260  142.0380 C   0  0  0  0  0  2  0  0  0  0  0  0
  191.6400  177.3010  142.4250 C   0  0  1  0  0  3  0  0  0  0  0  0
  192.0160  178.6350  142.5940 O   0  0  0  0  0  1  0  0  0  0  0  0
  188.5670  177.7070  146.1890 C   0  0  0  0  0  1  0  0  0  0  0  0
  189.6900  176.7900  145.7260 C   0  0  0  0  0  2  0  0  0  0  0  0
  1  3  1  6  0  0  0
  1 17  1  0  0  0  0
  2  4  1  0  0  0  0
  2  7  1  0  0  0  0
  4  1  1  0  0  0  0
  5  2  1  0  0  0  0
  6 22  1  0  0  0  0
  7 15  1  0  0  0  0
  8  9  2  0  0  0  0
  8 21  1  0  0  0  0
  9 18  1  0  0  0  0
 10  5  1  0  0  0  0
 11  4  1  0  0  0  0
 12  5  1  0  0  0  0
 12  9  1  0  0  0  0
 13 11  1  0  0  0  0
 14 11  1  0  0  0  0
 14 20  1  0  0  0  0
 15 17  1  0  0  0  0
 16 10  1  0  0  0  0
 17 26  1  0  0  0  0
 18  7  1  0  0  0  0
 18 22  2  0  0  0  0
 19 10  1  0  0  0  0
 19 13  1  0  0  0  0
 19  5  1  0  0  0  0
 20  3  1  0  0  0  0
 21  6  2  0  0  0  0
 23 24  1  0  0  0  0
 23 27  1  0  0  0  0
 25 27  1  0  0  0  0
 26 28  1  0  0  0  0
 26 29  1  0  0  0  0
 27 32  1  0  0  0  0
 28 25  1  0  0  0  0
 29 30  1  0  0  0  0
 29 23  1  0  0  0  0
 32 31  1  0  0  0  0
M  END
>  <MODEL>
7

>  <REMARK>
 VINA RESULT:      -6.4      3.804      8.237
  Name = 
  2 active torsions:
  status: ('A' for Active; 'I' for Inactive)
    1  A    between atoms: C_16  and  C_27
    2  A    between atoms: C_19  and  C_26
                            x       y       z     vdW  Elec       q    Type
                         _______ _______ _______ _____ _____    ______ ____

>  <TORSDO>
F 2

$$$$
=
 OpenBabel10262421013D

 32 38  0  0  1  0  0  0  0  0999 V2000
  185.3780  178.8110  143.3700 C   0  0  2  0  0  3  0  0  0  0  0  0
  187.3470  177.1670  142.7340 C   0  0  2  0  0  3  0  0  0  0  0  0
  185.6800  179.8940  144.3920 C   0  0  0  0  0  2  0  0  0  0  0  0
  186.1370  177.4810  143.6310 C   0  0  1  0  0  3  0  0  0  0  0  0
  188.6930  177.4220  143.4020 C   0  0  2  0  0  0  0  0  0  0  0  0
  189.7190  177.4450  138.4160 C   0  0  0  0  0  3  0  0  0  0  0  0
  187.2850  177.7440  141.3160 C   0  0  1  0  0  3  0  0  0  0  0  0
  190.9650  177.1280  140.4670 C   0  0  0  0  0  3  0  0  0  0  0  0
  189.7940  177.2950  141.2120 C   0  0  0  0  0  0  0  0  0  0  0  0
  188.8180  178.4240  144.5430 C   0  0  2  0  0  3  0  0  0  0  0  0
  186.4050  177.1400  145.1250 C   0  0  1  0  0  3  0  0  0  0  0  0
  189.8520  177.1970  142.6060 O   0  0  0  0  0  0  0  0  0  0  0  0
  187.5710  176.3450  145.3120 O   0  0  0  0  0  0  0  0  0  0  0  0
  186.3620  178.2960  146.1390 C   0  0  0  0  0  2  0  0  0  0  0  0
  186.8950  179.2120  141.3440 C   0  0  0  0  0  2  0  0  0  0  0  0
  190.2350  178.9490  144.6990 C   0  0  0  0  0  1  0  0  0  0  0  0
  185.5040  179.3780  141.9500 C   0  0  1  0  0  3  0  0  0  0  0  0
  188.5680  177.5400  140.5500 C   0  0  0  0  0  0  0  0  0  0  0  0
  188.8030  176.9090  144.8290 C   0  0  1  0  0  3  0  0  0  0  0  0
  185.3500  179.3630  145.7710 C   0  0  0  0  0  2  0  0  0  0  0  0
  190.9280  177.2030  139.0730 C   0  0  0  0  0  3  0  0  0  0  0  0
  188.5440  177.6120  139.1520 C   0  0  0  0  0  3  0  0  0  0  0  0
  183.2490  179.2010  138.7420 C   0  0  2  0  0  3  0  0  0  0  0  0
  182.5210  180.3910  138.7590 O   0  0  0  0  0  1  0  0  0  0  0  0
  183.1850  176.9550  139.9630 C   0  0  0  0  0  2  0  0  0  0  0  0
  184.3720  178.9770  140.9940 C   0  0  2  0  0  3  0  0  0  0  0  0
  182.3680  178.0520  139.2730 C   0  0  2  0  0  3  0  0  0  0  0  0
  183.9740  177.5030  141.1590 C   0  0  0  0  0  2  0  0  0  0  0  0
  184.5570  179.3870  139.5230 C   0  0  1  0  0  3  0  0  0  0  0  0
  185.5650  178.6330  138.9170 O   0  0  0  0  0  1  0  0  0  0  0  0
  182.1710  177.4220  136.8290 C   0  0  0  0  0  1  0  0  0  0  0  0
  181.4710  177.4800  138.1790 C   0  0  0  0  0  2  0  0  0  0  0  0
  1  4  1  0  0  0  0
  1  3  1  1  0  0  0
  2  5  1  0  0  0  0
  2  4  1  0  0  0  0
  3 20  1  0  0  0  0
  4 11  1  0  0  0  0
  5 10  1  0  0  0  0
  5 19  1  0  0  0  0
  6 21  2  0  0  0  0
  6 22  1  0  0  0  0
  7 15  1  0  0  0  0
  7  2  1  0  0  0  0
  8  9  2  0  0  0  0
  9 12  1  0  0  0  0
 10 16  1  0  0  0  0
 10 19  1  0  0  0  0
 11 13  1  0  0  0  0
 11 14  1  0  0  0  0
 12  5  1  0  0  0  0
 15 17  1  0  0  0  0
 17  1  1  0  0  0  0
 18  9  1  0  0  0  0
 18  7  1  0  0  0  0
 19 13  1  0  0  0  0
 20 14  1  0  0  0  0
 21  8  1  0  0  0  0
 22 18  2  0  0  0  0
 23 24  1  0  0  0  0
 23 27  1  0  0  0  0
 23 29  1  0  0  0  0
 25 28  1  0  0  0  0
 26 28  1  0  0  0  0
 26 17  1  0  0  0  0
 27 25  1  0  0  0  0
 29 26  1  0  0  0  0
 30 29  1  0  0  0  0
 31 32  1  0  0  0  0
 32 27  1  0  0  0  0
M  END
>  <MODEL>
8

>  <REMARK>
 VINA RESULT:      -6.1      2.631      7.068
  Name = 
  2 active torsions:
  status: ('A' for Active; 'I' for Inactive)
    1  A    between atoms: C_16  and  C_27
    2  A    between atoms: C_19  and  C_26
                            x       y       z     vdW  Elec       q    Type
                         _______ _______ _______ _____ _____    ______ ____

>  <TORSDO>
F 2

$$$$
=
 OpenBabel10262421013D

 32 38  0  0  1  0  0  0  0  0999 V2000
  185.3630  178.4820  144.6780 C   0  0  2  0  0  3  0  0  0  0  0  0
  187.0780  177.2860  143.0620 C   0  0  2  0  0  3  0  0  0  0  0  0
  185.9280  179.4870  145.6680 C   0  0  0  0  0  2  0  0  0  0  0  0
  186.3140  177.2860  144.3970 C   0  0  1  0  0  3  0  0  0  0  0  0
  188.5400  177.7000  143.1870 C   0  0  2  0  0  0  0  0  0  0  0  0
  187.4240  178.4300  138.2740 C   0  0  0  0  0  3  0  0  0  0  0  0
  186.3730  177.9890  141.8970 C   0  0  1  0  0  3  0  0  0  0  0  0
  189.4280  178.1210  139.5970 C   0  0  0  0  0  3  0  0  0  0  0  0
  188.6540  178.0010  140.7540 C   0  0  0  0  0  0  0  0  0  0  0  0
  189.0010  178.5830  144.3400 C   0  0  2  0  0  3  0  0  0  0  0  0
  187.2080  176.8410  145.5890 C   0  0  1  0  0  3  0  0  0  0  0  0
  189.2890  177.7670  141.9790 O   0  0  0  0  0  0  0  0  0  0  0  0
  188.4320  176.2480  145.1730 O   0  0  0  0  0  0  0  0  0  0  0  0
  187.4480  177.8580  146.7190 C   0  0  0  0  0  2  0  0  0  0  0  0
  185.8590  179.3550  142.3200 C   0  0  0  0  0  2  0  0  0  0  0  0
  190.2860  179.3280  144.0200 C   0  0  0  0  0  1  0  0  0  0  0  0
  184.8290  179.2090  143.4370 C   0  0  1  0  0  3  0  0  0  0  0  0
  187.2450  178.0950  140.6710 C   0  0  0  0  0  0  0  0  0  0  0  0
  189.2840  177.0660  144.3520 C   0  0  1  0  0  3  0  0  0  0  0  0
  186.2550  178.7640  146.9570 C   0  0  0  0  0  2  0  0  0  0  0  0
  188.8160  178.3360  138.3600 C   0  0  0  0  0  3  0  0  0  0  0  0
  186.6420  178.3100  139.4260 C   0  0  0  0  0  3  0  0  0  0  0  0
  180.9790  178.4520  143.3320 C   0  0  2  0  0  3  0  0  0  0  0  0
  180.8110  177.3720  144.1980 O   0  0  0  0  0  1  0  0  0  0  0  0
  181.8490  178.8200  140.9550 C   0  0  0  0  0  2  0  0  0  0  0  0
  183.4610  178.7200  142.9420 C   0  0  2  0  0  3  0  0  0  0  0  0
  180.9930  177.9450  141.8750 C   0  0  2  0  0  3  0  0  0  0  0  0
  183.3080  178.8770  141.4220 C   0  0  0  0  0  2  0  0  0  0  0  0
  182.2390  179.2340  143.7240 C   0  0  1  0  0  3  0  0  0  0  0  0
  182.0300  180.5940  143.4830 O   0  0  0  0  0  1  0  0  0  0  0  0
  179.4200  176.4760  140.5410 C   0  0  0  0  0  1  0  0  0  0  0  0
  179.5790  177.7690  141.3280 C   0  0  0  0  0  2  0  0  0  0  0  0
  1  3  1  1  0  0  0
  2  5  1  0  0  0  0
  2  4  1  0  0  0  0
  3 20  1  0  0  0  0
  4  1  1  0  0  0  0
  4 11  1  0  0  0  0
  5 10  1  0  0  0  0
  5 19  1  0  0  0  0
  6 21  2  0  0  0  0
  6 22  1  0  0  0  0
  7 15  1  0  0  0  0
  7  2  1  0  0  0  0
  8  9  2  0  0  0  0
  9 12  1  0  0  0  0
 10 19  1  0  0  0  0
 11 14  1  0  0  0  0
 12  5  1  0  0  0  0
 13 11  1  0  0  0  0
 14 20  1  0  0  0  0
 15 17  1  0  0  0  0
 16 10  1  0  0  0  0
 17  1  1  0  0  0  0
 18  9  1  0  0  0  0
 18  7  1  0  0  0  0
 19 13  1  0  0  0  0
 21  8  1  0  0  0  0
 22 18  2  0  0  0  0
 23 29  1  0  0  0  0
 23 24  1  0  0  0  0
 25 28  1  0  0  0  0
 25 27  1  0  0  0  0
 26 17  1  0  0  0  0
 26 29  1  0  0  0  0
 27 23  1  0  0  0  0
 28 26  1  0  0  0  0
 30 29  1  0  0  0  0
 31 32  1  0  0  0  0
 32 27  1  0  0  0  0
M  END
>  <MODEL>
9

>  <REMARK>
 VINA RESULT:      -5.7      2.614      7.973
  Name = 
  2 active torsions:
  status: ('A' for Active; 'I' for Inactive)
    1  A    between atoms: C_16  and  C_27
    2  A    between atoms: C_19  and  C_26
                            x       y       z     vdW  Elec       q    Type
                         _______ _______ _______ _____ _____    ______ ____

>  <TORSDO>
F 2

$$$$
