=
 OpenBabel10262422533D

 37 42  0  0  1  0  0  0  0  0999 V2000
  182.2600  178.1490  140.4500 C   0  0  2  0  0  3  0  0  0  0  0  0
  181.0530  177.7070  139.5610 C   0  0  1  0  0  0  0  0  0  0  0  0
  182.9940  179.0580  142.7280 C   0  0  1  0  0  3  0  0  0  0  0  0
  181.4190  177.0860  138.1860 C   0  0  1  0  0  0  0  0  0  0  0  0
  183.2240  178.2570  137.3970 C   0  0  0  0  0  2  0  0  0  0  0  0
  184.0870  178.2290  142.4610 O   0  0  0  0  0  0  0  0  0  0  0  0
  184.6380  179.0070  140.2510 C   0  0  0  0  0  0  0  0  0  0  0  0
  181.8280  178.7210  141.8050 C   0  0  0  0  0  2  0  0  0  0  0  0
  185.5950  179.1190  139.4400 O   0  0  0  0  0  0  0  0  0  0  0  0
  182.8030  177.0150  137.9220 O   0  0  0  0  0  0  0  0  0  0  0  0
  183.2800  178.9660  139.7590 N   0  0  0  0  0  0  0  0  0  0  0  0
  180.9450  176.1800  139.3390 C   0  0  1  0  0  0  0  0  0  0  0  0
  183.0450  179.4160  138.3880 C   0  0  0  0  0  2  0  0  0  0  0  0
  184.9580  179.0330  141.7190 C   0  0  0  0  0  2  0  0  0  0  0  0
  182.0150  175.3190  140.0150 C   0  0  0  0  0  1  0  0  0  0  0  0
  180.1660  178.3720  136.3870 C   0  0  0  0  0  3  0  0  0  0  0  0
  180.5060  177.1450  136.9760 C   0  0  0  0  0  0  0  0  0  0  0  0
  180.1070  175.9550  136.3490 C   0  0  0  0  0  3  0  0  0  0  0  0
  178.9310  174.8370  134.6040 F   0  0  0  0  0  0  0  0  0  0  0  0
  178.9650  177.2210  134.6300 C   0  0  0  0  0  3  0  0  0  0  0  0
  179.3270  175.9920  135.1890 C   0  0  0  0  0  0  0  0  0  0  0  0
  179.3900  178.4100  135.2260 C   0  0  0  0  0  3  0  0  0  0  0  0
  179.0030  181.2340  140.5200 C   0  0  0  0  0  2  0  0  0  0  0  0
  179.7860  179.7630  138.6720 C   0  0  0  0  0  2  0  0  0  0  0  0
  178.9310  180.0340  141.4210 C   0  0  0  0  0  3  0  0  0  0  0  0
  179.2410  178.8030  140.9890 C   0  0  0  0  0  3  0  0  0  0  0  0
  179.7370  178.5240  139.5850 C   0  0  2  0  0  3  0  0  0  0  0  0
  180.0850  181.0420  139.4510 C   0  0  1  0  0  3  0  0  0  0  0  0
  180.2550  182.2300  138.4940 C   0  0  0  0  0  0  0  0  0  0  0  0
  180.8170  181.9430  137.1180 C   0  0  0  0  0  2  0  0  0  0  0  0
  179.2310  183.3480  138.5140 C   0  0  0  0  0  1  0  0  0  0  0  0
  181.6660  182.6670  138.1610 C   0  0  0  0  0  2  0  0  0  0  0  0
  183.6180  179.3030  145.0170 O   0  0  0  0  0  1  0  0  0  0  0  0
  182.5740  178.9120  144.1790 C   0  0  0  0  0  2  0  0  0  0  0  0
  179.5200  175.6130  139.3040 C   0  0  0  0  0  2  0  0  0  0  0  0
  179.2490  173.2790  138.7030 N   0  0  0  0  0  1  0  0  0  0  0  0
  179.4750  174.1830  139.8150 C   0  0  0  0  0  2  0  0  0  0  0  0
  1  8  1  1  0  0  0
  2 27  1  1  0  0  0
  2  1  1  0  0  0  0
  3 34  1  1  0  0  0
  4 17  1  6  0  0  0
  4 12  1  0  0  0  0
  4  2  1  0  0  0  0
  5 10  1  0  0  0  0
  5 13  1  0  0  0  0
  6  3  1  0  0  0  0
  7 14  1  0  0  0  0
  8  3  1  0  0  0  0
  9  7  2  0  0  0  0
 10  4  1  0  0  0  0
 11  7  1  0  0  0  0
 11  1  1  0  0  0  0
 12  2  1  0  0  0  0
 12 15  1  1  0  0  0
 13 11  1  0  0  0  0
 14  6  1  0  0  0  0
 16 17  1  0  0  0  0
 18 17  2  0  0  0  0
 19 21  1  0  0  0  0
 20 21  2  0  0  0  0
 20 22  1  0  0  0  0
 21 18  1  0  0  0  0
 22 16  2  0  0  0  0
 23 25  1  0  0  0  0
 24 28  1  0  0  0  0
 26 25  2  0  0  0  0
 27 24  1  1  0  0  0
 27 26  1  0  0  0  0
 28 29  1  6  0  0  0
 28 23  1  0  0  0  0
 29 31  1  0  0  0  0
 30 32  1  0  0  0  0
 30 29  1  0  0  0  0
 32 29  1  0  0  0  0
 34 33  1  0  0  0  0
 35 12  1  0  0  0  0
 35 37  1  0  0  0  0
 36 37  1  0  0  0  0
M  END
>  <MODEL>
1

>  <REMARK>
 VINA RESULT:      -4.9      0.000      0.000
  Name = 
  6 active torsions:
  status: ('A' for Active; 'I' for Inactive)
    1  A    between atoms: C_3  and  C_30
    2  A    between atoms: C_4  and  C_28
    3  A    between atoms: C_5  and  C_23
    4  A    between atoms: C_6  and  C_7
    5  A    between atoms: C_14  and  C_31
    6  A    between atoms: C_14  and  C_37
                            x       y       z     vdW  Elec       q    Type
                         _______ _______ _______ _____ _____    ______ ____

>  <TORSDO>
F 6

$$$$
=
 OpenBabel10262422533D

 37 42  0  0  1  0  0  0  0  0999 V2000
  182.1830  176.0560  137.7390 C   0  0  2  0  0  3  0  0  0  0  0  0
  182.1590  177.4900  138.3580 C   0  0  1  0  0  0  0  0  0  0  0  0
  183.5940  173.9710  137.2750 C   0  0  1  0  0  3  0  0  0  0  0  0
  180.7740  178.1910  138.3850 C   0  0  1  0  0  0  0  0  0  0  0  0
  179.7150  177.6250  136.4330 C   0  0  0  0  0  2  0  0  0  0  0  0
  182.3610  173.3540  137.5020 O   0  0  0  0  0  0  0  0  0  0  0  0
  180.9950  174.6460  135.9990 C   0  0  0  0  0  0  0  0  0  0  0  0
  183.5730  175.4100  137.7760 C   0  0  0  0  0  2  0  0  0  0  0  0
  179.9460  174.5900  135.3040 O   0  0  0  0  0  0  0  0  0  0  0  0
  179.7200  177.4330  137.8320 O   0  0  0  0  0  0  0  0  0  0  0  0
  181.5040  175.9260  136.4330 N   0  0  0  0  0  0  0  0  0  0  0  0
  181.3670  177.6050  139.6810 C   0  0  1  0  0  0  0  0  0  0  0  0
  180.9960  177.1190  135.7550 C   0  0  0  0  0  2  0  0  0  0  0  0
  181.7350  173.3620  136.2510 C   0  0  0  0  0  2  0  0  0  0  0  0
  180.7260  176.3160  140.2020 C   0  0  0  0  0  1  0  0  0  0  0  0
  181.0400  180.4570  137.2650 C   0  0  0  0  0  3  0  0  0  0  0  0
  180.6020  179.6980  138.3600 C   0  0  0  0  0  0  0  0  0  0  0  0
  179.8730  180.3300  139.3780 C   0  0  0  0  0  3  0  0  0  0  0  0
  178.9530  182.3110  140.3320 F   0  0  0  0  0  0  0  0  0  0  0  0
  180.1110  182.4610  138.2540 C   0  0  0  0  0  3  0  0  0  0  0  0
  179.6410  181.7080  139.3340 C   0  0  0  0  0  0  0  0  0  0  0  0
  180.8060  181.8330  137.2170 C   0  0  0  0  0  3  0  0  0  0  0  0
  186.2930  178.0300  137.9380 C   0  0  0  0  0  2  0  0  0  0  0  0
  184.0830  178.2250  136.8140 C   0  0  0  0  0  2  0  0  0  0  0  0
  185.6200  178.2530  139.2620 C   0  0  0  0  0  3  0  0  0  0  0  0
  184.2990  178.4600  139.3600 C   0  0  0  0  0  3  0  0  0  0  0  0
  183.3710  178.4360  138.1630 C   0  0  2  0  0  3  0  0  0  0  0  0
  185.3330  177.3590  136.9510 C   0  0  1  0  0  3  0  0  0  0  0  0
  185.9380  177.0640  135.5710 C   0  0  0  0  0  0  0  0  0  0  0  0
  185.1020  176.2610  134.5980 C   0  0  0  0  0  2  0  0  0  0  0  0
  186.8080  178.1140  134.9060 C   0  0  0  0  0  1  0  0  0  0  0  0
  186.3240  175.6330  135.2650 C   0  0  0  0  0  2  0  0  0  0  0  0
  185.5110  172.5760  137.0110 O   0  0  0  0  0  1  0  0  0  0  0  0
  184.7000  173.1920  137.9640 C   0  0  0  0  0  2  0  0  0  0  0  0
  181.9560  178.5590  140.7290 C   0  0  0  0  0  2  0  0  0  0  0  0
  181.1770  179.7160  142.7130 N   0  0  0  0  0  1  0  0  0  0  0  0
  181.2560  178.4180  142.0690 C   0  0  0  0  0  2  0  0  0  0  0  0
  1  8  1  6  0  0  0
  1  2  1  0  0  0  0
  2 27  1  6  0  0  0
  2  4  1  0  0  0  0
  2 12  1  0  0  0  0
  3  6  1  0  0  0  0
  3  8  1  0  0  0  0
  3 34  1  1  0  0  0
  4 17  1  6  0  0  0
  4 12  1  0  0  0  0
  5 10  1  0  0  0  0
  7 14  1  0  0  0  0
  7 11  1  0  0  0  0
  9  7  2  0  0  0  0
 10  4  1  0  0  0  0
 11  1  1  0  0  0  0
 12 15  1  1  0  0  0
 12 35  1  0  0  0  0
 13  5  1  0  0  0  0
 13 11  1  0  0  0  0
 14  6  1  0  0  0  0
 16 17  1  0  0  0  0
 17 18  2  0  0  0  0
 20 21  2  0  0  0  0
 21 18  1  0  0  0  0
 21 19  1  0  0  0  0
 22 16  2  0  0  0  0
 22 20  1  0  0  0  0
 23 25  1  0  0  0  0
 24 28  1  0  0  0  0
 25 26  2  0  0  0  0
 27 24  1  6  0  0  0
 27 26  1  0  0  0  0
 28 29  1  6  0  0  0
 28 23  1  0  0  0  0
 30 32  1  0  0  0  0
 30 29  1  0  0  0  0
 31 29  1  0  0  0  0
 32 29  1  0  0  0  0
 33 34  1  0  0  0  0
 35 37  1  0  0  0  0
 37 36  1  0  0  0  0
M  END
>  <MODEL>
2

>  <REMARK>
 VINA RESULT:      -4.6      3.076      6.341
  Name = 
  6 active torsions:
  status: ('A' for Active; 'I' for Inactive)
    1  A    between atoms: C_3  and  C_30
    2  A    between atoms: C_4  and  C_28
    3  A    between atoms: C_5  and  C_23
    4  A    between atoms: C_6  and  C_7
    5  A    between atoms: C_14  and  C_31
    6  A    between atoms: C_14  and  C_37
                            x       y       z     vdW  Elec       q    Type
                         _______ _______ _______ _____ _____    ______ ____

>  <TORSDO>
F 6

$$$$
=
 OpenBabel10262422533D

 37 42  0  0  1  0  0  0  0  0999 V2000
  182.1920  177.9360  137.5720 C   0  0  2  0  0  3  0  0  0  0  0  0
  182.0460  178.1080  139.1180 C   0  0  1  0  0  0  0  0  0  0  0  0
  181.0710  177.1410  135.4120 C   0  0  1  0  0  3  0  0  0  0  0  0
  183.2080  178.8540  139.8280 C   0  0  1  0  0  0  0  0  0  0  0  0
  185.1420  178.1850  138.7960 C   0  0  0  0  0  2  0  0  0  0  0  0
  181.7960  178.2200  134.8980 O   0  0  0  0  0  0  0  0  0  0  0  0
  183.9700  177.6870  135.7820 C   0  0  0  0  0  0  0  0  0  0  0  0
  180.9950  177.2230  136.9330 C   0  0  0  0  0  2  0  0  0  0  0  0
  185.2020  177.8410  135.5680 O   0  0  0  0  0  0  0  0  0  0  0  0
  184.2510  179.2670  138.9720 O   0  0  0  0  0  0  0  0  0  0  0  0
  183.5010  177.4180  137.1220 N   0  0  0  0  0  0  0  0  0  0  0  0
  181.8660  179.5710  139.5860 C   0  0  1  0  0  0  0  0  0  0  0  0
  184.4880  176.9790  138.1070 C   0  0  0  0  0  2  0  0  0  0  0  0
  183.0500  177.6800  134.5940 C   0  0  0  0  0  2  0  0  0  0  0  0
  181.8510  180.6380  138.4890 C   0  0  0  0  0  1  0  0  0  0  0  0
  184.9100  178.3680  141.6520 C   0  0  0  0  0  3  0  0  0  0  0  0
  183.5820  178.6240  141.2800 C   0  0  0  0  0  0  0  0  0  0  0  0
  182.6180  178.8070  142.2820 C   0  0  0  0  0  3  0  0  0  0  0  0
  182.0190  178.8300  144.5890 F   0  0  0  0  0  0  0  0  0  0  0  0
  184.2820  178.3820  143.9880 C   0  0  0  0  0  3  0  0  0  0  0  0
  182.9620  178.6720  143.6310 C   0  0  0  0  0  0  0  0  0  0  0  0
  185.2570  178.2360  142.9990 C   0  0  0  0  0  3  0  0  0  0  0  0
  179.2320  175.0180  139.4270 C   0  0  0  0  0  2  0  0  0  0  0  0
  181.6550  175.5830  139.4230 C   0  0  0  0  0  2  0  0  0  0  0  0
  178.9320  176.3870  139.9670 C   0  0  0  0  0  3  0  0  0  0  0  0
  179.9020  177.2750  140.2290 C   0  0  0  0  0  3  0  0  0  0  0  0
  181.3670  176.9970  139.9580 C   0  0  2  0  0  3  0  0  0  0  0  0
  180.5060  175.0420  138.5750 C   0  0  1  0  0  3  0  0  0  0  0  0
  180.8840  173.6890  137.9550 C   0  0  0  0  0  0  0  0  0  0  0  0
  182.3360  173.4700  137.5880 C   0  0  0  0  0  2  0  0  0  0  0  0
  180.1790  172.4340  138.4320 C   0  0  0  0  0  1  0  0  0  0  0  0
  181.2890  173.6750  136.4960 C   0  0  0  0  0  2  0  0  0  0  0  0
  179.1210  175.8490  134.9470 O   0  0  0  0  0  1  0  0  0  0  0  0
  179.6750  177.1230  134.8180 C   0  0  0  0  0  2  0  0  0  0  0  0
  180.9090  179.7790  140.7680 C   0  0  0  0  0  2  0  0  0  0  0  0
  179.2970  181.3250  141.7120 N   0  0  0  0  0  1  0  0  0  0  0  0
  179.8770  180.8530  140.4690 C   0  0  0  0  0  2  0  0  0  0  0  0
  1  8  1  1  0  0  0
  1  2  1  0  0  0  0
  2 12  1  0  0  0  0
  2  4  1  0  0  0  0
  2 27  1  1  0  0  0
  3 34  1  6  0  0  0
  3  8  1  0  0  0  0
  4 17  1  1  0  0  0
  5 10  1  0  0  0  0
  6  3  1  0  0  0  0
  7 11  1  0  0  0  0
  9  7  2  0  0  0  0
 10  4  1  0  0  0  0
 11  1  1  0  0  0  0
 11 13  1  0  0  0  0
 12 15  1  6  0  0  0
 12  4  1  0  0  0  0
 12 35  1  0  0  0  0
 13  5  1  0  0  0  0
 14  6  1  0  0  0  0
 14  7  1  0  0  0  0
 16 22  1  0  0  0  0
 17 16  2  0  0  0  0
 17 18  1  0  0  0  0
 18 21  2  0  0  0  0
 21 20  1  0  0  0  0
 21 19  1  0  0  0  0
 22 20  2  0  0  0  0
 23 25  1  0  0  0  0
 25 26  2  0  0  0  0
 27 24  1  6  0  0  0
 27 26  1  0  0  0  0
 28 29  1  1  0  0  0
 28 24  1  0  0  0  0
 28 23  1  0  0  0  0
 29 31  1  0  0  0  0
 30 29  1  0  0  0  0
 32 30  1  0  0  0  0
 32 29  1  0  0  0  0
 34 33  1  0  0  0  0
 37 35  1  0  0  0  0
 37 36  1  0  0  0  0
M  END
>  <MODEL>
3

>  <REMARK>
 VINA RESULT:      -4.3      2.828      6.866
  Name = 
  6 active torsions:
  status: ('A' for Active; 'I' for Inactive)
    1  A    between atoms: C_3  and  C_30
    2  A    between atoms: C_4  and  C_28
    3  A    between atoms: C_5  and  C_23
    4  A    between atoms: C_6  and  C_7
    5  A    between atoms: C_14  and  C_31
    6  A    between atoms: C_14  and  C_37
                            x       y       z     vdW  Elec       q    Type
                         _______ _______ _______ _____ _____    ______ ____

>  <TORSDO>
F 6

$$$$
=
 OpenBabel10262422533D

 37 42  0  0  1  0  0  0  0  0999 V2000
  190.3470  176.0880  136.5910 C   0  0  2  0  0  3  0  0  0  0  0  0
  191.7650  175.5760  137.0010 C   0  0  1  0  0  0  0  0  0  0  0  0
  188.5760  177.9080  136.9150 C   0  0  1  0  0  3  0  0  0  0  0  0
  192.2870  174.3390  136.2210 C   0  0  1  0  0  0  0  0  0  0  0  0
  190.4820  172.9670  135.8830 C   0  0  0  0  0  2  0  0  0  0  0  0
  188.3650  177.6370  135.5600 O   0  0  0  0  0  0  0  0  0  0  0  0
  188.1410  175.2430  135.6720 C   0  0  0  0  0  0  0  0  0  0  0  0
  189.9090  177.3310  137.3750 C   0  0  0  0  0  2  0  0  0  0  0  0
  187.6120  174.2600  135.0880 O   0  0  0  0  0  0  0  0  0  0  0  0
  191.3960  173.8370  135.2480 O   0  0  0  0  0  0  0  0  0  0  0  0
  189.3050  175.0440  136.5040 N   0  0  0  0  0  0  0  0  0  0  0  0
  192.8470  175.7390  135.9080 C   0  0  1  0  0  0  0  0  0  0  0  0
  189.6070  173.6770  136.9270 C   0  0  0  0  0  2  0  0  0  0  0  0
  187.4540  176.5750  135.5590 C   0  0  0  0  0  2  0  0  0  0  0  0
  192.3920  176.3770  134.5940 C   0  0  0  0  0  1  0  0  0  0  0  0
  193.3390  172.0270  136.3250 C   0  0  0  0  0  3  0  0  0  0  0  0
  193.2770  173.3460  136.8000 C   0  0  0  0  0  0  0  0  0  0  0  0
  194.2390  173.7820  137.7230 C   0  0  0  0  0  3  0  0  0  0  0  0
  196.1170  173.3250  139.1180 F   0  0  0  0  0  0  0  0  0  0  0  0
  195.2370  171.5770  137.7560 C   0  0  0  0  0  3  0  0  0  0  0  0
  195.2060  172.8980  138.2110 C   0  0  0  0  0  0  0  0  0  0  0  0
  194.3070  171.1440  136.8090 C   0  0  0  0  0  3  0  0  0  0  0  0
  191.9830  177.7120  140.5990 C   0  0  0  0  0  2  0  0  0  0  0  0
  191.0390  175.7090  139.4660 C   0  0  0  0  0  2  0  0  0  0  0  0
  193.1530  177.6710  139.6580 C   0  0  0  0  0  3  0  0  0  0  0  0
  193.2700  176.7270  138.7130 C   0  0  0  0  0  3  0  0  0  0  0  0
  192.2190  175.6610  138.4800 C   0  0  2  0  0  3  0  0  0  0  0  0
  190.7320  177.1310  139.9310 C   0  0  1  0  0  3  0  0  0  0  0  0
  189.4710  177.1530  140.8070 C   0  0  0  0  0  0  0  0  0  0  0  0
  189.5500  177.8890  142.1270 C   0  0  0  0  0  2  0  0  0  0  0  0
  188.1110  177.2360  140.1420 C   0  0  0  0  0  1  0  0  0  0  0  0
  189.5000  176.3630  142.0980 C   0  0  0  0  0  2  0  0  0  0  0  0
  189.1390  179.7030  138.3810 O   0  0  0  0  0  1  0  0  0  0  0  0
  188.5420  179.4070  137.1550 C   0  0  0  0  0  2  0  0  0  0  0  0
  194.2490  176.1100  136.4110 C   0  0  0  0  0  2  0  0  0  0  0  0
  195.4530  177.9310  135.3550 N   0  0  0  0  0  1  0  0  0  0  0  0
  195.1640  176.5120  135.2670 C   0  0  0  0  0  2  0  0  0  0  0  0
  1  2  1  0  0  0  0
  1  8  1  1  0  0  0
  2 27  1  1  0  0  0
  3 34  1  6  0  0  0
  3  8  1  0  0  0  0
  4 17  1  1  0  0  0
  4  2  1  0  0  0  0
  5 13  1  0  0  0  0
  6  3  1  0  0  0  0
  7 11  1  0  0  0  0
  9  7  2  0  0  0  0
 10  5  1  0  0  0  0
 10  4  1  0  0  0  0
 11  1  1  0  0  0  0
 11 13  1  0  0  0  0
 12 15  1  6  0  0  0
 12  4  1  0  0  0  0
 12 35  1  0  0  0  0
 12  2  1  0  0  0  0
 14  6  1  0  0  0  0
 14  7  1  0  0  0  0
 16 17  2  0  0  0  0
 16 22  1  0  0  0  0
 17 18  1  0  0  0  0
 18 21  2  0  0  0  0
 20 21  1  0  0  0  0
 21 19  1  0  0  0  0
 22 20  2  0  0  0  0
 25 23  1  0  0  0  0
 26 25  2  0  0  0  0
 27 26  1  6  0  0  0
 27 24  1  0  0  0  0
 28 24  1  1  0  0  0
 28 23  1  0  0  0  0
 28 29  1  0  0  0  0
 29 32  1  0  0  0  0
 29 30  1  0  0  0  0
 31 29  1  0  0  0  0
 32 30  1  0  0  0  0
 34 33  1  0  0  0  0
 37 36  1  0  0  0  0
 37 35  1  0  0  0  0
M  END
>  <MODEL>
4

>  <REMARK>
 VINA RESULT:      -3.3      9.031     12.235
  Name = 
  6 active torsions:
  status: ('A' for Active; 'I' for Inactive)
    1  A    between atoms: C_3  and  C_30
    2  A    between atoms: C_4  and  C_28
    3  A    between atoms: C_5  and  C_23
    4  A    between atoms: C_6  and  C_7
    5  A    between atoms: C_14  and  C_31
    6  A    between atoms: C_14  and  C_37
                            x       y       z     vdW  Elec       q    Type
                         _______ _______ _______ _____ _____    ______ ____

>  <TORSDO>
F 6

$$$$
=
 OpenBabel10262422533D

 37 42  0  0  1  0  0  0  0  0999 V2000
  185.0510  178.5150  138.7000 C   0  0  2  0  0  3  0  0  0  0  0  0
  183.4910  178.5320  138.7890 C   0  0  1  0  0  0  0  0  0  0  0  0
  187.0860  177.9480  137.2540 C   0  0  1  0  0  3  0  0  0  0  0  0
  182.8940  179.1960  140.0590 C   0  0  1  0  0  0  0  0  0  0  0  0
  184.2660  178.6250  141.8040 C   0  0  0  0  0  2  0  0  0  0  0  0
  187.5940  179.0690  137.9160 O   0  0  0  0  0  0  0  0  0  0  0  0
  187.1040  178.4380  140.1860 C   0  0  0  0  0  0  0  0  0  0  0  0
  185.5710  177.8770  137.4070 C   0  0  0  0  0  2  0  0  0  0  0  0
  187.4840  178.6060  141.3750 O   0  0  0  0  0  0  0  0  0  0  0  0
  183.8520  179.6880  140.9710 O   0  0  0  0  0  0  0  0  0  0  0  0
  185.7420  178.0380  139.9160 N   0  0  0  0  0  0  0  0  0  0  0  0
  182.8590  179.9420  138.7110 C   0  0  1  0  0  0  0  0  0  0  0  0
  184.9640  177.4970  141.0300 C   0  0  0  0  0  2  0  0  0  0  0  0
  188.1350  178.5550  139.0990 C   0  0  0  0  0  2  0  0  0  0  0  0
  183.8320  181.1130  138.5540 C   0  0  0  0  0  1  0  0  0  0  0  0
  181.0520  177.5110  140.5330 C   0  0  0  0  0  3  0  0  0  0  0  0
  181.5440  178.8200  140.6400 C   0  0  0  0  0  0  0  0  0  0  0  0
  180.8380  179.7520  141.4140 C   0  0  0  0  0  3  0  0  0  0  0  0
  178.9440  180.3130  142.7480 F   0  0  0  0  0  0  0  0  0  0  0  0
  179.1290  178.1020  141.8780 C   0  0  0  0  0  3  0  0  0  0  0  0
  179.6280  179.4000  142.0190 C   0  0  0  0  0  0  0  0  0  0  0  0
  179.8450  177.1560  141.1400 C   0  0  0  0  0  3  0  0  0  0  0  0
  182.9960  175.5340  135.9040 C   0  0  0  0  0  2  0  0  0  0  0  0
  183.4220  176.0050  138.3090 C   0  0  0  0  0  2  0  0  0  0  0  0
  182.2450  176.8300  135.8010 C   0  0  0  0  0  3  0  0  0  0  0  0
  182.0790  177.6390  136.8570 C   0  0  0  0  0  3  0  0  0  0  0  0
  182.6720  177.3460  138.2200 C   0  0  2  0  0  3  0  0  0  0  0  0
  184.0790  175.6220  136.9850 C   0  0  1  0  0  3  0  0  0  0  0  0
  184.9230  174.3500  137.1490 C   0  0  0  0  0  0  0  0  0  0  0  0
  184.4430  173.0970  136.4490 C   0  0  0  0  0  2  0  0  0  0  0  0
  186.4340  174.4690  137.2200 C   0  0  0  0  0  1  0  0  0  0  0  0
  184.3360  173.2190  137.9670 C   0  0  0  0  0  2  0  0  0  0  0  0
  186.4500  177.4240  135.0160 O   0  0  0  0  0  1  0  0  0  0  0  0
  187.4630  177.9970  135.7840 C   0  0  0  0  0  2  0  0  0  0  0  0
  181.5330  180.0350  137.9450 C   0  0  0  0  0  2  0  0  0  0  0  0
  179.9980  181.7930  138.6020 N   0  0  0  0  0  1  0  0  0  0  0  0
  181.1130  181.4780  137.7290 C   0  0  0  0  0  2  0  0  0  0  0  0
  1  8  1  6  0  0  0
  1  2  1  0  0  0  0
  1 11  1  0  0  0  0
  2 27  1  6  0  0  0
  2  4  1  0  0  0  0
  3 34  1  6  0  0  0
  3  8  1  0  0  0  0
  3  6  1  0  0  0  0
  4 17  1  1  0  0  0
  4 10  1  0  0  0  0
  6 14  1  0  0  0  0
  7  9  2  0  0  0  0
 10  5  1  0  0  0  0
 11  7  1  0  0  0  0
 11 13  1  0  0  0  0
 12 15  1  6  0  0  0
 12  2  1  0  0  0  0
 12  4  1  0  0  0  0
 13  5  1  0  0  0  0
 14  7  1  0  0  0  0
 16 17  2  0  0  0  0
 16 22  1  0  0  0  0
 17 18  1  0  0  0  0
 18 21  2  0  0  0  0
 20 21  1  0  0  0  0
 21 19  1  0  0  0  0
 22 20  2  0  0  0  0
 25 23  1  0  0  0  0
 25 26  2  0  0  0  0
 27 26  1  6  0  0  0
 27 24  1  0  0  0  0
 28 23  1  6  0  0  0
 28 29  1  0  0  0  0
 28 24  1  0  0  0  0
 29 31  1  0  0  0  0
 29 32  1  0  0  0  0
 30 29  1  0  0  0  0
 30 32  1  0  0  0  0
 33 34  1  0  0  0  0
 35 12  1  0  0  0  0
 37 35  1  0  0  0  0
 37 36  1  0  0  0  0
M  END
>  <MODEL>
5

>  <REMARK>
 VINA RESULT:      -3.3      3.124      6.627
  Name = 
  6 active torsions:
  status: ('A' for Active; 'I' for Inactive)
    1  A    between atoms: C_3  and  C_30
    2  A    between atoms: C_4  and  C_28
    3  A    between atoms: C_5  and  C_23
    4  A    between atoms: C_6  and  C_7
    5  A    between atoms: C_14  and  C_31
    6  A    between atoms: C_14  and  C_37
                            x       y       z     vdW  Elec       q    Type
                         _______ _______ _______ _____ _____    ______ ____

>  <TORSDO>
F 6

$$$$
=
 OpenBabel10262422533D

 37 42  0  0  1  0  0  0  0  0999 V2000
  183.7880  177.4330  137.6620 C   0  0  2  0  0  3  0  0  0  0  0  0
  182.6340  177.5530  138.7080 C   0  0  1  0  0  0  0  0  0  0  0  0
  184.7820  176.0500  135.7510 C   0  0  1  0  0  3  0  0  0  0  0  0
  182.6140  178.8600  139.5450 C   0  0  1  0  0  0  0  0  0  0  0  0
  184.7990  179.3870  139.9900 C   0  0  0  0  0  2  0  0  0  0  0  0
  185.1210  177.3260  135.2960 O   0  0  0  0  0  0  0  0  0  0  0  0
  186.1810  178.1810  137.2810 C   0  0  0  0  0  0  0  0  0  0  0  0
  183.7270  176.1350  136.8490 C   0  0  0  0  0  2  0  0  0  0  0  0
  187.0450  179.0070  137.6770 O   0  0  0  0  0  0  0  0  0  0  0  0
  183.6570  179.7640  139.2500 O   0  0  0  0  0  0  0  0  0  0  0  0
  185.1370  177.7460  138.1800 N   0  0  0  0  0  0  0  0  0  0  0  0
  181.6020  178.6630  138.4000 C   0  0  1  0  0  0  0  0  0  0  0  0
  185.3280  177.9970  139.6080 C   0  0  0  0  0  2  0  0  0  0  0  0
  186.3500  177.5960  135.9070 C   0  0  0  0  0  2  0  0  0  0  0  0
  181.8430  179.4790  137.1280 C   0  0  0  0  0  1  0  0  0  0  0  0
  182.7450  178.5050  142.0580 C   0  0  0  0  0  3  0  0  0  0  0  0
  182.0240  178.9490  140.9400 C   0  0  0  0  0  0  0  0  0  0  0  0
  180.8010  179.6070  141.1360 C   0  0  0  0  0  3  0  0  0  0  0  0
  179.0860  180.3810  142.5990 F   0  0  0  0  0  0  0  0  0  0  0  0
  180.9890  179.2860  143.5280 C   0  0  0  0  0  3  0  0  0  0  0  0
  180.2770  179.7620  142.4230 C   0  0  0  0  0  0  0  0  0  0  0  0
  182.2250  178.6630  143.3450 C   0  0  0  0  0  3  0  0  0  0  0  0
  179.8340  174.4580  139.0850 C   0  0  0  0  0  2  0  0  0  0  0  0
  182.2060  175.0180  138.5850 C   0  0  0  0  0  2  0  0  0  0  0  0
  179.7450  175.6840  139.9480 C   0  0  0  0  0  3  0  0  0  0  0  0
  180.7920  176.5010  140.1310 C   0  0  0  0  0  3  0  0  0  0  0  0
  182.1290  176.2900  139.4500 C   0  0  2  0  0  3  0  0  0  0  0  0
  180.8580  174.6620  137.9630 C   0  0  1  0  0  3  0  0  0  0  0  0
  181.0040  173.4690  137.0070 C   0  0  0  0  0  0  0  0  0  0  0  0
  180.7860  172.0840  137.5790 C   0  0  0  0  0  2  0  0  0  0  0  0
  180.5450  173.6140  135.5680 C   0  0  0  0  0  1  0  0  0  0  0  0
  182.1920  172.5510  137.2050 C   0  0  0  0  0  2  0  0  0  0  0  0
  184.6050  173.8680  134.8050 O   0  0  0  0  0  1  0  0  0  0  0  0
  184.2700  175.2060  134.5970 C   0  0  0  0  0  2  0  0  0  0  0  0
  180.1440  178.3300  138.7440 C   0  0  0  0  0  2  0  0  0  0  0  0
  178.9370  177.4320  136.8420 N   0  0  0  0  0  1  0  0  0  0  0  0
  179.2110  178.6460  137.5870 C   0  0  0  0  0  2  0  0  0  0  0  0
  1  8  1  1  0  0  0
  1 11  1  0  0  0  0
  1  2  1  0  0  0  0
  2 27  1  1  0  0  0
  2  4  1  0  0  0  0
  3 34  1  6  0  0  0
  3  8  1  0  0  0  0
  4 17  1  1  0  0  0
  6  3  1  0  0  0  0
  6 14  1  0  0  0  0
  7  9  2  0  0  0  0
  7 11  1  0  0  0  0
 10  4  1  0  0  0  0
 10  5  1  0  0  0  0
 11 13  1  0  0  0  0
 12 15  1  6  0  0  0
 12  2  1  0  0  0  0
 12 35  1  0  0  0  0
 12  4  1  0  0  0  0
 13  5  1  0  0  0  0
 14  7  1  0  0  0  0
 16 22  1  0  0  0  0
 17 18  1  0  0  0  0
 17 16  2  0  0  0  0
 18 21  2  0  0  0  0
 21 19  1  0  0  0  0
 21 20  1  0  0  0  0
 22 20  2  0  0  0  0
 23 25  1  0  0  0  0
 25 26  2  0  0  0  0
 27 24  1  6  0  0  0
 27 26  1  0  0  0  0
 28 29  1  1  0  0  0
 28 24  1  0  0  0  0
 28 23  1  0  0  0  0
 29 32  1  0  0  0  0
 29 30  1  0  0  0  0
 31 29  1  0  0  0  0
 32 30  1  0  0  0  0
 34 33  1  0  0  0  0
 36 37  1  0  0  0  0
 37 35  1  0  0  0  0
M  END
>  <MODEL>
6

>  <REMARK>
 VINA RESULT:      -3.2      2.893      6.490
  Name = 
  6 active torsions:
  status: ('A' for Active; 'I' for Inactive)
    1  A    between atoms: C_3  and  C_30
    2  A    between atoms: C_4  and  C_28
    3  A    between atoms: C_5  and  C_23
    4  A    between atoms: C_6  and  C_7
    5  A    between atoms: C_14  and  C_31
    6  A    between atoms: C_14  and  C_37
                            x       y       z     vdW  Elec       q    Type
                         _______ _______ _______ _____ _____    ______ ____

>  <TORSDO>
F 6

$$$$
=
 OpenBabel10262422533D

 37 42  0  0  1  0  0  0  0  0999 V2000
  184.0120  176.3270  136.3590 C   0  0  2  0  0  3  0  0  0  0  0  0
  185.1920  177.0620  137.0720 C   0  0  1  0  0  0  0  0  0  0  0  0
  181.5340  176.4180  135.7200 C   0  0  1  0  0  3  0  0  0  0  0  0
  186.5840  176.3890  136.9420 C   0  0  1  0  0  0  0  0  0  0  0  0
  186.2330  174.1270  137.0580 C   0  0  0  0  0  2  0  0  0  0  0  0
  182.0250  175.7490  134.5960 O   0  0  0  0  0  0  0  0  0  0  0  0
  183.2620  173.9990  135.6930 C   0  0  0  0  0  0  0  0  0  0  0  0
  182.6750  177.0640  136.5000 C   0  0  0  0  0  2  0  0  0  0  0  0
  183.6790  172.8210  135.5370 O   0  0  0  0  0  0  0  0  0  0  0  0
  186.5910  175.1900  136.1980 O   0  0  0  0  0  0  0  0  0  0  0  0
  183.9220  174.8780  136.6310 N   0  0  0  0  0  0  0  0  0  0  0  0
  186.2560  177.6470  136.1150 C   0  0  1  0  0  0  0  0  0  0  0  0
  184.8100  174.2660  137.6190 C   0  0  0  0  0  2  0  0  0  0  0  0
  182.0100  174.3990  134.9640 C   0  0  0  0  0  2  0  0  0  0  0  0
  186.0120  177.4360  134.6190 C   0  0  0  0  0  1  0  0  0  0  0  0
  188.9860  176.0870  137.7150 C   0  0  0  0  0  3  0  0  0  0  0  0
  187.6860  176.5460  137.9730 C   0  0  0  0  0  0  0  0  0  0  0  0
  187.4430  177.2800  139.1420 C   0  0  0  0  0  3  0  0  0  0  0  0
  188.2160  178.1910  141.2050 F   0  0  0  0  0  0  0  0  0  0  0  0
  189.7510  177.0060  139.8180 C   0  0  0  0  0  3  0  0  0  0  0  0
  188.4670  177.4980  140.0690 C   0  0  0  0  0  0  0  0  0  0  0  0
  190.0120  176.3060  138.6380 C   0  0  0  0  0  3  0  0  0  0  0  0
  182.6820  179.3540  139.5230 C   0  0  0  0  0  2  0  0  0  0  0  0
  183.8270  177.1620  139.2520 C   0  0  0  0  0  2  0  0  0  0  0  0
  183.7720  180.0030  138.7190 C   0  0  0  0  0  3  0  0  0  0  0  0
  184.8080  179.3040  138.2350 C   0  0  0  0  0  3  0  0  0  0  0  0
  184.9430  177.8050  138.4090 C   0  0  2  0  0  3  0  0  0  0  0  0
  182.4950  177.8940  139.0990 C   0  0  1  0  0  3  0  0  0  0  0  0
  181.3810  177.1480  139.8480 C   0  0  0  0  0  0  0  0  0  0  0  0
  179.9990  177.7660  139.8400 C   0  0  0  0  0  2  0  0  0  0  0  0
  181.3720  175.6320  139.8400 C   0  0  0  0  0  1  0  0  0  0  0  0
  180.8420  177.7800  141.1130 C   0  0  0  0  0  2  0  0  0  0  0  0
  181.1900  178.6380  134.9190 O   0  0  0  0  0  1  0  0  0  0  0  0
  180.5260  177.4710  135.2980 C   0  0  0  0  0  2  0  0  0  0  0  0
  186.8610  178.9930  136.5350 C   0  0  0  0  0  2  0  0  0  0  0  0
  189.0500  179.7440  137.2590 N   0  0  0  0  0  1  0  0  0  0  0  0
  188.3370  179.0750  136.1870 C   0  0  0  0  0  2  0  0  0  0  0  0
  1  8  1  1  0  0  0
  1 11  1  0  0  0  0
  1  2  1  0  0  0  0
  2 27  1  1  0  0  0
  3 34  1  6  0  0  0
  3  8  1  0  0  0  0
  4  2  1  0  0  0  0
  4 17  1  1  0  0  0
  5 13  1  0  0  0  0
  6 14  1  0  0  0  0
  6  3  1  0  0  0  0
  7 11  1  0  0  0  0
  9  7  2  0  0  0  0
 10  4  1  0  0  0  0
 10  5  1  0  0  0  0
 11 13  1  0  0  0  0
 12 15  1  6  0  0  0
 12 35  1  0  0  0  0
 12  4  1  0  0  0  0
 12  2  1  0  0  0  0
 14  7  1  0  0  0  0
 16 17  2  0  0  0  0
 16 22  1  0  0  0  0
 17 18  1  0  0  0  0
 18 21  2  0  0  0  0
 20 21  1  0  0  0  0
 21 19  1  0  0  0  0
 22 20  2  0  0  0  0
 25 23  1  0  0  0  0
 26 25  2  0  0  0  0
 27 26  1  6  0  0  0
 27 24  1  0  0  0  0
 28 24  1  1  0  0  0
 28 23  1  0  0  0  0
 28 29  1  0  0  0  0
 29 32  1  0  0  0  0
 30 29  1  0  0  0  0
 30 32  1  0  0  0  0
 31 29  1  0  0  0  0
 33 34  1  0  0  0  0
 37 35  1  0  0  0  0
 37 36  1  0  0  0  0
M  END
>  <MODEL>
7

>  <REMARK>
 VINA RESULT:      -3.1      4.093      7.657
  Name = 
  6 active torsions:
  status: ('A' for Active; 'I' for Inactive)
    1  A    between atoms: C_3  and  C_30
    2  A    between atoms: C_4  and  C_28
    3  A    between atoms: C_5  and  C_23
    4  A    between atoms: C_6  and  C_7
    5  A    between atoms: C_14  and  C_31
    6  A    between atoms: C_14  and  C_37
                            x       y       z     vdW  Elec       q    Type
                         _______ _______ _______ _____ _____    ______ ____

>  <TORSDO>
F 6

$$$$
=
 OpenBabel10262422533D

 37 42  0  0  1  0  0  0  0  0999 V2000
  183.1170  178.3050  138.3250 C   0  0  2  0  0  3  0  0  0  0  0  0
  181.7680  178.5470  139.0730 C   0  0  1  0  0  0  0  0  0  0  0  0
  184.2460  177.2890  136.2640 C   0  0  1  0  0  3  0  0  0  0  0  0
  181.8500  179.4390  140.3420 C   0  0  1  0  0  0  0  0  0  0  0  0
  183.8140  178.9020  141.3940 C   0  0  0  0  0  2  0  0  0  0  0  0
  185.0720  178.4020  136.4390 O   0  0  0  0  0  0  0  0  0  0  0  0
  185.6070  178.1280  138.7700 C   0  0  0  0  0  0  0  0  0  0  0  0
  182.9580  177.4470  137.0650 C   0  0  0  0  0  2  0  0  0  0  0  0
  186.4900  178.3880  139.6300 O   0  0  0  0  0  0  0  0  0  0  0  0
  183.1460  179.9020  140.6530 O   0  0  0  0  0  0  0  0  0  0  0  0
  184.2450  177.8900  139.1860 N   0  0  0  0  0  0  0  0  0  0  0  0
  181.2670  180.0100  139.0350 C   0  0  1  0  0  0  0  0  0  0  0  0
  184.0120  177.6020  140.6010 C   0  0  0  0  0  2  0  0  0  0  0  0
  186.0480  177.9680  137.3420 C   0  0  0  0  0  2  0  0  0  0  0  0
  182.1440  181.0080  138.2760 C   0  0  0  0  0  1  0  0  0  0  0  0
  179.8680  180.2780  141.6930 C   0  0  0  0  0  3  0  0  0  0  0  0
  180.8800  179.3260  141.5040 C   0  0  0  0  0  0  0  0  0  0  0  0
  180.9040  178.1860  142.3200 C   0  0  0  0  0  3  0  0  0  0  0  0
  180.0150  176.9360  144.1440 F   0  0  0  0  0  0  0  0  0  0  0  0
  178.9860  179.0030  143.5510 C   0  0  0  0  0  3  0  0  0  0  0  0
  179.9700  178.0310  143.3490 C   0  0  0  0  0  0  0  0  0  0  0  0
  178.9320  180.1230  142.7190 C   0  0  0  0  0  3  0  0  0  0  0  0
  179.6800  175.4510  137.1720 C   0  0  0  0  0  2  0  0  0  0  0  0
  181.3060  176.0180  138.9690 C   0  0  0  0  0  2  0  0  0  0  0  0
  179.0640  176.8120  137.3240 C   0  0  0  0  0  3  0  0  0  0  0  0
  179.5130  177.6970  138.2260 C   0  0  0  0  0  3  0  0  0  0  0  0
  180.7010  177.4250  139.1260 C   0  0  2  0  0  3  0  0  0  0  0  0
  181.1670  175.4870  137.5430 C   0  0  1  0  0  3  0  0  0  0  0  0
  181.8950  174.1430  137.3950 C   0  0  0  0  0  0  0  0  0  0  0  0
  181.5140  173.2670  136.2210 C   0  0  0  0  0  2  0  0  0  0  0  0
  183.3600  174.0510  137.7750 C   0  0  0  0  0  1  0  0  0  0  0  0
  181.0950  172.8810  137.6370 C   0  0  0  0  0  2  0  0  0  0  0  0
  183.1030  175.9920  134.6200 O   0  0  0  0  0  1  0  0  0  0  0  0
  183.9270  177.1050  134.7910 C   0  0  0  0  0  2  0  0  0  0  0  0
  179.7480  180.1900  138.9130 C   0  0  0  0  0  2  0  0  0  0  0  0
  179.0570  182.4900  139.2470 N   0  0  0  0  0  1  0  0  0  0  0  0
  179.3940  181.5040  138.2380 C   0  0  0  0  0  2  0  0  0  0  0  0
  1  8  1  6  0  0  0
  1  2  1  0  0  0  0
  1 11  1  0  0  0  0
  2 27  1  6  0  0  0
  2  4  1  0  0  0  0
  3 34  1  6  0  0  0
  3  6  1  0  0  0  0
  3  8  1  0  0  0  0
  4 10  1  0  0  0  0
  4 17  1  1  0  0  0
  6 14  1  0  0  0  0
  7 11  1  0  0  0  0
  7  9  2  0  0  0  0
 10  5  1  0  0  0  0
 11 13  1  0  0  0  0
 12 15  1  6  0  0  0
 12  2  1  0  0  0  0
 12  4  1  0  0  0  0
 13  5  1  0  0  0  0
 14  7  1  0  0  0  0
 16 22  1  0  0  0  0
 17 16  2  0  0  0  0
 17 18  1  0  0  0  0
 18 21  2  0  0  0  0
 21 20  1  0  0  0  0
 21 19  1  0  0  0  0
 22 20  2  0  0  0  0
 23 25  1  0  0  0  0
 24 27  1  0  0  0  0
 25 26  2  0  0  0  0
 27 26  1  6  0  0  0
 28 23  1  1  0  0  0
 28 24  1  0  0  0  0
 29 28  1  0  0  0  0
 29 32  1  0  0  0  0
 29 31  1  0  0  0  0
 30 29  1  0  0  0  0
 30 32  1  0  0  0  0
 33 34  1  0  0  0  0
 35 12  1  0  0  0  0
 37 35  1  0  0  0  0
 37 36  1  0  0  0  0
M  END
>  <MODEL>
8

>  <REMARK>
 VINA RESULT:      -3.1      2.674      6.394
  Name = 
  6 active torsions:
  status: ('A' for Active; 'I' for Inactive)
    1  A    between atoms: C_3  and  C_30
    2  A    between atoms: C_4  and  C_28
    3  A    between atoms: C_5  and  C_23
    4  A    between atoms: C_6  and  C_7
    5  A    between atoms: C_14  and  C_31
    6  A    between atoms: C_14  and  C_37
                            x       y       z     vdW  Elec       q    Type
                         _______ _______ _______ _____ _____    ______ ____

>  <TORSDO>
F 6

$$$$
=
 OpenBabel10262422533D

 37 42  0  0  1  0  0  0  0  0999 V2000
  184.1820  177.1470  137.0290 C   0  0  2  0  0  3  0  0  0  0  0  0
  182.7870  177.2450  137.7250 C   0  0  1  0  0  0  0  0  0  0  0  0
  185.7790  175.6700  135.6790 C   0  0  1  0  0  3  0  0  0  0  0  0
  182.4150  178.6380  138.3000 C   0  0  1  0  0  0  0  0  0  0  0  0
  184.3420  179.5220  139.1730 C   0  0  0  0  0  2  0  0  0  0  0  0
  186.0960  176.9070  135.1140 O   0  0  0  0  0  0  0  0  0  0  0  0
  186.5030  178.1640  137.1260 C   0  0  0  0  0  0  0  0  0  0  0  0
  184.4690  175.7550  136.4550 C   0  0  0  0  0  2  0  0  0  0  0  0
  187.1440  179.1500  137.5770 O   0  0  0  0  0  0  0  0  0  0  0  0
  183.4030  179.6310  138.1230 O   0  0  0  0  0  0  0  0  0  0  0  0
  185.3080  177.7130  137.8020 N   0  0  0  0  0  0  0  0  0  0  0  0
  181.7660  178.1470  136.9920 C   0  0  1  0  0  0  0  0  0  0  0  0
  185.0890  178.1810  139.1700 C   0  0  0  0  0  2  0  0  0  0  0  0
  187.0860  177.4270  135.9530 C   0  0  0  0  0  2  0  0  0  0  0  0
  182.2510  178.8080  135.6990 C   0  0  0  0  0  1  0  0  0  0  0  0
  181.5300  177.9890  140.5920 C   0  0  0  0  0  3  0  0  0  0  0  0
  181.4720  178.8320  139.4730 C   0  0  0  0  0  0  0  0  0  0  0  0
  180.6240  179.9480  139.5040 C   0  0  0  0  0  3  0  0  0  0  0  0
  178.9720  181.2530  140.6220 F   0  0  0  0  0  0  0  0  0  0  0  0
  179.8430  179.3170  141.7070 C   0  0  0  0  0  3  0  0  0  0  0  0
  179.8020  180.1830  140.6110 C   0  0  0  0  0  0  0  0  0  0  0  0
  180.7120  178.2230  141.7000 C   0  0  0  0  0  3  0  0  0  0  0  0
  181.0420  173.4350  137.7660 C   0  0  0  0  0  2  0  0  0  0  0  0
  183.0720  174.7590  138.3280 C   0  0  0  0  0  2  0  0  0  0  0  0
  180.2050  174.6660  137.9680 C   0  0  0  0  0  3  0  0  0  0  0  0
  180.7440  175.8380  138.3330 C   0  0  0  0  0  3  0  0  0  0  0  0
  182.2340  176.0360  138.5210 C   0  0  2  0  0  3  0  0  0  0  0  0
  182.4530  173.8130  137.3010 C   0  0  1  0  0  3  0  0  0  0  0  0
  183.3810  172.6180  137.0410 C   0  0  0  0  0  0  0  0  0  0  0  0
  183.2740  171.9300  135.6970 C   0  0  0  0  0  2  0  0  0  0  0  0
  184.7880  172.6380  137.6060 C   0  0  0  0  0  1  0  0  0  0  0  0
  182.7500  171.2440  136.9560 C   0  0  0  0  0  2  0  0  0  0  0  0
  186.5840  173.5840  134.8480 O   0  0  0  0  0  1  0  0  0  0  0  0
  185.6780  174.6130  134.5940 C   0  0  0  0  0  2  0  0  0  0  0  0
  180.3110  177.6620  137.0190 C   0  0  0  0  0  2  0  0  0  0  0  0
  178.9390  177.5250  135.0240 N   0  0  0  0  0  1  0  0  0  0  0  0
  179.4470  178.4330  136.0350 C   0  0  0  0  0  2  0  0  0  0  0  0
  1  8  1  1  0  0  0
  1  2  1  0  0  0  0
  1 11  1  0  0  0  0
  2  4  1  0  0  0  0
  2 27  1  1  0  0  0
  3 34  1  6  0  0  0
  3  8  1  0  0  0  0
  4 17  1  1  0  0  0
  6  3  1  0  0  0  0
  6 14  1  0  0  0  0
  7  9  2  0  0  0  0
  7 11  1  0  0  0  0
 10  4  1  0  0  0  0
 10  5  1  0  0  0  0
 11 13  1  0  0  0  0
 12 15  1  6  0  0  0
 12 35  1  0  0  0  0
 12  2  1  0  0  0  0
 12  4  1  0  0  0  0
 13  5  1  0  0  0  0
 14  7  1  0  0  0  0
 16 22  1  0  0  0  0
 17 18  1  0  0  0  0
 17 16  2  0  0  0  0
 18 21  2  0  0  0  0
 21 19  1  0  0  0  0
 21 20  1  0  0  0  0
 22 20  2  0  0  0  0
 23 25  1  0  0  0  0
 25 26  2  0  0  0  0
 26 27  1  0  0  0  0
 27 24  1  6  0  0  0
 28 29  1  1  0  0  0
 28 23  1  0  0  0  0
 28 24  1  0  0  0  0
 29 31  1  0  0  0  0
 30 32  1  0  0  0  0
 30 29  1  0  0  0  0
 32 29  1  0  0  0  0
 34 33  1  0  0  0  0
 36 37  1  0  0  0  0
 37 35  1  0  0  0  0
M  END
>  <MODEL>
9

>  <REMARK>
 VINA RESULT:      -2.9      3.323      6.749
  Name = 
  6 active torsions:
  status: ('A' for Active; 'I' for Inactive)
    1  A    between atoms: C_3  and  C_30
    2  A    between atoms: C_4  and  C_28
    3  A    between atoms: C_5  and  C_23
    4  A    between atoms: C_6  and  C_7
    5  A    between atoms: C_14  and  C_31
    6  A    between atoms: C_14  and  C_37
                            x       y       z     vdW  Elec       q    Type
                         _______ _______ _______ _____ _____    ______ ____

>  <TORSDO>
F 6

$$$$
