=
 OpenBabel10262421493D

 30 31  0  0  1  0  0  0  0  0999 V2000
  189.9130  176.9150  145.7930 C   0  0  2  0  0  3  0  0  0  0  0  0
  192.1300  174.9280  145.8110 C   0  0  0  0  0  1  0  0  0  0  0  0
  192.0470  176.0570  146.7870 C   0  0  0  0  0  3  0  0  0  0  0  0
  191.0530  176.9530  146.7760 C   0  0  0  0  0  3  0  0  0  0  0  0
  190.2010  178.9220  144.3240 C   0  0  0  0  0  1  0  0  0  0  0  0
  190.3120  177.4020  144.3750 C   0  0  2  0  0  3  0  0  0  0  0  0
  188.7480  177.7910  142.3830 C   0  0  0  0  0  2  0  0  0  0  0  0
  188.9470  178.2580  139.6610 S   0  0  0  0  0  0  0  0  0  0  0  0
  189.1930  177.5690  141.1670 C   0  0  0  0  0  0  0  0  0  0  0  0
  189.4490  176.7620  143.2610 C   0  0  1  0  0  3  0  0  0  0  0  0
  190.0660  177.1620  138.9740 C   0  0  0  0  0  0  0  0  0  0  0  0
  190.6060  176.3040  139.8800 N   0  0  0  0  0  0  0  0  0  0  0  0
  190.3250  176.0210  142.2620 C   0  0  0  0  0  2  0  0  0  0  0  0
  190.0820  176.5760  141.0970 C   0  0  0  0  0  0  0  0  0  0  0  0
  190.4270  177.1440  137.5320 C   0  0  0  0  0  1  0  0  0  0  0  0
  188.7080  177.6580  146.4030 C   0  0  1  0  0  3  0  0  0  0  0  0
  186.5590  177.3850  145.2080 C   0  0  0  0  0  0  0  0  0  0  0  0
  185.7470  177.7190  144.2430 C   0  0  0  0  0  3  0  0  0  0  0  0
  187.3670  177.0190  146.1690 C   0  0  0  0  0  3  0  0  0  0  0  0
  185.2870  179.1280  144.0540 C   0  0  1  0  0  3  0  0  0  0  0  0
  185.2940  179.4630  142.5750 C   0  0  0  0  0  1  0  0  0  0  0  0
  183.9160  179.3490  144.6090 C   0  0  0  0  0  0  0  0  0  0  0  0
  183.6950  179.0730  145.8170 O   0  0  0  0  0  0  0  0  0  0  0  0
  182.9110  179.9020  143.8070 O   0  0  0  0  0  0  0  0  0  0  0  0
  182.3400  178.3250  142.2320 F   0  0  0  0  0  0  0  0  0  0  0  0
  181.8530  179.1300  143.2460 C   0  0  0  0  0  0  0  0  0  0  0  0
  181.3020  178.3340  144.2300 F   0  0  0  0  0  0  0  0  0  0  0  0
  180.8740  179.9680  142.7420 F   0  0  0  0  0  0  0  0  0  0  0  0
  188.9200  178.0930  147.7920 C   0  0  0  0  0  0  0  0  0  0  0  0
  189.0970  178.4490  148.9300 C   0  0  0  0  0  3  0  0  0  0  0  0
  1 16  1  0  0  0  0
  1  4  1  1  0  0  0
  2  3  1  0  0  0  0
  4  3  2  0  0  0  0
  6  5  1  1  0  0  0
  6  1  1  0  0  0  0
  7 10  1  0  0  0  0
  8  9  1  0  0  0  0
  9  7  1  0  0  0  0
 10  6  1  1  0  0  0
 11  8  1  0  0  0  0
 11 12  2  0  0  0  0
 12 14  1  0  0  0  0
 13 10  1  0  0  0  0
 14  9  2  0  0  0  0
 14 13  1  0  0  0  0
 15 11  1  0  0  0  0
 16 19  1  1  0  0  0
 16 29  1  0  0  0  0
 17 19  2  0  0  0  0
 18 17  2  0  0  0  0
 20 21  1  6  0  0  0
 20 18  1  0  0  0  0
 20 22  1  0  0  0  0
 22 23  2  0  0  0  0
 24 22  1  0  0  0  0
 25 26  1  0  0  0  0
 26 24  1  0  0  0  0
 26 27  1  0  0  0  0
 28 26  1  0  0  0  0
 29 30  3  0  0  0  0
M  END
>  <MODEL>
1

>  <REMARK>
 VINA RESULT:      -8.3      0.000      0.000
  Name = 
  10 active torsions:
  status: ('A' for Active; 'I' for Inactive)
    1  A    between atoms: C_2  and  C_22
    2  A    between atoms: C_4  and  C_27
    3  A    between atoms: C_5  and  C_22
    4  A    between atoms: C_8  and  O_12
    5  A    between atoms: C_8  and  C_27
    6  A    between atoms: C_9  and  O_12
    7  A    between atoms: C_11  and  C_29
    8  A    between atoms: C_19  and  C_22
    9  A    between atoms: C_19  and  C_28
   10  A    between atoms: C_19  and  C_29
                            x       y       z     vdW  Elec       q    Type
                         _______ _______ _______ _____ _____    ______ ____

>  <TORSDO>
F 10

$$$$
=
 OpenBabel10262421493D

 30 31  0  0  1  0  0  0  0  0999 V2000
  188.6680  177.4980  145.8000 C   0  0  2  0  0  3  0  0  0  0  0  0
  187.6100  178.7530  148.2840 C   0  0  0  0  0  1  0  0  0  0  0  0
  188.2640  177.4100  148.2710 C   0  0  0  0  0  3  0  0  0  0  0  0
  188.7350  176.8430  147.1550 C   0  0  0  0  0  3  0  0  0  0  0  0
  187.6760  176.2480  143.8710 C   0  0  0  0  0  1  0  0  0  0  0  0
  187.3580  177.1830  145.0330 C   0  0  2  0  0  3  0  0  0  0  0  0
  186.0640  178.2940  143.1200 C   0  0  0  0  0  2  0  0  0  0  0  0
  183.4470  178.4910  142.2370 S   0  0  0  0  0  0  0  0  0  0  0  0
  184.7750  178.5040  143.2570 C   0  0  0  0  0  0  0  0  0  0  0  0
  186.6490  178.4580  144.5180 C   0  0  1  0  0  3  0  0  0  0  0  0
  182.4230  178.8480  143.5600 C   0  0  0  0  0  0  0  0  0  0  0  0
  183.0890  178.9690  144.7400 N   0  0  0  0  0  0  0  0  0  0  0  0
  185.4160  178.7630  145.3550 C   0  0  0  0  0  2  0  0  0  0  0  0
  184.4070  178.7660  144.5140 C   0  0  0  0  0  0  0  0  0  0  0  0
  180.9500  179.0070  143.4460 C   0  0  0  0  0  1  0  0  0  0  0  0
  189.9560  177.1590  145.0220 C   0  0  1  0  0  3  0  0  0  0  0  0
  189.9050  178.3560  142.8580 C   0  0  0  0  0  0  0  0  0  0  0  0
  189.3900  178.5340  141.6720 C   0  0  0  0  0  3  0  0  0  0  0  0
  190.4200  178.2090  144.0500 C   0  0  0  0  0  3  0  0  0  0  0  0
  189.3030  177.4230  140.6770 C   0  0  1  0  0  3  0  0  0  0  0  0
  188.4410  177.8620  139.5100 C   0  0  0  0  0  1  0  0  0  0  0  0
  190.6520  177.0130  140.1750 C   0  0  0  0  0  0  0  0  0  0  0  0
  191.6600  177.6820  140.5210 O   0  0  0  0  0  0  0  0  0  0  0  0
  190.7900  175.8730  139.3750 O   0  0  0  0  0  0  0  0  0  0  0  0
  191.0120  174.7870  137.3600 F   0  0  0  0  0  0  0  0  0  0  0  0
  191.3970  175.8980  138.0870 C   0  0  0  0  0  0  0  0  0  0  0  0
  190.9940  177.0370  137.4180 F   0  0  0  0  0  0  0  0  0  0  0  0
  192.7750  175.9140  138.2150 F   0  0  0  0  0  0  0  0  0  0  0  0
  191.0330  176.6170  145.8650 C   0  0  0  0  0  0  0  0  0  0  0  0
  191.9150  176.1750  146.5570 C   0  0  0  0  0  3  0  0  0  0  0  0
  1  4  1  1  0  0  0
  3  2  1  0  0  0  0
  4  3  2  0  0  0  0
  6  5  1  6  0  0  0
  6  1  1  0  0  0  0
  7  9  1  0  0  0  0
  7 10  1  0  0  0  0
  8  9  1  0  0  0  0
  8 11  1  0  0  0  0
  9 14  2  0  0  0  0
 10  6  1  1  0  0  0
 10 13  1  0  0  0  0
 11 12  2  0  0  0  0
 14 12  1  0  0  0  0
 14 13  1  0  0  0  0
 15 11  1  0  0  0  0
 16 19  1  1  0  0  0
 16  1  1  0  0  0  0
 16 29  1  0  0  0  0
 17 19  2  0  0  0  0
 18 17  2  0  0  0  0
 20 21  1  6  0  0  0
 20 18  1  0  0  0  0
 22 23  2  0  0  0  0
 22 20  1  0  0  0  0
 24 22  1  0  0  0  0
 25 26  1  0  0  0  0
 26 28  1  0  0  0  0
 26 24  1  0  0  0  0
 27 26  1  0  0  0  0
 29 30  3  0  0  0  0
M  END
>  <MODEL>
2

>  <REMARK>
 VINA RESULT:      -8.1      4.910      7.119
  Name = 
  10 active torsions:
  status: ('A' for Active; 'I' for Inactive)
    1  A    between atoms: C_2  and  C_22
    2  A    between atoms: C_4  and  C_27
    3  A    between atoms: C_5  and  C_22
    4  A    between atoms: C_8  and  O_12
    5  A    between atoms: C_8  and  C_27
    6  A    between atoms: C_9  and  O_12
    7  A    between atoms: C_11  and  C_29
    8  A    between atoms: C_19  and  C_22
    9  A    between atoms: C_19  and  C_28
   10  A    between atoms: C_19  and  C_29
                            x       y       z     vdW  Elec       q    Type
                         _______ _______ _______ _____ _____    ______ ____

>  <TORSDO>
F 10

$$$$
=
 OpenBabel10262421493D

 30 31  0  0  1  0  0  0  0  0999 V2000
  188.6220  177.4990  146.0850 C   0  0  2  0  0  3  0  0  0  0  0  0
  187.5580  178.6840  148.6010 C   0  0  0  0  0  1  0  0  0  0  0  0
  188.0510  177.2760  148.5150 C   0  0  0  0  0  3  0  0  0  0  0  0
  188.5250  176.7420  147.3840 C   0  0  0  0  0  3  0  0  0  0  0  0
  188.0060  176.3780  143.9320 C   0  0  0  0  0  1  0  0  0  0  0  0
  187.4600  177.1860  145.1060 C   0  0  2  0  0  3  0  0  0  0  0  0
  186.1930  178.3130  143.1850 C   0  0  0  0  0  2  0  0  0  0  0  0
  183.5920  178.5010  142.2560 S   0  0  0  0  0  0  0  0  0  0  0  0
  184.9000  178.5110  143.3010 C   0  0  0  0  0  0  0  0  0  0  0  0
  186.7500  178.4620  144.5960 C   0  0  1  0  0  3  0  0  0  0  0  0
  182.5400  178.8300  143.5640 C   0  0  0  0  0  0  0  0  0  0  0  0
  183.1820  178.9390  144.7580 N   0  0  0  0  0  0  0  0  0  0  0  0
  185.4990  178.7440  145.4140 C   0  0  0  0  0  2  0  0  0  0  0  0
  184.5060  178.7510  144.5540 C   0  0  0  0  0  0  0  0  0  0  0  0
  181.0680  178.9780  143.4250 C   0  0  0  0  0  1  0  0  0  0  0  0
  190.0280  177.2860  145.4910 C   0  0  1  0  0  3  0  0  0  0  0  0
  190.6140  178.4930  143.4120 C   0  0  0  0  0  0  0  0  0  0  0  0
  190.6280  178.5670  142.1090 C   0  0  0  0  0  3  0  0  0  0  0  0
  190.5880  178.4490  144.7180 C   0  0  0  0  0  3  0  0  0  0  0  0
  191.2520  177.5020  141.2680 C   0  0  1  0  0  3  0  0  0  0  0  0
  191.8430  176.4340  142.1680 C   0  0  0  0  0  1  0  0  0  0  0  0
  190.2650  176.8760  140.3340 C   0  0  0  0  0  0  0  0  0  0  0  0
  190.6700  176.0320  139.4930 O   0  0  0  0  0  0  0  0  0  0  0  0
  188.9040  177.1890  140.4330 O   0  0  0  0  0  0  0  0  0  0  0  0
  189.0750  179.0240  139.0560 F   0  0  0  0  0  0  0  0  0  0  0  0
  188.2290  178.0220  139.4950 C   0  0  0  0  0  0  0  0  0  0  0  0
  187.8340  177.2590  138.4140 F   0  0  0  0  0  0  0  0  0  0  0  0
  187.1100  178.5850  140.0840 F   0  0  0  0  0  0  0  0  0  0  0  0
  190.9860  176.6870  146.4330 C   0  0  0  0  0  0  0  0  0  0  0  0
  191.7720  176.1950  147.2020 C   0  0  0  0  0  3  0  0  0  0  0  0
  1  4  1  1  0  0  0
  3  2  1  0  0  0  0
  4  3  2  0  0  0  0
  6  5  1  6  0  0  0
  6  1  1  0  0  0  0
  7  9  1  0  0  0  0
  7 10  1  0  0  0  0
  8  9  1  0  0  0  0
  8 11  1  0  0  0  0
  9 14  2  0  0  0  0
 10  6  1  1  0  0  0
 10 13  1  0  0  0  0
 11 12  2  0  0  0  0
 14 12  1  0  0  0  0
 14 13  1  0  0  0  0
 15 11  1  0  0  0  0
 16 19  1  1  0  0  0
 16  1  1  0  0  0  0
 16 29  1  0  0  0  0
 17 19  2  0  0  0  0
 18 17  2  0  0  0  0
 20 18  1  0  0  0  0
 20 21  1  1  0  0  0
 22 24  1  0  0  0  0
 22 20  1  0  0  0  0
 23 22  2  0  0  0  0
 25 26  1  0  0  0  0
 26 28  1  0  0  0  0
 26 24  1  0  0  0  0
 27 26  1  0  0  0  0
 29 30  3  0  0  0  0
M  END
>  <MODEL>
3

>  <REMARK>
 VINA RESULT:      -8.1      3.800      6.311
  Name = 
  10 active torsions:
  status: ('A' for Active; 'I' for Inactive)
    1  A    between atoms: C_2  and  C_22
    2  A    between atoms: C_4  and  C_27
    3  A    between atoms: C_5  and  C_22
    4  A    between atoms: C_8  and  O_12
    5  A    between atoms: C_8  and  C_27
    6  A    between atoms: C_9  and  O_12
    7  A    between atoms: C_11  and  C_29
    8  A    between atoms: C_19  and  C_22
    9  A    between atoms: C_19  and  C_28
   10  A    between atoms: C_19  and  C_29
                            x       y       z     vdW  Elec       q    Type
                         _______ _______ _______ _____ _____    ______ ____

>  <TORSDO>
F 10

$$$$
=
 OpenBabel10262421493D

 30 31  0  0  1  0  0  0  0  0999 V2000
  188.8850  177.4890  145.0080 C   0  0  2  0  0  3  0  0  0  0  0  0
  191.6720  176.4430  144.9930 C   0  0  0  0  0  1  0  0  0  0  0  0
  191.3520  177.8950  144.8490 C   0  0  0  0  0  3  0  0  0  0  0  0
  190.1000  178.3660  144.8510 C   0  0  0  0  0  3  0  0  0  0  0  0
  188.2330  175.8300  143.2500 C   0  0  0  0  0  1  0  0  0  0  0  0
  188.1020  177.2860  143.6840 C   0  0  2  0  0  3  0  0  0  0  0  0
  189.4450  177.5240  141.5150 C   0  0  0  0  0  2  0  0  0  0  0  0
  189.0520  177.1870  138.7950 S   0  0  0  0  0  0  0  0  0  0  0  0
  188.8030  177.6710  140.3790 C   0  0  0  0  0  0  0  0  0  0  0  0
  188.5840  178.2290  142.5570 C   0  0  1  0  0  3  0  0  0  0  0  0
  187.5780  177.9220  138.3360 C   0  0  0  0  0  0  0  0  0  0  0  0
  186.9240  178.5140  139.3710 N   0  0  0  0  0  0  0  0  0  0  0  0
  187.4070  178.7220  141.7290 C   0  0  0  0  0  2  0  0  0  0  0  0
  187.6560  178.3430  140.4960 C   0  0  0  0  0  0  0  0  0  0  0  0
  187.0480  177.9170  136.9460 C   0  0  0  0  0  1  0  0  0  0  0  0
  188.0320  178.0290  146.1740 C   0  0  1  0  0  3  0  0  0  0  0  0
  185.6620  177.5810  145.6210 C   0  0  0  0  0  0  0  0  0  0  0  0
  184.6160  177.7810  144.8670 C   0  0  0  0  0  3  0  0  0  0  0  0
  186.7050  177.3490  146.3740 C   0  0  0  0  0  3  0  0  0  0  0  0
  184.0610  179.1500  144.6390 C   0  0  1  0  0  3  0  0  0  0  0  0
  185.1620  180.0580  144.1280 C   0  0  0  0  0  1  0  0  0  0  0  0
  182.9290  179.1390  143.6610 C   0  0  0  0  0  0  0  0  0  0  0  0
  181.7700  178.8670  144.0720 O   0  0  0  0  0  0  0  0  0  0  0  0
  183.1510  179.4760  142.3210 O   0  0  0  0  0  0  0  0  0  0  0  0
  184.2910  177.5760  141.7030 F   0  0  0  0  0  0  0  0  0  0  0  0
  183.3490  178.5050  141.2990 C   0  0  0  0  0  0  0  0  0  0  0  0
  182.1540  177.8570  141.0520 F   0  0  0  0  0  0  0  0  0  0  0  0
  183.7760  179.1230  140.1370 F   0  0  0  0  0  0  0  0  0  0  0  0
  188.7880  178.2270  147.4200 C   0  0  0  0  0  0  0  0  0  0  0  0
  189.4060  178.3870  148.4420 C   0  0  0  0  0  3  0  0  0  0  0  0
  1  4  1  6  0  0  0
  1 16  1  0  0  0  0
  3  4  2  0  0  0  0
  3  2  1  0  0  0  0
  6  5  1  6  0  0  0
  6  1  1  0  0  0  0
  7 10  1  0  0  0  0
  8  9  1  0  0  0  0
  9 14  2  0  0  0  0
  9  7  1  0  0  0  0
 10  6  1  1  0  0  0
 11  8  1  0  0  0  0
 11 12  2  0  0  0  0
 12 14  1  0  0  0  0
 13 10  1  0  0  0  0
 14 13  1  0  0  0  0
 15 11  1  0  0  0  0
 16 19  1  1  0  0  0
 16 29  1  0  0  0  0
 17 19  2  0  0  0  0
 18 17  2  0  0  0  0
 20 21  1  6  0  0  0
 20 18  1  0  0  0  0
 22 23  2  0  0  0  0
 22 20  1  0  0  0  0
 24 22  1  0  0  0  0
 26 25  1  0  0  0  0
 26 24  1  0  0  0  0
 27 26  1  0  0  0  0
 28 26  1  0  0  0  0
 29 30  3  0  0  0  0
M  END
>  <MODEL>
4

>  <REMARK>
 VINA RESULT:      -7.8      1.791      2.372
  Name = 
  10 active torsions:
  status: ('A' for Active; 'I' for Inactive)
    1  A    between atoms: C_2  and  C_22
    2  A    between atoms: C_4  and  C_27
    3  A    between atoms: C_5  and  C_22
    4  A    between atoms: C_8  and  O_12
    5  A    between atoms: C_8  and  C_27
    6  A    between atoms: C_9  and  O_12
    7  A    between atoms: C_11  and  C_29
    8  A    between atoms: C_19  and  C_22
    9  A    between atoms: C_19  and  C_28
   10  A    between atoms: C_19  and  C_29
                            x       y       z     vdW  Elec       q    Type
                         _______ _______ _______ _____ _____    ______ ____

>  <TORSDO>
F 10

$$$$
=
 OpenBabel10262421493D

 30 31  0  0  1  0  0  0  0  0999 V2000
  189.2250  177.1480  144.1870 C   0  0  2  0  0  3  0  0  0  0  0  0
  191.4740  176.7300  146.0940 C   0  0  0  0  0  1  0  0  0  0  0  0
  191.2170  178.0380  145.4190 C   0  0  0  0  0  3  0  0  0  0  0  0
  190.2100  178.2250  144.5590 C   0  0  0  0  0  3  0  0  0  0  0  0
  190.4860  175.4410  142.8580 C   0  0  0  0  0  1  0  0  0  0  0  0
  189.4600  176.5670  142.7690 C   0  0  2  0  0  3  0  0  0  0  0  0
  190.6500  177.0500  140.5510 C   0  0  0  0  0  2  0  0  0  0  0  0
  190.0280  177.1630  137.8550 S   0  0  0  0  0  0  0  0  0  0  0  0
  189.9370  177.4120  139.5080 C   0  0  0  0  0  0  0  0  0  0  0  0
  189.9260  177.6400  141.7560 C   0  0  1  0  0  3  0  0  0  0  0  0
  188.5840  178.0530  137.6390 C   0  0  0  0  0  0  0  0  0  0  0  0
  188.0570  178.5180  138.8040 N   0  0  0  0  0  0  0  0  0  0  0  0
  188.7310  178.3290  141.1150 C   0  0  0  0  0  2  0  0  0  0  0  0
  188.8570  178.1290  139.8230 C   0  0  0  0  0  0  0  0  0  0  0  0
  187.9520  178.2950  136.3150 C   0  0  0  0  0  1  0  0  0  0  0  0
  187.7970  177.6770  144.4280 C   0  0  1  0  0  3  0  0  0  0  0  0
  185.5970  177.6430  143.2980 C   0  0  0  0  0  0  0  0  0  0  0  0
  184.4770  178.2320  142.9760 C   0  0  0  0  0  3  0  0  0  0  0  0
  186.7210  177.0430  143.5900 C   0  0  0  0  0  3  0  0  0  0  0  0
  183.5600  178.7970  144.0120 C   0  0  1  0  0  3  0  0  0  0  0  0
  184.1090  180.1250  144.4950 C   0  0  0  0  0  1  0  0  0  0  0  0
  182.1730  178.9920  143.4850 C   0  0  0  0  0  0  0  0  0  0  0  0
  181.1960  178.6390  144.1950 O   0  0  0  0  0  0  0  0  0  0  0  0
  181.9710  179.6040  142.2430 O   0  0  0  0  0  0  0  0  0  0  0  0
  181.9790  177.7110  140.9360 F   0  0  0  0  0  0  0  0  0  0  0  0
  181.3700  178.9360  141.1370 C   0  0  0  0  0  0  0  0  0  0  0  0
  180.0300  178.7360  141.4020 F   0  0  0  0  0  0  0  0  0  0  0  0
  181.4940  179.7090  139.9960 F   0  0  0  0  0  0  0  0  0  0  0  0
  187.4410  177.8000  145.8500 C   0  0  0  0  0  0  0  0  0  0  0  0
  187.1480  177.9040  147.0150 C   0  0  0  0  0  3  0  0  0  0  0  0
  1 16  1  0  0  0  0
  1  4  1  6  0  0  0
  3  2  1  0  0  0  0
  4  3  2  0  0  0  0
  6  5  1  1  0  0  0
  6  1  1  0  0  0  0
  7 10  1  0  0  0  0
  8  9  1  0  0  0  0
  9 14  2  0  0  0  0
  9  7  1  0  0  0  0
 10  6  1  1  0  0  0
 11  8  1  0  0  0  0
 11 12  2  0  0  0  0
 12 14  1  0  0  0  0
 13 10  1  0  0  0  0
 14 13  1  0  0  0  0
 15 11  1  0  0  0  0
 16 19  1  6  0  0  0
 16 29  1  0  0  0  0
 17 19  2  0  0  0  0
 18 17  2  0  0  0  0
 18 20  1  0  0  0  0
 20 21  1  6  0  0  0
 22 20  1  0  0  0  0
 22 23  2  0  0  0  0
 24 22  1  0  0  0  0
 25 26  1  0  0  0  0
 26 27  1  0  0  0  0
 26 24  1  0  0  0  0
 28 26  1  0  0  0  0
 29 30  3  0  0  0  0
M  END
>  <MODEL>
5

>  <REMARK>
 VINA RESULT:      -7.6      1.707      2.474
  Name = 
  10 active torsions:
  status: ('A' for Active; 'I' for Inactive)
    1  A    between atoms: C_2  and  C_22
    2  A    between atoms: C_4  and  C_27
    3  A    between atoms: C_5  and  C_22
    4  A    between atoms: C_8  and  O_12
    5  A    between atoms: C_8  and  C_27
    6  A    between atoms: C_9  and  O_12
    7  A    between atoms: C_11  and  C_29
    8  A    between atoms: C_19  and  C_22
    9  A    between atoms: C_19  and  C_28
   10  A    between atoms: C_19  and  C_29
                            x       y       z     vdW  Elec       q    Type
                         _______ _______ _______ _____ _____    ______ ____

>  <TORSDO>
F 10

$$$$
=
 OpenBabel10262421493D

 30 31  0  0  1  0  0  0  0  0999 V2000
  189.8100  177.4990  141.8520 C   0  0  2  0  0  3  0  0  0  0  0  0
  191.5780  177.5990  144.2450 C   0  0  0  0  0  1  0  0  0  0  0  0
  190.9250  178.8130  143.6710 C   0  0  0  0  0  3  0  0  0  0  0  0
  190.1340  178.7700  142.5930 C   0  0  0  0  0  3  0  0  0  0  0  0
  188.8370  177.6280  139.5490 C   0  0  0  0  0  1  0  0  0  0  0  0
  190.1410  177.5720  140.3380 C   0  0  2  0  0  3  0  0  0  0  0  0
  190.5830  175.8420  138.5010 C   0  0  0  0  0  2  0  0  0  0  0  0
  191.9890  175.6690  136.1220 S   0  0  0  0  0  0  0  0  0  0  0  0
  191.6350  175.9850  137.7270 C   0  0  0  0  0  0  0  0  0  0  0  0
  191.0080  176.3830  139.8610 C   0  0  1  0  0  3  0  0  0  0  0  0
  193.5600  176.3070  136.3390 C   0  0  0  0  0  0  0  0  0  0  0  0
  193.7930  176.7470  137.6050 N   0  0  0  0  0  0  0  0  0  0  0  0
  192.4380  176.8310  139.6030 C   0  0  0  0  0  2  0  0  0  0  0  0
  192.6790  176.5430  138.3440 C   0  0  0  0  0  0  0  0  0  0  0  0
  194.5780  176.3860  135.2590 C   0  0  0  0  0  1  0  0  0  0  0  0
  188.3540  177.1010  142.1650 C   0  0  1  0  0  3  0  0  0  0  0  0
  187.1850  176.8110  144.3260 C   0  0  0  0  0  0  0  0  0  0  0  0
  186.2320  177.1420  145.1540 C   0  0  0  0  0  3  0  0  0  0  0  0
  188.1340  176.4490  143.5030 C   0  0  0  0  0  3  0  0  0  0  0  0
  186.0570  178.5470  145.6310 C   0  0  1  0  0  3  0  0  0  0  0  0
  184.6080  178.9590  145.4550 C   0  0  0  0  0  1  0  0  0  0  0  0
  186.4500  178.7050  147.0660 C   0  0  0  0  0  0  0  0  0  0  0  0
  186.0580  179.7200  147.6980 O   0  0  0  0  0  0  0  0  0  0  0  0
  187.1990  177.7100  147.7050 O   0  0  0  0  0  0  0  0  0  0  0  0
  189.1210  178.3400  148.8000 F   0  0  0  0  0  0  0  0  0  0  0  0
  188.6230  177.6820  147.6910 C   0  0  0  0  0  0  0  0  0  0  0  0
  189.0510  176.3690  147.7150 F   0  0  0  0  0  0  0  0  0  0  0  0
  189.0960  178.2890  146.5400 F   0  0  0  0  0  0  0  0  0  0  0  0
  187.3710  178.1500  141.8510 C   0  0  0  0  0  0  0  0  0  0  0  0
  186.5640  179.0070  141.5940 C   0  0  0  0  0  3  0  0  0  0  0  0
  1 16  1  0  0  0  0
  1  4  1  6  0  0  0
  3  2  1  0  0  0  0
  4  3  2  0  0  0  0
  6  5  1  6  0  0  0
  6  1  1  0  0  0  0
  7 10  1  0  0  0  0
  8 11  1  0  0  0  0
  8  9  1  0  0  0  0
  9 14  2  0  0  0  0
  9  7  1  0  0  0  0
 10  6  1  6  0  0  0
 11 12  2  0  0  0  0
 12 14  1  0  0  0  0
 13 10  1  0  0  0  0
 14 13  1  0  0  0  0
 15 11  1  0  0  0  0
 16 29  1  1  0  0  0
 16 19  1  0  0  0  0
 17 18  2  0  0  0  0
 18 20  1  0  0  0  0
 19 17  2  0  0  0  0
 20 21  1  1  0  0  0
 20 22  1  0  0  0  0
 22 23  2  0  0  0  0
 22 24  1  0  0  0  0
 26 24  1  0  0  0  0
 26 27  1  0  0  0  0
 26 25  1  0  0  0  0
 28 26  1  0  0  0  0
 30 29  3  0  0  0  0
M  END
>  <MODEL>
6

>  <REMARK>
 VINA RESULT:      -7.4      3.537      5.155
  Name = 
  10 active torsions:
  status: ('A' for Active; 'I' for Inactive)
    1  A    between atoms: C_2  and  C_22
    2  A    between atoms: C_4  and  C_27
    3  A    between atoms: C_5  and  C_22
    4  A    between atoms: C_8  and  O_12
    5  A    between atoms: C_8  and  C_27
    6  A    between atoms: C_9  and  O_12
    7  A    between atoms: C_11  and  C_29
    8  A    between atoms: C_19  and  C_22
    9  A    between atoms: C_19  and  C_28
   10  A    between atoms: C_19  and  C_29
                            x       y       z     vdW  Elec       q    Type
                         _______ _______ _______ _____ _____    ______ ____

>  <TORSDO>
F 10

$$$$
=
 OpenBabel10262421493D

 30 31  0  0  1  0  0  0  0  0999 V2000
  188.7100  177.0990  144.2370 C   0  0  2  0  0  3  0  0  0  0  0  0
  189.5840  176.7400  147.0610 C   0  0  0  0  0  1  0  0  0  0  0  0
  190.1330  177.8090  146.1730 C   0  0  0  0  0  3  0  0  0  0  0  0
  189.7450  177.9690  144.9030 C   0  0  0  0  0  3  0  0  0  0  0  0
  190.2470  175.4060  143.2180 C   0  0  0  0  0  1  0  0  0  0  0  0
  189.2030  176.4730  142.9060 C   0  0  2  0  0  3  0  0  0  0  0  0
  191.3080  177.5780  141.9480 C   0  0  0  0  0  2  0  0  0  0  0  0
  193.1380  177.1250  139.9210 S   0  0  0  0  0  0  0  0  0  0  0  0
  191.6770  177.2940  140.7200 C   0  0  0  0  0  0  0  0  0  0  0  0
  189.7850  177.5260  141.9320 C   0  0  1  0  0  3  0  0  0  0  0  0
  192.3070  176.7250  138.4800 C   0  0  0  0  0  0  0  0  0  0  0  0
  190.9550  176.7230  138.6210 N   0  0  0  0  0  0  0  0  0  0  0  0
  189.4850  177.1460  140.4900 C   0  0  0  0  0  2  0  0  0  0  0  0
  190.6540  177.0490  139.8980 C   0  0  0  0  0  0  0  0  0  0  0  0
  192.9850  176.4040  137.1960 C   0  0  0  0  0  1  0  0  0  0  0  0
  187.3970  177.8970  144.1150 C   0  0  1  0  0  3  0  0  0  0  0  0
  185.4390  178.1990  142.6330 C   0  0  0  0  0  0  0  0  0  0  0  0
  184.2830  178.7500  142.3780 C   0  0  0  0  0  3  0  0  0  0  0  0
  186.6060  177.6550  142.8590 C   0  0  0  0  0  3  0  0  0  0  0  0
  183.1290  178.6270  143.3200 C   0  0  1  0  0  3  0  0  0  0  0  0
  183.3590  179.5320  144.5140 C   0  0  0  0  0  1  0  0  0  0  0  0
  181.8320  178.9840  142.6650 C   0  0  0  0  0  0  0  0  0  0  0  0
  181.2990  180.0930  142.9320 O   0  0  0  0  0  0  0  0  0  0  0  0
  181.2520  178.1180  141.7310 O   0  0  0  0  0  0  0  0  0  0  0  0
  180.4800  177.8310  139.5830 F   0  0  0  0  0  0  0  0  0  0  0  0
  181.5940  178.1250  140.3480 C   0  0  0  0  0  0  0  0  0  0  0  0
  182.0600  179.3780  140.0030 F   0  0  0  0  0  0  0  0  0  0  0  0
  182.5850  177.1910  140.1030 F   0  0  0  0  0  0  0  0  0  0  0  0
  186.5800  177.8860  145.3380 C   0  0  0  0  0  0  0  0  0  0  0  0
  185.9130  177.8750  146.3420 C   0  0  0  0  0  3  0  0  0  0  0  0
  1  4  1  6  0  0  0
  3  2  1  0  0  0  0
  4  3  2  0  0  0  0
  6  5  1  1  0  0  0
  6  1  1  0  0  0  0
  8  9  1  0  0  0  0
  9  7  1  0  0  0  0
 10  7  1  0  0  0  0
 10  6  1  1  0  0  0
 11 12  2  0  0  0  0
 11  8  1  0  0  0  0
 12 14  1  0  0  0  0
 13 10  1  0  0  0  0
 14 13  1  0  0  0  0
 14  9  2  0  0  0  0
 15 11  1  0  0  0  0
 16 19  1  6  0  0  0
 16  1  1  0  0  0  0
 16 29  1  0  0  0  0
 17 19  2  0  0  0  0
 18 17  2  0  0  0  0
 18 20  1  0  0  0  0
 20 21  1  1  0  0  0
 22 23  2  0  0  0  0
 22 20  1  0  0  0  0
 24 22  1  0  0  0  0
 25 26  1  0  0  0  0
 26 24  1  0  0  0  0
 27 26  1  0  0  0  0
 28 26  1  0  0  0  0
 29 30  3  0  0  0  0
M  END
>  <MODEL>
7

>  <REMARK>
 VINA RESULT:      -7.4      2.064      2.997
  Name = 
  10 active torsions:
  status: ('A' for Active; 'I' for Inactive)
    1  A    between atoms: C_2  and  C_22
    2  A    between atoms: C_4  and  C_27
    3  A    between atoms: C_5  and  C_22
    4  A    between atoms: C_8  and  O_12
    5  A    between atoms: C_8  and  C_27
    6  A    between atoms: C_9  and  O_12
    7  A    between atoms: C_11  and  C_29
    8  A    between atoms: C_19  and  C_22
    9  A    between atoms: C_19  and  C_28
   10  A    between atoms: C_19  and  C_29
                            x       y       z     vdW  Elec       q    Type
                         _______ _______ _______ _____ _____    ______ ____

>  <TORSDO>
F 10

$$$$
=
 OpenBabel10262421493D

 30 31  0  0  1  0  0  0  0  0999 V2000
  188.1290  178.1860  145.8490 C   0  0  2  0  0  3  0  0  0  0  0  0
  188.6780  178.1840  148.7760 C   0  0  0  0  0  1  0  0  0  0  0  0
  187.8650  177.1250  148.1040 C   0  0  0  0  0  3  0  0  0  0  0  0
  187.6140  177.1280  146.7900 C   0  0  0  0  0  3  0  0  0  0  0  0
  185.8310  179.1780  145.9040 C   0  0  0  0  0  1  0  0  0  0  0  0
  187.0120  178.8430  144.9980 C   0  0  2  0  0  3  0  0  0  0  0  0
  185.0350  177.8770  143.6840 C   0  0  0  0  0  2  0  0  0  0  0  0
  183.3940  178.6170  141.5800 S   0  0  0  0  0  0  0  0  0  0  0  0
  184.7770  178.3420  142.4830 C   0  0  0  0  0  0  0  0  0  0  0  0
  186.5510  177.9460  143.8250 C   0  0  1  0  0  3  0  0  0  0  0  0
  184.3480  179.2390  140.3040 C   0  0  0  0  0  0  0  0  0  0  0  0
  185.6800  179.2330  140.5740 N   0  0  0  0  0  0  0  0  0  0  0  0
  186.9760  178.5440  142.4920 C   0  0  0  0  0  2  0  0  0  0  0  0
  185.8670  178.7190  141.8110 C   0  0  0  0  0  0  0  0  0  0  0  0
  183.7870  179.7450  139.0230 C   0  0  0  0  0  1  0  0  0  0  0  0
  189.2900  177.5940  145.0250 C   0  0  1  0  0  3  0  0  0  0  0  0
  189.5570  176.2750  142.9490 C   0  0  0  0  0  0  0  0  0  0  0  0
  190.2020  176.0170  141.8440 C   0  0  0  0  0  3  0  0  0  0  0  0
  188.9100  176.5030  144.0620 C   0  0  0  0  0  3  0  0  0  0  0  0
  190.4410  177.0680  140.8090 C   0  0  1  0  0  3  0  0  0  0  0  0
  191.8920  177.5030  140.8620 C   0  0  0  0  0  1  0  0  0  0  0  0
  190.1160  176.5810  139.4320 C   0  0  0  0  0  0  0  0  0  0  0  0
  190.9230  175.8080  138.8520 O   0  0  0  0  0  0  0  0  0  0  0  0
  188.9090  176.9410  138.8230 O   0  0  0  0  0  0  0  0  0  0  0  0
  189.4420  178.3170  137.0580 F   0  0  0  0  0  0  0  0  0  0  0  0
  188.6940  178.2130  138.2170 C   0  0  0  0  0  0  0  0  0  0  0  0
  187.3560  178.3460  137.9040 F   0  0  0  0  0  0  0  0  0  0  0  0
  189.0550  179.2200  139.0940 F   0  0  0  0  0  0  0  0  0  0  0  0
  190.1840  178.6080  144.4450 C   0  0  0  0  0  0  0  0  0  0  0  0
  190.9140  179.4400  143.9690 C   0  0  0  0  0  3  0  0  0  0  0  0
  1  4  1  6  0  0  0
  3  2  1  0  0  0  0
  4  3  2  0  0  0  0
  6  1  1  0  0  0  0
  6  5  1  1  0  0  0
  7 10  1  0  0  0  0
  8  9  1  0  0  0  0
  9  7  1  0  0  0  0
 10  6  1  1  0  0  0
 11 12  2  0  0  0  0
 11  8  1  0  0  0  0
 12 14  1  0  0  0  0
 13 10  1  0  0  0  0
 14  9  2  0  0  0  0
 14 13  1  0  0  0  0
 15 11  1  0  0  0  0
 16 19  1  6  0  0  0
 16  1  1  0  0  0  0
 17 19  2  0  0  0  0
 18 17  2  0  0  0  0
 20 21  1  6  0  0  0
 20 18  1  0  0  0  0
 22 20  1  0  0  0  0
 23 22  2  0  0  0  0
 24 22  1  0  0  0  0
 25 26  1  0  0  0  0
 26 24  1  0  0  0  0
 26 28  1  0  0  0  0
 27 26  1  0  0  0  0
 29 16  1  0  0  0  0
 30 29  3  0  0  0  0
M  END
>  <MODEL>
8

>  <REMARK>
 VINA RESULT:      -7.3      3.996      6.054
  Name = 
  10 active torsions:
  status: ('A' for Active; 'I' for Inactive)
    1  A    between atoms: C_2  and  C_22
    2  A    between atoms: C_4  and  C_27
    3  A    between atoms: C_5  and  C_22
    4  A    between atoms: C_8  and  O_12
    5  A    between atoms: C_8  and  C_27
    6  A    between atoms: C_9  and  O_12
    7  A    between atoms: C_11  and  C_29
    8  A    between atoms: C_19  and  C_22
    9  A    between atoms: C_19  and  C_28
   10  A    between atoms: C_19  and  C_29
                            x       y       z     vdW  Elec       q    Type
                         _______ _______ _______ _____ _____    ______ ____

>  <TORSDO>
F 10

$$$$
=
 OpenBabel10262421493D

 30 31  0  0  1  0  0  0  0  0999 V2000
  185.8850  178.6260  144.9050 C   0  0  2  0  0  3  0  0  0  0  0  0
  186.0950  179.5760  147.7190 C   0  0  0  0  0  1  0  0  0  0  0  0
  185.0170  178.6520  147.2560 C   0  0  0  0  0  3  0  0  0  0  0  0
  184.9190  178.2280  145.9910 C   0  0  0  0  0  3  0  0  0  0  0  0
  184.5770  180.5460  143.9720 C   0  0  0  0  0  1  0  0  0  0  0  0
  185.1860  179.1870  143.6400 C   0  0  2  0  0  3  0  0  0  0  0  0
  182.6840  178.7530  143.2970 C   0  0  0  0  0  2  0  0  0  0  0  0
  180.7120  179.3780  141.4570 S   0  0  0  0  0  0  0  0  0  0  0  0
  182.1740  178.8670  142.0920 C   0  0  0  0  0  0  0  0  0  0  0  0
  184.1010  178.2330  143.0860 C   0  0  1  0  0  3  0  0  0  0  0  0
  181.2990  179.1040  139.8740 C   0  0  0  0  0  0  0  0  0  0  0  0
  182.5770  178.6380  139.8470 N   0  0  0  0  0  0  0  0  0  0  0  0
  184.1930  178.1370  141.5710 C   0  0  0  0  0  2  0  0  0  0  0  0
  183.0210  178.5230  141.1190 C   0  0  0  0  0  0  0  0  0  0  0  0
  180.5050  179.3530  138.6420 C   0  0  0  0  0  1  0  0  0  0  0  0
  186.8380  177.4450  144.6330 C   0  0  1  0  0  3  0  0  0  0  0  0
  188.7910  177.1390  143.1460 C   0  0  0  0  0  0  0  0  0  0  0  0
  190.0360  176.7920  142.9650 C   0  0  0  0  0  3  0  0  0  0  0  0
  187.5360  177.4700  143.3010 C   0  0  0  0  0  3  0  0  0  0  0  0
  191.1480  177.4220  143.7390 C   0  0  1  0  0  3  0  0  0  0  0  0
  190.6480  178.6980  144.3870 C   0  0  0  0  0  1  0  0  0  0  0  0
  191.6870  176.5060  144.7920 C   0  0  0  0  0  0  0  0  0  0  0  0
  191.8940  175.2980  144.5020 O   0  0  0  0  0  0  0  0  0  0  0  0
  192.0020  177.0000  146.0630 O   0  0  0  0  0  0  0  0  0  0  0  0
  192.2300  176.9580  148.3520 F   0  0  0  0  0  0  0  0  0  0  0  0
  192.0600  176.1760  147.2240 C   0  0  0  0  0  0  0  0  0  0  0  0
  190.8790  175.4700  147.3380 F   0  0  0  0  0  0  0  0  0  0  0  0
  193.1110  175.2830  147.1160 F   0  0  0  0  0  0  0  0  0  0  0  0
  187.7300  177.1300  145.7600 C   0  0  0  0  0  0  0  0  0  0  0  0
  188.4620  176.8750  146.6830 C   0  0  0  0  0  3  0  0  0  0  0  0
  1  4  1  1  0  0  0
  3  2  1  0  0  0  0
  4  3  2  0  0  0  0
  6  5  1  1  0  0  0
  6  1  1  0  0  0  0
  8  9  1  0  0  0  0
  9  7  1  0  0  0  0
 10  7  1  0  0  0  0
 10  6  1  6  0  0  0
 11  8  1  0  0  0  0
 12 11  2  0  0  0  0
 12 14  1  0  0  0  0
 13 10  1  0  0  0  0
 14 13  1  0  0  0  0
 14  9  2  0  0  0  0
 15 11  1  0  0  0  0
 16 19  1  6  0  0  0
 16  1  1  0  0  0  0
 16 29  1  0  0  0  0
 17 19  2  0  0  0  0
 18 17  2  0  0  0  0
 18 20  1  0  0  0  0
 20 21  1  1  0  0  0
 20 22  1  0  0  0  0
 22 24  1  0  0  0  0
 23 22  2  0  0  0  0
 24 26  1  0  0  0  0
 26 27  1  0  0  0  0
 26 25  1  0  0  0  0
 28 26  1  0  0  0  0
 29 30  3  0  0  0  0
M  END
>  <MODEL>
9

>  <REMARK>
 VINA RESULT:      -7.2      5.093      7.597
  Name = 
  10 active torsions:
  status: ('A' for Active; 'I' for Inactive)
    1  A    between atoms: C_2  and  C_22
    2  A    between atoms: C_4  and  C_27
    3  A    between atoms: C_5  and  C_22
    4  A    between atoms: C_8  and  O_12
    5  A    between atoms: C_8  and  C_27
    6  A    between atoms: C_9  and  O_12
    7  A    between atoms: C_11  and  C_29
    8  A    between atoms: C_19  and  C_22
    9  A    between atoms: C_19  and  C_28
   10  A    between atoms: C_19  and  C_29
                            x       y       z     vdW  Elec       q    Type
                         _______ _______ _______ _____ _____    ______ ____

>  <TORSDO>
F 10

$$$$
