=
 OpenBabel10262421423D

 30 34  0  0  1  0  0  0  0  0999 V2000
  185.9320  178.5570  141.5680 C   0  0  0  0  0  0  0  0  0  0  0  0
  187.1150  178.2300  142.2820 C   0  0  0  0  0  0  0  0  0  0  0  0
  185.9460  178.6330  140.1650 C   0  0  0  0  0  3  0  0  0  0  0  0
  189.5410  177.8950  139.0570 S   0  0  0  0  0  0  0  0  0  0  0  0
  189.8850  178.5740  143.5540 C   0  0  1  0  0  3  0  0  0  0  0  0
  188.2920  178.0810  140.1750 C   0  0  0  0  0  0  0  0  0  0  0  0
  187.2490  178.4500  138.1320 N   0  0  0  0  0  0  0  0  0  0  0  0
  189.2070  177.9580  144.7700 C   0  0  2  0  0  3  0  0  0  0  0  0
  187.1300  178.3860  139.4830 C   0  0  0  0  0  0  0  0  0  0  0  0
  188.3320  178.0130  141.5760 C   0  0  0  0  0  0  0  0  0  0  0  0
  190.2260  176.9990  145.3440 C   0  0  0  0  0  2  0  0  0  0  0  0
  191.3700  178.5890  143.8890 C   0  0  0  0  0  2  0  0  0  0  0  0
  188.9580  178.2020  136.3260 C   0  0  0  0  0  1  0  0  0  0  0  0
  188.5210  178.1980  137.7470 C   0  0  0  0  0  0  0  0  0  0  0  0
  187.0350  178.1310  143.6800 O   0  0  0  0  0  0  0  0  0  0  0  0
  187.8630  177.2790  144.4680 C   0  0  2  0  0  3  0  0  0  0  0  0
  191.5730  177.6300  145.0530 C   0  0  0  0  0  2  0  0  0  0  0  0
  190.4470  176.9700  141.8450 O   0  0  0  0  0  0  0  0  0  0  0  0
  189.6100  177.8060  142.2850 C   0  0  0  0  0  0  0  0  0  0  0  0
  183.4580  178.1960  141.8260 C   0  0  0  0  0  0  0  0  0  0  0  0
  182.2590  178.4290  142.5080 C   0  0  0  0  0  3  0  0  0  0  0  0
  183.4410  177.3750  140.6610 N   0  0  0  0  0  1  0  0  0  0  0  0
  184.6240  179.6070  143.4250 C   0  0  0  0  0  0  0  0  0  0  0  0
  182.2400  179.2430  143.6410 C   0  0  0  0  0  3  0  0  0  0  0  0
  184.6550  178.7910  142.2780 C   0  0  0  0  0  0  0  0  0  0  0  0
  183.4210  179.8300  144.0990 C   0  0  0  0  0  3  0  0  0  0  0  0
  185.7610  180.1700  143.9070 F   0  0  0  0  0  0  0  0  0  0  0  0
  185.5890  177.4910  145.8130 O   0  0  0  0  0  0  0  0  0  0  0  0
  186.9630  176.8540  145.9820 S   0  0  2  0  0  0  0  0  0  0  0  0
  187.7350  177.8300  147.2840 C   0  0  0  0  0  1  0  0  0  0  0  0
  1 25  1  0  0  0  0
  1  2  1  0  0  0  0
  2 15  1  0  0  0  0
  3  1  2  0  0  0  0
  4  6  1  0  0  0  0
  5 12  1  1  0  0  0
  5  8  1  0  0  0  0
  6 10  1  0  0  0  0
  7  9  1  0  0  0  0
  8 11  1  6  0  0  0
  9  3  1  0  0  0  0
  9  6  2  0  0  0  0
 10  2  2  0  0  0  0
 10 19  1  0  0  0  0
 12 17  1  0  0  0  0
 13 14  1  0  0  0  0
 14  7  2  0  0  0  0
 14  4  1  0  0  0  0
 15 16  1  0  0  0  0
 16  8  1  0  0  0  0
 16 29  1  1  0  0  0
 17 11  1  0  0  0  0
 18 19  2  0  0  0  0
 19  5  1  0  0  0  0
 20 25  2  0  0  0  0
 20 21  1  0  0  0  0
 21 24  2  0  0  0  0
 22 20  1  0  0  0  0
 23 27  1  0  0  0  0
 23 26  2  0  0  0  0
 24 26  1  0  0  0  0
 25 23  1  0  0  0  0
 28 29  2  0  0  0  0
 29 30  1  1  0  0  0
M  END
>  <MODEL>
1

>  <REMARK>
 VINA RESULT:      -8.9      0.000      0.000
  Name = 
  2 active torsions:
  status: ('A' for Active; 'I' for Inactive)
    1  A    between atoms: C_1  and  C_22
    2  A    between atoms: S_11  and  C_25
                            x       y       z     vdW  Elec       q    Type
                         _______ _______ _______ _____ _____    ______ ____

>  <TORSDO>
F 2

$$$$
=
 OpenBabel10262421423D

 30 34  0  0  1  0  0  0  0  0999 V2000
  185.7620  178.3450  142.2360 C   0  0  0  0  0  0  0  0  0  0  0  0
  184.5390  178.2550  141.5200 C   0  0  0  0  0  0  0  0  0  0  0  0
  186.9830  178.4480  141.5490 C   0  0  0  0  0  3  0  0  0  0  0  0
  186.1530  178.3540  137.8080 S   0  0  0  0  0  0  0  0  0  0  0  0
  182.2860  177.0360  139.8340 C   0  0  1  0  0  3  0  0  0  0  0  0
  185.7930  178.3600  139.4550 C   0  0  0  0  0  0  0  0  0  0  0  0
  188.1080  178.5430  139.4070 N   0  0  0  0  0  0  0  0  0  0  0  0
  181.3940  177.6470  140.9070 C   0  0  2  0  0  3  0  0  0  0  0  0
  186.9820  178.4620  140.1600 C   0  0  0  0  0  0  0  0  0  0  0  0
  184.5520  178.2340  140.0970 C   0  0  0  0  0  0  0  0  0  0  0  0
  180.2140  178.2230  140.1560 C   0  0  0  0  0  2  0  0  0  0  0  0
  181.3350  176.5900  138.7310 C   0  0  0  0  0  2  0  0  0  0  0  0
  188.8410  178.5650  137.0180 C   0  0  0  0  0  1  0  0  0  0  0  0
  187.8110  178.5010  138.0870 C   0  0  0  0  0  0  0  0  0  0  0  0
  183.3460  178.1910  142.2580 O   0  0  0  0  0  0  0  0  0  0  0  0
  182.0940  178.6870  141.7930 C   0  0  2  0  0  3  0  0  0  0  0  0
  180.0130  177.3040  138.9670 C   0  0  0  0  0  2  0  0  0  0  0  0
  183.1240  178.6420  138.2450 O   0  0  0  0  0  0  0  0  0  0  0  0
  183.3190  178.0060  139.3170 C   0  0  0  0  0  0  0  0  0  0  0  0
  186.5250  177.4120  144.4420 C   0  0  0  0  0  0  0  0  0  0  0  0
  186.5280  177.4440  145.8400 C   0  0  0  0  0  3  0  0  0  0  0  0
  187.2610  176.3910  143.7730 N   0  0  0  0  0  1  0  0  0  0  0  0
  185.0530  179.3460  144.4170 C   0  0  0  0  0  0  0  0  0  0  0  0
  185.8020  178.4190  146.5250 C   0  0  0  0  0  3  0  0  0  0  0  0
  185.7780  178.3640  143.7160 C   0  0  0  0  0  0  0  0  0  0  0  0
  185.0670  179.3690  145.8140 C   0  0  0  0  0  3  0  0  0  0  0  0
  184.3500  180.2980  143.7520 F   0  0  0  0  0  0  0  0  0  0  0  0
  180.1880  177.9310  143.4720 O   0  0  0  0  0  0  0  0  0  0  0  0
  181.0900  179.1350  143.2340 S   0  0  2  0  0  0  0  0  0  0  0  0
  179.9630  180.4110  142.6490 C   0  0  0  0  0  1  0  0  0  0  0  0
  1 25  1  0  0  0  0
  2  1  2  0  0  0  0
  2 15  1  0  0  0  0
  3  1  1  0  0  0  0
  4 14  1  0  0  0  0
  4  6  1  0  0  0  0
  5 12  1  6  0  0  0
  5  8  1  0  0  0  0
  6 10  2  0  0  0  0
  6  9  1  0  0  0  0
  7  9  1  0  0  0  0
  8 11  1  6  0  0  0
  8 16  1  0  0  0  0
  9  3  2  0  0  0  0
 10  2  1  0  0  0  0
 12 17  1  0  0  0  0
 13 14  1  0  0  0  0
 14  7  2  0  0  0  0
 16 15  1  0  0  0  0
 16 29  1  1  0  0  0
 17 11  1  0  0  0  0
 18 19  2  0  0  0  0
 19  5  1  0  0  0  0
 19 10  1  0  0  0  0
 20 21  1  0  0  0  0
 21 24  2  0  0  0  0
 22 20  1  0  0  0  0
 23 26  2  0  0  0  0
 25 23  1  0  0  0  0
 25 20  2  0  0  0  0
 26 24  1  0  0  0  0
 27 23  1  0  0  0  0
 29 30  1  6  0  0  0
 29 28  2  0  0  0  0
M  END
>  <MODEL>
2

>  <REMARK>
 VINA RESULT:      -8.8      3.119      6.015
  Name = 
  2 active torsions:
  status: ('A' for Active; 'I' for Inactive)
    1  A    between atoms: C_1  and  C_22
    2  A    between atoms: S_11  and  C_25
                            x       y       z     vdW  Elec       q    Type
                         _______ _______ _______ _____ _____    ______ ____

>  <TORSDO>
F 2

$$$$
=
 OpenBabel10262421423D

 30 34  0  0  1  0  0  0  0  0999 V2000
  183.6100  179.2160  139.2190 C   0  0  0  0  0  0  0  0  0  0  0  0
  183.7670  179.0380  140.6190 C   0  0  0  0  0  0  0  0  0  0  0  0
  184.6940  179.0090  138.3500 C   0  0  0  0  0  3  0  0  0  0  0  0
  187.6950  178.0590  140.5380 S   0  0  0  0  0  0  0  0  0  0  0  0
  184.6110  179.6280  143.5080 C   0  0  1  0  0  3  0  0  0  0  0  0
  186.0860  178.4670  140.2410 C   0  0  0  0  0  0  0  0  0  0  0  0
  187.0320  178.4190  138.1200 N   0  0  0  0  0  0  0  0  0  0  0  0
  183.1630  179.2700  143.8160 C   0  0  2  0  0  3  0  0  0  0  0  0
  185.9220  178.6280  138.8740 C   0  0  0  0  0  0  0  0  0  0  0  0
  185.0390  178.6820  141.1500 C   0  0  0  0  0  0  0  0  0  0  0  0
  183.2230  178.4450  145.0830 C   0  0  0  0  0  2  0  0  0  0  0  0
  185.2990  179.7080  144.8640 C   0  0  0  0  0  2  0  0  0  0  0  0
  189.4440  177.8110  138.3540 C   0  0  0  0  0  1  0  0  0  0  0  0
  188.0900  178.0930  138.8980 C   0  0  0  0  0  0  0  0  0  0  0  0
  182.6410  179.2220  141.4370 O   0  0  0  0  0  0  0  0  0  0  0  0
  182.4350  178.5460  142.6750 C   0  0  2  0  0  3  0  0  0  0  0  0
  184.3950  179.0030  145.8650 C   0  0  0  0  0  2  0  0  0  0  0  0
  186.0110  177.7130  143.0860 O   0  0  0  0  0  0  0  0  0  0  0  0
  185.2780  178.6210  142.6050 C   0  0  0  0  0  0  0  0  0  0  0  0
  181.3400  178.6030  138.3320 C   0  0  0  0  0  0  0  0  0  0  0  0
  180.1070  178.9740  137.7860 C   0  0  0  0  0  3  0  0  0  0  0  0
  181.6130  177.2200  138.5430 N   0  0  0  0  0  1  0  0  0  0  0  0
  181.9940  180.9430  138.4030 C   0  0  0  0  0  0  0  0  0  0  0  0
  179.8160  180.3180  137.5500 C   0  0  0  0  0  3  0  0  0  0  0  0
  182.3000  179.5900  138.6410 C   0  0  0  0  0  0  0  0  0  0  0  0
  180.7580  181.3010  137.8590 C   0  0  0  0  0  3  0  0  0  0  0  0
  182.8800  181.9210  138.7180 F   0  0  0  0  0  0  0  0  0  0  0  0
  180.0890  177.7490  141.7320 O   0  0  0  0  0  0  0  0  0  0  0  0
  180.6510  178.4350  142.9710 S   0  0  2  0  0  0  0  0  0  0  0  0
  180.0420  180.1250  142.8440 C   0  0  0  0  0  1  0  0  0  0  0  0
  1  2  1  0  0  0  0
  2 10  2  0  0  0  0
  2 15  1  0  0  0  0
  3  9  1  0  0  0  0
  3  1  2  0  0  0  0
  5  8  1  0  0  0  0
  5 12  1  1  0  0  0
  6  4  1  0  0  0  0
  6 10  1  0  0  0  0
  7  9  1  0  0  0  0
  7 14  2  0  0  0  0
  8 11  1  1  0  0  0
  9  6  2  0  0  0  0
 10 19  1  0  0  0  0
 11 17  1  0  0  0  0
 12 17  1  0  0  0  0
 13 14  1  0  0  0  0
 14  4  1  0  0  0  0
 15 16  1  0  0  0  0
 16 29  1  1  0  0  0
 16  8  1  0  0  0  0
 19 18  2  0  0  0  0
 19  5  1  0  0  0  0
 20 22  1  0  0  0  0
 20 25  1  0  0  0  0
 21 20  2  0  0  0  0
 23 25  2  0  0  0  0
 23 27  1  0  0  0  0
 24 21  1  0  0  0  0
 24 26  2  0  0  0  0
 25  1  1  0  0  0  0
 26 23  1  0  0  0  0
 28 29  2  0  0  0  0
 29 30  1  6  0  0  0
M  END
>  <MODEL>
3

>  <REMARK>
 VINA RESULT:      -8.6      3.461      5.141
  Name = 
  2 active torsions:
  status: ('A' for Active; 'I' for Inactive)
    1  A    between atoms: C_1  and  C_22
    2  A    between atoms: S_11  and  C_25
                            x       y       z     vdW  Elec       q    Type
                         _______ _______ _______ _____ _____    ______ ____

>  <TORSDO>
F 2

$$$$
=
 OpenBabel10262421423D

 30 34  0  0  1  0  0  0  0  0999 V2000
  189.4770  177.4320  142.3110 C   0  0  0  0  0  0  0  0  0  0  0  0
  188.1330  177.8550  142.4830 C   0  0  0  0  0  0  0  0  0  0  0  0
  190.0650  177.4340  141.0350 C   0  0  0  0  0  3  0  0  0  0  0  0
  187.3760  178.6410  138.5840 S   0  0  0  0  0  0  0  0  0  0  0  0
  185.0680  177.7650  142.4180 C   0  0  1  0  0  3  0  0  0  0  0  0
  187.9990  178.2530  140.1020 C   0  0  0  0  0  0  0  0  0  0  0  0
  189.7890  177.8760  138.6690 N   0  0  0  0  0  0  0  0  0  0  0  0
  185.2010  178.2330  143.8610 C   0  0  2  0  0  3  0  0  0  0  0  0
  189.3170  177.8530  139.9420 C   0  0  0  0  0  0  0  0  0  0  0  0
  187.3630  178.2490  141.3520 C   0  0  0  0  0  0  0  0  0  0  0  0
  184.1150  179.2710  144.0400 C   0  0  0  0  0  2  0  0  0  0  0  0
  183.5870  177.9050  142.0880 C   0  0  0  0  0  2  0  0  0  0  0  0
  189.0560  178.4170  136.3430 C   0  0  0  0  0  1  0  0  0  0  0  0
  188.8340  178.2940  137.8070 C   0  0  0  0  0  0  0  0  0  0  0  0
  187.6080  177.8690  143.7850 O   0  0  0  0  0  0  0  0  0  0  0  0
  186.5930  178.7670  144.2270 C   0  0  2  0  0  3  0  0  0  0  0  0
  182.9800  178.8170  143.1440 C   0  0  0  0  0  2  0  0  0  0  0  0
  185.4320  179.5130  140.7990 O   0  0  0  0  0  0  0  0  0  0  0  0
  185.9260  178.5640  141.4680 C   0  0  0  0  0  0  0  0  0  0  0  0
  190.8010  177.9670  144.3790 C   0  0  0  0  0  0  0  0  0  0  0  0
  191.5760  177.5550  145.4680 C   0  0  0  0  0  3  0  0  0  0  0  0
  190.5550  179.3590  144.1950 N   0  0  0  0  0  1  0  0  0  0  0  0
  190.5770  175.6500  143.6800 C   0  0  0  0  0  0  0  0  0  0  0  0
  191.8500  176.2010  145.6650 C   0  0  0  0  0  3  0  0  0  0  0  0
  190.2980  177.0140  143.4680 C   0  0  0  0  0  0  0  0  0  0  0  0
  191.3510  175.2510  144.7730 C   0  0  0  0  0  3  0  0  0  0  0  0
  190.0830  174.7030  142.8440 F   0  0  0  0  0  0  0  0  0  0  0  0
  187.9130  178.0670  146.4150 O   0  0  0  0  0  0  0  0  0  0  0  0
  186.7810  179.0030  146.0130 S   0  0  2  0  0  0  0  0  0  0  0  0
  185.3180  178.2530  146.7480 C   0  0  0  0  0  1  0  0  0  0  0  0
  1  2  1  0  0  0  0
  1 25  1  0  0  0  0
  2 15  1  0  0  0  0
  3  1  2  0  0  0  0
  4  6  1  0  0  0  0
  5 12  1  6  0  0  0
  5  8  1  0  0  0  0
  6 10  1  0  0  0  0
  7  9  1  0  0  0  0
  8 11  1  6  0  0  0
  8 16  1  0  0  0  0
  9  6  2  0  0  0  0
  9  3  1  0  0  0  0
 10 19  1  0  0  0  0
 10  2  2  0  0  0  0
 12 17  1  0  0  0  0
 13 14  1  0  0  0  0
 14  4  1  0  0  0  0
 14  7  2  0  0  0  0
 15 16  1  0  0  0  0
 16 29  1  1  0  0  0
 17 11  1  0  0  0  0
 18 19  2  0  0  0  0
 19  5  1  0  0  0  0
 20 21  1  0  0  0  0
 21 24  2  0  0  0  0
 22 20  1  0  0  0  0
 23 26  2  0  0  0  0
 25 23  1  0  0  0  0
 25 20  2  0  0  0  0
 26 24  1  0  0  0  0
 27 23  1  0  0  0  0
 29 28  2  0  0  0  0
 29 30  1  1  0  0  0
M  END
>  <MODEL>
4

>  <REMARK>
 VINA RESULT:      -8.5      2.389      5.488
  Name = 
  2 active torsions:
  status: ('A' for Active; 'I' for Inactive)
    1  A    between atoms: C_1  and  C_22
    2  A    between atoms: S_11  and  C_25
                            x       y       z     vdW  Elec       q    Type
                         _______ _______ _______ _____ _____    ______ ____

>  <TORSDO>
F 2

$$$$
=
 OpenBabel10262421423D

 30 34  0  0  1  0  0  0  0  0999 V2000
  187.2240  177.7880  142.4460 C   0  0  0  0  0  0  0  0  0  0  0  0
  187.4680  177.9310  143.8380 C   0  0  0  0  0  0  0  0  0  0  0  0
  185.9400  178.0100  141.9230 C   0  0  0  0  0  3  0  0  0  0  0  0
  183.6780  178.8930  144.8900 S   0  0  0  0  0  0  0  0  0  0  0  0
  187.4710  177.2680  146.8320 C   0  0  1  0  0  3  0  0  0  0  0  0
  185.1380  178.5000  144.1420 C   0  0  0  0  0  0  0  0  0  0  0  0
  183.6330  178.5940  142.3750 N   0  0  0  0  0  0  0  0  0  0  0  0
  188.9480  177.6270  146.7290 C   0  0  2  0  0  3  0  0  0  0  0  0
  184.9100  178.3730  142.7810 C   0  0  0  0  0  0  0  0  0  0  0  0
  186.3980  178.2680  144.7130 C   0  0  0  0  0  0  0  0  0  0  0  0
  189.2480  178.4210  147.9800 C   0  0  0  0  0  2  0  0  0  0  0  0
  187.1920  177.1530  148.3250 C   0  0  0  0  0  2  0  0  0  0  0  0
  181.3850  179.1840  143.2930 C   0  0  0  0  0  1  0  0  0  0  0  0
  182.8370  178.8960  143.4260 C   0  0  0  0  0  0  0  0  0  0  0  0
  188.7790  177.7330  144.3010 O   0  0  0  0  0  0  0  0  0  0  0  0
  189.3260  178.3810  145.4460 C   0  0  2  0  0  3  0  0  0  0  0  0
  188.3420  177.8390  149.0470 C   0  0  0  0  0  2  0  0  0  0  0  0
  186.0120  179.1870  146.8680 O   0  0  0  0  0  0  0  0  0  0  0  0
  186.5780  178.2940  146.1780 C   0  0  0  0  0  0  0  0  0  0  0  0
  188.3670  177.9870  140.2170 C   0  0  0  0  0  0  0  0  0  0  0  0
  189.4070  177.6420  139.3480 C   0  0  0  0  0  3  0  0  0  0  0  0
  187.3540  178.8790  139.7600 N   0  0  0  0  0  1  0  0  0  0  0  0
  189.3320  176.5450  141.9200 C   0  0  0  0  0  0  0  0  0  0  0  0
  190.4050  176.7560  139.7590 C   0  0  0  0  0  3  0  0  0  0  0  0
  188.3170  177.4340  141.5140 C   0  0  0  0  0  0  0  0  0  0  0  0
  190.3670  176.2100  141.0430 C   0  0  0  0  0  3  0  0  0  0  0  0
  189.3340  176.0200  143.1710 F   0  0  0  0  0  0  0  0  0  0  0  0
  191.3210  178.7940  143.7510 O   0  0  0  0  0  0  0  0  0  0  0  0
  191.1210  178.4940  145.2310 S   0  0  2  0  0  0  0  0  0  0  0  0
  191.7290  176.8090  145.4160 C   0  0  0  0  0  1  0  0  0  0  0  0
  1  2  1  0  0  0  0
  2 15  1  0  0  0  0
  2 10  2  0  0  0  0
  3  1  2  0  0  0  0
  3  9  1  0  0  0  0
  5 12  1  1  0  0  0
  6 10  1  0  0  0  0
  6  4  1  0  0  0  0
  7  9  1  0  0  0  0
  7 14  2  0  0  0  0
  8  5  1  0  0  0  0
  8 11  1  1  0  0  0
  9  6  2  0  0  0  0
 10 19  1  0  0  0  0
 11 17  1  0  0  0  0
 12 17  1  0  0  0  0
 13 14  1  0  0  0  0
 14  4  1  0  0  0  0
 15 16  1  0  0  0  0
 16 29  1  6  0  0  0
 16  8  1  0  0  0  0
 19  5  1  0  0  0  0
 19 18  2  0  0  0  0
 20 25  1  0  0  0  0
 21 24  1  0  0  0  0
 21 20  2  0  0  0  0
 22 20  1  0  0  0  0
 23 27  1  0  0  0  0
 24 26  2  0  0  0  0
 25 23  2  0  0  0  0
 25  1  1  0  0  0  0
 26 23  1  0  0  0  0
 28 29  2  0  0  0  0
 29 30  1  6  0  0  0
M  END
>  <MODEL>
5

>  <REMARK>
 VINA RESULT:      -8.5      2.282      5.605
  Name = 
  2 active torsions:
  status: ('A' for Active; 'I' for Inactive)
    1  A    between atoms: C_1  and  C_22
    2  A    between atoms: S_11  and  C_25
                            x       y       z     vdW  Elec       q    Type
                         _______ _______ _______ _____ _____    ______ ____

>  <TORSDO>
F 2

$$$$
=
 OpenBabel10262421423D

 30 34  0  0  1  0  0  0  0  0999 V2000
  189.3800  177.5610  142.4120 C   0  0  0  0  0  0  0  0  0  0  0  0
  188.0200  177.9490  142.5370 C   0  0  0  0  0  0  0  0  0  0  0  0
  190.0080  177.5650  141.1550 C   0  0  0  0  0  3  0  0  0  0  0  0
  187.3670  178.6740  138.6070 S   0  0  0  0  0  0  0  0  0  0  0  0
  184.9620  177.7760  142.3760 C   0  0  1  0  0  3  0  0  0  0  0  0
  187.9520  178.3180  140.1480 C   0  0  0  0  0  0  0  0  0  0  0  0
  189.7960  177.9750  138.7770 N   0  0  0  0  0  0  0  0  0  0  0  0
  185.0360  178.2620  143.8180 C   0  0  2  0  0  3  0  0  0  0  0  0
  189.2840  177.9530  140.0350 C   0  0  0  0  0  0  0  0  0  0  0  0
  187.2770  178.3100  141.3780 C   0  0  0  0  0  0  0  0  0  0  0  0
  183.9180  179.2720  143.9500 C   0  0  0  0  0  2  0  0  0  0  0  0
  183.4900  177.8720  141.9980 C   0  0  0  0  0  2  0  0  0  0  0  0
  189.1230  178.4720  136.4230 C   0  0  0  0  0  1  0  0  0  0  0  0
  188.8580  178.3580  137.8810 C   0  0  0  0  0  0  0  0  0  0  0  0
  187.4540  177.9620  143.8220 O   0  0  0  0  0  0  0  0  0  0  0  0
  186.4020  178.8370  144.2210 C   0  0  2  0  0  3  0  0  0  0  0  0
  182.8250  178.7780  143.0240 C   0  0  0  0  0  2  0  0  0  0  0  0
  185.3310  179.5160  140.7500 O   0  0  0  0  0  0  0  0  0  0  0  0
  185.8280  178.5870  141.4450 C   0  0  0  0  0  0  0  0  0  0  0  0
  190.5700  175.8380  143.8010 C   0  0  0  0  0  0  0  0  0  0  0  0
  191.3200  175.4910  144.9290 C   0  0  0  0  0  3  0  0  0  0  0  0
  190.1940  174.8150  142.8820 N   0  0  0  0  0  1  0  0  0  0  0  0
  190.5560  178.1530  144.5400 C   0  0  0  0  0  0  0  0  0  0  0  0
  191.6880  176.4660  145.8570 C   0  0  0  0  0  3  0  0  0  0  0  0
  190.1750  177.1770  143.5990 C   0  0  0  0  0  0  0  0  0  0  0  0
  191.3070  177.7950  145.6620 C   0  0  0  0  0  3  0  0  0  0  0  0
  190.2220  179.4560  144.3620 F   0  0  0  0  0  0  0  0  0  0  0  0
  187.6740  178.2000  146.4570 O   0  0  0  0  0  0  0  0  0  0  0  0
  186.5260  179.0970  146.0090 S   0  0  2  0  0  0  0  0  0  0  0  0
  185.0660  178.3080  146.7070 C   0  0  0  0  0  1  0  0  0  0  0  0
  1  2  1  0  0  0  0
  1 25  1  0  0  0  0
  2 15  1  0  0  0  0
  3  1  2  0  0  0  0
  4  6  1  0  0  0  0
  5 12  1  6  0  0  0
  5  8  1  0  0  0  0
  6 10  1  0  0  0  0
  7  9  1  0  0  0  0
  8 11  1  6  0  0  0
  8 16  1  0  0  0  0
  9  6  2  0  0  0  0
  9  3  1  0  0  0  0
 10 19  1  0  0  0  0
 10  2  2  0  0  0  0
 12 17  1  0  0  0  0
 13 14  1  0  0  0  0
 14  4  1  0  0  0  0
 14  7  2  0  0  0  0
 15 16  1  0  0  0  0
 16 29  1  1  0  0  0
 17 11  1  0  0  0  0
 18 19  2  0  0  0  0
 19  5  1  0  0  0  0
 20 21  1  0  0  0  0
 21 24  2  0  0  0  0
 22 20  1  0  0  0  0
 23 26  2  0  0  0  0
 25 20  2  0  0  0  0
 25 23  1  0  0  0  0
 26 24  1  0  0  0  0
 27 23  1  0  0  0  0
 29 28  2  0  0  0  0
 29 30  1  1  0  0  0
M  END
>  <MODEL>
6

>  <REMARK>
 VINA RESULT:      -8.5      2.136      5.302
  Name = 
  2 active torsions:
  status: ('A' for Active; 'I' for Inactive)
    1  A    between atoms: C_1  and  C_22
    2  A    between atoms: S_11  and  C_25
                            x       y       z     vdW  Elec       q    Type
                         _______ _______ _______ _____ _____    ______ ____

>  <TORSDO>
F 2

$$$$
=
 OpenBabel10262421423D

 30 34  0  0  1  0  0  0  0  0999 V2000
  188.3270  177.3170  139.2870 C   0  0  0  0  0  0  0  0  0  0  0  0
  188.2310  177.4830  140.6940 C   0  0  0  0  0  0  0  0  0  0  0  0
  187.2940  177.7650  138.4460 C   0  0  0  0  0  3  0  0  0  0  0  0
  184.5840  179.2410  140.7200 S   0  0  0  0  0  0  0  0  0  0  0  0
  187.3300  176.9940  143.5850 C   0  0  1  0  0  3  0  0  0  0  0  0
  186.0710  178.5240  140.3800 C   0  0  0  0  0  0  0  0  0  0  0  0
  185.1220  178.8230  138.2810 N   0  0  0  0  0  0  0  0  0  0  0  0
  188.8250  177.0430  143.8710 C   0  0  2  0  0  3  0  0  0  0  0  0
  186.1780  178.3720  139.0060 C   0  0  0  0  0  0  0  0  0  0  0  0
  187.0670  178.0740  141.2600 C   0  0  0  0  0  0  0  0  0  0  0  0
  188.9530  177.8260  145.1590 C   0  0  0  0  0  2  0  0  0  0  0  0
  186.6610  177.0170  144.9530 C   0  0  0  0  0  2  0  0  0  0  0  0
  182.8880  179.9010  138.5800 C   0  0  0  0  0  1  0  0  0  0  0  0
  184.1650  179.3350  139.0880 C   0  0  0  0  0  0  0  0  0  0  0  0
  189.3090  177.0510  141.4840 O   0  0  0  0  0  0  0  0  0  0  0  0
  189.6670  177.6360  142.7330 C   0  0  2  0  0  3  0  0  0  0  0  0
  187.7050  177.4960  145.9510 C   0  0  0  0  0  2  0  0  0  0  0  0
  186.3420  179.1650  143.2400 O   0  0  0  0  0  0  0  0  0  0  0  0
  186.8670  178.1420  142.7210 C   0  0  0  0  0  0  0  0  0  0  0  0
  189.4000  175.6110  137.7870 C   0  0  0  0  0  0  0  0  0  0  0  0
  190.5420  175.0400  137.2160 C   0  0  0  0  0  3  0  0  0  0  0  0
  188.1240  175.0550  137.4800 N   0  0  0  0  0  1  0  0  0  0  0  0
  190.8050  177.2100  138.9600 C   0  0  0  0  0  0  0  0  0  0  0  0
  191.8080  175.5500  137.5110 C   0  0  0  0  0  3  0  0  0  0  0  0
  189.5240  176.7020  138.6730 C   0  0  0  0  0  0  0  0  0  0  0  0
  191.9380  176.6330  138.3810 C   0  0  0  0  0  3  0  0  0  0  0  0
  190.9600  178.2790  139.7820 F   0  0  0  0  0  0  0  0  0  0  0  0
  191.5270  176.1420  143.8870 O   0  0  0  0  0  0  0  0  0  0  0  0
  191.4410  177.3740  142.9950 S   0  0  2  0  0  0  0  0  0  0  0  0
  191.9670  178.7220  144.0660 C   0  0  0  0  0  1  0  0  0  0  0  0
  1  2  1  0  0  0  0
  2 10  2  0  0  0  0
  2 15  1  0  0  0  0
  3  9  1  0  0  0  0
  3  1  2  0  0  0  0
  5  8  1  0  0  0  0
  5 12  1  1  0  0  0
  6  4  1  0  0  0  0
  6 10  1  0  0  0  0
  7  9  1  0  0  0  0
  7 14  2  0  0  0  0
  8 11  1  1  0  0  0
  9  6  2  0  0  0  0
 10 19  1  0  0  0  0
 11 17  1  0  0  0  0
 12 17  1  0  0  0  0
 13 14  1  0  0  0  0
 14  4  1  0  0  0  0
 15 16  1  0  0  0  0
 16 29  1  1  0  0  0
 16  8  1  0  0  0  0
 19 18  2  0  0  0  0
 19  5  1  0  0  0  0
 20 25  1  0  0  0  0
 21 24  1  0  0  0  0
 21 20  2  0  0  0  0
 22 20  1  0  0  0  0
 23 27  1  0  0  0  0
 24 26  2  0  0  0  0
 25 23  2  0  0  0  0
 25  1  1  0  0  0  0
 26 23  1  0  0  0  0
 29 28  2  0  0  0  0
 29 30  1  1  0  0  0
M  END
>  <MODEL>
7

>  <REMARK>
 VINA RESULT:      -8.2      2.754      5.623
  Name = 
  2 active torsions:
  status: ('A' for Active; 'I' for Inactive)
    1  A    between atoms: C_1  and  C_22
    2  A    between atoms: S_11  and  C_25
                            x       y       z     vdW  Elec       q    Type
                         _______ _______ _______ _____ _____    ______ ____

>  <TORSDO>
F 2

$$$$
=
 OpenBabel10262421423D

 30 34  0  0  1  0  0  0  0  0999 V2000
  188.3830  177.8730  142.1890 C   0  0  0  0  0  0  0  0  0  0  0  0
  187.0380  178.1890  141.8620 C   0  0  0  0  0  0  0  0  0  0  0  0
  189.3400  177.7020  141.1750 C   0  0  0  0  0  3  0  0  0  0  0  0
  187.5120  178.1870  137.8410 S   0  0  0  0  0  0  0  0  0  0  0  0
  184.1520  177.7970  140.8990 C   0  0  1  0  0  3  0  0  0  0  0  0
  187.6420  178.1390  139.5210 C   0  0  0  0  0  0  0  0  0  0  0  0
  189.8020  177.6840  138.7980 N   0  0  0  0  0  0  0  0  0  0  0  0
  183.8100  178.5270  142.1920 C   0  0  2  0  0  3  0  0  0  0  0  0
  188.9570  177.8450  139.8480 C   0  0  0  0  0  0  0  0  0  0  0  0
  186.6470  178.2990  140.4980 C   0  0  0  0  0  0  0  0  0  0  0  0
  182.6870  179.4710  141.8250 C   0  0  0  0  0  2  0  0  0  0  0  0
  182.8450  177.7330  140.1200 C   0  0  0  0  0  2  0  0  0  0  0  0
  189.8150  177.7260  136.3000 C   0  0  0  0  0  1  0  0  0  0  0  0
  189.1510  177.8470  137.6240 C   0  0  0  0  0  0  0  0  0  0  0  0
  186.1320  178.3870  142.9160 O   0  0  0  0  0  0  0  0  0  0  0  0
  184.9980  179.2480  142.8440 C   0  0  2  0  0  3  0  0  0  0  0  0
  181.9060  178.7580  140.7400 C   0  0  0  0  0  2  0  0  0  0  0  0
  184.9430  179.2530  139.1490 O   0  0  0  0  0  0  0  0  0  0  0  0
  185.2350  178.4900  140.1110 C   0  0  0  0  0  0  0  0  0  0  0  0
  189.9310  178.4670  144.0780 C   0  0  0  0  0  0  0  0  0  0  0  0
  190.3260  178.3380  145.4130 C   0  0  0  0  0  3  0  0  0  0  0  0
  190.6890  179.3080  143.2120 N   0  0  0  0  0  1  0  0  0  0  0  0
  188.1030  176.9180  144.4850 C   0  0  0  0  0  0  0  0  0  0  0  0
  189.6160  177.5070  146.2810 C   0  0  0  0  0  3  0  0  0  0  0  0
  188.8140  177.7500  143.5990 C   0  0  0  0  0  0  0  0  0  0  0  0
  188.5060  176.8000  145.8180 C   0  0  0  0  0  3  0  0  0  0  0  0
  187.0040  176.2390  144.0680 F   0  0  0  0  0  0  0  0  0  0  0  0
  185.7590  179.3120  145.3820 O   0  0  0  0  0  0  0  0  0  0  0  0
  184.6090  179.8170  144.5190 S   0  0  2  0  0  0  0  0  0  0  0  0
  183.2040  178.8230  145.0450 C   0  0  0  0  0  1  0  0  0  0  0  0
  1 25  1  0  0  0  0
  2  1  1  0  0  0  0
  2 15  1  0  0  0  0
  3  1  2  0  0  0  0
  4  6  1  0  0  0  0
  5 12  1  6  0  0  0
  5  8  1  0  0  0  0
  6  9  2  0  0  0  0
  6 10  1  0  0  0  0
  7  9  1  0  0  0  0
  8 11  1  6  0  0  0
  8 16  1  0  0  0  0
  9  3  1  0  0  0  0
 10  2  2  0  0  0  0
 12 17  1  0  0  0  0
 13 14  1  0  0  0  0
 14  4  1  0  0  0  0
 14  7  2  0  0  0  0
 16 15  1  0  0  0  0
 16 29  1  1  0  0  0
 17 11  1  0  0  0  0
 18 19  2  0  0  0  0
 19 10  1  0  0  0  0
 19  5  1  0  0  0  0
 20 21  1  0  0  0  0
 21 24  2  0  0  0  0
 22 20  1  0  0  0  0
 23 26  2  0  0  0  0
 25 20  2  0  0  0  0
 25 23  1  0  0  0  0
 26 24  1  0  0  0  0
 27 23  1  0  0  0  0
 29 30  1  1  0  0  0
 29 28  2  0  0  0  0
M  END
>  <MODEL>
8

>  <REMARK>
 VINA RESULT:      -8.2      2.188      5.385
  Name = 
  2 active torsions:
  status: ('A' for Active; 'I' for Inactive)
    1  A    between atoms: C_1  and  C_22
    2  A    between atoms: S_11  and  C_25
                            x       y       z     vdW  Elec       q    Type
                         _______ _______ _______ _____ _____    ______ ____

>  <TORSDO>
F 2

$$$$
=
 OpenBabel10262421423D

 30 34  0  0  1  0  0  0  0  0999 V2000
  186.9560  177.7830  138.6940 C   0  0  0  0  0  0  0  0  0  0  0  0
  187.1780  177.8790  140.0930 C   0  0  0  0  0  0  0  0  0  0  0  0
  185.7220  178.1670  138.1420 C   0  0  0  0  0  3  0  0  0  0  0  0
  183.5080  179.2860  141.0640 S   0  0  0  0  0  0  0  0  0  0  0  0
  187.0200  177.1870  143.0770 C   0  0  1  0  0  3  0  0  0  0  0  0
  184.9270  178.7260  140.3470 C   0  0  0  0  0  0  0  0  0  0  0  0
  183.4930  179.0240  138.5440 N   0  0  0  0  0  0  0  0  0  0  0  0
  188.5320  177.3630  143.0160 C   0  0  2  0  0  3  0  0  0  0  0  0
  184.7220  178.6430  138.9790 C   0  0  0  0  0  0  0  0  0  0  0  0
  186.1340  178.3350  140.9470 C   0  0  0  0  0  0  0  0  0  0  0  0
  188.8930  178.1000  144.2860 C   0  0  0  0  0  2  0  0  0  0  0  0
  186.6890  177.0900  144.5610 C   0  0  0  0  0  2  0  0  0  0  0  0
  181.3110  179.8750  139.4140 C   0  0  0  0  0  1  0  0  0  0  0  0
  182.7130  179.4100  139.5800 C   0  0  0  0  0  0  0  0  0  0  0  0
  188.4420  177.5170  140.5870 O   0  0  0  0  0  0  0  0  0  0  0  0
  189.0330  178.0800  141.7540 C   0  0  2  0  0  3  0  0  0  0  0  0
  187.8950  177.6210  145.3210 C   0  0  0  0  0  2  0  0  0  0  0  0
  185.8060  179.2690  143.1040 O   0  0  0  0  0  0  0  0  0  0  0  0
  186.2770  178.3220  142.4160 C   0  0  0  0  0  0  0  0  0  0  0  0
  189.0350  178.1850  137.3420 C   0  0  0  0  0  0  0  0  0  0  0  0
  190.0360  177.7200  136.4820 C   0  0  0  0  0  3  0  0  0  0  0  0
  189.0450  179.5550  137.7350 N   0  0  0  0  0  1  0  0  0  0  0  0
  188.0420  175.9660  137.3600 C   0  0  0  0  0  0  0  0  0  0  0  0
  190.0430  176.3890  136.0630 C   0  0  0  0  0  3  0  0  0  0  0  0
  188.0220  177.3080  137.7850 C   0  0  0  0  0  0  0  0  0  0  0  0
  189.0480  175.5140  136.5020 C   0  0  0  0  0  3  0  0  0  0  0  0
  187.1030  175.0870  137.7910 F   0  0  0  0  0  0  0  0  0  0  0  0
  191.0670  177.4800  140.1640 O   0  0  0  0  0  0  0  0  0  0  0  0
  190.8340  177.9740  141.5860 S   0  0  2  0  0  0  0  0  0  0  0  0
  191.3270  176.5800  142.6140 C   0  0  0  0  0  1  0  0  0  0  0  0
  1  2  1  0  0  0  0
  2 15  1  0  0  0  0
  2 10  2  0  0  0  0
  3  1  2  0  0  0  0
  3  9  1  0  0  0  0
  5 12  1  1  0  0  0
  6 10  1  0  0  0  0
  6  4  1  0  0  0  0
  7  9  1  0  0  0  0
  7 14  2  0  0  0  0
  8  5  1  0  0  0  0
  8 11  1  1  0  0  0
  9  6  2  0  0  0  0
 10 19  1  0  0  0  0
 11 17  1  0  0  0  0
 12 17  1  0  0  0  0
 13 14  1  0  0  0  0
 14  4  1  0  0  0  0
 15 16  1  0  0  0  0
 16 29  1  6  0  0  0
 16  8  1  0  0  0  0
 19  5  1  0  0  0  0
 19 18  2  0  0  0  0
 20 22  1  0  0  0  0
 20 25  1  0  0  0  0
 21 20  2  0  0  0  0
 23 25  2  0  0  0  0
 23 27  1  0  0  0  0
 24 21  1  0  0  0  0
 24 26  2  0  0  0  0
 25  1  1  0  0  0  0
 26 23  1  0  0  0  0
 28 29  2  0  0  0  0
 29 30  1  1  0  0  0
M  END
>  <MODEL>
9

>  <REMARK>
 VINA RESULT:      -8.2      2.712      5.911
  Name = 
  2 active torsions:
  status: ('A' for Active; 'I' for Inactive)
    1  A    between atoms: C_1  and  C_22
    2  A    between atoms: S_11  and  C_25
                            x       y       z     vdW  Elec       q    Type
                         _______ _______ _______ _____ _____    ______ ____

>  <TORSDO>
F 2

$$$$
