=
 OpenBabel10262421423D

 30 35  0  0  1  0  0  0  0  0999 V2000
  185.9180  178.3750  142.8180 C   0  0  0  0  0  0  0  0  0  0  0  0
  185.4810  178.3540  145.3180 C   0  0  1  0  0  3  0  0  0  0  0  0
  189.6600  177.0570  143.2670 C   0  0  0  0  0  2  0  0  0  0  0  0
  186.6200  178.7770  141.6430 C   0  0  0  0  0  0  0  0  0  0  0  0
  184.5380  178.0850  142.6990 C   0  0  0  0  0  3  0  0  0  0  0  0
  183.5750  178.7370  138.8950 S   0  0  0  0  0  0  0  0  0  0  0  0
  184.5800  178.6340  140.3590 C   0  0  0  0  0  0  0  0  0  0  0  0
  182.5210  177.9740  141.2640 N   0  0  0  0  0  2  0  0  0  0  0  0
  189.8800  177.0620  141.7590 C   0  0  1  0  0  3  0  0  0  0  0  0
  183.9030  178.1980  141.4650 C   0  0  0  0  0  0  0  0  0  0  0  0
  185.9360  178.9150  140.4200 C   0  0  0  0  0  3  0  0  0  0  0  0
  186.0690  177.6360  146.4430 N   0  0  0  0  0  2  0  0  0  0  0  0
  181.0840  179.3710  139.8830 C   0  0  0  0  0  1  0  0  0  0  0  0
  184.9870  179.6500  145.7600 N   0  0  0  0  0  1  0  0  0  0  0  0
  188.2840  176.5280  143.6610 C   0  0  0  0  0  2  0  0  0  0  0  0
  187.2200  176.8990  145.9350 C   0  0  2  0  0  3  0  0  0  0  0  0
  182.1040  178.2480  139.8910 C   0  0  1  0  0  3  0  0  0  0  0  0
  186.5300  178.5050  144.2170 C   0  0  1  0  0  3  0  0  0  0  0  0
  188.1080  178.9000  141.6020 C   0  0  0  0  0  2  0  0  0  0  0  0
  190.1820  175.7700  141.3260 O   0  0  0  0  0  1  0  0  0  0  0  0
  188.6800  177.6210  140.9850 C   0  0  1  0  0  3  0  0  0  0  0  0
  188.4190  177.8330  145.8680 C   0  0  0  0  0  2  0  0  0  0  0  0
  187.6190  177.5120  144.6120 C   0  0  2  0  0  0  0  0  0  0  0  0
  188.2050  177.1600  137.3820 C   0  0  2  0  0  3  0  0  0  0  0  0
  188.9280  177.7780  139.4830 C   0  0  1  0  0  3  0  0  0  0  0  0
  190.4260  177.7660  139.1310 C   0  0  0  0  0  2  0  0  0  0  0  0
  189.6190  177.3070  136.7970 C   0  0  0  0  0  2  0  0  0  0  0  0
  190.6880  176.9930  137.8400 C   0  0  0  0  0  2  0  0  0  0  0  0
  187.3540  178.3900  137.0840 C   0  0  0  0  0  1  0  0  0  0  0  0
  188.1880  176.8130  138.7580 O   0  0  0  0  0  0  0  0  0  0  0  0
  2 14  1  1  0  0  0
  2 12  1  0  0  0  0
  3 15  1  0  0  0  0
  4  1  2  0  0  0  0
  5  1  1  0  0  0  0
  6 17  1  0  0  0  0
  6  7  1  0  0  0  0
  7 11  2  0  0  0  0
  7 10  1  0  0  0  0
  8 10  1  0  0  0  0
  9 20  1  6  0  0  0
  9  3  1  0  0  0  0
 10  5  2  0  0  0  0
 11  4  1  0  0  0  0
 16 22  1  1  0  0  0
 16 12  1  0  0  0  0
 17 13  1  1  0  0  0
 17  8  1  0  0  0  0
 18  1  1  6  0  0  0
 18 23  1  0  0  0  0
 18  2  1  0  0  0  0
 19  4  1  0  0  0  0
 21 19  1  1  0  0  0
 21  9  1  0  0  0  0
 23 15  1  6  0  0  0
 23 22  1  0  0  0  0
 23 16  1  0  0  0  0
 24 29  1  1  0  0  0
 24 30  1  0  0  0  0
 25 26  1  1  0  0  0
 25 21  1  0  0  0  0
 27 24  1  0  0  0  0
 27 28  1  0  0  0  0
 28 26  1  0  0  0  0
 30 25  1  0  0  0  0
M  END
>  <MODEL>
1

>  <REMARK>
 VINA RESULT:      -9.2      0.000      0.000
  Name = 
  1 active torsions:
  status: ('A' for Active; 'I' for Inactive)
    1  A    between atoms: C_10  and  C_25
                            x       y       z     vdW  Elec       q    Type
                         _______ _______ _______ _____ _____    ______ ____

>  <TORSDO>
F 1

$$$$
=
 OpenBabel10262421423D

 30 35  0  0  1  0  0  0  0  0999 V2000
  189.2780  177.2460  144.7010 C   0  0  0  0  0  0  0  0  0  0  0  0
  190.4730  176.9780  146.9240 C   0  0  1  0  0  3  0  0  0  0  0  0
  185.8680  178.3650  146.4500 C   0  0  0  0  0  2  0  0  0  0  0  0
  188.2430  176.9650  143.7600 C   0  0  0  0  0  0  0  0  0  0  0  0
  190.5530  177.5970  144.1980 C   0  0  0  0  0  3  0  0  0  0  0  0
  190.2790  177.4470  140.2320 S   0  0  0  0  0  0  0  0  0  0  0  0
  189.7820  177.3350  141.9360 C   0  0  0  0  0  0  0  0  0  0  0  0
  192.0220  177.9530  142.2340 N   0  0  0  0  0  2  0  0  0  0  0  0
  185.1890  178.5350  145.0960 C   0  0  1  0  0  3  0  0  0  0  0  0
  190.7710  177.6570  142.8240 C   0  0  0  0  0  0  0  0  0  0  0  0
  188.5110  177.0010  142.3780 C   0  0  0  0  0  3  0  0  0  0  0  0
  190.2680  177.5330  148.2570 N   0  0  0  0  0  2  0  0  0  0  0  0
  192.9510  176.7870  140.3100 C   0  0  0  0  0  1  0  0  0  0  0  0
  191.0750  175.6570  147.0230 N   0  0  0  0  0  1  0  0  0  0  0  0
  187.3010  178.8910  146.4610 C   0  0  0  0  0  2  0  0  0  0  0  0
  189.0200  178.2840  148.2270 C   0  0  2  0  0  3  0  0  0  0  0  0
  191.9900  177.8630  140.7760 C   0  0  1  0  0  3  0  0  0  0  0  0
  189.1330  176.9250  146.1920 C   0  0  1  0  0  3  0  0  0  0  0  0
  186.8160  176.7940  144.1670 C   0  0  0  0  0  2  0  0  0  0  0  0
  184.7720  179.8590  144.9450 O   0  0  0  0  0  1  0  0  0  0  0  0
  186.0850  178.1180  143.9250 C   0  0  1  0  0  3  0  0  0  0  0  0
  187.8560  177.3240  148.4180 C   0  0  0  0  0  2  0  0  0  0  0  0
  188.2250  177.8230  147.0280 C   0  0  2  0  0  0  0  0  0  0  0  0
  185.2600  179.1990  140.5230 C   0  0  2  0  0  3  0  0  0  0  0  0
  185.3800  178.1360  142.5660 C   0  0  1  0  0  3  0  0  0  0  0  0
  183.8680  177.8800  142.6860 C   0  0  0  0  0  2  0  0  0  0  0  0
  183.7730  178.8420  140.3680 C   0  0  0  0  0  2  0  0  0  0  0  0
  183.0760  178.7610  141.7230 C   0  0  0  0  0  2  0  0  0  0  0  0
  186.1440  178.2360  139.7360 C   0  0  0  0  0  1  0  0  0  0  0  0
  185.6790  179.3330  141.8720 O   0  0  0  0  0  0  0  0  0  0  0  0
  2 14  1  1  0  0  0
  2 12  1  0  0  0  0
  3 15  1  0  0  0  0
  4 19  1  0  0  0  0
  4  1  2  0  0  0  0
  5  1  1  0  0  0  0
  6 17  1  0  0  0  0
  6  7  1  0  0  0  0
  7 11  2  0  0  0  0
  7 10  1  0  0  0  0
  8 10  1  0  0  0  0
  9 20  1  6  0  0  0
  9  3  1  0  0  0  0
 10  5  2  0  0  0  0
 11  4  1  0  0  0  0
 16 12  1  0  0  0  0
 16 22  1  1  0  0  0
 17 13  1  1  0  0  0
 17  8  1  0  0  0  0
 18  1  1  6  0  0  0
 18  2  1  0  0  0  0
 18 23  1  0  0  0  0
 21 19  1  1  0  0  0
 21  9  1  0  0  0  0
 23 15  1  6  0  0  0
 23 16  1  0  0  0  0
 23 22  1  0  0  0  0
 24 29  1  1  0  0  0
 24 30  1  0  0  0  0
 25 26  1  1  0  0  0
 25 21  1  0  0  0  0
 27 24  1  0  0  0  0
 27 28  1  0  0  0  0
 28 26  1  0  0  0  0
 30 25  1  0  0  0  0
M  END
>  <MODEL>
2

>  <REMARK>
 VINA RESULT:      -9.0      3.421      6.077
  Name = 
  1 active torsions:
  status: ('A' for Active; 'I' for Inactive)
    1  A    between atoms: C_10  and  C_25
                            x       y       z     vdW  Elec       q    Type
                         _______ _______ _______ _____ _____    ______ ____

>  <TORSDO>
F 1

$$$$
=
 OpenBabel10262421423D

 30 35  0  0  1  0  0  0  0  0999 V2000
  189.3920  177.0080  143.8200 C   0  0  0  0  0  0  0  0  0  0  0  0
  191.5160  176.4010  145.0690 C   0  0  1  0  0  3  0  0  0  0  0  0
  187.4290  177.8680  147.1890 C   0  0  0  0  0  2  0  0  0  0  0  0
  188.0050  176.8780  143.5120 C   0  0  0  0  0  0  0  0  0  0  0  0
  190.2640  177.4240  142.7870 C   0  0  0  0  0  3  0  0  0  0  0  0
  188.0210  177.8770  139.5330 S   0  0  0  0  0  0  0  0  0  0  0  0
  188.4420  177.5120  141.2230 C   0  0  0  0  0  0  0  0  0  0  0  0
  190.5700  178.0650  140.4130 N   0  0  0  0  0  2  0  0  0  0  0  0
  186.1780  178.2450  146.4050 C   0  0  1  0  0  3  0  0  0  0  0  0
  189.7660  177.6900  141.5150 C   0  0  0  0  0  0  0  0  0  0  0  0
  187.5430  177.1210  142.2040 C   0  0  0  0  0  3  0  0  0  0  0  0
  192.0560  176.7490  146.3790 N   0  0  0  0  0  2  0  0  0  0  0  0
  190.3060  177.1970  138.1540 C   0  0  0  0  0  1  0  0  0  0  0  0
  191.9770  175.0770  144.6790 N   0  0  0  0  0  1  0  0  0  0  0  0
  188.7100  178.3790  146.5360 C   0  0  0  0  0  2  0  0  0  0  0  0
  191.0280  177.5030  147.0850 C   0  0  2  0  0  3  0  0  0  0  0  0
  189.8010  178.1970  139.1780 C   0  0  1  0  0  3  0  0  0  0  0  0
  189.9910  176.4660  145.1230 C   0  0  1  0  0  3  0  0  0  0  0  0
  186.9680  176.6550  144.5630 C   0  0  0  0  0  2  0  0  0  0  0  0
  185.8510  179.5780  146.6570 O   0  0  0  0  0  1  0  0  0  0  0  0
  186.3260  178.0050  144.8980 C   0  0  1  0  0  3  0  0  0  0  0  0
  190.0440  176.5310  147.7180 C   0  0  0  0  0  2  0  0  0  0  0  0
  189.7030  177.2330  146.4110 C   0  0  2  0  0  0  0  0  0  0  0  0
  184.0910  179.3780  142.3400 C   0  0  2  0  0  3  0  0  0  0  0  0
  185.0370  178.2310  144.1030 C   0  0  1  0  0  3  0  0  0  0  0  0
  183.7950  178.3060  145.0080 C   0  0  0  0  0  2  0  0  0  0  0  0
  182.7060  179.3600  143.0050 C   0  0  0  0  0  2  0  0  0  0  0  0
  182.8190  179.3780  144.5270 C   0  0  0  0  0  2  0  0  0  0  0  0
  184.2140  178.2790  141.2880 C   0  0  0  0  0  1  0  0  0  0  0  0
  185.1700  179.3620  143.2620 O   0  0  0  0  0  0  0  0  0  0  0  0
  2 14  1  1  0  0  0
  2 18  1  0  0  0  0
  2 12  1  0  0  0  0
  4  1  1  0  0  0  0
  4 19  1  0  0  0  0
  5  1  2  0  0  0  0
  6  7  1  0  0  0  0
  7 10  2  0  0  0  0
  7 11  1  0  0  0  0
  8 10  1  0  0  0  0
  9 20  1  6  0  0  0
  9  3  1  0  0  0  0
 10  5  1  0  0  0  0
 11  4  2  0  0  0  0
 12 16  1  0  0  0  0
 15  3  1  0  0  0  0
 16 22  1  1  0  0  0
 17 13  1  6  0  0  0
 17  6  1  0  0  0  0
 17  8  1  0  0  0  0
 18  1  1  6  0  0  0
 18 23  1  0  0  0  0
 21 19  1  1  0  0  0
 21  9  1  0  0  0  0
 23 15  1  6  0  0  0
 23 16  1  0  0  0  0
 23 22  1  0  0  0  0
 24 29  1  6  0  0  0
 24 27  1  0  0  0  0
 24 30  1  0  0  0  0
 25 21  1  0  0  0  0
 25 26  1  1  0  0  0
 27 28  1  0  0  0  0
 28 26  1  0  0  0  0
 30 25  1  0  0  0  0
M  END
>  <MODEL>
3

>  <REMARK>
 VINA RESULT:      -9.0      3.270      6.188
  Name = 
  1 active torsions:
  status: ('A' for Active; 'I' for Inactive)
    1  A    between atoms: C_10  and  C_25
                            x       y       z     vdW  Elec       q    Type
                         _______ _______ _______ _____ _____    ______ ____

>  <TORSDO>
F 1

$$$$
=
 OpenBabel10262421423D

 30 35  0  0  1  0  0  0  0  0999 V2000
  187.3240  177.8640  141.4010 C   0  0  0  0  0  0  0  0  0  0  0  0
  187.0590  178.2300  138.9040 C   0  0  1  0  0  3  0  0  0  0  0  0
  191.2660  177.3100  141.0960 C   0  0  0  0  0  2  0  0  0  0  0  0
  187.7060  177.1140  142.5530 C   0  0  0  0  0  0  0  0  0  0  0  0
  186.2320  178.7560  141.5230 C   0  0  0  0  0  3  0  0  0  0  0  0
  184.9080  178.4100  145.2590 S   0  0  0  0  0  0  0  0  0  0  0  0
  185.9100  178.1170  143.8180 C   0  0  0  0  0  0  0  0  0  0  0  0
  184.4350  179.7110  142.9370 N   0  0  0  0  0  2  0  0  0  0  0  0
  191.3900  177.1160  142.6030 C   0  0  1  0  0  3  0  0  0  0  0  0
  185.5630  178.8810  142.7380 C   0  0  0  0  0  0  0  0  0  0  0  0
  186.9820  177.2410  143.7550 C   0  0  0  0  0  3  0  0  0  0  0  0
  187.9630  178.6550  137.8420 N   0  0  0  0  0  2  0  0  0  0  0  0
  182.4540  179.0680  144.1960 C   0  0  0  0  0  1  0  0  0  0  0  0
  186.0400  177.3420  138.3640 N   0  0  0  0  0  1  0  0  0  0  0  0
  190.3120  178.4410  140.7240 C   0  0  0  0  0  2  0  0  0  0  0  0
  189.2990  178.7400  138.4160 C   0  0  2  0  0  3  0  0  0  0  0  0
  183.8770  179.5850  144.2820 C   0  0  1  0  0  3  0  0  0  0  0  0
  187.8670  177.5450  140.0050 C   0  0  1  0  0  3  0  0  0  0  0  0
  188.9630  176.3100  142.6040 C   0  0  0  0  0  2  0  0  0  0  0  0
  192.2380  178.0910  143.1310 O   0  0  0  0  0  1  0  0  0  0  0  0
  190.0350  177.1380  143.3190 C   0  0  1  0  0  3  0  0  0  0  0  0
  189.9240  177.3540  138.4310 C   0  0  0  0  0  2  0  0  0  0  0  0
  189.3100  177.9370  139.6960 C   0  0  2  0  0  0  0  0  0  0  0  0
  189.8200  177.6150  146.9450 C   0  0  2  0  0  3  0  0  0  0  0  0
  190.1150  176.7960  144.8090 C   0  0  1  0  0  3  0  0  0  0  0  0
  191.3460  175.9400  145.1500 C   0  0  0  0  0  2  0  0  0  0  0  0
  190.8870  176.6650  147.5110 C   0  0  0  0  0  2  0  0  0  0  0  0
  191.9700  176.3650  146.4780 C   0  0  0  0  0  2  0  0  0  0  0  0
  188.4140  177.0730  147.1830 C   0  0  0  0  0  1  0  0  0  0  0  0
  190.0350  177.9750  145.5890 O   0  0  0  0  0  0  0  0  0  0  0  0
  1  5  2  0  0  0  0
  1  4  1  0  0  0  0
  2 14  1  6  0  0  0
  2 18  1  0  0  0  0
  3  9  1  0  0  0  0
  4 19  1  0  0  0  0
  4 11  2  0  0  0  0
  5 10  1  0  0  0  0
  7  6  1  0  0  0  0
  8 17  1  0  0  0  0
  9 20  1  1  0  0  0
  9 21  1  0  0  0  0
 10  8  1  0  0  0  0
 10  7  2  0  0  0  0
 11  7  1  0  0  0  0
 12 16  1  0  0  0  0
 12  2  1  0  0  0  0
 15  3  1  0  0  0  0
 16 22  1  6  0  0  0
 16 23  1  0  0  0  0
 17 13  1  6  0  0  0
 17  6  1  0  0  0  0
 18  1  1  1  0  0  0
 21 19  1  6  0  0  0
 21 25  1  0  0  0  0
 23 22  1  6  0  0  0
 23 18  1  0  0  0  0
 23 15  1  0  0  0  0
 24 29  1  6  0  0  0
 24 27  1  0  0  0  0
 25 26  1  6  0  0  0
 25 30  1  0  0  0  0
 26 28  1  0  0  0  0
 28 27  1  0  0  0  0
 30 24  1  0  0  0  0
M  END
>  <MODEL>
4

>  <REMARK>
 VINA RESULT:      -8.6      2.753      5.967
  Name = 
  1 active torsions:
  status: ('A' for Active; 'I' for Inactive)
    1  A    between atoms: C_10  and  C_25
                            x       y       z     vdW  Elec       q    Type
                         _______ _______ _______ _____ _____    ______ ____

>  <TORSDO>
F 1

$$$$
=
 OpenBabel10262421423D

 30 35  0  0  1  0  0  0  0  0999 V2000
  188.1380  177.4180  141.1610 C   0  0  0  0  0  0  0  0  0  0  0  0
  188.7110  177.3220  138.6900 C   0  0  1  0  0  3  0  0  0  0  0  0
  191.9590  177.0470  142.2580 C   0  0  0  0  0  2  0  0  0  0  0  0
  188.1170  176.9060  142.4920 C   0  0  0  0  0  0  0  0  0  0  0  0
  187.0700  178.2530  140.7550 C   0  0  0  0  0  3  0  0  0  0  0  0
  184.5880  178.4940  143.8550 S   0  0  0  0  0  0  0  0  0  0  0  0
  186.0070  178.0110  142.8980 C   0  0  0  0  0  0  0  0  0  0  0  0
  184.9110  179.3360  141.3070 N   0  0  0  0  0  2  0  0  0  0  0  0
  191.5790  177.1300  143.7320 C   0  0  1  0  0  3  0  0  0  0  0  0
  186.0380  178.5500  141.6410 C   0  0  0  0  0  0  0  0  0  0  0  0
  187.0380  177.2000  143.3490 C   0  0  0  0  0  3  0  0  0  0  0  0
  189.9160  177.6050  137.9190 N   0  0  0  0  0  2  0  0  0  0  0  0
  182.6230  178.8110  141.9520 C   0  0  0  0  0  1  0  0  0  0  0  0
  187.9240  176.2960  138.0240 N   0  0  0  0  0  1  0  0  0  0  0  0
  191.1840  178.0390  141.3940 C   0  0  0  0  0  2  0  0  0  0  0  0
  190.9890  177.8670  138.8690 C   0  0  2  0  0  3  0  0  0  0  0  0
  183.9410  179.4170  142.3960 C   0  0  1  0  0  3  0  0  0  0  0  0
  189.1100  176.8900  140.1010 C   0  0  1  0  0  3  0  0  0  0  0  0
  189.2840  176.1970  143.0970 C   0  0  0  0  0  2  0  0  0  0  0  0
  192.2090  178.2300  144.3170 O   0  0  0  0  0  1  0  0  0  0  0  0
  190.0640  177.1990  143.9540 C   0  0  1  0  0  3  0  0  0  0  0  0
  191.5690  176.5430  139.3430 C   0  0  0  0  0  2  0  0  0  0  0  0
  190.5750  177.3040  140.2090 C   0  0  2  0  0  0  0  0  0  0  0  0
  188.6040  178.2670  147.1390 C   0  0  2  0  0  3  0  0  0  0  0  0
  189.6470  177.1300  145.4250 C   0  0  1  0  0  3  0  0  0  0  0  0
  190.7280  176.4900  146.3120 C   0  0  0  0  0  2  0  0  0  0  0  0
  189.4580  177.5540  148.2000 C   0  0  0  0  0  2  0  0  0  0  0  0
  190.8410  177.2050  147.6570 C   0  0  0  0  0  2  0  0  0  0  0  0
  187.2280  177.6190  147.0110 C   0  0  0  0  0  1  0  0  0  0  0  0
  189.2500  178.4090  145.8840 O   0  0  0  0  0  0  0  0  0  0  0  0
  1  4  1  0  0  0  0
  2 14  1  6  0  0  0
  2 18  1  0  0  0  0
  3  9  1  0  0  0  0
  4 19  1  0  0  0  0
  4 11  2  0  0  0  0
  5  1  2  0  0  0  0
  5 10  1  0  0  0  0
  7 11  1  0  0  0  0
  7  6  1  0  0  0  0
  8 10  1  0  0  0  0
  8 17  1  0  0  0  0
  9 21  1  0  0  0  0
  9 20  1  6  0  0  0
 10  7  2  0  0  0  0
 12  2  1  0  0  0  0
 12 16  1  0  0  0  0
 15  3  1  0  0  0  0
 16 22  1  6  0  0  0
 16 23  1  0  0  0  0
 17 13  1  6  0  0  0
 17  6  1  0  0  0  0
 18 23  1  0  0  0  0
 18  1  1  1  0  0  0
 21 19  1  6  0  0  0
 21 25  1  0  0  0  0
 23 22  1  1  0  0  0
 23 15  1  0  0  0  0
 24 29  1  6  0  0  0
 24 27  1  0  0  0  0
 25 30  1  0  0  0  0
 25 26  1  1  0  0  0
 26 28  1  0  0  0  0
 28 27  1  0  0  0  0
 30 24  1  0  0  0  0
M  END
>  <MODEL>
5

>  <REMARK>
 VINA RESULT:      -8.3      2.877      6.151
  Name = 
  1 active torsions:
  status: ('A' for Active; 'I' for Inactive)
    1  A    between atoms: C_10  and  C_25
                            x       y       z     vdW  Elec       q    Type
                         _______ _______ _______ _____ _____    ______ ____

>  <TORSDO>
F 1

$$$$
=
 OpenBabel10262421423D

 30 35  0  0  1  0  0  0  0  0999 V2000
  188.5470  178.1990  142.0060 C   0  0  0  0  0  0  0  0  0  0  0  0
  190.4440  178.1010  143.6890 C   0  0  1  0  0  3  0  0  0  0  0  0
  190.8370  176.7930  139.0540 C   0  0  0  0  0  2  0  0  0  0  0  0
  187.9310  178.6270  140.7930 C   0  0  0  0  0  0  0  0  0  0  0  0
  187.7110  177.9410  143.1180 C   0  0  0  0  0  3  0  0  0  0  0  0
  183.9950  178.7420  141.9440 S   0  0  0  0  0  0  0  0  0  0  0  0
  185.7640  178.5690  141.8570 C   0  0  0  0  0  0  0  0  0  0  0  0
  185.4290  177.9190  144.0840 N   0  0  0  0  0  2  0  0  0  0  0  0
  189.6690  176.8460  138.0760 C   0  0  1  0  0  3  0  0  0  0  0  0
  186.3330  178.1090  143.0120 C   0  0  0  0  0  0  0  0  0  0  0  0
  186.5370  178.8210  140.7340 C   0  0  0  0  0  3  0  0  0  0  0  0
  191.6800  177.3330  143.7770 N   0  0  0  0  0  2  0  0  0  0  0  0
  183.5560  179.3910  144.5840 C   0  0  0  0  0  1  0  0  0  0  0  0
  190.6120  179.3900  144.3440 N   0  0  0  0  0  1  0  0  0  0  0  0
  190.4300  176.2770  140.4310 C   0  0  0  0  0  2  0  0  0  0  0  0
  191.8220  176.5920  142.5300 C   0  0  2  0  0  3  0  0  0  0  0  0
  184.0520  178.2480  143.7190 C   0  0  1  0  0  3  0  0  0  0  0  0
  190.0630  178.2690  142.2190 C   0  0  1  0  0  3  0  0  0  0  0  0
  188.6800  178.7230  139.5050 C   0  0  0  0  0  2  0  0  0  0  0  0
  189.4080  175.5640  137.5900 O   0  0  0  0  0  1  0  0  0  0  0  0
  188.4040  177.4540  138.6930 C   0  0  1  0  0  3  0  0  0  0  0  0
  192.4300  177.5030  141.4760 C   0  0  0  0  0  2  0  0  0  0  0  0
  190.9300  177.2410  141.4970 C   0  0  2  0  0  0  0  0  0  0  0  0
  185.3310  176.7400  136.8320 C   0  0  2  0  0  3  0  0  0  0  0  0
  187.2620  177.6580  137.6940 C   0  0  1  0  0  3  0  0  0  0  0  0
  187.7480  178.2530  136.3610 C   0  0  0  0  0  2  0  0  0  0  0  0
  185.5420  177.4380  135.4790 C   0  0  0  0  0  2  0  0  0  0  0  0
  187.0260  177.6210  135.1730 C   0  0  0  0  0  2  0  0  0  0  0  0
  184.3330  177.5030  137.6980 C   0  0  0  0  0  1  0  0  0  0  0  0
  186.5360  176.4550  137.5240 O   0  0  0  0  0  0  0  0  0  0  0  0
  1  5  1  0  0  0  0
  2 12  1  0  0  0  0
  2 14  1  6  0  0  0
  3 15  1  0  0  0  0
  4  1  2  0  0  0  0
  6 17  1  0  0  0  0
  7  6  1  0  0  0  0
  7 10  1  0  0  0  0
  9 20  1  1  0  0  0
  9 21  1  0  0  0  0
  9  3  1  0  0  0  0
 10  5  2  0  0  0  0
 10  8  1  0  0  0  0
 11  4  1  0  0  0  0
 11  7  2  0  0  0  0
 16 22  1  6  0  0  0
 16 12  1  0  0  0  0
 17  8  1  0  0  0  0
 17 13  1  1  0  0  0
 18  1  1  1  0  0  0
 18  2  1  0  0  0  0
 19  4  1  0  0  0  0
 21 19  1  6  0  0  0
 22 23  1  0  0  0  0
 23 15  1  6  0  0  0
 23 18  1  0  0  0  0
 23 16  1  0  0  0  0
 24 30  1  0  0  0  0
 24 29  1  1  0  0  0
 25 26  1  6  0  0  0
 25 21  1  0  0  0  0
 27 24  1  0  0  0  0
 28 27  1  0  0  0  0
 28 26  1  0  0  0  0
 30 25  1  0  0  0  0
M  END
>  <MODEL>
6

>  <REMARK>
 VINA RESULT:      -7.9      2.268      3.946
  Name = 
  1 active torsions:
  status: ('A' for Active; 'I' for Inactive)
    1  A    between atoms: C_10  and  C_25
                            x       y       z     vdW  Elec       q    Type
                         _______ _______ _______ _____ _____    ______ ____

>  <TORSDO>
F 1

$$$$
=
 OpenBabel10262421423D

 30 35  0  0  1  0  0  0  0  0999 V2000
  187.3750  178.2390  144.4440 C   0  0  0  0  0  0  0  0  0  0  0  0
  186.6360  178.2870  146.8720 C   0  0  1  0  0  3  0  0  0  0  0  0
  191.0100  176.8770  145.3790 C   0  0  0  0  0  2  0  0  0  0  0  0
  188.2230  178.6010  143.3560 C   0  0  0  0  0  0  0  0  0  0  0  0
  186.0150  177.9670  144.1640 C   0  0  0  0  0  3  0  0  0  0  0  0
  185.5360  178.5380  140.2560 S   0  0  0  0  0  0  0  0  0  0  0  0
  186.3520  178.4560  141.8350 C   0  0  0  0  0  0  0  0  0  0  0  0
  184.1870  177.8500  142.4950 N   0  0  0  0  0  2  0  0  0  0  0  0
  191.4120  176.8410  143.9090 C   0  0  1  0  0  3  0  0  0  0  0  0
  185.5380  178.0590  142.8590 C   0  0  0  0  0  0  0  0  0  0  0  0
  187.6960  178.7180  142.0550 C   0  0  0  0  0  3  0  0  0  0  0  0
  187.0690  177.5880  148.0760 N   0  0  0  0  0  2  0  0  0  0  0  0
  182.9550  179.2340  140.9160 C   0  0  0  0  0  1  0  0  0  0  0  0
  186.1140  179.6000  147.2200 N   0  0  0  0  0  1  0  0  0  0  0  0
  189.5870  176.3780  145.6130 C   0  0  0  0  0  2  0  0  0  0  0  0
  188.2590  176.8220  147.7300 C   0  0  2  0  0  3  0  0  0  0  0  0
  183.9450  178.0960  141.0750 C   0  0  1  0  0  3  0  0  0  0  0  0
  187.8130  178.3940  145.9050 C   0  0  1  0  0  3  0  0  0  0  0  0
  189.7060  178.7010  143.4940 C   0  0  0  0  0  2  0  0  0  0  0  0
  191.7420  175.5340  143.5460 O   0  0  0  0  0  1  0  0  0  0  0  0
  190.3260  177.3980  142.9820 C   0  0  1  0  0  3  0  0  0  0  0  0
  189.4740  177.7350  147.7890 C   0  0  0  0  0  2  0  0  0  0  0  0
  188.8280  177.3950  146.4530 C   0  0  2  0  0  0  0  0  0  0  0  0
  190.5560  176.5850  139.4170 C   0  0  2  0  0  3  0  0  0  0  0  0
  190.7590  177.5140  141.5180 C   0  0  1  0  0  3  0  0  0  0  0  0
  192.2470  177.8780  141.3730 C   0  0  0  0  0  2  0  0  0  0  0  0
  191.9600  177.0640  139.0140 C   0  0  0  0  0  2  0  0  0  0  0  0
  192.8960  177.1180  140.2180 C   0  0  0  0  0  2  0  0  0  0  0  0
  189.4780  177.5210  138.8790 C   0  0  0  0  0  1  0  0  0  0  0  0
  190.4110  176.3400  140.8070 O   0  0  0  0  0  0  0  0  0  0  0  0
  2 14  1  1  0  0  0
  2 12  1  0  0  0  0
  3 15  1  0  0  0  0
  4 19  1  0  0  0  0
  4  1  2  0  0  0  0
  5  1  1  0  0  0  0
  6 17  1  0  0  0  0
  6  7  1  0  0  0  0
  7 11  2  0  0  0  0
  7 10  1  0  0  0  0
  8 10  1  0  0  0  0
  9 20  1  6  0  0  0
  9  3  1  0  0  0  0
 10  5  2  0  0  0  0
 11  4  1  0  0  0  0
 16 22  1  1  0  0  0
 16 12  1  0  0  0  0
 17 13  1  1  0  0  0
 17  8  1  0  0  0  0
 18  1  1  6  0  0  0
 18 23  1  0  0  0  0
 18  2  1  0  0  0  0
 21 19  1  1  0  0  0
 21  9  1  0  0  0  0
 23 15  1  6  0  0  0
 23 16  1  0  0  0  0
 23 22  1  0  0  0  0
 24 29  1  1  0  0  0
 24 30  1  0  0  0  0
 25 26  1  1  0  0  0
 25 21  1  0  0  0  0
 27 24  1  0  0  0  0
 27 28  1  0  0  0  0
 28 26  1  0  0  0  0
 30 25  1  0  0  0  0
M  END
>  <MODEL>
7

>  <REMARK>
 VINA RESULT:      -7.8      1.668      2.471
  Name = 
  1 active torsions:
  status: ('A' for Active; 'I' for Inactive)
    1  A    between atoms: C_10  and  C_25
                            x       y       z     vdW  Elec       q    Type
                         _______ _______ _______ _____ _____    ______ ____

>  <TORSDO>
F 1

$$$$
=
 OpenBabel10262421423D

 30 35  0  0  1  0  0  0  0  0999 V2000
  186.3060  178.4950  140.2520 C   0  0  0  0  0  0  0  0  0  0  0  0
  183.9230  179.1170  139.6400 C   0  0  1  0  0  3  0  0  0  0  0  0
  185.4470  178.2530  144.1430 C   0  0  0  0  0  2  0  0  0  0  0  0
  187.5420  178.6790  140.9400 C   0  0  0  0  0  0  0  0  0  0  0  0
  186.3420  177.8780  138.9790 C   0  0  0  0  0  3  0  0  0  0  0  0
  190.1710  177.1380  138.1930 S   0  0  0  0  0  0  0  0  0  0  0  0
  188.7370  177.7040  139.0810 C   0  0  0  0  0  0  0  0  0  0  0  0
  187.6900  176.8930  137.1480 N   0  0  0  0  0  2  0  0  0  0  0  0
  186.8840  177.8610  144.4710 C   0  0  1  0  0  3  0  0  0  0  0  0
  187.5560  177.4740  138.4310 C   0  0  0  0  0  0  0  0  0  0  0  0
  188.7550  178.2900  140.3370 C   0  0  0  0  0  3  0  0  0  0  0  0
  182.6280  178.9160  140.2800 N   0  0  0  0  0  2  0  0  0  0  0  0
  189.4430  177.4550  135.5550 C   0  0  0  0  0  1  0  0  0  0  0  0
  183.9020  180.3370  138.8480 N   0  0  0  0  0  1  0  0  0  0  0  0
  184.9220  177.5660  142.8860 C   0  0  0  0  0  2  0  0  0  0  0  0
  182.8780  178.3430  141.5960 C   0  0  2  0  0  3  0  0  0  0  0  0
  189.0840  176.6460  136.7870 C   0  0  1  0  0  3  0  0  0  0  0  0
  185.0090  179.1680  140.7130 C   0  0  1  0  0  3  0  0  0  0  0  0
  187.6080  179.1180  142.3660 C   0  0  0  0  0  2  0  0  0  0  0  0
  186.8990  176.6020  145.0750 O   0  0  0  0  0  1  0  0  0  0  0  0
  187.8000  177.8780  143.2430 C   0  0  1  0  0  3  0  0  0  0  0  0
  183.2180  179.4610  142.5700 C   0  0  0  0  0  2  0  0  0  0  0  0
  184.3210  178.6100  141.9560 C   0  0  2  0  0  0  0  0  0  0  0  0
  191.0720  176.2300  143.2180 C   0  0  2  0  0  3  0  0  0  0  0  0
  189.2770  177.6360  143.5660 C   0  0  1  0  0  3  0  0  0  0  0  0
  189.6140  177.9430  145.0350 C   0  0  0  0  0  2  0  0  0  0  0  0
  191.6810  176.5870  144.5840 C   0  0  0  0  0  2  0  0  0  0  0  0
  190.5970  176.9220  145.6060 C   0  0  0  0  0  2  0  0  0  0  0  0
  191.7380  177.0180  142.0940 C   0  0  0  0  0  1  0  0  0  0  0  0
  189.6570  176.3280  143.1790 O   0  0  0  0  0  0  0  0  0  0  0  0
  1  4  1  0  0  0  0
  2 14  1  1  0  0  0
  2 12  1  0  0  0  0
  2 18  1  0  0  0  0
  3  9  1  0  0  0  0
  4 19  1  0  0  0  0
  5  1  2  0  0  0  0
  6  7  1  0  0  0  0
  7 11  1  0  0  0  0
  8 10  1  0  0  0  0
  9 20  1  6  0  0  0
 10  5  1  0  0  0  0
 10  7  2  0  0  0  0
 11  4  2  0  0  0  0
 12 16  1  0  0  0  0
 15  3  1  0  0  0  0
 16 23  1  0  0  0  0
 16 22  1  1  0  0  0
 17 13  1  6  0  0  0
 17  8  1  0  0  0  0
 17  6  1  0  0  0  0
 18  1  1  6  0  0  0
 18 23  1  0  0  0  0
 21 19  1  1  0  0  0
 21 25  1  0  0  0  0
 21  9  1  0  0  0  0
 23 22  1  1  0  0  0
 23 15  1  0  0  0  0
 24 29  1  6  0  0  0
 24 27  1  0  0  0  0
 25 26  1  1  0  0  0
 26 28  1  0  0  0  0
 27 28  1  0  0  0  0
 30 24  1  0  0  0  0
 30 25  1  0  0  0  0
M  END
>  <MODEL>
8

>  <REMARK>
 VINA RESULT:      -7.7      2.616      5.607
  Name = 
  1 active torsions:
  status: ('A' for Active; 'I' for Inactive)
    1  A    between atoms: C_10  and  C_25
                            x       y       z     vdW  Elec       q    Type
                         _______ _______ _______ _____ _____    ______ ____

>  <TORSDO>
F 1

$$$$
=
 OpenBabel10262421423D

 30 35  0  0  1  0  0  0  0  0999 V2000
  185.4970  178.4080  142.5540 C   0  0  0  0  0  0  0  0  0  0  0  0
  184.7110  178.7830  144.9380 C   0  0  1  0  0  3  0  0  0  0  0  0
  189.1160  177.2020  143.7330 C   0  0  0  0  0  2  0  0  0  0  0  0
  186.3650  178.6220  141.4420 C   0  0  0  0  0  0  0  0  0  0  0  0
  184.1430  178.0940  142.2870 C   0  0  0  0  0  3  0  0  0  0  0  0
  183.7390  178.1250  138.3300 S   0  0  0  0  0  0  0  0  0  0  0  0
  184.5240  178.2630  139.9200 C   0  0  0  0  0  0  0  0  0  0  0  0
  182.3480  177.7430  140.6160 N   0  0  0  0  0  2  0  0  0  0  0  0
  189.5460  176.9670  142.2900 C   0  0  1  0  0  3  0  0  0  0  0  0
  183.6910  178.0050  140.9730 C   0  0  0  0  0  0  0  0  0  0  0  0
  185.8630  178.5590  140.1270 C   0  0  0  0  0  3  0  0  0  0  0  0
  185.1220  178.2560  146.2340 N   0  0  0  0  0  2  0  0  0  0  0  0
  181.1440  178.8940  138.8400 C   0  0  0  0  0  1  0  0  0  0  0  0
  184.1810  180.1290  145.0930 N   0  0  0  0  0  1  0  0  0  0  0  0
  187.6890  176.7330  144.0060 C   0  0  0  0  0  2  0  0  0  0  0  0
  186.3200  177.4560  146.0180 C   0  0  2  0  0  3  0  0  0  0  0  0
  182.1330  177.7930  139.1710 C   0  0  1  0  0  3  0  0  0  0  0  0
  185.9070  178.7630  143.9870 C   0  0  1  0  0  3  0  0  0  0  0  0
  187.8450  178.7460  141.5930 C   0  0  0  0  0  2  0  0  0  0  0  0
  189.8850  175.6250  142.1150 O   0  0  0  0  0  1  0  0  0  0  0  0
  188.4770  177.3880  141.2750 C   0  0  1  0  0  3  0  0  0  0  0  0
  187.5320  178.3740  145.9750 C   0  0  0  0  0  2  0  0  0  0  0  0
  186.9130  177.8520  144.6850 C   0  0  2  0  0  0  0  0  0  0  0  0
  190.7740  177.1370  138.4320 C   0  0  2  0  0  3  0  0  0  0  0  0
  188.9380  177.3060  139.8170 C   0  0  1  0  0  3  0  0  0  0  0  0
  188.1480  178.2530  138.8980 C   0  0  0  0  0  2  0  0  0  0  0  0
  190.0540  177.8900  137.3020 C   0  0  0  0  0  2  0  0  0  0  0  0
  189.0560  178.9040  137.8560 C   0  0  0  0  0  2  0  0  0  0  0  0
  190.7280  175.6290  138.2080 C   0  0  0  0  0  1  0  0  0  0  0  0
  190.3370  177.5010  139.7320 O   0  0  0  0  0  0  0  0  0  0  0  0
  2 14  1  1  0  0  0
  2 12  1  0  0  0  0
  3 15  1  0  0  0  0
  4 19  1  0  0  0  0
  4  1  2  0  0  0  0
  5  1  1  0  0  0  0
  6 17  1  0  0  0  0
  6  7  1  0  0  0  0
  7 11  2  0  0  0  0
  7 10  1  0  0  0  0
  8 10  1  0  0  0  0
  9 20  1  1  0  0  0
  9  3  1  0  0  0  0
 10  5  2  0  0  0  0
 11  4  1  0  0  0  0
 16 22  1  1  0  0  0
 16 12  1  0  0  0  0
 17 13  1  1  0  0  0
 17  8  1  0  0  0  0
 18  1  1  6  0  0  0
 18 23  1  0  0  0  0
 18  2  1  0  0  0  0
 21 19  1  1  0  0  0
 21  9  1  0  0  0  0
 23 15  1  6  0  0  0
 23 22  1  0  0  0  0
 23 16  1  0  0  0  0
 24 29  1  6  0  0  0
 24 30  1  0  0  0  0
 25 26  1  6  0  0  0
 25 21  1  0  0  0  0
 27 28  1  0  0  0  0
 27 24  1  0  0  0  0
 28 26  1  0  0  0  0
 30 25  1  0  0  0  0
M  END
>  <MODEL>
9

>  <REMARK>
 VINA RESULT:      -7.4      1.000      1.428
  Name = 
  1 active torsions:
  status: ('A' for Active; 'I' for Inactive)
    1  A    between atoms: C_10  and  C_25
                            x       y       z     vdW  Elec       q    Type
                         _______ _______ _______ _____ _____    ______ ____

>  <TORSDO>
F 1

$$$$
