=
 OpenBabel10262419593D

 27 32  0  0  1  0  0  0  0  0999 V2000
  189.4410  177.8900  137.0160 C   0  0  0  0  0  2  0  0  0  0  0  0
  188.3470  177.6360  139.2280 C   0  0  0  0  0  0  0  0  0  0  0  0
  190.6290  176.6140  139.3730 N   0  0  0  0  0  2  0  0  0  0  0  0
  188.7420  178.4760  143.3120 N   0  0  0  0  0  2  0  0  0  0  0  0
  190.9590  179.1410  144.0640 C   0  0  0  0  0  1  0  0  0  0  0  0
  187.2680  178.2620  139.8890 C   0  0  0  0  0  3  0  0  0  0  0  0
  190.6470  177.3820  142.3110 C   0  0  1  0  0  3  0  0  0  0  0  0
  191.5530  174.0290  136.8080 C   0  0  0  0  0  2  0  0  0  0  0  0
  190.8660  175.8930  142.5080 C   0  0  0  0  0  1  0  0  0  0  0  0
  190.9680  174.6330  135.5140 C   0  0  2  0  0  3  0  0  0  0  0  0
  189.5520  177.6190  141.3280 C   0  0  0  0  0  0  0  0  0  0  0  0
  188.2890  177.4480  137.8020 N   0  0  0  0  0  0  0  0  0  0  0  0
  190.0850  177.9860  143.6170 C   0  0  2  0  0  3  0  0  0  0  0  0
  188.4980  178.2310  141.9430 C   0  0  0  0  0  0  0  0  0  0  0  0
  190.5130  176.8050  136.9170 C   0  0  2  0  0  3  0  0  0  0  0  0
  189.5160  177.2990  139.9650 C   0  0  0  0  0  0  0  0  0  0  0  0
  191.7610  174.9890  137.9730 C   0  0  0  0  0  2  0  0  0  0  0  0
  187.3340  178.5600  141.2560 C   0  0  0  0  0  3  0  0  0  0  0  0
  191.7570  175.8260  135.0190 C   0  0  0  0  0  2  0  0  0  0  0  0
  190.3660  176.0470  135.5940 C   0  0  1  0  0  3  0  0  0  0  0  0
  190.5440  175.8690  138.1230 C   0  0  1  0  0  3  0  0  0  0  0  0
  184.9490  175.6780  135.8470 C   0  0  0  0  0  3  0  0  0  0  0  0
  187.1490  176.8460  137.1510 C   0  0  0  0  0  0  0  0  0  0  0  0
  186.9670  175.4530  137.1640 C   0  0  0  0  0  3  0  0  0  0  0  0
  185.8730  174.8730  136.5190 C   0  0  0  0  0  3  0  0  0  0  0  0
  185.1210  177.0640  135.8210 C   0  0  0  0  0  3  0  0  0  0  0  0
  186.2160  177.6440  136.4690 C   0  0  0  0  0  3  0  0  0  0  0  0
  1 12  1  0  0  0  0
  2  6  2  0  0  0  0
  2 16  1  0  0  0  0
  3 16  1  0  0  0  0
  4 13  1  0  0  0  0
  6 18  1  0  0  0  0
  7  9  1  1  0  0  0
  7 13  1  0  0  0  0
  8 17  1  0  0  0  0
 10 19  1  6  0  0  0
 10 20  1  0  0  0  0
 10  8  1  0  0  0  0
 11 14  1  0  0  0  0
 11  7  1  0  0  0  0
 12  2  1  0  0  0  0
 13  5  1  6  0  0  0
 14  4  1  0  0  0  0
 15  1  1  1  0  0  0
 15 21  1  0  0  0  0
 16 11  2  0  0  0  0
 18 14  2  0  0  0  0
 20 19  1  6  0  0  0
 20 15  1  0  0  0  0
 21 17  1  6  0  0  0
 21  3  1  0  0  0  0
 22 25  1  0  0  0  0
 23 24  1  0  0  0  0
 23 12  1  0  0  0  0
 25 24  2  0  0  0  0
 26 22  2  0  0  0  0
 26 27  1  0  0  0  0
 27 23  2  0  0  0  0
M  END
>  <MODEL>
1

>  <REMARK>
 VINA RESULT:      -6.8      0.000      0.000
  Name = 
  1 active torsions:
  status: ('A' for Active; 'I' for Inactive)
    1  A    between atoms: C_9  and  N_15
                            x       y       z     vdW  Elec       q    Type
                         _______ _______ _______ _____ _____    ______ ____

>  <TORSDO>
F 1

$$$$
=
 OpenBabel10262419593D

 27 32  0  0  1  0  0  0  0  0999 V2000
  188.6770  178.6210  138.4570 C   0  0  0  0  0  2  0  0  0  0  0  0
  190.6080  177.2540  139.2050 C   0  0  0  0  0  0  0  0  0  0  0  0
  189.7710  176.2940  137.0490 N   0  0  0  0  0  2  0  0  0  0  0  0
  194.3830  175.8320  138.0810 N   0  0  0  0  0  2  0  0  0  0  0  0
  194.9320  175.9930  135.7150 C   0  0  0  0  0  1  0  0  0  0  0  0
  191.6860  177.4480  140.0950 C   0  0  0  0  0  3  0  0  0  0  0  0
  192.6230  175.4120  136.4830 C   0  0  1  0  0  3  0  0  0  0  0  0
  186.1230  175.4260  136.8190 C   0  0  0  0  0  2  0  0  0  0  0  0
  191.9820  174.0390  136.3920 C   0  0  0  0  0  1  0  0  0  0  0  0
  185.4600  176.6210  137.5350 C   0  0  2  0  0  3  0  0  0  0  0  0
  192.1280  176.1350  137.6900 C   0  0  0  0  0  0  0  0  0  0  0  0
  189.3280  177.8390  139.5080 N   0  0  0  0  0  0  0  0  0  0  0  0
  194.1320  175.2470  136.7650 C   0  0  2  0  0  3  0  0  0  0  0  0
  193.1570  176.3400  138.5640 C   0  0  0  0  0  0  0  0  0  0  0  0
  187.8350  177.7420  137.5330 C   0  0  2  0  0  3  0  0  0  0  0  0
  190.8290  176.5740  137.9760 C   0  0  0  0  0  0  0  0  0  0  0  0
  187.5520  175.6340  136.3290 C   0  0  0  0  0  2  0  0  0  0  0  0
  192.9710  176.9870  139.7810 C   0  0  0  0  0  3  0  0  0  0  0  0
  185.5070  177.8920  136.7150 C   0  0  0  0  0  2  0  0  0  0  0  0
  186.3660  177.7880  137.9670 C   0  0  1  0  0  3  0  0  0  0  0  0
  188.3590  176.3130  137.4080 C   0  0  1  0  0  3  0  0  0  0  0  0
  187.4210  177.3290  143.2780 C   0  0  0  0  0  3  0  0  0  0  0  0
  188.6910  177.6730  140.7940 C   0  0  0  0  0  0  0  0  0  0  0  0
  189.1250  176.6800  141.6880 C   0  0  0  0  0  3  0  0  0  0  0  0
  188.4960  176.5100  142.9230 C   0  0  0  0  0  3  0  0  0  0  0  0
  186.9750  178.3170  142.3970 C   0  0  0  0  0  3  0  0  0  0  0  0
  187.6060  178.4860  141.1610 C   0  0  0  0  0  3  0  0  0  0  0  0
  1 12  1  0  0  0  0
  2 12  1  0  0  0  0
  2  6  1  0  0  0  0
  3 21  1  0  0  0  0
  3 16  1  0  0  0  0
  4 14  1  0  0  0  0
  7  9  1  1  0  0  0
  7 13  1  0  0  0  0
  7 11  1  0  0  0  0
  8 10  1  0  0  0  0
 10 19  1  6  0  0  0
 10 20  1  0  0  0  0
 11 16  1  0  0  0  0
 11 14  2  0  0  0  0
 12 23  1  0  0  0  0
 13  5  1  6  0  0  0
 13  4  1  0  0  0  0
 14 18  1  0  0  0  0
 15 20  1  0  0  0  0
 15  1  1  1  0  0  0
 16  2  2  0  0  0  0
 17  8  1  0  0  0  0
 18  6  2  0  0  0  0
 20 19  1  6  0  0  0
 21 17  1  6  0  0  0
 21 15  1  0  0  0  0
 23 27  2  0  0  0  0
 23 24  1  0  0  0  0
 24 25  2  0  0  0  0
 25 22  1  0  0  0  0
 26 22  2  0  0  0  0
 27 26  1  0  0  0  0
M  END
>  <MODEL>
2

>  <REMARK>
 VINA RESULT:      -6.8      1.824      5.652
  Name = 
  1 active torsions:
  status: ('A' for Active; 'I' for Inactive)
    1  A    between atoms: C_9  and  N_15
                            x       y       z     vdW  Elec       q    Type
                         _______ _______ _______ _____ _____    ______ ____

>  <TORSDO>
F 1

$$$$
=
 OpenBabel10262419593D

 27 32  0  0  1  0  0  0  0  0999 V2000
  188.0590  176.1340  143.5760 C   0  0  0  0  0  2  0  0  0  0  0  0
  186.8070  177.7250  142.1410 C   0  0  0  0  0  0  0  0  0  0  0  0
  189.1810  177.6710  141.3440 N   0  0  0  0  0  2  0  0  0  0  0  0
  185.7640  178.6080  138.1830 N   0  0  0  0  0  2  0  0  0  0  0  0
  187.0480  177.4750  136.4540 C   0  0  0  0  0  1  0  0  0  0  0  0
  185.4450  177.9430  141.8430 C   0  0  0  0  0  3  0  0  0  0  0  0
  188.1260  178.2830  138.5620 C   0  0  1  0  0  3  0  0  0  0  0  0
  191.8890  178.2940  143.8720 C   0  0  0  0  0  2  0  0  0  0  0  0
  189.0550  179.4790  138.6760 C   0  0  0  0  0  1  0  0  0  0  0  0
  191.3800  177.5000  145.0940 C   0  0  2  0  0  3  0  0  0  0  0  0
  187.3280  178.1280  139.8120 C   0  0  0  0  0  0  0  0  0  0  0  0
  187.1800  177.2980  143.4650 N   0  0  0  0  0  0  0  0  0  0  0  0
  187.0520  178.5790  137.4930 C   0  0  2  0  0  3  0  0  0  0  0  0
  186.0030  178.3290  139.5460 C   0  0  0  0  0  0  0  0  0  0  0  0
  189.5350  176.5270  143.5000 C   0  0  2  0  0  3  0  0  0  0  0  0
  187.7750  177.8260  141.1040 C   0  0  0  0  0  0  0  0  0  0  0  0
  191.2850  177.9250  142.5220 C   0  0  0  0  0  2  0  0  0  0  0  0
  185.0330  178.2530  140.5400 C   0  0  0  0  0  3  0  0  0  0  0  0
  191.4980  176.0030  144.9080 C   0  0  0  0  0  2  0  0  0  0  0  0
  190.1160  176.6410  144.9130 C   0  0  1  0  0  3  0  0  0  0  0  0
  189.7900  177.7790  142.6640 C   0  0  1  0  0  3  0  0  0  0  0  0
  185.7900  179.2740  146.9680 C   0  0  0  0  0  3  0  0  0  0  0  0
  186.7180  177.9790  144.6510 C   0  0  0  0  0  0  0  0  0  0  0  0
  187.4270  177.8780  145.8600 C   0  0  0  0  0  3  0  0  0  0  0  0
  186.9680  178.5230  147.0100 C   0  0  0  0  0  3  0  0  0  0  0  0
  185.0710  179.3780  145.7750 C   0  0  0  0  0  3  0  0  0  0  0  0
  185.5320  178.7320  144.6230 C   0  0  0  0  0  3  0  0  0  0  0  0
  2 12  1  0  0  0  0
  3 21  1  0  0  0  0
  4 14  1  0  0  0  0
  6  2  1  0  0  0  0
  7  9  1  1  0  0  0
  7 11  1  0  0  0  0
 10  8  1  6  0  0  0
 11 16  1  0  0  0  0
 12  1  1  0  0  0  0
 12 23  1  0  0  0  0
 13  5  1  6  0  0  0
 13  4  1  0  0  0  0
 13  7  1  0  0  0  0
 14 11  2  0  0  0  0
 14 18  1  0  0  0  0
 15  1  1  1  0  0  0
 15 20  1  0  0  0  0
 16  3  1  0  0  0  0
 16  2  2  0  0  0  0
 17  8  1  0  0  0  0
 18  6  2  0  0  0  0
 19 10  1  0  0  0  0
 20 19  1  6  0  0  0
 20 10  1  0  0  0  0
 21 17  1  6  0  0  0
 21 15  1  0  0  0  0
 22 25  1  0  0  0  0
 23 24  1  0  0  0  0
 24 25  2  0  0  0  0
 26 22  2  0  0  0  0
 27 23  2  0  0  0  0
 27 26  1  0  0  0  0
M  END
>  <MODEL>
3

>  <REMARK>
 VINA RESULT:      -6.5      2.789      7.131
  Name = 
  1 active torsions:
  status: ('A' for Active; 'I' for Inactive)
    1  A    between atoms: C_9  and  N_15
                            x       y       z     vdW  Elec       q    Type
                         _______ _______ _______ _____ _____    ______ ____

>  <TORSDO>
F 1

$$$$
=
 OpenBabel10262419593D

 27 32  0  0  1  0  0  0  0  0999 V2000
  184.6270  179.5590  139.9720 C   0  0  0  0  0  2  0  0  0  0  0  0
  186.7840  178.3490  139.7690 C   0  0  0  0  0  0  0  0  0  0  0  0
  185.1810  177.3510  138.1230 N   0  0  0  0  0  2  0  0  0  0  0  0
  189.8150  177.2650  137.0890 N   0  0  0  0  0  2  0  0  0  0  0  0
  189.2940  177.5050  134.7240 C   0  0  0  0  0  1  0  0  0  0  0  0
  188.1210  178.6210  140.1280 C   0  0  0  0  0  3  0  0  0  0  0  0
  187.5760  176.7210  136.3650 C   0  0  1  0  0  3  0  0  0  0  0  0
  181.8510  176.1830  139.4120 C   0  0  0  0  0  2  0  0  0  0  0  0
  187.0560  175.3000  136.4870 C   0  0  0  0  0  1  0  0  0  0  0  0
  181.4720  177.3090  140.3990 C   0  0  2  0  0  3  0  0  0  0  0  0
  187.5920  177.3820  137.7010 C   0  0  0  0  0  0  0  0  0  0  0  0
  185.7160  178.8200  140.6120 N   0  0  0  0  0  0  0  0  0  0  0  0
  189.0700  176.6800  135.9760 C   0  0  2  0  0  3  0  0  0  0  0  0
  188.8770  177.6610  138.0680 C   0  0  0  0  0  0  0  0  0  0  0  0
  183.5360  178.6250  139.4490 C   0  0  2  0  0  3  0  0  0  0  0  0
  186.5100  177.7070  138.5290 C   0  0  0  0  0  0  0  0  0  0  0  0
  182.9180  176.5180  138.3760 C   0  0  0  0  0  2  0  0  0  0  0  0
  189.1810  178.2730  139.2800 C   0  0  0  0  0  3  0  0  0  0  0  0
  181.0770  178.5910  139.6980 C   0  0  0  0  0  2  0  0  0  0  0  0
  182.3920  178.5420  140.4630 C   0  0  1  0  0  3  0  0  0  0  0  0
  184.0570  177.2470  139.0450 C   0  0  1  0  0  3  0  0  0  0  0  0
  185.6960  178.1480  144.8140 C   0  0  0  0  0  3  0  0  0  0  0  0
  185.6980  178.5830  142.0360 C   0  0  0  0  0  0  0  0  0  0  0  0
  184.7740  179.2430  142.8630 C   0  0  0  0  0  3  0  0  0  0  0  0
  184.7720  179.0260  144.2420 C   0  0  0  0  0  3  0  0  0  0  0  0
  186.6250  177.4900  144.0040 C   0  0  0  0  0  3  0  0  0  0  0  0
  186.6270  177.7080  142.6230 C   0  0  0  0  0  3  0  0  0  0  0  0
  1 12  1  0  0  0  0
  2  6  1  0  0  0  0
  2 12  1  0  0  0  0
  3 16  1  0  0  0  0
  3 21  1  0  0  0  0
  4 14  1  0  0  0  0
  7  9  1  1  0  0  0
  7 11  1  0  0  0  0
 10  8  1  6  0  0  0
 10 20  1  0  0  0  0
 11 14  2  0  0  0  0
 11 16  1  0  0  0  0
 12 23  1  0  0  0  0
 13  5  1  6  0  0  0
 13  7  1  0  0  0  0
 13  4  1  0  0  0  0
 14 18  1  0  0  0  0
 15  1  1  1  0  0  0
 15 20  1  0  0  0  0
 16  2  2  0  0  0  0
 17  8  1  0  0  0  0
 18  6  2  0  0  0  0
 19 10  1  0  0  0  0
 20 19  1  6  0  0  0
 21 17  1  6  0  0  0
 21 15  1  0  0  0  0
 23 27  2  0  0  0  0
 23 24  1  0  0  0  0
 24 25  2  0  0  0  0
 25 22  1  0  0  0  0
 26 22  2  0  0  0  0
 27 26  1  0  0  0  0
M  END
>  <MODEL>
4

>  <REMARK>
 VINA RESULT:      -6.1      3.102      7.280
  Name = 
  1 active torsions:
  status: ('A' for Active; 'I' for Inactive)
    1  A    between atoms: C_9  and  N_15
                            x       y       z     vdW  Elec       q    Type
                         _______ _______ _______ _____ _____    ______ ____

>  <TORSDO>
F 1

$$$$
=
 OpenBabel10262419593D

 27 32  0  0  1  0  0  0  0  0999 V2000
  188.0720  178.8840  138.0460 C   0  0  0  0  0  2  0  0  0  0  0  0
  187.2450  178.1390  140.2630 C   0  0  0  0  0  0  0  0  0  0  0  0
  189.4710  177.0620  139.8680 N   0  0  0  0  0  2  0  0  0  0  0  0
  188.1770  177.9840  144.3430 N   0  0  0  0  0  2  0  0  0  0  0  0
  190.5010  178.4050  144.9320 C   0  0  0  0  0  1  0  0  0  0  0  0
  186.2880  178.6150  141.1850 C   0  0  0  0  0  3  0  0  0  0  0  0
  189.8880  177.1160  142.8770 C   0  0  1  0  0  3  0  0  0  0  0  0
  189.9410  175.1350  136.6780 C   0  0  0  0  0  2  0  0  0  0  0  0
  190.0520  175.6180  142.6930 C   0  0  0  0  0  1  0  0  0  0  0  0
  189.2350  176.0400  135.6460 C   0  0  2  0  0  3  0  0  0  0  0  0
  188.6950  177.6020  142.1260 C   0  0  0  0  0  0  0  0  0  0  0  0
  187.0040  178.2930  138.8520 N   0  0  0  0  0  0  0  0  0  0  0  0
  189.5210  177.4070  144.3480 C   0  0  2  0  0  3  0  0  0  0  0  0
  187.7560  178.0740  142.9980 C   0  0  0  0  0  0  0  0  0  0  0  0
  189.0670  177.8300  137.5600 C   0  0  2  0  0  3  0  0  0  0  0  0
  188.4760  177.6120  140.7420 C   0  0  0  0  0  0  0  0  0  0  0  0
  190.3390  175.7890  137.9960 C   0  0  0  0  0  2  0  0  0  0  0  0
  186.5350  178.5800  142.5630 C   0  0  0  0  0  3  0  0  0  0  0  0
  190.0190  177.2990  135.3410 C   0  0  0  0  0  2  0  0  0  0  0  0
  188.7210  177.4080  136.1280 C   0  0  1  0  0  3  0  0  0  0  0  0
  189.1970  176.6350  138.5020 C   0  0  1  0  0  3  0  0  0  0  0  0
  183.3450  177.0640  137.0600 C   0  0  0  0  0  3  0  0  0  0  0  0
  185.7640  177.8870  138.2350 C   0  0  0  0  0  0  0  0  0  0  0  0
  184.5620  178.5540  138.5270 C   0  0  0  0  0  3  0  0  0  0  0  0
  183.3610  178.1470  137.9420 C   0  0  0  0  0  3  0  0  0  0  0  0
  184.5310  176.3870  136.7650 C   0  0  0  0  0  3  0  0  0  0  0  0
  185.7330  176.7960  137.3500 C   0  0  0  0  0  3  0  0  0  0  0  0
  1 12  1  0  0  0  0
  2 16  2  0  0  0  0
  2  6  1  0  0  0  0
  3 16  1  0  0  0  0
  4 13  1  0  0  0  0
  6 18  2  0  0  0  0
  7  9  1  1  0  0  0
  7 13  1  0  0  0  0
  8 17  1  0  0  0  0
 10 19  1  6  0  0  0
 10 20  1  0  0  0  0
 10  8  1  0  0  0  0
 11  7  1  0  0  0  0
 11 14  2  0  0  0  0
 12  2  1  0  0  0  0
 13  5  1  6  0  0  0
 14  4  1  0  0  0  0
 15  1  1  1  0  0  0
 15 21  1  0  0  0  0
 16 11  1  0  0  0  0
 18 14  1  0  0  0  0
 20 19  1  6  0  0  0
 20 15  1  0  0  0  0
 21 17  1  6  0  0  0
 21  3  1  0  0  0  0
 22 25  1  0  0  0  0
 23 24  1  0  0  0  0
 23 12  1  0  0  0  0
 25 24  2  0  0  0  0
 26 22  2  0  0  0  0
 26 27  1  0  0  0  0
 27 23  2  0  0  0  0
M  END
>  <MODEL>
5

>  <REMARK>
 VINA RESULT:      -5.8      1.478      1.975
  Name = 
  1 active torsions:
  status: ('A' for Active; 'I' for Inactive)
    1  A    between atoms: C_9  and  N_15
                            x       y       z     vdW  Elec       q    Type
                         _______ _______ _______ _____ _____    ______ ____

>  <TORSDO>
F 1

$$$$
=
 OpenBabel10262419593D

 27 32  0  0  1  0  0  0  0  0999 V2000
  188.7160  175.9700  143.0730 C   0  0  0  0  0  2  0  0  0  0  0  0
  189.0910  176.9360  140.8190 C   0  0  0  0  0  0  0  0  0  0  0  0
  191.2360  177.1120  142.1010 N   0  0  0  0  0  2  0  0  0  0  0  0
  191.4630  176.6710  137.3780 N   0  0  0  0  0  2  0  0  0  0  0  0
  193.5310  175.4050  137.5930 C   0  0  0  0  0  1  0  0  0  0  0  0
  188.4440  176.8380  139.5680 C   0  0  0  0  0  3  0  0  0  0  0  0
  192.6930  176.8610  139.4470 C   0  0  1  0  0  3  0  0  0  0  0  0
  191.1310  178.7730  145.4680 C   0  0  0  0  0  2  0  0  0  0  0  0
  193.2920  178.1930  139.8630 C   0  0  0  0  0  1  0  0  0  0  0  0
  189.8220  178.2120  146.0660 C   0  0  2  0  0  3  0  0  0  0  0  0
  191.2180  176.8670  139.6650 C   0  0  0  0  0  0  0  0  0  0  0  0
  188.3050  176.9040  142.0250 N   0  0  0  0  0  0  0  0  0  0  0  0
  192.8220  176.7060  137.9160 C   0  0  2  0  0  3  0  0  0  0  0  0
  190.5700  176.7660  138.4670 C   0  0  0  0  0  0  0  0  0  0  0  0
  189.7600  176.5850  144.0050 C   0  0  2  0  0  3  0  0  0  0  0  0
  190.5120  176.9590  140.8710 C   0  0  0  0  0  0  0  0  0  0  0  0
  191.7330  177.9980  144.3020 C   0  0  0  0  0  2  0  0  0  0  0  0
  189.1820  176.7570  138.3800 C   0  0  0  0  0  3  0  0  0  0  0  0
  189.9400  176.7560  146.4650 C   0  0  0  0  0  2  0  0  0  0  0  0
  189.0790  177.1270  145.2660 C   0  0  1  0  0  3  0  0  0  0  0  0
  190.6420  177.6310  143.3260 C   0  0  1  0  0  3  0  0  0  0  0  0
  184.8850  179.3780  142.5650 C   0  0  0  0  0  3  0  0  0  0  0  0
  187.1530  177.7530  142.2150 C   0  0  0  0  0  0  0  0  0  0  0  0
  186.4570  177.7580  143.4360 C   0  0  0  0  0  3  0  0  0  0  0  0
  185.3320  178.5670  143.6100 C   0  0  0  0  0  3  0  0  0  0  0  0
  185.5630  179.3780  141.3430 C   0  0  0  0  0  3  0  0  0  0  0  0
  186.6900  178.5690  141.1690 C   0  0  0  0  0  3  0  0  0  0  0  0
  2 16  1  0  0  0  0
  2 12  1  0  0  0  0
  3 21  1  0  0  0  0
  4 13  1  0  0  0  0
  4 14  1  0  0  0  0
  6  2  2  0  0  0  0
  7 11  1  0  0  0  0
  7  9  1  6  0  0  0
 10  8  1  6  0  0  0
 10 19  1  0  0  0  0
 11 16  2  0  0  0  0
 12 23  1  0  0  0  0
 12  1  1  0  0  0  0
 13  5  1  1  0  0  0
 13  7  1  0  0  0  0
 14 11  1  0  0  0  0
 15  1  1  6  0  0  0
 15 20  1  0  0  0  0
 16  3  1  0  0  0  0
 17  8  1  0  0  0  0
 18 14  2  0  0  0  0
 18  6  1  0  0  0  0
 20 10  1  0  0  0  0
 20 19  1  1  0  0  0
 21 15  1  0  0  0  0
 21 17  1  1  0  0  0
 22 25  1  0  0  0  0
 23 24  1  0  0  0  0
 24 25  2  0  0  0  0
 26 22  2  0  0  0  0
 27 26  1  0  0  0  0
 27 23  2  0  0  0  0
M  END
>  <MODEL>
6

>  <REMARK>
 VINA RESULT:      -5.8      2.544      6.483
  Name = 
  1 active torsions:
  status: ('A' for Active; 'I' for Inactive)
    1  A    between atoms: C_9  and  N_15
                            x       y       z     vdW  Elec       q    Type
                         _______ _______ _______ _____ _____    ______ ____

>  <TORSDO>
F 1

$$$$
=
 OpenBabel10262419593D

 27 32  0  0  1  0  0  0  0  0999 V2000
  187.9600  177.2800  136.4380 C   0  0  0  0  0  2  0  0  0  0  0  0
  185.5760  176.9080  137.0170 C   0  0  0  0  0  0  0  0  0  0  0  0
  186.6130  178.2690  138.8470 N   0  0  0  0  0  2  0  0  0  0  0  0
  181.9830  178.8430  137.9580 N   0  0  0  0  0  2  0  0  0  0  0  0
  182.1550  181.1930  138.5660 C   0  0  0  0  0  1  0  0  0  0  0  0
  184.4170  176.5490  136.2980 C   0  0  0  0  0  3  0  0  0  0  0  0
  183.8840  179.5310  139.2790 C   0  0  1  0  0  3  0  0  0  0  0  0
  189.7390  176.9460  140.4560 C   0  0  0  0  0  2  0  0  0  0  0  0
  184.0690  179.0010  140.6900 C   0  0  0  0  0  1  0  0  0  0  0  0
  190.5260  176.4080  139.2410 C   0  0  2  0  0  3  0  0  0  0  0  0
  184.2400  178.4820  138.2820 C   0  0  0  0  0  0  0  0  0  0  0  0
  186.8470  176.3510  136.6330 N   0  0  0  0  0  0  0  0  0  0  0  0
  182.3790  179.7650  139.0220 C   0  0  2  0  0  3  0  0  0  0  0  0
  183.1330  178.1220  137.5680 C   0  0  0  0  0  0  0  0  0  0  0  0
  188.7020  177.5610  137.7440 C   0  0  2  0  0  3  0  0  0  0  0  0
  185.4880  177.8930  138.0400 C   0  0  0  0  0  0  0  0  0  0  0  0
  188.6270  177.9440  140.1570 C   0  0  0  0  0  2  0  0  0  0  0  0
  183.1820  177.1510  136.5730 C   0  0  0  0  0  3  0  0  0  0  0  0
  191.0920  177.5140  138.3760 C   0  0  0  0  0  2  0  0  0  0  0  0
  189.9440  176.6700  137.8400 C   0  0  1  0  0  3  0  0  0  0  0  0
  187.8150  177.4560  138.9830 C   0  0  1  0  0  3  0  0  0  0  0  0
  187.4500  172.1730  136.0890 C   0  0  0  0  0  3  0  0  0  0  0  0
  187.0390  174.9320  136.4420 C   0  0  0  0  0  0  0  0  0  0  0  0
  186.4580  174.0040  137.3220 C   0  0  0  0  0  3  0  0  0  0  0  0
  186.6600  172.6340  137.1460 C   0  0  0  0  0  3  0  0  0  0  0  0
  188.0390  173.0860  135.2100 C   0  0  0  0  0  3  0  0  0  0  0  0
  187.8360  174.4580  135.3880 C   0  0  0  0  0  3  0  0  0  0  0  0
  1 12  1  0  0  0  0
  2 16  1  0  0  0  0
  3 21  1  0  0  0  0
  4 13  1  0  0  0  0
  6 18  1  0  0  0  0
  6  2  2  0  0  0  0
  7  9  1  1  0  0  0
 10 19  1  6  0  0  0
 10  8  1  0  0  0  0
 11  7  1  0  0  0  0
 12  2  1  0  0  0  0
 13  5  1  6  0  0  0
 13  7  1  0  0  0  0
 14  4  1  0  0  0  0
 14 11  1  0  0  0  0
 15  1  1  6  0  0  0
 15 20  1  0  0  0  0
 15 21  1  0  0  0  0
 16 11  2  0  0  0  0
 16  3  1  0  0  0  0
 17  8  1  0  0  0  0
 18 14  2  0  0  0  0
 20 19  1  6  0  0  0
 20 10  1  0  0  0  0
 21 17  1  1  0  0  0
 22 25  1  0  0  0  0
 23 12  1  0  0  0  0
 23 24  1  0  0  0  0
 25 24  2  0  0  0  0
 26 27  1  0  0  0  0
 26 22  2  0  0  0  0
 27 23  2  0  0  0  0
M  END
>  <MODEL>
7

>  <REMARK>
 VINA RESULT:      -5.7      2.740      5.344
  Name = 
  1 active torsions:
  status: ('A' for Active; 'I' for Inactive)
    1  A    between atoms: C_9  and  N_15
                            x       y       z     vdW  Elec       q    Type
                         _______ _______ _______ _____ _____    ______ ____

>  <TORSDO>
F 1

$$$$
=
 OpenBabel10262419593D

 27 32  0  0  1  0  0  0  0  0999 V2000
  190.1260  178.7700  144.3650 C   0  0  0  0  0  2  0  0  0  0  0  0
  190.6450  177.5060  142.2940 C   0  0  0  0  0  0  0  0  0  0  0  0
  188.2070  178.0760  142.2600 N   0  0  0  0  0  2  0  0  0  0  0  0
  190.4790  177.6530  138.1110 N   0  0  0  0  0  2  0  0  0  0  0  0
  189.0550  179.3780  137.1520 C   0  0  0  0  0  1  0  0  0  0  0  0
  191.8200  177.2140  141.5680 C   0  0  0  0  0  3  0  0  0  0  0  0
  188.3960  178.1470  139.2290 C   0  0  1  0  0  3  0  0  0  0  0  0
  186.1420  177.1060  145.2440 C   0  0  0  0  0  2  0  0  0  0  0  0
  187.3080  177.0930  139.3220 C   0  0  0  0  0  1  0  0  0  0  0  0
  187.0840  177.4530  146.4170 C   0  0  2  0  0  3  0  0  0  0  0  0
  189.4940  177.8440  140.1910 C   0  0  0  0  0  0  0  0  0  0  0  0
  190.7030  177.5850  143.7300 N   0  0  0  0  0  0  0  0  0  0  0  0
  189.0910  178.0350  137.8540 C   0  0  2  0  0  3  0  0  0  0  0  0
  190.6450  177.5640  139.5110 C   0  0  0  0  0  0  0  0  0  0  0  0
  188.6310  178.6010  144.6320 C   0  0  2  0  0  3  0  0  0  0  0  0
  189.4500  177.8220  141.5910 C   0  0  0  0  0  0  0  0  0  0  0  0
  186.4530  177.7630  143.9040 C   0  0  0  0  0  2  0  0  0  0  0  0
  191.8270  177.2360  140.1670 C   0  0  0  0  0  3  0  0  0  0  0  0
  187.2200  178.9450  146.6330 C   0  0  0  0  0  2  0  0  0  0  0  0
  188.4070  178.1660  146.0830 C   0  0  1  0  0  3  0  0  0  0  0  0
  187.9350  177.6760  143.6350 C   0  0  1  0  0  3  0  0  0  0  0  0
  192.4310  174.5110  146.1120 C   0  0  0  0  0  3  0  0  0  0  0  0
  191.3020  176.5460  144.5340 C   0  0  0  0  0  0  0  0  0  0  0  0
  191.6770  175.3190  143.9590 C   0  0  0  0  0  3  0  0  0  0  0  0
  192.2400  174.3090  144.7430 C   0  0  0  0  0  3  0  0  0  0  0  0
  192.0570  175.7230  146.6970 C   0  0  0  0  0  3  0  0  0  0  0  0
  191.4940  176.7340  145.9120 C   0  0  0  0  0  3  0  0  0  0  0  0
  2 12  1  0  0  0  0
  3 21  1  0  0  0  0
  4 14  1  0  0  0  0
  6  2  2  0  0  0  0
  7  9  1  6  0  0  0
  7 11  1  0  0  0  0
 10  8  1  6  0  0  0
 10 19  1  0  0  0  0
 11 16  2  0  0  0  0
 12  1  1  0  0  0  0
 12 23  1  0  0  0  0
 13  5  1  1  0  0  0
 13  4  1  0  0  0  0
 13  7  1  0  0  0  0
 14 18  2  0  0  0  0
 14 11  1  0  0  0  0
 15  1  1  6  0  0  0
 15 20  1  0  0  0  0
 16  3  1  0  0  0  0
 16  2  1  0  0  0  0
 17  8  1  0  0  0  0
 18  6  1  0  0  0  0
 20 10  1  0  0  0  0
 20 19  1  1  0  0  0
 21 17  1  1  0  0  0
 21 15  1  0  0  0  0
 22 26  1  0  0  0  0
 23 27  1  0  0  0  0
 24 23  2  0  0  0  0
 24 25  1  0  0  0  0
 25 22  2  0  0  0  0
 27 26  2  0  0  0  0
M  END
>  <MODEL>
8

>  <REMARK>
 VINA RESULT:      -5.7      2.639      8.066
  Name = 
  1 active torsions:
  status: ('A' for Active; 'I' for Inactive)
    1  A    between atoms: C_9  and  N_15
                            x       y       z     vdW  Elec       q    Type
                         _______ _______ _______ _____ _____    ______ ____

>  <TORSDO>
F 1

$$$$
=
 OpenBabel10262419593D

 27 32  0  0  1  0  0  0  0  0999 V2000
  186.8070  176.2650  144.2440 C   0  0  0  0  0  2  0  0  0  0  0  0
  185.0300  177.9710  143.9430 C   0  0  0  0  0  0  0  0  0  0  0  0
  186.3430  177.8390  141.8140 N   0  0  0  0  0  2  0  0  0  0  0  0
  181.7620  179.0660  141.5630 N   0  0  0  0  0  2  0  0  0  0  0  0
  181.5770  177.9460  139.4100 C   0  0  0  0  0  1  0  0  0  0  0  0
  183.8070  178.2650  144.5830 C   0  0  0  0  0  3  0  0  0  0  0  0
  183.7990  178.6150  140.3470 C   0  0  1  0  0  3  0  0  0  0  0  0
  190.0730  178.2300  142.0320 C   0  0  0  0  0  2  0  0  0  0  0  0
  184.6600  179.7600  139.8440 C   0  0  0  0  0  1  0  0  0  0  0  0
  190.4110  177.4100  143.2960 C   0  0  2  0  0  3  0  0  0  0  0  0
  183.9710  178.4460  141.8180 C   0  0  0  0  0  0  0  0  0  0  0  0
  186.1330  177.4730  144.7220 N   0  0  0  0  0  0  0  0  0  0  0  0
  182.3110  179.0050  140.2090 C   0  0  2  0  0  3  0  0  0  0  0  0
  182.7970  178.7190  142.4590 C   0  0  0  0  0  0  0  0  0  0  0  0
  187.9170  176.5910  143.2450 C   0  0  2  0  0  3  0  0  0  0  0  0
  185.1200  178.0700  142.5270 C   0  0  0  0  0  0  0  0  0  0  0  0
  188.7260  177.9460  141.3780 C   0  0  0  0  0  2  0  0  0  0  0  0
  182.6800  178.6470  143.8440 C   0  0  0  0  0  3  0  0  0  0  0  0
  190.2890  175.9180  143.0740 C   0  0  0  0  0  2  0  0  0  0  0  0
  189.2700  176.6190  143.9610 C   0  0  1  0  0  3  0  0  0  0  0  0
  187.6580  177.8640  142.4410 C   0  0  1  0  0  3  0  0  0  0  0  0
  187.4080  179.3750  148.3090 C   0  0  0  0  0  3  0  0  0  0  0  0
  186.5760  178.1250  145.9320 C   0  0  0  0  0  0  0  0  0  0  0  0
  187.6640  177.6190  146.6640 C   0  0  0  0  0  3  0  0  0  0  0  0
  188.0790  178.2410  147.8430 C   0  0  0  0  0  3  0  0  0  0  0  0
  186.3220  179.8850  147.5950 C   0  0  0  0  0  3  0  0  0  0  0  0
  185.9070  179.2620  146.4140 C   0  0  0  0  0  3  0  0  0  0  0  0
  1 12  1  0  0  0  0
  2  6  1  0  0  0  0
  2 12  1  0  0  0  0
  3 21  1  0  0  0  0
  3 16  1  0  0  0  0
  4 14  1  0  0  0  0
  7  9  1  1  0  0  0
  7 11  1  0  0  0  0
 10  8  1  6  0  0  0
 10 20  1  0  0  0  0
 11 14  2  0  0  0  0
 11 16  1  0  0  0  0
 12 23  1  0  0  0  0
 13  5  1  6  0  0  0
 13  7  1  0  0  0  0
 13  4  1  0  0  0  0
 14 18  1  0  0  0  0
 15 20  1  0  0  0  0
 15  1  1  1  0  0  0
 16  2  2  0  0  0  0
 17  8  1  0  0  0  0
 18  6  2  0  0  0  0
 19 10  1  0  0  0  0
 20 19  1  6  0  0  0
 21 17  1  6  0  0  0
 21 15  1  0  0  0  0
 23 27  2  0  0  0  0
 23 24  1  0  0  0  0
 24 25  2  0  0  0  0
 25 22  1  0  0  0  0
 26 22  2  0  0  0  0
 27 26  1  0  0  0  0
M  END
>  <MODEL>
9

>  <REMARK>
 VINA RESULT:      -5.7      4.339      8.124
  Name = 
  1 active torsions:
  status: ('A' for Active; 'I' for Inactive)
    1  A    between atoms: C_9  and  N_15
                            x       y       z     vdW  Elec       q    Type
                         _______ _______ _______ _____ _____    ______ ____

>  <TORSDO>
F 1

$$$$
