=
 OpenBabel10252414513D

 34 38  0  0  1  0  0  0  0  0999 V2000
  185.5610  178.1390  143.7510 C   0  0  0  0  0  0  0  0  0  0  0  0
  186.7010  178.6280  141.6290 C   0  0  0  0  0  0  0  0  0  0  0  0
  188.0010  177.9770  143.7420 C   0  0  0  0  0  0  0  0  0  0  0  0
  190.6070  177.9180  143.4300 C   0  0  2  0  0  0  0  0  0  0  0  0
  184.3380  178.3110  141.5550 C   0  0  0  0  0  3  0  0  0  0  0  0
  191.9910  175.3700  146.9080 C   0  0  0  0  0  3  0  0  0  0  0  0
  191.5670  176.7110  146.6460 N   0  0  0  0  0  0  0  0  0  0  0  0
  185.4620  178.4870  140.9300 N   0  0  0  0  0  0  0  0  0  0  0  0
  189.2010  176.9380  141.7450 C   0  0  0  0  0  2  0  0  0  0  0  0
  189.2980  177.4100  147.2800 C   0  0  0  0  0  2  0  0  0  0  0  0
  186.7800  178.2250  143.0520 C   0  0  0  0  0  0  0  0  0  0  0  0
  191.9540  177.3440  145.4520 N   0  0  0  0  0  2  0  0  0  0  0  0
  191.4240  177.8340  142.1580 C   0  0  0  0  0  2  0  0  0  0  0  0
  184.2410  178.3480  143.0570 C   0  0  0  0  0  2  0  0  0  0  0  0
  187.9450  177.8970  145.1560 C   0  0  0  0  0  0  0  0  0  0  0  0
  190.7800  177.4510  147.6330 C   0  0  0  0  0  2  0  0  0  0  0  0
  185.5580  177.9610  145.0950 N   0  0  0  0  0  0  0  0  0  0  0  0
  187.6820  179.1550  141.0420 O   0  0  0  0  0  0  0  0  0  0  0  0
  190.7190  179.2010  143.9760 O   0  0  0  0  0  1  0  0  0  0  0  0
  191.1120  176.8160  144.3800 C   0  0  0  0  0  2  0  0  0  0  0  0
  189.1380  177.9070  145.9270 N   0  0  0  0  0  2  0  0  0  0  0  0
  190.6400  176.8920  141.2580 C   0  0  2  0  0  3  0  0  0  0  0  0
  191.6720  174.7860  147.9780 O   0  0  0  0  0  0  0  0  0  0  0  0
  189.2250  177.6520  143.0150 N   0  0  0  0  0  0  0  0  0  0  0  0
  186.7080  177.8630  145.8040 C   0  0  0  0  0  3  0  0  0  0  0  0
  190.7640  177.2530  139.7790 C   0  0  0  0  0  2  0  0  0  0  0  0
  190.0050  176.2910  138.8740 C   0  0  0  0  0  2  0  0  0  0  0  0
  187.8350  175.0450  137.4950 F   0  0  0  0  0  0  0  0  0  0  0  0
  189.0610  177.0430  138.0010 C   0  0  0  0  0  0  0  0  0  0  0  0
  188.0150  176.3800  137.3390 C   0  0  0  0  0  0  0  0  0  0  0  0
  187.3220  178.4750  136.3370 C   0  0  0  0  0  3  0  0  0  0  0  0
  188.3650  179.1350  136.9920 C   0  0  0  0  0  3  0  0  0  0  0  0
  189.2340  178.4200  137.8210 C   0  0  0  0  0  3  0  0  0  0  0  0
  187.1470  177.0990  136.5100 C   0  0  0  0  0  3  0  0  0  0  0  0
  1 17  1  0  0  0  0
  2 11  1  0  0  0  0
  3 15  2  0  0  0  0
  4 19  1  1  0  0  0
  4 20  1  0  0  0  0
  5 14  1  0  0  0  0
  6 23  2  0  0  0  0
  7  6  1  0  0  0  0
  7 16  1  0  0  0  0
  8  5  2  0  0  0  0
  8  2  1  0  0  0  0
  9 24  1  0  0  0  0
 10 16  1  0  0  0  0
 11  3  1  0  0  0  0
 11  1  2  0  0  0  0
 12  7  1  0  0  0  0
 13  4  1  0  0  0  0
 14  1  1  0  0  0  0
 15 25  1  0  0  0  0
 15 21  1  0  0  0  0
 17 25  2  0  0  0  0
 18  2  2  0  0  0  0
 20 12  1  0  0  0  0
 21 10  1  0  0  0  0
 22 26  1  6  0  0  0
 22  9  1  0  0  0  0
 22 13  1  0  0  0  0
 24  4  1  0  0  0  0
 24  3  1  0  0  0  0
 27 26  1  0  0  0  0
 29 27  1  0  0  0  0
 30 28  1  0  0  0  0
 30 29  2  0  0  0  0
 31 34  2  0  0  0  0
 31 32  1  0  0  0  0
 32 33  2  0  0  0  0
 33 29  1  0  0  0  0
 34 30  1  0  0  0  0
M  END
>  <MODEL>
1

>  <REMARK>
 VINA RESULT:      -9.8      0.000      0.000
  Name = 
  3 active torsions:
  status: ('A' for Active; 'I' for Inactive)
    1  A    between atoms: C_3  and  C_13
    2  A    between atoms: C_3  and  C_17
    3  A    between atoms: C_17  and  C_29
                            x       y       z     vdW  Elec       q    Type
                         _______ _______ _______ _____ _____    ______ ____

>  <TORSDO>
F 3

$$$$
=
 OpenBabel10252414513D

 34 38  0  0  1  0  0  0  0  0999 V2000
  189.3710  177.7220  139.3120 C   0  0  0  0  0  0  0  0  0  0  0  0
  189.8720  177.9770  141.7050 C   0  0  0  0  0  0  0  0  0  0  0  0
  187.4810  178.1760  140.7960 C   0  0  0  0  0  0  0  0  0  0  0  0
  185.6720  178.6990  142.6260 C   0  0  2  0  0  0  0  0  0  0  0  0
  191.5880  177.0720  140.3170 C   0  0  0  0  0  3  0  0  0  0  0  0
  181.8080  177.4500  140.6210 C   0  0  0  0  0  3  0  0  0  0  0  0
  182.7290  178.5450  140.6160 N   0  0  0  0  0  0  0  0  0  0  0  0
  191.1520  177.3740  141.5020 N   0  0  0  0  0  0  0  0  0  0  0  0
  187.3500  177.0380  143.0750 C   0  0  0  0  0  2  0  0  0  0  0  0
  184.3200  178.7830  138.7580 C   0  0  0  0  0  2  0  0  0  0  0  0
  188.8750  177.9460  140.6100 C   0  0  0  0  0  0  0  0  0  0  0  0
  183.3230  178.9620  141.8200 N   0  0  0  0  0  2  0  0  0  0  0  0
  185.7440  178.5310  144.1280 C   0  0  0  0  0  2  0  0  0  0  0  0
  190.8280  177.4290  139.0670 C   0  0  0  0  0  2  0  0  0  0  0  0
  186.7000  178.4130  139.6370 C   0  0  0  0  0  0  0  0  0  0  0  0
  183.0170  179.2730  139.3790 C   0  0  0  0  0  2  0  0  0  0  0  0
  188.5560  177.8640  138.2370 N   0  0  0  0  0  0  0  0  0  0  0  0
  189.6410  178.5820  142.7840 O   0  0  0  0  0  0  0  0  0  0  0  0
  185.7140  180.0600  142.3020 O   0  0  0  0  0  1  0  0  0  0  0  0
  184.3840  178.0080  142.1420 C   0  0  0  0  0  2  0  0  0  0  0  0
  185.3700  178.8980  139.7510 N   0  0  0  0  0  2  0  0  0  0  0  0
  186.5240  177.2410  144.3350 C   0  0  2  0  0  3  0  0  0  0  0  0
  181.2490  177.0680  139.5580 O   0  0  0  0  0  0  0  0  0  0  0  0
  186.8580  178.0090  142.1060 N   0  0  0  0  0  0  0  0  0  0  0  0
  187.2570  178.2220  138.3710 C   0  0  0  0  0  3  0  0  0  0  0  0
  187.3840  177.2710  145.5950 C   0  0  0  0  0  2  0  0  0  0  0  0
  188.6440  178.1120  145.4260 C   0  0  0  0  0  2  0  0  0  0  0  0
  189.2900  177.9820  148.2060 F   0  0  0  0  0  0  0  0  0  0  0  0
  189.8290  177.3740  145.9490 C   0  0  0  0  0  0  0  0  0  0  0  0
  190.1050  177.3480  147.3260 C   0  0  0  0  0  0  0  0  0  0  0  0
  192.0810  176.0100  146.9030 C   0  0  0  0  0  3  0  0  0  0  0  0
  191.8080  176.0390  145.5320 C   0  0  0  0  0  3  0  0  0  0  0  0
  190.6850  176.7210  145.0570 C   0  0  0  0  0  3  0  0  0  0  0  0
  191.2300  176.6650  147.7990 C   0  0  0  0  0  3  0  0  0  0  0  0
  1 11  1  0  0  0  0
  2 18  2  0  0  0  0
  3 24  1  0  0  0  0
  4 19  1  6  0  0  0
  4 13  1  0  0  0  0
  5  8  2  0  0  0  0
  7  6  1  0  0  0  0
  7 12  1  0  0  0  0
  8  2  1  0  0  0  0
  9 22  1  0  0  0  0
 10 16  1  0  0  0  0
 10 21  1  0  0  0  0
 11  3  2  0  0  0  0
 11  2  1  0  0  0  0
 12 20  1  0  0  0  0
 13 22  1  0  0  0  0
 14  1  1  0  0  0  0
 14  5  1  0  0  0  0
 15 21  1  0  0  0  0
 15  3  1  0  0  0  0
 16  7  1  0  0  0  0
 17 25  1  0  0  0  0
 17  1  2  0  0  0  0
 20  4  1  0  0  0  0
 22 26  1  1  0  0  0
 23  6  2  0  0  0  0
 24  4  1  0  0  0  0
 24  9  1  0  0  0  0
 25 15  2  0  0  0  0
 27 26  1  0  0  0  0
 27 29  1  0  0  0  0
 29 30  1  0  0  0  0
 30 34  2  0  0  0  0
 30 28  1  0  0  0  0
 31 34  1  0  0  0  0
 32 31  2  0  0  0  0
 33 32  1  0  0  0  0
 33 29  2  0  0  0  0
M  END
>  <MODEL>
2

>  <REMARK>
 VINA RESULT:      -9.6      3.005      8.035
  Name = 
  3 active torsions:
  status: ('A' for Active; 'I' for Inactive)
    1  A    between atoms: C_3  and  C_13
    2  A    between atoms: C_3  and  C_17
    3  A    between atoms: C_17  and  C_29
                            x       y       z     vdW  Elec       q    Type
                         _______ _______ _______ _____ _____    ______ ____

>  <TORSDO>
F 3

$$$$
=
 OpenBabel10252414513D

 34 38  0  0  1  0  0  0  0  0999 V2000
  185.5420  178.1370  143.8290 C   0  0  0  0  0  0  0  0  0  0  0  0
  186.6400  178.6560  141.6920 C   0  0  0  0  0  0  0  0  0  0  0  0
  187.9830  177.9880  143.7740 C   0  0  0  0  0  0  0  0  0  0  0  0
  190.5820  177.9470  143.4120 C   0  0  2  0  0  0  0  0  0  0  0  0
  184.2770  178.3260  141.6590 C   0  0  0  0  0  3  0  0  0  0  0  0
  192.0440  175.3680  146.8360 C   0  0  0  0  0  3  0  0  0  0  0  0
  191.6080  176.7100  146.5970 N   0  0  0  0  0  0  0  0  0  0  0  0
  185.3890  178.5150  141.0150 N   0  0  0  0  0  0  0  0  0  0  0  0
  189.1500  176.9780  141.7430 C   0  0  0  0  0  2  0  0  0  0  0  0
  189.3480  177.3900  147.2800 C   0  0  0  0  0  2  0  0  0  0  0  0
  186.7470  178.2370  143.1090 C   0  0  0  0  0  0  0  0  0  0  0  0
  191.9700  177.3580  145.4020 N   0  0  0  0  0  2  0  0  0  0  0  0
  191.3760  177.8810  142.1250 C   0  0  0  0  0  2  0  0  0  0  0  0
  184.2080  178.3470  143.1620 C   0  0  0  0  0  2  0  0  0  0  0  0
  187.9530  177.8920  145.1870 C   0  0  0  0  0  0  0  0  0  0  0  0
  190.8360  177.4340  147.6060 C   0  0  0  0  0  2  0  0  0  0  0  0
  185.5650  177.9440  145.1720 N   0  0  0  0  0  0  0  0  0  0  0  0
  187.6060  179.1940  141.0930 O   0  0  0  0  0  0  0  0  0  0  0  0
  190.6970  179.2250  143.9710 O   0  0  0  0  0  1  0  0  0  0  0  0
  191.1110  176.8370  144.3400 C   0  0  0  0  0  2  0  0  0  0  0  0
  189.1600  177.9000  145.9350 N   0  0  0  0  0  2  0  0  0  0  0  0
  190.5800  176.9450  141.2280 C   0  0  2  0  0  3  0  0  0  0  0  0
  191.7480  174.7710  147.9050 O   0  0  0  0  0  0  0  0  0  0  0  0
  189.1940  177.6780  143.0200 N   0  0  0  0  0  0  0  0  0  0  0  0
  186.7280  177.8450  145.8570 C   0  0  0  0  0  3  0  0  0  0  0  0
  190.6750  177.3220  139.7520 C   0  0  0  0  0  2  0  0  0  0  0  0
  190.1910  176.2100  138.8300 C   0  0  0  0  0  2  0  0  0  0  0  0
  190.0320  173.7340  137.4130 F   0  0  0  0  0  0  0  0  0  0  0  0
  191.3380  175.6360  138.0710 C   0  0  0  0  0  0  0  0  0  0  0  0
  191.2080  174.4100  137.3980 C   0  0  0  0  0  0  0  0  0  0  0  0
  193.5180  174.5610  136.6800 C   0  0  0  0  0  3  0  0  0  0  0  0
  193.6490  175.7790  137.3540 C   0  0  0  0  0  3  0  0  0  0  0  0
  192.5600  176.3140  138.0490 C   0  0  0  0  0  3  0  0  0  0  0  0
  192.2990  173.8770  136.7030 C   0  0  0  0  0  3  0  0  0  0  0  0
  1 17  1  0  0  0  0
  2 11  1  0  0  0  0
  3 15  2  0  0  0  0
  4 19  1  1  0  0  0
  4 20  1  0  0  0  0
  5 14  1  0  0  0  0
  6 23  2  0  0  0  0
  7  6  1  0  0  0  0
  7 16  1  0  0  0  0
  8  5  2  0  0  0  0
  8  2  1  0  0  0  0
  9 24  1  0  0  0  0
 10 16  1  0  0  0  0
 11  3  1  0  0  0  0
 11  1  2  0  0  0  0
 12  7  1  0  0  0  0
 13  4  1  0  0  0  0
 14  1  1  0  0  0  0
 15 25  1  0  0  0  0
 15 21  1  0  0  0  0
 17 25  2  0  0  0  0
 18  2  2  0  0  0  0
 20 12  1  0  0  0  0
 21 10  1  0  0  0  0
 22 26  1  6  0  0  0
 22  9  1  0  0  0  0
 22 13  1  0  0  0  0
 24  4  1  0  0  0  0
 24  3  1  0  0  0  0
 27 26  1  0  0  0  0
 29 27  1  0  0  0  0
 30 28  1  0  0  0  0
 30 29  2  0  0  0  0
 31 34  2  0  0  0  0
 31 32  1  0  0  0  0
 32 33  2  0  0  0  0
 33 29  1  0  0  0  0
 34 30  1  0  0  0  0
M  END
>  <MODEL>
3

>  <REMARK>
 VINA RESULT:      -9.5      1.492      2.260
  Name = 
  3 active torsions:
  status: ('A' for Active; 'I' for Inactive)
    1  A    between atoms: C_3  and  C_13
    2  A    between atoms: C_3  and  C_17
    3  A    between atoms: C_17  and  C_29
                            x       y       z     vdW  Elec       q    Type
                         _______ _______ _______ _____ _____    ______ ____

>  <TORSDO>
F 3

$$$$
=
 OpenBabel10252414513D

 34 38  0  0  1  0  0  0  0  0999 V2000
  192.6180  175.7390  136.8010 C   0  0  0  0  0  0  0  0  0  0  0  0
  192.8350  176.7480  139.0320 C   0  0  0  0  0  0  0  0  0  0  0  0
  190.6590  176.9110  137.6820 C   0  0  0  0  0  0  0  0  0  0  0  0
  188.7470  178.2560  138.8760 C   0  0  2  0  0  0  0  0  0  0  0  0
  194.5300  175.2120  138.3540 C   0  0  0  0  0  3  0  0  0  0  0  0
  185.0220  176.8720  136.7040 C   0  0  0  0  0  3  0  0  0  0  0  0
  186.1160  177.7750  136.5160 N   0  0  0  0  0  0  0  0  0  0  0  0
  194.0020  175.9590  139.2760 N   0  0  0  0  0  0  0  0  0  0  0  0
  190.0270  176.6630  140.1410 C   0  0  0  0  0  2  0  0  0  0  0  0
  187.9550  177.1540  135.0090 C   0  0  0  0  0  2  0  0  0  0  0  0
  192.0020  176.4600  137.8420 C   0  0  0  0  0  0  0  0  0  0  0  0
  186.6110  178.5080  137.6090 N   0  0  0  0  0  2  0  0  0  0  0  0
  188.5880  178.6140  140.3380 C   0  0  0  0  0  2  0  0  0  0  0  0
  194.0180  175.2030  136.9390 C   0  0  0  0  0  2  0  0  0  0  0  0
  190.0940  176.8230  136.3850 C   0  0  0  0  0  0  0  0  0  0  0  0
  186.6900  177.9850  135.1860 C   0  0  0  0  0  2  0  0  0  0  0  0
  191.9900  175.5970  135.6070 N   0  0  0  0  0  0  0  0  0  0  0  0
  192.5750  177.7140  139.7950 O   0  0  0  0  0  0  0  0  0  0  0  0
  189.0740  179.4030  138.1440 O   0  0  0  0  0  1  0  0  0  0  0  0
  187.4320  177.6040  138.4120 C   0  0  0  0  0  2  0  0  0  0  0  0
  188.8680  177.4770  136.0880 N   0  0  0  0  0  2  0  0  0  0  0  0
  189.0910  177.3920  141.0910 C   0  0  2  0  0  3  0  0  0  0  0  0
  184.5490  176.2170  135.7380 O   0  0  0  0  0  0  0  0  0  0  0  0
  189.8490  177.2880  138.8360 N   0  0  0  0  0  0  0  0  0  0  0  0
  190.7700  176.1360  135.3750 C   0  0  0  0  0  3  0  0  0  0  0  0
  189.7690  177.7520  142.4110 C   0  0  0  0  0  2  0  0  0  0  0  0
  189.6870  176.6290  143.4380 C   0  0  0  0  0  2  0  0  0  0  0  0
  190.5330  176.7900  146.1620 F   0  0  0  0  0  0  0  0  0  0  0  0
  188.7720  177.0150  144.5500 C   0  0  0  0  0  0  0  0  0  0  0  0
  189.2380  177.0710  145.8730 C   0  0  0  0  0  0  0  0  0  0  0  0
  187.0240  177.7090  146.6250 C   0  0  0  0  0  3  0  0  0  0  0  0
  186.5590  177.6490  145.3080 C   0  0  0  0  0  3  0  0  0  0  0  0
  187.4310  177.3010  144.2720 C   0  0  0  0  0  3  0  0  0  0  0  0
  188.3630  177.4190  146.9060 C   0  0  0  0  0  3  0  0  0  0  0  0
  1 14  1  0  0  0  0
  1 11  1  0  0  0  0
  2  8  1  0  0  0  0
  2 18  2  0  0  0  0
  3 11  2  0  0  0  0
  3 24  1  0  0  0  0
  4 19  1  6  0  0  0
  4 13  1  0  0  0  0
  5  8  2  0  0  0  0
  7  6  1  0  0  0  0
  7 12  1  0  0  0  0
  9 22  1  0  0  0  0
 10 16  1  0  0  0  0
 10 21  1  0  0  0  0
 11  2  1  0  0  0  0
 12 20  1  0  0  0  0
 13 22  1  0  0  0  0
 14  5  1  0  0  0  0
 15  3  1  0  0  0  0
 16  7  1  0  0  0  0
 17  1  2  0  0  0  0
 20  4  1  0  0  0  0
 21 15  1  0  0  0  0
 22 26  1  1  0  0  0
 23  6  2  0  0  0  0
 24  4  1  0  0  0  0
 24  9  1  0  0  0  0
 25 17  1  0  0  0  0
 25 15  2  0  0  0  0
 26 27  1  0  0  0  0
 27 29  1  0  0  0  0
 29 30  1  0  0  0  0
 30 28  1  0  0  0  0
 30 34  2  0  0  0  0
 31 34  1  0  0  0  0
 32 31  2  0  0  0  0
 33 29  2  0  0  0  0
 33 32  1  0  0  0  0
M  END
>  <MODEL>
4

>  <REMARK>
 VINA RESULT:      -9.4      3.946      8.909
  Name = 
  3 active torsions:
  status: ('A' for Active; 'I' for Inactive)
    1  A    between atoms: C_3  and  C_13
    2  A    between atoms: C_3  and  C_17
    3  A    between atoms: C_17  and  C_29
                            x       y       z     vdW  Elec       q    Type
                         _______ _______ _______ _____ _____    ______ ____

>  <TORSDO>
F 3

$$$$
=
 OpenBabel10252414513D

 34 38  0  0  1  0  0  0  0  0999 V2000
  187.2570  178.1550  139.2130 C   0  0  0  0  0  0  0  0  0  0  0  0
  188.5240  178.3530  141.3100 C   0  0  0  0  0  0  0  0  0  0  0  0
  185.9690  178.5810  141.2490 C   0  0  0  0  0  0  0  0  0  0  0  0
  184.8750  179.0660  143.5850 C   0  0  2  0  0  0  0  0  0  0  0  0
  189.6740  177.4750  139.4130 C   0  0  0  0  0  3  0  0  0  0  0  0
  180.5510  177.8770  142.9480 C   0  0  0  0  0  3  0  0  0  0  0  0
  181.4300  178.9690  142.6610 N   0  0  0  0  0  0  0  0  0  0  0  0
  189.6580  177.7500  140.6810 N   0  0  0  0  0  0  0  0  0  0  0  0
  186.5890  177.3900  143.4180 C   0  0  0  0  0  2  0  0  0  0  0  0
  182.3180  179.2450  140.3870 C   0  0  0  0  0  2  0  0  0  0  0  0
  187.2200  178.3500  140.6070 C   0  0  0  0  0  0  0  0  0  0  0  0
  182.3950  179.3550  143.6090 N   0  0  0  0  0  2  0  0  0  0  0  0
  185.4380  178.8620  144.9750 C   0  0  0  0  0  2  0  0  0  0  0  0
  188.5470  177.8640  138.4940 C   0  0  0  0  0  2  0  0  0  0  0  0
  184.8520  178.8470  140.4200 C   0  0  0  0  0  0  0  0  0  0  0  0
  181.3000  179.7240  141.4150 C   0  0  0  0  0  2  0  0  0  0  0  0
  186.1330  178.3250  138.4730 N   0  0  0  0  0  0  0  0  0  0  0  0
  188.6700  178.9320  142.4170 O   0  0  0  0  0  0  0  0  0  0  0  0
  184.8220  180.4340  143.2950 O   0  0  0  0  0  1  0  0  0  0  0  0
  183.4910  178.3900  143.5410 C   0  0  0  0  0  2  0  0  0  0  0  0
  183.6400  179.3330  140.9780 N   0  0  0  0  0  2  0  0  0  0  0  0
  186.2280  177.5650  144.8840 C   0  0  2  0  0  3  0  0  0  0  0  0
  179.6680  177.5220  142.1230 O   0  0  0  0  0  0  0  0  0  0  0  0
  185.8140  178.3840  142.6870 N   0  0  0  0  0  0  0  0  0  0  0  0
  184.9550  178.6840  139.0360 C   0  0  0  0  0  3  0  0  0  0  0  0
  187.4580  177.5630  145.7890 C   0  0  0  0  0  2  0  0  0  0  0  0
  188.7430  177.8770  145.0330 C   0  0  0  0  0  2  0  0  0  0  0  0
  190.9100  176.7240  143.5710 F   0  0  0  0  0  0  0  0  0  0  0  0
  189.9040  177.2140  145.6920 C   0  0  0  0  0  0  0  0  0  0  0  0
  190.9390  176.6560  144.9260 C   0  0  0  0  0  0  0  0  0  0  0  0
  192.0560  175.9420  146.9550 C   0  0  0  0  0  3  0  0  0  0  0  0
  191.0230  176.4950  147.7180 C   0  0  0  0  0  3  0  0  0  0  0  0
  189.9480  177.1280  147.0880 C   0  0  0  0  0  3  0  0  0  0  0  0
  192.0130  176.0230  145.5600 C   0  0  0  0  0  3  0  0  0  0  0  0
  1 11  1  0  0  0  0
  2 18  2  0  0  0  0
  3 24  1  0  0  0  0
  4 19  1  6  0  0  0
  4 13  1  0  0  0  0
  5  8  2  0  0  0  0
  7  6  1  0  0  0  0
  7 12  1  0  0  0  0
  8  2  1  0  0  0  0
  9 22  1  0  0  0  0
 10 21  1  0  0  0  0
 10 16  1  0  0  0  0
 11  3  2  0  0  0  0
 11  2  1  0  0  0  0
 14  1  1  0  0  0  0
 14  5  1  0  0  0  0
 15 21  1  0  0  0  0
 15  3  1  0  0  0  0
 16  7  1  0  0  0  0
 17 25  1  0  0  0  0
 17  1  2  0  0  0  0
 20  4  1  0  0  0  0
 20 12  1  0  0  0  0
 22 13  1  0  0  0  0
 22 26  1  1  0  0  0
 23  6  2  0  0  0  0
 24  9  1  0  0  0  0
 24  4  1  0  0  0  0
 25 15  2  0  0  0  0
 27 29  1  0  0  0  0
 27 26  1  0  0  0  0
 28 30  1  0  0  0  0
 29 33  1  0  0  0  0
 30 34  1  0  0  0  0
 30 29  2  0  0  0  0
 31 32  1  0  0  0  0
 33 32  2  0  0  0  0
 34 31  2  0  0  0  0
M  END
>  <MODEL>
5

>  <REMARK>
 VINA RESULT:      -8.9      2.866      7.819
  Name = 
  3 active torsions:
  status: ('A' for Active; 'I' for Inactive)
    1  A    between atoms: C_3  and  C_13
    2  A    between atoms: C_3  and  C_17
    3  A    between atoms: C_17  and  C_29
                            x       y       z     vdW  Elec       q    Type
                         _______ _______ _______ _____ _____    ______ ____

>  <TORSDO>
F 3

$$$$
=
 OpenBabel10252414513D

 34 38  0  0  1  0  0  0  0  0999 V2000
  190.8950  176.6810  144.6840 C   0  0  0  0  0  0  0  0  0  0  0  0
  188.9080  177.7480  145.6640 C   0  0  0  0  0  0  0  0  0  0  0  0
  189.2290  177.5630  143.1250 C   0  0  0  0  0  0  0  0  0  0  0  0
  187.2890  178.6280  141.7130 C   0  0  2  0  0  0  0  0  0  0  0  0
  190.2980  176.4710  147.1230 C   0  0  0  0  0  3  0  0  0  0  0  0
  187.7880  176.6690  137.6600 C   0  0  0  0  0  3  0  0  0  0  0  0
  188.3690  177.7210  138.4360 N   0  0  0  0  0  0  0  0  0  0  0  0
  189.2070  177.1460  146.9250 N   0  0  0  0  0  0  0  0  0  0  0  0
  186.7430  177.2640  143.6150 C   0  0  0  0  0  2  0  0  0  0  0  0
  190.5290  177.3560  139.5500 C   0  0  0  0  0  2  0  0  0  0  0  0
  189.6600  177.3200  144.4610 C   0  0  0  0  0  0  0  0  0  0  0  0
  187.5450  178.5380  139.2310 N   0  0  0  0  0  2  0  0  0  0  0  0
  185.8770  178.9830  142.1270 C   0  0  0  0  0  2  0  0  0  0  0  0
  191.3740  176.3620  146.0750 C   0  0  0  0  0  2  0  0  0  0  0  0
  190.1780  177.3700  142.0900 C   0  0  0  0  0  0  0  0  0  0  0  0
  189.8060  177.9920  138.3690 C   0  0  0  0  0  2  0  0  0  0  0  0
  191.7270  176.4270  143.6440 N   0  0  0  0  0  0  0  0  0  0  0  0
  188.0620  178.6770  145.6100 O   0  0  0  0  0  0  0  0  0  0  0  0
  188.0360  179.7980  141.5390 O   0  0  0  0  0  1  0  0  0  0  0  0
  187.1970  177.7790  140.4310 C   0  0  0  0  0  2  0  0  0  0  0  0
  189.9100  177.8290  140.7730 N   0  0  0  0  0  2  0  0  0  0  0  0
  185.4580  177.8610  143.0660 C   0  0  2  0  0  3  0  0  0  0  0  0
  188.5020  175.9340  136.9270 O   0  0  0  0  0  0  0  0  0  0  0  0
  187.8260  177.8340  142.8240 N   0  0  0  0  0  0  0  0  0  0  0  0
  191.4090  176.7750  142.3750 C   0  0  0  0  0  3  0  0  0  0  0  0
  184.5210  178.3410  144.1720 C   0  0  0  0  0  2  0  0  0  0  0  0
  183.6250  179.4900  143.7250 C   0  0  0  0  0  2  0  0  0  0  0  0
  182.8810  179.0030  141.0110 F   0  0  0  0  0  0  0  0  0  0  0  0
  182.2830  178.9730  143.3330 C   0  0  0  0  0  0  0  0  0  0  0  0
  181.9670  178.7590  141.9820 C   0  0  0  0  0  0  0  0  0  0  0  0
  179.7430  178.0350  142.6200 C   0  0  0  0  0  3  0  0  0  0  0  0
  180.0570  178.2530  143.9650 C   0  0  0  0  0  3  0  0  0  0  0  0
  181.3250  178.7230  144.3200 C   0  0  0  0  0  3  0  0  0  0  0  0
  180.6970  178.2890  141.6300 C   0  0  0  0  0  3  0  0  0  0  0  0
  1 14  1  0  0  0  0
  2  8  1  0  0  0  0
  3 11  2  0  0  0  0
  4 19  1  6  0  0  0
  4 13  1  0  0  0  0
  4 24  1  0  0  0  0
  6  7  1  0  0  0  0
  7 12  1  0  0  0  0
  8  5  2  0  0  0  0
 10 21  1  0  0  0  0
 11  1  1  0  0  0  0
 11  2  1  0  0  0  0
 12 20  1  0  0  0  0
 13 22  1  0  0  0  0
 14  5  1  0  0  0  0
 15 25  2  0  0  0  0
 15  3  1  0  0  0  0
 16  7  1  0  0  0  0
 16 10  1  0  0  0  0
 17  1  2  0  0  0  0
 18  2  2  0  0  0  0
 20  4  1  0  0  0  0
 21 15  1  0  0  0  0
 22  9  1  0  0  0  0
 22 26  1  1  0  0  0
 23  6  2  0  0  0  0
 24  3  1  0  0  0  0
 24  9  1  0  0  0  0
 25 17  1  0  0  0  0
 27 26  1  0  0  0  0
 28 30  1  0  0  0  0
 29 27  1  0  0  0  0
 29 33  1  0  0  0  0
 30 29  2  0  0  0  0
 31 32  1  0  0  0  0
 32 33  2  0  0  0  0
 34 30  1  0  0  0  0
 34 31  2  0  0  0  0
M  END
>  <MODEL>
6

>  <REMARK>
 VINA RESULT:      -8.8      2.553      7.216
  Name = 
  3 active torsions:
  status: ('A' for Active; 'I' for Inactive)
    1  A    between atoms: C_3  and  C_13
    2  A    between atoms: C_3  and  C_17
    3  A    between atoms: C_17  and  C_29
                            x       y       z     vdW  Elec       q    Type
                         _______ _______ _______ _____ _____    ______ ____

>  <TORSDO>
F 3

$$$$
=
 OpenBabel10252414513D

 34 38  0  0  1  0  0  0  0  0999 V2000
  189.7090  175.2540  136.7020 C   0  0  0  0  0  0  0  0  0  0  0  0
  191.4230  175.9400  138.3260 C   0  0  0  0  0  0  0  0  0  0  0  0
  188.9910  176.7350  138.5110 C   0  0  0  0  0  0  0  0  0  0  0  0
  188.5330  178.3390  140.5380 C   0  0  2  0  0  0  0  0  0  0  0  0
  191.9660  174.1440  136.8510 C   0  0  0  0  0  3  0  0  0  0  0  0
  184.0410  178.0750  141.0490 C   0  0  0  0  0  3  0  0  0  0  0  0
  185.0020  178.7230  140.2090 N   0  0  0  0  0  0  0  0  0  0  0  0
  192.2760  174.8860  137.8710 N   0  0  0  0  0  0  0  0  0  0  0  0
  189.8690  176.3700  140.8780 C   0  0  0  0  0  2  0  0  0  0  0  0
  185.3990  177.8700  137.9390 C   0  0  0  0  0  2  0  0  0  0  0  0
  190.0140  175.9790  137.8700 C   0  0  0  0  0  0  0  0  0  0  0  0
  186.2010  179.2030  140.7650 N   0  0  0  0  0  2  0  0  0  0  0  0
  189.3480  178.5620  141.7940 C   0  0  0  0  0  2  0  0  0  0  0  0
  190.7440  174.4040  136.0120 C   0  0  0  0  0  2  0  0  0  0  0  0
  187.7770  176.9180  137.8040 C   0  0  0  0  0  0  0  0  0  0  0  0
  184.7250  178.9410  138.7890 C   0  0  0  0  0  2  0  0  0  0  0  0
  188.4930  175.3880  136.1160 N   0  0  0  0  0  0  0  0  0  0  0  0
  191.9030  176.8510  139.0490 O   0  0  0  0  0  0  0  0  0  0  0  0
  188.6430  179.4550  139.7020 O   0  0  0  0  0  1  0  0  0  0  0  0
  187.0820  178.0540  140.9710 C   0  0  0  0  0  2  0  0  0  0  0  0
  186.8140  177.8600  138.2560 N   0  0  0  0  0  2  0  0  0  0  0  0
  189.8750  177.1840  142.1620 C   0  0  2  0  0  3  0  0  0  0  0  0
  182.9510  177.6520  140.5790 O   0  0  0  0  0  0  0  0  0  0  0  0
  189.1260  177.1570  139.9030 N   0  0  0  0  0  0  0  0  0  0  0  0
  187.5450  176.2100  136.6220 C   0  0  0  0  0  3  0  0  0  0  0  0
  191.2560  177.2370  142.8100 C   0  0  0  0  0  2  0  0  0  0  0  0
  191.3240  178.2260  143.9680 C   0  0  0  0  0  2  0  0  0  0  0  0
  188.6600  178.5240  144.9560 F   0  0  0  0  0  0  0  0  0  0  0  0
  190.8490  177.5800  145.2240 C   0  0  0  0  0  0  0  0  0  0  0  0
  189.5300  177.7660  145.6690 C   0  0  0  0  0  0  0  0  0  0  0  0
  189.9900  176.3850  147.6070 C   0  0  0  0  0  3  0  0  0  0  0  0
  191.3050  176.2030  147.1660 C   0  0  0  0  0  3  0  0  0  0  0  0
  191.7330  176.8010  145.9770 C   0  0  0  0  0  3  0  0  0  0  0  0
  189.1050  177.1660  146.8590 C   0  0  0  0  0  3  0  0  0  0  0  0
  1 11  1  0  0  0  0
  2 18  2  0  0  0  0
  3 24  1  0  0  0  0
  4 19  1  6  0  0  0
  4 20  1  0  0  0  0
  4 13  1  0  0  0  0
  5  8  2  0  0  0  0
  7 12  1  0  0  0  0
  7  6  1  0  0  0  0
  8  2  1  0  0  0  0
  9 22  1  0  0  0  0
 10 21  1  0  0  0  0
 10 16  1  0  0  0  0
 11  2  1  0  0  0  0
 11  3  2  0  0  0  0
 12 20  1  0  0  0  0
 13 22  1  0  0  0  0
 14  1  1  0  0  0  0
 14  5  1  0  0  0  0
 15 21  1  0  0  0  0
 15  3  1  0  0  0  0
 16  7  1  0  0  0  0
 17 25  1  0  0  0  0
 17  1  2  0  0  0  0
 22 26  1  6  0  0  0
 23  6  2  0  0  0  0
 24  4  1  0  0  0  0
 24  9  1  0  0  0  0
 25 15  2  0  0  0  0
 26 27  1  0  0  0  0
 27 29  1  0  0  0  0
 28 30  1  0  0  0  0
 29 30  2  0  0  0  0
 29 33  1  0  0  0  0
 30 34  1  0  0  0  0
 32 31  1  0  0  0  0
 33 32  2  0  0  0  0
 34 31  2  0  0  0  0
M  END
>  <MODEL>
7

>  <REMARK>
 VINA RESULT:      -8.7      3.431      7.988
  Name = 
  3 active torsions:
  status: ('A' for Active; 'I' for Inactive)
    1  A    between atoms: C_3  and  C_13
    2  A    between atoms: C_3  and  C_17
    3  A    between atoms: C_17  and  C_29
                            x       y       z     vdW  Elec       q    Type
                         _______ _______ _______ _____ _____    ______ ____

>  <TORSDO>
F 3

$$$$
=
 OpenBabel10252414513D

 34 38  0  0  1  0  0  0  0  0999 V2000
  189.0210  177.2540  138.9350 C   0  0  0  0  0  0  0  0  0  0  0  0
  189.0710  178.2800  141.1680 C   0  0  0  0  0  0  0  0  0  0  0  0
  186.8770  177.9590  139.8780 C   0  0  0  0  0  0  0  0  0  0  0  0
  184.7490  178.8430  141.1350 C   0  0  2  0  0  0  0  0  0  0  0  0
  191.0450  177.1610  140.4310 C   0  0  0  0  0  3  0  0  0  0  0  0
  181.3640  176.6720  139.0520 C   0  0  0  0  0  3  0  0  0  0  0  0
  182.2240  177.7960  138.8420 N   0  0  0  0  0  0  0  0  0  0  0  0
  190.3910  177.7690  141.3730 N   0  0  0  0  0  0  0  0  0  0  0  0
  186.3850  177.5700  142.3510 C   0  0  0  0  0  2  0  0  0  0  0  0
  184.1120  177.6020  137.2810 C   0  0  0  0  0  2  0  0  0  0  0  0
  188.2900  177.8180  139.9980 C   0  0  0  0  0  0  0  0  0  0  0  0
  182.5740  178.6180  139.9280 N   0  0  0  0  0  2  0  0  0  0  0  0
  184.5550  179.1530  142.6040 C   0  0  0  0  0  2  0  0  0  0  0  0
  190.5090  177.0420  139.0300 C   0  0  0  0  0  2  0  0  0  0  0  0
  186.3090  177.7520  138.5970 C   0  0  0  0  0  0  0  0  0  0  0  0
  182.7000  178.1310  137.5000 C   0  0  0  0  0  2  0  0  0  0  0  0
  188.4070  176.9790  137.7570 N   0  0  0  0  0  0  0  0  0  0  0  0
  188.6250  179.1620  141.9460 O   0  0  0  0  0  0  0  0  0  0  0  0
  184.7920  180.0360  140.4050 O   0  0  0  0  0  1  0  0  0  0  0  0
  183.5980  177.9160  140.7010 C   0  0  0  0  0  2  0  0  0  0  0  0
  184.9610  178.1180  138.3380 N   0  0  0  0  0  2  0  0  0  0  0  0
  185.3380  178.0700  143.3320 C   0  0  2  0  0  3  0  0  0  0  0  0
  181.0210  175.9300  138.0930 O   0  0  0  0  0  0  0  0  0  0  0  0
  186.0360  178.1430  141.0570 N   0  0  0  0  0  0  0  0  0  0  0  0
  187.0920  177.2350  137.5620 C   0  0  0  0  0  3  0  0  0  0  0  0
  185.9550  178.5690  144.6360 C   0  0  0  0  0  2  0  0  0  0  0  0
  186.0660  177.4730  145.6900 C   0  0  0  0  0  2  0  0  0  0  0  0
  188.5970  176.7070  144.6090 F   0  0  0  0  0  0  0  0  0  0  0  0
  187.3440  177.6110  146.4430 C   0  0  0  0  0  0  0  0  0  0  0  0
  188.5610  177.2110  145.8670 C   0  0  0  0  0  0  0  0  0  0  0  0
  189.7280  177.8490  147.8940 C   0  0  0  0  0  3  0  0  0  0  0  0
  188.5160  178.2430  148.4690 C   0  0  0  0  0  3  0  0  0  0  0  0
  187.3260  178.1220  147.7450 C   0  0  0  0  0  3  0  0  0  0  0  0
  189.7490  177.3330  146.5950 C   0  0  0  0  0  3  0  0  0  0  0  0
  1 14  1  0  0  0  0
  1 11  1  0  0  0  0
  2  8  1  0  0  0  0
  2 18  2  0  0  0  0
  3 11  2  0  0  0  0
  3 24  1  0  0  0  0
  4 19  1  6  0  0  0
  4 13  1  0  0  0  0
  5  8  2  0  0  0  0
  7  6  1  0  0  0  0
  7 12  1  0  0  0  0
  9 22  1  0  0  0  0
 10 16  1  0  0  0  0
 10 21  1  0  0  0  0
 11  2  1  0  0  0  0
 12 20  1  0  0  0  0
 13 22  1  0  0  0  0
 14  5  1  0  0  0  0
 15  3  1  0  0  0  0
 16  7  1  0  0  0  0
 17  1  2  0  0  0  0
 20  4  1  0  0  0  0
 21 15  1  0  0  0  0
 22 26  1  1  0  0  0
 23  6  2  0  0  0  0
 24  4  1  0  0  0  0
 24  9  1  0  0  0  0
 25 17  1  0  0  0  0
 25 15  2  0  0  0  0
 26 27  1  0  0  0  0
 27 29  1  0  0  0  0
 28 30  1  0  0  0  0
 29 33  1  0  0  0  0
 30 29  2  0  0  0  0
 30 34  1  0  0  0  0
 31 32  1  0  0  0  0
 33 32  2  0  0  0  0
 34 31  2  0  0  0  0
M  END
>  <MODEL>
8

>  <REMARK>
 VINA RESULT:      -8.4      2.879      8.524
  Name = 
  3 active torsions:
  status: ('A' for Active; 'I' for Inactive)
    1  A    between atoms: C_3  and  C_13
    2  A    between atoms: C_3  and  C_17
    3  A    between atoms: C_17  and  C_29
                            x       y       z     vdW  Elec       q    Type
                         _______ _______ _______ _____ _____    ______ ____

>  <TORSDO>
F 3

$$$$
=
 OpenBabel10252414513D

 34 38  0  0  1  0  0  0  0  0999 V2000
  189.3120  177.1330  146.3050 C   0  0  0  0  0  0  0  0  0  0  0  0
  187.1630  178.2930  146.0320 C   0  0  0  0  0  0  0  0  0  0  0  0
  188.6710  177.7550  144.0280 C   0  0  0  0  0  0  0  0  0  0  0  0
  187.7290  178.5750  141.7190 C   0  0  2  0  0  0  0  0  0  0  0  0
  187.5910  177.2610  148.1400 C   0  0  0  0  0  3  0  0  0  0  0  0
  190.0340  176.0690  138.7330 C   0  0  0  0  0  3  0  0  0  0  0  0
  190.2200  177.2310  139.5470 N   0  0  0  0  0  0  0  0  0  0  0  0
  186.7740  177.8810  147.3450 N   0  0  0  0  0  0  0  0  0  0  0  0
  186.2500  177.4860  143.2690 C   0  0  0  0  0  2  0  0  0  0  0  0
  191.5380  177.0650  141.6150 C   0  0  0  0  0  2  0  0  0  0  0  0
  188.3810  177.7120  145.4220 C   0  0  0  0  0  0  0  0  0  0  0  0
  189.1590  178.1380  139.7190 N   0  0  0  0  0  2  0  0  0  0  0  0
  186.3160  178.9600  141.3350 C   0  0  0  0  0  2  0  0  0  0  0  0
  189.0330  177.0220  147.7800 C   0  0  0  0  0  2  0  0  0  0  0  0
  189.9920  177.4340  143.6280 C   0  0  0  0  0  0  0  0  0  0  0  0
  191.5180  177.5140  140.1580 C   0  0  0  0  0  2  0  0  0  0  0  0
  190.5310  176.7480  145.8510 N   0  0  0  0  0  0  0  0  0  0  0  0
  186.5020  179.1900  145.4480 O   0  0  0  0  0  0  0  0  0  0  0  0
  188.5280  179.7210  141.7810 O   0  0  0  0  0  1  0  0  0  0  0  0
  188.2280  177.5510  140.6820 C   0  0  0  0  0  2  0  0  0  0  0  0
  190.4270  177.6960  142.3020 N   0  0  0  0  0  2  0  0  0  0  0  0
  185.4310  177.9760  142.0860 C   0  0  2  0  0  3  0  0  0  0  0  0
  190.9740  175.2500  138.5490 O   0  0  0  0  0  0  0  0  0  0  0  0
  187.6110  177.9560  143.0440 N   0  0  0  0  0  0  0  0  0  0  0  0
  190.8930  176.9060  144.5560 C   0  0  0  0  0  3  0  0  0  0  0  0
  184.1020  178.5920  142.5160 C   0  0  0  0  0  2  0  0  0  0  0  0
  183.0130  178.4300  141.4620 C   0  0  0  0  0  2  0  0  0  0  0  0
  180.6540  178.8900  139.9170 F   0  0  0  0  0  0  0  0  0  0  0  0
  181.6700  178.6340  142.0750 C   0  0  0  0  0  0  0  0  0  0  0  0
  180.5430  178.8640  141.2680 C   0  0  0  0  0  0  0  0  0  0  0  0
  179.1630  179.0480  143.2520 C   0  0  0  0  0  3  0  0  0  0  0  0
  180.2850  178.8230  144.0550 C   0  0  0  0  0  3  0  0  0  0  0  0
  181.5360  178.6180  143.4670 C   0  0  0  0  0  3  0  0  0  0  0  0
  179.2930  179.0690  141.8600 C   0  0  0  0  0  3  0  0  0  0  0  0
  1 14  1  0  0  0  0
  2  8  1  0  0  0  0
  3 11  1  0  0  0  0
  4 19  1  1  0  0  0
  4 24  1  0  0  0  0
  6  7  1  0  0  0  0
  7 12  1  0  0  0  0
  7 16  1  0  0  0  0
  8  5  2  0  0  0  0
 10 21  1  0  0  0  0
 11  2  1  0  0  0  0
 11  1  2  0  0  0  0
 12 20  1  0  0  0  0
 13  4  1  0  0  0  0
 13 22  1  0  0  0  0
 14  5  1  0  0  0  0
 15  3  2  0  0  0  0
 15 25  1  0  0  0  0
 16 10  1  0  0  0  0
 17  1  1  0  0  0  0
 18  2  2  0  0  0  0
 20  4  1  0  0  0  0
 21 15  1  0  0  0  0
 22 26  1  1  0  0  0
 22  9  1  0  0  0  0
 23  6  2  0  0  0  0
 24  9  1  0  0  0  0
 24  3  1  0  0  0  0
 25 17  2  0  0  0  0
 27 29  1  0  0  0  0
 27 26  1  0  0  0  0
 28 30  1  0  0  0  0
 29 33  1  0  0  0  0
 30 34  1  0  0  0  0
 30 29  2  0  0  0  0
 31 32  1  0  0  0  0
 33 32  2  0  0  0  0
 34 31  2  0  0  0  0
M  END
>  <MODEL>
9

>  <REMARK>
 VINA RESULT:      -8.3      2.869      6.644
  Name = 
  3 active torsions:
  status: ('A' for Active; 'I' for Inactive)
    1  A    between atoms: C_3  and  C_13
    2  A    between atoms: C_3  and  C_17
    3  A    between atoms: C_17  and  C_29
                            x       y       z     vdW  Elec       q    Type
                         _______ _______ _______ _____ _____    ______ ____

>  <TORSDO>
F 3

$$$$
