=
 OpenBabel10262422313D

 43 48  0  0  1  0  0  0  0  0999 V2000
  185.6990  178.0510  142.4730 O   0  0  0  0  0  0  0  0  0  0  0  0
  188.3130  177.5180  146.7290 C   0  0  0  0  0  0  0  0  0  0  0  0
  184.1220  178.7080  144.2760 C   0  0  0  0  0  0  0  0  0  0  0  0
  186.1090  178.1860  146.1540 C   0  0  0  0  0  0  0  0  0  0  0  0
  188.6320  177.3300  145.3820 C   0  0  0  0  0  3  0  0  0  0  0  0
  189.3350  177.2580  147.7760 C   0  0  0  0  0  1  0  0  0  0  0  0
  186.3860  178.0120  144.7830 C   0  0  0  0  0  0  0  0  0  0  0  0
  187.0690  177.9370  147.0850 N   0  0  0  0  0  0  0  0  0  0  0  0
  187.6630  177.5780  144.4090 C   0  0  0  0  0  3  0  0  0  0  0  0
  185.3880  178.2550  143.8260 C   0  0  0  0  0  0  0  0  0  0  0  0
  183.8950  178.8690  145.6090 N   0  0  0  0  0  0  0  0  0  0  0  0
  184.8450  178.6150  146.5460 C   0  0  0  0  0  3  0  0  0  0  0  0
  183.0340  179.1100  143.3290 C   0  0  0  0  0  2  0  0  0  0  0  0
  181.6700  178.7230  143.8810 C   0  0  0  0  0  2  0  0  0  0  0  0
  180.6020  178.8310  142.8030 C   0  0  0  0  0  2  0  0  0  0  0  0
  180.9790  180.2080  139.1880 C   0  0  0  0  0  2  0  0  0  0  0  0
  182.7280  177.7240  139.6550 C   0  0  0  0  0  2  0  0  0  0  0  0
  182.5250  178.7500  138.5450 C   0  0  0  0  0  2  0  0  0  0  0  0
  180.5240  180.1090  140.6430 C   0  0  0  0  0  2  0  0  0  0  0  0
  181.2300  178.9990  141.4280 C   0  0  2  0  0  3  0  0  0  0  0  0
  182.3620  180.0320  139.0860 O   0  0  0  0  0  0  0  0  0  0  0  0
  181.1670  177.4050  140.5440 S   0  0  0  0  0  0  0  0  0  0  0  0
  186.0070  179.0930  141.5590 C   0  0  0  0  0  2  0  0  0  0  0  0
  187.4810  179.0440  141.1940 C   0  0  0  0  0  2  0  0  0  0  0  0
  187.7930  177.8260  140.3360 C   0  0  1  0  0  3  0  0  0  0  0  0
  189.0380  175.8060  137.0990 F   0  0  0  0  0  0  0  0  0  0  0  0
  189.4560  177.1330  137.1350 C   0  0  2  0  0  0  0  0  0  0  0  0
  188.0230  178.2200  138.9470 N   0  0  2  0  0  0  0  0  0  0  0  0
  189.0390  177.1400  140.8600 C   0  0  0  0  0  2  0  0  0  0  0  0
  186.9520  177.6090  138.1560 C   0  0  0  0  0  2  0  0  0  0  0  0
  189.3450  177.6790  138.5760 C   0  0  1  0  0  3  0  0  0  0  0  0
  188.5600  177.9740  136.2190 C   0  0  0  0  0  2  0  0  0  0  0  0
  189.7730  176.6840  139.6310 C   0  0  0  0  0  2  0  0  0  0  0  0
  187.0970  177.9740  136.6780 C   0  0  0  0  0  2  0  0  0  0  0  0
  190.8540  177.2390  136.7070 N   0  0  0  0  0  2  0  0  0  0  0  0
  191.3060  175.9870  136.1030 C   0  0  1  0  0  3  0  0  0  0  0  0
  191.3480  176.1360  134.5940 C   0  0  0  0  0  1  0  0  0  0  0  0
  192.6560  175.6180  136.6260 C   0  0  0  0  0  0  0  0  0  0  0  0
  194.2730  175.6790  138.4280 N   0  0  0  0  0  0  0  0  0  0  0  0
  194.2960  173.6180  137.1220 C   0  0  0  0  0  2  0  0  0  0  0  0
  194.8790  174.5690  138.1210 C   0  0  0  0  0  3  0  0  0  0  0  0
  193.7540  174.5580  135.6630 S   0  0  0  0  0  0  0  0  0  0  0  0
  193.0500  176.1030  137.8060 C   0  0  0  0  0  3  0  0  0  0  0  0
  1 10  1  0  0  0  0
  2  8  1  0  0  0  0
  2  6  1  0  0  0  0
  3 11  1  0  0  0  0
  4 12  1  0  0  0  0
  4  8  2  0  0  0  0
  5  2  2  0  0  0  0
  7  4  1  0  0  0  0
  9  7  2  0  0  0  0
  9  5  1  0  0  0  0
 10  3  2  0  0  0  0
 10  7  1  0  0  0  0
 11 12  2  0  0  0  0
 13 14  1  0  0  0  0
 13  3  1  0  0  0  0
 15 14  1  0  0  0  0
 16 19  1  0  0  0  0
 17 22  1  0  0  0  0
 18 21  1  0  0  0  0
 18 17  1  0  0  0  0
 19 20  1  0  0  0  0
 20 15  1  1  0  0  0
 21 16  1  0  0  0  0
 22 20  1  0  0  0  0
 23  1  1  0  0  0  0
 24 23  1  0  0  0  0
 25 29  1  0  0  0  0
 25 24  1  1  0  0  0
 27 26  1  6  0  0  0
 27 31  1  0  0  0  0
 28 30  1  6  0  0  0
 28 25  1  0  0  0  0
 31 28  1  0  0  0  0
 31 33  1  1  0  0  0
 32 34  1  0  0  0  0
 32 27  1  0  0  0  0
 33 29  1  0  0  0  0
 34 30  1  0  0  0  0
 35 27  1  0  0  0  0
 36 37  1  6  0  0  0
 36 38  1  0  0  0  0
 36 35  1  0  0  0  0
 38 43  2  0  0  0  0
 40 41  1  0  0  0  0
 41 39  2  0  0  0  0
 42 38  1  0  0  0  0
 42 40  1  0  0  0  0
 43 39  1  0  0  0  0
M  END
>  <MODEL>
1

>  <REMARK>
 VINA RESULT:      -8.4      0.000      0.000
  Name = 
  11 active torsions:
  status: ('A' for Active; 'I' for Inactive)
    1  A    between atoms: C_1  and  C_28
    2  A    between atoms: C_1  and  C_34
    3  A    between atoms: C_2  and  C_13
    4  A    between atoms: C_4  and  N_22
    5  A    between atoms: C_8  and  C_34
    6  A    between atoms: C_11  and  C_14
    7  A    between atoms: C_13  and  C_38
    8  A    between atoms: C_14  and  N_22
    9  A    between atoms: O_27  and  C_30
   10  A    between atoms: O_27  and  C_38
   11  A    between atoms: C_28  and  C_35
                            x       y       z     vdW  Elec       q    Type
                         _______ _______ _______ _____ _____    ______ ____

>  <TORSDO>
F 11

$$$$
=
 OpenBabel10262422313D

 43 48  0  0  1  0  0  0  0  0999 V2000
  188.4240  178.1880  143.4860 O   0  0  0  0  0  0  0  0  0  0  0  0
  191.4260  176.3400  147.0640 C   0  0  0  0  0  0  0  0  0  0  0  0
  187.0420  178.2080  145.5500 C   0  0  0  0  0  0  0  0  0  0  0  0
  189.1910  177.1310  146.9540 C   0  0  0  0  0  0  0  0  0  0  0  0
  191.6090  176.6020  145.7040 C   0  0  0  0  0  3  0  0  0  0  0  0
  192.5390  175.7670  147.8650 C   0  0  0  0  0  1  0  0  0  0  0  0
  189.3300  177.4130  145.5810 C   0  0  0  0  0  0  0  0  0  0  0  0
  190.2310  176.6060  147.6560 N   0  0  0  0  0  0  0  0  0  0  0  0
  190.5560  177.1390  144.9630 C   0  0  0  0  0  3  0  0  0  0  0  0
  188.2500  177.9410  144.8560 C   0  0  0  0  0  0  0  0  0  0  0  0
  186.9490  177.9260  146.8800 N   0  0  0  0  0  0  0  0  0  0  0  0
  187.9800  177.3950  147.5860 C   0  0  0  0  0  3  0  0  0  0  0  0
  185.8770  178.8810  144.8960 C   0  0  0  0  0  2  0  0  0  0  0  0
  185.2140  177.9530  143.8890 C   0  0  0  0  0  2  0  0  0  0  0  0
  183.9420  178.5760  143.3370 C   0  0  0  0  0  2  0  0  0  0  0  0
  184.6710  179.0250  139.5450 C   0  0  0  0  0  2  0  0  0  0  0  0
  182.0820  177.4420  140.0340 C   0  0  0  0  0  2  0  0  0  0  0  0
  182.9390  177.8320  138.8340 C   0  0  0  0  0  2  0  0  0  0  0  0
  184.8640  179.0960  141.0590 C   0  0  0  0  0  2  0  0  0  0  0  0
  183.8070  178.3130  141.8460 C   0  0  2  0  0  3  0  0  0  0  0  0
  184.3000  177.7360  139.1510 O   0  0  0  0  0  0  0  0  0  0  0  0
  182.1160  178.7430  141.3140 S   0  0  0  0  0  0  0  0  0  0  0  0
  188.2320  177.2150  142.4700 C   0  0  0  0  0  2  0  0  0  0  0  0
  189.5550  176.9110  141.7870 C   0  0  0  0  0  2  0  0  0  0  0  0
  189.6160  177.5430  140.4040 C   0  0  1  0  0  3  0  0  0  0  0  0
  189.9470  177.6610  136.4060 F   0  0  0  0  0  0  0  0  0  0  0  0
  189.6460  176.4010  136.9130 C   0  0  2  0  0  0  0  0  0  0  0  0
  190.1030  176.5790  139.4190 N   0  0  2  0  0  0  0  0  0  0  0  0
  188.2310  178.0020  139.9920 C   0  0  0  0  0  2  0  0  0  0  0  0
  191.3820  177.0970  138.9240 C   0  0  0  0  0  2  0  0  0  0  0  0
  189.0880  176.5320  138.3470 C   0  0  1  0  0  3  0  0  0  0  0  0
  190.9220  175.5520  136.9560 C   0  0  0  0  0  2  0  0  0  0  0  0
  188.1470  177.7020  138.5230 C   0  0  0  0  0  2  0  0  0  0  0  0
  191.9840  176.1460  137.8890 C   0  0  0  0  0  2  0  0  0  0  0  0
  188.6330  175.7460  136.0810 N   0  0  0  0  0  2  0  0  0  0  0  0
  187.2990  176.2470  136.3990 C   0  0  1  0  0  3  0  0  0  0  0  0
  186.8100  177.1430  135.2770 C   0  0  0  0  0  1  0  0  0  0  0  0
  186.3530  175.1090  136.6050 C   0  0  0  0  0  0  0  0  0  0  0  0
  185.9500  172.8660  137.4250 N   0  0  0  0  0  0  0  0  0  0  0  0
  184.0580  174.3870  137.6770 C   0  0  0  0  0  2  0  0  0  0  0  0
  184.6830  173.0260  137.6780 C   0  0  0  0  0  3  0  0  0  0  0  0
  184.6040  175.2840  136.1930 S   0  0  0  0  0  0  0  0  0  0  0  0
  186.8230  173.9510  137.0750 C   0  0  0  0  0  3  0  0  0  0  0  0
  1 10  1  0  0  0  0
  2  8  1  0  0  0  0
  2  6  1  0  0  0  0
  3 11  1  0  0  0  0
  4 12  1  0  0  0  0
  4  8  2  0  0  0  0
  5  2  2  0  0  0  0
  7  4  1  0  0  0  0
  9  7  2  0  0  0  0
  9  5  1  0  0  0  0
 10  3  2  0  0  0  0
 10  7  1  0  0  0  0
 11 12  2  0  0  0  0
 13  3  1  0  0  0  0
 14 13  1  0  0  0  0
 15 14  1  0  0  0  0
 16 19  1  0  0  0  0
 17 22  1  0  0  0  0
 18 21  1  0  0  0  0
 18 17  1  0  0  0  0
 19 20  1  0  0  0  0
 20 15  1  1  0  0  0
 21 16  1  0  0  0  0
 22 20  1  0  0  0  0
 23  1  1  0  0  0  0
 24 23  1  0  0  0  0
 25 24  1  1  0  0  0
 27 26  1  6  0  0  0
 27 32  1  0  0  0  0
 27 31  1  0  0  0  0
 28 30  1  6  0  0  0
 28 25  1  0  0  0  0
 29 25  1  0  0  0  0
 31 33  1  6  0  0  0
 31 28  1  0  0  0  0
 32 34  1  0  0  0  0
 33 29  1  0  0  0  0
 34 30  1  0  0  0  0
 35 36  1  0  0  0  0
 35 27  1  0  0  0  0
 36 37  1  6  0  0  0
 36 38  1  0  0  0  0
 38 43  2  0  0  0  0
 39 41  2  0  0  0  0
 40 41  1  0  0  0  0
 42 38  1  0  0  0  0
 42 40  1  0  0  0  0
 43 39  1  0  0  0  0
M  END
>  <MODEL>
2

>  <REMARK>
 VINA RESULT:      -8.3      2.467      4.389
  Name = 
  11 active torsions:
  status: ('A' for Active; 'I' for Inactive)
    1  A    between atoms: C_1  and  C_28
    2  A    between atoms: C_1  and  C_34
    3  A    between atoms: C_2  and  C_13
    4  A    between atoms: C_4  and  N_22
    5  A    between atoms: C_8  and  C_34
    6  A    between atoms: C_11  and  C_14
    7  A    between atoms: C_13  and  C_38
    8  A    between atoms: C_14  and  N_22
    9  A    between atoms: O_27  and  C_30
   10  A    between atoms: O_27  and  C_38
   11  A    between atoms: C_28  and  C_35
                            x       y       z     vdW  Elec       q    Type
                         _______ _______ _______ _____ _____    ______ ____

>  <TORSDO>
F 11

$$$$
=
 OpenBabel10262422313D

 43 48  0  0  1  0  0  0  0  0999 V2000
  187.8350  177.2810  142.4030 O   0  0  0  0  0  0  0  0  0  0  0  0
  187.9120  177.8550  147.3930 C   0  0  0  0  0  0  0  0  0  0  0  0
  185.6090  178.2280  142.9710 C   0  0  0  0  0  0  0  0  0  0  0  0
  186.3440  178.2500  145.6550 C   0  0  0  0  0  0  0  0  0  0  0  0
  188.8530  177.3930  146.4690 C   0  0  0  0  0  3  0  0  0  0  0  0
  188.2500  177.8920  148.8390 C   0  0  0  0  0  1  0  0  0  0  0  0
  187.2620  177.7940  144.6880 C   0  0  0  0  0  0  0  0  0  0  0  0
  186.6870  178.2690  146.9710 N   0  0  0  0  0  0  0  0  0  0  0  0
  188.5230  177.3630  145.1140 C   0  0  0  0  0  3  0  0  0  0  0  0
  186.8990  177.7610  143.3320 C   0  0  0  0  0  0  0  0  0  0  0  0
  184.7530  178.6660  143.9350 N   0  0  0  0  0  0  0  0  0  0  0  0
  185.0840  178.6800  145.2520 C   0  0  0  0  0  3  0  0  0  0  0  0
  185.1730  178.3470  141.5440 C   0  0  0  0  0  2  0  0  0  0  0  0
  183.6630  178.5120  141.4540 C   0  0  0  0  0  2  0  0  0  0  0  0
  183.2460  178.8920  140.0420 C   0  0  0  0  0  2  0  0  0  0  0  0
  181.6940  175.4930  138.9690 C   0  0  0  0  0  2  0  0  0  0  0  0
  180.0530  177.8780  137.9370 C   0  0  0  0  0  2  0  0  0  0  0  0
  179.9170  176.3590  137.9590 C   0  0  0  0  0  2  0  0  0  0  0  0
  182.6350  176.4880  139.6470 C   0  0  0  0  0  2  0  0  0  0  0  0
  182.1800  177.9450  139.5140 C   0  0  2  0  0  3  0  0  0  0  0  0
  180.3580  175.8450  139.1850 O   0  0  0  0  0  0  0  0  0  0  0  0
  181.8010  178.3770  137.7830 S   0  0  0  0  0  0  0  0  0  0  0  0
  188.7260  178.1090  141.6690 C   0  0  0  0  0  2  0  0  0  0  0  0
  189.8400  177.2670  141.0700 C   0  0  0  0  0  2  0  0  0  0  0  0
  189.9580  177.5020  139.5700 C   0  0  1  0  0  3  0  0  0  0  0  0
  189.4500  176.7520  135.6610 F   0  0  0  0  0  0  0  0  0  0  0  0
  188.6010  176.0290  136.4910 C   0  0  2  0  0  0  0  0  0  0  0  0
  189.5900  176.2960  138.8300 N   0  0  2  0  0  0  0  0  0  0  0  0
  189.0310  178.6290  139.1570 C   0  0  0  0  0  2  0  0  0  0  0  0
  190.7980  175.8520  138.1290 C   0  0  0  0  0  2  0  0  0  0  0  0
  188.5320  176.6990  137.8820 C   0  0  1  0  0  3  0  0  0  0  0  0
  189.1410  174.6040  136.6560 C   0  0  0  0  0  2  0  0  0  0  0  0
  188.4870  178.2090  137.8220 C   0  0  0  0  0  2  0  0  0  0  0  0
  190.5190  174.5790  137.3290 C   0  0  0  0  0  2  0  0  0  0  0  0
  187.2480  175.9930  135.9290 N   0  0  0  0  0  2  0  0  0  0  0  0
  186.2740  175.6110  136.9490 C   0  0  1  0  0  3  0  0  0  0  0  0
  185.1810  176.6600  137.0270 C   0  0  0  0  0  1  0  0  0  0  0  0
  185.6870  174.2740  136.6300 C   0  0  0  0  0  0  0  0  0  0  0  0
  184.4550  172.3190  137.3590 N   0  0  0  0  0  0  0  0  0  0  0  0
  184.0340  172.9730  135.0460 C   0  0  0  0  0  2  0  0  0  0  0  0
  183.9560  172.0170  136.1960 C   0  0  0  0  0  3  0  0  0  0  0  0
  185.7250  173.6340  134.9430 S   0  0  0  0  0  0  0  0  0  0  0  0
  185.1560  173.5460  137.6160 C   0  0  0  0  0  3  0  0  0  0  0  0
  1 10  1  0  0  0  0
  2  6  1  0  0  0  0
  3 10  2  0  0  0  0
  3 11  1  0  0  0  0
  4  8  2  0  0  0  0
  5  2  2  0  0  0  0
  7  9  2  0  0  0  0
  7  4  1  0  0  0  0
  8  2  1  0  0  0  0
  9  5  1  0  0  0  0
 10  7  1  0  0  0  0
 11 12  2  0  0  0  0
 12  4  1  0  0  0  0
 13  3  1  0  0  0  0
 14 13  1  0  0  0  0
 15 14  1  0  0  0  0
 16 21  1  0  0  0  0
 16 19  1  0  0  0  0
 17 18  1  0  0  0  0
 18 21  1  0  0  0  0
 20 19  1  0  0  0  0
 20 15  1  6  0  0  0
 22 17  1  0  0  0  0
 22 20  1  0  0  0  0
 23  1  1  0  0  0  0
 24 23  1  0  0  0  0
 25 24  1  1  0  0  0
 27 26  1  6  0  0  0
 27 32  1  0  0  0  0
 27 31  1  0  0  0  0
 28 30  1  6  0  0  0
 28 25  1  0  0  0  0
 29 25  1  0  0  0  0
 31 33  1  6  0  0  0
 31 28  1  0  0  0  0
 32 34  1  0  0  0  0
 33 29  1  0  0  0  0
 34 30  1  0  0  0  0
 35 27  1  0  0  0  0
 35 36  1  0  0  0  0
 36 37  1  6  0  0  0
 38 36  1  0  0  0  0
 38 43  2  0  0  0  0
 39 43  1  0  0  0  0
 40 41  1  0  0  0  0
 41 39  2  0  0  0  0
 42 40  1  0  0  0  0
 42 38  1  0  0  0  0
M  END
>  <MODEL>
3

>  <REMARK>
 VINA RESULT:      -8.2      2.957      4.522
  Name = 
  11 active torsions:
  status: ('A' for Active; 'I' for Inactive)
    1  A    between atoms: C_1  and  C_28
    2  A    between atoms: C_1  and  C_34
    3  A    between atoms: C_2  and  C_13
    4  A    between atoms: C_4  and  N_22
    5  A    between atoms: C_8  and  C_34
    6  A    between atoms: C_11  and  C_14
    7  A    between atoms: C_13  and  C_38
    8  A    between atoms: C_14  and  N_22
    9  A    between atoms: O_27  and  C_30
   10  A    between atoms: O_27  and  C_38
   11  A    between atoms: C_28  and  C_35
                            x       y       z     vdW  Elec       q    Type
                         _______ _______ _______ _____ _____    ______ ____

>  <TORSDO>
F 11

$$$$
=
 OpenBabel10262422313D

 43 48  0  0  1  0  0  0  0  0999 V2000
  188.8070  178.1770  141.5890 O   0  0  0  0  0  0  0  0  0  0  0  0
  190.7100  176.9370  146.0690 C   0  0  0  0  0  0  0  0  0  0  0  0
  186.8380  178.0130  143.0940 C   0  0  0  0  0  0  0  0  0  0  0  0
  188.5430  177.3410  145.1900 C   0  0  0  0  0  0  0  0  0  0  0  0
  191.2890  177.1950  144.8240 C   0  0  0  0  0  3  0  0  0  0  0  0
  191.5720  176.5770  147.2250 C   0  0  0  0  0  1  0  0  0  0  0  0
  189.0820  177.6120  143.9160 C   0  0  0  0  0  0  0  0  0  0  0  0
  189.3620  177.0130  146.2250 N   0  0  0  0  0  0  0  0  0  0  0  0
  190.4690  177.5320  143.7460 C   0  0  0  0  0  3  0  0  0  0  0  0
  188.2330  177.9350  142.8460 C   0  0  0  0  0  0  0  0  0  0  0  0
  186.3570  177.7490  144.3410 N   0  0  0  0  0  0  0  0  0  0  0  0
  187.1670  177.4130  145.3780 C   0  0  0  0  0  3  0  0  0  0  0  0
  185.8650  178.4670  142.0520 C   0  0  0  0  0  2  0  0  0  0  0  0
  184.4410  178.4090  142.5840 C   0  0  0  0  0  2  0  0  0  0  0  0
  183.4570  178.1160  141.4610 C   0  0  0  0  0  2  0  0  0  0  0  0
  180.3420  179.4910  143.3350 C   0  0  0  0  0  2  0  0  0  0  0  0
  180.0960  179.8440  140.2920 C   0  0  0  0  0  2  0  0  0  0  0  0
  179.3070  180.2610  141.5280 C   0  0  0  0  0  2  0  0  0  0  0  0
  181.7230  178.8780  143.1100 C   0  0  0  0  0  2  0  0  0  0  0  0
  182.1690  178.9030  141.6440 C   0  0  2  0  0  3  0  0  0  0  0  0
  180.1750  180.6420  142.5590 O   0  0  0  0  0  0  0  0  0  0  0  0
  180.8900  178.2190  140.5390 S   0  0  0  0  0  0  0  0  0  0  0  0
  188.9680  177.1890  140.5820 C   0  0  0  0  0  2  0  0  0  0  0  0
  190.0960  177.5830  139.6430 C   0  0  0  0  0  2  0  0  0  0  0  0
  189.6320  177.5700  138.1930 C   0  0  1  0  0  3  0  0  0  0  0  0
  187.2270  176.7400  135.0890 F   0  0  0  0  0  0  0  0  0  0  0  0
  186.6160  176.6050  136.3320 C   0  0  2  0  0  0  0  0  0  0  0  0
  188.5400  176.6150  138.0110 N   0  0  2  0  0  0  0  0  0  0  0  0
  189.1420  178.9510  137.8040 C   0  0  0  0  0  2  0  0  0  0  0  0
  189.0410  175.5750  137.1090 C   0  0  0  0  0  2  0  0  0  0  0  0
  187.4270  177.3700  137.4010 C   0  0  1  0  0  3  0  0  0  0  0  0
  186.5670  175.1220  136.7180 C   0  0  0  0  0  2  0  0  0  0  0  0
  187.9560  178.7020  136.9170 C   0  0  0  0  0  2  0  0  0  0  0  0
  187.9680  174.5130  136.8620 C   0  0  0  0  0  2  0  0  0  0  0  0
  185.2600  177.1600  136.2950 N   0  0  0  0  0  2  0  0  0  0  0  0
  184.6170  177.0430  137.6020 C   0  0  1  0  0  3  0  0  0  0  0  0
  184.3740  178.4250  138.1770 C   0  0  0  0  0  1  0  0  0  0  0  0
  183.3280  176.2980  137.4800 C   0  0  0  0  0  0  0  0  0  0  0  0
  181.5660  175.0100  138.5310 N   0  0  0  0  0  0  0  0  0  0  0  0
  180.8110  176.4650  136.7240 C   0  0  0  0  0  2  0  0  0  0  0  0
  180.6210  175.3480  137.7030 C   0  0  0  0  0  3  0  0  0  0  0  0
  182.4280  176.2710  135.9160 S   0  0  0  0  0  0  0  0  0  0  0  0
  182.8610  175.6300  138.5380 C   0  0  0  0  0  3  0  0  0  0  0  0
  1 10  1  0  0  0  0
  2  8  1  0  0  0  0
  2  6  1  0  0  0  0
  3 11  1  0  0  0  0
  4 12  1  0  0  0  0
  4  8  2  0  0  0  0
  5  2  2  0  0  0  0
  7  4  1  0  0  0  0
  9  7  2  0  0  0  0
  9  5  1  0  0  0  0
 10  3  2  0  0  0  0
 10  7  1  0  0  0  0
 11 12  2  0  0  0  0
 13 14  1  0  0  0  0
 13  3  1  0  0  0  0
 15 14  1  0  0  0  0
 17 22  1  0  0  0  0
 17 18  1  0  0  0  0
 18 21  1  0  0  0  0
 19 16  1  0  0  0  0
 20 15  1  1  0  0  0
 20 19  1  0  0  0  0
 21 16  1  0  0  0  0
 22 20  1  0  0  0  0
 23  1  1  0  0  0  0
 24 23  1  0  0  0  0
 25 24  1  1  0  0  0
 27 26  1  6  0  0  0
 27 32  1  0  0  0  0
 27 31  1  0  0  0  0
 28 30  1  6  0  0  0
 28 25  1  0  0  0  0
 29 25  1  0  0  0  0
 31 33  1  6  0  0  0
 31 28  1  0  0  0  0
 32 34  1  0  0  0  0
 33 29  1  0  0  0  0
 34 30  1  0  0  0  0
 35 27  1  0  0  0  0
 35 36  1  0  0  0  0
 36 37  1  6  0  0  0
 38 36  1  0  0  0  0
 38 43  2  0  0  0  0
 39 43  1  0  0  0  0
 40 41  1  0  0  0  0
 41 39  2  0  0  0  0
 42 40  1  0  0  0  0
 42 38  1  0  0  0  0
M  END
>  <MODEL>
4

>  <REMARK>
 VINA RESULT:      -8.2      3.020      5.610
  Name = 
  11 active torsions:
  status: ('A' for Active; 'I' for Inactive)
    1  A    between atoms: C_1  and  C_28
    2  A    between atoms: C_1  and  C_34
    3  A    between atoms: C_2  and  C_13
    4  A    between atoms: C_4  and  N_22
    5  A    between atoms: C_8  and  C_34
    6  A    between atoms: C_11  and  C_14
    7  A    between atoms: C_13  and  C_38
    8  A    between atoms: C_14  and  N_22
    9  A    between atoms: O_27  and  C_30
   10  A    between atoms: O_27  and  C_38
   11  A    between atoms: C_28  and  C_35
                            x       y       z     vdW  Elec       q    Type
                         _______ _______ _______ _____ _____    ______ ____

>  <TORSDO>
F 11

$$$$
=
 OpenBabel10262422313D

 43 48  0  0  1  0  0  0  0  0999 V2000
  186.0590  179.3920  141.8740 O   0  0  0  0  0  0  0  0  0  0  0  0
  181.4690  178.4960  140.0410 C   0  0  0  0  0  0  0  0  0  0  0  0
  184.5960  179.2170  143.8750 C   0  0  0  0  0  0  0  0  0  0  0  0
  182.4200  178.7700  142.1980 C   0  0  0  0  0  0  0  0  0  0  0  0
  182.7190  178.6730  139.4430 C   0  0  0  0  0  3  0  0  0  0  0  0
  180.2710  178.2520  139.1960 C   0  0  0  0  0  1  0  0  0  0  0  0
  183.7000  178.9520  141.6400 C   0  0  0  0  0  0  0  0  0  0  0  0
  181.3450  178.5490  141.3950 N   0  0  0  0  0  0  0  0  0  0  0  0
  183.8360  178.9030  140.2480 C   0  0  0  0  0  3  0  0  0  0  0  0
  184.8040  179.1950  142.4720 C   0  0  0  0  0  0  0  0  0  0  0  0
  183.3440  179.0310  144.3760 N   0  0  0  0  0  0  0  0  0  0  0  0
  182.2650  178.8180  143.5800 C   0  0  0  0  0  3  0  0  0  0  0  0
  185.7260  179.3460  144.8480 C   0  0  0  0  0  2  0  0  0  0  0  0
  186.0170  178.0100  145.5160 C   0  0  0  0  0  2  0  0  0  0  0  0
  187.0290  177.2130  144.7060 C   0  0  0  0  0  2  0  0  0  0  0  0
  189.4850  177.5430  147.7010 C   0  0  0  0  0  2  0  0  0  0  0  0
  190.9450  176.8060  145.0990 C   0  0  0  0  0  2  0  0  0  0  0  0
  191.3040  176.9570  146.5730 C   0  0  0  0  0  2  0  0  0  0  0  0
  188.1690  177.5030  146.9250 C   0  0  0  0  0  2  0  0  0  0  0  0
  188.3340  177.0520  145.4700 C   0  0  2  0  0  3  0  0  0  0  0  0
  190.2840  176.4410  147.3830 O   0  0  0  0  0  0  0  0  0  0  0  0
  189.6440  177.9920  144.6180 S   0  0  0  0  0  0  0  0  0  0  0  0
  187.0710  178.3980  141.8000 C   0  0  0  0  0  2  0  0  0  0  0  0
  187.9690  178.6600  140.6030 C   0  0  0  0  0  2  0  0  0  0  0  0
  188.5610  177.3650  140.0670 C   0  0  1  0  0  3  0  0  0  0  0  0
  190.4200  174.9550  137.4510 F   0  0  0  0  0  0  0  0  0  0  0  0
  190.5970  176.3110  137.1970 C   0  0  2  0  0  0  0  0  0  0  0  0
  188.8420  177.4800  138.6370 N   0  0  2  0  0  0  0  0  0  0  0  0
  189.8560  177.0580  140.7950 C   0  0  0  0  0  2  0  0  0  0  0  0
  187.9670  176.5190  137.9610 C   0  0  0  0  0  2  0  0  0  0  0  0
  190.2660  177.1300  138.4650 C   0  0  1  0  0  3  0  0  0  0  0  0
  189.6540  176.7460  136.0690 C   0  0  0  0  0  2  0  0  0  0  0  0
  190.7630  176.4900  139.7420 C   0  0  0  0  0  2  0  0  0  0  0  0
  188.1780  176.5710  136.4470 C   0  0  0  0  0  2  0  0  0  0  0  0
  191.9880  176.5820  136.8230 N   0  0  0  0  0  2  0  0  0  0  0  0
  192.5810  175.4210  136.1620 C   0  0  1  0  0  3  0  0  0  0  0  0
  192.9460  175.7800  134.7340 C   0  0  0  0  0  1  0  0  0  0  0  0
  193.7920  174.9630  136.9070 C   0  0  0  0  0  0  0  0  0  0  0  0
  195.1540  175.0470  138.9090 N   0  0  0  0  0  0  0  0  0  0  0  0
  195.0820  172.8600  137.8290 C   0  0  0  0  0  2  0  0  0  0  0  0
  195.6460  173.8470  138.8040 C   0  0  0  0  0  3  0  0  0  0  0  0
  194.8610  173.6810  136.2210 S   0  0  0  0  0  0  0  0  0  0  0  0
  194.0880  175.5330  138.0780 C   0  0  0  0  0  3  0  0  0  0  0  0
  1 10  1  0  0  0  0
  2  8  1  0  0  0  0
  3 11  1  0  0  0  0
  3 13  1  0  0  0  0
  4 12  1  0  0  0  0
  5  2  2  0  0  0  0
  5  9  1  0  0  0  0
  6  2  1  0  0  0  0
  7  4  1  0  0  0  0
  7 10  1  0  0  0  0
  8  4  2  0  0  0  0
  9  7  2  0  0  0  0
 10  3  2  0  0  0  0
 12 11  2  0  0  0  0
 13 14  1  0  0  0  0
 15 14  1  0  0  0  0
 17 18  1  0  0  0  0
 18 21  1  0  0  0  0
 19 16  1  0  0  0  0
 20 15  1  6  0  0  0
 20 19  1  0  0  0  0
 21 16  1  0  0  0  0
 22 17  1  0  0  0  0
 22 20  1  0  0  0  0
 23  1  1  0  0  0  0
 24 23  1  0  0  0  0
 25 24  1  1  0  0  0
 25 29  1  0  0  0  0
 27 26  1  1  0  0  0
 27 31  1  0  0  0  0
 28 30  1  6  0  0  0
 28 25  1  0  0  0  0
 31 28  1  0  0  0  0
 31 33  1  1  0  0  0
 32 34  1  0  0  0  0
 32 27  1  0  0  0  0
 33 29  1  0  0  0  0
 34 30  1  0  0  0  0
 35 27  1  0  0  0  0
 36 37  1  6  0  0  0
 36 35  1  0  0  0  0
 36 38  1  0  0  0  0
 38 43  2  0  0  0  0
 40 41  1  0  0  0  0
 41 39  2  0  0  0  0
 42 38  1  0  0  0  0
 42 40  1  0  0  0  0
 43 39  1  0  0  0  0
M  END
>  <MODEL>
5

>  <REMARK>
 VINA RESULT:      -8.0      2.316      5.728
  Name = 
  11 active torsions:
  status: ('A' for Active; 'I' for Inactive)
    1  A    between atoms: C_1  and  C_28
    2  A    between atoms: C_1  and  C_34
    3  A    between atoms: C_2  and  C_13
    4  A    between atoms: C_4  and  N_22
    5  A    between atoms: C_8  and  C_34
    6  A    between atoms: C_11  and  C_14
    7  A    between atoms: C_13  and  C_38
    8  A    between atoms: C_14  and  N_22
    9  A    between atoms: O_27  and  C_30
   10  A    between atoms: O_27  and  C_38
   11  A    between atoms: C_28  and  C_35
                            x       y       z     vdW  Elec       q    Type
                         _______ _______ _______ _____ _____    ______ ____

>  <TORSDO>
F 11

$$$$
=
 OpenBabel10262422313D

 43 48  0  0  1  0  0  0  0  0999 V2000
  182.4540  179.6230  139.1470 O   0  0  0  0  0  0  0  0  0  0  0  0
  180.1210  183.1550  136.4420 C   0  0  0  0  0  0  0  0  0  0  0  0
  181.9040  178.5160  136.9920 C   0  0  0  0  0  0  0  0  0  0  0  0
  180.7280  180.8830  136.1190 C   0  0  0  0  0  0  0  0  0  0  0  0
  180.6900  183.1480  137.7180 C   0  0  0  0  0  3  0  0  0  0  0  0
  179.4810  184.3910  135.9220 C   0  0  0  0  0  1  0  0  0  0  0  0
  181.3150  180.8300  137.3980 C   0  0  0  0  0  0  0  0  0  0  0  0
  180.1500  182.0320  135.6750 N   0  0  0  0  0  0  0  0  0  0  0  0
  181.2870  181.9810  138.1950 C   0  0  0  0  0  3  0  0  0  0  0  0
  181.8970  179.6390  137.8580 C   0  0  0  0  0  0  0  0  0  0  0  0
  181.3310  178.6090  135.7590 N   0  0  0  0  0  0  0  0  0  0  0  0
  180.7450  179.7490  135.3130 C   0  0  0  0  0  3  0  0  0  0  0  0
  182.6050  177.2410  137.3410 C   0  0  0  0  0  2  0  0  0  0  0  0
  184.0170  177.2300  136.7740 C   0  0  0  0  0  2  0  0  0  0  0  0
  184.9810  176.5610  137.7420 C   0  0  0  0  0  2  0  0  0  0  0  0
  187.7260  179.0140  136.4940 C   0  0  0  0  0  2  0  0  0  0  0  0
  188.9030  176.7650  138.2270 C   0  0  0  0  0  2  0  0  0  0  0  0
  189.4090  178.0440  137.5680 C   0  0  0  0  0  2  0  0  0  0  0  0
  186.3410  178.4160  136.7320 C   0  0  0  0  0  2  0  0  0  0  0  0
  186.3490  177.2240  137.6950 C   0  0  2  0  0  3  0  0  0  0  0  0
  188.4580  179.0650  137.6840 O   0  0  0  0  0  0  0  0  0  0  0  0
  187.5980  175.9830  137.2190 S   0  0  0  0  0  0  0  0  0  0  0  0
  181.8240  179.0400  140.2790 C   0  0  0  0  0  2  0  0  0  0  0  0
  182.7710  178.0600  140.9510 C   0  0  0  0  0  2  0  0  0  0  0  0
  183.8440  178.7910  141.7460 C   0  0  1  0  0  3  0  0  0  0  0  0
  186.3600  179.4780  144.7970 F   0  0  0  0  0  0  0  0  0  0  0  0
  185.8660  178.1780  144.7500 C   0  0  2  0  0  0  0  0  0  0  0  0
  183.9080  178.2800  143.1140 N   0  0  2  0  0  0  0  0  0  0  0  0
  185.1930  178.5870  141.0860 C   0  0  0  0  0  2  0  0  0  0  0  0
  183.5200  179.3870  143.9920 C   0  0  0  0  0  2  0  0  0  0  0  0
  185.3110  177.8780  143.3400 C   0  0  1  0  0  3  0  0  0  0  0  0
  184.7310  178.0280  145.7700 C   0  0  0  0  0  2  0  0  0  0  0  0
  186.1610  178.4430  142.2250 C   0  0  0  0  0  2  0  0  0  0  0  0
  183.5440  178.9470  145.4560 C   0  0  0  0  0  2  0  0  0  0  0  0
  186.9340  177.2170  145.0410 N   0  0  0  0  0  2  0  0  0  0  0  0
  188.1540  177.9090  145.4500 C   0  0  1  0  0  3  0  0  0  0  0  0
  188.6220  177.3690  146.7890 C   0  0  0  0  0  1  0  0  0  0  0  0
  189.2210  177.7310  144.4190 C   0  0  0  0  0  0  0  0  0  0  0  0
  191.3610  178.4070  143.5070 N   0  0  0  0  0  0  0  0  0  0  0  0
  190.8990  176.0170  143.3330 C   0  0  0  0  0  2  0  0  0  0  0  0
  191.6740  177.2520  142.9940 C   0  0  0  0  0  3  0  0  0  0  0  0
  189.1230  176.3860  143.2190 S   0  0  0  0  0  0  0  0  0  0  0  0
  190.2360  178.5980  144.3790 C   0  0  0  0  0  3  0  0  0  0  0  0
  1 23  1  0  0  0  0
  2  5  1  0  0  0  0
  3 13  1  0  0  0  0
  3 10  1  0  0  0  0
  4  7  1  0  0  0  0
  5  9  2  0  0  0  0
  6  2  1  0  0  0  0
  7 10  2  0  0  0  0
  7  9  1  0  0  0  0
  8  4  1  0  0  0  0
  8  2  2  0  0  0  0
 10  1  1  0  0  0  0
 11  3  2  0  0  0  0
 12 11  1  0  0  0  0
 12  4  2  0  0  0  0
 14 13  1  0  0  0  0
 14 15  1  0  0  0  0
 16 19  1  0  0  0  0
 16 21  1  0  0  0  0
 18 21  1  0  0  0  0
 18 17  1  0  0  0  0
 19 20  1  0  0  0  0
 20 15  1  6  0  0  0
 22 20  1  0  0  0  0
 22 17  1  0  0  0  0
 23 24  1  0  0  0  0
 25 24  1  6  0  0  0
 25 28  1  0  0  0  0
 27 26  1  1  0  0  0
 27 35  1  0  0  0  0
 27 32  1  0  0  0  0
 28 31  1  0  0  0  0
 28 30  1  1  0  0  0
 29 25  1  0  0  0  0
 29 33  1  0  0  0  0
 30 34  1  0  0  0  0
 31 33  1  6  0  0  0
 31 27  1  0  0  0  0
 34 32  1  0  0  0  0
 35 36  1  0  0  0  0
 36 37  1  1  0  0  0
 38 36  1  0  0  0  0
 39 43  1  0  0  0  0
 41 40  1  0  0  0  0
 41 39  2  0  0  0  0
 42 40  1  0  0  0  0
 42 38  1  0  0  0  0
 43 38  2  0  0  0  0
M  END
>  <MODEL>
6

>  <REMARK>
 VINA RESULT:      -7.8      3.641      8.759
  Name = 
  11 active torsions:
  status: ('A' for Active; 'I' for Inactive)
    1  A    between atoms: C_1  and  C_28
    2  A    between atoms: C_1  and  C_34
    3  A    between atoms: C_2  and  C_13
    4  A    between atoms: C_4  and  N_22
    5  A    between atoms: C_8  and  C_34
    6  A    between atoms: C_11  and  C_14
    7  A    between atoms: C_13  and  C_38
    8  A    between atoms: C_14  and  N_22
    9  A    between atoms: O_27  and  C_30
   10  A    between atoms: O_27  and  C_38
   11  A    between atoms: C_28  and  C_35
                            x       y       z     vdW  Elec       q    Type
                         _______ _______ _______ _____ _____    ______ ____

>  <TORSDO>
F 11

$$$$
=
 OpenBabel10262422313D

 43 48  0  0  1  0  0  0  0  0999 V2000
  193.2190  176.7700  138.4810 O   0  0  0  0  0  0  0  0  0  0  0  0
  195.6180  172.4480  137.5900 C   0  0  0  0  0  0  0  0  0  0  0  0
  191.6760  175.4720  137.0300 C   0  0  0  0  0  0  0  0  0  0  0  0
  193.5390  173.4040  136.9630 C   0  0  0  0  0  0  0  0  0  0  0  0
  195.9380  173.5800  138.3440 C   0  0  0  0  0  3  0  0  0  0  0  0
  196.5730  171.3110  137.5200 C   0  0  0  0  0  1  0  0  0  0  0  0
  193.8170  174.5650  137.7110 C   0  0  0  0  0  0  0  0  0  0  0  0
  194.4370  172.3830  136.9200 N   0  0  0  0  0  0  0  0  0  0  0  0
  195.0330  174.6410  138.4010 C   0  0  0  0  0  3  0  0  0  0  0  0
  192.8940  175.6230  137.7410 C   0  0  0  0  0  0  0  0  0  0  0  0
  191.4420  174.3310  136.3230 N   0  0  0  0  0  0  0  0  0  0  0  0
  192.3370  173.3110  136.2690 C   0  0  0  0  0  3  0  0  0  0  0  0
  190.5800  176.4880  137.0990 C   0  0  0  0  0  2  0  0  0  0  0  0
  189.5910  176.2900  135.9590 C   0  0  0  0  0  2  0  0  0  0  0  0
  188.7830  177.5570  135.7210 C   0  0  0  0  0  2  0  0  0  0  0  0
  186.0700  178.0450  138.4610 C   0  0  0  0  0  2  0  0  0  0  0  0
  185.2150  175.9720  136.3600 C   0  0  0  0  0  2  0  0  0  0  0  0
  184.5820  176.6650  137.5610 C   0  0  0  0  0  2  0  0  0  0  0  0
  187.3610  178.2520  137.6710 C   0  0  0  0  0  2  0  0  0  0  0  0
  187.4080  177.4570  136.3610 C   0  0  2  0  0  3  0  0  0  0  0  0
  184.9630  178.0120  137.6070 O   0  0  0  0  0  0  0  0  0  0  0  0
  187.0000  175.6990  136.6270 S   0  0  0  0  0  0  0  0  0  0  0  0
  193.1960  176.8350  139.9000 C   0  0  0  0  0  2  0  0  0  0  0  0
  192.0690  177.7460  140.3590 C   0  0  0  0  0  2  0  0  0  0  0  0
  191.0310  176.9740  141.1600 C   0  0  1  0  0  3  0  0  0  0  0  0
  188.7840  176.0150  144.3430 F   0  0  0  0  0  0  0  0  0  0  0  0
  189.3600  177.2790  144.4170 C   0  0  2  0  0  0  0  0  0  0  0  0
  191.1360  177.2940  142.5820 N   0  0  2  0  0  0  0  0  0  0  0  0
  189.6410  177.3430  140.6790 C   0  0  0  0  0  2  0  0  0  0  0  0
  191.5310  176.0570  143.2600 C   0  0  0  0  0  2  0  0  0  0  0  0
  189.7940  177.7400  143.0070 C   0  0  1  0  0  3  0  0  0  0  0  0
  190.5970  177.2230  145.3200 C   0  0  0  0  0  2  0  0  0  0  0  0
  188.8020  177.3820  141.9240 C   0  0  0  0  0  2  0  0  0  0  0  0
  191.6810  176.2910  144.7640 C   0  0  0  0  0  2  0  0  0  0  0  0
  188.3960  178.2490  144.9430 N   0  0  0  0  0  2  0  0  0  0  0  0
  187.3690  177.5790  145.7380 C   0  0  1  0  0  3  0  0  0  0  0  0
  187.5640  177.9090  147.2050 C   0  0  0  0  0  1  0  0  0  0  0  0
  186.0080  178.0000  145.2870 C   0  0  0  0  0  0  0  0  0  0  0  0
  183.8520  178.9690  145.8190 N   0  0  0  0  0  0  0  0  0  0  0  0
  184.6760  179.5050  143.5850 C   0  0  0  0  0  2  0  0  0  0  0  0
  183.6070  179.4450  144.6330 C   0  0  0  0  0  3  0  0  0  0  0  0
  185.5500  177.9110  143.5440 S   0  0  0  0  0  0  0  0  0  0  0  0
  185.1250  178.4210  146.1960 C   0  0  0  0  0  3  0  0  0  0  0  0
  1 23  1  0  0  0  0
  2  5  1  0  0  0  0
  3 13  1  0  0  0  0
  3 10  1  0  0  0  0
  4  7  1  0  0  0  0
  5  9  2  0  0  0  0
  6  2  1  0  0  0  0
  7 10  2  0  0  0  0
  7  9  1  0  0  0  0
  8  4  1  0  0  0  0
  8  2  2  0  0  0  0
 10  1  1  0  0  0  0
 11  3  2  0  0  0  0
 12 11  1  0  0  0  0
 12  4  2  0  0  0  0
 14 13  1  0  0  0  0
 15 14  1  0  0  0  0
 17 22  1  0  0  0  0
 17 18  1  0  0  0  0
 18 21  1  0  0  0  0
 19 16  1  0  0  0  0
 20 15  1  1  0  0  0
 20 22  1  0  0  0  0
 20 19  1  0  0  0  0
 21 16  1  0  0  0  0
 23 24  1  0  0  0  0
 25 24  1  6  0  0  0
 25 28  1  0  0  0  0
 27 26  1  6  0  0  0
 27 35  1  0  0  0  0
 27 32  1  0  0  0  0
 28 31  1  0  0  0  0
 28 30  1  1  0  0  0
 29 25  1  0  0  0  0
 29 33  1  0  0  0  0
 30 34  1  0  0  0  0
 31 33  1  6  0  0  0
 31 27  1  0  0  0  0
 34 32  1  0  0  0  0
 35 36  1  0  0  0  0
 36 37  1  1  0  0  0
 38 36  1  0  0  0  0
 38 43  2  0  0  0  0
 39 43  1  0  0  0  0
 40 41  1  0  0  0  0
 41 39  2  0  0  0  0
 42 40  1  0  0  0  0
 42 38  1  0  0  0  0
M  END
>  <MODEL>
7

>  <REMARK>
 VINA RESULT:      -7.8      2.945      9.731
  Name = 
  11 active torsions:
  status: ('A' for Active; 'I' for Inactive)
    1  A    between atoms: C_1  and  C_28
    2  A    between atoms: C_1  and  C_34
    3  A    between atoms: C_2  and  C_13
    4  A    between atoms: C_4  and  N_22
    5  A    between atoms: C_8  and  C_34
    6  A    between atoms: C_11  and  C_14
    7  A    between atoms: C_13  and  C_38
    8  A    between atoms: C_14  and  N_22
    9  A    between atoms: O_27  and  C_30
   10  A    between atoms: O_27  and  C_38
   11  A    between atoms: C_28  and  C_35
                            x       y       z     vdW  Elec       q    Type
                         _______ _______ _______ _____ _____    ______ ____

>  <TORSDO>
F 11

$$$$
=
 OpenBabel10262422313D

 43 48  0  0  1  0  0  0  0  0999 V2000
  190.9290  177.4590  138.1860 O   0  0  0  0  0  0  0  0  0  0  0  0
  186.0460  177.2090  137.0310 C   0  0  0  0  0  0  0  0  0  0  0  0
  190.8230  176.0030  136.1750 C   0  0  0  0  0  0  0  0  0  0  0  0
  188.0550  176.3050  136.1490 C   0  0  0  0  0  0  0  0  0  0  0  0
  186.7590  177.8760  138.0300 C   0  0  0  0  0  3  0  0  0  0  0  0
  184.5670  177.3350  136.9660 C   0  0  0  0  0  1  0  0  0  0  0  0
  188.8160  176.9610  137.1370 C   0  0  0  0  0  0  0  0  0  0  0  0
  186.7030  176.4420  136.1190 N   0  0  0  0  0  0  0  0  0  0  0  0
  188.1480  177.7490  138.0810 C   0  0  0  0  0  3  0  0  0  0  0  0
  190.2100  176.8040  137.1730 C   0  0  0  0  0  0  0  0  0  0  0  0
  190.0530  175.3900  135.2330 N   0  0  0  0  0  0  0  0  0  0  0  0
  188.7010  175.5150  135.2030 C   0  0  0  0  0  3  0  0  0  0  0  0
  192.3090  175.8730  136.0550 C   0  0  0  0  0  2  0  0  0  0  0  0
  192.7660  174.4930  136.5050 C   0  0  0  0  0  2  0  0  0  0  0  0
  194.0980  174.1320  135.8640 C   0  0  0  0  0  2  0  0  0  0  0  0
  197.7930  174.2380  137.0630 C   0  0  0  0  0  2  0  0  0  0  0  0
  195.8220  174.5020  139.4060 C   0  0  0  0  0  2  0  0  0  0  0  0
  197.3310  174.5870  139.2060 C   0  0  0  0  0  2  0  0  0  0  0  0
  196.5960  174.1830  136.1160 C   0  0  0  0  0  2  0  0  0  0  0  0
  195.2510  174.3840  136.8220 C   0  0  2  0  0  3  0  0  0  0  0  0
  197.6320  175.2530  138.0120 O   0  0  0  0  0  0  0  0  0  0  0  0
  195.0780  173.2860  138.2680 S   0  0  0  0  0  0  0  0  0  0  0  0
  191.7700  176.7980  139.1200 C   0  0  0  0  0  2  0  0  0  0  0  0
  191.7050  177.5030  140.4650 C   0  0  0  0  0  2  0  0  0  0  0  0
  190.7350  176.8020  141.4060 C   0  0  1  0  0  3  0  0  0  0  0  0
  188.7580  176.1060  144.8280 F   0  0  0  0  0  0  0  0  0  0  0  0
  189.3400  177.3670  144.7560 C   0  0  2  0  0  0  0  0  0  0  0  0
  190.9590  177.2290  142.7860 N   0  0  2  0  0  0  0  0  0  0  0  0
  189.3110  177.1440  141.0150 C   0  0  0  0  0  2  0  0  0  0  0  0
  191.4060  176.0430  143.5220 C   0  0  0  0  0  2  0  0  0  0  0  0
  189.6570  177.7160  143.2850 C   0  0  1  0  0  3  0  0  0  0  0  0
  190.6480  177.3700  145.5560 C   0  0  0  0  0  2  0  0  0  0  0  0
  188.5780  177.2850  142.3180 C   0  0  0  0  0  2  0  0  0  0  0  0
  191.6800  176.3900  144.9860 C   0  0  0  0  0  2  0  0  0  0  0  0
  188.4250  178.3820  145.2850 N   0  0  0  0  0  2  0  0  0  0  0  0
  187.3700  177.7610  146.0830 C   0  0  1  0  0  3  0  0  0  0  0  0
  187.4710  178.2390  147.5190 C   0  0  0  0  0  1  0  0  0  0  0  0
  186.0280  178.0950  145.5180 C   0  0  0  0  0  0  0  0  0  0  0  0
  183.8050  179.0020  145.8430 N   0  0  0  0  0  0  0  0  0  0  0  0
  184.7580  179.4330  143.6380 C   0  0  0  0  0  2  0  0  0  0  0  0
  183.6230  179.3920  144.6150 C   0  0  0  0  0  3  0  0  0  0  0  0
  185.6930  177.8780  143.7580 S   0  0  0  0  0  0  0  0  0  0  0  0
  185.0690  178.5340  146.3380 C   0  0  0  0  0  3  0  0  0  0  0  0
  1 23  1  0  0  0  0
  2  5  1  0  0  0  0
  3 10  1  0  0  0  0
  4  7  1  0  0  0  0
  5  9  2  0  0  0  0
  6  2  1  0  0  0  0
  7 10  2  0  0  0  0
  7  9  1  0  0  0  0
  8  4  1  0  0  0  0
  8  2  2  0  0  0  0
 10  1  1  0  0  0  0
 11  3  2  0  0  0  0
 12 11  1  0  0  0  0
 12  4  2  0  0  0  0
 13  3  1  0  0  0  0
 13 14  1  0  0  0  0
 15 14  1  0  0  0  0
 16 21  1  0  0  0  0
 18 17  1  0  0  0  0
 19 20  1  0  0  0  0
 19 16  1  0  0  0  0
 20 15  1  6  0  0  0
 20 22  1  0  0  0  0
 21 18  1  0  0  0  0
 22 17  1  0  0  0  0
 23 24  1  0  0  0  0
 25 24  1  6  0  0  0
 25 28  1  0  0  0  0
 27 26  1  1  0  0  0
 27 35  1  0  0  0  0
 27 32  1  0  0  0  0
 28 31  1  0  0  0  0
 28 30  1  1  0  0  0
 29 25  1  0  0  0  0
 29 33  1  0  0  0  0
 30 34  1  0  0  0  0
 31 33  1  6  0  0  0
 31 27  1  0  0  0  0
 34 32  1  0  0  0  0
 35 36  1  0  0  0  0
 36 37  1  1  0  0  0
 38 36  1  0  0  0  0
 38 43  2  0  0  0  0
 39 43  1  0  0  0  0
 40 42  1  0  0  0  0
 40 41  1  0  0  0  0
 41 39  2  0  0  0  0
 42 38  1  0  0  0  0
M  END
>  <MODEL>
8

>  <REMARK>
 VINA RESULT:      -7.7      3.317     11.165
  Name = 
  11 active torsions:
  status: ('A' for Active; 'I' for Inactive)
    1  A    between atoms: C_1  and  C_28
    2  A    between atoms: C_1  and  C_34
    3  A    between atoms: C_2  and  C_13
    4  A    between atoms: C_4  and  N_22
    5  A    between atoms: C_8  and  C_34
    6  A    between atoms: C_11  and  C_14
    7  A    between atoms: C_13  and  C_38
    8  A    between atoms: C_14  and  N_22
    9  A    between atoms: O_27  and  C_30
   10  A    between atoms: O_27  and  C_38
   11  A    between atoms: C_28  and  C_35
                            x       y       z     vdW  Elec       q    Type
                         _______ _______ _______ _____ _____    ______ ____

>  <TORSDO>
F 11

$$$$
=
 OpenBabel10262422313D

 43 48  0  0  1  0  0  0  0  0999 V2000
  188.3000  178.8300  141.1870 O   0  0  0  0  0  0  0  0  0  0  0  0
  190.7160  176.8850  145.1380 C   0  0  0  0  0  0  0  0  0  0  0  0
  186.5130  178.2960  142.8270 C   0  0  0  0  0  0  0  0  0  0  0  0
  188.4550  177.3360  144.5750 C   0  0  0  0  0  0  0  0  0  0  0  0
  191.1470  177.3950  143.9110 C   0  0  0  0  0  3  0  0  0  0  0  0
  191.7080  176.3610  146.1130 C   0  0  0  0  0  1  0  0  0  0  0  0
  188.8430  177.8610  143.3270 C   0  0  0  0  0  0  0  0  0  0  0  0
  189.3900  176.8650  145.4430 N   0  0  0  0  0  0  0  0  0  0  0  0
  190.2050  177.8820  143.0040 C   0  0  0  0  0  3  0  0  0  0  0  0
  187.8730  178.3330  142.4280 C   0  0  0  0  0  0  0  0  0  0  0  0
  186.1790  177.7850  144.0450 N   0  0  0  0  0  0  0  0  0  0  0  0
  187.1060  177.3050  144.9130 C   0  0  0  0  0  3  0  0  0  0  0  0
  185.4190  178.8850  141.9930 C   0  0  0  0  0  2  0  0  0  0  0  0
  184.0690  178.3030  142.3860 C   0  0  0  0  0  2  0  0  0  0  0  0
  183.1040  178.3390  141.2110 C   0  0  0  0  0  2  0  0  0  0  0  0
  180.0590  179.5560  143.2970 C   0  0  0  0  0  2  0  0  0  0  0  0
  179.9160  180.5310  140.3860 C   0  0  0  0  0  2  0  0  0  0  0  0
  179.1310  180.7540  141.6740 C   0  0  0  0  0  2  0  0  0  0  0  0
  181.3930  178.8920  142.9650 C   0  0  0  0  0  2  0  0  0  0  0  0
  181.8760  179.1740  141.5380 C   0  0  2  0  0  3  0  0  0  0  0  0
  180.0010  180.8490  142.7680 O   0  0  0  0  0  0  0  0  0  0  0  0
  180.5750  178.8320  140.3070 S   0  0  0  0  0  0  0  0  0  0  0  0
  187.9400  178.2630  139.9350 C   0  0  0  0  0  2  0  0  0  0  0  0
  189.1160  178.3330  138.9760 C   0  0  0  0  0  2  0  0  0  0  0  0
  189.8630  177.0070  138.9270 C   0  0  1  0  0  3  0  0  0  0  0  0
  191.8700  173.9550  137.2650 F   0  0  0  0  0  0  0  0  0  0  0  0
  191.8100  175.0940  136.4690 C   0  0  2  0  0  0  0  0  0  0  0  0
  190.0090  176.5500  137.5470 N   0  0  2  0  0  0  0  0  0  0  0  0
  191.2430  177.1780  139.5330 C   0  0  0  0  0  2  0  0  0  0  0  0
  189.2480  175.3030  137.4370 C   0  0  0  0  0  2  0  0  0  0  0  0
  191.4530  176.3220  137.3360 C   0  0  1  0  0  3  0  0  0  0  0  0
  190.7240  174.9130  135.4010 C   0  0  0  0  0  2  0  0  0  0  0  0
  192.1440  176.3300  138.6820 C   0  0  0  0  0  2  0  0  0  0  0  0
  189.3280  174.7450  136.0150 C   0  0  0  0  0  2  0  0  0  0  0  0
  193.1060  175.3390  135.8320 N   0  0  0  0  0  2  0  0  0  0  0  0
  193.9960  174.1940  136.0110 C   0  0  1  0  0  3  0  0  0  0  0  0
  194.1860  173.4830  134.6850 C   0  0  0  0  0  1  0  0  0  0  0  0
  195.3140  174.6420  136.5530 C   0  0  0  0  0  0  0  0  0  0  0  0
  197.0180  174.4810  138.2680 N   0  0  0  0  0  0  0  0  0  0  0  0
  197.8810  174.9010  136.0240 C   0  0  0  0  0  2  0  0  0  0  0  0
  198.0200  174.8280  137.5140 C   0  0  0  0  0  3  0  0  0  0  0  0
  196.3480  175.7900  135.6200 S   0  0  0  0  0  0  0  0  0  0  0  0
  195.7080  174.2020  137.7510 C   0  0  0  0  0  3  0  0  0  0  0  0
  1 10  1  0  0  0  0
  2  8  1  0  0  0  0
  2  6  1  0  0  0  0
  3 11  1  0  0  0  0
  4 12  1  0  0  0  0
  4  8  2  0  0  0  0
  5  2  2  0  0  0  0
  7  4  1  0  0  0  0
  9  7  2  0  0  0  0
  9  5  1  0  0  0  0
 10  3  2  0  0  0  0
 10  7  1  0  0  0  0
 11 12  2  0  0  0  0
 13 14  1  0  0  0  0
 13  3  1  0  0  0  0
 15 14  1  0  0  0  0
 17 18  1  0  0  0  0
 18 21  1  0  0  0  0
 19 16  1  0  0  0  0
 20 15  1  6  0  0  0
 20 19  1  0  0  0  0
 21 16  1  0  0  0  0
 22 17  1  0  0  0  0
 22 20  1  0  0  0  0
 23  1  1  0  0  0  0
 24 23  1  0  0  0  0
 25 24  1  6  0  0  0
 25 29  1  0  0  0  0
 27 26  1  1  0  0  0
 27 31  1  0  0  0  0
 28 30  1  1  0  0  0
 28 25  1  0  0  0  0
 31 28  1  0  0  0  0
 31 33  1  1  0  0  0
 32 34  1  0  0  0  0
 32 27  1  0  0  0  0
 33 29  1  0  0  0  0
 34 30  1  0  0  0  0
 35 36  1  0  0  0  0
 35 27  1  0  0  0  0
 36 37  1  6  0  0  0
 36 38  1  0  0  0  0
 38 43  2  0  0  0  0
 40 41  1  0  0  0  0
 41 39  2  0  0  0  0
 42 40  1  0  0  0  0
 42 38  1  0  0  0  0
 43 39  1  0  0  0  0
M  END
>  <MODEL>
9

>  <REMARK>
 VINA RESULT:      -7.6      2.112      3.168
  Name = 
  11 active torsions:
  status: ('A' for Active; 'I' for Inactive)
    1  A    between atoms: C_1  and  C_28
    2  A    between atoms: C_1  and  C_34
    3  A    between atoms: C_2  and  C_13
    4  A    between atoms: C_4  and  N_22
    5  A    between atoms: C_8  and  C_34
    6  A    between atoms: C_11  and  C_14
    7  A    between atoms: C_13  and  C_38
    8  A    between atoms: C_14  and  N_22
    9  A    between atoms: O_27  and  C_30
   10  A    between atoms: O_27  and  C_38
   11  A    between atoms: C_28  and  C_35
                            x       y       z     vdW  Elec       q    Type
                         _______ _______ _______ _____ _____    ______ ____

>  <TORSDO>
F 11

$$$$
