=
 OpenBabel10262419443D

 25 29  0  0  1  0  0  0  0  0999 V2000
  185.8680  178.1970  144.6140 C   0  0  0  0  0  0  0  0  0  0  0  0
  187.1250  177.5020  145.1140 C   0  0  1  0  0  3  0  0  0  0  0  0
  184.9920  178.1520  146.9800 C   0  0  0  0  0  2  0  0  0  0  0  0
  185.6000  178.4360  143.2490 C   0  0  0  0  0  0  0  0  0  0  0  0
  184.3750  179.1670  141.4800 O   0  0  0  0  0  0  0  0  0  0  0  0
  186.3510  178.2380  147.3970 O   0  0  0  0  0  0  0  0  0  0  0  0
  183.4370  179.3890  143.7490 C   0  0  0  0  0  3  0  0  0  0  0  0
  184.4310  179.0220  142.8470 C   0  0  0  0  0  0  0  0  0  0  0  0
  188.6620  177.8120  147.0670 C   0  0  0  0  0  0  0  0  0  0  0  0
  188.9090  178.1570  148.4960 C   0  0  0  0  0  1  0  0  0  0  0  0
  188.3540  177.7500  144.2390 C   0  0  0  0  0  2  0  0  0  0  0  0
  185.5610  178.6500  140.8820 C   0  0  0  0  0  3  0  0  0  0  0  0
  184.8500  178.5320  145.5410 C   0  0  0  0  0  0  0  0  0  0  0  0
  183.6510  179.1260  145.1080 C   0  0  0  0  0  3  0  0  0  0  0  0
  189.8710  177.5770  146.1990 C   0  0  0  0  0  2  0  0  0  0  0  0
  186.4200  178.1180  142.0450 C   0  0  0  0  0  3  0  0  0  0  0  0
  189.5280  176.9920  144.8280 C   0  0  2  0  0  3  0  0  0  0  0  0
  187.4120  177.8610  146.5650 C   0  0  0  0  0  0  0  0  0  0  0  0
  190.7230  177.1010  143.8950 C   0  0  0  0  0  2  0  0  0  0  0  0
  189.4550  176.6520  139.4620 O   0  0  0  0  0  1  0  0  0  0  0  0
  190.7630  176.6620  139.9460 C   0  0  1  0  0  3  0  0  0  0  0  0
  191.0420  177.8640  140.4820 N   0  0  0  0  0  2  0  0  0  0  0  0
  190.5400  176.2290  142.6990 C   0  0  0  0  0  0  0  0  0  0  0  0
  190.7350  176.7630  141.3940 N   0  0  0  0  0  0  0  0  0  0  0  0
  190.2380  175.0170  142.8430 O   0  0  0  0  0  0  0  0  0  0  0  0
  1  2  1  0  0  0  0
  1 13  1  0  0  0  0
  2 11  1  6  0  0  0
  2 18  1  0  0  0  0
  3  6  1  0  0  0  0
  4  1  2  0  0  0  0
  5  8  1  0  0  0  0
  7 14  1  0  0  0  0
  8  4  1  0  0  0  0
  8  7  2  0  0  0  0
  9 10  1  0  0  0  0
 11 17  1  0  0  0  0
 12  5  1  0  0  0  0
 12 16  2  0  0  0  0
 13  3  1  0  0  0  0
 14 13  2  0  0  0  0
 15  9  1  0  0  0  0
 16  4  1  0  0  0  0
 17 19  1  6  0  0  0
 17 15  1  0  0  0  0
 18  9  2  0  0  0  0
 18  6  1  0  0  0  0
 21 20  1  6  0  0  0
 21 22  1  0  0  0  0
 21 24  1  0  0  0  0
 22 24  1  0  0  0  0
 23 25  2  0  0  0  0
 23 19  1  0  0  0  0
 24 23  1  0  0  0  0
M  END
>  <MODEL>
1

>  <REMARK>
 VINA RESULT:     -10.5      0.000      0.000
  Name = 
  2 active torsions:
  status: ('A' for Active; 'I' for Inactive)
    1  A    between atoms: C_6  and  C_15
    2  A    between atoms: C_6  and  C_23
                            x       y       z     vdW  Elec       q    Type
                         _______ _______ _______ _____ _____    ______ ____

>  <TORSDO>
F 2

$$$$
=
 OpenBabel10262419443D

 25 29  0  0  1  0  0  0  0  0999 V2000
  187.2030  177.7160  143.9670 C   0  0  0  0  0  0  0  0  0  0  0  0
  188.5340  177.0550  143.6450 C   0  0  1  0  0  3  0  0  0  0  0  0
  187.4740  176.9310  146.3500 C   0  0  0  0  0  2  0  0  0  0  0  0
  186.3590  178.2880  142.9910 C   0  0  0  0  0  0  0  0  0  0  0  0
  184.4910  179.3340  142.2270 O   0  0  0  0  0  0  0  0  0  0  0  0
  188.8780  177.0500  146.1420 O   0  0  0  0  0  0  0  0  0  0  0  0
  184.6710  178.8230  144.6330 C   0  0  0  0  0  3  0  0  0  0  0  0
  185.1480  178.8280  143.3260 C   0  0  0  0  0  0  0  0  0  0  0  0
  190.7870  176.9880  144.7350 C   0  0  0  0  0  0  0  0  0  0  0  0
  191.6540  176.9550  145.9470 C   0  0  0  0  0  1  0  0  0  0  0  0
  189.2480  177.6670  142.4400 C   0  0  0  0  0  2  0  0  0  0  0  0
  185.2730  179.1330  141.0530 C   0  0  0  0  0  3  0  0  0  0  0  0
  186.7130  177.6710  145.2960 C   0  0  0  0  0  0  0  0  0  0  0  0
  185.4620  178.2250  145.6220 C   0  0  0  0  0  3  0  0  0  0  0  0
  191.4760  177.1340  143.4020 C   0  0  0  0  0  2  0  0  0  0  0  0
  186.5480  178.4030  141.5160 C   0  0  0  0  0  3  0  0  0  0  0  0
  190.5440  176.9120  142.2110 C   0  0  2  0  0  3  0  0  0  0  0  0
  189.4470  177.0340  144.8620 C   0  0  0  0  0  0  0  0  0  0  0  0
  191.1980  177.4020  140.9300 C   0  0  0  0  0  2  0  0  0  0  0  0
  187.4360  177.5090  138.2290 O   0  0  0  0  0  1  0  0  0  0  0  0
  188.6810  178.0570  137.9250 C   0  0  1  0  0  3  0  0  0  0  0  0
  188.9630  179.0550  138.7830 N   0  0  0  0  0  2  0  0  0  0  0  0
  190.4670  176.8920  139.7340 C   0  0  0  0  0  0  0  0  0  0  0  0
  189.6090  177.7610  139.0020 N   0  0  0  0  0  0  0  0  0  0  0  0
  190.6270  175.7030  139.3570 O   0  0  0  0  0  0  0  0  0  0  0  0
  1 13  1  0  0  0  0
  2 11  1  6  0  0  0
  2  1  1  0  0  0  0
  2 18  1  0  0  0  0
  4  8  1  0  0  0  0
  4  1  2  0  0  0  0
  5  8  1  0  0  0  0
  6  3  1  0  0  0  0
  7 14  1  0  0  0  0
  8  7  2  0  0  0  0
  9 18  2  0  0  0  0
  9 10  1  0  0  0  0
 12 16  2  0  0  0  0
 12  5  1  0  0  0  0
 13 14  2  0  0  0  0
 13  3  1  0  0  0  0
 15  9  1  0  0  0  0
 16  4  1  0  0  0  0
 17 19  1  6  0  0  0
 17 11  1  0  0  0  0
 17 15  1  0  0  0  0
 18  6  1  0  0  0  0
 21 20  1  1  0  0  0
 21 22  1  0  0  0  0
 21 24  1  0  0  0  0
 22 24  1  0  0  0  0
 23 19  1  0  0  0  0
 24 23  1  0  0  0  0
 25 23  2  0  0  0  0
M  END
>  <MODEL>
2

>  <REMARK>
 VINA RESULT:      -9.9      1.595      2.522
  Name = 
  2 active torsions:
  status: ('A' for Active; 'I' for Inactive)
    1  A    between atoms: C_6  and  C_15
    2  A    between atoms: C_6  and  C_23
                            x       y       z     vdW  Elec       q    Type
                         _______ _______ _______ _____ _____    ______ ____

>  <TORSDO>
F 2

$$$$
=
 OpenBabel10262419443D

 25 29  0  0  1  0  0  0  0  0999 V2000
  186.3310  178.1400  144.5430 C   0  0  0  0  0  0  0  0  0  0  0  0
  185.2670  178.7270  143.6300 C   0  0  1  0  0  3  0  0  0  0  0  0
  185.0570  179.0790  146.5080 C   0  0  0  0  0  2  0  0  0  0  0  0
  187.5150  177.5330  144.0720 C   0  0  0  0  0  0  0  0  0  0  0  0
  189.5330  176.5070  144.2710 O   0  0  0  0  0  0  0  0  0  0  0  0
  183.8800  178.8940  145.7270 O   0  0  0  0  0  0  0  0  0  0  0  0
  188.3330  177.1780  146.3170 C   0  0  0  0  0  3  0  0  0  0  0  0
  188.4660  177.0640  144.9370 C   0  0  0  0  0  0  0  0  0  0  0  0
  182.7630  178.7860  143.6370 C   0  0  0  0  0  0  0  0  0  0  0  0
  181.4590  178.8710  144.3530 C   0  0  0  0  0  1  0  0  0  0  0  0
  185.1430  178.0060  142.2880 C   0  0  0  0  0  2  0  0  0  0  0  0
  189.3340  176.5950  142.8630 C   0  0  0  0  0  3  0  0  0  0  0  0
  186.2000  178.2960  145.9450 C   0  0  0  0  0  0  0  0  0  0  0  0
  187.1910  177.8140  146.8190 C   0  0  0  0  0  3  0  0  0  0  0  0
  182.7170  178.5210  142.1540 C   0  0  0  0  0  2  0  0  0  0  0  0
  187.9810  177.3070  142.6740 C   0  0  0  0  0  3  0  0  0  0  0  0
  184.0700  178.6940  141.4650 C   0  0  2  0  0  3  0  0  0  0  0  0
  183.9180  178.7990  144.3310 C   0  0  0  0  0  0  0  0  0  0  0  0
  184.0340  178.0900  140.0710 C   0  0  0  0  0  2  0  0  0  0  0  0
  187.8940  178.8850  137.6370 O   0  0  0  0  0  1  0  0  0  0  0  0
  186.6870  178.4050  137.1300 C   0  0  1  0  0  3  0  0  0  0  0  0
  186.4210  177.1950  137.6550 N   0  0  0  0  0  2  0  0  0  0  0  0
  184.7840  178.9440  139.1050 C   0  0  0  0  0  0  0  0  0  0  0  0
  185.7080  178.3500  138.2000 N   0  0  0  0  0  0  0  0  0  0  0  0
  184.5830  180.1850  139.0730 O   0  0  0  0  0  0  0  0  0  0  0  0
  1 13  1  0  0  0  0
  2 11  1  6  0  0  0
  2 18  1  0  0  0  0
  2  1  1  0  0  0  0
  4  1  2  0  0  0  0
  4  8  1  0  0  0  0
  5  8  1  0  0  0  0
  6  3  1  0  0  0  0
  7 14  1  0  0  0  0
  8  7  2  0  0  0  0
  9 18  2  0  0  0  0
  9 10  1  0  0  0  0
 12  5  1  0  0  0  0
 13  3  1  0  0  0  0
 13 14  2  0  0  0  0
 15  9  1  0  0  0  0
 16 12  2  0  0  0  0
 16  4  1  0  0  0  0
 17 19  1  6  0  0  0
 17 15  1  0  0  0  0
 17 11  1  0  0  0  0
 18  6  1  0  0  0  0
 21 20  1  1  0  0  0
 21 22  1  0  0  0  0
 21 24  1  0  0  0  0
 22 24  1  0  0  0  0
 23 19  1  0  0  0  0
 24 23  1  0  0  0  0
 25 23  2  0  0  0  0
M  END
>  <MODEL>
3

>  <REMARK>
 VINA RESULT:      -9.9      2.384      5.395
  Name = 
  2 active torsions:
  status: ('A' for Active; 'I' for Inactive)
    1  A    between atoms: C_6  and  C_15
    2  A    between atoms: C_6  and  C_23
                            x       y       z     vdW  Elec       q    Type
                         _______ _______ _______ _____ _____    ______ ____

>  <TORSDO>
F 2

$$$$
=
 OpenBabel10262419443D

 25 29  0  0  1  0  0  0  0  0999 V2000
  187.0980  177.8250  144.8950 C   0  0  0  0  0  0  0  0  0  0  0  0
  187.8870  177.3460  143.6870 C   0  0  1  0  0  3  0  0  0  0  0  0
  189.0440  177.1370  146.3460 C   0  0  0  0  0  2  0  0  0  0  0  0
  185.7550  178.2550  144.8290 C   0  0  0  0  0  0  0  0  0  0  0  0
  183.7850  179.0180  145.6650 O   0  0  0  0  0  0  0  0  0  0  0  0
  189.8770  177.4420  145.2320 O   0  0  0  0  0  0  0  0  0  0  0  0
  185.6500  178.5880  147.2190 C   0  0  0  0  0  3  0  0  0  0  0  0
  185.0730  178.6310  145.9530 C   0  0  0  0  0  0  0  0  0  0  0  0
  190.2480  177.6120  142.8950 C   0  0  0  0  0  0  0  0  0  0  0  0
  191.7110  177.7250  143.1560 C   0  0  0  0  0  1  0  0  0  0  0  0
  187.4810  178.0240  142.3790 C   0  0  0  0  0  2  0  0  0  0  0  0
  183.5380  178.9010  144.2670 C   0  0  0  0  0  3  0  0  0  0  0  0
  187.6860  177.7420  146.1810 C   0  0  0  0  0  0  0  0  0  0  0  0
  186.9680  178.1260  147.3280 C   0  0  0  0  0  3  0  0  0  0  0  0
  189.7870  177.8230  141.4760 C   0  0  0  0  0  2  0  0  0  0  0  0
  184.8450  178.3630  143.6530 C   0  0  0  0  0  3  0  0  0  0  0  0
  188.3210  177.4490  141.2540 C   0  0  2  0  0  3  0  0  0  0  0  0
  189.3860  177.4770  143.9210 C   0  0  0  0  0  0  0  0  0  0  0  0
  187.8320  177.9970  139.9240 C   0  0  0  0  0  2  0  0  0  0  0  0
  192.0730  176.7920  138.5040 O   0  0  0  0  0  1  0  0  0  0  0  0
  190.8740  176.4860  137.8620 C   0  0  1  0  0  3  0  0  0  0  0  0
  190.1340  175.6760  138.6410 N   0  0  0  0  0  2  0  0  0  0  0  0
  188.9720  178.2000  138.9840 C   0  0  0  0  0  0  0  0  0  0  0  0
  189.7740  177.0930  138.5900 N   0  0  0  0  0  0  0  0  0  0  0  0
  189.2090  179.3450  138.5200 O   0  0  0  0  0  0  0  0  0  0  0  0
  1 13  1  0  0  0  0
  2 11  1  6  0  0  0
  2 18  1  0  0  0  0
  2  1  1  0  0  0  0
  4  1  2  0  0  0  0
  4  8  1  0  0  0  0
  5  8  1  0  0  0  0
  6  3  1  0  0  0  0
  7 14  1  0  0  0  0
  8  7  2  0  0  0  0
  9 10  1  0  0  0  0
  9 18  2  0  0  0  0
 12  5  1  0  0  0  0
 13  3  1  0  0  0  0
 13 14  2  0  0  0  0
 15  9  1  0  0  0  0
 16 12  2  0  0  0  0
 16  4  1  0  0  0  0
 17 19  1  6  0  0  0
 17 15  1  0  0  0  0
 17 11  1  0  0  0  0
 18  6  1  0  0  0  0
 21 20  1  1  0  0  0
 21 24  1  0  0  0  0
 21 22  1  0  0  0  0
 23 19  1  0  0  0  0
 24 22  1  0  0  0  0
 24 23  1  0  0  0  0
 25 23  2  0  0  0  0
M  END
>  <MODEL>
4

>  <REMARK>
 VINA RESULT:      -9.9      1.911      3.780
  Name = 
  2 active torsions:
  status: ('A' for Active; 'I' for Inactive)
    1  A    between atoms: C_6  and  C_15
    2  A    between atoms: C_6  and  C_23
                            x       y       z     vdW  Elec       q    Type
                         _______ _______ _______ _____ _____    ______ ____

>  <TORSDO>
F 2

$$$$
=
 OpenBabel10262419443D

 25 29  0  0  1  0  0  0  0  0999 V2000
  189.0050  177.1240  144.7310 C   0  0  0  0  0  0  0  0  0  0  0  0
  187.8390  177.2750  143.7680 C   0  0  1  0  0  3  0  0  0  0  0  0
  190.3390  176.1150  142.8420 C   0  0  0  0  0  2  0  0  0  0  0  0
  188.9140  177.3930  146.1140 C   0  0  0  0  0  0  0  0  0  0  0  0
  189.6790  177.5240  148.2500 O   0  0  0  0  0  0  0  0  0  0  0  0
  189.5740  176.9420  141.9700 O   0  0  0  0  0  0  0  0  0  0  0  0
  191.1970  176.6980  146.4910 C   0  0  0  0  0  3  0  0  0  0  0  0
  189.9800  177.1960  146.9480 C   0  0  0  0  0  0  0  0  0  0  0  0
  187.5790  178.1000  141.4170 C   0  0  0  0  0  0  0  0  0  0  0  0
  188.0790  178.2530  140.0220 C   0  0  0  0  0  1  0  0  0  0  0  0
  186.8600  178.3830  144.1560 C   0  0  0  0  0  2  0  0  0  0  0  0
  188.3290  177.9690  148.3450 C   0  0  0  0  0  3  0  0  0  0  0  0
  190.2260  176.5830  144.2580 C   0  0  0  0  0  0  0  0  0  0  0  0
  191.3090  176.3790  145.1320 C   0  0  0  0  0  3  0  0  0  0  0  0
  186.3070  178.8250  141.7740 C   0  0  0  0  0  2  0  0  0  0  0  0
  187.7550  177.8770  146.9180 C   0  0  0  0  0  3  0  0  0  0  0  0
  185.7390  178.4180  143.1340 C   0  0  2  0  0  3  0  0  0  0  0  0
  188.3270  177.4600  142.3380 C   0  0  0  0  0  0  0  0  0  0  0  0
  184.6770  179.4090  143.5800 C   0  0  0  0  0  2  0  0  0  0  0  0
  180.8560  179.1880  140.9720 O   0  0  0  0  0  1  0  0  0  0  0  0
  181.8420  178.2070  141.0690 C   0  0  1  0  0  3  0  0  0  0  0  0
  183.0040  178.6790  140.5800 N   0  0  0  0  0  2  0  0  0  0  0  0
  183.3100  178.8550  143.3580 C   0  0  0  0  0  0  0  0  0  0  0  0
  182.8420  178.6300  142.0330 N   0  0  0  0  0  0  0  0  0  0  0  0
  182.5810  178.5630  144.3400 O   0  0  0  0  0  0  0  0  0  0  0  0
  1  4  1  0  0  0  0
  2 11  1  1  0  0  0
  2  1  1  0  0  0  0
  3 13  1  0  0  0  0
  4 16  1  0  0  0  0
  4  8  2  0  0  0  0
  5 12  1  0  0  0  0
  6 18  1  0  0  0  0
  6  3  1  0  0  0  0
  7  8  1  0  0  0  0
  8  5  1  0  0  0  0
  9 15  1  0  0  0  0
  9 18  2  0  0  0  0
 10  9  1  0  0  0  0
 13  1  2  0  0  0  0
 13 14  1  0  0  0  0
 14  7  2  0  0  0  0
 15 17  1  0  0  0  0
 16 12  2  0  0  0  0
 17 19  1  1  0  0  0
 17 11  1  0  0  0  0
 18  2  1  0  0  0  0
 21 20  1  6  0  0  0
 21 24  1  0  0  0  0
 22 21  1  0  0  0  0
 22 24  1  0  0  0  0
 23 19  1  0  0  0  0
 23 25  2  0  0  0  0
 24 23  1  0  0  0  0
M  END
>  <MODEL>
5

>  <REMARK>
 VINA RESULT:      -9.6      2.877      6.842
  Name = 
  2 active torsions:
  status: ('A' for Active; 'I' for Inactive)
    1  A    between atoms: C_6  and  C_15
    2  A    between atoms: C_6  and  C_23
                            x       y       z     vdW  Elec       q    Type
                         _______ _______ _______ _____ _____    ______ ____

>  <TORSDO>
F 2

$$$$
=
 OpenBabel10262419443D

 25 29  0  0  1  0  0  0  0  0999 V2000
  189.5030  177.8610  142.8360 C   0  0  0  0  0  0  0  0  0  0  0  0
  189.4130  178.0290  144.3450 C   0  0  1  0  0  3  0  0  0  0  0  0
  191.9940  177.5530  143.0950 C   0  0  0  0  0  2  0  0  0  0  0  0
  188.4120  178.0570  141.9630 C   0  0  0  0  0  0  0  0  0  0  0  0
  187.3720  178.1660  139.9450 O   0  0  0  0  0  0  0  0  0  0  0  0
  191.7090  176.9890  144.3710 O   0  0  0  0  0  0  0  0  0  0  0  0
  189.7830  177.6520  140.0150 C   0  0  0  0  0  3  0  0  0  0  0  0
  188.5570  177.9420  140.6070 C   0  0  0  0  0  0  0  0  0  0  0  0
  190.3670  176.8230  146.3210 C   0  0  0  0  0  0  0  0  0  0  0  0
  191.4690  176.0750  146.9910 C   0  0  0  0  0  1  0  0  0  0  0  0
  188.0420  177.6760  144.9210 C   0  0  0  0  0  2  0  0  0  0  0  0
  186.3370  178.4650  140.8770 C   0  0  0  0  0  3  0  0  0  0  0  0
  190.7650  177.6020  142.2450 C   0  0  0  0  0  0  0  0  0  0  0  0
  190.8970  177.4940  140.8490 C   0  0  0  0  0  3  0  0  0  0  0  0
  189.0570  176.9210  147.0590 C   0  0  0  0  0  2  0  0  0  0  0  0
  187.0000  178.4250  142.2680 C   0  0  0  0  0  3  0  0  0  0  0  0
  188.0740  177.9030  146.4210 C   0  0  2  0  0  3  0  0  0  0  0  0
  190.5130  177.2510  145.0520 C   0  0  0  0  0  0  0  0  0  0  0  0
  186.6810  177.7030  146.9940 C   0  0  0  0  0  2  0  0  0  0  0  0
  184.4640  180.2590  143.8310 O   0  0  0  0  0  1  0  0  0  0  0  0
  183.8780  179.3500  144.7100 C   0  0  1  0  0  3  0  0  0  0  0  0
  184.3100  178.1060  144.4350 N   0  0  0  0  0  2  0  0  0  0  0  0
  185.8060  178.8680  146.6760 C   0  0  0  0  0  0  0  0  0  0  0  0
  184.9010  178.7990  145.5790 N   0  0  0  0  0  0  0  0  0  0  0  0
  185.8490  179.9020  147.3910 O   0  0  0  0  0  0  0  0  0  0  0  0
  1  2  1  0  0  0  0
  2 11  1  1  0  0  0
  2 18  1  0  0  0  0
  3  6  1  0  0  0  0
  4 16  1  0  0  0  0
  4  1  2  0  0  0  0
  5  8  1  0  0  0  0
  5 12  1  0  0  0  0
  6 18  1  0  0  0  0
  7  8  2  0  0  0  0
  7 14  1  0  0  0  0
  8  4  1  0  0  0  0
  9 10  1  0  0  0  0
  9 15  1  0  0  0  0
 11 17  1  0  0  0  0
 12 16  2  0  0  0  0
 13  1  1  0  0  0  0
 13  3  1  0  0  0  0
 14 13  2  0  0  0  0
 17 19  1  1  0  0  0
 17 15  1  0  0  0  0
 18  9  2  0  0  0  0
 21 20  1  6  0  0  0
 21 24  1  0  0  0  0
 22 21  1  0  0  0  0
 22 24  1  0  0  0  0
 23 19  1  0  0  0  0
 23 25  2  0  0  0  0
 24 23  1  0  0  0  0
M  END
>  <MODEL>
6

>  <REMARK>
 VINA RESULT:      -9.6      2.602      5.565
  Name = 
  2 active torsions:
  status: ('A' for Active; 'I' for Inactive)
    1  A    between atoms: C_6  and  C_15
    2  A    between atoms: C_6  and  C_23
                            x       y       z     vdW  Elec       q    Type
                         _______ _______ _______ _____ _____    ______ ____

>  <TORSDO>
F 2

$$$$
=
 OpenBabel10262419443D

 25 29  0  0  1  0  0  0  0  0999 V2000
  187.0090  178.1600  145.2070 C   0  0  0  0  0  0  0  0  0  0  0  0
  186.0960  178.7890  144.1670 C   0  0  1  0  0  3  0  0  0  0  0  0
  185.3130  178.7880  146.9670 C   0  0  0  0  0  2  0  0  0  0  0  0
  188.3050  177.6810  144.9200 C   0  0  0  0  0  0  0  0  0  0  0  0
  190.3220  176.7540  145.4070 O   0  0  0  0  0  0  0  0  0  0  0  0
  184.3250  178.6290  145.9530 O   0  0  0  0  0  0  0  0  0  0  0  0
  188.7040  177.1110  147.2330 C   0  0  0  0  0  3  0  0  0  0  0  0
  189.1060  177.1670  145.9020 C   0  0  0  0  0  0  0  0  0  0  0  0
  183.6400  178.7050  143.6830 C   0  0  0  0  0  0  0  0  0  0  0  0
  182.2200  178.6310  144.1300 C   0  0  0  0  0  1  0  0  0  0  0  0
  186.2880  178.2250  142.7590 C   0  0  0  0  0  2  0  0  0  0  0  0
  190.3890  176.9960  144.0050 C   0  0  0  0  0  3  0  0  0  0  0  0
  186.6000  178.1420  146.5640 C   0  0  0  0  0  0  0  0  0  0  0  0
  187.4400  177.6180  147.5620 C   0  0  0  0  0  3  0  0  0  0  0  0
  183.8990  178.6140  142.2010 C   0  0  0  0  0  2  0  0  0  0  0  0
  189.0450  177.6480  143.6260 C   0  0  0  0  0  3  0  0  0  0  0  0
  185.3410  178.9430  141.8160 C   0  0  2  0  0  3  0  0  0  0  0  0
  184.6360  178.7010  144.5900 C   0  0  0  0  0  0  0  0  0  0  0  0
  185.6190  178.5070  140.3870 C   0  0  0  0  0  2  0  0  0  0  0  0
  182.7770  177.7150  136.8180 O   0  0  0  0  0  1  0  0  0  0  0  0
  182.4130  177.7620  138.1620 C   0  0  1  0  0  3  0  0  0  0  0  0
  183.0040  176.7550  138.8300 N   0  0  0  0  0  2  0  0  0  0  0  0
  184.5530  178.9980  139.4680 C   0  0  0  0  0  0  0  0  0  0  0  0
  183.5790  178.0930  138.9610 N   0  0  0  0  0  0  0  0  0  0  0  0
  184.4990  180.2170  139.1600 O   0  0  0  0  0  0  0  0  0  0  0  0
  1 13  1  0  0  0  0
  2 11  1  6  0  0  0
  2 18  1  0  0  0  0
  2  1  1  0  0  0  0
  4  1  2  0  0  0  0
  4  8  1  0  0  0  0
  5  8  1  0  0  0  0
  6  3  1  0  0  0  0
  7 14  1  0  0  0  0
  8  7  2  0  0  0  0
  9 10  1  0  0  0  0
  9 18  2  0  0  0  0
 12  5  1  0  0  0  0
 13  3  1  0  0  0  0
 13 14  2  0  0  0  0
 15  9  1  0  0  0  0
 16 12  2  0  0  0  0
 16  4  1  0  0  0  0
 17 19  1  6  0  0  0
 17 15  1  0  0  0  0
 17 11  1  0  0  0  0
 18  6  1  0  0  0  0
 21 20  1  6  0  0  0
 21 22  1  0  0  0  0
 21 24  1  0  0  0  0
 22 24  1  0  0  0  0
 23 19  1  0  0  0  0
 24 23  1  0  0  0  0
 25 23  2  0  0  0  0
M  END
>  <MODEL>
7

>  <REMARK>
 VINA RESULT:      -9.5      2.886      5.856
  Name = 
  2 active torsions:
  status: ('A' for Active; 'I' for Inactive)
    1  A    between atoms: C_6  and  C_15
    2  A    between atoms: C_6  and  C_23
                            x       y       z     vdW  Elec       q    Type
                         _______ _______ _______ _____ _____    ______ ____

>  <TORSDO>
F 2

$$$$
=
 OpenBabel10262419443D

 25 29  0  0  1  0  0  0  0  0999 V2000
  186.4920  177.8780  144.3780 C   0  0  0  0  0  0  0  0  0  0  0  0
  187.7230  177.3870  143.6320 C   0  0  1  0  0  3  0  0  0  0  0  0
  187.6710  177.3210  146.5380 C   0  0  0  0  0  2  0  0  0  0  0  0
  185.2890  178.2490  143.7390 C   0  0  0  0  0  0  0  0  0  0  0  0
  183.1330  178.9610  143.6420 O   0  0  0  0  0  0  0  0  0  0  0  0
  188.8850  177.6200  145.8570 O   0  0  0  0  0  0  0  0  0  0  0  0
  184.1910  178.6640  145.8500 C   0  0  0  0  0  3  0  0  0  0  0  0
  184.1930  178.6370  144.4580 C   0  0  0  0  0  0  0  0  0  0  0  0
  190.1930  177.7210  143.8800 C   0  0  0  0  0  0  0  0  0  0  0  0
  191.4110  177.9020  144.7190 C   0  0  0  0  0  1  0  0  0  0  0  0
  187.8830  178.0010  142.2410 C   0  0  0  0  0  2  0  0  0  0  0  0
  183.4950  178.7840  142.2750 C   0  0  0  0  0  3  0  0  0  0  0  0
  186.4920  177.8650  145.7950 C   0  0  0  0  0  0  0  0  0  0  0  0
  185.3530  178.2600  146.5190 C   0  0  0  0  0  3  0  0  0  0  0  0
  190.3600  177.8610  142.3890 C   0  0  0  0  0  2  0  0  0  0  0  0
  184.9500  178.2780  142.2870 C   0  0  0  0  0  3  0  0  0  0  0  0
  189.1280  177.4200  141.5970 C   0  0  2  0  0  3  0  0  0  0  0  0
  188.9840  177.5880  144.4600 C   0  0  0  0  0  0  0  0  0  0  0  0
  189.2260  177.8990  140.1580 C   0  0  0  0  0  2  0  0  0  0  0  0
  187.7090  174.6580  137.2180 O   0  0  0  0  0  1  0  0  0  0  0  0
  188.3670  175.8370  136.8720 C   0  0  1  0  0  3  0  0  0  0  0  0
  187.6090  176.8970  137.2060 N   0  0  0  0  0  2  0  0  0  0  0  0
  189.5270  176.7620  139.2410 C   0  0  0  0  0  0  0  0  0  0  0  0
  188.7290  176.5540  138.0820 N   0  0  0  0  0  0  0  0  0  0  0  0
  190.5010  176.0030  139.4780 O   0  0  0  0  0  0  0  0  0  0  0  0
  1 13  1  0  0  0  0
  2 11  1  6  0  0  0
  2  1  1  0  0  0  0
  2 18  1  0  0  0  0
  4  1  2  0  0  0  0
  4  8  1  0  0  0  0
  5  8  1  0  0  0  0
  6  3  1  0  0  0  0
  7 14  1  0  0  0  0
  8  7  2  0  0  0  0
  9 18  2  0  0  0  0
  9 10  1  0  0  0  0
 12 16  2  0  0  0  0
 12  5  1  0  0  0  0
 13 14  2  0  0  0  0
 13  3  1  0  0  0  0
 15  9  1  0  0  0  0
 16  4  1  0  0  0  0
 17 19  1  6  0  0  0
 17 11  1  0  0  0  0
 17 15  1  0  0  0  0
 18  6  1  0  0  0  0
 21 22  1  0  0  0  0
 21 20  1  1  0  0  0
 21 24  1  0  0  0  0
 22 24  1  0  0  0  0
 23 25  2  0  0  0  0
 23 19  1  0  0  0  0
 24 23  1  0  0  0  0
M  END
>  <MODEL>
8

>  <REMARK>
 VINA RESULT:      -9.5      2.070      3.043
  Name = 
  2 active torsions:
  status: ('A' for Active; 'I' for Inactive)
    1  A    between atoms: C_6  and  C_15
    2  A    between atoms: C_6  and  C_23
                            x       y       z     vdW  Elec       q    Type
                         _______ _______ _______ _____ _____    ______ ____

>  <TORSDO>
F 2

$$$$
=
 OpenBabel10262419443D

 25 29  0  0  1  0  0  0  0  0999 V2000
  186.8160  177.7800  144.2360 C   0  0  0  0  0  0  0  0  0  0  0  0
  188.0740  177.2210  143.5910 C   0  0  1  0  0  3  0  0  0  0  0  0
  187.7710  177.1370  146.4810 C   0  0  0  0  0  2  0  0  0  0  0  0
  185.6960  178.2280  143.5030 C   0  0  0  0  0  0  0  0  0  0  0  0
  183.6020  179.0710  143.2340 O   0  0  0  0  0  0  0  0  0  0  0  0
  189.0550  177.3660  145.9080 O   0  0  0  0  0  0  0  0  0  0  0  0
  184.4490  178.6940  145.5190 C   0  0  0  0  0  3  0  0  0  0  0  0
  184.5680  178.6770  144.1320 C   0  0  0  0  0  0  0  0  0  0  0  0
  190.5290  177.4020  144.0500 C   0  0  0  0  0  0  0  0  0  0  0  0
  191.6800  177.5030  144.9920 C   0  0  0  0  0  1  0  0  0  0  0  0
  188.3880  177.8340  142.2270 C   0  0  0  0  0  2  0  0  0  0  0  0
  184.0670  178.8820  141.9000 C   0  0  0  0  0  3  0  0  0  0  0  0
  186.6950  177.7570  145.6480 C   0  0  0  0  0  0  0  0  0  0  0  0
  185.5240  178.2150  146.2780 C   0  0  0  0  0  3  0  0  0  0  0  0
  190.8300  177.5430  142.5800 C   0  0  0  0  0  2  0  0  0  0  0  0
  185.4830  178.2890  142.0280 C   0  0  0  0  0  3  0  0  0  0  0  0
  189.6460  177.1840  141.6820 C   0  0  2  0  0  3  0  0  0  0  0  0
  189.2700  177.3380  144.5250 C   0  0  0  0  0  0  0  0  0  0  0  0
  189.8950  177.6670  140.2630 C   0  0  0  0  0  2  0  0  0  0  0  0
  193.5560  176.7020  137.5950 O   0  0  0  0  0  1  0  0  0  0  0  0
  193.4160  176.3810  138.9440 C   0  0  1  0  0  3  0  0  0  0  0  0
  193.3540  177.5080  139.6770 N   0  0  0  0  0  2  0  0  0  0  0  0
  190.6890  176.6650  139.4950 C   0  0  0  0  0  0  0  0  0  0  0  0
  192.1030  176.8010  139.4010 N   0  0  0  0  0  0  0  0  0  0  0  0
  190.1150  175.6870  138.9530 O   0  0  0  0  0  0  0  0  0  0  0  0
  1 13  1  0  0  0  0
  2 11  1  6  0  0  0
  2  1  1  0  0  0  0
  2 18  1  0  0  0  0
  4  8  1  0  0  0  0
  4  1  2  0  0  0  0
  5  8  1  0  0  0  0
  6  3  1  0  0  0  0
  7 14  1  0  0  0  0
  8  7  2  0  0  0  0
  9 18  2  0  0  0  0
  9 10  1  0  0  0  0
 12 16  2  0  0  0  0
 12  5  1  0  0  0  0
 13 14  2  0  0  0  0
 13  3  1  0  0  0  0
 15  9  1  0  0  0  0
 16  4  1  0  0  0  0
 17 19  1  6  0  0  0
 17 11  1  0  0  0  0
 17 15  1  0  0  0  0
 18  6  1  0  0  0  0
 21 20  1  6  0  0  0
 21 24  1  0  0  0  0
 21 22  1  0  0  0  0
 23 19  1  0  0  0  0
 24 23  1  0  0  0  0
 24 22  1  0  0  0  0
 25 23  2  0  0  0  0
M  END
>  <MODEL>
9

>  <REMARK>
 VINA RESULT:      -9.4      1.728      2.812
  Name = 
  2 active torsions:
  status: ('A' for Active; 'I' for Inactive)
    1  A    between atoms: C_6  and  C_15
    2  A    between atoms: C_6  and  C_23
                            x       y       z     vdW  Elec       q    Type
                         _______ _______ _______ _____ _____    ______ ____

>  <TORSDO>
F 2

$$$$
