=
 OpenBabel10262420013D

 27 31  0  0  1  0  0  0  0  0999 V2000
  189.3260  178.4140  139.9880 C   0  0  0  0  0  2  0  0  0  0  0  0
  187.0290  178.3620  140.9420 C   0  0  0  0  0  0  0  0  0  0  0  0
  188.1150  177.0140  142.6660 N   0  0  0  0  0  2  0  0  0  0  0  0
  184.0700  179.7130  143.5190 C   0  0  0  0  0  3  0  0  0  0  0  0
  183.9710  179.2600  144.8320 C   0  0  0  0  0  3  0  0  0  0  0  0
  186.0580  179.2250  140.5520 N   0  0  0  0  0  0  0  0  0  0  0  0
  185.9010  177.8240  144.4950 C   0  0  0  0  0  0  0  0  0  0  0  0
  190.9820  177.9680  144.8430 C   0  0  0  0  0  3  0  0  0  0  0  0
  186.7560  176.7550  145.0830 C   0  0  0  0  0  1  0  0  0  0  0  0
  192.0030  178.1330  143.9070 C   0  0  0  0  0  3  0  0  0  0  0  0
  186.0390  178.3050  143.1620 C   0  0  0  0  0  0  0  0  0  0  0  0
  187.9690  177.8840  139.9790 N   0  0  0  0  0  0  0  0  0  0  0  0
  184.8770  178.3140  145.3100 C   0  0  0  0  0  3  0  0  0  0  0  0
  185.0820  179.2370  142.6850 C   0  0  0  0  0  0  0  0  0  0  0  0
  190.2180  177.5210  140.7060 N   0  0  0  0  0  2  0  0  0  0  0  0
  187.0690  177.9070  142.2680 C   0  0  0  0  0  0  0  0  0  0  0  0
  189.6950  177.6330  144.4150 C   0  0  0  0  0  3  0  0  0  0  0  0
  185.1280  179.6610  141.3980 N   0  0  0  0  0  0  0  0  0  0  0  0
  191.7360  177.9730  142.5460 C   0  0  0  0  0  3  0  0  0  0  0  0
  190.4440  177.6580  142.1080 C   0  0  0  0  0  0  0  0  0  0  0  0
  189.4110  177.4790  143.0520 C   0  0  0  0  0  0  0  0  0  0  0  0
  187.0950  176.1470  136.1820 C   0  0  0  0  0  3  0  0  0  0  0  0
  187.4780  177.1110  138.8410 C   0  0  2  0  0  3  0  0  0  0  0  0
  188.6250  176.3690  138.1500 C   0  0  0  0  0  2  0  0  0  0  0  0
  188.2030  175.7620  136.8360 C   0  0  0  0  0  3  0  0  0  0  0  0
  186.1210  177.1440  136.7570 C   0  0  0  0  0  2  0  0  0  0  0  0
  186.7560  178.0110  137.8410 C   0  0  0  0  0  2  0  0  0  0  0  0
  1 15  1  0  0  0  0
  2 16  1  0  0  0  0
  3 21  1  0  0  0  0
  4  5  2  0  0  0  0
  5 13  1  0  0  0  0
  6  2  2  0  0  0  0
  6 18  1  0  0  0  0
  7  9  1  0  0  0  0
  7 13  2  0  0  0  0
 10  8  2  0  0  0  0
 11  7  1  0  0  0  0
 12  1  1  0  0  0  0
 12  2  1  0  0  0  0
 14 11  1  0  0  0  0
 14  4  1  0  0  0  0
 15 20  1  0  0  0  0
 16  3  1  0  0  0  0
 16 11  2  0  0  0  0
 17  8  1  0  0  0  0
 18 14  2  0  0  0  0
 19 10  1  0  0  0  0
 20 19  2  0  0  0  0
 20 21  1  0  0  0  0
 21 17  2  0  0  0  0
 22 26  1  0  0  0  0
 22 25  2  0  0  0  0
 23 27  1  6  0  0  0
 23 12  1  0  0  0  0
 24 23  1  0  0  0  0
 25 24  1  0  0  0  0
 26 27  1  0  0  0  0
M  END
>  <MODEL>
1

>  <REMARK>
 VINA RESULT:      -8.4      0.000      0.000
  Name = 
  1 active torsions:
  status: ('A' for Active; 'I' for Inactive)
    1  A    between atoms: C_9  and  N_15
                            x       y       z     vdW  Elec       q    Type
                         _______ _______ _______ _____ _____    ______ ____

>  <TORSDO>
F 1

$$$$
=
 OpenBabel10262420013D

 27 31  0  0  1  0  0  0  0  0999 V2000
  189.0240  178.5960  140.0320 C   0  0  0  0  0  2  0  0  0  0  0  0
  190.9550  177.0490  139.7740 C   0  0  0  0  0  0  0  0  0  0  0  0
  189.3320  175.7390  138.5020 N   0  0  0  0  0  2  0  0  0  0  0  0
  194.1960  175.5040  137.6920 C   0  0  0  0  0  3  0  0  0  0  0  0
  194.0480  174.5100  136.7280 C   0  0  0  0  0  3  0  0  0  0  0  0
  192.2320  177.4290  140.0220 N   0  0  0  0  0  0  0  0  0  0  0  0
  191.6500  174.4770  137.1110 C   0  0  0  0  0  0  0  0  0  0  0  0
  187.4080  176.7870  135.4910 C   0  0  0  0  0  3  0  0  0  0  0  0
  190.3640  173.7950  136.7950 C   0  0  0  0  0  1  0  0  0  0  0  0
  186.6210  177.8180  136.0040 C   0  0  0  0  0  3  0  0  0  0  0  0
  191.7780  175.5210  138.0710 C   0  0  0  0  0  0  0  0  0  0  0  0
  189.8990  177.5690  140.5820 N   0  0  0  0  0  0  0  0  0  0  0  0
  192.7840  173.9950  136.4500 C   0  0  0  0  0  3  0  0  0  0  0  0
  193.0800  176.0000  138.3680 C   0  0  0  0  0  0  0  0  0  0  0  0
  187.8000  178.0030  139.5230 N   0  0  0  0  0  2  0  0  0  0  0  0
  190.6890  176.1110  138.7640 C   0  0  0  0  0  0  0  0  0  0  0  0
  188.3230  176.1320  136.3180 C   0  0  0  0  0  3  0  0  0  0  0  0
  193.2570  176.9360  139.3320 N   0  0  0  0  0  0  0  0  0  0  0  0
  186.7570  178.2010  137.3390 C   0  0  0  0  0  3  0  0  0  0  0  0
  187.6870  177.5650  138.1700 C   0  0  0  0  0  0  0  0  0  0  0  0
  188.4760  176.5140  137.6570 C   0  0  0  0  0  0  0  0  0  0  0  0
  189.2180  177.3040  144.7840 C   0  0  0  0  0  3  0  0  0  0  0  0
  189.9030  177.2820  142.0140 C   0  0  2  0  0  3  0  0  0  0  0  0
  188.5690  176.6720  142.4520 C   0  0  0  0  0  2  0  0  0  0  0  0
  188.4440  176.5890  143.9520 C   0  0  0  0  0  3  0  0  0  0  0  0
  190.3500  178.1700  144.2940 C   0  0  0  0  0  2  0  0  0  0  0  0
  190.1940  178.5440  142.8220 C   0  0  0  0  0  2  0  0  0  0  0  0
  1 12  1  0  0  0  0
  2  6  1  0  0  0  0
  2 12  1  0  0  0  0
  3 16  1  0  0  0  0
  4 14  1  0  0  0  0
  5  4  2  0  0  0  0
  7 11  1  0  0  0  0
  8 10  2  0  0  0  0
  8 17  1  0  0  0  0
  9  7  1  0  0  0  0
 10 19  1  0  0  0  0
 11 14  2  0  0  0  0
 11 16  1  0  0  0  0
 13  5  1  0  0  0  0
 13  7  2  0  0  0  0
 14 18  1  0  0  0  0
 15  1  1  0  0  0  0
 16  2  2  0  0  0  0
 17 21  2  0  0  0  0
 18  6  2  0  0  0  0
 19 20  2  0  0  0  0
 20 15  1  0  0  0  0
 21 20  1  0  0  0  0
 21  3  1  0  0  0  0
 23 12  1  6  0  0  0
 23 24  1  0  0  0  0
 23 27  1  0  0  0  0
 24 25  1  0  0  0  0
 25 22  2  0  0  0  0
 26 22  1  0  0  0  0
 27 26  1  0  0  0  0
M  END
>  <MODEL>
2

>  <REMARK>
 VINA RESULT:      -8.2      2.650      7.932
  Name = 
  1 active torsions:
  status: ('A' for Active; 'I' for Inactive)
    1  A    between atoms: C_9  and  N_15
                            x       y       z     vdW  Elec       q    Type
                         _______ _______ _______ _____ _____    ______ ____

>  <TORSDO>
F 1

$$$$
=
 OpenBabel10262420013D

 27 31  0  0  1  0  0  0  0  0999 V2000
  188.8970  178.5420  139.1130 C   0  0  0  0  0  2  0  0  0  0  0  0
  186.9060  178.4540  140.6010 C   0  0  0  0  0  0  0  0  0  0  0  0
  188.2950  176.8760  141.8450 N   0  0  0  0  0  2  0  0  0  0  0  0
  184.7570  179.5880  143.9660 C   0  0  0  0  0  3  0  0  0  0  0  0
  184.9560  178.9870  145.2060 C   0  0  0  0  0  3  0  0  0  0  0  0
  185.9240  179.3890  140.5610 N   0  0  0  0  0  0  0  0  0  0  0  0
  186.6510  177.5370  144.2450 C   0  0  0  0  0  0  0  0  0  0  0  0
  191.6610  177.4680  143.3230 C   0  0  0  0  0  3  0  0  0  0  0  0
  187.5560  176.3780  144.4830 C   0  0  0  0  0  1  0  0  0  0  0  0
  192.4310  177.7090  142.1840 C   0  0  0  0  0  3  0  0  0  0  0  0
  186.4880  178.1680  142.9790 C   0  0  0  0  0  0  0  0  0  0  0  0
  187.5490  178.0620  139.3880 N   0  0  0  0  0  0  0  0  0  0  0  0
  185.8900  177.9610  145.3380 C   0  0  0  0  0  3  0  0  0  0  0  0
  185.5030  179.1810  142.8590 C   0  0  0  0  0  0  0  0  0  0  0  0
  189.8810  177.5400  139.4860 N   0  0  0  0  0  2  0  0  0  0  0  0
  187.2410  177.8440  141.8190 C   0  0  0  0  0  0  0  0  0  0  0  0
  190.2910  177.2290  143.1980 C   0  0  0  0  0  3  0  0  0  0  0  0
  185.2580  179.7520  141.6550 N   0  0  0  0  0  0  0  0  0  0  0  0
  191.8280  177.7200  140.9250 C   0  0  0  0  0  3  0  0  0  0  0  0
  190.4520  177.5030  140.7930 C   0  0  0  0  0  0  0  0  0  0  0  0
  189.6730  177.2480  141.9420 C   0  0  0  0  0  0  0  0  0  0  0  0
  185.1870  177.0950  135.9710 C   0  0  0  0  0  3  0  0  0  0  0  0
  186.7480  177.4460  138.3350 C   0  0  2  0  0  3  0  0  0  0  0  0
  187.4230  177.6070  136.9700 C   0  0  0  0  0  2  0  0  0  0  0  0
  186.5180  177.2040  135.8330 C   0  0  0  0  0  3  0  0  0  0  0  0
  184.4930  177.2610  137.2990 C   0  0  0  0  0  2  0  0  0  0  0  0
  185.3430  178.0430  138.2990 C   0  0  0  0  0  2  0  0  0  0  0  0
  1 12  1  0  0  0  0
  1 15  1  0  0  0  0
  2 16  1  0  0  0  0
  3 21  1  0  0  0  0
  4  5  2  0  0  0  0
  5 13  1  0  0  0  0
  6  2  2  0  0  0  0
  6 18  1  0  0  0  0
  7  9  1  0  0  0  0
  7 13  2  0  0  0  0
 10  8  2  0  0  0  0
 11  7  1  0  0  0  0
 12  2  1  0  0  0  0
 14 11  1  0  0  0  0
 14  4  1  0  0  0  0
 15 20  1  0  0  0  0
 16  3  1  0  0  0  0
 16 11  2  0  0  0  0
 17  8  1  0  0  0  0
 18 14  2  0  0  0  0
 19 10  1  0  0  0  0
 20 19  2  0  0  0  0
 20 21  1  0  0  0  0
 21 17  2  0  0  0  0
 22 26  1  0  0  0  0
 23 24  1  6  0  0  0
 23 12  1  0  0  0  0
 25 22  2  0  0  0  0
 25 24  1  0  0  0  0
 26 27  1  0  0  0  0
 27 23  1  0  0  0  0
M  END
>  <MODEL>
3

>  <REMARK>
 VINA RESULT:      -7.6      1.049      1.288
  Name = 
  1 active torsions:
  status: ('A' for Active; 'I' for Inactive)
    1  A    between atoms: C_9  and  N_15
                            x       y       z     vdW  Elec       q    Type
                         _______ _______ _______ _____ _____    ______ ____

>  <TORSDO>
F 1

$$$$
=
 OpenBabel10262420013D

 27 31  0  0  1  0  0  0  0  0999 V2000
  183.4940  179.9010  143.7460 C   0  0  0  0  0  2  0  0  0  0  0  0
  184.7090  178.7260  141.9220 C   0  0  0  0  0  0  0  0  0  0  0  0
  182.5190  177.7140  141.5390 N   0  0  0  0  0  2  0  0  0  0  0  0
  185.8820  178.2630  137.9670 C   0  0  0  0  0  3  0  0  0  0  0  0
  185.0840  177.6100  137.0330 C   0  0  0  0  0  3  0  0  0  0  0  0
  185.9160  179.1440  141.4630 N   0  0  0  0  0  0  0  0  0  0  0  0
  183.4000  177.2050  138.7350 C   0  0  0  0  0  0  0  0  0  0  0  0
  179.3060  179.4400  140.7850 C   0  0  0  0  0  3  0  0  0  0  0  0
  182.1140  176.5230  139.0550 C   0  0  0  0  0  1  0  0  0  0  0  0
  179.0970  180.1690  141.9560 C   0  0  0  0  0  3  0  0  0  0  0  0
  184.1860  177.9030  139.6940 C   0  0  0  0  0  0  0  0  0  0  0  0
  184.4070  178.8530  143.3110 N   0  0  0  0  0  0  0  0  0  0  0  0
  183.8560  177.0770  137.4200 C   0  0  0  0  0  3  0  0  0  0  0  0
  185.4510  178.4020  139.2870 C   0  0  0  0  0  0  0  0  0  0  0  0
  182.1520  179.3710  143.9150 N   0  0  0  0  0  2  0  0  0  0  0  0
  183.7960  178.1280  141.0410 C   0  0  0  0  0  0  0  0  0  0  0  0
  180.4570  178.6610  140.6480 C   0  0  0  0  0  3  0  0  0  0  0  0
  186.2670  179.0030  140.1870 N   0  0  0  0  0  0  0  0  0  0  0  0
  180.0420  180.1280  142.9820 C   0  0  0  0  0  3  0  0  0  0  0  0
  181.2090  179.3670  142.8440 C   0  0  0  0  0  0  0  0  0  0  0  0
  181.4180  178.6190  141.6660 C   0  0  0  0  0  0  0  0  0  0  0  0
  187.3190  177.5030  146.1210 C   0  0  0  0  0  3  0  0  0  0  0  0
  185.2320  178.1350  144.2780 C   0  0  2  0  0  3  0  0  0  0  0  0
  185.3050  178.8940  145.6060 C   0  0  0  0  0  2  0  0  0  0  0  0
  186.3360  178.3160  146.5400 C   0  0  0  0  0  3  0  0  0  0  0  0
  187.4130  177.0120  144.6980 C   0  0  0  0  0  2  0  0  0  0  0  0
  186.6380  177.9030  143.7300 C   0  0  0  0  0  2  0  0  0  0  0  0
  1 15  1  0  0  0  0
  2 12  1  0  0  0  0
  3 21  1  0  0  0  0
  4 14  1  0  0  0  0
  5 13  1  0  0  0  0
  5  4  2  0  0  0  0
  6  2  1  0  0  0  0
  7  9  1  0  0  0  0
  7 11  1  0  0  0  0
  8 10  1  0  0  0  0
 10 19  2  0  0  0  0
 11 16  1  0  0  0  0
 12  1  1  0  0  0  0
 13  7  2  0  0  0  0
 14 11  2  0  0  0  0
 14 18  1  0  0  0  0
 16  3  1  0  0  0  0
 16  2  2  0  0  0  0
 17  8  2  0  0  0  0
 17 21  1  0  0  0  0
 18  6  2  0  0  0  0
 20 19  1  0  0  0  0
 20 15  1  0  0  0  0
 21 20  2  0  0  0  0
 22 25  2  0  0  0  0
 23 12  1  6  0  0  0
 23 24  1  0  0  0  0
 24 25  1  0  0  0  0
 26 22  1  0  0  0  0
 27 23  1  0  0  0  0
 27 26  1  0  0  0  0
M  END
>  <MODEL>
4

>  <REMARK>
 VINA RESULT:      -7.6      2.847      7.798
  Name = 
  1 active torsions:
  status: ('A' for Active; 'I' for Inactive)
    1  A    between atoms: C_9  and  N_15
                            x       y       z     vdW  Elec       q    Type
                         _______ _______ _______ _____ _____    ______ ____

>  <TORSDO>
F 1

$$$$
=
 OpenBabel10262420013D

 27 31  0  0  1  0  0  0  0  0999 V2000
  190.5340  177.8680  139.9510 C   0  0  0  0  0  2  0  0  0  0  0  0
  188.0670  177.8040  140.2560 C   0  0  0  0  0  0  0  0  0  0  0  0
  188.6730  176.8120  142.4040 N   0  0  0  0  0  2  0  0  0  0  0  0
  184.4840  179.3260  141.6960 C   0  0  0  0  0  3  0  0  0  0  0  0
  184.0420  179.0720  142.9920 C   0  0  0  0  0  3  0  0  0  0  0  0
  187.2180  178.5290  139.4860 N   0  0  0  0  0  0  0  0  0  0  0  0
  186.0250  177.7370  143.4200 C   0  0  0  0  0  0  0  0  0  0  0  0
  190.8130  178.2800  145.0750 C   0  0  0  0  0  3  0  0  0  0  0  0
  186.7130  176.8310  144.3820 C   0  0  0  0  0  1  0  0  0  0  0  0
  192.0470  178.3700  144.4310 C   0  0  0  0  0  3  0  0  0  0  0  0
  186.5100  178.0180  142.1120 C   0  0  0  0  0  0  0  0  0  0  0  0
  189.2450  177.2510  139.6690 N   0  0  0  0  0  0  0  0  0  0  0  0
  184.8050  178.2740  143.8420 C   0  0  0  0  0  3  0  0  0  0  0  0
  185.6970  178.7990  141.2510 C   0  0  0  0  0  0  0  0  0  0  0  0
  191.2180  177.1570  141.0170 N   0  0  0  0  0  2  0  0  0  0  0  0
  187.7540  177.5610  141.6020 C   0  0  0  0  0  0  0  0  0  0  0  0
  189.7010  177.7960  144.3840 C   0  0  0  0  0  3  0  0  0  0  0  0
  186.0820  179.0240  139.9710 N   0  0  0  0  0  0  0  0  0  0  0  0
  192.1650  177.9870  143.0930 C   0  0  0  0  0  3  0  0  0  0  0  0
  191.0500  177.5210  142.3860 C   0  0  0  0  0  0  0  0  0  0  0  0
  189.8030  177.4180  143.0390 C   0  0  0  0  0  0  0  0  0  0  0  0
  189.5010  174.8850  136.1290 C   0  0  0  0  0  3  0  0  0  0  0  0
  189.1030  176.2820  138.5870 C   0  0  2  0  0  3  0  0  0  0  0  0
  190.4000  175.4950  138.3830 C   0  0  0  0  0  2  0  0  0  0  0  0
  190.3740  174.6640  137.1260 C   0  0  0  0  0  3  0  0  0  0  0  0
  188.4030  175.9130  136.2280 C   0  0  0  0  0  2  0  0  0  0  0  0
  188.6990  176.9730  137.2860 C   0  0  0  0  0  2  0  0  0  0  0  0
  1 15  1  0  0  0  0
  2 16  1  0  0  0  0
  3 21  1  0  0  0  0
  4  5  2  0  0  0  0
  5 13  1  0  0  0  0
  6 18  1  0  0  0  0
  6  2  2  0  0  0  0
  7 13  2  0  0  0  0
  7  9  1  0  0  0  0
 10  8  1  0  0  0  0
 11  7  1  0  0  0  0
 12  1  1  0  0  0  0
 12  2  1  0  0  0  0
 14  4  1  0  0  0  0
 14 11  1  0  0  0  0
 15 20  1  0  0  0  0
 16 11  2  0  0  0  0
 16  3  1  0  0  0  0
 17  8  2  0  0  0  0
 18 14  2  0  0  0  0
 19 10  2  0  0  0  0
 20 21  2  0  0  0  0
 20 19  1  0  0  0  0
 21 17  1  0  0  0  0
 22 26  1  0  0  0  0
 22 25  2  0  0  0  0
 23 27  1  6  0  0  0
 23 12  1  0  0  0  0
 24 23  1  0  0  0  0
 25 24  1  0  0  0  0
 26 27  1  0  0  0  0
M  END
>  <MODEL>
5

>  <REMARK>
 VINA RESULT:      -7.4      1.191      1.542
  Name = 
  1 active torsions:
  status: ('A' for Active; 'I' for Inactive)
    1  A    between atoms: C_9  and  N_15
                            x       y       z     vdW  Elec       q    Type
                         _______ _______ _______ _____ _____    ______ ____

>  <TORSDO>
F 1

$$$$
=
 OpenBabel10262420013D

 27 31  0  0  1  0  0  0  0  0999 V2000
  184.8580  179.2450  140.3750 C   0  0  0  0  0  2  0  0  0  0  0  0
  184.6540  178.7720  142.8080 C   0  0  0  0  0  0  0  0  0  0  0  0
  186.5260  177.2700  142.3540 N   0  0  0  0  0  2  0  0  0  0  0  0
  185.7380  179.3130  146.7780 C   0  0  0  0  0  3  0  0  0  0  0  0
  186.8050  178.6280  147.3520 C   0  0  0  0  0  3  0  0  0  0  0  0
  183.9620  179.5780  143.6520 N   0  0  0  0  0  0  0  0  0  0  0  0
  187.2270  177.4960  145.2450 C   0  0  0  0  0  0  0  0  0  0  0  0
  189.8550  178.1360  140.9280 C   0  0  0  0  0  3  0  0  0  0  0  0
  188.0190  176.4410  144.5530 C   0  0  0  0  0  1  0  0  0  0  0  0
  189.5090  178.5740  139.6500 C   0  0  0  0  0  3  0  0  0  0  0  0
  186.1630  178.2160  144.6320 C   0  0  0  0  0  0  0  0  0  0  0  0
  184.1770  178.5780  141.4770 N   0  0  0  0  0  0  0  0  0  0  0  0
  187.5360  177.7190  146.5900 C   0  0  0  0  0  3  0  0  0  0  0  0
  185.4070  179.1060  145.4380 C   0  0  0  0  0  0  0  0  0  0  0  0
  185.8010  178.3430  139.7380 N   0  0  0  0  0  2  0  0  0  0  0  0
  185.7960  178.0980  143.2650 C   0  0  0  0  0  0  0  0  0  0  0  0
  188.8570  177.7410  141.8220 C   0  0  0  0  0  3  0  0  0  0  0  0
  184.3360  179.7530  144.9170 N   0  0  0  0  0  0  0  0  0  0  0  0
  188.1670  178.6280  139.2700 C   0  0  0  0  0  3  0  0  0  0  0  0
  187.1590  178.2550  140.1680 C   0  0  0  0  0  0  0  0  0  0  0  0
  187.5060  177.8000  141.4570 C   0  0  0  0  0  0  0  0  0  0  0  0
  180.4250  177.1150  140.0710 C   0  0  0  0  0  3  0  0  0  0  0  0
  182.8650  177.9680  141.2820 C   0  0  2  0  0  3  0  0  0  0  0  0
  182.9150  176.9030  140.1840 C   0  0  0  0  0  2  0  0  0  0  0  0
  181.5410  176.4260  139.7860 C   0  0  0  0  0  3  0  0  0  0  0  0
  180.4380  178.3700  140.9070 C   0  0  0  0  0  2  0  0  0  0  0  0
  181.8170  179.0250  140.9400 C   0  0  0  0  0  2  0  0  0  0  0  0
  1 12  1  0  0  0  0
  2 16  2  0  0  0  0
  2  6  1  0  0  0  0
  3 16  1  0  0  0  0
  4  5  1  0  0  0  0
  6 18  2  0  0  0  0
  7 13  1  0  0  0  0
  8 17  1  0  0  0  0
  9  7  1  0  0  0  0
 10  8  2  0  0  0  0
 11  7  2  0  0  0  0
 11 14  1  0  0  0  0
 12  2  1  0  0  0  0
 13  5  2  0  0  0  0
 14  4  2  0  0  0  0
 15 20  1  0  0  0  0
 15  1  1  0  0  0  0
 16 11  1  0  0  0  0
 18 14  1  0  0  0  0
 19 10  1  0  0  0  0
 19 20  2  0  0  0  0
 20 21  1  0  0  0  0
 21 17  2  0  0  0  0
 21  3  1  0  0  0  0
 22 26  1  0  0  0  0
 23 24  1  6  0  0  0
 23 12  1  0  0  0  0
 25 22  2  0  0  0  0
 25 24  1  0  0  0  0
 26 27  1  0  0  0  0
 27 23  1  0  0  0  0
M  END
>  <MODEL>
6

>  <REMARK>
 VINA RESULT:      -7.2      2.565      4.352
  Name = 
  1 active torsions:
  status: ('A' for Active; 'I' for Inactive)
    1  A    between atoms: C_9  and  N_15
                            x       y       z     vdW  Elec       q    Type
                         _______ _______ _______ _____ _____    ______ ____

>  <TORSDO>
F 1

$$$$
=
 OpenBabel10262420013D

 27 31  0  0  1  0  0  0  0  0999 V2000
  182.9420  178.0660  140.4190 C   0  0  0  0  0  2  0  0  0  0  0  0
  184.3910  177.8660  138.4070 C   0  0  0  0  0  0  0  0  0  0  0  0
  186.0070  179.0030  139.8440 N   0  0  0  0  0  2  0  0  0  0  0  0
  187.3390  176.0110  136.1490 C   0  0  0  0  0  3  0  0  0  0  0  0
  188.6930  176.2640  136.3520 C   0  0  0  0  0  3  0  0  0  0  0  0
  184.1070  177.0210  137.3850 N   0  0  0  0  0  0  0  0  0  0  0  0
  188.1470  177.8280  138.1290 C   0  0  0  0  0  0  0  0  0  0  0  0
  187.3020  177.8880  143.1520 C   0  0  0  0  0  3  0  0  0  0  0  0
  188.6800  178.8420  139.0810 C   0  0  0  0  0  1  0  0  0  0  0  0
  186.1440  177.9110  143.9310 C   0  0  0  0  0  3  0  0  0  0  0  0
  186.7600  177.5520  137.9600 C   0  0  0  0  0  0  0  0  0  0  0  0
  183.3230  178.5240  139.0890 N   0  0  0  0  0  0  0  0  0  0  0  0
  189.0900  177.1750  137.3290 C   0  0  0  0  0  3  0  0  0  0  0  0
  186.3780  176.6520  136.9320 C   0  0  0  0  0  0  0  0  0  0  0  0
  183.5660  178.8900  141.4400 N   0  0  0  0  0  2  0  0  0  0  0  0
  185.7270  178.1250  138.7480 C   0  0  0  0  0  0  0  0  0  0  0  0
  187.2360  178.2180  141.7970 C   0  0  0  0  0  3  0  0  0  0  0  0
  185.0660  176.4220  136.6840 N   0  0  0  0  0  0  0  0  0  0  0  0
  184.9210  178.2530  143.3510 C   0  0  0  0  0  3  0  0  0  0  0  0
  184.8420  178.5630  141.9880 C   0  0  0  0  0  0  0  0  0  0  0  0
  186.0130  178.5520  141.2010 C   0  0  0  0  0  0  0  0  0  0  0  0
  180.4620  181.3650  137.6990 C   0  0  0  0  0  3  0  0  0  0  0  0
  182.4590  179.4280  138.3360 C   0  0  2  0  0  3  0  0  0  0  0  0
  182.6640  180.8780  138.7830 C   0  0  0  0  0  2  0  0  0  0  0  0
  181.6240  181.8060  138.2080 C   0  0  0  0  0  3  0  0  0  0  0  0
  180.1430  179.8980  137.5610 C   0  0  0  0  0  2  0  0  0  0  0  0
  180.9920  179.0340  138.4890 C   0  0  0  0  0  2  0  0  0  0  0  0
  1 15  1  0  0  0  0
  2 16  1  0  0  0  0
  2 12  1  0  0  0  0
  3 21  1  0  0  0  0
  4  5  2  0  0  0  0
  4 14  1  0  0  0  0
  5 13  1  0  0  0  0
  6  2  2  0  0  0  0
  7  9  1  0  0  0  0
  8 10  1  0  0  0  0
 11  7  1  0  0  0  0
 11 16  2  0  0  0  0
 12  1  1  0  0  0  0
 13  7  2  0  0  0  0
 14 11  1  0  0  0  0
 15 20  1  0  0  0  0
 16  3  1  0  0  0  0
 17  8  2  0  0  0  0
 18 14  2  0  0  0  0
 18  6  1  0  0  0  0
 19 10  2  0  0  0  0
 20 19  1  0  0  0  0
 21 17  1  0  0  0  0
 21 20  2  0  0  0  0
 22 25  2  0  0  0  0
 23 27  1  1  0  0  0
 23 24  1  0  0  0  0
 23 12  1  0  0  0  0
 25 24  1  0  0  0  0
 26 22  1  0  0  0  0
 26 27  1  0  0  0  0
M  END
>  <MODEL>
7

>  <REMARK>
 VINA RESULT:      -7.2      3.293      6.413
  Name = 
  1 active torsions:
  status: ('A' for Active; 'I' for Inactive)
    1  A    between atoms: C_9  and  N_15
                            x       y       z     vdW  Elec       q    Type
                         _______ _______ _______ _____ _____    ______ ____

>  <TORSDO>
F 1

$$$$
=
 OpenBabel10262420013D

 27 31  0  0  1  0  0  0  0  0999 V2000
  181.1810  178.2900  137.3290 C   0  0  0  0  0  2  0  0  0  0  0  0
  182.5390  179.3460  139.1250 C   0  0  0  0  0  0  0  0  0  0  0  0
  180.6760  178.6190  140.5280 N   0  0  0  0  0  2  0  0  0  0  0  0
  185.2620  179.2160  142.2550 C   0  0  0  0  0  3  0  0  0  0  0  0
  184.8740  178.9190  143.5590 C   0  0  0  0  0  3  0  0  0  0  0  0
  183.8520  179.6470  138.9660 N   0  0  0  0  0  0  0  0  0  0  0  0
  182.5680  178.6890  142.8340 C   0  0  0  0  0  0  0  0  0  0  0  0
  179.3870  175.1570  141.0000 C   0  0  0  0  0  3  0  0  0  0  0  0
  181.1560  178.4900  143.2680 C   0  0  0  0  0  1  0  0  0  0  0  0
  178.9320  174.8490  139.7170 C   0  0  0  0  0  3  0  0  0  0  0  0
  182.9530  178.9530  141.4890 C   0  0  0  0  0  0  0  0  0  0  0  0
  181.6490  179.4850  138.0180 N   0  0  0  0  0  0  0  0  0  0  0  0
  183.5340  178.6680  143.8440 C   0  0  0  0  0  3  0  0  0  0  0  0
  184.3170  179.2460  141.2290 C   0  0  0  0  0  0  0  0  0  0  0  0
  179.8690  177.9010  137.8170 N   0  0  0  0  0  2  0  0  0  0  0  0
  182.0600  178.9540  140.3840 C   0  0  0  0  0  0  0  0  0  0  0  0
  179.9920  176.3920  141.2450 C   0  0  0  0  0  3  0  0  0  0  0  0
  184.7140  179.5820  139.9780 N   0  0  0  0  0  0  0  0  0  0  0  0
  179.0910  175.7690  138.6800 C   0  0  0  0  0  3  0  0  0  0  0  0
  179.7160  177.0000  138.9120 C   0  0  0  0  0  0  0  0  0  0  0  0
  180.1670  177.3200  140.2100 C   0  0  0  0  0  0  0  0  0  0  0  0
  180.2410  183.1880  136.4380 C   0  0  0  0  0  3  0  0  0  0  0  0
  181.4660  180.8070  137.4250 C   0  0  2  0  0  3  0  0  0  0  0  0
  180.7960  181.7620  138.4170 C   0  0  0  0  0  2  0  0  0  0  0  0
  180.3690  183.0540  137.7670 C   0  0  0  0  0  3  0  0  0  0  0  0
  180.6140  182.0920  135.4730 C   0  0  0  0  0  2  0  0  0  0  0  0
  180.6430  180.7200  136.1420 C   0  0  0  0  0  2  0  0  0  0  0  0
  1 15  1  0  0  0  0
  1 12  1  0  0  0  0
  2 16  1  0  0  0  0
  4  5  2  0  0  0  0
  5 13  1  0  0  0  0
  6  2  2  0  0  0  0
  6 18  1  0  0  0  0
  7  9  1  0  0  0  0
  7 13  2  0  0  0  0
  8 17  1  0  0  0  0
 10  8  2  0  0  0  0
 11  7  1  0  0  0  0
 12  2  1  0  0  0  0
 14 11  1  0  0  0  0
 14  4  1  0  0  0  0
 15 20  1  0  0  0  0
 16  3  1  0  0  0  0
 16 11  2  0  0  0  0
 18 14  2  0  0  0  0
 19 20  2  0  0  0  0
 19 10  1  0  0  0  0
 20 21  1  0  0  0  0
 21  3  1  0  0  0  0
 21 17  2  0  0  0  0
 22 25  2  0  0  0  0
 23 27  1  6  0  0  0
 23 12  1  0  0  0  0
 23 24  1  0  0  0  0
 25 24  1  0  0  0  0
 26 27  1  0  0  0  0
 26 22  1  0  0  0  0
M  END
>  <MODEL>
8

>  <REMARK>
 VINA RESULT:      -7.1      5.332      8.071
  Name = 
  1 active torsions:
  status: ('A' for Active; 'I' for Inactive)
    1  A    between atoms: C_9  and  N_15
                            x       y       z     vdW  Elec       q    Type
                         _______ _______ _______ _____ _____    ______ ____

>  <TORSDO>
F 1

$$$$
=
 OpenBabel10262420013D

 27 31  0  0  1  0  0  0  0  0999 V2000
  183.2240  177.9650  140.9540 C   0  0  0  0  0  2  0  0  0  0  0  0
  183.6470  177.7660  138.5110 C   0  0  0  0  0  0  0  0  0  0  0  0
  185.6930  178.9700  139.0840 N   0  0  0  0  0  2  0  0  0  0  0  0
  185.3580  175.9480  135.1950 C   0  0  0  0  0  3  0  0  0  0  0  0
  186.6540  176.2400  134.7800 C   0  0  0  0  0  3  0  0  0  0  0  0
  182.9680  176.8960  137.7220 N   0  0  0  0  0  0  0  0  0  0  0  0
  186.8970  177.8210  136.6080 C   0  0  0  0  0  0  0  0  0  0  0  0
  188.3450  177.9500  141.4910 C   0  0  0  0  0  3  0  0  0  0  0  0
  187.7620  178.8660  137.2240 C   0  0  0  0  0  1  0  0  0  0  0  0
  187.6470  177.9570  142.6990 C   0  0  0  0  0  3  0  0  0  0  0  0
  185.5870  177.5060  137.0690 C   0  0  0  0  0  0  0  0  0  0  0  0
  182.9670  178.4080  139.5900 N   0  0  0  0  0  0  0  0  0  0  0  0
  187.4120  177.1780  135.4790 C   0  0  0  0  0  3  0  0  0  0  0  0
  184.8190  176.5780  136.3180 C   0  0  0  0  0  0  0  0  0  0  0  0
  184.2070  178.8230  141.5930 N   0  0  0  0  0  2  0  0  0  0  0  0
  184.9870  178.0660  138.2270 C   0  0  0  0  0  0  0  0  0  0  0  0
  187.6790  178.2530  140.3020 C   0  0  0  0  0  3  0  0  0  0  0  0
  183.5400  176.3090  136.6730 N   0  0  0  0  0  0  0  0  0  0  0  0
  186.2840  178.2560  142.7150 C   0  0  0  0  0  3  0  0  0  0  0  0
  185.6040  178.5390  141.5250 C   0  0  0  0  0  0  0  0  0  0  0  0
  186.3090  178.5440  140.3030 C   0  0  0  0  0  0  0  0  0  0  0  0
  180.0380  181.4960  139.3080 C   0  0  0  0  0  3  0  0  0  0  0  0
  181.8320  179.2760  139.2900 C   0  0  2  0  0  3  0  0  0  0  0  0
  182.3040  180.6150  138.7180 C   0  0  0  0  0  2  0  0  0  0  0  0
  181.1880  181.6230  138.6250 C   0  0  0  0  0  3  0  0  0  0  0  0
  179.7220  180.2810  140.1420 C   0  0  0  0  0  2  0  0  0  0  0  0
  180.9800  179.5090  140.5350 C   0  0  0  0  0  2  0  0  0  0  0  0
  1 15  1  0  0  0  0
  2 12  1  0  0  0  0
  3 21  1  0  0  0  0
  4 14  1  0  0  0  0
  5  4  2  0  0  0  0
  5 13  1  0  0  0  0
  6  2  2  0  0  0  0
  7 11  1  0  0  0  0
  7  9  1  0  0  0  0
  8 10  1  0  0  0  0
 10 19  2  0  0  0  0
 11 16  2  0  0  0  0
 12  1  1  0  0  0  0
 13  7  2  0  0  0  0
 14 18  2  0  0  0  0
 14 11  1  0  0  0  0
 16  2  1  0  0  0  0
 16  3  1  0  0  0  0
 17 21  1  0  0  0  0
 17  8  2  0  0  0  0
 18  6  1  0  0  0  0
 20 15  1  0  0  0  0
 20 19  1  0  0  0  0
 21 20  2  0  0  0  0
 22 26  1  0  0  0  0
 23 24  1  1  0  0  0
 23 12  1  0  0  0  0
 23 27  1  0  0  0  0
 25 24  1  0  0  0  0
 25 22  2  0  0  0  0
 26 27  1  0  0  0  0
M  END
>  <MODEL>
9

>  <REMARK>
 VINA RESULT:      -7.0      3.206      6.813
  Name = 
  1 active torsions:
  status: ('A' for Active; 'I' for Inactive)
    1  A    between atoms: C_9  and  N_15
                            x       y       z     vdW  Elec       q    Type
                         _______ _______ _______ _____ _____    ______ ____

>  <TORSDO>
F 1

$$$$
