=
 OpenBabel10262423123D

 34 38  0  0  1  0  0  0  0  0999 V2000
  187.9540  177.7100  144.7420 C   0  0  0  0  0  0  0  0  0  0  0  0
  191.0730  177.2000  145.4970 N   0  0  0  0  0  1  0  0  0  0  0  0
  186.5210  178.3030  147.1650 C   0  0  0  0  0  3  0  0  0  0  0  0
  186.6100  177.6590  144.8010 C   0  0  0  0  0  3  0  0  0  0  0  0
  187.9750  178.1950  147.1610 C   0  0  1  0  0  3  0  0  0  0  0  0
  188.6540  177.5560  148.0990 C   0  0  0  0  0  2  0  0  0  0  0  0
  185.8620  178.0490  146.0250 C   0  0  0  0  0  0  0  0  0  0  0  0
  189.9300  177.4390  146.3170 C   0  0  0  0  0  0  0  0  0  0  0  0
  188.7590  178.2800  145.9000 C   0  0  1  0  0  3  0  0  0  0  0  0
  189.9060  177.1240  147.5740 N   0  0  0  0  0  0  0  0  0  0  0  0
  190.2160  175.6770  142.5620 C   0  0  0  0  0  3  0  0  0  0  0  0
  190.9990  176.6710  141.7570 C   0  0  0  0  0  2  0  0  0  0  0  0
  190.1400  177.3880  140.7490 C   0  0  0  0  0  0  0  0  0  0  0  0
  189.0860  178.1200  141.1180 C   0  0  0  0  0  3  0  0  0  0  0  0
  189.1950  176.0060  143.3530 C   0  0  0  0  0  3  0  0  0  0  0  0
  188.5450  178.2490  142.4880 C   0  0  0  0  0  3  0  0  0  0  0  0
  188.6240  177.3650  143.4860 C   0  0  0  0  0  0  0  0  0  0  0  0
  190.4790  177.3840  139.3910 O   0  0  0  0  0  0  0  0  0  0  0  0
  192.3560  176.3610  138.2370 C   0  0  0  0  0  1  0  0  0  0  0  0
  190.9190  176.2140  138.7080 C   0  0  0  0  0  2  0  0  0  0  0  0
  184.4340  178.2300  145.9500 N   0  0  0  0  0  2  0  0  0  0  0  0
  181.9150  179.1440  143.3050 C   0  0  0  0  0  2  0  0  0  0  0  0
  184.7110  179.4930  143.8430 C   0  0  0  0  0  2  0  0  0  0  0  0
  183.4690  178.6490  139.8900 N   0  0  0  0  0  0  0  0  0  0  0  0
  183.0880  178.3160  138.5470 C   0  0  0  0  0  0  0  0  0  0  0  0
  182.4600  179.0880  140.8520 C   0  0  0  0  0  2  0  0  0  0  0  0
  183.5240  177.2610  138.0110 O   0  0  0  0  0  0  0  0  0  0  0  0
  182.8710  178.6300  142.2440 C   0  0  1  0  0  3  0  0  0  0  0  0
  182.2150  179.2370  137.7610 C   0  0  0  0  0  1  0  0  0  0  0  0
  185.2400  178.8940  141.4980 C   0  0  0  0  0  3  0  0  0  0  0  0
  184.2550  179.0390  142.5250 N   0  0  0  0  0  0  0  0  0  0  0  0
  184.8630  178.6840  140.2390 C   0  0  0  0  0  3  0  0  0  0  0  0
  183.7670  179.1340  145.0070 C   0  0  1  0  0  3  0  0  0  0  0  0
  182.3810  178.5940  144.6370 C   0  0  0  0  0  2  0  0  0  0  0  0
  1  4  2  0  0  0  0
  2  8  1  0  0  0  0
  4  7  1  0  0  0  0
  5  3  1  6  0  0  0
  5  6  1  0  0  0  0
  7  3  2  0  0  0  0
  8 10  2  0  0  0  0
  9  1  1  6  0  0  0
  9  8  1  0  0  0  0
  9  5  1  0  0  0  0
 10  6  1  0  0  0  0
 11 15  2  0  0  0  0
 12 11  1  0  0  0  0
 13 14  2  0  0  0  0
 13 12  1  0  0  0  0
 14 16  1  0  0  0  0
 15 17  1  0  0  0  0
 16 17  2  0  0  0  0
 17  1  1  0  0  0  0
 18 13  1  0  0  0  0
 19 20  1  0  0  0  0
 20 18  1  0  0  0  0
 21  7  1  0  0  0  0
 22 34  1  0  0  0  0
 23 33  1  0  0  0  0
 24 32  1  0  0  0  0
 24 26  1  0  0  0  0
 25 24  1  0  0  0  0
 27 25  2  0  0  0  0
 28 26  1  6  0  0  0
 28 31  1  0  0  0  0
 28 22  1  0  0  0  0
 29 25  1  0  0  0  0
 30 31  1  0  0  0  0
 31 23  1  0  0  0  0
 32 30  2  0  0  0  0
 33 21  1  1  0  0  0
 34 33  1  0  0  0  0
M  END
>  <MODEL>
1

>  <REMARK>
 VINA RESULT:      -9.6      0.000      0.000
  Name = 
  5 active torsions:
  status: ('A' for Active; 'I' for Inactive)
    1  A    between atoms: C_1  and  C_34
    2  A    between atoms: O_3  and  C_24
    3  A    between atoms: O_3  and  C_25
    4  A    between atoms: C_17  and  N_18
    5  A    between atoms: N_18  and  C_30
                            x       y       z     vdW  Elec       q    Type
                         _______ _______ _______ _____ _____    ______ ____

>  <TORSDO>
F 5

$$$$
=
 OpenBabel10262423123D

 34 38  0  0  1  0  0  0  0  0999 V2000
  189.1670  177.3470  140.9220 C   0  0  0  0  0  0  0  0  0  0  0  0
  186.4970  179.0310  141.6930 N   0  0  0  0  0  1  0  0  0  0  0  0
  189.3640  177.2250  138.0550 C   0  0  0  0  0  3  0  0  0  0  0  0
  189.9770  176.4680  140.3040 C   0  0  0  0  0  3  0  0  0  0  0  0
  188.3590  178.0600  138.7020 C   0  0  1  0  0  3  0  0  0  0  0  0
  187.1040  178.1290  138.2920 C   0  0  0  0  0  2  0  0  0  0  0  0
  190.1480  176.4600  138.8280 C   0  0  0  0  0  0  0  0  0  0  0  0
  187.0130  178.6030  140.4330 C   0  0  0  0  0  0  0  0  0  0  0  0
  188.4750  178.4480  140.1340 C   0  0  1  0  0  3  0  0  0  0  0  0
  186.2660  178.5190  139.3770 N   0  0  0  0  0  0  0  0  0  0  0  0
  187.5910  176.5420  144.2200 C   0  0  0  0  0  3  0  0  0  0  0  0
  187.7490  177.7790  145.0530 C   0  0  0  0  0  2  0  0  0  0  0  0
  189.1840  178.0270  145.4350 C   0  0  0  0  0  0  0  0  0  0  0  0
  190.1350  178.2070  144.5150 C   0  0  0  0  0  3  0  0  0  0  0  0
  188.1570  176.3790  143.0240 C   0  0  0  0  0  3  0  0  0  0  0  0
  189.9720  178.0840  143.0510 C   0  0  0  0  0  3  0  0  0  0  0  0
  189.0890  177.3360  142.3840 C   0  0  0  0  0  0  0  0  0  0  0  0
  189.5510  178.1700  146.7780 O   0  0  0  0  0  0  0  0  0  0  0  0
  188.1380  178.0590  148.7510 C   0  0  0  0  0  1  0  0  0  0  0  0
  189.0670  177.3120  147.8070 C   0  0  0  0  0  2  0  0  0  0  0  0
  191.2160  175.6850  138.2470 N   0  0  0  0  0  2  0  0  0  0  0  0
  194.0560  175.9760  135.7910 C   0  0  0  0  0  2  0  0  0  0  0  0
  193.6460  175.9380  138.6300 C   0  0  0  0  0  2  0  0  0  0  0  0
  196.9630  173.8800  137.0050 N   0  0  0  0  0  0  0  0  0  0  0  0
  198.0720  173.1310  136.4850 C   0  0  0  0  0  0  0  0  0  0  0  0
  196.2740  174.8540  136.1610 C   0  0  0  0  0  2  0  0  0  0  0  0
  198.1360  171.8870  136.6760 O   0  0  0  0  0  0  0  0  0  0  0  0
  194.8070  174.9060  136.5630 C   0  0  1  0  0  3  0  0  0  0  0  0
  199.1750  173.8250  135.7580 C   0  0  0  0  0  1  0  0  0  0  0  0
  195.5500  174.3740  138.8870 C   0  0  0  0  0  3  0  0  0  0  0  0
  194.6840  175.1050  138.0140 N   0  0  0  0  0  0  0  0  0  0  0  0
  196.6290  173.7680  138.4000 C   0  0  0  0  0  3  0  0  0  0  0  0
  192.4530  176.2620  137.7080 C   0  0  1  0  0  3  0  0  0  0  0  0
  192.6060  175.9100  136.2250 C   0  0  0  0  0  2  0  0  0  0  0  0
  1 17  1  0  0  0  0
  3  7  2  0  0  0  0
  4  1  2  0  0  0  0
  5  3  1  1  0  0  0
  5  9  1  0  0  0  0
  6  5  1  0  0  0  0
  6 10  1  0  0  0  0
  7  4  1  0  0  0  0
  8  2  1  0  0  0  0
  9  8  1  1  0  0  0
  9  1  1  0  0  0  0
 10  8  2  0  0  0  0
 11 12  1  0  0  0  0
 12 13  1  0  0  0  0
 13 18  1  0  0  0  0
 14 13  2  0  0  0  0
 15 11  2  0  0  0  0
 16 14  1  0  0  0  0
 17 15  1  0  0  0  0
 17 16  2  0  0  0  0
 18 20  1  0  0  0  0
 20 19  1  0  0  0  0
 21  7  1  0  0  0  0
 22 34  1  0  0  0  0
 24 32  1  0  0  0  0
 25 27  2  0  0  0  0
 25 24  1  0  0  0  0
 26 28  1  0  0  0  0
 26 24  1  0  0  0  0
 28 22  1  6  0  0  0
 28 31  1  0  0  0  0
 29 25  1  0  0  0  0
 31 23  1  0  0  0  0
 31 30  1  0  0  0  0
 32 30  2  0  0  0  0
 33 21  1  1  0  0  0
 33 23  1  0  0  0  0
 34 33  1  0  0  0  0
M  END
>  <MODEL>
2

>  <REMARK>
 VINA RESULT:      -9.3      4.357     10.282
  Name = 
  5 active torsions:
  status: ('A' for Active; 'I' for Inactive)
    1  A    between atoms: C_1  and  C_34
    2  A    between atoms: O_3  and  C_24
    3  A    between atoms: O_3  and  C_25
    4  A    between atoms: C_17  and  N_18
    5  A    between atoms: N_18  and  C_30
                            x       y       z     vdW  Elec       q    Type
                         _______ _______ _______ _____ _____    ______ ____

>  <TORSDO>
F 5

$$$$
=
 OpenBabel10262423123D

 34 38  0  0  1  0  0  0  0  0999 V2000
  186.3430  178.2330  143.9820 C   0  0  0  0  0  0  0  0  0  0  0  0
  185.6790  178.8310  147.1050 N   0  0  0  0  0  1  0  0  0  0  0  0
  184.0480  178.9650  142.4110 C   0  0  0  0  0  3  0  0  0  0  0  0
  186.1930  177.8180  142.7100 C   0  0  0  0  0  3  0  0  0  0  0  0
  184.1130  179.2770  143.8330 C   0  0  1  0  0  3  0  0  0  0  0  0
  183.0930  179.1060  144.6580 C   0  0  0  0  0  2  0  0  0  0  0  0
  185.0540  178.2640  141.8670 C   0  0  0  0  0  0  0  0  0  0  0  0
  184.8710  178.9270  145.9330 C   0  0  0  0  0  0  0  0  0  0  0  0
  185.4040  179.2720  144.5730 C   0  0  1  0  0  3  0  0  0  0  0  0
  183.5760  178.9330  145.9870 N   0  0  0  0  0  0  0  0  0  0  0  0
  188.1240  176.8350  146.9620 C   0  0  0  0  0  3  0  0  0  0  0  0
  189.3370  177.6960  147.1450 C   0  0  0  0  0  2  0  0  0  0  0  0
  190.3470  177.4980  146.0450 C   0  0  0  0  0  0  0  0  0  0  0  0
  190.0470  177.7350  144.7660 C   0  0  0  0  0  3  0  0  0  0  0  0
  187.3080  176.9210  145.9110 C   0  0  0  0  0  3  0  0  0  0  0  0
  188.7190  178.0980  144.2290 C   0  0  0  0  0  3  0  0  0  0  0  0
  187.5200  177.7980  144.7370 C   0  0  0  0  0  0  0  0  0  0  0  0
  191.6680  177.1450  146.3440 O   0  0  0  0  0  0  0  0  0  0  0  0
  192.6300  175.6870  148.0330 C   0  0  0  0  0  1  0  0  0  0  0  0
  192.0660  175.8070  146.6260 C   0  0  0  0  0  2  0  0  0  0  0  0
  185.0830  178.0070  140.4490 N   0  0  0  0  0  2  0  0  0  0  0  0
  187.2480  177.9920  137.3680 C   0  0  0  0  0  2  0  0  0  0  0  0
  187.4960  178.4810  140.1840 C   0  0  0  0  0  2  0  0  0  0  0  0
  190.5610  176.3580  138.1900 N   0  0  0  0  0  0  0  0  0  0  0  0
  191.5970  175.5930  137.5550 C   0  0  0  0  0  0  0  0  0  0  0  0
  189.5990  177.1040  137.3810 C   0  0  0  0  0  2  0  0  0  0  0  0
  191.8350  174.4160  137.9390 O   0  0  0  0  0  0  0  0  0  0  0  0
  188.2640  177.1420  138.1100 C   0  0  1  0  0  3  0  0  0  0  0  0
  192.4270  176.1990  136.4740 C   0  0  0  0  0  1  0  0  0  0  0  0
  189.5650  177.1200  140.2410 C   0  0  0  0  0  3  0  0  0  0  0  0
  188.4510  177.6110  139.4900 N   0  0  0  0  0  0  0  0  0  0  0  0
  190.5640  176.4990  139.6210 C   0  0  0  0  0  3  0  0  0  0  0  0
  186.0980  178.5440  139.5350 C   0  0  1  0  0  3  0  0  0  0  0  0
  185.9480  177.9210  138.1440 C   0  0  0  0  0  2  0  0  0  0  0  0
  1 17  1  0  0  0  0
  4  1  2  0  0  0  0
  5  3  1  6  0  0  0
  5  9  1  0  0  0  0
  5  6  1  0  0  0  0
  6 10  1  0  0  0  0
  7  3  2  0  0  0  0
  7  4  1  0  0  0  0
  8 10  2  0  0  0  0
  8  2  1  0  0  0  0
  9  1  1  6  0  0  0
  9  8  1  0  0  0  0
 11 12  1  0  0  0  0
 13 18  1  0  0  0  0
 13 12  1  0  0  0  0
 14 13  2  0  0  0  0
 15 11  2  0  0  0  0
 16 17  2  0  0  0  0
 16 14  1  0  0  0  0
 17 15  1  0  0  0  0
 18 20  1  0  0  0  0
 20 19  1  0  0  0  0
 21  7  1  0  0  0  0
 22 34  1  0  0  0  0
 24 32  1  0  0  0  0
 25 27  2  0  0  0  0
 25 24  1  0  0  0  0
 26 28  1  0  0  0  0
 26 24  1  0  0  0  0
 28 22  1  6  0  0  0
 28 31  1  0  0  0  0
 29 25  1  0  0  0  0
 31 23  1  0  0  0  0
 31 30  1  0  0  0  0
 32 30  2  0  0  0  0
 33 23  1  0  0  0  0
 33 21  1  1  0  0  0
 34 33  1  0  0  0  0
M  END
>  <MODEL>
3

>  <REMARK>
 VINA RESULT:      -9.2      2.636      6.239
  Name = 
  5 active torsions:
  status: ('A' for Active; 'I' for Inactive)
    1  A    between atoms: C_1  and  C_34
    2  A    between atoms: O_3  and  C_24
    3  A    between atoms: O_3  and  C_25
    4  A    between atoms: C_17  and  N_18
    5  A    between atoms: N_18  and  C_30
                            x       y       z     vdW  Elec       q    Type
                         _______ _______ _______ _____ _____    ______ ____

>  <TORSDO>
F 5

$$$$
=
 OpenBabel10262423123D

 34 38  0  0  1  0  0  0  0  0999 V2000
  187.1990  178.0620  144.7100 C   0  0  0  0  0  0  0  0  0  0  0  0
  184.9970  178.3710  147.0780 N   0  0  0  0  0  1  0  0  0  0  0  0
  189.7210  177.3630  145.9030 C   0  0  0  0  0  3  0  0  0  0  0  0
  188.3580  178.1700  144.0330 C   0  0  0  0  0  3  0  0  0  0  0  0
  188.5010  177.4030  146.7000 C   0  0  1  0  0  3  0  0  0  0  0  0
  188.4440  177.9410  147.9060 C   0  0  0  0  0  2  0  0  0  0  0  0
  189.6520  177.7280  144.6150 C   0  0  0  0  0  0  0  0  0  0  0  0
  186.4030  178.1270  147.1210 C   0  0  0  0  0  0  0  0  0  0  0  0
  187.1560  177.3730  146.0650 C   0  0  1  0  0  3  0  0  0  0  0  0
  187.1080  178.3520  148.1850 N   0  0  0  0  0  0  0  0  0  0  0  0
  184.0050  179.9870  144.4080 C   0  0  0  0  0  3  0  0  0  0  0  0
  182.9860  179.0010  143.9210 C   0  0  0  0  0  2  0  0  0  0  0  0
  183.2410  178.5770  142.4980 C   0  0  0  0  0  0  0  0  0  0  0  0
  184.3790  177.9800  142.1360 C   0  0  0  0  0  3  0  0  0  0  0  0
  185.3070  179.7200  144.5000 C   0  0  0  0  0  3  0  0  0  0  0  0
  185.5600  177.7520  142.9950 C   0  0  0  0  0  3  0  0  0  0  0  0
  185.9530  178.4650  144.0540 C   0  0  0  0  0  0  0  0  0  0  0  0
  182.2460  178.7140  141.5240 O   0  0  0  0  0  0  0  0  0  0  0  0
  179.9640  177.9730  141.9050 C   0  0  0  0  0  1  0  0  0  0  0  0
  180.9230  179.1490  141.8250 C   0  0  0  0  0  2  0  0  0  0  0  0
  190.8080  177.6190  143.7600 N   0  0  0  0  0  2  0  0  0  0  0  0
  191.5800  177.0850  140.1140 C   0  0  0  0  0  2  0  0  0  0  0  0
  189.4100  176.6850  141.9470 C   0  0  0  0  0  2  0  0  0  0  0  0
  188.5740  178.0970  138.0500 N   0  0  0  0  0  0  0  0  0  0  0  0
  188.2580  178.6210  136.7520 C   0  0  0  0  0  0  0  0  0  0  0  0
  189.8880  177.5100  138.3050 C   0  0  0  0  0  2  0  0  0  0  0  0
  187.7010  179.7480  136.6470 O   0  0  0  0  0  0  0  0  0  0  0  0
  190.2680  177.7600  139.7570 C   0  0  1  0  0  3  0  0  0  0  0  0
  188.5400  177.8210  135.5250 C   0  0  0  0  0  1  0  0  0  0  0  0
  187.8310  177.6310  140.2890 C   0  0  0  0  0  3  0  0  0  0  0  0
  189.1820  177.3260  140.6490 N   0  0  0  0  0  0  0  0  0  0  0  0
  187.5430  178.0230  139.0510 C   0  0  0  0  0  3  0  0  0  0  0  0
  190.8370  176.8590  142.5060 C   0  0  1  0  0  3  0  0  0  0  0  0
  191.8900  177.4360  141.5550 C   0  0  0  0  0  2  0  0  0  0  0  0
  2  8  1  0  0  0  0
  4  7  1  0  0  0  0
  4  1  2  0  0  0  0
  5  3  1  6  0  0  0
  5  6  1  0  0  0  0
  6 10  1  0  0  0  0
  7  3  2  0  0  0  0
  8 10  2  0  0  0  0
  9  1  1  6  0  0  0
  9  5  1  0  0  0  0
  9  8  1  0  0  0  0
 11 15  2  0  0  0  0
 12 11  1  0  0  0  0
 13 12  1  0  0  0  0
 14 13  2  0  0  0  0
 14 16  1  0  0  0  0
 16 17  2  0  0  0  0
 17 15  1  0  0  0  0
 17  1  1  0  0  0  0
 18 20  1  0  0  0  0
 18 13  1  0  0  0  0
 20 19  1  0  0  0  0
 21  7  1  0  0  0  0
 22 34  1  0  0  0  0
 23 33  1  0  0  0  0
 24 26  1  0  0  0  0
 24 32  1  0  0  0  0
 25 24  1  0  0  0  0
 27 25  2  0  0  0  0
 28 26  1  6  0  0  0
 28 22  1  0  0  0  0
 28 31  1  0  0  0  0
 29 25  1  0  0  0  0
 30 31  1  0  0  0  0
 31 23  1  0  0  0  0
 32 30  2  0  0  0  0
 33 21  1  1  0  0  0
 34 33  1  0  0  0  0
M  END
>  <MODEL>
4

>  <REMARK>
 VINA RESULT:      -9.2      2.373      6.372
  Name = 
  5 active torsions:
  status: ('A' for Active; 'I' for Inactive)
    1  A    between atoms: C_1  and  C_34
    2  A    between atoms: O_3  and  C_24
    3  A    between atoms: O_3  and  C_25
    4  A    between atoms: C_17  and  N_18
    5  A    between atoms: N_18  and  C_30
                            x       y       z     vdW  Elec       q    Type
                         _______ _______ _______ _____ _____    ______ ____

>  <TORSDO>
F 5

$$$$
=
 OpenBabel10262423123D

 34 38  0  0  1  0  0  0  0  0999 V2000
  186.1560  178.1460  143.5940 C   0  0  0  0  0  0  0  0  0  0  0  0
  188.4490  177.6920  145.8510 N   0  0  0  0  0  1  0  0  0  0  0  0
  183.7480  179.0060  144.9100 C   0  0  0  0  0  3  0  0  0  0  0  0
  184.9610  178.1140  142.9760 C   0  0  0  0  0  3  0  0  0  0  0  0
  185.0010  178.8850  145.6450 C   0  0  1  0  0  3  0  0  0  0  0  0
  185.0830  178.3440  146.8490 C   0  0  0  0  0  2  0  0  0  0  0  0
  183.7280  178.6380  143.6210 C   0  0  0  0  0  0  0  0  0  0  0  0
  187.0660  178.0270  145.9640 C   0  0  0  0  0  0  0  0  0  0  0  0
  186.3120  178.8290  144.9440 C   0  0  1  0  0  3  0  0  0  0  0  0
  186.4020  177.8470  147.0610 N   0  0  0  0  0  0  0  0  0  0  0  0
  189.1050  175.9050  143.0560 C   0  0  0  0  0  3  0  0  0  0  0  0
  190.2240  176.8090  142.6320 C   0  0  0  0  0  2  0  0  0  0  0  0
  190.0010  177.3820  141.2580 C   0  0  0  0  0  0  0  0  0  0  0  0
  188.9340  178.1340  140.9740 C   0  0  0  0  0  3  0  0  0  0  0  0
  187.8430  176.3090  143.2000 C   0  0  0  0  0  3  0  0  0  0  0  0
  187.7980  178.4180  141.8760 C   0  0  0  0  0  3  0  0  0  0  0  0
  187.3390  177.6640  142.8780 C   0  0  0  0  0  0  0  0  0  0  0  0
  190.9610  177.2200  140.2520 O   0  0  0  0  0  0  0  0  0  0  0  0
  191.9850  176.3700  138.2190 C   0  0  0  0  0  1  0  0  0  0  0  0
  190.7730  176.3530  139.1360 C   0  0  0  0  0  2  0  0  0  0  0  0
  182.5410  178.8220  142.8250 N   0  0  0  0  0  2  0  0  0  0  0  0
  183.1530  179.0380  139.1160 C   0  0  0  0  0  2  0  0  0  0  0  0
  180.9690  178.6160  140.9270 C   0  0  0  0  0  2  0  0  0  0  0  0
  180.3700  181.0400  137.5150 N   0  0  0  0  0  0  0  0  0  0  0  0
  180.1430  181.9070  136.3930 C   0  0  0  0  0  0  0  0  0  0  0  0
  181.5510  180.1810  137.5530 C   0  0  0  0  0  2  0  0  0  0  0  0
  179.8100  183.1080  136.5830 O   0  0  0  0  0  0  0  0  0  0  0  0
  181.9890  180.0050  139.0000 C   0  0  1  0  0  3  0  0  0  0  0  0
  180.2540  181.3830  135.0010 C   0  0  0  0  0  1  0  0  0  0  0  0
  179.5790  180.1990  139.6250 C   0  0  0  0  0  3  0  0  0  0  0  0
  180.8510  179.5770  139.8270 N   0  0  0  0  0  0  0  0  0  0  0  0
  179.3560  180.9190  138.5280 C   0  0  0  0  0  3  0  0  0  0  0  0
  182.4090  178.3890  141.4300 C   0  0  1  0  0  3  0  0  0  0  0  0
  183.5420  178.9740  140.5790 C   0  0  0  0  0  2  0  0  0  0  0  0
  2  8  1  0  0  0  0
  4  1  2  0  0  0  0
  4  7  1  0  0  0  0
  5  3  1  6  0  0  0
  5  6  1  0  0  0  0
  6 10  1  0  0  0  0
  7  3  2  0  0  0  0
  8 10  2  0  0  0  0
  9  1  1  6  0  0  0
  9  5  1  0  0  0  0
  9  8  1  0  0  0  0
 11 15  2  0  0  0  0
 12 11  1  0  0  0  0
 13 12  1  0  0  0  0
 14 13  2  0  0  0  0
 14 16  1  0  0  0  0
 16 17  2  0  0  0  0
 17 15  1  0  0  0  0
 17  1  1  0  0  0  0
 18 13  1  0  0  0  0
 19 20  1  0  0  0  0
 20 18  1  0  0  0  0
 21  7  1  0  0  0  0
 22 34  1  0  0  0  0
 23 33  1  0  0  0  0
 24 26  1  0  0  0  0
 24 32  1  0  0  0  0
 25 27  2  0  0  0  0
 25 24  1  0  0  0  0
 28 26  1  6  0  0  0
 28 22  1  0  0  0  0
 28 31  1  0  0  0  0
 29 25  1  0  0  0  0
 30 31  1  0  0  0  0
 31 23  1  0  0  0  0
 32 30  2  0  0  0  0
 33 21  1  1  0  0  0
 34 33  1  0  0  0  0
M  END
>  <MODEL>
5

>  <REMARK>
 VINA RESULT:      -8.9      2.259      3.559
  Name = 
  5 active torsions:
  status: ('A' for Active; 'I' for Inactive)
    1  A    between atoms: C_1  and  C_34
    2  A    between atoms: O_3  and  C_24
    3  A    between atoms: O_3  and  C_25
    4  A    between atoms: C_17  and  N_18
    5  A    between atoms: N_18  and  C_30
                            x       y       z     vdW  Elec       q    Type
                         _______ _______ _______ _____ _____    ______ ____

>  <TORSDO>
F 5

$$$$
=
 OpenBabel10262423123D

 34 38  0  0  1  0  0  0  0  0999 V2000
  182.3090  178.1900  141.0030 C   0  0  0  0  0  0  0  0  0  0  0  0
  179.4590  178.1390  139.4440 N   0  0  0  0  0  1  0  0  0  0  0  0
  181.9060  179.3840  143.5890 C   0  0  0  0  0  3  0  0  0  0  0  0
  183.3400  178.6320  141.7480 C   0  0  0  0  0  3  0  0  0  0  0  0
  180.7750  179.0690  142.7240 C   0  0  1  0  0  3  0  0  0  0  0  0
  179.7550  179.8890  142.5420 C   0  0  0  0  0  2  0  0  0  0  0  0
  183.1440  179.1690  143.1200 C   0  0  0  0  0  0  0  0  0  0  0  0
  179.8360  178.6930  140.7040 C   0  0  0  0  0  0  0  0  0  0  0  0
  180.9060  178.1200  141.5860 C   0  0  1  0  0  3  0  0  0  0  0  0
  179.1380  179.6160  141.2870 N   0  0  0  0  0  0  0  0  0  0  0  0
  182.6780  178.3070  137.2810 C   0  0  0  0  0  3  0  0  0  0  0  0
  181.9970  177.0730  136.7710 C   0  0  0  0  0  2  0  0  0  0  0  0
  182.7510  175.8190  137.1290 C   0  0  0  0  0  0  0  0  0  0  0  0
  182.9900  175.4820  138.3990 C   0  0  0  0  0  3  0  0  0  0  0  0
  182.8910  178.5530  138.5730 C   0  0  0  0  0  3  0  0  0  0  0  0
  182.6770  176.2920  139.5950 C   0  0  0  0  0  3  0  0  0  0  0  0
  182.5800  177.6210  139.6810 C   0  0  0  0  0  0  0  0  0  0  0  0
  183.1460  174.9150  136.1360 O   0  0  0  0  0  0  0  0  0  0  0  0
  185.4340  175.4780  135.5440 C   0  0  0  0  0  1  0  0  0  0  0  0
  184.4740  174.4080  136.0360 C   0  0  0  0  0  2  0  0  0  0  0  0
  184.2930  179.3770  143.9660 N   0  0  0  0  0  2  0  0  0  0  0  0
  186.4170  178.1410  146.8190 C   0  0  0  0  0  2  0  0  0  0  0  0
  185.8300  177.4450  144.0980 C   0  0  0  0  0  2  0  0  0  0  0  0
  189.8110  177.1280  145.4880 N   0  0  0  0  0  0  0  0  0  0  0  0
  191.1800  177.0540  145.9110 C   0  0  0  0  0  0  0  0  0  0  0  0
  188.7430  177.2520  146.4770 C   0  0  0  0  0  2  0  0  0  0  0  0
  192.0560  177.7550  145.3360 O   0  0  0  0  0  0  0  0  0  0  0  0
  187.6040  178.0630  145.8750 C   0  0  1  0  0  3  0  0  0  0  0  0
  191.5840  176.1150  146.9990 C   0  0  0  0  0  1  0  0  0  0  0  0
  188.2440  177.0940  143.6640 C   0  0  0  0  0  3  0  0  0  0  0  0
  187.2170  177.5060  144.5710 N   0  0  0  0  0  0  0  0  0  0  0  0
  189.4910  176.9360  144.0990 C   0  0  0  0  0  3  0  0  0  0  0  0
  184.8510  178.3590  144.8620 C   0  0  1  0  0  3  0  0  0  0  0  0
  185.3670  179.0060  146.1510 C   0  0  0  0  0  2  0  0  0  0  0  0
  1  9  1  0  0  0  0
  1  4  2  0  0  0  0
  2  8  1  0  0  0  0
  4  7  1  0  0  0  0
  5  6  1  6  0  0  0
  5  3  1  0  0  0  0
  7  3  2  0  0  0  0
  7 21  1  0  0  0  0
  8 10  2  0  0  0  0
  9  8  1  6  0  0  0
  9  5  1  0  0  0  0
 10  6  1  0  0  0  0
 11 15  2  0  0  0  0
 12 13  1  0  0  0  0
 12 11  1  0  0  0  0
 13 14  2  0  0  0  0
 14 16  1  0  0  0  0
 15 17  1  0  0  0  0
 16 17  2  0  0  0  0
 17  1  1  0  0  0  0
 18 13  1  0  0  0  0
 19 20  1  0  0  0  0
 20 18  1  0  0  0  0
 23 31  1  0  0  0  0
 23 33  1  0  0  0  0
 24 25  1  0  0  0  0
 24 26  1  0  0  0  0
 25 29  1  0  0  0  0
 27 25  2  0  0  0  0
 28 26  1  1  0  0  0
 28 22  1  0  0  0  0
 30 32  2  0  0  0  0
 30 31  1  0  0  0  0
 31 28  1  0  0  0  0
 32 24  1  0  0  0  0
 33 21  1  6  0  0  0
 33 34  1  0  0  0  0
 34 22  1  0  0  0  0
M  END
>  <MODEL>
6

>  <REMARK>
 VINA RESULT:      -8.7      2.527      8.163
  Name = 
  5 active torsions:
  status: ('A' for Active; 'I' for Inactive)
    1  A    between atoms: C_1  and  C_34
    2  A    between atoms: O_3  and  C_24
    3  A    between atoms: O_3  and  C_25
    4  A    between atoms: C_17  and  N_18
    5  A    between atoms: N_18  and  C_30
                            x       y       z     vdW  Elec       q    Type
                         _______ _______ _______ _____ _____    ______ ____

>  <TORSDO>
F 5

$$$$
=
 OpenBabel10262423123D

 34 38  0  0  1  0  0  0  0  0999 V2000
  185.3340  178.3150  142.7250 C   0  0  0  0  0  0  0  0  0  0  0  0
  186.2370  178.9330  145.7840 N   0  0  0  0  0  1  0  0  0  0  0  0
  182.5270  178.8910  142.4750 C   0  0  0  0  0  3  0  0  0  0  0  0
  184.6080  177.8680  141.6820 C   0  0  0  0  0  3  0  0  0  0  0  0
  183.2570  179.2330  143.6900 C   0  0  1  0  0  3  0  0  0  0  0  0
  182.7780  179.0220  144.9040 C   0  0  0  0  0  2  0  0  0  0  0  0
  183.1790  178.2370  141.5040 C   0  0  0  0  0  0  0  0  0  0  0  0
  184.9580  178.9640  145.1530 C   0  0  0  0  0  0  0  0  0  0  0  0
  184.7420  179.3120  143.7090 C   0  0  1  0  0  3  0  0  0  0  0  0
  183.8550  178.9010  145.8300 N   0  0  0  0  0  0  0  0  0  0  0  0
  188.9120  178.3930  141.6310 C   0  0  0  0  0  3  0  0  0  0  0  0
  189.3900  176.9750  141.7200 C   0  0  0  0  0  2  0  0  0  0  0  0
  189.5000  176.5010  143.1460 C   0  0  0  0  0  0  0  0  0  0  0  0
  188.4430  176.4740  143.9610 C   0  0  0  0  0  3  0  0  0  0  0  0
  187.7260  178.8030  142.0800 C   0  0  0  0  0  3  0  0  0  0  0  0
  187.0890  176.9830  143.6570 C   0  0  0  0  0  3  0  0  0  0  0  0
  186.7520  177.9580  142.8090 C   0  0  0  0  0  0  0  0  0  0  0  0
  190.7050  175.9840  143.6350 O   0  0  0  0  0  0  0  0  0  0  0  0
  191.6180  178.1520  144.2470 C   0  0  0  0  0  1  0  0  0  0  0  0
  191.5140  176.6740  144.5850 C   0  0  0  0  0  2  0  0  0  0  0  0
  182.5310  177.9560  140.2480 N   0  0  0  0  0  2  0  0  0  0  0  0
  183.7380  177.4230  136.7210 C   0  0  0  0  0  2  0  0  0  0  0  0
  184.4990  178.8820  139.0710 C   0  0  0  0  0  2  0  0  0  0  0  0
  187.5000  177.0190  136.7470 N   0  0  0  0  0  0  0  0  0  0  0  0
  188.5400  176.3610  136.0080 C   0  0  0  0  0  0  0  0  0  0  0  0
  186.1750  177.1910  136.1540 C   0  0  0  0  0  2  0  0  0  0  0  0
  189.2470  175.4780  136.5670 O   0  0  0  0  0  0  0  0  0  0  0  0
  185.1300  177.1480  137.2590 C   0  0  1  0  0  3  0  0  0  0  0  0
  188.8230  176.7470  134.5950 C   0  0  0  0  0  1  0  0  0  0  0  0
  186.8500  178.1650  138.7580 C   0  0  0  0  0  3  0  0  0  0  0  0
  185.4860  178.0870  138.3330 N   0  0  0  0  0  0  0  0  0  0  0  0
  187.8120  177.6330  138.0090 C   0  0  0  0  0  3  0  0  0  0  0  0
  183.0460  178.3810  138.9420 C   0  0  1  0  0  3  0  0  0  0  0  0
  182.7730  177.3070  137.8840 C   0  0  0  0  0  2  0  0  0  0  0  0
  1 17  1  0  0  0  0
  4  1  2  0  0  0  0
  5  3  1  6  0  0  0
  5  9  1  0  0  0  0
  5  6  1  0  0  0  0
  6 10  1  0  0  0  0
  7  4  1  0  0  0  0
  7  3  2  0  0  0  0
  8  2  1  0  0  0  0
  8 10  2  0  0  0  0
  9  1  1  6  0  0  0
  9  8  1  0  0  0  0
 11 12  1  0  0  0  0
 11 15  2  0  0  0  0
 12 13  1  0  0  0  0
 13 18  1  0  0  0  0
 13 14  2  0  0  0  0
 15 17  1  0  0  0  0
 16 14  1  0  0  0  0
 17 16  2  0  0  0  0
 18 20  1  0  0  0  0
 19 20  1  0  0  0  0
 21  7  1  0  0  0  0
 22 28  1  0  0  0  0
 22 34  1  0  0  0  0
 24 32  1  0  0  0  0
 25 27  2  0  0  0  0
 25 24  1  0  0  0  0
 26 24  1  0  0  0  0
 28 26  1  6  0  0  0
 28 31  1  0  0  0  0
 29 25  1  0  0  0  0
 31 30  1  0  0  0  0
 31 23  1  0  0  0  0
 32 30  2  0  0  0  0
 33 23  1  0  0  0  0
 33 21  1  1  0  0  0
 34 33  1  0  0  0  0
M  END
>  <MODEL>
7

>  <REMARK>
 VINA RESULT:      -8.5      2.535      5.196
  Name = 
  5 active torsions:
  status: ('A' for Active; 'I' for Inactive)
    1  A    between atoms: C_1  and  C_34
    2  A    between atoms: O_3  and  C_24
    3  A    between atoms: O_3  and  C_25
    4  A    between atoms: C_17  and  N_18
    5  A    between atoms: N_18  and  C_30
                            x       y       z     vdW  Elec       q    Type
                         _______ _______ _______ _____ _____    ______ ____

>  <TORSDO>
F 5

$$$$
=
 OpenBabel10262423123D

 34 38  0  0  1  0  0  0  0  0999 V2000
  186.1380  178.1580  143.6840 C   0  0  0  0  0  0  0  0  0  0  0  0
  188.5240  177.9410  145.8780 N   0  0  0  0  0  1  0  0  0  0  0  0
  183.7420  179.0010  145.0320 C   0  0  0  0  0  3  0  0  0  0  0  0
  184.9240  178.0380  143.1130 C   0  0  0  0  0  3  0  0  0  0  0  0
  185.0230  178.9780  145.7260 C   0  0  1  0  0  3  0  0  0  0  0  0
  185.1700  178.5180  146.9570 C   0  0  0  0  0  2  0  0  0  0  0  0
  183.6940  178.5520  143.7690 C   0  0  0  0  0  0  0  0  0  0  0  0
  187.1330  178.2260  146.0210 C   0  0  0  0  0  0  0  0  0  0  0  0
  186.3110  178.9300  144.9820 C   0  0  1  0  0  3  0  0  0  0  0  0
  186.5150  178.0890  147.1510 N   0  0  0  0  0  0  0  0  0  0  0  0
  189.1460  175.9920  143.1660 C   0  0  0  0  0  3  0  0  0  0  0  0
  190.2190  176.9090  142.6620 C   0  0  0  0  0  2  0  0  0  0  0  0
  189.9350  177.4040  141.2680 C   0  0  0  0  0  0  0  0  0  0  0  0
  188.8350  178.1040  140.9810 C   0  0  0  0  0  3  0  0  0  0  0  0
  187.8750  176.3600  143.3290 C   0  0  0  0  0  3  0  0  0  0  0  0
  187.7170  178.3960  141.9030 C   0  0  0  0  0  3  0  0  0  0  0  0
  187.3150  177.6790  142.9560 C   0  0  0  0  0  0  0  0  0  0  0  0
  190.8700  177.2220  140.2420 O   0  0  0  0  0  0  0  0  0  0  0  0
  191.7600  176.5260  138.0910 C   0  0  0  0  0  1  0  0  0  0  0  0
  190.5530  176.5760  139.0120 C   0  0  0  0  0  2  0  0  0  0  0  0
  182.4730  178.6380  143.0080 N   0  0  0  0  0  2  0  0  0  0  0  0
  180.7570  179.2020  139.7040 C   0  0  0  0  0  2  0  0  0  0  0  0
  183.1190  177.9350  140.7270 C   0  0  0  0  0  2  0  0  0  0  0  0
  180.9240  176.0200  137.6620 N   0  0  0  0  0  0  0  0  0  0  0  0
  180.1780  175.3190  136.6560 C   0  0  0  0  0  0  0  0  0  0  0  0
  180.6600  177.4340  137.9200 C   0  0  0  0  0  2  0  0  0  0  0  0
  179.6970  174.1810  136.9070 O   0  0  0  0  0  0  0  0  0  0  0  0
  180.9140  177.7240  139.3920 C   0  0  1  0  0  3  0  0  0  0  0  0
  180.0060  175.9090  135.2960 C   0  0  0  0  0  1  0  0  0  0  0  0
  182.6720  175.9510  139.3120 C   0  0  0  0  0  3  0  0  0  0  0  0
  182.2430  177.2320  139.7850 N   0  0  0  0  0  0  0  0  0  0  0  0
  182.0250  175.3610  138.3110 C   0  0  0  0  0  3  0  0  0  0  0  0
  182.4110  179.0010  141.5880 C   0  0  1  0  0  3  0  0  0  0  0  0
  180.9790  179.3740  141.1930 C   0  0  0  0  0  2  0  0  0  0  0  0
  2  8  1  0  0  0  0
  4  1  2  0  0  0  0
  4  7  1  0  0  0  0
  5  3  1  6  0  0  0
  5  6  1  0  0  0  0
  6 10  1  0  0  0  0
  7  3  2  0  0  0  0
  8 10  2  0  0  0  0
  9  1  1  6  0  0  0
  9  5  1  0  0  0  0
  9  8  1  0  0  0  0
 11 15  2  0  0  0  0
 12 11  1  0  0  0  0
 13 12  1  0  0  0  0
 14 13  2  0  0  0  0
 14 16  1  0  0  0  0
 16 17  2  0  0  0  0
 17 15  1  0  0  0  0
 17  1  1  0  0  0  0
 18 13  1  0  0  0  0
 19 20  1  0  0  0  0
 20 18  1  0  0  0  0
 21  7  1  0  0  0  0
 22 34  1  0  0  0  0
 23 33  1  0  0  0  0
 24 26  1  0  0  0  0
 24 32  1  0  0  0  0
 25 27  2  0  0  0  0
 25 24  1  0  0  0  0
 28 26  1  6  0  0  0
 28 22  1  0  0  0  0
 28 31  1  0  0  0  0
 29 25  1  0  0  0  0
 30 31  1  0  0  0  0
 31 23  1  0  0  0  0
 32 30  2  0  0  0  0
 33 21  1  1  0  0  0
 34 33  1  0  0  0  0
M  END
>  <MODEL>
8

>  <REMARK>
 VINA RESULT:      -8.4      2.187      3.191
  Name = 
  5 active torsions:
  status: ('A' for Active; 'I' for Inactive)
    1  A    between atoms: C_1  and  C_34
    2  A    between atoms: O_3  and  C_24
    3  A    between atoms: O_3  and  C_25
    4  A    between atoms: C_17  and  N_18
    5  A    between atoms: N_18  and  C_30
                            x       y       z     vdW  Elec       q    Type
                         _______ _______ _______ _____ _____    ______ ____

>  <TORSDO>
F 5

$$$$
=
 OpenBabel10262423123D

 34 38  0  0  1  0  0  0  0  0999 V2000
  185.1510  178.3360  142.6470 C   0  0  0  0  0  0  0  0  0  0  0  0
  186.4320  178.9480  145.5690 N   0  0  0  0  0  1  0  0  0  0  0  0
  182.3290  178.8790  142.7640 C   0  0  0  0  0  3  0  0  0  0  0  0
  184.3030  177.8870  141.7020 C   0  0  0  0  0  3  0  0  0  0  0  0
  183.2040  179.2230  143.8770 C   0  0  1  0  0  3  0  0  0  0  0  0
  182.8870  178.9980  145.1410 C   0  0  0  0  0  2  0  0  0  0  0  0
  182.8590  178.2390  141.7110 C   0  0  0  0  0  0  0  0  0  0  0  0
  185.0810  178.9660  145.1080 C   0  0  0  0  0  0  0  0  0  0  0  0
  184.6790  179.3200  143.7070 C   0  0  1  0  0  3  0  0  0  0  0  0
  184.0750  178.8850  145.9200 N   0  0  0  0  0  0  0  0  0  0  0  0
  188.5750  178.5270  141.1500 C   0  0  0  0  0  3  0  0  0  0  0  0
  189.0730  177.1130  141.1050 C   0  0  0  0  0  2  0  0  0  0  0  0
  189.3530  176.5660  142.4800 C   0  0  0  0  0  0  0  0  0  0  0  0
  188.3990  176.4790  143.4100 C   0  0  0  0  0  3  0  0  0  0  0  0
  187.4460  178.8940  141.7560 C   0  0  0  0  0  3  0  0  0  0  0  0
  187.0150  176.9830  143.2940 C   0  0  0  0  0  3  0  0  0  0  0  0
  186.5720  177.9970  142.5450 C   0  0  0  0  0  0  0  0  0  0  0  0
  190.6120  176.0420  142.7970 O   0  0  0  0  0  0  0  0  0  0  0  0
  191.5140  178.0650  143.7970 C   0  0  0  0  0  1  0  0  0  0  0  0
  191.4160  176.5490  143.8590 C   0  0  0  0  0  2  0  0  0  0  0  0
  182.0580  177.9570  140.5470 N   0  0  0  0  0  2  0  0  0  0  0  0
  182.9840  180.8680  138.3440 C   0  0  0  0  0  2  0  0  0  0  0  0
  180.7870  179.0660  138.7380 C   0  0  0  0  0  2  0  0  0  0  0  0
  179.9860  183.1480  137.9790 N   0  0  0  0  0  0  0  0  0  0  0  0
  179.6780  184.5340  137.7700 C   0  0  0  0  0  0  0  0  0  0  0  0
  181.3280  182.6430  137.6940 C   0  0  0  0  0  2  0  0  0  0  0  0
  179.0510  185.1800  138.6540 O   0  0  0  0  0  0  0  0  0  0  0  0
  181.6410  181.5050  138.6550 C   0  0  1  0  0  3  0  0  0  0  0  0
  180.0540  185.2070  136.4930 C   0  0  0  0  0  1  0  0  0  0  0  0
  179.2030  180.9670  138.6230 C   0  0  0  0  0  3  0  0  0  0  0  0
  180.5590  180.5110  138.6370 N   0  0  0  0  0  0  0  0  0  0  0  0
  178.9310  182.2360  138.3310 C   0  0  0  0  0  3  0  0  0  0  0  0
  182.1790  178.6730  139.2710 C   0  0  1  0  0  3  0  0  0  0  0  0
  183.2220  179.7900  139.3820 C   0  0  0  0  0  2  0  0  0  0  0  0
  4  7  1  0  0  0  0
  4  1  2  0  0  0  0
  5  3  1  6  0  0  0
  5  6  1  0  0  0  0
  6 10  1  0  0  0  0
  7  3  2  0  0  0  0
  8  2  1  0  0  0  0
  8 10  2  0  0  0  0
  9  1  1  6  0  0  0
  9  5  1  0  0  0  0
  9  8  1  0  0  0  0
 11 15  2  0  0  0  0
 12 11  1  0  0  0  0
 12 13  1  0  0  0  0
 13 18  1  0  0  0  0
 13 14  2  0  0  0  0
 15 17  1  0  0  0  0
 16 14  1  0  0  0  0
 17  1  1  0  0  0  0
 17 16  2  0  0  0  0
 18 20  1  0  0  0  0
 19 20  1  0  0  0  0
 21  7  1  0  0  0  0
 22 28  1  0  0  0  0
 22 34  1  0  0  0  0
 23 33  1  0  0  0  0
 24 32  1  0  0  0  0
 25 24  1  0  0  0  0
 25 27  2  0  0  0  0
 26 24  1  0  0  0  0
 28 26  1  6  0  0  0
 29 25  1  0  0  0  0
 30 31  1  0  0  0  0
 31 28  1  0  0  0  0
 31 23  1  0  0  0  0
 32 30  2  0  0  0  0
 33 34  1  0  0  0  0
 33 21  1  1  0  0  0
M  END
>  <MODEL>
9

>  <REMARK>
 VINA RESULT:      -8.4      3.087      5.355
  Name = 
  5 active torsions:
  status: ('A' for Active; 'I' for Inactive)
    1  A    between atoms: C_1  and  C_34
    2  A    between atoms: O_3  and  C_24
    3  A    between atoms: O_3  and  C_25
    4  A    between atoms: C_17  and  N_18
    5  A    between atoms: N_18  and  C_30
                            x       y       z     vdW  Elec       q    Type
                         _______ _______ _______ _____ _____    ______ ____

>  <TORSDO>
F 5

$$$$
