=
 OpenBabel10262419503D

 25 27  0  0  1  0  0  0  0  0999 V2000
  188.9650  177.7740  141.6240 C   0  0  0  0  0  0  0  0  0  0  0  0
  187.5650  178.2470  141.7660 C   0  0  0  0  0  0  0  0  0  0  0  0
  188.5390  177.7130  139.2070 C   0  0  0  0  0  3  0  0  0  0  0  0
  187.3840  178.3040  139.3150 N   0  0  0  0  0  0  0  0  0  0  0  0
  185.4200  178.9690  140.6370 C   0  0  0  0  0  0  0  0  0  0  0  0
  184.6750  179.3590  139.4890 N   0  0  0  0  0  1  0  0  0  0  0  0
  186.8720  178.0740  142.8920 C   0  0  0  0  0  3  0  0  0  0  0  0
  189.4120  177.5280  140.3840 C   0  0  0  0  0  3  0  0  0  0  0  0
  184.8030  178.7990  141.7680 N   0  0  0  0  0  0  0  0  0  0  0  0
  185.4920  178.4480  142.9440 N   0  0  0  0  0  0  0  0  0  0  0  0
  186.9250  178.9130  140.5670 C   0  0  1  0  0  3  0  0  0  0  0  0
  189.8610  177.5780  142.7950 C   0  0  0  0  0  0  0  0  0  0  0  0
  191.5980  177.2750  144.9880 C   0  0  0  0  0  3  0  0  0  0  0  0
  190.0790  176.3050  143.3680 C   0  0  0  0  0  0  0  0  0  0  0  0
  190.9420  176.1630  144.4580 C   0  0  0  0  0  3  0  0  0  0  0  0
  191.3910  178.5370  144.4310 C   0  0  0  0  0  3  0  0  0  0  0  0
  189.4420  175.2040  142.8950 F   0  0  0  0  0  0  0  0  0  0  0  0
  190.5300  178.6860  143.3410 C   0  0  0  0  0  3  0  0  0  0  0  0
  184.7540  178.2780  144.1820 C   0  0  0  0  0  2  0  0  0  0  0  0
  185.3430  179.1690  145.2630 C   0  0  0  0  0  2  0  0  0  0  0  0
  185.6720  178.3520  146.5040 C   0  0  2  0  0  3  0  0  0  0  0  0
  186.0940  179.2680  147.6380 C   0  0  0  0  0  1  0  0  0  0  0  0
  186.7340  177.2850  146.2320 C   0  0  0  0  0  2  0  0  0  0  0  0
  188.1510  177.8170  146.3970 C   0  0  0  0  0  2  0  0  0  0  0  0
  188.8790  176.9990  147.4430 C   0  0  0  0  0  1  0  0  0  0  0  0
  1  2  1  0  0  0  0
  1 12  1  0  0  0  0
  2  7  2  0  0  0  0
  3  4  2  0  0  0  0
  3  8  1  0  0  0  0
  5  9  2  0  0  0  0
  6  5  1  0  0  0  0
  7 10  1  0  0  0  0
  8  1  2  0  0  0  0
  9 10  1  0  0  0  0
 10 19  1  0  0  0  0
 11  4  1  6  0  0  0
 11  5  1  0  0  0  0
 11  2  1  0  0  0  0
 12 18  2  0  0  0  0
 12 14  1  0  0  0  0
 14 15  2  0  0  0  0
 15 13  1  0  0  0  0
 16 13  2  0  0  0  0
 17 14  1  0  0  0  0
 18 16  1  0  0  0  0
 19 20  1  0  0  0  0
 20 21  1  0  0  0  0
 21 22  1  1  0  0  0
 23 24  1  0  0  0  0
 23 21  1  0  0  0  0
 24 25  1  0  0  0  0
M  END
>  <MODEL>
1

>  <REMARK>
 VINA RESULT:      -8.1      0.000      0.000
  Name = 
  6 active torsions:
  status: ('A' for Active; 'I' for Inactive)
    1  A    between atoms: C_1  and  C_5
    2  A    between atoms: C_2  and  C_7
    3  A    between atoms: C_2  and  C_21
    4  A    between atoms: C_6  and  C_15
    5  A    between atoms: C_6  and  N_23
    6  A    between atoms: C_15  and  C_21
                            x       y       z     vdW  Elec       q    Type
                         _______ _______ _______ _____ _____    ______ ____

>  <TORSDO>
F 6

$$$$
=
 OpenBabel10262419503D

 25 27  0  0  1  0  0  0  0  0999 V2000
  189.6370  177.3930  141.2810 C   0  0  0  0  0  0  0  0  0  0  0  0
  188.4990  177.9580  140.5120 C   0  0  0  0  0  0  0  0  0  0  0  0
  190.4870  176.5740  139.1280 C   0  0  0  0  0  3  0  0  0  0  0  0
  189.5980  177.2270  138.4380 N   0  0  0  0  0  0  0  0  0  0  0  0
  187.4350  178.3850  138.2570 C   0  0  0  0  0  0  0  0  0  0  0  0
  187.4780  178.4190  136.8350 N   0  0  0  0  0  1  0  0  0  0  0  0
  187.3140  178.1950  141.0750 C   0  0  0  0  0  3  0  0  0  0  0  0
  190.5820  176.7360  140.5940 C   0  0  0  0  0  3  0  0  0  0  0  0
  186.3120  178.6220  138.8660 N   0  0  0  0  0  0  0  0  0  0  0  0
  186.2170  178.6360  140.2700 N   0  0  0  0  0  0  0  0  0  0  0  0
  188.7150  178.2320  139.0400 C   0  0  1  0  0  3  0  0  0  0  0  0
  189.7500  177.5410  142.7570 C   0  0  0  0  0  0  0  0  0  0  0  0
  190.0410  177.8530  145.5390 C   0  0  0  0  0  3  0  0  0  0  0  0
  189.0290  176.7180  143.6510 C   0  0  0  0  0  0  0  0  0  0  0  0
  189.1780  176.8810  145.0310 C   0  0  0  0  0  3  0  0  0  0  0  0
  190.7590  178.6700  144.6650 C   0  0  0  0  0  3  0  0  0  0  0  0
  188.1620  175.7780  143.1970 F   0  0  0  0  0  0  0  0  0  0  0  0
  190.6150  178.5140  143.2850 C   0  0  0  0  0  3  0  0  0  0  0  0
  184.9380  178.9150  140.8970 C   0  0  0  0  0  2  0  0  0  0  0  0
  185.1550  179.4180  142.3150 C   0  0  0  0  0  2  0  0  0  0  0  0
  184.6160  178.4140  143.3240 C   0  0  2  0  0  3  0  0  0  0  0  0
  183.3000  178.9050  143.8980 C   0  0  0  0  0  1  0  0  0  0  0  0
  185.6230  178.1090  144.4340 C   0  0  0  0  0  2  0  0  0  0  0  0
  185.4140  178.9770  145.6670 C   0  0  0  0  0  2  0  0  0  0  0  0
  186.2600  178.4490  146.8060 C   0  0  0  0  0  1  0  0  0  0  0  0
  1 12  1  0  0  0  0
  2  7  2  0  0  0  0
  2  1  1  0  0  0  0
  3  8  1  0  0  0  0
  4 11  1  0  0  0  0
  4  3  2  0  0  0  0
  5  9  2  0  0  0  0
  6  5  1  0  0  0  0
  8  1  2  0  0  0  0
  9 10  1  0  0  0  0
 10 19  1  0  0  0  0
 10  7  1  0  0  0  0
 11  5  1  6  0  0  0
 11  2  1  0  0  0  0
 12 18  2  0  0  0  0
 12 14  1  0  0  0  0
 14 15  2  0  0  0  0
 15 13  1  0  0  0  0
 16 13  2  0  0  0  0
 17 14  1  0  0  0  0
 18 16  1  0  0  0  0
 19 20  1  0  0  0  0
 20 21  1  0  0  0  0
 21 22  1  1  0  0  0
 21 23  1  0  0  0  0
 23 24  1  0  0  0  0
 24 25  1  0  0  0  0
M  END
>  <MODEL>
2

>  <REMARK>
 VINA RESULT:      -8.0      1.400      2.522
  Name = 
  6 active torsions:
  status: ('A' for Active; 'I' for Inactive)
    1  A    between atoms: C_1  and  C_5
    2  A    between atoms: C_2  and  C_7
    3  A    between atoms: C_2  and  C_21
    4  A    between atoms: C_6  and  C_15
    5  A    between atoms: C_6  and  N_23
    6  A    between atoms: C_15  and  C_21
                            x       y       z     vdW  Elec       q    Type
                         _______ _______ _______ _____ _____    ______ ____

>  <TORSDO>
F 6

$$$$
=
 OpenBabel10262419503D

 25 27  0  0  1  0  0  0  0  0999 V2000
  187.0700  178.1510  142.5200 C   0  0  0  0  0  0  0  0  0  0  0  0
  188.5010  177.7560  142.4640 C   0  0  0  0  0  0  0  0  0  0  0  0
  187.1990  178.3930  140.0800 C   0  0  0  0  0  3  0  0  0  0  0  0
  188.3880  177.8680  140.0110 N   0  0  0  0  0  0  0  0  0  0  0  0
  190.5300  177.2410  141.0450 C   0  0  0  0  0  0  0  0  0  0  0  0
  191.1510  176.9720  139.7930 N   0  0  0  0  0  1  0  0  0  0  0  0
  189.3150  177.8990  143.5110 C   0  0  0  0  0  3  0  0  0  0  0  0
  186.4650  178.4480  141.3620 C   0  0  0  0  0  3  0  0  0  0  0  0
  191.2680  177.3760  142.1050 N   0  0  0  0  0  0  0  0  0  0  0  0
  190.7080  177.6080  143.3760 N   0  0  0  0  0  0  0  0  0  0  0  0
  189.0260  177.2090  141.1550 C   0  0  1  0  0  3  0  0  0  0  0  0
  186.3130  178.2170  143.7990 C   0  0  0  0  0  0  0  0  0  0  0  0
  184.9080  178.2650  146.2370 C   0  0  0  0  0  3  0  0  0  0  0  0
  185.1570  179.0150  143.9460 C   0  0  0  0  0  0  0  0  0  0  0  0
  184.4660  179.0350  145.1600 C   0  0  0  0  0  3  0  0  0  0  0  0
  186.0480  177.4720  146.1030 C   0  0  0  0  0  3  0  0  0  0  0  0
  184.7090  179.7960  142.9300 F   0  0  0  0  0  0  0  0  0  0  0  0
  186.7440  177.4470  144.8920 C   0  0  0  0  0  3  0  0  0  0  0  0
  191.5810  177.7440  144.5280 C   0  0  0  0  0  2  0  0  0  0  0  0
  191.5350  176.4750  145.3640 C   0  0  0  0  0  2  0  0  0  0  0  0
  191.3050  176.8130  146.8300 C   0  0  2  0  0  3  0  0  0  0  0  0
  192.1100  175.8800  147.7150 C   0  0  0  0  0  1  0  0  0  0  0  0
  189.8220  176.7870  147.2050 C   0  0  0  0  0  2  0  0  0  0  0  0
  189.3540  178.0950  147.8280 C   0  0  0  0  0  2  0  0  0  0  0  0
  188.2290  177.8160  148.8010 C   0  0  0  0  0  1  0  0  0  0  0  0
  1 12  1  0  0  0  0
  2  1  1  0  0  0  0
  2  7  2  0  0  0  0
  3  8  1  0  0  0  0
  4  3  2  0  0  0  0
  5 11  1  0  0  0  0
  5  9  2  0  0  0  0
  6  5  1  0  0  0  0
  8  1  2  0  0  0  0
  9 10  1  0  0  0  0
 10  7  1  0  0  0  0
 10 19  1  0  0  0  0
 11  4  1  6  0  0  0
 11  2  1  0  0  0  0
 12 14  2  0  0  0  0
 12 18  1  0  0  0  0
 14 15  1  0  0  0  0
 15 13  2  0  0  0  0
 16 13  1  0  0  0  0
 17 14  1  0  0  0  0
 18 16  2  0  0  0  0
 19 20  1  0  0  0  0
 20 21  1  0  0  0  0
 21 23  1  0  0  0  0
 21 22  1  1  0  0  0
 23 24  1  0  0  0  0
 24 25  1  0  0  0  0
M  END
>  <MODEL>
3

>  <REMARK>
 VINA RESULT:      -8.0      2.407      4.957
  Name = 
  6 active torsions:
  status: ('A' for Active; 'I' for Inactive)
    1  A    between atoms: C_1  and  C_5
    2  A    between atoms: C_2  and  C_7
    3  A    between atoms: C_2  and  C_21
    4  A    between atoms: C_6  and  C_15
    5  A    between atoms: C_6  and  N_23
    6  A    between atoms: C_15  and  C_21
                            x       y       z     vdW  Elec       q    Type
                         _______ _______ _______ _____ _____    ______ ____

>  <TORSDO>
F 6

$$$$
=
 OpenBabel10262419503D

 25 27  0  0  1  0  0  0  0  0999 V2000
  189.3970  177.4250  141.8500 C   0  0  0  0  0  0  0  0  0  0  0  0
  188.2820  178.0200  141.0710 C   0  0  0  0  0  0  0  0  0  0  0  0
  190.2660  176.6160  139.7010 C   0  0  0  0  0  3  0  0  0  0  0  0
  189.3990  177.2920  139.0060 N   0  0  0  0  0  0  0  0  0  0  0  0
  187.2600  178.4900  138.8060 C   0  0  0  0  0  0  0  0  0  0  0  0
  187.3250  178.5400  137.3850 N   0  0  0  0  0  1  0  0  0  0  0  0
  187.0920  178.2720  141.6190 C   0  0  0  0  0  3  0  0  0  0  0  0
  190.3410  176.7590  141.1700 C   0  0  0  0  0  3  0  0  0  0  0  0
  186.1320  178.7410  139.4000 N   0  0  0  0  0  0  0  0  0  0  0  0
  186.0160  178.7410  140.8030 N   0  0  0  0  0  0  0  0  0  0  0  0
  188.5250  178.3060  139.6050 C   0  0  1  0  0  3  0  0  0  0  0  0
  189.4910  177.5550  143.3290 C   0  0  0  0  0  0  0  0  0  0  0  0
  189.5880  177.7820  146.1330 C   0  0  0  0  0  3  0  0  0  0  0  0
  190.4670  178.3660  143.9510 C   0  0  0  0  0  0  0  0  0  0  0  0
  190.5100  178.4720  145.3440 C   0  0  0  0  0  3  0  0  0  0  0  0
  188.6190  176.9790  145.5300 C   0  0  0  0  0  3  0  0  0  0  0  0
  191.3950  179.0330  143.2190 F   0  0  0  0  0  0  0  0  0  0  0  0
  188.5710  176.8680  144.1390 C   0  0  0  0  0  3  0  0  0  0  0  0
  184.7330  179.0350  141.4140 C   0  0  0  0  0  2  0  0  0  0  0  0
  184.9240  179.3650  142.8850 C   0  0  0  0  0  2  0  0  0  0  0  0
  183.9020  178.6210  143.7340 C   0  0  2  0  0  3  0  0  0  0  0  0
  182.4950  178.9720  143.2870 C   0  0  0  0  0  1  0  0  0  0  0  0
  184.0880  178.8850  145.2290 C   0  0  0  0  0  2  0  0  0  0  0  0
  185.5540  178.9910  145.6250 C   0  0  0  0  0  2  0  0  0  0  0  0
  185.7130  178.6050  147.0810 C   0  0  0  0  0  1  0  0  0  0  0  0
  1 12  1  0  0  0  0
  2  7  2  0  0  0  0
  2  1  1  0  0  0  0
  3  8  1  0  0  0  0
  4 11  1  0  0  0  0
  4  3  2  0  0  0  0
  5  9  2  0  0  0  0
  6  5  1  0  0  0  0
  8  1  2  0  0  0  0
  9 10  1  0  0  0  0
 10 19  1  0  0  0  0
 10  7  1  0  0  0  0
 11  5  1  6  0  0  0
 11  2  1  0  0  0  0
 12 14  2  0  0  0  0
 12 18  1  0  0  0  0
 14 15  1  0  0  0  0
 15 13  2  0  0  0  0
 16 13  1  0  0  0  0
 17 14  1  0  0  0  0
 18 16  2  0  0  0  0
 19 20  1  0  0  0  0
 20 21  1  0  0  0  0
 21 22  1  6  0  0  0
 21 23  1  0  0  0  0
 23 24  1  0  0  0  0
 24 25  1  0  0  0  0
M  END
>  <MODEL>
4

>  <REMARK>
 VINA RESULT:      -7.9      1.592      2.784
  Name = 
  6 active torsions:
  status: ('A' for Active; 'I' for Inactive)
    1  A    between atoms: C_1  and  C_5
    2  A    between atoms: C_2  and  C_7
    3  A    between atoms: C_2  and  C_21
    4  A    between atoms: C_6  and  C_15
    5  A    between atoms: C_6  and  N_23
    6  A    between atoms: C_15  and  C_21
                            x       y       z     vdW  Elec       q    Type
                         _______ _______ _______ _____ _____    ______ ____

>  <TORSDO>
F 6

$$$$
=
 OpenBabel10262419503D

 25 27  0  0  1  0  0  0  0  0999 V2000
  185.5780  178.4410  144.6600 C   0  0  0  0  0  0  0  0  0  0  0  0
  185.7710  178.3860  143.1890 C   0  0  0  0  0  0  0  0  0  0  0  0
  183.2970  179.2100  144.1780 C   0  0  0  0  0  3  0  0  0  0  0  0
  183.4040  178.9820  142.9020 N   0  0  0  0  0  0  0  0  0  0  0  0
  184.7640  178.6330  140.8820 C   0  0  0  0  0  0  0  0  0  0  0  0
  183.6510  178.7730  140.0070 N   0  0  0  0  0  1  0  0  0  0  0  0
  186.9800  178.4800  142.6320 C   0  0  0  0  0  3  0  0  0  0  0  0
  184.3790  178.8350  145.1120 C   0  0  0  0  0  3  0  0  0  0  0  0
  185.9670  178.6990  140.3970 N   0  0  0  0  0  0  0  0  0  0  0  0
  187.1060  178.5330  141.2080 N   0  0  0  0  0  0  0  0  0  0  0  0
  184.5380  178.2530  142.3240 C   0  0  1  0  0  3  0  0  0  0  0  0
  186.6540  178.0710  145.6190 C   0  0  0  0  0  0  0  0  0  0  0  0
  188.7170  177.3150  147.3760 C   0  0  0  0  0  3  0  0  0  0  0  0
  186.5130  178.2540  147.0120 C   0  0  0  0  0  0  0  0  0  0  0  0
  187.5430  177.8780  147.8790 C   0  0  0  0  0  3  0  0  0  0  0  0
  188.8670  177.1280  146.0020 C   0  0  0  0  0  3  0  0  0  0  0  0
  185.3970  178.8200  147.5370 F   0  0  0  0  0  0  0  0  0  0  0  0
  187.8420  177.5020  145.1300 C   0  0  0  0  0  3  0  0  0  0  0  0
  188.4270  178.6100  140.6120 C   0  0  0  0  0  2  0  0  0  0  0  0
  189.2010  177.3350  140.9010 C   0  0  0  0  0  2  0  0  0  0  0  0
  190.5440  177.6610  141.5380 C   0  0  2  0  0  3  0  0  0  0  0  0
  191.6590  177.5010  140.5210 C   0  0  0  0  0  1  0  0  0  0  0  0
  190.8130  176.8210  142.7880 C   0  0  0  0  0  2  0  0  0  0  0  0
  191.6700  177.5530  143.8100 C   0  0  0  0  0  2  0  0  0  0  0  0
  191.2350  179.0010  143.8890 C   0  0  0  0  0  1  0  0  0  0  0  0
  1  8  2  0  0  0  0
  1 12  1  0  0  0  0
  2  1  1  0  0  0  0
  3  8  1  0  0  0  0
  4  3  2  0  0  0  0
  6  5  1  0  0  0  0
  7  2  2  0  0  0  0
  9  5  2  0  0  0  0
  9 10  1  0  0  0  0
 10  7  1  0  0  0  0
 11  5  1  6  0  0  0
 11  4  1  0  0  0  0
 11  2  1  0  0  0  0
 12 14  1  0  0  0  0
 13 15  1  0  0  0  0
 14 17  1  0  0  0  0
 14 15  2  0  0  0  0
 16 13  2  0  0  0  0
 18 12  2  0  0  0  0
 18 16  1  0  0  0  0
 19 20  1  0  0  0  0
 19 10  1  0  0  0  0
 20 21  1  0  0  0  0
 21 22  1  6  0  0  0
 21 23  1  0  0  0  0
 23 24  1  0  0  0  0
 24 25  1  0  0  0  0
M  END
>  <MODEL>
5

>  <REMARK>
 VINA RESULT:      -7.7      1.934      4.937
  Name = 
  6 active torsions:
  status: ('A' for Active; 'I' for Inactive)
    1  A    between atoms: C_1  and  C_5
    2  A    between atoms: C_2  and  C_7
    3  A    between atoms: C_2  and  C_21
    4  A    between atoms: C_6  and  C_15
    5  A    between atoms: C_6  and  N_23
    6  A    between atoms: C_15  and  C_21
                            x       y       z     vdW  Elec       q    Type
                         _______ _______ _______ _____ _____    ______ ____

>  <TORSDO>
F 6

$$$$
=
 OpenBabel10262419503D

 25 27  0  0  1  0  0  0  0  0999 V2000
  187.2070  177.8520  145.9920 C   0  0  1  0  0  3  0  0  0  0  0  0
  188.5460  177.4760  145.4720 C   0  0  0  0  0  0  0  0  0  0  0  0
  188.1490  177.5100  148.2330 C   0  0  0  0  0  3  0  0  0  0  0  0
  189.3630  177.3670  147.7880 N   0  0  0  0  0  0  0  0  0  0  0  0
  190.9480  176.8660  145.9750 C   0  0  0  0  0  0  0  0  0  0  0  0
  192.0560  176.7530  146.8620 N   0  0  0  0  0  1  0  0  0  0  0  0
  188.7130  176.9740  144.2470 C   0  0  0  0  0  3  0  0  0  0  0  0
  187.0410  177.8660  147.3220 C   0  0  0  0  0  3  0  0  0  0  0  0
  191.0540  176.4090  144.7640 N   0  0  0  0  0  0  0  0  0  0  0  0
  190.0060  176.5250  143.8320 N   0  0  0  0  0  0  0  0  0  0  0  0
  189.7310  177.6490  146.3970 C   0  0  0  0  0  0  0  0  0  0  0  0
  186.0770  178.2110  145.0930 C   0  0  0  0  0  0  0  0  0  0  0  0
  183.9950  178.9100  143.3340 C   0  0  0  0  0  3  0  0  0  0  0  0
  184.8200  178.6160  145.5940 C   0  0  0  0  0  0  0  0  0  0  0  0
  183.7900  178.9600  144.7140 C   0  0  0  0  0  3  0  0  0  0  0  0
  185.2320  178.5110  142.8280 C   0  0  0  0  0  3  0  0  0  0  0  0
  184.5750  178.6560  146.9280 F   0  0  0  0  0  0  0  0  0  0  0  0
  186.2660  178.1660  143.7010 C   0  0  0  0  0  3  0  0  0  0  0  0
  190.1810  176.0030  142.4890 C   0  0  0  0  0  2  0  0  0  0  0  0
  189.6030  176.9770  141.4750 C   0  0  0  0  0  2  0  0  0  0  0  0
  190.4520  176.9950  140.2120 C   0  0  2  0  0  3  0  0  0  0  0  0
  191.8470  177.5030  140.5250 C   0  0  0  0  0  1  0  0  0  0  0  0
  189.8060  177.8130  139.0910 C   0  0  0  0  0  2  0  0  0  0  0  0
  188.3910  178.2560  139.4340 C   0  0  0  0  0  2  0  0  0  0  0  0
  187.4570  177.8800  138.3030 C   0  0  0  0  0  1  0  0  0  0  0  0
  1 12  1  1  0  0  0
  1  8  1  0  0  0  0
  2  1  1  0  0  0  0
  2 11  1  0  0  0  0
  4  3  1  0  0  0  0
  5 11  1  0  0  0  0
  5  6  1  0  0  0  0
  7  2  2  0  0  0  0
  8  3  2  0  0  0  0
  9  5  2  0  0  0  0
 10  7  1  0  0  0  0
 10  9  1  0  0  0  0
 11  4  2  0  0  0  0
 12 14  1  0  0  0  0
 13 15  1  0  0  0  0
 14 17  1  0  0  0  0
 15 14  2  0  0  0  0
 16 13  2  0  0  0  0
 16 18  1  0  0  0  0
 18 12  2  0  0  0  0
 19 10  1  0  0  0  0
 20 19  1  0  0  0  0
 21 22  1  1  0  0  0
 21 20  1  0  0  0  0
 23 24  1  0  0  0  0
 23 21  1  0  0  0  0
 25 24  1  0  0  0  0
M  END
>  <MODEL>
6

>  <REMARK>
 VINA RESULT:      -7.7      3.160      7.128
  Name = 
  6 active torsions:
  status: ('A' for Active; 'I' for Inactive)
    1  A    between atoms: C_1  and  C_5
    2  A    between atoms: C_2  and  C_7
    3  A    between atoms: C_2  and  C_21
    4  A    between atoms: C_6  and  C_15
    5  A    between atoms: C_6  and  N_23
    6  A    between atoms: C_15  and  C_21
                            x       y       z     vdW  Elec       q    Type
                         _______ _______ _______ _____ _____    ______ ____

>  <TORSDO>
F 6

$$$$
=
 OpenBabel10262419503D

 25 27  0  0  1  0  0  0  0  0999 V2000
  188.9930  177.2830  143.6040 C   0  0  0  0  0  0  0  0  0  0  0  0
  188.2820  177.8810  142.4450 C   0  0  0  0  0  0  0  0  0  0  0  0
  190.5830  176.3780  141.9660 C   0  0  0  0  0  3  0  0  0  0  0  0
  190.0720  177.0530  140.9780 N   0  0  0  0  0  0  0  0  0  0  0  0
  188.2180  178.3020  139.9520 C   0  0  0  0  0  0  0  0  0  0  0  0
  188.8200  178.3020  138.6630 N   0  0  0  0  0  1  0  0  0  0  0  0
  186.9840  178.1830  142.4930 C   0  0  0  0  0  3  0  0  0  0  0  0
  190.0980  176.5690  143.3490 C   0  0  0  0  0  3  0  0  0  0  0  0
  186.9590  178.6030  140.0660 N   0  0  0  0  0  0  0  0  0  0  0  0
  186.3180  178.6540  141.3180 N   0  0  0  0  0  0  0  0  0  0  0  0
  189.0750  178.1100  141.1780 C   0  0  1  0  0  3  0  0  0  0  0  0
  188.5220  177.4600  145.0040 C   0  0  0  0  0  0  0  0  0  0  0  0
  187.5580  177.8210  147.6220 C   0  0  0  0  0  3  0  0  0  0  0  0
  189.4160  177.7020  146.0710 C   0  0  0  0  0  0  0  0  0  0  0  0
  188.9290  177.8780  147.3690 C   0  0  0  0  0  3  0  0  0  0  0  0
  186.6660  177.5840  146.5770 C   0  0  0  0  0  3  0  0  0  0  0  0
  190.7570  177.7410  145.8680 F   0  0  0  0  0  0  0  0  0  0  0  0
  187.1450  177.4060  145.2770 C   0  0  0  0  0  3  0  0  0  0  0  0
  184.9110  179.0030  141.3870 C   0  0  0  0  0  2  0  0  0  0  0  0
  184.2490  178.2590  142.5350 C   0  0  0  0  0  2  0  0  0  0  0  0
  183.5110  179.2320  143.4430 C   0  0  2  0  0  3  0  0  0  0  0  0
  184.4310  179.7190  144.5470 C   0  0  0  0  0  1  0  0  0  0  0  0
  182.2290  178.6280  144.0210 C   0  0  0  0  0  2  0  0  0  0  0  0
  180.9920  179.0050  143.2160 C   0  0  0  0  0  2  0  0  0  0  0  0
  179.7500  178.6260  143.9930 C   0  0  0  0  0  1  0  0  0  0  0  0
  1 12  1  0  0  0  0
  2  7  2  0  0  0  0
  2  1  1  0  0  0  0
  3  8  1  0  0  0  0
  4 11  1  0  0  0  0
  4  3  2  0  0  0  0
  5  9  2  0  0  0  0
  6  5  1  0  0  0  0
  8  1  2  0  0  0  0
  9 10  1  0  0  0  0
 10 19  1  0  0  0  0
 10  7  1  0  0  0  0
 11  5  1  6  0  0  0
 11  2  1  0  0  0  0
 12 18  2  0  0  0  0
 12 14  1  0  0  0  0
 14 15  2  0  0  0  0
 15 13  1  0  0  0  0
 16 13  2  0  0  0  0
 17 14  1  0  0  0  0
 18 16  1  0  0  0  0
 19 20  1  0  0  0  0
 20 21  1  0  0  0  0
 21 23  1  0  0  0  0
 21 22  1  1  0  0  0
 24 25  1  0  0  0  0
 24 23  1  0  0  0  0
M  END
>  <MODEL>
7

>  <REMARK>
 VINA RESULT:      -7.7      2.044      4.171
  Name = 
  6 active torsions:
  status: ('A' for Active; 'I' for Inactive)
    1  A    between atoms: C_1  and  C_5
    2  A    between atoms: C_2  and  C_7
    3  A    between atoms: C_2  and  C_21
    4  A    between atoms: C_6  and  C_15
    5  A    between atoms: C_6  and  N_23
    6  A    between atoms: C_15  and  C_21
                            x       y       z     vdW  Elec       q    Type
                         _______ _______ _______ _____ _____    ______ ____

>  <TORSDO>
F 6

$$$$
=
 OpenBabel10262419503D

 25 27  0  0  1  0  0  0  0  0999 V2000
  184.1190  178.4830  142.8750 C   0  0  1  0  0  3  0  0  0  0  0  0
  185.3190  178.2740  143.7240 C   0  0  0  0  0  0  0  0  0  0  0  0
  182.9240  178.9980  144.9570 C   0  0  0  0  0  3  0  0  0  0  0  0
  184.0110  179.0010  145.6730 N   0  0  0  0  0  0  0  0  0  0  0  0
  186.3600  178.3640  146.0270 C   0  0  0  0  0  0  0  0  0  0  0  0
  186.3440  178.7470  147.3980 N   0  0  0  0  0  1  0  0  0  0  0  0
  186.3310  177.4960  143.3370 C   0  0  0  0  0  3  0  0  0  0  0  0
  182.9810  178.8350  143.4900 C   0  0  0  0  0  3  0  0  0  0  0  0
  187.3280  177.6180  145.5860 N   0  0  0  0  0  0  0  0  0  0  0  0
  187.4150  177.2370  144.2340 N   0  0  0  0  0  0  0  0  0  0  0  0
  185.3490  178.9520  145.0760 C   0  0  0  0  0  0  0  0  0  0  0  0
  184.1520  178.3200  141.3970 C   0  0  0  0  0  0  0  0  0  0  0  0
  184.1770  177.9400  138.6080 C   0  0  0  0  0  3  0  0  0  0  0  0
  185.1400  178.9370  140.5970 C   0  0  0  0  0  0  0  0  0  0  0  0
  185.1440  178.7450  139.2120 C   0  0  0  0  0  3  0  0  0  0  0  0
  183.1970  177.3250  139.3880 C   0  0  0  0  0  3  0  0  0  0  0  0
  186.0830  179.7460  141.1440 F   0  0  0  0  0  0  0  0  0  0  0  0
  183.1870  177.5130  140.7720 C   0  0  0  0  0  3  0  0  0  0  0  0
  188.5220  176.4080  143.7940 C   0  0  0  0  0  2  0  0  0  0  0  0
  189.6490  177.2850  143.2720 C   0  0  0  0  0  2  0  0  0  0  0  0
  190.4330  177.8880  144.4290 C   0  0  2  0  0  3  0  0  0  0  0  0
  191.1720  179.1310  143.9690 C   0  0  0  0  0  1  0  0  0  0  0  0
  191.3910  176.8810  145.0680 C   0  0  0  0  0  2  0  0  0  0  0  0
  191.1690  176.7340  146.5670 C   0  0  0  0  0  2  0  0  0  0  0  0
  192.0560  175.6300  147.1030 C   0  0  0  0  0  1  0  0  0  0  0  0
  1 12  1  6  0  0  0
  1  8  1  0  0  0  0
  1  2  1  0  0  0  0
  2 11  1  0  0  0  0
  3  4  1  0  0  0  0
  5  6  1  0  0  0  0
  7  2  2  0  0  0  0
  7 10  1  0  0  0  0
  8  3  2  0  0  0  0
  9  5  2  0  0  0  0
 10  9  1  0  0  0  0
 11  4  2  0  0  0  0
 11  5  1  0  0  0  0
 13 15  2  0  0  0  0
 13 16  1  0  0  0  0
 14 17  1  0  0  0  0
 14 12  2  0  0  0  0
 15 14  1  0  0  0  0
 16 18  2  0  0  0  0
 18 12  1  0  0  0  0
 19 10  1  0  0  0  0
 20 19  1  0  0  0  0
 20 21  1  0  0  0  0
 21 22  1  6  0  0  0
 21 23  1  0  0  0  0
 23 24  1  0  0  0  0
 24 25  1  0  0  0  0
M  END
>  <MODEL>
8

>  <REMARK>
 VINA RESULT:      -7.4      2.611      6.130
  Name = 
  6 active torsions:
  status: ('A' for Active; 'I' for Inactive)
    1  A    between atoms: C_1  and  C_5
    2  A    between atoms: C_2  and  C_7
    3  A    between atoms: C_2  and  C_21
    4  A    between atoms: C_6  and  C_15
    5  A    between atoms: C_6  and  N_23
    6  A    between atoms: C_15  and  C_21
                            x       y       z     vdW  Elec       q    Type
                         _______ _______ _______ _____ _____    ______ ____

>  <TORSDO>
F 6

$$$$
=
 OpenBabel10262419503D

 25 27  0  0  1  0  0  0  0  0999 V2000
  189.9340  177.3410  141.3230 C   0  0  0  0  0  0  0  0  0  0  0  0
  188.6960  177.9460  140.7710 C   0  0  0  0  0  0  0  0  0  0  0  0
  190.4280  176.6280  139.0270 C   0  0  0  0  0  3  0  0  0  0  0  0
  189.4480  177.3150  138.5170 N   0  0  0  0  0  0  0  0  0  0  0  0
  187.2950  178.4850  138.7350 C   0  0  0  0  0  0  0  0  0  0  0  0
  187.1140  178.5900  137.3280 N   0  0  0  0  0  1  0  0  0  0  0  0
  187.6160  178.1570  141.5250 C   0  0  0  0  0  3  0  0  0  0  0  0
  190.7530  176.7170  140.4650 C   0  0  0  0  0  3  0  0  0  0  0  0
  186.2840  178.6940  139.5240 N   0  0  0  0  0  0  0  0  0  0  0  0
  186.4100  178.6400  140.9240 N   0  0  0  0  0  0  0  0  0  0  0  0
  188.6800  178.2910  139.2980 C   0  0  1  0  0  3  0  0  0  0  0  0
  190.2800  177.4160  142.7680 C   0  0  0  0  0  0  0  0  0  0  0  0
  191.0100  177.5810  145.4810 C   0  0  0  0  0  3  0  0  0  0  0  0
  189.6160  176.6330  143.7390 C   0  0  0  0  0  0  0  0  0  0  0  0
  189.9830  176.7220  145.0850 C   0  0  0  0  0  3  0  0  0  0  0  0
  191.6730  178.3580  144.5310 C   0  0  0  0  0  3  0  0  0  0  0  0
  188.5980  175.8040  143.3980 F   0  0  0  0  0  0  0  0  0  0  0  0
  191.3110  178.2740  143.1840 C   0  0  0  0  0  3  0  0  0  0  0  0
  185.2490  178.8890  141.7580 C   0  0  0  0  0  2  0  0  0  0  0  0
  185.3730  178.1200  143.0630 C   0  0  0  0  0  2  0  0  0  0  0  0
  185.1600  179.0490  144.2500 C   0  0  2  0  0  3  0  0  0  0  0  0
  185.3410  178.2880  145.5500 C   0  0  0  0  0  1  0  0  0  0  0  0
  183.7980  179.7460  144.2030 C   0  0  0  0  0  2  0  0  0  0  0  0
  182.6420  178.7820  144.4260 C   0  0  0  0  0  2  0  0  0  0  0  0
  181.5670  179.0360  143.3900 C   0  0  0  0  0  1  0  0  0  0  0  0
  1 12  1  0  0  0  0
  2  1  1  0  0  0  0
  2  7  2  0  0  0  0
  3  8  1  0  0  0  0
  4  3  2  0  0  0  0
  5 11  1  0  0  0  0
  5  9  2  0  0  0  0
  6  5  1  0  0  0  0
  8  1  2  0  0  0  0
  9 10  1  0  0  0  0
 10  7  1  0  0  0  0
 10 19  1  0  0  0  0
 11  4  1  6  0  0  0
 11  2  1  0  0  0  0
 12 18  2  0  0  0  0
 12 14  1  0  0  0  0
 14 15  2  0  0  0  0
 15 13  1  0  0  0  0
 16 13  2  0  0  0  0
 17 14  1  0  0  0  0
 18 16  1  0  0  0  0
 19 20  1  0  0  0  0
 20 21  1  0  0  0  0
 21 22  1  1  0  0  0
 23 21  1  0  0  0  0
 23 24  1  0  0  0  0
 25 24  1  0  0  0  0
M  END
>  <MODEL>
9

>  <REMARK>
 VINA RESULT:      -7.3      1.479      2.914
  Name = 
  6 active torsions:
  status: ('A' for Active; 'I' for Inactive)
    1  A    between atoms: C_1  and  C_5
    2  A    between atoms: C_2  and  C_7
    3  A    between atoms: C_2  and  C_21
    4  A    between atoms: C_6  and  C_15
    5  A    between atoms: C_6  and  N_23
    6  A    between atoms: C_15  and  C_21
                            x       y       z     vdW  Elec       q    Type
                         _______ _______ _______ _____ _____    ______ ____

>  <TORSDO>
F 6

$$$$
