=
 OpenBabel10262421583D

 30 38  0  0  1  0  0  0  0  0999 V2000
  188.3370  177.7950  139.3330 C   0  0  0  0  0  0  0  0  0  0  0  0
  189.4850  175.9450  138.0520 C   0  0  0  0  0  0  0  0  0  0  0  0
  191.8310  177.3480  141.7980 C   0  0  0  0  0  2  0  0  0  0  0  0
  188.2940  177.8880  140.7500 C   0  0  0  0  0  0  0  0  0  0  0  0
  187.2080  178.1330  138.5650 C   0  0  0  0  0  3  0  0  0  0  0  0
  184.4610  179.1590  141.0430 S   0  0  0  0  0  0  0  0  0  0  0  0
  187.4120  177.0780  143.4080 C   0  0  1  0  0  0  0  0  0  0  0  0
  185.9870  178.6130  140.5900 C   0  0  0  0  0  0  0  0  0  0  0  0
  184.9040  178.8960  138.5580 N   0  0  0  0  0  0  0  0  0  0  0  0
  188.8450  177.2870  143.9040 C   0  0  2  0  0  3  0  0  0  0  0  0
  191.2170  177.6600  143.1530 C   0  0  1  0  0  3  0  0  0  0  0  0
  186.0410  178.5380  139.2080 C   0  0  0  0  0  0  0  0  0  0  0  0
  187.0850  178.2890  141.3890 C   0  0  0  0  0  0  0  0  0  0  0  0
  190.5210  175.1590  137.9860 N   0  0  0  0  0  0  0  0  0  0  0  0
  188.7860  177.9420  145.2660 C   0  0  0  0  0  2  0  0  0  0  0  0
  186.6860  176.7990  144.7130 C   0  0  1  0  0  3  0  0  0  0  0  0
  182.5860  179.7060  139.0230 C   0  0  0  0  0  1  0  0  0  0  0  0
  188.2910  175.5510  137.3850 N   0  0  0  0  0  1  0  0  0  0  0  0
  190.6670  177.0000  140.8850 C   0  0  1  0  0  3  0  0  0  0  0  0
  192.0580  176.9310  138.7680 C   0  0  0  0  0  2  0  0  0  0  0  0
  183.9420  179.2610  139.4380 C   0  0  0  0  0  0  0  0  0  0  0  0
  189.5930  177.3500  138.6220 C   0  0  2  0  0  3  0  0  0  0  0  0
  189.4930  177.5800  141.5130 N   0  0  0  0  0  0  0  0  0  0  0  0
  191.9320  178.8400  143.7810 C   0  0  0  0  0  1  0  0  0  0  0  0
  189.7640  178.0110  142.8890 C   0  0  1  0  0  3  0  0  0  0  0  0
  187.4430  177.5170  145.8290 C   0  0  0  0  0  2  0  0  0  0  0  0
  186.0780  177.7840  143.7500 C   0  0  1  0  0  3  0  0  0  0  0  0
  191.8210  175.4340  138.6000 C   0  0  0  0  0  2  0  0  0  0  0  0
  190.8600  177.5660  139.4730 C   0  0  1  0  0  3  0  0  0  0  0  0
  187.0710  178.4730  142.8690 C   0  0  1  0  0  3  0  0  0  0  0  0
  1  4  1  0  0  0  0
  2 22  1  0  0  0  0
  3 11  1  0  0  0  0
  4 13  2  0  0  0  0
  4 23  1  0  0  0  0
  5 12  1  0  0  0  0
  5  1  2  0  0  0  0
  7 27  1  0  0  0  0
  7 10  1  0  0  0  0
  7 16  1  0  0  0  0
  8  6  1  0  0  0  0
  8 13  1  0  0  0  0
  9 12  1  0  0  0  0
  9 21  2  0  0  0  0
 10 15  1  0  0  0  0
 11 24  1  0  0  0  0
 12  8  2  0  0  0  0
 13 30  1  0  0  0  0
 14  2  2  0  0  0  0
 14 28  1  0  0  0  0
 15 26  1  0  0  0  0
 16 26  1  0  0  0  0
 17 21  1  0  0  0  0
 18  2  1  0  0  0  0
 19 23  1  0  0  0  0
 19  3  1  0  0  0  0
 20 29  1  0  0  0  0
 21  6  1  0  0  0  0
 22  1  1  0  0  0  0
 22 29  1  0  0  0  0
 23 25  1  0  0  0  0
 25 11  1  0  0  0  0
 25 10  1  0  0  0  0
 27 16  1  0  0  0  0
 28 20  1  0  0  0  0
 29 19  1  0  0  0  0
 30  7  1  0  0  0  0
 30 27  1  0  0  0  0
M  END
>  <MODEL>
1

>  <REMARK>
 VINA RESULT:      -9.9      0.000      0.000
  Name = 
  0 active torsions:
  status: ('A' for Active; 'I' for Inactive)
                            x       y       z     vdW  Elec       q    Type
                         _______ _______ _______ _____ _____    ______ ____

>  <TORSDO>
F 0

$$$$
=
 OpenBabel10262421583D

 30 38  0  0  1  0  0  0  0  0999 V2000
  186.1230  178.6000  141.9350 C   0  0  0  0  0  0  0  0  0  0  0  0
  186.7970  177.5670  144.1400 C   0  0  0  0  0  0  0  0  0  0  0  0
  182.3940  179.0180  144.0330 C   0  0  0  0  0  2  0  0  0  0  0  0
  184.8640  178.4080  141.3070 C   0  0  0  0  0  0  0  0  0  0  0  0
  187.3010  178.6360  141.1670 C   0  0  0  0  0  3  0  0  0  0  0  0
  186.2450  178.1120  137.5130 S   0  0  0  0  0  0  0  0  0  0  0  0
  182.8550  176.8590  139.8710 C   0  0  1  0  0  0  0  0  0  0  0  0
  185.9990  178.2560  139.1720 C   0  0  0  0  0  0  0  0  0  0  0  0
  188.2970  178.4900  138.9580 N   0  0  0  0  0  0  0  0  0  0  0  0
  181.7860  177.4820  140.7730 C   0  0  2  0  0  3  0  0  0  0  0  0
  181.4340  178.8290  142.8690 C   0  0  1  0  0  3  0  0  0  0  0  0
  187.2220  178.4600  139.7880 C   0  0  0  0  0  0  0  0  0  0  0  0
  184.8070  178.2140  139.8960 C   0  0  0  0  0  0  0  0  0  0  0  0
  186.4150  177.2410  145.3410 N   0  0  0  0  0  0  0  0  0  0  0  0
  180.5780  177.8080  139.9230 C   0  0  0  0  0  2  0  0  0  0  0  0
  181.9940  176.0990  138.8770 C   0  0  1  0  0  3  0  0  0  0  0  0
  188.8730  178.2960  136.5350 C   0  0  0  0  0  1  0  0  0  0  0  0
  187.9180  176.8930  143.5790 N   0  0  0  0  0  1  0  0  0  0  0  0
  183.7230  178.4420  143.5740 C   0  0  1  0  0  3  0  0  0  0  0  0
  185.0310  179.2770  145.5770 C   0  0  0  0  0  2  0  0  0  0  0  0
  187.9170  178.3100  137.6710 C   0  0  0  0  0  0  0  0  0  0  0  0
  186.2250  178.7840  143.4310 C   0  0  2  0  0  3  0  0  0  0  0  0
  183.6600  178.4260  142.1220 N   0  0  0  0  0  0  0  0  0  0  0  0
  180.5500  180.0520  142.7300 C   0  0  0  0  0  1  0  0  0  0  0  0
  182.2980  178.6650  141.6310 C   0  0  1  0  0  3  0  0  0  0  0  0
  180.6550  176.8270  138.7700 C   0  0  0  0  0  2  0  0  0  0  0  0
  183.1170  176.9520  138.3490 C   0  0  1  0  0  3  0  0  0  0  0  0
  185.2980  177.8550  146.0600 C   0  0  0  0  0  2  0  0  0  0  0  0
  184.9090  179.2880  144.0540 C   0  0  1  0  0  3  0  0  0  0  0  0
  183.4760  178.1060  139.2300 C   0  0  1  0  0  3  0  0  0  0  0  0
  1 22  1  0  0  0  0
  2 14  2  0  0  0  0
  4  1  1  0  0  0  0
  4 23  1  0  0  0  0
  5  1  2  0  0  0  0
  6 21  1  0  0  0  0
  6  8  1  0  0  0  0
  7 10  1  0  0  0  0
  8 12  2  0  0  0  0
  8 13  1  0  0  0  0
  9 12  1  0  0  0  0
 10 25  1  0  0  0  0
 11  3  1  0  0  0  0
 12  5  1  0  0  0  0
 13  4  2  0  0  0  0
 14 28  1  0  0  0  0
 15 10  1  0  0  0  0
 16  7  1  0  0  0  0
 17 21  1  0  0  0  0
 18  2  1  0  0  0  0
 19  3  1  0  0  0  0
 19 29  1  0  0  0  0
 20 28  1  0  0  0  0
 21  9  2  0  0  0  0
 22 29  1  0  0  0  0
 22  2  1  0  0  0  0
 23 19  1  0  0  0  0
 24 11  1  0  0  0  0
 25 23  1  0  0  0  0
 25 11  1  0  0  0  0
 26 16  1  0  0  0  0
 26 15  1  0  0  0  0
 27 16  1  0  0  0  0
 27 30  1  0  0  0  0
 27  7  1  0  0  0  0
 29 20  1  0  0  0  0
 30  7  1  0  0  0  0
 30 13  1  0  0  0  0
M  END
>  <MODEL>
2

>  <REMARK>
 VINA RESULT:      -8.5      2.891      7.038
  Name = 
  0 active torsions:
  status: ('A' for Active; 'I' for Inactive)
                            x       y       z     vdW  Elec       q    Type
                         _______ _______ _______ _____ _____    ______ ____

>  <TORSDO>
F 0

$$$$
=
 OpenBabel10262421583D

 30 38  0  0  1  0  0  0  0  0999 V2000
  186.3100  177.8660  145.3500 C   0  0  0  0  0  0  0  0  0  0  0  0
  187.0950  179.0230  147.4550 C   0  0  0  0  0  0  0  0  0  0  0  0
  190.3420  176.3780  145.4670 C   0  0  0  0  0  2  0  0  0  0  0  0
  187.1000  177.6980  144.1820 C   0  0  0  0  0  0  0  0  0  0  0  0
  184.9430  178.1770  145.2440 C   0  0  0  0  0  3  0  0  0  0  0  0
  184.1610  178.4180  141.4930 S   0  0  0  0  0  0  0  0  0  0  0  0
  188.4620  178.6250  141.7770 C   0  0  1  0  0  0  0  0  0  0  0  0
  185.1440  178.1920  142.8400 C   0  0  0  0  0  0  0  0  0  0  0  0
  183.0650  178.6250  143.7730 N   0  0  0  0  0  0  0  0  0  0  0  0
  189.6370  177.7120  142.1380 C   0  0  2  0  0  3  0  0  0  0  0  0
  190.6180  176.2980  143.9730 C   0  0  1  0  0  3  0  0  0  0  0  0
  184.3760  178.3380  143.9820 C   0  0  0  0  0  0  0  0  0  0  0  0
  186.5040  177.8830  142.9010 C   0  0  0  0  0  0  0  0  0  0  0  0
  188.0850  179.2140  148.2770 N   0  0  0  0  0  0  0  0  0  0  0  0
  190.1440  177.0650  140.8680 C   0  0  0  0  0  2  0  0  0  0  0  0
  188.8840  179.1190  140.4040 C   0  0  1  0  0  3  0  0  0  0  0  0
  181.4440  179.0030  141.9090 C   0  0  0  0  0  1  0  0  0  0  0  0
  186.0560  179.9960  147.4090 N   0  0  0  0  0  1  0  0  0  0  0  0
  189.1560  177.3140  145.6200 C   0  0  1  0  0  3  0  0  0  0  0  0
  188.8370  176.8650  148.0940 C   0  0  0  0  0  2  0  0  0  0  0  0
  182.7960  178.7040  142.4480 C   0  0  0  0  0  0  0  0  0  0  0  0
  186.9140  177.7020  146.7260 C   0  0  2  0  0  3  0  0  0  0  0  0
  188.4990  177.3270  144.3240 N   0  0  0  0  0  0  0  0  0  0  0  0
  190.9760  174.8760  143.5930 C   0  0  0  0  0  1  0  0  0  0  0  0
  189.3320  176.7150  143.2820 C   0  0  1  0  0  3  0  0  0  0  0  0
  189.7620  178.0400  139.7720 C   0  0  0  0  0  2  0  0  0  0  0  0
  187.4720  178.6280  140.5880 C   0  0  1  0  0  3  0  0  0  0  0  0
  189.2140  178.2980  148.4550 C   0  0  0  0  0  2  0  0  0  0  0  0
  188.1890  176.8360  146.7110 C   0  0  1  0  0  3  0  0  0  0  0  0
  187.3130  177.6150  141.6760 C   0  0  1  0  0  3  0  0  0  0  0  0
  1 22  1  0  0  0  0
  2 14  2  0  0  0  0
  3 19  1  0  0  0  0
  4 23  1  0  0  0  0
  4  1  2  0  0  0  0
  5  1  1  0  0  0  0
  6 21  1  0  0  0  0
  6  8  1  0  0  0  0
  7 10  1  0  0  0  0
  8 13  2  0  0  0  0
  8 12  1  0  0  0  0
  9 12  1  0  0  0  0
 10 25  1  0  0  0  0
 11  3  1  0  0  0  0
 12  5  2  0  0  0  0
 13  4  1  0  0  0  0
 14 28  1  0  0  0  0
 15 10  1  0  0  0  0
 16 27  1  0  0  0  0
 16  7  1  0  0  0  0
 17 21  1  0  0  0  0
 18  2  1  0  0  0  0
 19 29  1  0  0  0  0
 20 28  1  0  0  0  0
 21  9  2  0  0  0  0
 22  2  1  0  0  0  0
 23 19  1  0  0  0  0
 24 11  1  0  0  0  0
 25 11  1  0  0  0  0
 25 23  1  0  0  0  0
 26 16  1  0  0  0  0
 26 15  1  0  0  0  0
 27 30  1  0  0  0  0
 27  7  1  0  0  0  0
 29 22  1  0  0  0  0
 29 20  1  0  0  0  0
 30  7  1  0  0  0  0
 30 13  1  0  0  0  0
M  END
>  <MODEL>
3

>  <REMARK>
 VINA RESULT:      -8.3      2.755      5.999
  Name = 
  0 active torsions:
  status: ('A' for Active; 'I' for Inactive)
                            x       y       z     vdW  Elec       q    Type
                         _______ _______ _______ _____ _____    ______ ____

>  <TORSDO>
F 0

$$$$
=
 OpenBabel10262421583D

 30 38  0  0  1  0  0  0  0  0999 V2000
  187.9780  177.1650  137.7320 C   0  0  0  0  0  0  0  0  0  0  0  0
  188.3050  175.1460  136.2490 C   0  0  0  0  0  0  0  0  0  0  0  0
  192.1190  176.3780  138.5790 C   0  0  0  0  0  2  0  0  0  0  0  0
  188.5370  177.3100  139.0300 C   0  0  0  0  0  0  0  0  0  0  0  0
  186.6710  177.6120  137.4690 C   0  0  0  0  0  3  0  0  0  0  0  0
  185.3180  179.0490  140.7620 S   0  0  0  0  0  0  0  0  0  0  0  0
  188.7660  176.7040  141.8730 C   0  0  1  0  0  0  0  0  0  0  0  0
  186.4560  178.3060  139.7700 C   0  0  0  0  0  0  0  0  0  0  0  0
  184.6590  178.6500  138.3440 N   0  0  0  0  0  0  0  0  0  0  0  0
  190.2890  176.7530  141.7200 C   0  0  2  0  0  3  0  0  0  0  0  0
  192.1590  176.8080  140.0370 C   0  0  1  0  0  3  0  0  0  0  0  0
  185.9230  178.1780  138.4980 C   0  0  0  0  0  0  0  0  0  0  0  0
  187.7490  177.8770  140.0730 C   0  0  0  0  0  0  0  0  0  0  0  0
  189.1370  174.2380  135.8300 N   0  0  0  0  0  0  0  0  0  0  0  0
  190.8660  177.4560  142.9290 C   0  0  0  0  0  2  0  0  0  0  0  0
  188.6250  176.5600  143.3780 C   0  0  1  0  0  3  0  0  0  0  0  0
  182.8350  179.7530  139.6480 C   0  0  0  0  0  1  0  0  0  0  0  0
  186.9090  174.8780  136.1630 N   0  0  0  0  0  1  0  0  0  0  0  0
  190.6540  176.1440  138.2550 C   0  0  1  0  0  3  0  0  0  0  0  0
  191.0240  175.8340  135.7670 C   0  0  0  0  0  2  0  0  0  0  0  0
  184.1900  179.1600  139.5070 C   0  0  0  0  0  0  0  0  0  0  0  0
  188.7760  176.5450  136.6080 C   0  0  2  0  0  3  0  0  0  0  0  0
  189.9090  176.8840  139.2580 N   0  0  0  0  0  0  0  0  0  0  0  0
  193.1800  177.9120  140.2180 C   0  0  0  0  0  1  0  0  0  0  0  0
  190.7680  177.3250  140.3630 C   0  0  1  0  0  3  0  0  0  0  0  0
  189.8440  177.2180  144.0240 C   0  0  0  0  0  2  0  0  0  0  0  0
  187.7710  177.5790  142.6720 C   0  0  1  0  0  3  0  0  0  0  0  0
  190.5950  174.3720  135.8330 C   0  0  0  0  0  2  0  0  0  0  0  0
  190.2960  176.6340  136.8460 C   0  0  1  0  0  3  0  0  0  0  0  0
  188.3700  178.1120  141.4090 C   0  0  1  0  0  3  0  0  0  0  0  0
  1  4  1  0  0  0  0
  2 22  1  0  0  0  0
  3 11  1  0  0  0  0
  4 23  1  0  0  0  0
  4 13  2  0  0  0  0
  5  1  2  0  0  0  0
  5 12  1  0  0  0  0
  7 27  1  0  0  0  0
  7 16  1  0  0  0  0
  8 13  1  0  0  0  0
  8  6  1  0  0  0  0
  9 12  1  0  0  0  0
  9 21  2  0  0  0  0
 10  7  1  0  0  0  0
 10 15  1  0  0  0  0
 11 24  1  0  0  0  0
 11 25  1  0  0  0  0
 12  8  2  0  0  0  0
 13 30  1  0  0  0  0
 14 28  1  0  0  0  0
 14  2  2  0  0  0  0
 15 26  1  0  0  0  0
 16 26  1  0  0  0  0
 18  2  1  0  0  0  0
 19  3  1  0  0  0  0
 19 23  1  0  0  0  0
 20 28  1  0  0  0  0
 20 29  1  0  0  0  0
 21 17  1  0  0  0  0
 21  6  1  0  0  0  0
 22 29  1  0  0  0  0
 22  1  1  0  0  0  0
 23 25  1  0  0  0  0
 25 10  1  0  0  0  0
 27 16  1  0  0  0  0
 29 19  1  0  0  0  0
 30  7  1  0  0  0  0
 30 27  1  0  0  0  0
M  END
>  <MODEL>
4

>  <REMARK>
 VINA RESULT:      -7.4      1.460      2.370
  Name = 
  0 active torsions:
  status: ('A' for Active; 'I' for Inactive)
                            x       y       z     vdW  Elec       q    Type
                         _______ _______ _______ _____ _____    ______ ____

>  <TORSDO>
F 0

$$$$
=
 OpenBabel10262421583D

 30 38  0  0  1  0  0  0  0  0999 V2000
  182.7480  179.2870  139.7150 C   0  0  0  0  0  0  0  0  0  0  0  0
  181.2370  181.1600  138.9460 C   0  0  0  0  0  0  0  0  0  0  0  0
  179.7570  179.0380  142.7930 C   0  0  0  0  0  2  0  0  0  0  0  0
  183.0640  179.0140  141.0730 C   0  0  0  0  0  0  0  0  0  0  0  0
  183.7340  179.1740  138.7200 C   0  0  0  0  0  3  0  0  0  0  0  0
  186.9710  178.1220  140.4970 S   0  0  0  0  0  0  0  0  0  0  0  0
  184.3650  179.5540  143.6250 C   0  0  1  0  0  0  0  0  0  0  0  0
  185.3490  178.5610  140.4040 C   0  0  0  0  0  0  0  0  0  0  0  0
  186.0490  178.6630  138.1950 N   0  0  0  0  0  0  0  0  0  0  0  0
  183.0720  179.1330  144.3280 C   0  0  2  0  0  3  0  0  0  0  0  0
  180.6370  178.6160  143.9590 C   0  0  1  0  0  3  0  0  0  0  0  0
  185.0300  178.8120  139.0800 C   0  0  0  0  0  0  0  0  0  0  0  0
  184.4000  178.6610  141.4230 C   0  0  0  0  0  0  0  0  0  0  0  0
  180.1490  181.8350  139.1800 N   0  0  0  0  0  0  0  0  0  0  0  0
  183.4380  178.3140  145.5460 C   0  0  0  0  0  2  0  0  0  0  0  0
  185.3000  179.7330  144.8090 C   0  0  1  0  0  3  0  0  0  0  0  0
  188.4690  178.0460  138.1200 C   0  0  0  0  0  1  0  0  0  0  0  0
  182.2490  181.7610  138.1450 N   0  0  0  0  0  1  0  0  0  0  0  0
  180.6970  179.6230  141.7530 C   0  0  1  0  0  3  0  0  0  0  0  0
  178.9310  179.8250  139.9470 C   0  0  0  0  0  2  0  0  0  0  0  0
  187.1850  178.2880  138.8280 C   0  0  0  0  0  0  0  0  0  0  0  0
  181.3480  179.6890  139.3100 C   0  0  2  0  0  3  0  0  0  0  0  0
  182.0100  179.0910  142.0710 N   0  0  0  0  0  0  0  0  0  0  0  0
  180.1480  177.2960  144.5190 C   0  0  0  0  0  1  0  0  0  0  0  0
  182.0390  178.4570  143.3940 C   0  0  1  0  0  3  0  0  0  0  0  0
  184.8250  178.7980  145.9210 C   0  0  0  0  0  2  0  0  0  0  0  0
  185.7910  178.9520  143.6180 C   0  0  1  0  0  3  0  0  0  0  0  0
  179.0130  181.3480  139.9640 C   0  0  0  0  0  2  0  0  0  0  0  0
  180.2860  179.2310  140.3280 C   0  0  1  0  0  3  0  0  0  0  0  0
  184.7070  178.2850  142.8340 C   0  0  1  0  0  3  0  0  0  0  0  0
  1  4  1  0  0  0  0
  2 14  2  0  0  0  0
  2 22  1  0  0  0  0
  3 11  1  0  0  0  0
  4 13  2  0  0  0  0
  4 23  1  0  0  0  0
  5 12  1  0  0  0  0
  5  1  2  0  0  0  0
  7 10  1  0  0  0  0
  7 16  1  0  0  0  0
  8  6  1  0  0  0  0
  8 13  1  0  0  0  0
  9 21  2  0  0  0  0
  9 12  1  0  0  0  0
 10 15  1  0  0  0  0
 11 24  1  0  0  0  0
 12  8  2  0  0  0  0
 13 30  1  0  0  0  0
 14 28  1  0  0  0  0
 15 26  1  0  0  0  0
 16 26  1  0  0  0  0
 17 21  1  0  0  0  0
 18  2  1  0  0  0  0
 19 23  1  0  0  0  0
 19  3  1  0  0  0  0
 20 28  1  0  0  0  0
 20 29  1  0  0  0  0
 21  6  1  0  0  0  0
 22  1  1  0  0  0  0
 22 29  1  0  0  0  0
 23 25  1  0  0  0  0
 25 11  1  0  0  0  0
 25 10  1  0  0  0  0
 27  7  1  0  0  0  0
 27 16  1  0  0  0  0
 29 19  1  0  0  0  0
 30 27  1  0  0  0  0
 30  7  1  0  0  0  0
M  END
>  <MODEL>
5

>  <REMARK>
 VINA RESULT:      -7.0      3.255      7.701
  Name = 
  0 active torsions:
  status: ('A' for Active; 'I' for Inactive)
                            x       y       z     vdW  Elec       q    Type
                         _______ _______ _______ _____ _____    ______ ____

>  <TORSDO>
F 0

$$$$
