=
 OpenBabel10262421043D

 32 34  0  0  1  0  0  0  0  0999 V2000
  186.3840  178.9160  141.5300 C   0  0  1  0  0  3  0  0  0  0  0  0
  184.1810  178.5850  140.5360 O   0  0  0  0  0  0  0  0  0  0  0  0
  187.8600  179.1580  141.2050 C   0  0  0  0  0  2  0  0  0  0  0  0
  185.5390  178.8480  140.2400 C   0  0  2  0  0  3  0  0  0  0  0  0
  183.3820  178.7610  139.3770 C   0  0  1  0  0  0  0  0  0  0  0  0
  182.0670  180.4930  138.2840 C   0  0  2  0  0  3  0  0  0  0  0  0
  181.0910  179.5480  138.9620 C   0  0  2  0  0  3  0  0  0  0  0  0
  186.1070  177.8330  139.2360 C   0  0  1  0  0  3  0  0  0  0  0  0
  181.9210  178.5560  139.7580 C   0  0  0  0  0  2  0  0  0  0  0  0
  185.2910  177.8850  137.9510 C   0  0  0  0  0  2  0  0  0  0  0  0
  187.5640  178.1550  138.9260 C   0  0  0  0  0  2  0  0  0  0  0  0
  183.4300  180.2020  138.8710 C   0  0  0  0  0  2  0  0  0  0  0  0
  183.7950  177.7710  138.2540 C   0  0  1  0  0  3  0  0  0  0  0  0
  188.3920  178.1290  140.2070 C   0  0  0  0  0  2  0  0  0  0  0  0
  181.6850  181.9310  138.5660 C   0  0  0  0  0  1  0  0  0  0  0  0
  183.4170  176.3400  138.5420 C   0  0  0  0  0  3  0  0  0  0  0  0
  183.2850  175.5240  137.6410 O   0  0  0  0  0  0  0  0  0  0  0  0
  184.8730  177.6360  142.9290 O   0  0  0  0  0  1  0  0  0  0  0  0
  186.2030  177.7410  142.5110 C   0  0  2  0  0  3  0  0  0  0  0  0
  187.1420  177.8490  143.7190 C   0  0  2  0  0  3  0  0  0  0  0  0
  189.4890  177.4520  143.8780 O   0  0  0  0  0  1  0  0  0  0  0  0
  188.3630  177.0040  143.5370 C   0  0  0  0  0  0  0  0  0  0  0  0
  188.2630  175.7290  142.9920 O   0  0  0  0  0  0  0  0  0  0  0  0
  186.4280  177.4460  145.0030 C   0  0  0  0  0  2  0  0  0  0  0  0
  187.4880  177.5910  147.1470 O   0  0  0  0  0  1  0  0  0  0  0  0
  186.8570  178.3430  146.1530 C   0  0  2  0  0  3  0  0  0  0  0  0
  185.6690  179.0430  146.7220 C   0  0  0  0  0  0  0  0  0  0  0  0
  184.3750  178.7760  146.1930 N   0  0  0  0  0  1  0  0  0  0  0  0
  185.7970  179.8420  147.6870 O   0  0  0  0  0  0  0  0  0  0  0  0
  180.2680  178.8010  137.9220 C   0  0  0  0  0  2  0  0  0  0  0  0
  181.0990  177.8160  135.7850 C   0  0  0  0  0  1  0  0  0  0  0  0
  180.7510  179.1010  136.5120 C   0  0  0  0  0  2  0  0  0  0  0  0
  1 19  1  6  0  0  0
  3  1  1  0  0  0  0
  4  2  1  1  0  0  0
  4  1  1  0  0  0  0
  5 12  1  6  0  0  0
  5  9  1  0  0  0  0
  5  2  1  0  0  0  0
  6 15  1  1  0  0  0
  6 12  1  0  0  0  0
  6  7  1  0  0  0  0
  7 30  1  6  0  0  0
  7  9  1  0  0  0  0
  8 10  1  6  0  0  0
  8  4  1  0  0  0  0
 10 13  1  0  0  0  0
 11  8  1  0  0  0  0
 11 14  1  0  0  0  0
 13 16  1  1  0  0  0
 13  5  1  0  0  0  0
 14  3  1  0  0  0  0
 17 16  2  0  0  0  0
 19 18  1  1  0  0  0
 19 20  1  0  0  0  0
 20 24  1  1  0  0  0
 22 20  1  0  0  0  0
 22 21  1  0  0  0  0
 23 22  2  0  0  0  0
 24 26  1  0  0  0  0
 26 27  1  0  0  0  0
 26 25  1  1  0  0  0
 27 29  2  0  0  0  0
 28 27  1  0  0  0  0
 31 32  1  0  0  0  0
 32 30  1  0  0  0  0
M  END
>  <MODEL>
1

>  <REMARK>
 VINA RESULT:      -5.9      0.000      0.000
  Name = 
  9 active torsions:
  status: ('A' for Active; 'I' for Inactive)
    1  A    between atoms: C_1  and  C_27
    2  A    between atoms: C_7  and  C_15
    3  A    between atoms: C_11  and  C_12
    4  A    between atoms: C_11  and  C_31
    5  A    between atoms: C_13  and  C_29
    6  A    between atoms: C_15  and  C_20
    7  A    between atoms: C_16  and  C_20
    8  A    between atoms: C_16  and  C_22
    9  A    between atoms: C_16  and  C_27
                            x       y       z     vdW  Elec       q    Type
                         _______ _______ _______ _____ _____    ______ ____

>  <TORSDO>
F 9

$$$$
=
 OpenBabel10262421043D

 32 34  0  0  1  0  0  0  0  0999 V2000
  190.3720  175.6860  138.1330 C   0  0  1  0  0  3  0  0  0  0  0  0
  192.7180  175.2350  137.6380 O   0  0  0  0  0  0  0  0  0  0  0  0
  188.9730  175.7650  137.5150 C   0  0  0  0  0  2  0  0  0  0  0  0
  191.4190  175.2690  137.0790 C   0  0  2  0  0  3  0  0  0  0  0  0
  193.6260  174.6250  136.7360 C   0  0  1  0  0  0  0  0  0  0  0  0
  194.5530  172.4290  136.2460 C   0  0  2  0  0  3  0  0  0  0  0  0
  195.6230  173.2140  136.9840 C   0  0  2  0  0  3  0  0  0  0  0  0
  191.3640  176.1650  135.8320 C   0  0  1  0  0  3  0  0  0  0  0  0
  194.9890  174.5270  137.4090 C   0  0  0  0  0  2  0  0  0  0  0  0
  192.3470  175.6420  134.7920 C   0  0  0  0  0  2  0  0  0  0  0  0
  189.9570  176.1670  135.2440 C   0  0  0  0  0  2  0  0  0  0  0  0
  193.2520  173.1720  136.4520 C   0  0  0  0  0  2  0  0  0  0  0  0
  193.7310  175.4330  135.4130 C   0  0  1  0  0  3  0  0  0  0  0  0
  188.9550  176.6660  136.2800 C   0  0  0  0  0  2  0  0  0  0  0  0
  194.4410  171.0310  136.8190 C   0  0  0  0  0  1  0  0  0  0  0  0
  194.4510  176.7490  135.5650 C   0  0  0  0  0  3  0  0  0  0  0  0
  194.8930  177.3470  134.5950 O   0  0  0  0  0  0  0  0  0  0  0  0
  192.0400  176.9440  139.3640 O   0  0  0  0  0  1  0  0  0  0  0  0
  190.7070  176.9540  138.9440 C   0  0  2  0  0  3  0  0  0  0  0  0
  189.7660  177.1380  140.1410 C   0  0  2  0  0  3  0  0  0  0  0  0
  187.9000  178.4950  140.7500 O   0  0  0  0  0  1  0  0  0  0  0  0
  188.8200  178.2770  139.9190 C   0  0  0  0  0  0  0  0  0  0  0  0
  188.9500  179.0940  138.8010 O   0  0  0  0  0  0  0  0  0  0  0  0
  190.5530  177.3700  141.4240 C   0  0  0  0  0  2  0  0  0  0  0  0
  189.0620  176.1660  142.8620 O   0  0  0  0  0  1  0  0  0  0  0  0
  190.3720  176.1990  142.3770 C   0  0  2  0  0  3  0  0  0  0  0  0
  191.3330  176.3130  143.5110 C   0  0  0  0  0  0  0  0  0  0  0  0
  191.5490  177.5790  144.1260 N   0  0  0  0  0  1  0  0  0  0  0  0
  191.9280  175.2940  143.9520 O   0  0  0  0  0  0  0  0  0  0  0  0
  196.8030  173.4960  136.0630 C   0  0  0  0  0  2  0  0  0  0  0  0
  197.9960  175.4970  135.1690 C   0  0  0  0  0  1  0  0  0  0  0  0
  197.4820  174.8100  136.4190 C   0  0  0  0  0  2  0  0  0  0  0  0
  1 19  1  6  0  0  0
  3  1  1  0  0  0  0
  4  2  1  1  0  0  0
  4  1  1  0  0  0  0
  5 12  1  6  0  0  0
  5  9  1  0  0  0  0
  5  2  1  0  0  0  0
  6 12  1  0  0  0  0
  6 15  1  1  0  0  0
  6  7  1  0  0  0  0
  7 30  1  6  0  0  0
  7  9  1  0  0  0  0
  8 10  1  6  0  0  0
  8  4  1  0  0  0  0
 10 13  1  0  0  0  0
 11  8  1  0  0  0  0
 11 14  1  0  0  0  0
 13 16  1  1  0  0  0
 13  5  1  0  0  0  0
 14  3  1  0  0  0  0
 17 16  2  0  0  0  0
 19 18  1  1  0  0  0
 19 20  1  0  0  0  0
 20 24  1  1  0  0  0
 22 20  1  0  0  0  0
 22 21  1  0  0  0  0
 23 22  2  0  0  0  0
 24 26  1  0  0  0  0
 26 25  1  1  0  0  0
 26 27  1  0  0  0  0
 27 29  2  0  0  0  0
 27 28  1  0  0  0  0
 30 32  1  0  0  0  0
 31 32  1  0  0  0  0
M  END
>  <MODEL>
2

>  <REMARK>
 VINA RESULT:      -5.8      6.617     10.193
  Name = 
  9 active torsions:
  status: ('A' for Active; 'I' for Inactive)
    1  A    between atoms: C_1  and  C_27
    2  A    between atoms: C_7  and  C_15
    3  A    between atoms: C_11  and  C_12
    4  A    between atoms: C_11  and  C_31
    5  A    between atoms: C_13  and  C_29
    6  A    between atoms: C_15  and  C_20
    7  A    between atoms: C_16  and  C_20
    8  A    between atoms: C_16  and  C_22
    9  A    between atoms: C_16  and  C_27
                            x       y       z     vdW  Elec       q    Type
                         _______ _______ _______ _____ _____    ______ ____

>  <TORSDO>
F 9

$$$$
=
 OpenBabel10262421043D

 32 34  0  0  1  0  0  0  0  0999 V2000
  184.9060  177.8510  142.5360 C   0  0  1  0  0  3  0  0  0  0  0  0
  184.0810  177.8480  140.2400 O   0  0  0  0  0  0  0  0  0  0  0  0
  184.4890  178.0420  143.9970 C   0  0  0  0  0  2  0  0  0  0  0  0
  183.6910  177.9830  141.5940 C   0  0  2  0  0  3  0  0  0  0  0  0
  182.9370  177.7320  139.4090 C   0  0  1  0  0  0  0  0  0  0  0  0
  181.5280  176.0030  138.4340 C   0  0  2  0  0  3  0  0  0  0  0  0
  182.4300  176.5250  137.3290 C   0  0  2  0  0  3  0  0  0  0  0  0
  182.9210  179.2910  141.8320 C   0  0  1  0  0  3  0  0  0  0  0  0
  183.4000  177.4980  137.9760 C   0  0  0  0  0  2  0  0  0  0  0  0
  181.6820  179.3150  140.9470 C   0  0  0  0  0  2  0  0  0  0  0  0
  182.5010  179.3980  143.2940 C   0  0  0  0  0  2  0  0  0  0  0  0
  182.1220  176.4820  139.7390 C   0  0  0  0  0  2  0  0  0  0  0  0
  182.0500  179.0030  139.4930 C   0  0  1  0  0  3  0  0  0  0  0  0
  183.7290  179.3530  144.1980 C   0  0  0  0  0  2  0  0  0  0  0  0
  181.4950  174.4890  138.4110 C   0  0  0  0  0  1  0  0  0  0  0  0
  182.6600  180.2110  138.8270 C   0  0  0  0  0  3  0  0  0  0  0  0
  181.9650  181.0580  138.2880 O   0  0  0  0  0  0  0  0  0  0  0  0
  185.8150  179.6380  141.1730 O   0  0  0  0  0  1  0  0  0  0  0  0
  186.1300  178.7180  142.1770 C   0  0  2  0  0  3  0  0  0  0  0  0
  187.3400  177.8680  141.7720 C   0  0  2  0  0  3  0  0  0  0  0  0
  188.5270  178.0320  143.8340 O   0  0  0  0  0  1  0  0  0  0  0  0
  188.0150  177.2760  142.9690 C   0  0  0  0  0  0  0  0  0  0  0  0
  188.0810  175.8960  143.1300 O   0  0  0  0  0  0  0  0  0  0  0  0
  188.3430  178.6910  140.9740 C   0  0  0  0  0  2  0  0  0  0  0  0
  190.1990  177.8580  139.7090 O   0  0  0  0  0  1  0  0  0  0  0  0
  188.8040  177.9220  139.7460 C   0  0  2  0  0  3  0  0  0  0  0  0
  188.2920  178.5830  138.5110 C   0  0  0  0  0  0  0  0  0  0  0  0
  186.9470  178.3610  138.1000 N   0  0  0  0  0  1  0  0  0  0  0  0
  189.0280  179.3610  137.8480 O   0  0  0  0  0  0  0  0  0  0  0  0
  181.6080  177.2550  136.2750 C   0  0  0  0  0  2  0  0  0  0  0  0
  179.7180  178.8450  136.6210 C   0  0  0  0  0  1  0  0  0  0  0  0
  180.1560  177.3960  136.7030 C   0  0  0  0  0  2  0  0  0  0  0  0
  1 19  1  6  0  0  0
  1  3  1  0  0  0  0
  3 14  1  0  0  0  0
  4  2  1  6  0  0  0
  4  8  1  0  0  0  0
  4  1  1  0  0  0  0
  5  9  1  6  0  0  0
  5 13  1  0  0  0  0
  5 12  1  0  0  0  0
  5  2  1  0  0  0  0
  6 15  1  1  0  0  0
  6 12  1  0  0  0  0
  7 30  1  6  0  0  0
  7  9  1  0  0  0  0
  7  6  1  0  0  0  0
  8 10  1  6  0  0  0
  8 11  1  0  0  0  0
 11 14  1  0  0  0  0
 13 16  1  1  0  0  0
 13 10  1  0  0  0  0
 17 16  2  0  0  0  0
 19 18  1  6  0  0  0
 20 24  1  1  0  0  0
 20 19  1  0  0  0  0
 20 22  1  0  0  0  0
 22 23  2  0  0  0  0
 22 21  1  0  0  0  0
 26 25  1  6  0  0  0
 26 24  1  0  0  0  0
 27 26  1  0  0  0  0
 28 27  1  0  0  0  0
 29 27  2  0  0  0  0
 30 32  1  0  0  0  0
 31 32  1  0  0  0  0
M  END
>  <MODEL>
3

>  <REMARK>
 VINA RESULT:      -5.6      2.595      4.809
  Name = 
  9 active torsions:
  status: ('A' for Active; 'I' for Inactive)
    1  A    between atoms: C_1  and  C_27
    2  A    between atoms: C_7  and  C_15
    3  A    between atoms: C_11  and  C_12
    4  A    between atoms: C_11  and  C_31
    5  A    between atoms: C_13  and  C_29
    6  A    between atoms: C_15  and  C_20
    7  A    between atoms: C_16  and  C_20
    8  A    between atoms: C_16  and  C_22
    9  A    between atoms: C_16  and  C_27
                            x       y       z     vdW  Elec       q    Type
                         _______ _______ _______ _____ _____    ______ ____

>  <TORSDO>
F 9

$$$$
=
 OpenBabel10262421043D

 32 34  0  0  1  0  0  0  0  0999 V2000
  185.3910  177.9430  142.1530 C   0  0  1  0  0  3  0  0  0  0  0  0
  184.1730  177.9830  140.0400 O   0  0  0  0  0  0  0  0  0  0  0  0
  185.2220  177.9220  143.6750 C   0  0  0  0  0  2  0  0  0  0  0  0
  184.0200  177.9230  141.4450 C   0  0  2  0  0  3  0  0  0  0  0  0
  182.9350  177.7240  139.3990 C   0  0  1  0  0  0  0  0  0  0  0  0
  181.6910  175.8510  138.4670 C   0  0  2  0  0  3  0  0  0  0  0  0
  182.2720  176.6300  137.3010 C   0  0  2  0  0  3  0  0  0  0  0  0
  183.0920  179.0330  141.9620 C   0  0  1  0  0  3  0  0  0  0  0  0
  183.1610  177.7110  137.8920 C   0  0  0  0  0  2  0  0  0  0  0  0
  181.7270  178.8980  141.3000 C   0  0  0  0  0  2  0  0  0  0  0  0
  182.9350  178.9290  143.4750 C   0  0  0  0  0  2  0  0  0  0  0  0
  182.4220  176.3180  139.7060 C   0  0  0  0  0  2  0  0  0  0  0  0
  181.8710  178.7910  139.7790 C   0  0  1  0  0  3  0  0  0  0  0  0
  184.2960  179.0400  144.1540 C   0  0  0  0  0  2  0  0  0  0  0  0
  181.9170  174.3660  138.2680 C   0  0  0  0  0  1  0  0  0  0  0  0
  182.1320  180.1460  139.1720 C   0  0  0  0  0  3  0  0  0  0  0  0
  181.2230  180.9380  138.9730 O   0  0  0  0  0  0  0  0  0  0  0  0
  185.8700  179.7240  140.5790 O   0  0  0  0  0  1  0  0  0  0  0  0
  186.3600  179.0560  141.7060 C   0  0  2  0  0  3  0  0  0  0  0  0
  187.7720  178.5200  141.4440 C   0  0  2  0  0  3  0  0  0  0  0  0
  187.4590  177.3510  139.3880 O   0  0  0  0  0  1  0  0  0  0  0  0
  188.0140  178.3120  139.9820 C   0  0  0  0  0  0  0  0  0  0  0  0
  188.8470  179.1720  139.2750 O   0  0  0  0  0  0  0  0  0  0  0  0
  188.0090  177.2150  142.1930 C   0  0  0  0  0  2  0  0  0  0  0  0
  189.6770  178.6570  143.1320 O   0  0  0  0  0  1  0  0  0  0  0  0
  189.2270  177.3340  143.0960 C   0  0  2  0  0  3  0  0  0  0  0  0
  190.3140  176.4390  142.6030 C   0  0  0  0  0  0  0  0  0  0  0  0
  191.3290  176.0060  143.5010 N   0  0  0  0  0  1  0  0  0  0  0  0
  190.3210  176.0370  141.4100 O   0  0  0  0  0  0  0  0  0  0  0  0
  181.1580  177.2790  136.4900 C   0  0  0  0  0  2  0  0  0  0  0  0
  180.5080  179.5800  135.7760 C   0  0  0  0  0  1  0  0  0  0  0  0
  181.6310  178.5620  135.8250 C   0  0  0  0  0  2  0  0  0  0  0  0
  1 19  1  1  0  0  0
  1  3  1  0  0  0  0
  3 14  1  0  0  0  0
  4  2  1  6  0  0  0
  4  8  1  0  0  0  0
  4  1  1  0  0  0  0
  5  9  1  6  0  0  0
  5 12  1  0  0  0  0
  5 13  1  0  0  0  0
  5  2  1  0  0  0  0
  6 15  1  6  0  0  0
  6 12  1  0  0  0  0
  7 30  1  1  0  0  0
  7  9  1  0  0  0  0
  7  6  1  0  0  0  0
  8 10  1  6  0  0  0
  8 11  1  0  0  0  0
 11 14  1  0  0  0  0
 13 16  1  1  0  0  0
 13 10  1  0  0  0  0
 17 16  2  0  0  0  0
 19 18  1  6  0  0  0
 20 19  1  0  0  0  0
 20 24  1  1  0  0  0
 21 22  1  0  0  0  0
 22 20  1  0  0  0  0
 23 22  2  0  0  0  0
 24 26  1  0  0  0  0
 26 25  1  6  0  0  0
 27 26  1  0  0  0  0
 27 28  1  0  0  0  0
 29 27  2  0  0  0  0
 31 32  1  0  0  0  0
 32 30  1  0  0  0  0
M  END
>  <MODEL>
4

>  <REMARK>
 VINA RESULT:      -5.4      2.578      4.476
  Name = 
  9 active torsions:
  status: ('A' for Active; 'I' for Inactive)
    1  A    between atoms: C_1  and  C_27
    2  A    between atoms: C_7  and  C_15
    3  A    between atoms: C_11  and  C_12
    4  A    between atoms: C_11  and  C_31
    5  A    between atoms: C_13  and  C_29
    6  A    between atoms: C_15  and  C_20
    7  A    between atoms: C_16  and  C_20
    8  A    between atoms: C_16  and  C_22
    9  A    between atoms: C_16  and  C_27
                            x       y       z     vdW  Elec       q    Type
                         _______ _______ _______ _____ _____    ______ ____

>  <TORSDO>
F 9

$$$$
=
 OpenBabel10262421043D

 32 34  0  0  1  0  0  0  0  0999 V2000
  189.6650  176.5580  142.0640 C   0  0  1  0  0  3  0  0  0  0  0  0
  190.0860  176.6800  139.6640 O   0  0  0  0  0  0  0  0  0  0  0  0
  188.5700  176.6540  143.1310 C   0  0  0  0  0  2  0  0  0  0  0  0
  189.0720  176.7280  140.6490 C   0  0  2  0  0  3  0  0  0  0  0  0
  189.5110  176.5960  138.3700 C   0  0  1  0  0  0  0  0  0  0  0  0
  188.8480  174.9070  136.7470 C   0  0  2  0  0  3  0  0  0  0  0  0
  190.1550  175.5090  136.2620 C   0  0  2  0  0  3  0  0  0  0  0  0
  188.2280  178.0060  140.5310 C   0  0  1  0  0  3  0  0  0  0  0  0
  190.6330  176.4570  137.3480 C   0  0  0  0  0  2  0  0  0  0  0  0
  187.5910  178.0640  139.1480 C   0  0  0  0  0  2  0  0  0  0  0  0
  187.1350  178.0180  141.5940 C   0  0  0  0  0  2  0  0  0  0  0  0
  188.6950  175.3160  138.1960 C   0  0  0  0  0  2  0  0  0  0  0  0
  188.6440  177.8460  138.0580 C   0  0  1  0  0  3  0  0  0  0  0  0
  187.7540  177.9380  142.9850 C   0  0  0  0  0  2  0  0  0  0  0  0
  188.8970  173.3970  136.6440 C   0  0  0  0  0  1  0  0  0  0  0  0
  189.4510  179.1010  137.8380 C   0  0  0  0  0  3  0  0  0  0  0  0
  188.9340  180.1200  137.4050 O   0  0  0  0  0  0  0  0  0  0  0  0
  192.0700  176.8620  142.0210 O   0  0  0  0  0  1  0  0  0  0  0  0
  190.8660  177.4640  142.3990 C   0  0  2  0  0  3  0  0  0  0  0  0
  190.8990  177.8530  143.8820 C   0  0  2  0  0  3  0  0  0  0  0  0
  192.8350  179.1690  144.3430 O   0  0  0  0  0  1  0  0  0  0  0  0
  191.6030  179.1580  144.0870 C   0  0  0  0  0  0  0  0  0  0  0  0
  190.9050  180.3570  143.9980 O   0  0  0  0  0  0  0  0  0  0  0  0
  191.5730  176.7720  144.7160 C   0  0  0  0  0  2  0  0  0  0  0  0
  189.8640  177.5330  146.2110 O   0  0  0  0  0  1  0  0  0  0  0  0
  190.7730  176.4980  145.9790 C   0  0  2  0  0  3  0  0  0  0  0  0
  191.6940  176.3570  147.1440 C   0  0  0  0  0  0  0  0  0  0  0  0
  191.5930  177.2660  148.2340 N   0  0  0  0  0  1  0  0  0  0  0  0
  192.5350  175.4210  147.1850 O   0  0  0  0  0  0  0  0  0  0  0  0
  189.9320  176.2880  134.9720 C   0  0  0  0  0  2  0  0  0  0  0  0
  187.9580  177.7650  134.5940 C   0  0  0  0  0  1  0  0  0  0  0  0
  188.4590  176.3330  134.5990 C   0  0  0  0  0  2  0  0  0  0  0  0
  1 19  1  1  0  0  0
  1  3  1  0  0  0  0
  4  2  1  6  0  0  0
  4  1  1  0  0  0  0
  5  9  1  6  0  0  0
  5  2  1  0  0  0  0
  6 15  1  1  0  0  0
  6 12  1  0  0  0  0
  7 30  1  6  0  0  0
  7  6  1  0  0  0  0
  7  9  1  0  0  0  0
  8 10  1  6  0  0  0
  8  4  1  0  0  0  0
  8 11  1  0  0  0  0
 11 14  1  0  0  0  0
 12  5  1  0  0  0  0
 13 16  1  1  0  0  0
 13  5  1  0  0  0  0
 13 10  1  0  0  0  0
 14  3  1  0  0  0  0
 17 16  2  0  0  0  0
 19 18  1  1  0  0  0
 19 20  1  0  0  0  0
 20 22  1  0  0  0  0
 20 24  1  1  0  0  0
 22 21  1  0  0  0  0
 23 22  2  0  0  0  0
 24 26  1  0  0  0  0
 26 25  1  1  0  0  0
 26 27  1  0  0  0  0
 27 29  2  0  0  0  0
 27 28  1  0  0  0  0
 31 32  1  0  0  0  0
 32 30  1  0  0  0  0
M  END
>  <MODEL>
5

>  <REMARK>
 VINA RESULT:      -5.3      4.634      6.433
  Name = 
  9 active torsions:
  status: ('A' for Active; 'I' for Inactive)
    1  A    between atoms: C_1  and  C_27
    2  A    between atoms: C_7  and  C_15
    3  A    between atoms: C_11  and  C_12
    4  A    between atoms: C_11  and  C_31
    5  A    between atoms: C_13  and  C_29
    6  A    between atoms: C_15  and  C_20
    7  A    between atoms: C_16  and  C_20
    8  A    between atoms: C_16  and  C_22
    9  A    between atoms: C_16  and  C_27
                            x       y       z     vdW  Elec       q    Type
                         _______ _______ _______ _____ _____    ______ ____

>  <TORSDO>
F 9

$$$$
=
 OpenBabel10262421043D

 32 34  0  0  1  0  0  0  0  0999 V2000
  190.1380  177.4660  138.8270 C   0  0  1  0  0  3  0  0  0  0  0  0
  190.2720  176.9700  141.2120 O   0  0  0  0  0  0  0  0  0  0  0  0
  189.4240  178.3330  137.7860 C   0  0  0  0  0  2  0  0  0  0  0  0
  189.6440  177.7970  140.2520 C   0  0  2  0  0  3  0  0  0  0  0  0
  189.9950  177.4390  142.5220 C   0  0  1  0  0  0  0  0  0  0  0  0
  190.9630  178.9100  144.2020 C   0  0  2  0  0  3  0  0  0  0  0  0
  191.2400  177.4820  144.6400 C   0  0  2  0  0  3  0  0  0  0  0  0
  188.1130  177.7260  140.3580 C   0  0  1  0  0  3  0  0  0  0  0  0
  190.7600  176.5770  143.5190 C   0  0  0  0  0  2  0  0  0  0  0  0
  187.6840  178.1590  141.7540 C   0  0  0  0  0  2  0  0  0  0  0  0
  187.4680  178.6400  139.3230 C   0  0  0  0  0  2  0  0  0  0  0  0
  190.5520  178.8440  142.7490 C   0  0  0  0  0  2  0  0  0  0  0  0
  188.4730  177.3960  142.8230 C   0  0  1  0  0  3  0  0  0  0  0  0
  187.9040  178.2350  137.9190 C   0  0  0  0  0  2  0  0  0  0  0  0
  192.2140  179.7520  144.3430 C   0  0  0  0  0  1  0  0  0  0  0  0
  187.9290  176.0000  142.9910 C   0  0  0  0  0  3  0  0  0  0  0  0
  187.1950  175.7120  143.9250 O   0  0  0  0  0  0  0  0  0  0  0  0
  191.1260  175.2680  139.0930 O   0  0  0  0  0  1  0  0  0  0  0  0
  190.1120  175.9740  138.4390 C   0  0  2  0  0  3  0  0  0  0  0  0
  190.2030  175.7710  136.9220 C   0  0  2  0  0  3  0  0  0  0  0  0
  189.0790  174.4900  135.2520 O   0  0  0  0  0  0  0  0  0  0  0  0
  189.0350  174.9890  136.4060 C   0  0  0  0  0  0  0  0  0  0  0  0
  187.9030  174.8120  137.1930 O   0  0  0  0  0  1  0  0  0  0  0  0
  191.4990  175.0660  136.5420 C   0  0  0  0  0  2  0  0  0  0  0  0
  192.9300  175.5900  134.6940 O   0  0  0  0  0  1  0  0  0  0  0  0
  192.4820  176.0530  135.9340 C   0  0  2  0  0  3  0  0  0  0  0  0
  193.6400  176.2480  136.8540 C   0  0  0  0  0  0  0  0  0  0  0  0
  194.8620  175.5630  136.6020 N   0  0  0  0  0  1  0  0  0  0  0  0
  193.5560  177.0400  137.8300 O   0  0  0  0  0  0  0  0  0  0  0  0
  190.4720  177.1600  145.9150 C   0  0  0  0  0  2  0  0  0  0  0  0
  188.1410  177.5040  146.7360 C   0  0  0  0  0  1  0  0  0  0  0  0
  189.3760  178.1820  146.1740 C   0  0  0  0  0  2  0  0  0  0  0  0
  1 19  1  6  0  0  0
  1  4  1  0  0  0  0
  2  5  1  0  0  0  0
  3 14  1  0  0  0  0
  3  1  1  0  0  0  0
  4  8  1  0  0  0  0
  4  2  1  1  0  0  0
  5 12  1  1  0  0  0
  5 13  1  0  0  0  0
  5  9  1  0  0  0  0
  6 15  1  6  0  0  0
  6  7  1  0  0  0  0
  7 30  1  1  0  0  0
  8 11  1  6  0  0  0
  8 10  1  0  0  0  0
  9  7  1  0  0  0  0
 10 13  1  0  0  0  0
 12  6  1  0  0  0  0
 13 16  1  6  0  0  0
 14 11  1  0  0  0  0
 16 17  2  0  0  0  0
 19 18  1  1  0  0  0
 20 24  1  1  0  0  0
 20 19  1  0  0  0  0
 21 22  2  0  0  0  0
 22 20  1  0  0  0  0
 22 23  1  0  0  0  0
 26 25  1  6  0  0  0
 26 24  1  0  0  0  0
 26 27  1  0  0  0  0
 27 29  2  0  0  0  0
 28 27  1  0  0  0  0
 30 32  1  0  0  0  0
 32 31  1  0  0  0  0
M  END
>  <MODEL>
6

>  <REMARK>
 VINA RESULT:      -5.2      4.857      9.196
  Name = 
  9 active torsions:
  status: ('A' for Active; 'I' for Inactive)
    1  A    between atoms: C_1  and  C_27
    2  A    between atoms: C_7  and  C_15
    3  A    between atoms: C_11  and  C_12
    4  A    between atoms: C_11  and  C_31
    5  A    between atoms: C_13  and  C_29
    6  A    between atoms: C_15  and  C_20
    7  A    between atoms: C_16  and  C_20
    8  A    between atoms: C_16  and  C_22
    9  A    between atoms: C_16  and  C_27
                            x       y       z     vdW  Elec       q    Type
                         _______ _______ _______ _____ _____    ______ ____

>  <TORSDO>
F 9

$$$$
=
 OpenBabel10262421043D

 32 34  0  0  1  0  0  0  0  0999 V2000
  182.6010  176.2780  137.1180 C   0  0  1  0  0  3  0  0  0  0  0  0
  182.9530  177.0480  139.4060 O   0  0  0  0  0  0  0  0  0  0  0  0
  182.4440  176.7480  135.6690 C   0  0  0  0  0  2  0  0  0  0  0  0
  182.8480  177.4740  138.0610 C   0  0  2  0  0  3  0  0  0  0  0  0
  183.4140  178.1100  140.2250 C   0  0  1  0  0  0  0  0  0  0  0  0
  185.5050  179.0030  141.0930 C   0  0  2  0  0  3  0  0  0  0  0  0
  184.8280  178.2580  142.2290 C   0  0  2  0  0  3  0  0  0  0  0  0
  181.7780  178.5650  137.8960 C   0  0  1  0  0  3  0  0  0  0  0  0
  183.5980  177.5860  141.6440 C   0  0  0  0  0  2  0  0  0  0  0  0
  182.1330  179.7560  138.7760 C   0  0  0  0  0  2  0  0  0  0  0  0
  181.7030  179.0150  136.4410 C   0  0  0  0  0  2  0  0  0  0  0  0
  184.8130  178.5710  139.8200 C   0  0  0  0  0  2  0  0  0  0  0  0
  182.4190  179.3020  140.2110 C   0  0  1  0  0  3  0  0  0  0  0  0
  181.3710  177.8290  135.5410 C   0  0  0  0  0  2  0  0  0  0  0  0
  186.9730  178.6340  141.0280 C   0  0  0  0  0  1  0  0  0  0  0  0
  181.1330  179.0250  140.9480 C   0  0  0  0  0  3  0  0  0  0  0  0
  180.7790  179.7170  141.8910 O   0  0  0  0  0  0  0  0  0  0  0  0
  181.6360  174.8780  138.8460 O   0  0  0  0  0  1  0  0  0  0  0  0
  181.4640  175.3230  137.5320 C   0  0  2  0  0  3  0  0  0  0  0  0
  181.3310  174.1340  136.5720 C   0  0  2  0  0  3  0  0  0  0  0  0
  179.1570  174.9490  136.0240 O   0  0  0  0  0  1  0  0  0  0  0  0
  179.9140  173.9490  136.1270 C   0  0  0  0  0  0  0  0  0  0  0  0
  179.4290  172.6810  135.8280 O   0  0  0  0  0  0  0  0  0  0  0  0
  181.8360  172.8510  137.2180 C   0  0  0  0  0  2  0  0  0  0  0  0
  183.1540  170.9190  136.7000 O   0  0  0  0  0  1  0  0  0  0  0  0
  183.0020  172.2800  136.4270 C   0  0  2  0  0  3  0  0  0  0  0  0
  184.2560  173.0120  136.7700 C   0  0  0  0  0  0  0  0  0  0  0  0
  185.0150  173.6300  135.7370 N   0  0  0  0  0  1  0  0  0  0  0  0
  184.6280  173.1170  137.9680 O   0  0  0  0  0  0  0  0  0  0  0  0
  184.4020  179.2310  143.3210 C   0  0  0  0  0  2  0  0  0  0  0  0
  186.0550  177.8780  144.6100 C   0  0  0  0  0  1  0  0  0  0  0  0
  184.8020  178.7270  144.6990 C   0  0  0  0  0  2  0  0  0  0  0  0
  1 19  1  1  0  0  0
  1  4  1  0  0  0  0
  2  5  1  0  0  0  0
  3  1  1  0  0  0  0
  4  2  1  1  0  0  0
  5 12  1  6  0  0  0
  5  9  1  0  0  0  0
  6 15  1  6  0  0  0
  6  7  1  0  0  0  0
  7 30  1  1  0  0  0
  8 11  1  6  0  0  0
  8  4  1  0  0  0  0
  8 10  1  0  0  0  0
  9  7  1  0  0  0  0
 10 13  1  0  0  0  0
 12  6  1  0  0  0  0
 13  5  1  0  0  0  0
 13 16  1  6  0  0  0
 14  3  1  0  0  0  0
 14 11  1  0  0  0  0
 16 17  2  0  0  0  0
 19 18  1  1  0  0  0
 20 24  1  1  0  0  0
 20 19  1  0  0  0  0
 21 22  1  0  0  0  0
 22 20  1  0  0  0  0
 23 22  2  0  0  0  0
 26 25  1  1  0  0  0
 26 27  1  0  0  0  0
 26 24  1  0  0  0  0
 27 29  2  0  0  0  0
 28 27  1  0  0  0  0
 30 32  1  0  0  0  0
 31 32  1  0  0  0  0
M  END
>  <MODEL>
7

>  <REMARK>
 VINA RESULT:      -4.9      3.786      8.202
  Name = 
  9 active torsions:
  status: ('A' for Active; 'I' for Inactive)
    1  A    between atoms: C_1  and  C_27
    2  A    between atoms: C_7  and  C_15
    3  A    between atoms: C_11  and  C_12
    4  A    between atoms: C_11  and  C_31
    5  A    between atoms: C_13  and  C_29
    6  A    between atoms: C_15  and  C_20
    7  A    between atoms: C_16  and  C_20
    8  A    between atoms: C_16  and  C_22
    9  A    between atoms: C_16  and  C_27
                            x       y       z     vdW  Elec       q    Type
                         _______ _______ _______ _____ _____    ______ ____

>  <TORSDO>
F 9

$$$$
=
 OpenBabel10262421043D

 32 34  0  0  1  0  0  0  0  0999 V2000
  188.9020  177.1600  138.7820 C   0  0  1  0  0  3  0  0  0  0  0  0
  188.6960  175.0240  137.6210 O   0  0  0  0  0  0  0  0  0  0  0  0
  188.5680  178.6510  138.6910 C   0  0  0  0  0  2  0  0  0  0  0  0
  188.3540  176.3960  137.5590 C   0  0  2  0  0  3  0  0  0  0  0  0
  187.9910  174.2960  136.6290 C   0  0  1  0  0  0  0  0  0  0  0  0
  185.9240  173.0360  136.3790 C   0  0  2  0  0  3  0  0  0  0  0  0
  187.0550  172.0280  136.4890 C   0  0  2  0  0  3  0  0  0  0  0  0
  188.8060  177.0320  136.2360 C   0  0  1  0  0  3  0  0  0  0  0  0
  188.3190  172.8170  136.7870 C   0  0  0  0  0  2  0  0  0  0  0  0
  188.1530  176.2970  135.0730 C   0  0  0  0  0  2  0  0  0  0  0  0
  188.4070  178.5030  136.1940 C   0  0  0  0  0  2  0  0  0  0  0  0
  186.4800  174.3620  136.8450 C   0  0  0  0  0  2  0  0  0  0  0  0
  188.3630  174.7850  135.2020 C   0  0  1  0  0  3  0  0  0  0  0  0
  189.0350  179.2520  137.3650 C   0  0  0  0  0  2  0  0  0  0  0  0
  184.7690  172.6240  137.2680 C   0  0  0  0  0  1  0  0  0  0  0  0
  189.7590  174.4040  134.7780 C   0  0  0  0  0  3  0  0  0  0  0  0
  190.7270  174.6560  135.4790 O   0  0  0  0  0  0  0  0  0  0  0  0
  190.7080  175.5680  139.0760 O   0  0  0  0  0  1  0  0  0  0  0  0
  190.3930  176.9300  139.1020 C   0  0  2  0  0  3  0  0  0  0  0  0
  190.7980  177.5530  140.4440 C   0  0  2  0  0  3  0  0  0  0  0  0
  192.6760  177.1160  141.8490 O   0  0  0  0  0  1  0  0  0  0  0  0
  192.2660  177.3990  140.6940 C   0  0  0  0  0  0  0  0  0  0  0  0
  193.1790  177.5690  139.6590 O   0  0  0  0  0  0  0  0  0  0  0  0
  190.0150  176.9310  141.5930 C   0  0  0  0  0  2  0  0  0  0  0  0
  190.0510  178.5290  143.3770 O   0  0  0  0  0  1  0  0  0  0  0  0
  189.2540  178.0020  142.3580 C   0  0  2  0  0  3  0  0  0  0  0  0
  188.0060  177.4240  142.9340 C   0  0  0  0  0  0  0  0  0  0  0  0
  186.7410  177.8410  142.4320 N   0  0  0  0  0  1  0  0  0  0  0  0
  188.0620  176.5460  143.8350 O   0  0  0  0  0  0  0  0  0  0  0  0
  187.2250  171.2760  135.1760 C   0  0  0  0  0  2  0  0  0  0  0  0
  189.3290  170.0460  134.6410 C   0  0  0  0  0  1  0  0  0  0  0  0
  188.0020  169.9840  135.3740 C   0  0  0  0  0  2  0  0  0  0  0  0
  1 19  1  6  0  0  0
  3  1  1  0  0  0  0
  4  2  1  6  0  0  0
  4  1  1  0  0  0  0
  5  9  1  1  0  0  0
  5 12  1  0  0  0  0
  5  2  1  0  0  0  0
  6  7  1  0  0  0  0
  6 12  1  0  0  0  0
  6 15  1  1  0  0  0
  7 30  1  6  0  0  0
  7  9  1  0  0  0  0
  8 10  1  6  0  0  0
  8  4  1  0  0  0  0
 10 13  1  0  0  0  0
 11  8  1  0  0  0  0
 11 14  1  0  0  0  0
 13 16  1  1  0  0  0
 13  5  1  0  0  0  0
 14  3  1  0  0  0  0
 16 17  2  0  0  0  0
 19 18  1  1  0  0  0
 19 20  1  0  0  0  0
 20 22  1  0  0  0  0
 20 24  1  1  0  0  0
 22 21  1  0  0  0  0
 23 22  2  0  0  0  0
 24 26  1  0  0  0  0
 26 27  1  0  0  0  0
 26 25  1  1  0  0  0
 27 29  2  0  0  0  0
 28 27  1  0  0  0  0
 30 32  1  0  0  0  0
 31 32  1  0  0  0  0
M  END
>  <MODEL>
8

>  <REMARK>
 VINA RESULT:      -4.9      4.638      6.734
  Name = 
  9 active torsions:
  status: ('A' for Active; 'I' for Inactive)
    1  A    between atoms: C_1  and  C_27
    2  A    between atoms: C_7  and  C_15
    3  A    between atoms: C_11  and  C_12
    4  A    between atoms: C_11  and  C_31
    5  A    between atoms: C_13  and  C_29
    6  A    between atoms: C_15  and  C_20
    7  A    between atoms: C_16  and  C_20
    8  A    between atoms: C_16  and  C_22
    9  A    between atoms: C_16  and  C_27
                            x       y       z     vdW  Elec       q    Type
                         _______ _______ _______ _____ _____    ______ ____

>  <TORSDO>
F 9

$$$$
=
 OpenBabel10262421043D

 32 34  0  0  1  0  0  0  0  0999 V2000
  187.1720  178.2620  137.0980 C   0  0  1  0  0  3  0  0  0  0  0  0
  185.2120  177.5240  138.3500 O   0  0  0  0  0  0  0  0  0  0  0  0
  187.6790  178.6190  135.6980 C   0  0  0  0  0  2  0  0  0  0  0  0
  185.6740  177.8930  137.0650 C   0  0  2  0  0  3  0  0  0  0  0  0
  183.7980  177.4210  138.3540 C   0  0  1  0  0  0  0  0  0  0  0  0
  181.8450  178.7940  138.8300 C   0  0  2  0  0  3  0  0  0  0  0  0
  182.0390  177.8620  140.0130 C   0  0  2  0  0  3  0  0  0  0  0  0
  185.3750  176.8040  136.0220 C   0  0  1  0  0  3  0  0  0  0  0  0
  183.3370  177.1110  139.7730 C   0  0  0  0  0  2  0  0  0  0  0  0
  183.8730  176.5580  135.9670 C   0  0  0  0  0  2  0  0  0  0  0  0
  185.8680  177.2400  134.6470 C   0  0  0  0  0  2  0  0  0  0  0  0
  183.1330  178.7600  138.0370 C   0  0  0  0  0  2  0  0  0  0  0  0
  183.3120  176.3210  137.3720 C   0  0  1  0  0  3  0  0  0  0  0  0
  187.3680  177.5130  134.6890 C   0  0  0  0  0  2  0  0  0  0  0  0
  181.5800  180.2050  139.3140 C   0  0  0  0  0  1  0  0  0  0  0  0
  183.6160  174.9190  137.8370 C   0  0  0  0  0  3  0  0  0  0  0  0
  183.6160  173.9770  137.0590 O   0  0  0  0  0  0  0  0  0  0  0  0
  187.3880  176.1000  138.1750 O   0  0  0  0  0  1  0  0  0  0  0  0
  188.0970  177.2440  137.7950 C   0  0  2  0  0  3  0  0  0  0  0  0
  188.8230  177.8540  139.0000 C   0  0  2  0  0  3  0  0  0  0  0  0
  190.8310  177.0980  137.9580 O   0  0  0  0  0  0  0  0  0  0  0  0
  190.2660  177.4600  139.0220 C   0  0  0  0  0  0  0  0  0  0  0  0
  190.9870  177.4910  140.2110 O   0  0  0  0  0  1  0  0  0  0  0  0
  188.1580  177.4390  140.3060 C   0  0  0  0  0  2  0  0  0  0  0  0
  188.7800  178.5970  142.3090 O   0  0  0  0  0  1  0  0  0  0  0  0
  187.9350  178.6500  141.1970 C   0  0  2  0  0  3  0  0  0  0  0  0
  186.5120  178.7000  141.6400 C   0  0  0  0  0  0  0  0  0  0  0  0
  186.1160  178.0020  142.8160 N   0  0  0  0  0  1  0  0  0  0  0  0
  185.6660  179.3820  141.0030 O   0  0  0  0  0  0  0  0  0  0  0  0
  180.8880  176.8690  140.0990 C   0  0  0  0  0  2  0  0  0  0  0  0
  180.1360  178.0020  142.1910 C   0  0  0  0  0  1  0  0  0  0  0  0
  179.7000  177.4600  140.8430 C   0  0  0  0  0  2  0  0  0  0  0  0
  1 19  1  6  0  0  0
  2  5  1  0  0  0  0
  3  1  1  0  0  0  0
  4  1  1  0  0  0  0
  4  2  1  1  0  0  0
  5 12  1  6  0  0  0
  5  9  1  0  0  0  0
  6 15  1  1  0  0  0
  6  7  1  0  0  0  0
  7 30  1  6  0  0  0
  8 11  1  6  0  0  0
  8  4  1  0  0  0  0
  9  7  1  0  0  0  0
 10  8  1  0  0  0  0
 10 13  1  0  0  0  0
 11 14  1  0  0  0  0
 12  6  1  0  0  0  0
 13 16  1  1  0  0  0
 13  5  1  0  0  0  0
 14  3  1  0  0  0  0
 17 16  2  0  0  0  0
 19 18  1  1  0  0  0
 19 20  1  0  0  0  0
 20 22  1  0  0  0  0
 20 24  1  1  0  0  0
 21 22  2  0  0  0  0
 22 23  1  0  0  0  0
 24 26  1  0  0  0  0
 26 27  1  0  0  0  0
 26 25  1  1  0  0  0
 27 28  1  0  0  0  0
 29 27  2  0  0  0  0
 30 32  1  0  0  0  0
 32 31  1  0  0  0  0
M  END
>  <MODEL>
9

>  <REMARK>
 VINA RESULT:      -4.8      2.657      4.227
  Name = 
  9 active torsions:
  status: ('A' for Active; 'I' for Inactive)
    1  A    between atoms: C_1  and  C_27
    2  A    between atoms: C_7  and  C_15
    3  A    between atoms: C_11  and  C_12
    4  A    between atoms: C_11  and  C_31
    5  A    between atoms: C_13  and  C_29
    6  A    between atoms: C_15  and  C_20
    7  A    between atoms: C_16  and  C_20
    8  A    between atoms: C_16  and  C_22
    9  A    between atoms: C_16  and  C_27
                            x       y       z     vdW  Elec       q    Type
                         _______ _______ _______ _____ _____    ______ ____

>  <TORSDO>
F 9

$$$$
