=
 OpenBabel10262421433D

 30 34  0  0  1  0  0  0  0  0999 V2000
  186.4060  175.3900  136.7400 C   0  0  0  0  0  0  0  0  0  0  0  0
  186.0750  173.1820  135.4700 C   0  0  0  0  0  0  0  0  0  0  0  0
  183.5270  174.5770  137.6890 C   0  0  1  0  0  3  0  0  0  0  0  0
  185.9410  176.8280  136.5290 C   0  0  2  0  0  3  0  0  0  0  0  0
  187.6340  175.1180  137.2140 C   0  0  0  0  0  3  0  0  0  0  0  0
  190.1510  177.6540  138.1590 N   0  0  0  0  0  0  0  0  0  0  0  0
  188.8780  177.3440  137.8580 C   0  0  0  0  0  0  0  0  0  0  0  0
  190.0050  175.4400  137.7460 N   0  0  0  0  0  2  0  0  0  0  0  0
  182.6870  175.8640  137.7000 C   0  0  2  0  0  3  0  0  0  0  0  0
  188.7820  175.9800  137.5920 C   0  0  0  0  0  0  0  0  0  0  0  0
  187.8000  178.3730  137.8680 C   0  0  0  0  0  2  0  0  0  0  0  0
  185.5420  171.9560  135.3050 C   0  0  0  0  0  3  0  0  0  0  0  0
  192.2520  176.3320  138.3440 C   0  0  0  0  0  1  0  0  0  0  0  0
  187.1510  173.5220  134.7110 F   0  0  0  0  0  0  0  0  0  0  0  0
  183.0890  173.4000  136.8190 C   0  0  2  0  0  3  0  0  0  0  0  0
  184.3090  171.3750  135.9740 C   0  0  0  0  0  2  0  0  0  0  0  0
  190.7960  176.4760  138.0800 C   0  0  0  0  0  0  0  0  0  0  0  0
  185.5490  174.1570  136.4930 C   0  0  2  0  0  3  0  0  0  0  0  0
  184.4540  177.1740  136.3240 C   0  0  0  0  0  2  0  0  0  0  0  0
  181.5290  175.9090  136.7060 C   0  0  0  0  0  1  0  0  0  0  0  0
  183.5710  177.1220  137.5920 C   0  0  2  0  0  3  0  0  0  0  0  0
  186.9600  177.6760  135.2870 S   0  0  0  0  0  0  0  0  0  0  0  0
  183.8070  172.1100  137.2190 C   0  0  0  0  0  2  0  0  0  0  0  0
  184.0780  174.4280  136.2880 C   0  0  2  0  0  3  0  0  0  0  0  0
  187.5560  178.9390  136.4700 C   0  0  0  0  0  2  0  0  0  0  0  0
  184.3470  177.3240  138.8100 N   0  0  0  0  0  2  0  0  0  0  0  0
  184.3230  178.7480  139.1060 C   0  0  1  0  0  3  0  0  0  0  0  0
  182.8890  179.2340  139.0990 C   0  0  0  0  0  1  0  0  0  0  0  0
  184.9310  179.0030  140.4740 C   0  0  0  0  0  2  0  0  0  0  0  0
  184.1580  178.2540  141.5430 C   0  0  0  0  0  1  0  0  0  0  0  0
  1  5  2  0  0  0  0
  2 18  1  0  0  0  0
  3  9  1  0  0  0  0
  4  1  1  0  0  0  0
  5 10  1  0  0  0  0
  7 11  1  0  0  0  0
  7  6  1  0  0  0  0
  8 17  1  0  0  0  0
 10  8  1  0  0  0  0
 10  7  2  0  0  0  0
 12  2  2  0  0  0  0
 12 16  1  0  0  0  0
 14  2  1  0  0  0  0
 15 23  1  0  0  0  0
 15  3  1  0  0  0  0
 16 23  1  0  0  0  0
 17  6  2  0  0  0  0
 17 13  1  0  0  0  0
 18  1  1  0  0  0  0
 19  4  1  0  0  0  0
 19 21  1  0  0  0  0
 20  9  1  0  0  0  0
 21  9  1  0  0  0  0
 21 26  1  0  0  0  0
 22 25  1  0  0  0  0
 22  4  1  0  0  0  0
 24 18  1  0  0  0  0
 24 15  1  0  0  0  0
 24  3  1  0  0  0  0
 25 11  1  0  0  0  0
 26 27  1  0  0  0  0
 27 29  1  0  0  0  0
 28 27  1  0  0  0  0
 29 30  1  0  0  0  0
M  END
>  <MODEL>
1

>  <REMARK>
 VINA RESULT:      -5.5      0.000      0.000
  Name = 
  3 active torsions:
  status: ('A' for Active; 'I' for Inactive)
    1  A    between atoms: C_7  and  N_10
    2  A    between atoms: C_7  and  C_15
    3  A    between atoms: N_10  and  C_25
                            x       y       z     vdW  Elec       q    Type
                         _______ _______ _______ _____ _____    ______ ____

>  <TORSDO>
F 3

$$$$
=
 OpenBabel10262421433D

 30 34  0  0  1  0  0  0  0  0999 V2000
  188.2320  177.9460  143.7290 C   0  0  0  0  0  0  0  0  0  0  0  0
  185.9700  179.1630  143.6520 C   0  0  0  0  0  0  0  0  0  0  0  0
  187.0140  177.1280  146.5030 C   0  0  1  0  0  3  0  0  0  0  0  0
  189.5780  178.2260  144.3900 C   0  0  2  0  0  3  0  0  0  0  0  0
  188.1590  177.4000  142.5030 C   0  0  0  0  0  3  0  0  0  0  0  0
  191.0660  176.4020  140.4520 N   0  0  0  0  0  0  0  0  0  0  0  0
  190.5610  176.7600  141.6450 C   0  0  0  0  0  0  0  0  0  0  0  0
  188.8470  176.7530  140.2410 N   0  0  0  0  0  2  0  0  0  0  0  0
  188.1590  177.2010  147.5250 C   0  0  2  0  0  3  0  0  0  0  0  0
  189.1920  176.9880  141.5200 C   0  0  0  0  0  0  0  0  0  0  0  0
  191.4160  176.8400  142.8630 C   0  0  0  0  0  2  0  0  0  0  0  0
  184.6750  179.3190  143.9850 C   0  0  0  0  0  3  0  0  0  0  0  0
  190.0810  176.0650  138.1900 C   0  0  0  0  0  1  0  0  0  0  0  0
  186.4520  179.8740  142.5980 F   0  0  0  0  0  0  0  0  0  0  0  0
  185.7650  177.9820  146.7100 C   0  0  2  0  0  3  0  0  0  0  0  0
  183.9300  178.6990  145.1530 C   0  0  0  0  0  2  0  0  0  0  0  0
  189.9980  176.4100  139.6340 C   0  0  0  0  0  0  0  0  0  0  0  0
  186.8770  178.2010  144.3760 C   0  0  2  0  0  3  0  0  0  0  0  0
  189.6900  178.5210  145.8980 C   0  0  0  0  0  2  0  0  0  0  0  0
  188.0060  178.2560  148.6180 C   0  0  0  0  0  1  0  0  0  0  0  0
  189.5330  177.3010  146.8340 C   0  0  2  0  0  3  0  0  0  0  0  0
  190.5410  179.4390  143.4410 S   0  0  0  0  0  0  0  0  0  0  0  0
  184.6080  177.5050  145.8300 C   0  0  0  0  0  2  0  0  0  0  0  0
  186.9180  178.4920  145.8560 C   0  0  2  0  0  3  0  0  0  0  0  0
  191.9060  178.2660  143.1090 C   0  0  0  0  0  2  0  0  0  0  0  0
  189.8780  176.0500  146.1690 N   0  0  0  0  0  2  0  0  0  0  0  0
  191.0490  175.5110  146.8420 C   0  0  1  0  0  3  0  0  0  0  0  0
  192.0560  175.0590  145.8040 C   0  0  0  0  0  1  0  0  0  0  0  0
  191.6810  176.5780  147.7190 C   0  0  0  0  0  2  0  0  0  0  0  0
  192.8540  176.0030  148.4900 C   0  0  0  0  0  1  0  0  0  0  0  0
  1 18  1  0  0  0  0
  1  4  1  0  0  0  0
  2 12  2  0  0  0  0
  2 18  1  0  0  0  0
  3 15  1  0  0  0  0
  3  9  1  0  0  0  0
  4 19  1  0  0  0  0
  5  1  2  0  0  0  0
  6  7  1  0  0  0  0
  7 11  1  0  0  0  0
  8 10  1  0  0  0  0
  9 20  1  0  0  0  0
 10  7  2  0  0  0  0
 10  5  1  0  0  0  0
 11 25  1  0  0  0  0
 12 16  1  0  0  0  0
 13 17  1  0  0  0  0
 14  2  1  0  0  0  0
 16 23  1  0  0  0  0
 17  8  1  0  0  0  0
 17  6  2  0  0  0  0
 18 24  1  0  0  0  0
 19 21  1  0  0  0  0
 21  9  1  0  0  0  0
 22  4  1  0  0  0  0
 23 15  1  0  0  0  0
 24  3  1  0  0  0  0
 24 15  1  0  0  0  0
 25 22  1  0  0  0  0
 26 21  1  0  0  0  0
 26 27  1  0  0  0  0
 27 29  1  0  0  0  0
 28 27  1  0  0  0  0
 29 30  1  0  0  0  0
M  END
>  <MODEL>
2

>  <REMARK>
 VINA RESULT:      -5.4      6.118      9.223
  Name = 
  3 active torsions:
  status: ('A' for Active; 'I' for Inactive)
    1  A    between atoms: C_7  and  N_10
    2  A    between atoms: C_7  and  C_15
    3  A    between atoms: N_10  and  C_25
                            x       y       z     vdW  Elec       q    Type
                         _______ _______ _______ _____ _____    ______ ____

>  <TORSDO>
F 3

$$$$
=
 OpenBabel10262421433D

 30 34  0  0  1  0  0  0  0  0999 V2000
  187.6560  177.6150  139.2330 C   0  0  0  0  0  0  0  0  0  0  0  0
  186.3800  178.6260  141.2200 C   0  0  0  0  0  0  0  0  0  0  0  0
  189.3980  176.6080  141.6420 C   0  0  1  0  0  3  0  0  0  0  0  0
  188.9190  177.9940  138.4660 C   0  0  2  0  0  3  0  0  0  0  0  0
  186.5860  177.1010  138.6030 C   0  0  0  0  0  3  0  0  0  0  0  0
  186.3850  176.4270  134.9750 N   0  0  0  0  0  0  0  0  0  0  0  0
  187.1290  176.7040  136.0600 C   0  0  0  0  0  0  0  0  0  0  0  0
  185.0350  176.5850  136.7760 N   0  0  0  0  0  2  0  0  0  0  0  0
  190.8670  176.7530  141.2150 C   0  0  2  0  0  3  0  0  0  0  0  0
  186.3000  176.8120  137.1750 C   0  0  0  0  0  0  0  0  0  0  0  0
  188.6120  176.8230  135.9810 C   0  0  0  0  0  2  0  0  0  0  0  0
  185.9810  178.6550  142.5060 C   0  0  0  0  0  3  0  0  0  0  0  0
  183.9510  176.0710  134.5940 C   0  0  0  0  0  1  0  0  0  0  0  0
  185.7190  179.4090  140.3250 F   0  0  0  0  0  0  0  0  0  0  0  0
  188.9010  177.3410  142.8870 C   0  0  2  0  0  3  0  0  0  0  0  0
  186.5980  177.9360  143.6920 C   0  0  0  0  0  2  0  0  0  0  0  0
  185.1290  176.3650  135.4520 C   0  0  0  0  0  0  0  0  0  0  0  0
  187.4920  177.7280  140.7420 C   0  0  2  0  0  3  0  0  0  0  0  0
  190.2550  178.2520  139.1870 C   0  0  0  0  0  2  0  0  0  0  0  0
  191.6940  177.7570  142.0130 C   0  0  0  0  0  1  0  0  0  0  0  0
  190.9970  176.9960  139.6980 C   0  0  2  0  0  3  0  0  0  0  0  0
  188.5890  179.3160  137.2630 S   0  0  0  0  0  0  0  0  0  0  0  0
  187.5560  176.7890  143.3630 C   0  0  0  0  0  2  0  0  0  0  0  0
  188.7670  177.9770  141.5100 C   0  0  2  0  0  3  0  0  0  0  0  0
  189.0470  178.2790  135.8260 C   0  0  0  0  0  2  0  0  0  0  0  0
  190.6380  175.8010  138.9430 N   0  0  0  0  0  2  0  0  0  0  0  0
  191.5420  175.7210  137.8070 C   0  0  1  0  0  3  0  0  0  0  0  0
  192.9490  176.0390  138.2660 C   0  0  0  0  0  1  0  0  0  0  0  0
  191.5130  174.3200  137.2190 C   0  0  0  0  0  2  0  0  0  0  0  0
  190.0960  173.7770  137.2180 C   0  0  0  0  0  1  0  0  0  0  0  0
  1 18  1  0  0  0  0
  2 12  2  0  0  0  0
  3 15  1  0  0  0  0
  4 19  1  0  0  0  0
  4  1  1  0  0  0  0
  5  1  2  0  0  0  0
  6 17  2  0  0  0  0
  6  7  1  0  0  0  0
  7 10  2  0  0  0  0
  8 10  1  0  0  0  0
  9  3  1  0  0  0  0
  9 20  1  0  0  0  0
 10  5  1  0  0  0  0
 11  7  1  0  0  0  0
 12 16  1  0  0  0  0
 13 17  1  0  0  0  0
 14  2  1  0  0  0  0
 15 23  1  0  0  0  0
 17  8  1  0  0  0  0
 18  2  1  0  0  0  0
 18 24  1  0  0  0  0
 19 21  1  0  0  0  0
 21  9  1  0  0  0  0
 22  4  1  0  0  0  0
 23 16  1  0  0  0  0
 24  3  1  0  0  0  0
 24 15  1  0  0  0  0
 25 11  1  0  0  0  0
 25 22  1  0  0  0  0
 26 21  1  0  0  0  0
 27 28  1  0  0  0  0
 27 26  1  0  0  0  0
 29 27  1  0  0  0  0
 30 29  1  0  0  0  0
M  END
>  <MODEL>
3

>  <REMARK>
 VINA RESULT:      -5.4      3.069      7.239
  Name = 
  3 active torsions:
  status: ('A' for Active; 'I' for Inactive)
    1  A    between atoms: C_7  and  N_10
    2  A    between atoms: C_7  and  C_15
    3  A    between atoms: N_10  and  C_25
                            x       y       z     vdW  Elec       q    Type
                         _______ _______ _______ _____ _____    ______ ____

>  <TORSDO>
F 3

$$$$
=
 OpenBabel10262421433D

 30 34  0  0  1  0  0  0  0  0999 V2000
  183.4670  177.5960  138.9450 C   0  0  0  0  0  0  0  0  0  0  0  0
  185.5800  177.7540  137.4930 C   0  0  0  0  0  0  0  0  0  0  0  0
  183.0500  175.1610  137.0100 C   0  0  1  0  0  3  0  0  0  0  0  0
  182.0070  178.0030  138.7630 C   0  0  2  0  0  3  0  0  0  0  0  0
  184.0820  177.7220  140.1340 C   0  0  0  0  0  3  0  0  0  0  0  0
  182.4920  178.9980  143.2170 N   0  0  0  0  0  0  0  0  0  0  0  0
  182.3720  178.5220  141.9650 C   0  0  0  0  0  0  0  0  0  0  0  0
  184.5450  178.5490  142.3940 N   0  0  0  0  0  2  0  0  0  0  0  0
  181.5630  175.1570  136.6210 C   0  0  2  0  0  3  0  0  0  0  0  0
  183.6370  178.2520  141.4470 C   0  0  0  0  0  0  0  0  0  0  0  0
  181.0390  178.3200  141.3320 C   0  0  0  0  0  2  0  0  0  0  0  0
  186.5460  177.2350  136.7130 C   0  0  0  0  0  3  0  0  0  0  0  0
  184.4300  179.4460  144.7150 C   0  0  0  0  0  1  0  0  0  0  0  0
  185.7630  179.0040  137.9960 F   0  0  0  0  0  0  0  0  0  0  0  0
  184.1130  175.2740  135.9180 C   0  0  2  0  0  3  0  0  0  0  0  0
  186.5420  175.9040  135.9820 C   0  0  0  0  0  2  0  0  0  0  0  0
  183.8200  178.9980  143.4350 C   0  0  0  0  0  0  0  0  0  0  0  0
  184.3380  176.9820  137.8580 C   0  0  2  0  0  3  0  0  0  0  0  0
  181.1920  177.5560  137.5360 C   0  0  0  0  0  2  0  0  0  0  0  0
  181.2620  175.4140  135.1460 C   0  0  0  0  0  1  0  0  0  0  0  0
  180.7330  176.0800  137.5340 C   0  0  2  0  0  3  0  0  0  0  0  0
  181.7770  179.7810  139.0570 S   0  0  0  0  0  0  0  0  0  0  0  0
  185.4960  174.8850  136.4400 C   0  0  0  0  0  2  0  0  0  0  0  0
  183.5970  176.5190  136.6280 C   0  0  2  0  0  3  0  0  0  0  0  0
  180.6430  179.5180  140.4690 C   0  0  0  0  0  2  0  0  0  0  0  0
  180.6370  175.5340  138.8830 N   0  0  0  0  0  2  0  0  0  0  0  0
  179.2350  175.2340  139.1280 C   0  0  1  0  0  3  0  0  0  0  0  0
  178.9410  173.8200  138.6700 C   0  0  0  0  0  1  0  0  0  0  0  0
  178.9310  175.3510  140.6110 C   0  0  0  0  0  2  0  0  0  0  0  0
  179.2970  174.0650  141.3290 C   0  0  0  0  0  1  0  0  0  0  0  0
  1  5  2  0  0  0  0
  2 18  1  0  0  0  0
  2 14  1  0  0  0  0
  4  1  1  0  0  0  0
  4 22  1  0  0  0  0
  5 10  1  0  0  0  0
  6 17  2  0  0  0  0
  7  6  1  0  0  0  0
  8 17  1  0  0  0  0
  9  3  1  0  0  0  0
  9 21  1  0  0  0  0
 10  7  2  0  0  0  0
 10  8  1  0  0  0  0
 11  7  1  0  0  0  0
 12  2  2  0  0  0  0
 15 23  1  0  0  0  0
 15 24  1  0  0  0  0
 15  3  1  0  0  0  0
 16 23  1  0  0  0  0
 16 12  1  0  0  0  0
 17 13  1  0  0  0  0
 18  1  1  0  0  0  0
 19  4  1  0  0  0  0
 20  9  1  0  0  0  0
 21 19  1  0  0  0  0
 21 26  1  0  0  0  0
 22 25  1  0  0  0  0
 24  3  1  0  0  0  0
 24 18  1  0  0  0  0
 25 11  1  0  0  0  0
 26 27  1  0  0  0  0
 27 29  1  0  0  0  0
 28 27  1  0  0  0  0
 29 30  1  0  0  0  0
M  END
>  <MODEL>
4

>  <REMARK>
 VINA RESULT:      -5.3      3.424      5.946
  Name = 
  3 active torsions:
  status: ('A' for Active; 'I' for Inactive)
    1  A    between atoms: C_7  and  N_10
    2  A    between atoms: C_7  and  C_15
    3  A    between atoms: N_10  and  C_25
                            x       y       z     vdW  Elec       q    Type
                         _______ _______ _______ _____ _____    ______ ____

>  <TORSDO>
F 3

$$$$
=
 OpenBabel10262421433D

 30 34  0  0  1  0  0  0  0  0999 V2000
  185.7100  176.6030  137.2830 C   0  0  0  0  0  0  0  0  0  0  0  0
  183.9530  175.7410  135.6190 C   0  0  0  0  0  0  0  0  0  0  0  0
  183.0730  176.9840  138.9410 C   0  0  1  0  0  3  0  0  0  0  0  0
  186.1920  177.9860  137.7130 C   0  0  2  0  0  3  0  0  0  0  0  0
  186.5670  175.5760  137.1550 C   0  0  0  0  0  3  0  0  0  0  0  0
  190.1990  175.7510  137.8170 N   0  0  0  0  0  0  0  0  0  0  0  0
  188.9740  176.2930  137.9350 C   0  0  0  0  0  0  0  0  0  0  0  0
  188.6900  174.3930  136.8320 N   0  0  0  0  0  2  0  0  0  0  0  0
  183.1960  178.3370  139.6600 C   0  0  2  0  0  3  0  0  0  0  0  0
  188.0380  175.4640  137.3200 C   0  0  0  0  0  0  0  0  0  0  0  0
  188.7540  177.5750  138.6620 C   0  0  0  0  0  2  0  0  0  0  0  0
  182.7710  175.1830  135.2980 C   0  0  0  0  0  3  0  0  0  0  0  0
  191.0690  173.6580  136.7870 C   0  0  0  0  0  1  0  0  0  0  0  0
  184.9110  175.8150  134.6560 F   0  0  0  0  0  0  0  0  0  0  0  0
  181.9070  176.7440  137.9840 C   0  0  2  0  0  3  0  0  0  0  0  0
  181.5320  175.0520  136.1670 C   0  0  0  0  0  2  0  0  0  0  0  0
  189.9810  174.6060  137.1450 C   0  0  0  0  0  0  0  0  0  0  0  0
  184.2580  176.2370  137.0090 C   0  0  2  0  0  3  0  0  0  0  0  0
  185.2090  179.0690  138.1960 C   0  0  0  0  0  2  0  0  0  0  0  0
  182.1910  179.4060  139.2370 C   0  0  0  0  0  1  0  0  0  0  0  0
  184.6400  178.8730  139.6200 C   0  0  2  0  0  3  0  0  0  0  0  0
  187.3530  178.6860  136.5040 S   0  0  0  0  0  0  0  0  0  0  0  0
  181.7380  175.2570  137.6690 C   0  0  0  0  0  2  0  0  0  0  0  0
  183.2420  177.2580  137.4630 C   0  0  2  0  0  3  0  0  0  0  0  0
  188.7330  178.7640  137.7040 C   0  0  0  0  0  2  0  0  0  0  0  0
  185.5220  178.0690  140.4580 N   0  0  0  0  0  2  0  0  0  0  0  0
  186.1130  178.9610  141.4430 C   0  0  1  0  0  3  0  0  0  0  0  0
  185.1140  179.2070  142.5550 C   0  0  0  0  0  1  0  0  0  0  0  0
  187.3650  178.3310  142.0270 C   0  0  0  0  0  2  0  0  0  0  0  0
  187.0180  177.5000  143.2490 C   0  0  0  0  0  1  0  0  0  0  0  0
  1  4  1  0  0  0  0
  2 18  1  0  0  0  0
  3  9  1  0  0  0  0
  4 19  1  0  0  0  0
  5  1  2  0  0  0  0
  5 10  1  0  0  0  0
  6  7  1  0  0  0  0
  7 11  1  0  0  0  0
  8 17  1  0  0  0  0
  8 10  1  0  0  0  0
 10  7  2  0  0  0  0
 12  2  2  0  0  0  0
 12 16  1  0  0  0  0
 13 17  1  0  0  0  0
 14  2  1  0  0  0  0
 15  3  1  0  0  0  0
 16 23  1  0  0  0  0
 17  6  2  0  0  0  0
 18  1  1  0  0  0  0
 18 24  1  0  0  0  0
 19 21  1  0  0  0  0
 20  9  1  0  0  0  0
 21  9  1  0  0  0  0
 21 26  1  0  0  0  0
 22 25  1  0  0  0  0
 22  4  1  0  0  0  0
 23 15  1  0  0  0  0
 24 15  1  0  0  0  0
 24  3  1  0  0  0  0
 25 11  1  0  0  0  0
 26 27  1  0  0  0  0
 27 29  1  0  0  0  0
 27 28  1  0  0  0  0
 29 30  1  0  0  0  0
M  END
>  <MODEL>
5

>  <REMARK>
 VINA RESULT:      -5.3      2.010      2.878
  Name = 
  3 active torsions:
  status: ('A' for Active; 'I' for Inactive)
    1  A    between atoms: C_7  and  N_10
    2  A    between atoms: C_7  and  C_15
    3  A    between atoms: N_10  and  C_25
                            x       y       z     vdW  Elec       q    Type
                         _______ _______ _______ _____ _____    ______ ____

>  <TORSDO>
F 3

$$$$
=
 OpenBabel10262421433D

 30 34  0  0  1  0  0  0  0  0999 V2000
  183.2660  175.5680  137.8370 C   0  0  0  0  0  0  0  0  0  0  0  0
  181.0410  174.3530  137.4190 C   0  0  0  0  0  0  0  0  0  0  0  0
  181.5140  176.6970  140.1830 C   0  0  1  0  0  3  0  0  0  0  0  0
  183.7940  176.9690  137.5430 C   0  0  2  0  0  3  0  0  0  0  0  0
  184.0590  174.4880  137.7280 C   0  0  0  0  0  3  0  0  0  0  0  0
  187.6270  174.5670  136.7690 N   0  0  0  0  0  0  0  0  0  0  0  0
  186.5250  175.2180  137.1800 C   0  0  0  0  0  0  0  0  0  0  0  0
  185.9350  173.0910  136.9960 N   0  0  0  0  0  2  0  0  0  0  0  0
  181.8350  178.1970  140.2900 C   0  0  2  0  0  3  0  0  0  0  0  0
  185.4740  174.3140  137.3140 C   0  0  0  0  0  0  0  0  0  0  0  0
  186.5410  176.6820  137.4560 C   0  0  0  0  0  2  0  0  0  0  0  0
  179.8680  173.8210  137.8110 C   0  0  0  0  0  3  0  0  0  0  0  0
  188.1310  172.1850  136.2460 C   0  0  0  0  0  1  0  0  0  0  0  0
  181.5170  174.0230  136.1890 F   0  0  0  0  0  0  0  0  0  0  0  0
  180.0770  176.2520  139.9190 C   0  0  2  0  0  3  0  0  0  0  0  0
  179.1010  174.0910  139.0930 C   0  0  0  0  0  2  0  0  0  0  0  0
  187.2260  173.2860  136.6700 C   0  0  0  0  0  0  0  0  0  0  0  0
  181.8540  175.2550  138.3130 C   0  0  2  0  0  3  0  0  0  0  0  0
  183.0280  178.2300  137.9860 C   0  0  0  0  0  2  0  0  0  0  0  0
  180.6810  179.1460  139.9750 C   0  0  0  0  0  1  0  0  0  0  0  0
  183.1010  178.5660  139.4930 C   0  0  2  0  0  3  0  0  0  0  0  0
  184.3170  177.1280  135.8110 S   0  0  0  0  0  0  0  0  0  0  0  0
  179.8870  174.7650  140.2210 C   0  0  0  0  0  2  0  0  0  0  0  0
  181.0500  176.4500  138.7650 C   0  0  2  0  0  3  0  0  0  0  0  0
  186.0580  177.4830  136.2490 C   0  0  0  0  0  2  0  0  0  0  0  0
  184.2960  178.0140  140.1210 N   0  0  0  0  0  2  0  0  0  0  0  0
  184.7150  178.9530  141.1500 C   0  0  1  0  0  3  0  0  0  0  0  0
  184.1700  178.5000  142.4890 C   0  0  0  0  0  1  0  0  0  0  0  0
  186.2320  179.0030  141.2190 C   0  0  0  0  0  2  0  0  0  0  0  0
  186.7300  178.2520  142.4410 C   0  0  0  0  0  1  0  0  0  0  0  0
  1 18  1  0  0  0  0
  2 12  2  0  0  0  0
  2 18  1  0  0  0  0
  3  9  1  0  0  0  0
  4  1  1  0  0  0  0
  4 19  1  0  0  0  0
  5  1  2  0  0  0  0
  6  7  1  0  0  0  0
  7 10  2  0  0  0  0
  7 11  1  0  0  0  0
  8 10  1  0  0  0  0
 10  5  1  0  0  0  0
 12 16  1  0  0  0  0
 13 17  1  0  0  0  0
 14  2  1  0  0  0  0
 15  3  1  0  0  0  0
 15 23  1  0  0  0  0
 16 23  1  0  0  0  0
 17  6  2  0  0  0  0
 17  8  1  0  0  0  0
 18 24  1  0  0  0  0
 19 21  1  0  0  0  0
 20  9  1  0  0  0  0
 21 26  1  0  0  0  0
 21  9  1  0  0  0  0
 22 25  1  0  0  0  0
 22  4  1  0  0  0  0
 24 15  1  0  0  0  0
 24  3  1  0  0  0  0
 25 11  1  0  0  0  0
 26 27  1  0  0  0  0
 27 29  1  0  0  0  0
 27 28  1  0  0  0  0
 29 30  1  0  0  0  0
M  END
>  <MODEL>
6

>  <REMARK>
 VINA RESULT:      -5.1      2.492      4.135
  Name = 
  3 active torsions:
  status: ('A' for Active; 'I' for Inactive)
    1  A    between atoms: C_7  and  N_10
    2  A    between atoms: C_7  and  C_15
    3  A    between atoms: N_10  and  C_25
                            x       y       z     vdW  Elec       q    Type
                         _______ _______ _______ _____ _____    ______ ____

>  <TORSDO>
F 3

$$$$
=
 OpenBabel10262421433D

 30 34  0  0  1  0  0  0  0  0999 V2000
  188.3020  176.7380  138.2280 C   0  0  0  0  0  0  0  0  0  0  0  0
  187.3140  178.2540  140.0520 C   0  0  0  0  0  0  0  0  0  0  0  0
  190.4170  176.3800  140.5190 C   0  0  1  0  0  3  0  0  0  0  0  0
  189.4230  176.8850  137.2030 C   0  0  2  0  0  3  0  0  0  0  0  0
  187.1640  176.0900  137.9270 C   0  0  0  0  0  3  0  0  0  0  0  0
  186.4350  174.4870  134.6780 N   0  0  0  0  0  0  0  0  0  0  0  0
  187.3260  175.0300  135.5250 C   0  0  0  0  0  0  0  0  0  0  0  0
  185.3690  175.1310  136.5600 N   0  0  0  0  0  2  0  0  0  0  0  0
  191.8000  176.3880  139.8480 C   0  0  2  0  0  3  0  0  0  0  0  0
  186.6730  175.4390  136.6860 C   0  0  0  0  0  0  0  0  0  0  0  0
  188.7760  175.1050  135.1910 C   0  0  0  0  0  2  0  0  0  0  0  0
  187.1140  178.6260  141.3300 C   0  0  0  0  0  3  0  0  0  0  0  0
  183.9810  174.0740  134.7830 C   0  0  0  0  0  1  0  0  0  0  0  0
  186.5040  178.7810  139.0950 F   0  0  0  0  0  0  0  0  0  0  0  0
  190.0940  177.4210  141.5890 C   0  0  2  0  0  3  0  0  0  0  0  0
  187.9250  178.2370  142.5540 C   0  0  0  0  0  2  0  0  0  0  0  0
  185.2680  174.5680  135.3420 C   0  0  0  0  0  0  0  0  0  0  0  0
  188.3660  177.2470  139.6610 C   0  0  2  0  0  3  0  0  0  0  0  0
  190.8450  177.3070  137.6160 C   0  0  0  0  0  2  0  0  0  0  0  0
  192.7100  177.5570  140.2180 C   0  0  0  0  0  1  0  0  0  0  0  0
  191.6910  176.2210  138.3190 C   0  0  2  0  0  3  0  0  0  0  0  0
  188.8770  177.8470  135.7610 S   0  0  0  0  0  0  0  0  0  0  0  0
  188.8530  177.0320  142.3940 C   0  0  0  0  0  2  0  0  0  0  0  0
  189.7360  177.6740  140.1310 C   0  0  2  0  0  3  0  0  0  0  0  0
  189.1410  176.4630  134.5940 C   0  0  0  0  0  2  0  0  0  0  0  0
  191.2560  174.8740  137.9690 N   0  0  0  0  0  2  0  0  0  0  0  0
  192.3540  174.2360  137.2600 C   0  0  1  0  0  3  0  0  0  0  0  0
  192.1980  174.4830  135.7740 C   0  0  0  0  0  1  0  0  0  0  0  0
  193.6780  174.8150  137.7260 C   0  0  0  0  0  2  0  0  0  0  0  0
  194.6840  173.7050  137.9670 C   0  0  0  0  0  1  0  0  0  0  0  0
  1 18  1  0  0  0  0
  2 12  2  0  0  0  0
  3 15  1  0  0  0  0
  4 19  1  0  0  0  0
  4  1  1  0  0  0  0
  5  1  2  0  0  0  0
  6 17  2  0  0  0  0
  6  7  1  0  0  0  0
  7 10  2  0  0  0  0
  8 10  1  0  0  0  0
  9 20  1  0  0  0  0
  9  3  1  0  0  0  0
 10  5  1  0  0  0  0
 11  7  1  0  0  0  0
 12 16  1  0  0  0  0
 13 17  1  0  0  0  0
 14  2  1  0  0  0  0
 15 23  1  0  0  0  0
 17  8  1  0  0  0  0
 18  2  1  0  0  0  0
 18 24  1  0  0  0  0
 19 21  1  0  0  0  0
 21  9  1  0  0  0  0
 22  4  1  0  0  0  0
 23 16  1  0  0  0  0
 24  3  1  0  0  0  0
 24 15  1  0  0  0  0
 25 11  1  0  0  0  0
 25 22  1  0  0  0  0
 26 21  1  0  0  0  0
 27 29  1  0  0  0  0
 27 26  1  0  0  0  0
 28 27  1  0  0  0  0
 29 30  1  0  0  0  0
M  END
>  <MODEL>
7

>  <REMARK>
 VINA RESULT:      -4.7      2.777      7.526
  Name = 
  3 active torsions:
  status: ('A' for Active; 'I' for Inactive)
    1  A    between atoms: C_7  and  N_10
    2  A    between atoms: C_7  and  C_15
    3  A    between atoms: N_10  and  C_25
                            x       y       z     vdW  Elec       q    Type
                         _______ _______ _______ _____ _____    ______ ____

>  <TORSDO>
F 3

$$$$
=
 OpenBabel10262421433D

 30 34  0  0  1  0  0  0  0  0999 V2000
  190.8720  174.1750  136.2890 C   0  0  0  0  0  0  0  0  0  0  0  0
  189.6370  172.1510  135.3020 C   0  0  0  0  0  0  0  0  0  0  0  0
  187.9110  174.8240  137.1010 C   0  0  1  0  0  3  0  0  0  0  0  0
  191.0800  175.6220  135.8510 C   0  0  2  0  0  3  0  0  0  0  0  0
  191.8530  173.4830  136.8930 C   0  0  0  0  0  3  0  0  0  0  0  0
  195.2050  174.8170  137.6930 N   0  0  0  0  0  0  0  0  0  0  0  0
  193.9290  175.0370  137.3330 C   0  0  0  0  0  0  0  0  0  0  0  0
  194.1210  172.8420  137.5680 N   0  0  0  0  0  2  0  0  0  0  0  0
  187.7110  176.3300  136.8720 C   0  0  2  0  0  3  0  0  0  0  0  0
  193.2560  173.8200  137.2450 C   0  0  0  0  0  0  0  0  0  0  0  0
  193.4040  176.4150  137.1180 C   0  0  0  0  0  2  0  0  0  0  0  0
  188.6280  171.2590  135.2580 C   0  0  0  0  0  3  0  0  0  0  0  0
  196.5230  172.7720  138.2220 C   0  0  0  0  0  1  0  0  0  0  0  0
  190.7650  171.8780  134.5940 F   0  0  0  0  0  0  0  0  0  0  0  0
  187.0190  173.8270  136.3630 C   0  0  2  0  0  3  0  0  0  0  0  0
  187.2550  171.3710  135.8960 C   0  0  0  0  0  2  0  0  0  0  0  0
  195.2780  173.4800  137.8230 C   0  0  0  0  0  0  0  0  0  0  0  0
  189.5690  173.4020  136.1390 C   0  0  2  0  0  3  0  0  0  0  0  0
  189.8940  176.5320  135.4820 C   0  0  0  0  0  2  0  0  0  0  0  0
  186.7030  176.7090  135.7900 C   0  0  0  0  0  1  0  0  0  0  0  0
  189.0550  177.0580  136.6700 C   0  0  2  0  0  3  0  0  0  0  0  0
  192.3850  175.7510  134.5940 S   0  0  0  0  0  0  0  0  0  0  0  0
  187.1020  172.4330  136.9870 C   0  0  0  0  0  2  0  0  0  0  0  0
  188.3650  174.2380  135.7810 C   0  0  2  0  0  3  0  0  0  0  0  0
  193.4500  176.8060  135.6430 C   0  0  0  0  0  2  0  0  0  0  0  0
  189.8220  177.0970  137.9090 N   0  0  0  0  0  2  0  0  0  0  0  0
  189.5600  178.3810  138.5400 C   0  0  1  0  0  3  0  0  0  0  0  0
  188.9900  179.3340  137.5100 C   0  0  0  0  0  1  0  0  0  0  0  0
  188.5590  178.2090  139.6690 C   0  0  0  0  0  2  0  0  0  0  0  0
  189.2050  177.4990  140.8440 C   0  0  0  0  0  1  0  0  0  0  0  0
  1  5  2  0  0  0  0
  2 18  1  0  0  0  0
  4  1  1  0  0  0  0
  5 10  1  0  0  0  0
  6 17  2  0  0  0  0
  7  6  1  0  0  0  0
  8 17  1  0  0  0  0
  9  3  1  0  0  0  0
 10  7  2  0  0  0  0
 10  8  1  0  0  0  0
 11  7  1  0  0  0  0
 12  2  2  0  0  0  0
 12 16  1  0  0  0  0
 14  2  1  0  0  0  0
 15 23  1  0  0  0  0
 15  3  1  0  0  0  0
 16 23  1  0  0  0  0
 17 13  1  0  0  0  0
 18  1  1  0  0  0  0
 19  4  1  0  0  0  0
 19 21  1  0  0  0  0
 20  9  1  0  0  0  0
 21  9  1  0  0  0  0
 21 26  1  0  0  0  0
 22 25  1  0  0  0  0
 22  4  1  0  0  0  0
 24 18  1  0  0  0  0
 24 15  1  0  0  0  0
 24  3  1  0  0  0  0
 25 11  1  0  0  0  0
 26 27  1  0  0  0  0
 27 29  1  0  0  0  0
 28 27  1  0  0  0  0
 29 30  1  0  0  0  0
M  END
>  <MODEL>
8

>  <REMARK>
 VINA RESULT:      -4.5      3.302      4.964
  Name = 
  3 active torsions:
  status: ('A' for Active; 'I' for Inactive)
    1  A    between atoms: C_7  and  N_10
    2  A    between atoms: C_7  and  C_15
    3  A    between atoms: N_10  and  C_25
                            x       y       z     vdW  Elec       q    Type
                         _______ _______ _______ _____ _____    ______ ____

>  <TORSDO>
F 3

$$$$
=
 OpenBabel10262421433D

 30 34  0  0  1  0  0  0  0  0999 V2000
  190.5860  176.3480  138.9440 C   0  0  0  0  0  0  0  0  0  0  0  0
  193.0720  176.1480  138.3290 C   0  0  0  0  0  0  0  0  0  0  0  0
  190.5210  173.9140  136.9650 C   0  0  1  0  0  3  0  0  0  0  0  0
  189.3590  176.9470  138.2630 C   0  0  2  0  0  3  0  0  0  0  0  0
  190.7590  176.4390  140.2740 C   0  0  0  0  0  3  0  0  0  0  0  0
  188.3970  178.0570  142.6110 N   0  0  0  0  0  0  0  0  0  0  0  0
  188.6530  177.5490  141.3930 C   0  0  0  0  0  0  0  0  0  0  0  0
  190.5190  177.2910  142.5600 N   0  0  0  0  0  2  0  0  0  0  0  0
  189.2800  174.1000  136.0770 C   0  0  2  0  0  3  0  0  0  0  0  0
  189.9650  177.0830  141.3510 C   0  0  0  0  0  0  0  0  0  0  0  0
  187.6110  177.5080  140.3290 C   0  0  0  0  0  2  0  0  0  0  0  0
  194.1640  175.4650  137.9340 C   0  0  0  0  0  3  0  0  0  0  0  0
  189.7320  178.2950  144.6990 C   0  0  0  0  0  1  0  0  0  0  0  0
  193.2490  177.3810  138.8750 F   0  0  0  0  0  0  0  0  0  0  0  0
  191.9030  173.8300  136.3180 C   0  0  2  0  0  3  0  0  0  0  0  0
  194.2210  174.1170  137.2380 C   0  0  0  0  0  2  0  0  0  0  0  0
  189.5490  177.8810  143.2820 C   0  0  0  0  0  0  0  0  0  0  0  0
  191.6830  175.5730  138.2280 C   0  0  2  0  0  3  0  0  0  0  0  0
  188.9670  176.5660  136.8240 C   0  0  0  0  0  2  0  0  0  0  0  0
  189.5540  174.3330  134.5940 C   0  0  0  0  0  1  0  0  0  0  0  0
  188.3280  175.1690  136.6480 C   0  0  2  0  0  3  0  0  0  0  0  0
  189.3020  178.7510  138.4720 S   0  0  0  0  0  0  0  0  0  0  0  0
  192.9440  173.2750  137.2900 C   0  0  0  0  0  2  0  0  0  0  0  0
  191.3590  175.1650  136.8110 C   0  0  2  0  0  3  0  0  0  0  0  0
  187.7210  178.7100  139.3930 C   0  0  0  0  0  2  0  0  0  0  0  0
  187.6880  174.7010  137.8720 N   0  0  0  0  0  2  0  0  0  0  0  0
  186.2980  174.4180  137.5510 C   0  0  1  0  0  3  0  0  0  0  0  0
  185.9480  175.0730  136.2310 C   0  0  0  0  0  1  0  0  0  0  0  0
  186.0890  172.9180  137.4340 C   0  0  0  0  0  2  0  0  0  0  0  0
  184.6090  172.5980  137.3260 C   0  0  0  0  0  1  0  0  0  0  0  0
  1  5  2  0  0  0  0
  2 14  1  0  0  0  0
  4 22  1  0  0  0  0
  4  1  1  0  0  0  0
  5 10  1  0  0  0  0
  6 17  2  0  0  0  0
  7  6  1  0  0  0  0
  8 17  1  0  0  0  0
  9 21  1  0  0  0  0
  9  3  1  0  0  0  0
 10  7  2  0  0  0  0
 10  8  1  0  0  0  0
 11  7  1  0  0  0  0
 12  2  2  0  0  0  0
 15 24  1  0  0  0  0
 15  3  1  0  0  0  0
 15 23  1  0  0  0  0
 16 23  1  0  0  0  0
 16 12  1  0  0  0  0
 17 13  1  0  0  0  0
 18  2  1  0  0  0  0
 18  1  1  0  0  0  0
 19  4  1  0  0  0  0
 20  9  1  0  0  0  0
 21 19  1  0  0  0  0
 21 26  1  0  0  0  0
 22 25  1  0  0  0  0
 24  3  1  0  0  0  0
 24 18  1  0  0  0  0
 25 11  1  0  0  0  0
 27 26  1  0  0  0  0
 28 27  1  0  0  0  0
 29 27  1  0  0  0  0
 30 29  1  0  0  0  0
M  END
>  <MODEL>
9

>  <REMARK>
 VINA RESULT:      -4.5      3.259      6.435
  Name = 
  3 active torsions:
  status: ('A' for Active; 'I' for Inactive)
    1  A    between atoms: C_7  and  N_10
    2  A    between atoms: C_7  and  C_15
    3  A    between atoms: N_10  and  C_25
                            x       y       z     vdW  Elec       q    Type
                         _______ _______ _______ _____ _____    ______ ____

>  <TORSDO>
F 3

$$$$
