=
 OpenBabel10262422063D

 43 49  0  0  1  0  0  0  0  0999 V2000
  181.2640  179.0130  141.2070 C   0  0  0  0  0  0  0  0  0  0  0  0
  184.7750  178.3770  143.9780 C   0  0  0  0  0  0  0  0  0  0  0  0
  187.0250  177.8920  142.3990 C   0  0  0  0  0  0  0  0  0  0  0  0
  182.7450  178.7750  143.5490 C   0  0  0  0  0  0  0  0  0  0  0  0
  183.3070  178.5600  139.7960 C   0  0  0  0  0  1  0  0  0  0  0  0
  180.5170  179.1370  140.0810 F   0  0  0  0  0  0  0  0  0  0  0  0
  183.3540  178.6160  142.3200 C   0  0  0  0  0  0  0  0  0  0  0  0
  180.6450  179.1740  142.4670 C   0  0  0  0  0  3  0  0  0  0  0  0
  182.6420  178.7270  141.1210 C   0  0  0  0  0  0  0  0  0  0  0  0
  185.7740  178.1160  141.7840 C   0  0  0  0  0  3  0  0  0  0  0  0
  184.6750  178.3550  142.6040 C   0  0  0  0  0  0  0  0  0  0  0  0
  183.6080  178.6300  144.5350 O   0  0  0  0  0  0  0  0  0  0  0  0
  185.9930  178.1490  144.6170 C   0  0  0  0  0  0  0  0  0  0  0  0
  187.1230  177.9130  143.8140 C   0  0  0  0  0  3  0  0  0  0  0  0
  181.3860  179.0540  143.6570 C   0  0  0  0  0  3  0  0  0  0  0  0
  188.1910  177.6600  141.5950 N   0  0  0  0  0  0  0  0  0  0  0  0
  188.4350  178.3300  140.3340 C   0  0  0  0  0  2  0  0  0  0  0  0
  189.2690  176.7700  141.9850 C   0  0  0  0  0  2  0  0  0  0  0  0
  189.8350  177.9220  139.9100 C   0  0  1  0  0  3  0  0  0  0  0  0
  190.2560  176.7850  140.8320 C   0  0  0  0  0  2  0  0  0  0  0  0
  189.8450  177.4380  138.4700 C   0  0  0  0  0  2  0  0  0  0  0  0
  190.8490  176.3120  138.2800 C   0  0  2  0  0  3  0  0  0  0  0  0
  192.2940  175.1050  136.3000 S   0  0  0  0  0  0  0  0  0  0  0  0
  192.2590  176.8510  138.3510 C   0  0  0  0  0  2  0  0  0  0  0  0
  190.6760  175.6900  136.9070 C   0  0  1  0  0  3  0  0  0  0  0  0
  193.1540  175.7950  137.7440 C   0  0  0  0  0  2  0  0  0  0  0  0
  188.3470  174.7630  136.4460 N   0  0  0  0  0  0  0  0  0  0  0  0
  189.6740  174.5740  136.9590 C   0  0  0  0  0  0  0  0  0  0  0  0
  186.0860  174.2170  137.1850 C   0  0  0  0  0  2  0  0  0  0  0  0
  186.6840  176.5460  136.4740 C   0  0  0  0  0  2  0  0  0  0  0  0
  185.6000  175.4700  136.4590 C   0  0  0  0  0  2  0  0  0  0  0  0
  187.9500  176.0160  135.8100 C   0  0  0  0  0  2  0  0  0  0  0  0
  187.3590  173.6910  136.5290 C   0  0  0  0  0  2  0  0  0  0  0  0
  189.9860  173.4830  137.5120 O   0  0  0  0  0  0  0  0  0  0  0  0
  186.1110  178.2010  146.1060 C   0  0  0  0  0  2  0  0  0  0  0  0
  189.6510  176.8440  146.0890 C   0  0  0  0  0  3  0  0  0  0  0  0
  190.0880  177.1830  147.3750 C   0  0  0  0  0  0  0  0  0  0  0  0
  187.9270  178.1950  147.8270 C   0  0  0  0  0  3  0  0  0  0  0  0
  188.3590  177.1800  145.6720 C   0  0  0  0  0  3  0  0  0  0  0  0
  187.4960  177.8600  146.5390 C   0  0  0  0  0  0  0  0  0  0  0  0
  189.2180  177.8630  148.2430 C   0  0  0  0  0  3  0  0  0  0  0  0
  192.1080  175.7880  147.2620 C   0  0  0  0  0  2  0  0  0  0  0  0
  191.4550  176.8240  147.7770 C   0  0  0  0  0  3  0  0  0  0  0  0
  1  8  1  0  0  0  0
  2 12  1  0  0  0  0
  2 13  1  0  0  0  0
  3 14  1  0  0  0  0
  4 15  1  0  0  0  0
  4 12  1  0  0  0  0
  5  9  1  0  0  0  0
  6  1  1  0  0  0  0
  7 11  1  0  0  0  0
  7  4  2  0  0  0  0
  8 15  2  0  0  0  0
  9  1  2  0  0  0  0
  9  7  1  0  0  0  0
 10  3  2  0  0  0  0
 10 11  1  0  0  0  0
 11  2  2  0  0  0  0
 13 35  1  0  0  0  0
 14 13  2  0  0  0  0
 16 18  1  0  0  0  0
 16  3  1  0  0  0  0
 17 16  1  0  0  0  0
 19 21  1  6  0  0  0
 19 17  1  0  0  0  0
 19 20  1  0  0  0  0
 20 18  1  0  0  0  0
 22 24  1  0  0  0  0
 22 21  1  6  0  0  0
 23 25  1  0  0  0  0
 23 26  1  0  0  0  0
 25 28  1  1  0  0  0
 25 22  1  0  0  0  0
 26 24  1  0  0  0  0
 27 33  1  0  0  0  0
 27 28  1  0  0  0  0
 28 34  2  0  0  0  0
 31 30  1  0  0  0  0
 31 29  1  0  0  0  0
 32 27  1  0  0  0  0
 32 30  1  0  0  0  0
 33 29  1  0  0  0  0
 35 40  1  0  0  0  0
 36 37  1  0  0  0  0
 37 43  1  0  0  0  0
 37 41  2  0  0  0  0
 38 41  1  0  0  0  0
 39 36  2  0  0  0  0
 39 40  1  0  0  0  0
 40 38  2  0  0  0  0
 42 43  2  0  0  0  0
M  END
>  <MODEL>
1

>  <REMARK>
 VINA RESULT:     -11.5      0.000      0.000
  Name = 
  7 active torsions:
  status: ('A' for Active; 'I' for Inactive)
    1  A    between atoms: C_1  and  C_34
    2  A    between atoms: C_1  and  C_35
    3  A    between atoms: N_2  and  C_13
    4  A    between atoms: C_3  and  C_4
    5  A    between atoms: C_3  and  C_12
    6  A    between atoms: C_14  and  C_22
    7  A    between atoms: C_19  and  C_37
                            x       y       z     vdW  Elec       q    Type
                         _______ _______ _______ _____ _____    ______ ____

>  <TORSDO>
F 7

$$$$
=
 OpenBabel10262422063D

 43 49  0  0  1  0  0  0  0  0999 V2000
  186.4250  177.9070  146.5050 C   0  0  0  0  0  0  0  0  0  0  0  0
  185.2440  178.6680  142.2120 C   0  0  0  0  0  0  0  0  0  0  0  0
  187.4530  178.0920  140.6080 C   0  0  0  0  0  0  0  0  0  0  0  0
  184.8870  178.5980  144.2930 C   0  0  0  0  0  0  0  0  0  0  0  0
  188.4180  177.4030  145.0400 C   0  0  0  0  0  1  0  0  0  0  0  0
  187.1510  177.5740  147.6020 F   0  0  0  0  0  0  0  0  0  0  0  0
  186.1990  178.1960  144.1330 C   0  0  0  0  0  0  0  0  0  0  0  0
  185.0840  178.3200  146.6650 C   0  0  0  0  0  3  0  0  0  0  0  0
  187.0040  177.8420  145.2210 C   0  0  0  0  0  0  0  0  0  0  0  0
  187.5500  177.9490  142.0090 C   0  0  0  0  0  3  0  0  0  0  0  0
  186.4270  178.2450  142.7760 C   0  0  0  0  0  0  0  0  0  0  0  0
  184.3260  178.8780  143.1340 O   0  0  0  0  0  0  0  0  0  0  0  0
  185.1180  178.8300  140.8320 C   0  0  0  0  0  0  0  0  0  0  0  0
  186.2350  178.5300  140.0320 C   0  0  0  0  0  3  0  0  0  0  0  0
  184.2980  178.6730  145.5520 C   0  0  0  0  0  3  0  0  0  0  0  0
  188.5790  177.7800  139.7730 N   0  0  0  0  0  0  0  0  0  0  0  0
  188.6970  178.2220  138.3990 C   0  0  0  0  0  2  0  0  0  0  0  0
  189.7360  177.0350  140.2330 C   0  0  0  0  0  2  0  0  0  0  0  0
  190.0910  177.8200  137.9500 C   0  0  1  0  0  3  0  0  0  0  0  0
  190.6440  176.8920  139.0250 C   0  0  0  0  0  2  0  0  0  0  0  0
  190.0410  177.0840  136.6220 C   0  0  0  0  0  2  0  0  0  0  0  0
  190.8200  175.7800  136.6910 C   0  0  2  0  0  3  0  0  0  0  0  0
  191.5270  173.6750  135.0990 S   0  0  0  0  0  0  0  0  0  0  0  0
  192.2480  176.0000  136.2520 C   0  0  0  0  0  2  0  0  0  0  0  0
  190.2120  174.7620  135.7430 C   0  0  1  0  0  3  0  0  0  0  0  0
  192.8190  174.6360  135.9430 C   0  0  0  0  0  2  0  0  0  0  0  0
  187.7610  174.1440  136.0720 N   0  0  0  0  0  0  0  0  0  0  0  0
  189.1400  173.9740  136.4360 C   0  0  0  0  0  0  0  0  0  0  0  0
  185.6460  174.3770  137.2680 C   0  0  0  0  0  2  0  0  0  0  0  0
  186.3090  176.0140  135.4880 C   0  0  0  0  0  2  0  0  0  0  0  0
  185.1470  175.2450  136.1140 C   0  0  0  0  0  2  0  0  0  0  0  0
  187.3670  175.0360  134.9860 C   0  0  0  0  0  2  0  0  0  0  0  0
  186.7120  173.4050  136.7700 C   0  0  0  0  0  2  0  0  0  0  0  0
  189.4490  173.2030  137.3850 O   0  0  0  0  0  0  0  0  0  0  0  0
  183.8270  179.2610  140.2150 C   0  0  0  0  0  2  0  0  0  0  0  0
  182.3310  177.3390  137.3090 C   0  0  0  0  0  3  0  0  0  0  0  0
  182.0810  176.0930  137.8960 C   0  0  0  0  0  0  0  0  0  0  0  0
  182.9820  176.9170  139.9960 C   0  0  0  0  0  3  0  0  0  0  0  0
  182.9050  178.3700  138.0610 C   0  0  0  0  0  3  0  0  0  0  0  0
  183.2350  178.1590  139.4050 C   0  0  0  0  0  0  0  0  0  0  0  0
  182.4120  175.8860  139.2460 C   0  0  0  0  0  3  0  0  0  0  0  0
  181.8740  173.7600  137.1520 C   0  0  0  0  0  2  0  0  0  0  0  0
  181.4860  175.0290  137.0750 C   0  0  0  0  0  3  0  0  0  0  0  0
  1  8  1  0  0  0  0
  1  6  1  0  0  0  0
  2 11  1  0  0  0  0
  2 12  1  0  0  0  0
  3 10  1  0  0  0  0
  4 15  1  0  0  0  0
  5  9  1  0  0  0  0
  7  4  2  0  0  0  0
  7  9  1  0  0  0  0
  9  1  2  0  0  0  0
 10 11  2  0  0  0  0
 11  7  1  0  0  0  0
 12  4  1  0  0  0  0
 13  2  2  0  0  0  0
 14  3  2  0  0  0  0
 14 13  1  0  0  0  0
 15  8  2  0  0  0  0
 16 18  1  0  0  0  0
 16  3  1  0  0  0  0
 17 16  1  0  0  0  0
 19 21  1  6  0  0  0
 19 17  1  0  0  0  0
 19 20  1  0  0  0  0
 20 18  1  0  0  0  0
 22 21  1  6  0  0  0
 23 25  1  0  0  0  0
 23 26  1  0  0  0  0
 24 22  1  0  0  0  0
 25 28  1  1  0  0  0
 25 22  1  0  0  0  0
 26 24  1  0  0  0  0
 27 28  1  0  0  0  0
 27 33  1  0  0  0  0
 28 34  2  0  0  0  0
 30 31  1  0  0  0  0
 31 29  1  0  0  0  0
 32 30  1  0  0  0  0
 32 27  1  0  0  0  0
 33 29  1  0  0  0  0
 35 13  1  0  0  0  0
 36 37  2  0  0  0  0
 36 39  1  0  0  0  0
 37 41  1  0  0  0  0
 39 40  2  0  0  0  0
 40 38  1  0  0  0  0
 40 35  1  0  0  0  0
 41 38  2  0  0  0  0
 43 42  2  0  0  0  0
 43 37  1  0  0  0  0
M  END
>  <MODEL>
2

>  <REMARK>
 VINA RESULT:     -11.1      2.410      5.992
  Name = 
  7 active torsions:
  status: ('A' for Active; 'I' for Inactive)
    1  A    between atoms: C_1  and  C_34
    2  A    between atoms: C_1  and  C_35
    3  A    between atoms: N_2  and  C_13
    4  A    between atoms: C_3  and  C_4
    5  A    between atoms: C_3  and  C_12
    6  A    between atoms: C_14  and  C_22
    7  A    between atoms: C_19  and  C_37
                            x       y       z     vdW  Elec       q    Type
                         _______ _______ _______ _____ _____    ______ ____

>  <TORSDO>
F 7

$$$$
=
 OpenBabel10262422063D

 43 49  0  0  1  0  0  0  0  0999 V2000
  189.7520  177.3230  147.3990 C   0  0  0  0  0  0  0  0  0  0  0  0
  186.8680  178.0250  143.9940 C   0  0  0  0  0  0  0  0  0  0  0  0
  188.2960  177.7860  141.6080 C   0  0  0  0  0  0  0  0  0  0  0  0
  187.3880  177.8570  146.0340 C   0  0  0  0  0  0  0  0  0  0  0  0
  191.0300  177.1220  145.2320 C   0  0  0  0  0  1  0  0  0  0  0  0
  190.8890  177.0620  148.0900 F   0  0  0  0  0  0  0  0  0  0  0  0
  188.5610  177.6360  145.3380 C   0  0  0  0  0  0  0  0  0  0  0  0
  188.5510  177.5500  148.1060 C   0  0  0  0  0  3  0  0  0  0  0  0
  189.7680  177.3660  145.9900 C   0  0  0  0  0  0  0  0  0  0  0  0
  188.9620  177.6230  142.8420 C   0  0  0  0  0  3  0  0  0  0  0  0
  188.2170  177.7490  144.0100 C   0  0  0  0  0  0  0  0  0  0  0  0
  186.3810  178.0890  145.2170 O   0  0  0  0  0  0  0  0  0  0  0  0
  186.1810  178.2030  142.7930 C   0  0  0  0  0  0  0  0  0  0  0  0
  186.9070  178.0730  141.5950 C   0  0  0  0  0  3  0  0  0  0  0  0
  187.3500  177.8230  147.4250 C   0  0  0  0  0  3  0  0  0  0  0  0
  189.0180  177.6460  140.3750 N   0  0  0  0  0  0  0  0  0  0  0  0
  189.9300  176.5530  140.1070 C   0  0  0  0  0  2  0  0  0  0  0  0
  188.8720  178.5550  139.2540 C   0  0  0  0  0  2  0  0  0  0  0  0
  190.3400  176.7020  138.6510 C   0  0  1  0  0  3  0  0  0  0  0  0
  189.8490  178.0700  138.1980 C   0  0  0  0  0  2  0  0  0  0  0  0
  191.8510  176.6310  138.5050 C   0  0  0  0  0  2  0  0  0  0  0  0
  192.2680  175.3730  137.7580 C   0  0  2  0  0  3  0  0  0  0  0  0
  192.5460  174.4520  135.2010 S   0  0  0  0  0  0  0  0  0  0  0  0
  193.7360  175.4360  137.4080 C   0  0  0  0  0  2  0  0  0  0  0  0
  191.5010  175.2690  136.4520 C   0  0  1  0  0  3  0  0  0  0  0  0
  193.9660  174.3990  136.3340 C   0  0  0  0  0  2  0  0  0  0  0  0
  189.0130  174.9530  135.9940 N   0  0  0  0  0  0  0  0  0  0  0  0
  190.2120  174.5280  136.6590 C   0  0  0  0  0  0  0  0  0  0  0  0
  186.6750  175.2620  136.6180 C   0  0  0  0  0  2  0  0  0  0  0  0
  187.9530  177.0830  135.4630 C   0  0  0  0  0  2  0  0  0  0  0  0
  186.5990  176.3860  135.5860 C   0  0  0  0  0  2  0  0  0  0  0  0
  189.0220  176.0730  135.0570 C   0  0  0  0  0  2  0  0  0  0  0  0
  187.7500  174.2560  136.2200 C   0  0  0  0  0  2  0  0  0  0  0  0
  190.1730  173.5620  137.4700 O   0  0  0  0  0  0  0  0  0  0  0  0
  184.7120  178.4740  142.7710 C   0  0  0  0  0  2  0  0  0  0  0  0
  182.7730  177.3380  139.7160 C   0  0  0  0  0  3  0  0  0  0  0  0
  183.2190  178.2440  138.7480 C   0  0  0  0  0  0  0  0  0  0  0  0
  184.6330  179.3070  140.4120 C   0  0  0  0  0  3  0  0  0  0  0  0
  183.2540  177.4150  141.0280 C   0  0  0  0  0  3  0  0  0  0  0  0
  184.1820  178.4020  141.3790 C   0  0  0  0  0  0  0  0  0  0  0  0
  184.1510  179.2330  139.1030 C   0  0  0  0  0  3  0  0  0  0  0  0
  183.0380  177.1730  136.5430 C   0  0  0  0  0  2  0  0  0  0  0  0
  182.6860  178.1420  137.3820 C   0  0  0  0  0  3  0  0  0  0  0  0
  1  6  1  0  0  0  0
  1  8  1  0  0  0  0
  2 11  1  0  0  0  0
  2 12  1  0  0  0  0
  3 10  1  0  0  0  0
  4 15  1  0  0  0  0
  5  9  1  0  0  0  0
  7  9  1  0  0  0  0
  7  4  2  0  0  0  0
  9  1  2  0  0  0  0
 10 11  2  0  0  0  0
 11  7  1  0  0  0  0
 12  4  1  0  0  0  0
 13  2  2  0  0  0  0
 14  3  2  0  0  0  0
 14 13  1  0  0  0  0
 15  8  2  0  0  0  0
 16  3  1  0  0  0  0
 17 16  1  0  0  0  0
 18 16  1  0  0  0  0
 19 21  1  1  0  0  0
 19 17  1  0  0  0  0
 20 19  1  0  0  0  0
 20 18  1  0  0  0  0
 22 21  1  6  0  0  0
 23 26  1  0  0  0  0
 23 25  1  0  0  0  0
 24 22  1  0  0  0  0
 25 28  1  1  0  0  0
 25 22  1  0  0  0  0
 26 24  1  0  0  0  0
 27 33  1  0  0  0  0
 27 28  1  0  0  0  0
 28 34  2  0  0  0  0
 30 31  1  0  0  0  0
 31 29  1  0  0  0  0
 32 30  1  0  0  0  0
 32 27  1  0  0  0  0
 33 29  1  0  0  0  0
 35 13  1  0  0  0  0
 36 39  1  0  0  0  0
 37 41  1  0  0  0  0
 37 36  2  0  0  0  0
 38 40  1  0  0  0  0
 39 40  2  0  0  0  0
 40 35  1  0  0  0  0
 41 38  2  0  0  0  0
 42 43  2  0  0  0  0
 43 37  1  0  0  0  0
M  END
>  <MODEL>
3

>  <REMARK>
 VINA RESULT:     -11.0      2.471      6.205
  Name = 
  7 active torsions:
  status: ('A' for Active; 'I' for Inactive)
    1  A    between atoms: C_1  and  C_34
    2  A    between atoms: C_1  and  C_35
    3  A    between atoms: N_2  and  C_13
    4  A    between atoms: C_3  and  C_4
    5  A    between atoms: C_3  and  C_12
    6  A    between atoms: C_14  and  C_22
    7  A    between atoms: C_19  and  C_37
                            x       y       z     vdW  Elec       q    Type
                         _______ _______ _______ _____ _____    ______ ____

>  <TORSDO>
F 7

$$$$
=
 OpenBabel10262422063D

 43 49  0  0  1  0  0  0  0  0999 V2000
  188.2650  177.4780  147.5190 C   0  0  0  0  0  0  0  0  0  0  0  0
  188.5480  177.8050  143.0220 C   0  0  0  0  0  0  0  0  0  0  0  0
  185.9760  178.2630  142.0410 C   0  0  0  0  0  0  0  0  0  0  0  0
  189.3490  177.5320  144.9590 C   0  0  0  0  0  0  0  0  0  0  0  0
  185.9440  177.8800  146.6120 C   0  0  0  0  0  1  0  0  0  0  0  0
  187.7640  177.4490  148.7800 F   0  0  0  0  0  0  0  0  0  0  0  0
  187.9910  177.7070  145.1450 C   0  0  0  0  0  0  0  0  0  0  0  0
  189.6510  177.2990  147.3240 C   0  0  0  0  0  3  0  0  0  0  0  0
  187.4100  177.6850  146.4170 C   0  0  0  0  0  0  0  0  0  0  0  0
  186.1780  178.1090  143.4290 C   0  0  0  0  0  3  0  0  0  0  0  0
  187.4740  177.8820  143.8810 C   0  0  0  0  0  0  0  0  0  0  0  0
  189.6700  177.5940  143.6820 O   0  0  0  0  0  0  0  0  0  0  0  0
  188.3830  177.9420  141.6440 C   0  0  0  0  0  0  0  0  0  0  0  0
  187.0840  178.1800  141.1590 C   0  0  0  0  0  3  0  0  0  0  0  0
  190.2090  177.3230  146.0320 C   0  0  0  0  0  3  0  0  0  0  0  0
  184.6600  178.5170  141.5280 N   0  0  0  0  0  0  0  0  0  0  0  0
  184.3590  178.5950  140.1120 C   0  0  0  0  0  2  0  0  0  0  0  0
  183.4880  178.6720  142.3680 C   0  0  0  0  0  2  0  0  0  0  0  0
  182.8470  178.7100  140.0140 C   0  0  1  0  0  3  0  0  0  0  0  0
  182.3380  178.9760  141.4250 C   0  0  0  0  0  2  0  0  0  0  0  0
  182.4500  179.8610  139.1060 C   0  0  0  0  0  2  0  0  0  0  0  0
  181.3590  179.4380  138.1350 C   0  0  2  0  0  3  0  0  0  0  0  0
  180.5750  179.8600  135.5520 S   0  0  0  0  0  0  0  0  0  0  0  0
  181.8150  178.2510  137.3210 C   0  0  0  0  0  2  0  0  0  0  0  0
  181.0680  180.5650  137.1600 C   0  0  1  0  0  3  0  0  0  0  0  0
  180.8910  178.1650  136.1290 C   0  0  0  0  0  2  0  0  0  0  0  0
  179.9390  182.8460  137.2960 N   0  0  0  0  0  0  0  0  0  0  0  0
  180.0070  181.4730  137.7090 C   0  0  0  0  0  0  0  0  0  0  0  0
  179.6060  184.9970  138.4000 C   0  0  0  0  0  2  0  0  0  0  0  0
  181.5370  184.6320  136.8430 C   0  0  0  0  0  2  0  0  0  0  0  0
  180.4850  185.6300  137.3220 C   0  0  0  0  0  2  0  0  0  0  0  0
  180.8550  183.3830  136.2930 C   0  0  0  0  0  2  0  0  0  0  0  0
  178.9310  183.7410  137.8560 C   0  0  0  0  0  2  0  0  0  0  0  0
  179.2090  181.0390  138.5840 O   0  0  0  0  0  0  0  0  0  0  0  0
  189.5490  177.8880  140.7130 C   0  0  0  0  0  2  0  0  0  0  0  0
  188.4060  176.3690  137.4310 C   0  0  0  0  0  3  0  0  0  0  0  0
  188.2710  177.5070  136.6270 C   0  0  0  0  0  0  0  0  0  0  0  0
  188.9630  178.8940  138.4980 C   0  0  0  0  0  3  0  0  0  0  0  0
  188.8170  176.4920  138.7630 C   0  0  0  0  0  3  0  0  0  0  0  0
  189.0920  177.7550  139.3000 C   0  0  0  0  0  0  0  0  0  0  0  0
  188.5500  178.7730  137.1690 C   0  0  0  0  0  3  0  0  0  0  0  0
  186.9520  178.1590  134.6600 C   0  0  0  0  0  2  0  0  0  0  0  0
  187.8290  177.3440  135.2360 C   0  0  0  0  0  3  0  0  0  0  0  0
  1  6  1  0  0  0  0
  2 12  1  0  0  0  0
  2 11  1  0  0  0  0
  3 10  1  0  0  0  0
  4  7  2  0  0  0  0
  4 15  1  0  0  0  0
  7  9  1  0  0  0  0
  8  1  1  0  0  0  0
  9  5  1  0  0  0  0
  9  1  2  0  0  0  0
 10 11  2  0  0  0  0
 11  7  1  0  0  0  0
 12  4  1  0  0  0  0
 13  2  2  0  0  0  0
 14 13  1  0  0  0  0
 14  3  2  0  0  0  0
 15  8  2  0  0  0  0
 16  3  1  0  0  0  0
 16 18  1  0  0  0  0
 17 16  1  0  0  0  0
 19 21  1  6  0  0  0
 19 17  1  0  0  0  0
 19 20  1  0  0  0  0
 20 18  1  0  0  0  0
 22 21  1  1  0  0  0
 23 26  1  0  0  0  0
 23 25  1  0  0  0  0
 24 22  1  0  0  0  0
 25 28  1  1  0  0  0
 25 22  1  0  0  0  0
 26 24  1  0  0  0  0
 27 28  1  0  0  0  0
 27 33  1  0  0  0  0
 28 34  2  0  0  0  0
 30 31  1  0  0  0  0
 31 29  1  0  0  0  0
 32 30  1  0  0  0  0
 32 27  1  0  0  0  0
 33 29  1  0  0  0  0
 35 13  1  0  0  0  0
 36 39  1  0  0  0  0
 37 41  1  0  0  0  0
 37 36  2  0  0  0  0
 38 40  1  0  0  0  0
 39 40  2  0  0  0  0
 40 35  1  0  0  0  0
 41 38  2  0  0  0  0
 42 43  2  0  0  0  0
 43 37  1  0  0  0  0
M  END
>  <MODEL>
4

>  <REMARK>
 VINA RESULT:     -10.9      4.487      9.162
  Name = 
  7 active torsions:
  status: ('A' for Active; 'I' for Inactive)
    1  A    between atoms: C_1  and  C_34
    2  A    between atoms: C_1  and  C_35
    3  A    between atoms: N_2  and  C_13
    4  A    between atoms: C_3  and  C_4
    5  A    between atoms: C_3  and  C_12
    6  A    between atoms: C_14  and  C_22
    7  A    between atoms: C_19  and  C_37
                            x       y       z     vdW  Elec       q    Type
                         _______ _______ _______ _____ _____    ______ ____

>  <TORSDO>
F 7

$$$$
=
 OpenBabel10262422063D

 43 49  0  0  1  0  0  0  0  0999 V2000
  190.2720  176.9090  146.3500 C   0  0  0  0  0  0  0  0  0  0  0  0
  188.9250  178.0540  142.1930 C   0  0  0  0  0  0  0  0  0  0  0  0
  186.1450  178.2910  142.2370 C   0  0  0  0  0  0  0  0  0  0  0  0
  190.3760  177.5690  143.6500 C   0  0  0  0  0  0  0  0  0  0  0  0
  187.7570  177.1150  146.3680 C   0  0  0  0  0  1  0  0  0  0  0  0
  190.2520  176.5870  147.6680 F   0  0  0  0  0  0  0  0  0  0  0  0
  189.1620  177.5050  144.3070 C   0  0  0  0  0  0  0  0  0  0  0  0
  191.5100  176.9730  145.6740 C   0  0  0  0  0  3  0  0  0  0  0  0
  189.0700  177.1760  145.6630 C   0  0  0  0  0  0  0  0  0  0  0  0
  186.8340  177.9280  143.4140 C   0  0  0  0  0  3  0  0  0  0  0  0
  188.2200  177.8200  143.3530 C   0  0  0  0  0  0  0  0  0  0  0  0
  190.2200  177.8990  142.3840 O   0  0  0  0  0  0  0  0  0  0  0  0
  188.2740  178.4040  141.0100 C   0  0  0  0  0  0  0  0  0  0  0  0
  186.8730  178.5290  141.0440 C   0  0  0  0  0  3  0  0  0  0  0  0
  191.5730  177.3050  144.3080 C   0  0  0  0  0  3  0  0  0  0  0  0
  184.7160  178.4340  142.2540 N   0  0  0  0  0  0  0  0  0  0  0  0
  183.8590  177.9850  141.1750 C   0  0  0  0  0  2  0  0  0  0  0  0
  183.9800  178.9940  143.3710 C   0  0  0  0  0  2  0  0  0  0  0  0
  182.4350  178.1750  141.6700 C   0  0  1  0  0  3  0  0  0  0  0  0
  182.5230  179.0040  142.9450 C   0  0  0  0  0  2  0  0  0  0  0  0
  181.5990  178.9170  140.6390 C   0  0  0  0  0  2  0  0  0  0  0  0
  180.5100  178.0190  140.0740 C   0  0  2  0  0  3  0  0  0  0  0  0
  180.0680  175.3940  139.4600 S   0  0  0  0  0  0  0  0  0  0  0  0
  179.6920  177.4210  141.1940 C   0  0  0  0  0  2  0  0  0  0  0  0
  181.1340  176.8660  139.3100 C   0  0  1  0  0  3  0  0  0  0  0  0
  178.9420  176.2510  140.6020 C   0  0  0  0  0  2  0  0  0  0  0  0
  182.4080  176.6430  137.1130 N   0  0  0  0  0  0  0  0  0  0  0  0
  181.3480  177.2430  137.8740 C   0  0  0  0  0  0  0  0  0  0  0  0
  184.1040  177.4270  135.5440 C   0  0  0  0  0  2  0  0  0  0  0  0
  184.7280  176.0120  137.5180 C   0  0  0  0  0  2  0  0  0  0  0  0
  185.0150  176.3080  136.0470 C   0  0  0  0  0  2  0  0  0  0  0  0
  183.2660  175.6120  137.6910 C   0  0  0  0  0  2  0  0  0  0  0  0
  182.6410  177.0340  135.7260 C   0  0  0  0  0  2  0  0  0  0  0  0
  180.6270  178.1370  137.3510 O   0  0  0  0  0  0  0  0  0  0  0  0
  189.0370  178.6860  139.7580 C   0  0  0  0  0  2  0  0  0  0  0  0
  190.6460  175.5890  138.2760 C   0  0  0  0  0  3  0  0  0  0  0  0
  189.6240  175.1100  137.4480 C   0  0  0  0  0  0  0  0  0  0  0  0
  188.2160  176.9640  138.1390 C   0  0  0  0  0  3  0  0  0  0  0  0
  190.4550  176.7500  139.0330 C   0  0  0  0  0  3  0  0  0  0  0  0
  189.2380  177.4370  138.9680 C   0  0  0  0  0  0  0  0  0  0  0  0
  188.4040  175.8040  137.3850 C   0  0  0  0  0  3  0  0  0  0  0  0
  191.0650  173.4920  136.2880 C   0  0  0  0  0  2  0  0  0  0  0  0
  189.8550  173.8830  136.6740 C   0  0  0  0  0  3  0  0  0  0  0  0
  1  6  1  0  0  0  0
  2 12  1  0  0  0  0
  2 11  1  0  0  0  0
  3 16  1  0  0  0  0
  3 10  1  0  0  0  0
  4  7  2  0  0  0  0
  4 15  1  0  0  0  0
  7  9  1  0  0  0  0
  8  1  1  0  0  0  0
  9  1  2  0  0  0  0
  9  5  1  0  0  0  0
 11 10  2  0  0  0  0
 11  7  1  0  0  0  0
 12  4  1  0  0  0  0
 13 14  1  0  0  0  0
 13  2  2  0  0  0  0
 14  3  2  0  0  0  0
 15  8  2  0  0  0  0
 16 18  1  0  0  0  0
 17 19  1  0  0  0  0
 17 16  1  0  0  0  0
 19 21  1  6  0  0  0
 19 20  1  0  0  0  0
 20 18  1  0  0  0  0
 22 21  1  1  0  0  0
 22 24  1  0  0  0  0
 23 26  1  0  0  0  0
 25 28  1  6  0  0  0
 25 23  1  0  0  0  0
 25 22  1  0  0  0  0
 26 24  1  0  0  0  0
 27 32  1  0  0  0  0
 27 28  1  0  0  0  0
 29 33  1  0  0  0  0
 29 31  1  0  0  0  0
 30 32  1  0  0  0  0
 31 30  1  0  0  0  0
 33 27  1  0  0  0  0
 34 28  2  0  0  0  0
 35 13  1  0  0  0  0
 36 39  1  0  0  0  0
 37 36  2  0  0  0  0
 38 40  1  0  0  0  0
 40 39  2  0  0  0  0
 40 35  1  0  0  0  0
 41 37  1  0  0  0  0
 41 38  2  0  0  0  0
 42 43  2  0  0  0  0
 43 37  1  0  0  0  0
M  END
>  <MODEL>
5

>  <REMARK>
 VINA RESULT:     -10.8      3.692      8.333
  Name = 
  7 active torsions:
  status: ('A' for Active; 'I' for Inactive)
    1  A    between atoms: C_1  and  C_34
    2  A    between atoms: C_1  and  C_35
    3  A    between atoms: N_2  and  C_13
    4  A    between atoms: C_3  and  C_4
    5  A    between atoms: C_3  and  C_12
    6  A    between atoms: C_14  and  C_22
    7  A    between atoms: C_19  and  C_37
                            x       y       z     vdW  Elec       q    Type
                         _______ _______ _______ _____ _____    ______ ____

>  <TORSDO>
F 7

$$$$
=
 OpenBabel10262422063D

 43 49  0  0  1  0  0  0  0  0999 V2000
  188.5440  177.2500  147.4530 C   0  0  0  0  0  0  0  0  0  0  0  0
  188.9330  177.7250  142.9770 C   0  0  0  0  0  0  0  0  0  0  0  0
  186.3910  178.2580  141.9560 C   0  0  0  0  0  0  0  0  0  0  0  0
  189.6850  177.3730  144.9190 C   0  0  0  0  0  0  0  0  0  0  0  0
  186.2500  177.7210  146.5090 C   0  0  0  0  0  1  0  0  0  0  0  0
  188.0140  177.1870  148.7000 F   0  0  0  0  0  0  0  0  0  0  0  0
  188.3270  177.5640  145.0820 C   0  0  0  0  0  0  0  0  0  0  0  0
  189.9310  177.0550  147.2810 C   0  0  0  0  0  3  0  0  0  0  0  0
  187.7170  177.5080  146.3390 C   0  0  0  0  0  0  0  0  0  0  0  0
  186.5590  178.0540  143.3420 C   0  0  0  0  0  3  0  0  0  0  0  0
  187.8410  177.7900  143.8140 C   0  0  0  0  0  0  0  0  0  0  0  0
  190.0360  177.4730  143.6530 O   0  0  0  0  0  0  0  0  0  0  0  0
  188.8000  177.9110  141.6010 C   0  0  0  0  0  0  0  0  0  0  0  0
  187.5170  178.1870  141.0960 C   0  0  0  0  0  3  0  0  0  0  0  0
  190.5180  177.1140  146.0030 C   0  0  0  0  0  3  0  0  0  0  0  0
  185.0910  178.5510  141.4230 N   0  0  0  0  0  0  0  0  0  0  0  0
  184.8410  178.7810  140.0140 C   0  0  0  0  0  2  0  0  0  0  0  0
  183.8860  178.5990  142.2300 C   0  0  0  0  0  2  0  0  0  0  0  0
  183.3320  178.8870  139.8710 C   0  0  1  0  0  3  0  0  0  0  0  0
  182.7670  178.9910  141.2820 C   0  0  0  0  0  2  0  0  0  0  0  0
  182.9500  180.1270  139.0790 C   0  0  0  0  0  2  0  0  0  0  0  0
  181.5410  180.0050  138.5220 C   0  0  2  0  0  3  0  0  0  0  0  0
  179.5030  178.1920  138.3600 S   0  0  0  0  0  0  0  0  0  0  0  0
  180.5270  180.3620  139.5840 C   0  0  0  0  0  2  0  0  0  0  0  0
  181.2700  178.5700  138.1100 C   0  0  1  0  0  3  0  0  0  0  0  0
  179.1990  179.8190  139.1100 C   0  0  0  0  0  2  0  0  0  0  0  0
  182.5880  177.2870  136.3450 N   0  0  0  0  0  0  0  0  0  0  0  0
  181.6820  178.3480  136.6840 C   0  0  0  0  0  0  0  0  0  0  0  0
  184.5420  177.0420  134.9040 C   0  0  0  0  0  2  0  0  0  0  0  0
  184.6110  176.3230  137.3050 C   0  0  0  0  0  2  0  0  0  0  0  0
  185.0730  175.9990  135.8860 C   0  0  0  0  0  2  0  0  0  0  0  0
  183.0870  176.3620  137.3590 C   0  0  0  0  0  2  0  0  0  0  0  0
  183.0180  177.0910  134.9630 C   0  0  0  0  0  2  0  0  0  0  0  0
  181.2730  179.1370  135.7880 O   0  0  0  0  0  0  0  0  0  0  0  0
  189.9860  177.8690  140.6940 C   0  0  0  0  0  2  0  0  0  0  0  0
  188.9400  176.2110  137.4480 C   0  0  0  0  0  3  0  0  0  0  0  0
  188.8040  177.3160  136.5990 C   0  0  0  0  0  0  0  0  0  0  0  0
  189.4310  178.7820  138.4310 C   0  0  0  0  0  3  0  0  0  0  0  0
  189.3200  176.3900  138.7830 C   0  0  0  0  0  3  0  0  0  0  0  0
  189.5620  177.6760  139.2770 C   0  0  0  0  0  0  0  0  0  0  0  0
  189.0500  178.6060  137.0990 C   0  0  0  0  0  3  0  0  0  0  0  0
  188.5310  175.9230  134.5940 C   0  0  0  0  0  2  0  0  0  0  0  0
  188.3940  177.0940  135.2060 C   0  0  0  0  0  3  0  0  0  0  0  0
  1  6  1  0  0  0  0
  2 12  1  0  0  0  0
  2 11  1  0  0  0  0
  3 10  1  0  0  0  0
  4  7  2  0  0  0  0
  4 15  1  0  0  0  0
  7  9  1  0  0  0  0
  8  1  1  0  0  0  0
  9  5  1  0  0  0  0
  9  1  2  0  0  0  0
 10 11  2  0  0  0  0
 11  7  1  0  0  0  0
 12  4  1  0  0  0  0
 13  2  2  0  0  0  0
 14 13  1  0  0  0  0
 14  3  2  0  0  0  0
 15  8  2  0  0  0  0
 16  3  1  0  0  0  0
 16 18  1  0  0  0  0
 17 16  1  0  0  0  0
 19 21  1  6  0  0  0
 19 17  1  0  0  0  0
 19 20  1  0  0  0  0
 20 18  1  0  0  0  0
 22 21  1  1  0  0  0
 22 24  1  0  0  0  0
 23 26  1  0  0  0  0
 25 28  1  6  0  0  0
 25 23  1  0  0  0  0
 25 22  1  0  0  0  0
 26 24  1  0  0  0  0
 27 28  1  0  0  0  0
 27 32  1  0  0  0  0
 29 33  1  0  0  0  0
 29 31  1  0  0  0  0
 30 32  1  0  0  0  0
 31 30  1  0  0  0  0
 33 27  1  0  0  0  0
 34 28  2  0  0  0  0
 35 13  1  0  0  0  0
 36 39  1  0  0  0  0
 37 41  1  0  0  0  0
 37 36  2  0  0  0  0
 38 40  1  0  0  0  0
 39 40  2  0  0  0  0
 40 35  1  0  0  0  0
 41 38  2  0  0  0  0
 42 43  2  0  0  0  0
 43 37  1  0  0  0  0
M  END
>  <MODEL>
6

>  <REMARK>
 VINA RESULT:     -10.8      3.713      8.209
  Name = 
  7 active torsions:
  status: ('A' for Active; 'I' for Inactive)
    1  A    between atoms: C_1  and  C_34
    2  A    between atoms: C_1  and  C_35
    3  A    between atoms: N_2  and  C_13
    4  A    between atoms: C_3  and  C_4
    5  A    between atoms: C_3  and  C_12
    6  A    between atoms: C_14  and  C_22
    7  A    between atoms: C_19  and  C_37
                            x       y       z     vdW  Elec       q    Type
                         _______ _______ _______ _____ _____    ______ ____

>  <TORSDO>
F 7

$$$$
=
 OpenBabel10262422063D

 43 49  0  0  1  0  0  0  0  0999 V2000
  189.5070  176.9860  146.8370 C   0  0  0  0  0  0  0  0  0  0  0  0
  185.7700  178.5060  144.8030 C   0  0  0  0  0  0  0  0  0  0  0  0
  186.2100  178.4260  142.0490 C   0  0  0  0  0  0  0  0  0  0  0  0
  186.9380  177.9930  146.4880 C   0  0  0  0  0  0  0  0  0  0  0  0
  189.8910  176.9330  144.3430 C   0  0  0  0  0  1  0  0  0  0  0  0
  190.7550  176.4930  147.0370 F   0  0  0  0  0  0  0  0  0  0  0  0
  187.7380  177.7280  145.3930 C   0  0  0  0  0  0  0  0  0  0  0  0
  188.6860  177.2600  147.9530 C   0  0  0  0  0  3  0  0  0  0  0  0
  189.0350  177.2230  145.5290 C   0  0  0  0  0  0  0  0  0  0  0  0
  187.2300  178.0120  142.9320 C   0  0  0  0  0  3  0  0  0  0  0  0
  186.9740  178.0660  144.2990 C   0  0  0  0  0  0  0  0  0  0  0  0
  185.7610  178.4590  146.1210 O   0  0  0  0  0  0  0  0  0  0  0  0
  184.7450  178.9330  143.9590 C   0  0  0  0  0  0  0  0  0  0  0  0
  184.9730  178.8820  142.5720 C   0  0  0  0  0  3  0  0  0  0  0  0
  187.3850  177.7710  147.7870 C   0  0  0  0  0  3  0  0  0  0  0  0
  186.4200  178.3720  140.6300 N   0  0  0  0  0  0  0  0  0  0  0  0
  187.6650  177.9400  140.0260 C   0  0  0  0  0  2  0  0  0  0  0  0
  185.3950  178.6930  139.6550 C   0  0  0  0  0  2  0  0  0  0  0  0
  187.4010  177.8770  138.5310 C   0  0  1  0  0  3  0  0  0  0  0  0
  186.0580  178.5560  138.2960 C   0  0  0  0  0  2  0  0  0  0  0  0
  188.4840  178.6150  137.7600 C   0  0  0  0  0  2  0  0  0  0  0  0
  188.9120  177.8250  136.5330 C   0  0  2  0  0  3  0  0  0  0  0  0
  189.0900  175.2410  135.6630 S   0  0  0  0  0  0  0  0  0  0  0  0
  187.7230  177.5620  135.6390 C   0  0  0  0  0  2  0  0  0  0  0  0
  189.4630  176.4740  136.9540 C   0  0  1  0  0  3  0  0  0  0  0  0
  188.1270  176.4470  134.7030 C   0  0  0  0  0  2  0  0  0  0  0  0
  191.4460  176.5240  138.5550 N   0  0  0  0  0  0  0  0  0  0  0  0
  190.9380  176.5680  137.2120 C   0  0  0  0  0  0  0  0  0  0  0  0
  193.1170  177.7530  139.8400 C   0  0  0  0  0  2  0  0  0  0  0  0
  190.7900  177.4380  140.7180 C   0  0  0  0  0  2  0  0  0  0  0  0
  192.2710  177.5010  141.0870 C   0  0  0  0  0  2  0  0  0  0  0  0
  190.5560  176.3300  139.6960 C   0  0  0  0  0  2  0  0  0  0  0  0
  192.8780  176.6510  138.8120 C   0  0  0  0  0  2  0  0  0  0  0  0
  191.7300  176.7460  136.2460 O   0  0  0  0  0  0  0  0  0  0  0  0
  183.4290  179.3840  144.5020 C   0  0  0  0  0  2  0  0  0  0  0  0
  181.4470  178.6240  141.3590 C   0  0  0  0  0  3  0  0  0  0  0  0
  180.2060  178.2570  141.8920 C   0  0  0  0  0  0  0  0  0  0  0  0
  181.0760  178.6170  144.1300 C   0  0  0  0  0  3  0  0  0  0  0  0
  182.4990  178.9860  142.2080 C   0  0  0  0  0  3  0  0  0  0  0  0
  182.3160  178.9790  143.5950 C   0  0  0  0  0  0  0  0  0  0  0  0
  180.0260  178.2530  143.2850 C   0  0  0  0  0  3  0  0  0  0  0  0
  179.1670  176.7680  140.2350 C   0  0  0  0  0  2  0  0  0  0  0  0
  179.1260  177.8730  140.9730 C   0  0  0  0  0  3  0  0  0  0  0  0
  1  6  1  0  0  0  0
  1  8  1  0  0  0  0
  2 12  1  0  0  0  0
  3 14  2  0  0  0  0
  3 10  1  0  0  0  0
  4 15  1  0  0  0  0
  5  9  1  0  0  0  0
  7  9  1  0  0  0  0
  7  4  2  0  0  0  0
  9  1  2  0  0  0  0
 10 11  2  0  0  0  0
 11  2  1  0  0  0  0
 11  7  1  0  0  0  0
 12  4  1  0  0  0  0
 13 35  1  0  0  0  0
 13  2  2  0  0  0  0
 14 13  1  0  0  0  0
 15  8  2  0  0  0  0
 16  3  1  0  0  0  0
 17 16  1  0  0  0  0
 18 16  1  0  0  0  0
 19 21  1  6  0  0  0
 19 17  1  0  0  0  0
 20 19  1  0  0  0  0
 20 18  1  0  0  0  0
 22 25  1  0  0  0  0
 22 21  1  1  0  0  0
 23 25  1  0  0  0  0
 24 22  1  0  0  0  0
 25 28  1  6  0  0  0
 26 24  1  0  0  0  0
 26 23  1  0  0  0  0
 27 33  1  0  0  0  0
 27 32  1  0  0  0  0
 28 27  1  0  0  0  0
 29 31  1  0  0  0  0
 30 31  1  0  0  0  0
 32 30  1  0  0  0  0
 33 29  1  0  0  0  0
 34 28  2  0  0  0  0
 36 37  2  0  0  0  0
 36 39  1  0  0  0  0
 37 41  1  0  0  0  0
 39 40  2  0  0  0  0
 40 38  1  0  0  0  0
 40 35  1  0  0  0  0
 41 38  2  0  0  0  0
 42 43  2  0  0  0  0
 43 37  1  0  0  0  0
M  END
>  <MODEL>
7

>  <REMARK>
 VINA RESULT:     -10.7      2.655      6.774
  Name = 
  7 active torsions:
  status: ('A' for Active; 'I' for Inactive)
    1  A    between atoms: C_1  and  C_34
    2  A    between atoms: C_1  and  C_35
    3  A    between atoms: N_2  and  C_13
    4  A    between atoms: C_3  and  C_4
    5  A    between atoms: C_3  and  C_12
    6  A    between atoms: C_14  and  C_22
    7  A    between atoms: C_19  and  C_37
                            x       y       z     vdW  Elec       q    Type
                         _______ _______ _______ _____ _____    ______ ____

>  <TORSDO>
F 7

$$$$
=
 OpenBabel10262422063D

 43 49  0  0  1  0  0  0  0  0999 V2000
  189.5760  177.1100  147.3560 C   0  0  0  0  0  0  0  0  0  0  0  0
  189.9470  177.3320  142.8590 C   0  0  0  0  0  0  0  0  0  0  0  0
  187.4410  178.0050  141.8320 C   0  0  0  0  0  0  0  0  0  0  0  0
  190.6940  177.0210  144.8100 C   0  0  0  0  0  0  0  0  0  0  0  0
  187.3140  177.7050  146.4080 C   0  0  0  0  0  1  0  0  0  0  0  0
  189.0580  177.1490  148.6090 F   0  0  0  0  0  0  0  0  0  0  0  0
  189.3560  177.3220  144.9740 C   0  0  0  0  0  0  0  0  0  0  0  0
  190.9430  176.8030  147.1830 C   0  0  0  0  0  3  0  0  0  0  0  0
  188.7580  177.3740  146.2380 C   0  0  0  0  0  0  0  0  0  0  0  0
  187.6090  177.8560  143.2260 C   0  0  0  0  0  3  0  0  0  0  0  0
  188.8730  177.5210  143.7010 C   0  0  0  0  0  0  0  0  0  0  0  0
  191.0360  177.0320  143.5380 O   0  0  0  0  0  0  0  0  0  0  0  0
  189.8130  177.4600  141.4760 C   0  0  0  0  0  0  0  0  0  0  0  0
  188.5480  177.8070  140.9690 C   0  0  0  0  0  3  0  0  0  0  0  0
  191.5180  176.7540  145.8990 C   0  0  0  0  0  3  0  0  0  0  0  0
  186.1600  178.3680  141.2960 N   0  0  0  0  0  0  0  0  0  0  0  0
  184.9650  178.4950  142.1060 C   0  0  0  0  0  2  0  0  0  0  0  0
  185.9390  178.6940  139.9000 C   0  0  0  0  0  2  0  0  0  0  0  0
  183.8930  179.0480  141.1820 C   0  0  1  0  0  3  0  0  0  0  0  0
  184.4500  178.9610  139.7670 C   0  0  0  0  0  2  0  0  0  0  0  0
  182.6190  178.2250  141.2780 C   0  0  0  0  0  2  0  0  0  0  0  0
  181.4340  178.9880  140.7070 C   0  0  2  0  0  3  0  0  0  0  0  0
  178.9330  178.5280  139.7080 S   0  0  0  0  0  0  0  0  0  0  0  0
  180.4410  179.3040  141.8010 C   0  0  0  0  0  2  0  0  0  0  0  0
  180.7130  178.1320  139.6820 C   0  0  1  0  0  3  0  0  0  0  0  0
  179.1430  179.6610  141.1140 C   0  0  0  0  0  2  0  0  0  0  0  0
  181.9690  177.2670  137.6400 N   0  0  0  0  0  0  0  0  0  0  0  0
  181.3010  178.3420  138.3170 C   0  0  0  0  0  0  0  0  0  0  0  0
  184.0270  177.0130  136.3530 C   0  0  0  0  0  2  0  0  0  0  0  0
  183.5000  175.4740  138.2600 C   0  0  0  0  0  2  0  0  0  0  0  0
  184.1100  175.5760  136.8640 C   0  0  0  0  0  2  0  0  0  0  0  0
  182.0450  175.9310  138.2250 C   0  0  0  0  0  2  0  0  0  0  0  0
  182.5740  177.4780  136.3270 C   0  0  0  0  0  2  0  0  0  0  0  0
  181.2580  179.4880  137.7910 O   0  0  0  0  0  0  0  0  0  0  0  0
  190.9820  177.2840  140.5630 C   0  0  0  0  0  2  0  0  0  0  0  0
  190.4420  175.9950  137.0380 C   0  0  0  0  0  3  0  0  0  0  0  0
  189.7260  177.0500  136.4600 C   0  0  0  0  0  0  0  0  0  0  0  0
  189.8240  178.2520  138.5670 C   0  0  0  0  0  3  0  0  0  0  0  0
  190.8470  176.0670  138.3750 C   0  0  0  0  0  3  0  0  0  0  0  0
  190.5350  177.1940  139.1430 C   0  0  0  0  0  0  0  0  0  0  0  0
  189.4160  178.1800  137.2330 C   0  0  0  0  0  3  0  0  0  0  0  0
  188.1750  177.4600  134.5980 C   0  0  0  0  0  2  0  0  0  0  0  0
  189.3080  176.9370  135.0560 C   0  0  0  0  0  3  0  0  0  0  0  0
  1  6  1  0  0  0  0
  2 12  1  0  0  0  0
  2 11  1  0  0  0  0
  3 10  1  0  0  0  0
  4  7  2  0  0  0  0
  4 15  1  0  0  0  0
  7  9  1  0  0  0  0
  8  1  1  0  0  0  0
  9  5  1  0  0  0  0
  9  1  2  0  0  0  0
 10 11  2  0  0  0  0
 11  7  1  0  0  0  0
 12  4  1  0  0  0  0
 13  2  2  0  0  0  0
 14 13  1  0  0  0  0
 14  3  2  0  0  0  0
 15  8  2  0  0  0  0
 16  3  1  0  0  0  0
 16 17  1  0  0  0  0
 18 16  1  0  0  0  0
 19 21  1  6  0  0  0
 19 17  1  0  0  0  0
 20 18  1  0  0  0  0
 20 19  1  0  0  0  0
 22 21  1  1  0  0  0
 22 24  1  0  0  0  0
 23 26  1  0  0  0  0
 25 28  1  6  0  0  0
 25 23  1  0  0  0  0
 25 22  1  0  0  0  0
 26 24  1  0  0  0  0
 27 32  1  0  0  0  0
 27 28  1  0  0  0  0
 29 31  1  0  0  0  0
 31 30  1  0  0  0  0
 32 30  1  0  0  0  0
 33 29  1  0  0  0  0
 33 27  1  0  0  0  0
 34 28  2  0  0  0  0
 35 13  1  0  0  0  0
 36 39  1  0  0  0  0
 37 36  2  0  0  0  0
 37 41  1  0  0  0  0
 38 40  1  0  0  0  0
 39 40  2  0  0  0  0
 40 35  1  0  0  0  0
 41 38  2  0  0  0  0
 42 43  2  0  0  0  0
 43 37  1  0  0  0  0
M  END
>  <MODEL>
8

>  <REMARK>
 VINA RESULT:     -10.6      3.733      8.574
  Name = 
  7 active torsions:
  status: ('A' for Active; 'I' for Inactive)
    1  A    between atoms: C_1  and  C_34
    2  A    between atoms: C_1  and  C_35
    3  A    between atoms: N_2  and  C_13
    4  A    between atoms: C_3  and  C_4
    5  A    between atoms: C_3  and  C_12
    6  A    between atoms: C_14  and  C_22
    7  A    between atoms: C_19  and  C_37
                            x       y       z     vdW  Elec       q    Type
                         _______ _______ _______ _____ _____    ______ ____

>  <TORSDO>
F 7

$$$$
=
 OpenBabel10262422063D

 43 49  0  0  1  0  0  0  0  0999 V2000
  183.1760  178.7310  144.5970 C   0  0  0  0  0  0  0  0  0  0  0  0
  182.2680  178.7920  140.1720 C   0  0  0  0  0  0  0  0  0  0  0  0
  184.6720  178.4150  138.8060 C   0  0  0  0  0  0  0  0  0  0  0  0
  181.7470  178.8990  142.2170 C   0  0  0  0  0  0  0  0  0  0  0  0
  185.3430  178.4040  143.3440 C   0  0  0  0  0  1  0  0  0  0  0  0
  183.8480  178.6500  145.7730 F   0  0  0  0  0  0  0  0  0  0  0  0
  183.1150  178.7070  142.1970 C   0  0  0  0  0  0  0  0  0  0  0  0
  181.7780  178.9290  144.6120 C   0  0  0  0  0  3  0  0  0  0  0  0
  183.8670  178.6180  143.3730 C   0  0  0  0  0  0  0  0  0  0  0  0
  184.6670  178.4500  140.2170 C   0  0  0  0  0  3  0  0  0  0  0  0
  183.4490  178.6400  140.8630 C   0  0  0  0  0  0  0  0  0  0  0  0
  181.2510  178.9480  140.9970 O   0  0  0  0  0  0  0  0  0  0  0  0
  182.2380  178.7740  138.7770 C   0  0  0  0  0  0  0  0  0  0  0  0
  183.4540  178.5750  138.0980 C   0  0  0  0  0  3  0  0  0  0  0  0
  181.0460  179.0170  143.4130 C   0  0  0  0  0  3  0  0  0  0  0  0
  185.9010  178.2030  138.0950 N   0  0  0  0  0  0  0  0  0  0  0  0
  187.1520  177.8780  138.7490 C   0  0  0  0  0  2  0  0  0  0  0  0
  186.0060  178.2430  136.6490 C   0  0  0  0  0  2  0  0  0  0  0  0
  188.1390  177.5800  137.6320 C   0  0  1  0  0  3  0  0  0  0  0  0
  187.4750  178.0230  136.3340 C   0  0  0  0  0  2  0  0  0  0  0  0
  189.4310  178.3560  137.8310 C   0  0  0  0  0  2  0  0  0  0  0  0
  190.6420  177.4670  137.5950 C   0  0  2  0  0  3  0  0  0  0  0  0
  191.4480  174.8830  137.9680 S   0  0  0  0  0  0  0  0  0  0  0  0
  190.5150  176.7540  136.2690 C   0  0  0  0  0  2  0  0  0  0  0  0
  190.7180  176.4000  138.6710 C   0  0  1  0  0  3  0  0  0  0  0  0
  191.4990  175.6070  136.3020 C   0  0  0  0  0  2  0  0  0  0  0  0
  190.9070  176.9860  141.1450 N   0  0  0  0  0  0  0  0  0  0  0  0
  191.5110  176.8960  139.8450 C   0  0  0  0  0  0  0  0  0  0  0  0
  190.8770  178.6210  142.9560 C   0  0  0  0  0  2  0  0  0  0  0  0
  188.7450  177.6710  142.0400 C   0  0  0  0  0  2  0  0  0  0  0  0
  189.4690  178.1390  143.3010 C   0  0  0  0  0  2  0  0  0  0  0  0
  189.5340  176.5470  141.3760 C   0  0  0  0  0  2  0  0  0  0  0  0
  191.6650  177.5020  142.2820 C   0  0  0  0  0  2  0  0  0  0  0  0
  192.6970  177.2910  139.6740 O   0  0  0  0  0  0  0  0  0  0  0  0
  180.9550  178.9100  138.0260 C   0  0  0  0  0  2  0  0  0  0  0  0
  180.5530  181.6460  135.4310 C   0  0  0  0  0  3  0  0  0  0  0  0
  180.6990  182.7980  136.2130 C   0  0  0  0  0  0  0  0  0  0  0  0
  181.0020  181.4070  138.1810 C   0  0  0  0  0  3  0  0  0  0  0  0
  180.6300  180.3800  136.0210 C   0  0  0  0  0  3  0  0  0  0  0  0
  180.8510  180.2580  137.3970 C   0  0  0  0  0  0  0  0  0  0  0  0
  180.9220  182.6720  137.5940 C   0  0  0  0  0  3  0  0  0  0  0  0
  180.8060  185.2530  136.2140 C   0  0  0  0  0  2  0  0  0  0  0  0
  180.6030  184.1130  135.5640 C   0  0  0  0  0  3  0  0  0  0  0  0
  1  8  1  0  0  0  0
  1  6  1  0  0  0  0
  2 11  1  0  0  0  0
  2 12  1  0  0  0  0
  3 10  1  0  0  0  0
  4 15  1  0  0  0  0
  5  9  1  0  0  0  0
  7  4  2  0  0  0  0
  7  9  1  0  0  0  0
  9  1  2  0  0  0  0
 10 11  2  0  0  0  0
 11  7  1  0  0  0  0
 12  4  1  0  0  0  0
 13  2  2  0  0  0  0
 14 13  1  0  0  0  0
 14  3  2  0  0  0  0
 15  8  2  0  0  0  0
 16 17  1  0  0  0  0
 16  3  1  0  0  0  0
 18 16  1  0  0  0  0
 19 21  1  1  0  0  0
 19 17  1  0  0  0  0
 20 18  1  0  0  0  0
 20 19  1  0  0  0  0
 22 21  1  1  0  0  0
 22 25  1  0  0  0  0
 23 25  1  0  0  0  0
 24 26  1  0  0  0  0
 24 22  1  0  0  0  0
 25 28  1  1  0  0  0
 26 23  1  0  0  0  0
 27 32  1  0  0  0  0
 27 33  1  0  0  0  0
 28 27  1  0  0  0  0
 29 31  1  0  0  0  0
 30 31  1  0  0  0  0
 32 30  1  0  0  0  0
 33 29  1  0  0  0  0
 34 28  2  0  0  0  0
 35 13  1  0  0  0  0
 36 39  2  0  0  0  0
 36 37  1  0  0  0  0
 37 41  2  0  0  0  0
 39 40  1  0  0  0  0
 40 35  1  0  0  0  0
 40 38  2  0  0  0  0
 41 38  1  0  0  0  0
 43 37  1  0  0  0  0
 43 42  2  0  0  0  0
M  END
>  <MODEL>
9

>  <REMARK>
 VINA RESULT:     -10.3      3.264      7.781
  Name = 
  7 active torsions:
  status: ('A' for Active; 'I' for Inactive)
    1  A    between atoms: C_1  and  C_34
    2  A    between atoms: C_1  and  C_35
    3  A    between atoms: N_2  and  C_13
    4  A    between atoms: C_3  and  C_4
    5  A    between atoms: C_3  and  C_12
    6  A    between atoms: C_14  and  C_22
    7  A    between atoms: C_19  and  C_37
                            x       y       z     vdW  Elec       q    Type
                         _______ _______ _______ _____ _____    ______ ____

>  <TORSDO>
F 7

$$$$
