=
 OpenBabel10262421103D

 32 37  0  0  1  0  0  0  0  0999 V2000
  186.9490  177.6120  143.8920 C   0  0  2  0  0  3  0  0  0  0  0  0
  188.8950  177.1730  142.4120 C   0  0  2  0  0  3  0  0  0  0  0  0
  186.4310  178.3330  145.1300 C   0  0  0  0  0  2  0  0  0  0  0  0
  188.4740  177.8080  143.7510 C   0  0  2  0  0  3  0  0  0  0  0  0
  190.3720  176.8590  142.2080 C   0  0  0  0  0  0  0  0  0  0  0  0
  188.9540  178.8210  137.5950 C   0  0  0  0  0  2  0  0  0  0  0  0
  188.3030  178.0830  141.3300 C   0  0  2  0  0  3  0  0  0  0  0  0
  191.0390  177.1760  138.3290 S   0  0  0  0  0  0  0  0  0  0  0  0
  190.3300  177.8270  139.8920 C   0  0  2  0  0  3  0  0  0  0  0  0
  191.1070  175.9590  143.1660 C   0  0  2  0  0  3  0  0  0  0  0  0
  189.2110  177.3230  145.0160 C   0  0  1  0  0  3  0  0  0  0  0  0
  190.9760  177.0970  141.0350 C   0  0  0  0  0  3  0  0  0  0  0  0
  190.6650  177.7580  144.9480 C   0  0  0  0  0  2  0  0  0  0  0  0
  188.6170  177.9780  146.2650 C   0  0  0  0  0  2  0  0  0  0  0  0
  186.7980  178.0920  141.4430 C   0  0  0  0  0  3  0  0  0  0  0  0
  190.3300  174.6880  143.4660 C   0  0  0  0  0  1  0  0  0  0  0  0
  186.1690  177.9640  142.6250 C   0  0  0  0  0  0  0  0  0  0  0  0
  188.7970  177.7280  139.9260 C   0  0  2  0  0  3  0  0  0  0  0  0
  191.5750  176.6410  144.4510 C   0  0  0  0  0  2  0  0  0  0  0  0
  187.1130  177.7540  146.3600 C   0  0  0  0  0  2  0  0  0  0  0  0
  189.6210  177.5100  137.2240 C   0  0  0  0  0  2  0  0  0  0  0  0
  188.1700  178.6890  138.9000 C   0  0  0  0  0  2  0  0  0  0  0  0
  182.5770  179.4970  142.8760 C   0  0  2  0  0  3  0  0  0  0  0  0
  181.5450  178.6780  144.0770 Cl  0  0  0  0  0  0  0  0  0  0  0  0
  184.6610  177.9420  142.5980 C   0  0  2  0  0  3  0  0  0  0  0  0
  182.1770  179.0910  141.4580 C   0  0  0  0  0  2  0  0  0  0  0  0
  184.1510  177.6040  141.1970 C   0  0  0  0  0  2  0  0  0  0  0  0
  184.0250  179.2030  143.1510 C   0  0  0  0  0  0  0  0  0  0  0  0
  184.6410  179.9260  143.9190 O   0  0  0  0  0  0  0  0  0  0  0  0
  182.6310  177.6670  141.1370 C   0  0  2  0  0  3  0  0  0  0  0  0
  183.3330  177.3060  138.7730 C   0  0  0  0  0  1  0  0  0  0  0  0
  182.1690  177.2720  139.7460 C   0  0  0  0  0  2  0  0  0  0  0  0
  1  3  1  1  0  0  0
  2  5  1  1  0  0  0
  2  4  1  0  0  0  0
  3 20  1  0  0  0  0
  4  1  1  0  0  0  0
  4 11  1  0  0  0  0
  5 10  1  0  0  0  0
  6 22  1  0  0  0  0
  7 15  1  0  0  0  0
  7  2  1  0  0  0  0
  8  9  1  0  0  0  0
  9 18  1  0  0  0  0
  9 12  1  0  0  0  0
 10 16  1  0  0  0  0
 10 19  1  0  0  0  0
 11 14  1  0  0  0  0
 12  5  2  0  0  0  0
 13 11  1  0  0  0  0
 14 20  1  0  0  0  0
 15 17  2  0  0  0  0
 17  1  1  0  0  0  0
 18  7  1  0  0  0  0
 19 13  1  0  0  0  0
 21  6  1  0  0  0  0
 21  8  1  0  0  0  0
 22 18  1  0  0  0  0
 23 28  1  0  0  0  0
 23 24  1  0  0  0  0
 25 17  1  0  0  0  0
 25 28  1  0  0  0  0
 26 23  1  0  0  0  0
 27 25  1  0  0  0  0
 28 29  2  0  0  0  0
 30 27  1  0  0  0  0
 30 26  1  0  0  0  0
 31 32  1  0  0  0  0
 32 30  1  0  0  0  0
M  END
>  <MODEL>
1

>  <REMARK>
 VINA RESULT:      -8.9      0.000      0.000
  Name = 
  2 active torsions:
  status: ('A' for Active; 'I' for Inactive)
    1  A    between atoms: C_15  and  C_26
    2  A    between atoms: C_16  and  C_27
                            x       y       z     vdW  Elec       q    Type
                         _______ _______ _______ _____ _____    ______ ____

>  <TORSDO>
F 2

$$$$
=
 OpenBabel10262421103D

 32 37  0  0  1  0  0  0  0  0999 V2000
  185.3030  178.2880  142.5090 C   0  0  2  0  0  3  0  0  0  0  0  0
  187.5590  177.5540  141.7730 C   0  0  2  0  0  3  0  0  0  0  0  0
  184.5010  179.1720  143.4560 C   0  0  0  0  0  2  0  0  0  0  0  0
  186.8070  178.3550  142.8530 C   0  0  2  0  0  3  0  0  0  0  0  0
  188.9840  177.1110  142.0790 C   0  0  0  0  0  0  0  0  0  0  0  0
  189.2970  178.6780  137.1210 C   0  0  0  0  0  2  0  0  0  0  0  0
  187.4340  178.3860  140.4920 C   0  0  2  0  0  3  0  0  0  0  0  0
  190.8640  176.9700  138.6100 S   0  0  0  0  0  0  0  0  0  0  0  0
  189.7720  177.8320  139.8070 C   0  0  2  0  0  3  0  0  0  0  0  0
  189.2840  176.2650  143.2880 C   0  0  2  0  0  3  0  0  0  0  0  0
  187.0560  177.9520  144.3200 C   0  0  1  0  0  3  0  0  0  0  0  0
  189.9470  177.1790  141.1490 C   0  0  0  0  0  3  0  0  0  0  0  0
  188.4940  178.2680  144.6910 C   0  0  0  0  0  2  0  0  0  0  0  0
  186.1710  178.7770  145.2580 C   0  0  0  0  0  2  0  0  0  0  0  0
  185.9790  178.5200  140.1130 C   0  0  0  0  0  3  0  0  0  0  0  0
  188.3240  175.0930  143.4170 C   0  0  0  0  0  1  0  0  0  0  0  0
  185.0010  178.5630  141.0350 C   0  0  0  0  0  0  0  0  0  0  0  0
  188.3040  177.8510  139.3530 C   0  0  2  0  0  3  0  0  0  0  0  0
  189.3930  177.0410  144.6000 C   0  0  0  0  0  2  0  0  0  0  0  0
  184.6980  178.6770  144.8800 C   0  0  0  0  0  2  0  0  0  0  0  0
  189.9070  177.2900  137.0850 C   0  0  0  0  0  2  0  0  0  0  0  0
  188.1340  178.7430  138.1100 C   0  0  0  0  0  2  0  0  0  0  0  0
  182.1820  179.4940  138.4860 C   0  0  2  0  0  3  0  0  0  0  0  0
  180.9020  180.5150  139.1950 Cl  0  0  0  0  0  0  0  0  0  0  0  0
  183.5850  178.6510  140.5260 C   0  0  2  0  0  3  0  0  0  0  0  0
  181.6920  178.0560  138.3230 C   0  0  0  0  0  2  0  0  0  0  0  0
  183.0160  177.2550  140.2680 C   0  0  0  0  0  2  0  0  0  0  0  0
  183.4250  179.5650  139.3270 C   0  0  0  0  0  0  0  0  0  0  0  0
  184.2420  180.4460  139.1020 O   0  0  0  0  0  0  0  0  0  0  0  0
  181.6180  177.3350  139.6690 C   0  0  2  0  0  3  0  0  0  0  0  0
  179.8480  175.7180  140.3480 C   0  0  0  0  0  1  0  0  0  0  0  0
  181.0750  175.9300  139.4810 C   0  0  0  0  0  2  0  0  0  0  0  0
  1  4  1  0  0  0  0
  1  3  1  1  0  0  0
  2  5  1  1  0  0  0
  2  4  1  0  0  0  0
  3 20  1  0  0  0  0
  4 11  1  0  0  0  0
  5 10  1  0  0  0  0
  6 22  1  0  0  0  0
  7  2  1  0  0  0  0
  8  9  1  0  0  0  0
  9 12  1  0  0  0  0
 10 16  1  0  0  0  0
 10 19  1  0  0  0  0
 11 13  1  0  0  0  0
 11 14  1  0  0  0  0
 12  5  2  0  0  0  0
 15  7  1  0  0  0  0
 15 17  2  0  0  0  0
 17  1  1  0  0  0  0
 18  9  1  0  0  0  0
 18  7  1  0  0  0  0
 19 13  1  0  0  0  0
 20 14  1  0  0  0  0
 21  6  1  0  0  0  0
 21  8  1  0  0  0  0
 22 18  1  0  0  0  0
 23 24  1  0  0  0  0
 23 28  1  0  0  0  0
 25 17  1  0  0  0  0
 26 23  1  0  0  0  0
 26 30  1  0  0  0  0
 27 25  1  0  0  0  0
 28 25  1  0  0  0  0
 29 28  2  0  0  0  0
 30 27  1  0  0  0  0
 32 30  1  0  0  0  0
 32 31  1  0  0  0  0
M  END
>  <MODEL>
2

>  <REMARK>
 VINA RESULT:      -8.4      1.792      2.503
  Name = 
  2 active torsions:
  status: ('A' for Active; 'I' for Inactive)
    1  A    between atoms: C_15  and  C_26
    2  A    between atoms: C_16  and  C_27
                            x       y       z     vdW  Elec       q    Type
                         _______ _______ _______ _____ _____    ______ ____

>  <TORSDO>
F 2

$$$$
=
 OpenBabel10262421103D

 32 37  0  0  1  0  0  0  0  0999 V2000
  181.7590  178.4740  139.6400 C   0  0  2  0  0  3  0  0  0  0  0  0
  182.2130  178.5340  142.0820 C   0  0  2  0  0  3  0  0  0  0  0  0
  181.2240  179.2270  138.4290 C   0  0  0  0  0  2  0  0  0  0  0  0
  181.5240  179.2910  140.9300 C   0  0  2  0  0  3  0  0  0  0  0  0
  181.8020  178.8840  143.5070 C   0  0  0  0  0  0  0  0  0  0  0  0
  186.9780  178.4180  143.8710 C   0  0  0  0  0  2  0  0  0  0  0  0
  183.7160  178.6800  141.8200 C   0  0  2  0  0  3  0  0  0  0  0  0
  184.9800  178.2340  145.7590 S   0  0  0  0  0  0  0  0  0  0  0  0
  184.1970  178.9420  144.2570 C   0  0  2  0  0  3  0  0  0  0  0  0
  180.3660  178.7720  143.9430 C   0  0  2  0  0  3  0  0  0  0  0  0
  180.0290  179.6220  141.1070 C   0  0  1  0  0  3  0  0  0  0  0  0
  182.7130  178.9890  144.4850 C   0  0  0  0  0  3  0  0  0  0  0  0
  179.8670  180.6260  142.2350 C   0  0  0  0  0  2  0  0  0  0  0  0
  179.4750  180.2880  139.8450 C   0  0  0  0  0  2  0  0  0  0  0  0
  184.0660  178.0360  140.5010 C   0  0  0  0  0  3  0  0  0  0  0  0
  179.7410  177.4530  143.5190 C   0  0  0  0  0  1  0  0  0  0  0  0
  183.2070  178.0130  139.4660 C   0  0  0  0  0  0  0  0  0  0  0  0
  184.5700  178.1700  142.9820 C   0  0  2  0  0  3  0  0  0  0  0  0
  179.4850  179.9570  143.5500 C   0  0  0  0  0  2  0  0  0  0  0  0
  179.7290  179.4440  138.6030 C   0  0  0  0  0  2  0  0  0  0  0  0
  186.4700  177.5160  144.9790 C   0  0  0  0  0  2  0  0  0  0  0  0
  186.0610  178.3600  142.6500 C   0  0  0  0  0  2  0  0  0  0  0  0
  185.7880  176.8310  136.7730 C   0  0  2  0  0  3  0  0  0  0  0  0
  185.3270  177.2850  135.1110 Cl  0  0  0  0  0  0  0  0  0  0  0  0
  183.6590  177.2970  138.2180 C   0  0  2  0  0  3  0  0  0  0  0  0
  185.5350  175.3430  137.0130 C   0  0  0  0  0  2  0  0  0  0  0  0
  183.5050  175.7840  138.3770 C   0  0  0  0  0  2  0  0  0  0  0  0
  185.0530  177.6870  137.7650 C   0  0  0  0  0  0  0  0  0  0  0  0
  185.5430  178.7540  138.1040 O   0  0  0  0  0  0  0  0  0  0  0  0
  184.0420  175.0470  137.1580 C   0  0  2  0  0  3  0  0  0  0  0  0
  185.1170  172.8710  137.7200 C   0  0  0  0  0  1  0  0  0  0  0  0
  183.8190  173.5560  137.3370 C   0  0  0  0  0  2  0  0  0  0  0  0
  1  3  1  6  0  0  0
  1  4  1  0  0  0  0
  2  5  1  1  0  0  0
  3 20  1  0  0  0  0
  4 11  1  0  0  0  0
  4  2  1  0  0  0  0
  5 10  1  0  0  0  0
  5 12  2  0  0  0  0
  6 21  1  0  0  0  0
  7  2  1  0  0  0  0
  7 18  1  0  0  0  0
  9 12  1  0  0  0  0
  9  8  1  0  0  0  0
 11 13  1  0  0  0  0
 13 19  1  0  0  0  0
 14 11  1  0  0  0  0
 15  7  1  0  0  0  0
 16 10  1  0  0  0  0
 17  1  1  0  0  0  0
 17 15  2  0  0  0  0
 18  9  1  0  0  0  0
 19 10  1  0  0  0  0
 20 14  1  0  0  0  0
 21  8  1  0  0  0  0
 22 18  1  0  0  0  0
 22  6  1  0  0  0  0
 23 26  1  0  0  0  0
 23 28  1  0  0  0  0
 24 23  1  0  0  0  0
 25 27  1  0  0  0  0
 25 17  1  0  0  0  0
 26 30  1  0  0  0  0
 28 29  2  0  0  0  0
 28 25  1  0  0  0  0
 30 32  1  0  0  0  0
 30 27  1  0  0  0  0
 32 31  1  0  0  0  0
M  END
>  <MODEL>
3

>  <REMARK>
 VINA RESULT:      -8.1      3.894      7.906
  Name = 
  2 active torsions:
  status: ('A' for Active; 'I' for Inactive)
    1  A    between atoms: C_15  and  C_26
    2  A    between atoms: C_16  and  C_27
                            x       y       z     vdW  Elec       q    Type
                         _______ _______ _______ _____ _____    ______ ____

>  <TORSDO>
F 2

$$$$
=
 OpenBabel10262421103D

 32 37  0  0  1  0  0  0  0  0999 V2000
  188.6310  177.8350  144.0250 C   0  0  2  0  0  3  0  0  0  0  0  0
  186.2870  178.4360  144.5880 C   0  0  2  0  0  3  0  0  0  0  0  0
  189.8020  176.8980  144.2930 C   0  0  0  0  0  2  0  0  0  0  0  0
  187.4770  177.5530  145.0110 C   0  0  2  0  0  3  0  0  0  0  0  0
  185.1770  178.6680  145.6050 C   0  0  0  0  0  0  0  0  0  0  0  0
  182.5490  177.9130  141.1710 C   0  0  0  0  0  2  0  0  0  0  0  0
  185.7960  177.8440  143.2630 C   0  0  2  0  0  3  0  0  0  0  0  0
  181.8620  179.1770  143.5210 S   0  0  0  0  0  0  0  0  0  0  0  0
  183.4080  178.2510  143.8740 C   0  0  2  0  0  3  0  0  0  0  0  0
  185.4810  179.2670  146.9520 C   0  0  2  0  0  3  0  0  0  0  0  0
  187.9560  177.6800  146.4710 C   0  0  1  0  0  3  0  0  0  0  0  0
  183.8880  178.6520  145.2400 C   0  0  0  0  0  3  0  0  0  0  0  0
  186.8770  177.1560  147.4020 C   0  0  0  0  0  2  0  0  0  0  0  0
  189.1940  176.8110  146.7040 C   0  0  0  0  0  2  0  0  0  0  0  0
  186.8930  177.9300  142.2300 C   0  0  0  0  0  3  0  0  0  0  0  0
  186.3680  180.4970  146.8430 C   0  0  0  0  0  1  0  0  0  0  0  0
  188.1940  177.8400  142.5590 C   0  0  0  0  0  0  0  0  0  0  0  0
  184.4790  178.4630  142.7920 C   0  0  2  0  0  3  0  0  0  0  0  0
  186.0260  178.2790  147.9830 C   0  0  0  0  0  2  0  0  0  0  0  0
  190.3040  177.1290  145.7100 C   0  0  0  0  0  2  0  0  0  0  0  0
  181.9770  179.2160  141.6960 C   0  0  0  0  0  2  0  0  0  0  0  0
  184.0450  177.8110  141.4660 C   0  0  0  0  0  2  0  0  0  0  0  0
  190.7630  176.5890  139.8860 C   0  0  2  0  0  3  0  0  0  0  0  0
  192.3690  177.3480  140.0450 Cl  0  0  0  0  0  0  0  0  0  0  0  0
  189.1940  177.9890  141.4410 C   0  0  2  0  0  3  0  0  0  0  0  0
  190.0020  177.1860  138.7030 C   0  0  0  0  0  2  0  0  0  0  0  0
  188.5180  178.5260  140.1790 C   0  0  0  0  0  2  0  0  0  0  0  0
  189.9950  176.7300  141.1700 C   0  0  0  0  0  0  0  0  0  0  0  0
  190.1230  175.8750  142.0330 O   0  0  0  0  0  0  0  0  0  0  0  0
  189.4990  178.5950  139.0170 C   0  0  2  0  0  3  0  0  0  0  0  0
  189.0520  178.3240  136.5810 C   0  0  0  0  0  1  0  0  0  0  0  0
  188.7990  179.1830  137.8060 C   0  0  0  0  0  2  0  0  0  0  0  0
  1  3  1  6  0  0  0
  1  4  1  0  0  0  0
  2  4  1  0  0  0  0
  2  5  1  1  0  0  0
  3 20  1  0  0  0  0
  4 11  1  0  0  0  0
  5 10  1  0  0  0  0
  6 22  1  0  0  0  0
  6 21  1  0  0  0  0
  7  2  1  0  0  0  0
  8  9  1  0  0  0  0
  9 12  1  0  0  0  0
 10 19  1  0  0  0  0
 11 14  1  0  0  0  0
 11 13  1  0  0  0  0
 12  5  2  0  0  0  0
 13 19  1  0  0  0  0
 15 17  2  0  0  0  0
 15  7  1  0  0  0  0
 16 10  1  0  0  0  0
 17  1  1  0  0  0  0
 18  7  1  0  0  0  0
 18  9  1  0  0  0  0
 20 14  1  0  0  0  0
 21  8  1  0  0  0  0
 22 18  1  0  0  0  0
 23 24  1  0  0  0  0
 23 28  1  0  0  0  0
 25 17  1  0  0  0  0
 26 30  1  0  0  0  0
 26 23  1  0  0  0  0
 27 25  1  0  0  0  0
 28 25  1  0  0  0  0
 28 29  2  0  0  0  0
 30 27  1  0  0  0  0
 31 32  1  0  0  0  0
 32 30  1  0  0  0  0
M  END
>  <MODEL>
4

>  <REMARK>
 VINA RESULT:      -7.9      3.288      6.376
  Name = 
  2 active torsions:
  status: ('A' for Active; 'I' for Inactive)
    1  A    between atoms: C_15  and  C_26
    2  A    between atoms: C_16  and  C_27
                            x       y       z     vdW  Elec       q    Type
                         _______ _______ _______ _____ _____    ______ ____

>  <TORSDO>
F 2

$$$$
=
 OpenBabel10262421103D

 32 37  0  0  1  0  0  0  0  0999 V2000
  187.0910  178.1030  139.7940 C   0  0  2  0  0  3  0  0  0  0  0  0
  185.1130  177.7540  138.3310 C   0  0  2  0  0  3  0  0  0  0  0  0
  188.4850  178.7020  139.9240 C   0  0  0  0  0  2  0  0  0  0  0  0
  186.5710  178.2530  138.3480 C   0  0  2  0  0  3  0  0  0  0  0  0
  184.4970  177.4070  136.9820 C   0  0  0  0  0  0  0  0  0  0  0  0
  180.6350  179.9230  139.4100 C   0  0  0  0  0  2  0  0  0  0  0  0
  184.3200  178.8010  139.1210 C   0  0  2  0  0  3  0  0  0  0  0  0
  180.6290  178.1270  137.3210 S   0  0  0  0  0  0  0  0  0  0  0  0
  182.3800  178.6280  137.5570 C   0  0  2  0  0  3  0  0  0  0  0  0
  185.1340  176.3780  136.0870 C   0  0  2  0  0  3  0  0  0  0  0  0
  187.5430  177.6020  137.3430 C   0  0  1  0  0  3  0  0  0  0  0  0
  183.2350  177.7490  136.6880 C   0  0  0  0  0  3  0  0  0  0  0  0
  187.1350  177.9830  135.9300 C   0  0  0  0  0  2  0  0  0  0  0  0
  188.9620  178.1370  137.5480 C   0  0  0  0  0  2  0  0  0  0  0  0
  184.8270  178.8580  140.5410 C   0  0  0  0  0  3  0  0  0  0  0  0
  185.5050  175.1130  136.8430 C   0  0  0  0  0  1  0  0  0  0  0  0
  186.1150  178.6240  140.8500 C   0  0  0  0  0  0  0  0  0  0  0  0
  182.8080  178.5860  139.0320 C   0  0  2  0  0  3  0  0  0  0  0  0
  186.3100  176.8940  135.2570 C   0  0  0  0  0  2  0  0  0  0  0  0
  189.4290  177.9640  138.9880 C   0  0  0  0  0  2  0  0  0  0  0  0
  179.9760  178.6360  138.9520 C   0  0  0  0  0  2  0  0  0  0  0  0
  182.0820  179.6790  139.8370 C   0  0  0  0  0  2  0  0  0  0  0  0
  185.6490  177.8970  144.6670 C   0  0  2  0  0  3  0  0  0  0  0  0
  185.6800  179.3700  145.6720 Cl  0  0  0  0  0  0  0  0  0  0  0  0
  186.4860  178.6650  142.3110 C   0  0  2  0  0  3  0  0  0  0  0  0
  186.9620  177.1280  144.8010 C   0  0  0  0  0  2  0  0  0  0  0  0
  187.7640  177.8660  142.5670 C   0  0  0  0  0  2  0  0  0  0  0  0
  185.3570  178.2530  143.2360 C   0  0  0  0  0  0  0  0  0  0  0  0
  184.1930  178.3220  142.8690 O   0  0  0  0  0  0  0  0  0  0  0  0
  188.0970  177.8260  144.0520 C   0  0  2  0  0  3  0  0  0  0  0  0
  189.7440  176.2760  143.0060 C   0  0  0  0  0  1  0  0  0  0  0  0
  189.3990  177.0700  144.2520 C   0  0  0  0  0  2  0  0  0  0  0  0
  1  3  1  6  0  0  0
  1 17  1  0  0  0  0
  2  5  1  6  0  0  0
  2  4  1  0  0  0  0
  2  7  1  0  0  0  0
  4  1  1  0  0  0  0
  6 22  1  0  0  0  0
  7 15  1  0  0  0  0
  8  9  1  0  0  0  0
  8 21  1  0  0  0  0
  9 18  1  0  0  0  0
 10 16  1  0  0  0  0
 10  5  1  0  0  0  0
 11 14  1  0  0  0  0
 11  4  1  0  0  0  0
 12  5  2  0  0  0  0
 12  9  1  0  0  0  0
 13 11  1  0  0  0  0
 14 20  1  0  0  0  0
 15 17  2  0  0  0  0
 17 25  1  0  0  0  0
 18  7  1  0  0  0  0
 18 22  1  0  0  0  0
 19 13  1  0  0  0  0
 19 10  1  0  0  0  0
 20  3  1  0  0  0  0
 21  6  1  0  0  0  0
 23 26  1  0  0  0  0
 23 24  1  0  0  0  0
 25 27  1  0  0  0  0
 25 28  1  0  0  0  0
 27 30  1  0  0  0  0
 28 23  1  0  0  0  0
 29 28  2  0  0  0  0
 30 32  1  0  0  0  0
 30 26  1  0  0  0  0
 31 32  1  0  0  0  0
M  END
>  <MODEL>
5

>  <REMARK>
 VINA RESULT:      -7.7      2.760      6.933
  Name = 
  2 active torsions:
  status: ('A' for Active; 'I' for Inactive)
    1  A    between atoms: C_15  and  C_26
    2  A    between atoms: C_16  and  C_27
                            x       y       z     vdW  Elec       q    Type
                         _______ _______ _______ _____ _____    ______ ____

>  <TORSDO>
F 2

$$$$
=
 OpenBabel10262421103D

 32 37  0  0  1  0  0  0  0  0999 V2000
  183.7760  178.2290  142.3020 C   0  0  2  0  0  3  0  0  0  0  0  0
  186.2250  177.9180  142.5760 C   0  0  2  0  0  3  0  0  0  0  0  0
  182.5500  179.0510  142.6780 C   0  0  0  0  0  2  0  0  0  0  0  0
  185.0070  178.6950  143.1090 C   0  0  2  0  0  3  0  0  0  0  0  0
  187.4760  177.8730  143.4460 C   0  0  0  0  0  0  0  0  0  0  0  0
  189.4130  178.6120  138.6670 C   0  0  0  0  0  2  0  0  0  0  0  0
  186.4730  178.4720  141.1680 C   0  0  2  0  0  3  0  0  0  0  0  0
  190.5330  177.5840  140.9640 S   0  0  0  0  0  0  0  0  0  0  0  0
  188.9500  178.3620  141.4740 C   0  0  2  0  0  3  0  0  0  0  0  0
  187.4170  177.3330  144.8500 C   0  0  2  0  0  3  0  0  0  0  0  0
  184.7350  178.6140  144.6250 C   0  0  1  0  0  3  0  0  0  0  0  0
  188.6980  178.0020  142.9110 C   0  0  0  0  0  3  0  0  0  0  0  0
  185.8580  179.3090  145.3750 C   0  0  0  0  0  2  0  0  0  0  0  0
  183.4460  179.3590  144.9780 C   0  0  0  0  0  2  0  0  0  0  0  0
  185.2700  178.2020  140.2980 C   0  0  0  0  0  3  0  0  0  0  0  0
  186.6690  176.0120  144.9240 C   0  0  0  0  0  1  0  0  0  0  0  0
  184.0200  178.1740  140.7940 C   0  0  0  0  0  0  0  0  0  0  0  0
  187.7810  177.9660  140.5570 C   0  0  2  0  0  3  0  0  0  0  0  0
  186.8990  178.3240  145.8930 C   0  0  0  0  0  2  0  0  0  0  0  0
  182.2620  178.8610  144.1590 C   0  0  0  0  0  2  0  0  0  0  0  0
  190.1920  177.4140  139.1750 C   0  0  0  0  0  2  0  0  0  0  0  0
  187.9650  178.5730  139.1540 C   0  0  0  0  0  2  0  0  0  0  0  0
  181.8770  178.6050  137.5480 C   0  0  2  0  0  3  0  0  0  0  0  0
  180.1390  178.8270  137.8780 Cl  0  0  0  0  0  0  0  0  0  0  0  0
  182.9090  177.8470  139.8280 C   0  0  2  0  0  3  0  0  0  0  0  0
  182.1500  177.1910  137.0380 C   0  0  0  0  0  2  0  0  0  0  0  0
  183.1210  176.4660  139.2080 C   0  0  0  0  0  2  0  0  0  0  0  0
  182.6810  178.9180  138.7790 C   0  0  0  0  0  0  0  0  0  0  0  0
  183.0410  180.0690  138.9740 O   0  0  0  0  0  0  0  0  0  0  0  0
  182.0540  176.1630  138.1660 C   0  0  2  0  0  3  0  0  0  0  0  0
  183.7550  174.4480  137.5540 C   0  0  0  0  0  1  0  0  0  0  0  0
  182.2720  174.7640  137.6180 C   0  0  0  0  0  2  0  0  0  0  0  0
  1  3  1  6  0  0  0
  1  4  1  0  0  0  0
  2  4  1  0  0  0  0
  2  5  1  1  0  0  0
  3 20  1  0  0  0  0
  4 11  1  0  0  0  0
  5 10  1  0  0  0  0
  6 22  1  0  0  0  0
  6 21  1  0  0  0  0
  7  2  1  0  0  0  0
  8  9  1  0  0  0  0
  9 12  1  0  0  0  0
 10 16  1  0  0  0  0
 10 19  1  0  0  0  0
 11 14  1  0  0  0  0
 11 13  1  0  0  0  0
 12  5  2  0  0  0  0
 13 19  1  0  0  0  0
 15 17  2  0  0  0  0
 15  7  1  0  0  0  0
 17  1  1  0  0  0  0
 18  7  1  0  0  0  0
 18  9  1  0  0  0  0
 20 14  1  0  0  0  0
 21  8  1  0  0  0  0
 22 18  1  0  0  0  0
 23 24  1  0  0  0  0
 23 28  1  0  0  0  0
 25 17  1  0  0  0  0
 26 23  1  0  0  0  0
 26 30  1  0  0  0  0
 27 25  1  0  0  0  0
 28 29  2  0  0  0  0
 28 25  1  0  0  0  0
 30 27  1  0  0  0  0
 31 32  1  0  0  0  0
 32 30  1  0  0  0  0
M  END
>  <MODEL>
6

>  <REMARK>
 VINA RESULT:      -7.7      2.197      3.835
  Name = 
  2 active torsions:
  status: ('A' for Active; 'I' for Inactive)
    1  A    between atoms: C_15  and  C_26
    2  A    between atoms: C_16  and  C_27
                            x       y       z     vdW  Elec       q    Type
                         _______ _______ _______ _____ _____    ______ ____

>  <TORSDO>
F 2

$$$$
=
 OpenBabel10262421103D

 32 37  0  0  1  0  0  0  0  0999 V2000
  183.0200  176.9910  138.4650 C   0  0  2  0  0  3  0  0  0  0  0  0
  181.2770  178.3020  137.2780 C   0  0  2  0  0  3  0  0  0  0  0  0
  184.2680  176.1260  138.3370 C   0  0  0  0  0  2  0  0  0  0  0  0
  182.4430  177.3170  137.0710 C   0  0  2  0  0  3  0  0  0  0  0  0
  180.2790  178.4710  136.1390 C   0  0  0  0  0  0  0  0  0  0  0  0
  180.9870  183.3590  137.7950 C   0  0  0  0  0  2  0  0  0  0  0  0
  181.9320  179.6140  137.7230 C   0  0  2  0  0  3  0  0  0  0  0  0
  178.9310  182.1740  136.3950 S   0  0  0  0  0  0  0  0  0  0  0  0
  180.3170  180.9690  136.3820 C   0  0  2  0  0  3  0  0  0  0  0  0
  179.5260  177.2870  135.5940 C   0  0  2  0  0  3  0  0  0  0  0  0
  182.1350  176.0250  136.2870 C   0  0  1  0  0  3  0  0  0  0  0  0
  179.8060  179.6800  135.8050 C   0  0  0  0  0  3  0  0  0  0  0  0
  181.8100  176.3770  134.8460 C   0  0  0  0  0  2  0  0  0  0  0  0
  183.3650  175.1160  136.2490 C   0  0  0  0  0  2  0  0  0  0  0  0
  182.6610  179.4010  139.0270 C   0  0  0  0  0  3  0  0  0  0  0  0
  178.9310  176.4300  136.7000 C   0  0  0  0  0  1  0  0  0  0  0  0
  183.2380  178.2270  139.3400 C   0  0  0  0  0  0  0  0  0  0  0  0
  180.9420  180.7800  137.7730 C   0  0  2  0  0  3  0  0  0  0  0  0
  180.3080  176.4370  134.5940 C   0  0  0  0  0  2  0  0  0  0  0  0
  183.8950  174.8220  137.6470 C   0  0  0  0  0  2  0  0  0  0  0  0
  179.4780  183.2060  137.8020 C   0  0  0  0  0  2  0  0  0  0  0  0
  181.6740  182.0600  138.2160 C   0  0  0  0  0  2  0  0  0  0  0  0
  185.8880  179.0890  142.0870 C   0  0  2  0  0  3  0  0  0  0  0  0
  186.7600  177.6580  142.6970 Cl  0  0  0  0  0  0  0  0  0  0  0  0
  183.8950  178.1270  140.6930 C   0  0  2  0  0  3  0  0  0  0  0  0
  184.8520  179.5610  143.1060 C   0  0  0  0  0  2  0  0  0  0  0  0
  182.9580  178.6370  141.7880 C   0  0  0  0  0  2  0  0  0  0  0  0
  185.2610  178.7840  140.7560 C   0  0  0  0  0  0  0  0  0  0  0  0
  185.9140  178.9620  139.7390 O   0  0  0  0  0  0  0  0  0  0  0  0
  183.6430  178.6250  143.1470 C   0  0  2  0  0  3  0  0  0  0  0  0
  181.2490  178.6730  143.8340 C   0  0  0  0  0  1  0  0  0  0  0  0
  182.6600  179.0860  144.2070 C   0  0  0  0  0  2  0  0  0  0  0  0
  1  3  1  6  0  0  0
  1 17  1  0  0  0  0
  2  5  1  6  0  0  0
  2  7  1  0  0  0  0
  4  2  1  0  0  0  0
  4  1  1  0  0  0  0
  6 21  1  0  0  0  0
  6 22  1  0  0  0  0
  7 18  1  0  0  0  0
  7 15  1  0  0  0  0
  8 21  1  0  0  0  0
  9  8  1  0  0  0  0
  9 18  1  0  0  0  0
 10  5  1  0  0  0  0
 10 16  1  0  0  0  0
 11  4  1  0  0  0  0
 12  5  2  0  0  0  0
 12  9  1  0  0  0  0
 13 11  1  0  0  0  0
 14 11  1  0  0  0  0
 14 20  1  0  0  0  0
 15 17  2  0  0  0  0
 17 25  1  0  0  0  0
 18 22  1  0  0  0  0
 19 13  1  0  0  0  0
 19 10  1  0  0  0  0
 20  3  1  0  0  0  0
 23 24  1  0  0  0  0
 23 26  1  0  0  0  0
 25 28  1  0  0  0  0
 25 27  1  0  0  0  0
 26 30  1  0  0  0  0
 27 30  1  0  0  0  0
 28 23  1  0  0  0  0
 29 28  2  0  0  0  0
 30 32  1  0  0  0  0
 31 32  1  0  0  0  0
M  END
>  <MODEL>
7

>  <REMARK>
 VINA RESULT:      -7.4      4.585      9.015
  Name = 
  2 active torsions:
  status: ('A' for Active; 'I' for Inactive)
    1  A    between atoms: C_15  and  C_26
    2  A    between atoms: C_16  and  C_27
                            x       y       z     vdW  Elec       q    Type
                         _______ _______ _______ _____ _____    ______ ____

>  <TORSDO>
F 2

$$$$
=
 OpenBabel10262421103D

 32 37  0  0  1  0  0  0  0  0999 V2000
  185.2520  178.3400  142.7970 C   0  0  2  0  0  3  0  0  0  0  0  0
  187.4980  177.6160  142.0200 C   0  0  2  0  0  3  0  0  0  0  0  0
  184.4630  179.2020  143.7740 C   0  0  0  0  0  2  0  0  0  0  0  0
  186.7600  178.3920  143.1270 C   0  0  2  0  0  3  0  0  0  0  0  0
  188.9250  177.1610  142.3010 C   0  0  0  0  0  0  0  0  0  0  0  0
  189.1950  178.8540  137.3820 C   0  0  0  0  0  2  0  0  0  0  0  0
  187.3640  178.4820  140.7620 C   0  0  2  0  0  3  0  0  0  0  0  0
  190.7700  177.1020  138.8100 S   0  0  0  0  0  0  0  0  0  0  0  0
  189.6930  177.9370  140.0400 C   0  0  2  0  0  3  0  0  0  0  0  0
  189.2330  176.2830  143.4840 C   0  0  2  0  0  3  0  0  0  0  0  0
  187.0210  177.9510  144.5810 C   0  0  1  0  0  3  0  0  0  0  0  0
  189.8780  177.2500  141.3630 C   0  0  0  0  0  3  0  0  0  0  0  0
  188.4640  178.2520  144.9460 C   0  0  0  0  0  2  0  0  0  0  0  0
  186.1480  178.7550  145.5480 C   0  0  0  0  0  2  0  0  0  0  0  0
  185.9060  178.6300  140.4010 C   0  0  0  0  0  3  0  0  0  0  0  0
  188.2700  175.1120  143.5930 C   0  0  0  0  0  1  0  0  0  0  0  0
  184.9370  178.6530  141.3340 C   0  0  0  0  0  0  0  0  0  0  0  0
  188.2200  177.9730  139.6010 C   0  0  2  0  0  3  0  0  0  0  0  0
  189.3580  177.0250  144.8150 C   0  0  0  0  0  2  0  0  0  0  0  0
  184.6720  178.6690  145.1830 C   0  0  0  0  0  2  0  0  0  0  0  0
  189.7990  177.4650  137.3040 C   0  0  0  0  0  2  0  0  0  0  0  0
  188.0420  178.8970  138.3830 C   0  0  0  0  0  2  0  0  0  0  0  0
  181.7730  177.5420  139.3170 C   0  0  2  0  0  3  0  0  0  0  0  0
  181.1660  178.8020  138.2100 Cl  0  0  0  0  0  0  0  0  0  0  0  0
  183.5160  178.7580  140.8400 C   0  0  2  0  0  3  0  0  0  0  0  0
  180.8780  177.4360  140.5510 C   0  0  0  0  0  2  0  0  0  0  0  0
  182.5290  178.6020  141.9980 C   0  0  0  0  0  2  0  0  0  0  0  0
  183.2010  177.8240  139.6880 C   0  0  0  0  0  0  0  0  0  0  0  0
  184.0950  177.3870  138.9780 O   0  0  0  0  0  0  0  0  0  0  0  0
  181.0910  178.6170  141.4980 C   0  0  2  0  0  3  0  0  0  0  0  0
  180.9220  178.6330  143.9840 C   0  0  0  0  0  1  0  0  0  0  0  0
  180.1490  178.5140  142.6840 C   0  0  0  0  0  2  0  0  0  0  0  0
  1  4  1  0  0  0  0
  1  3  1  1  0  0  0
  2  5  1  1  0  0  0
  2  4  1  0  0  0  0
  3 20  1  0  0  0  0
  4 11  1  0  0  0  0
  5 10  1  0  0  0  0
  6 22  1  0  0  0  0
  7  2  1  0  0  0  0
  8  9  1  0  0  0  0
  9 12  1  0  0  0  0
 10 16  1  0  0  0  0
 10 19  1  0  0  0  0
 11 13  1  0  0  0  0
 11 14  1  0  0  0  0
 12  5  2  0  0  0  0
 15  7  1  0  0  0  0
 15 17  2  0  0  0  0
 17  1  1  0  0  0  0
 18  9  1  0  0  0  0
 18  7  1  0  0  0  0
 19 13  1  0  0  0  0
 20 14  1  0  0  0  0
 21  6  1  0  0  0  0
 21  8  1  0  0  0  0
 22 18  1  0  0  0  0
 23 28  1  0  0  0  0
 23 26  1  0  0  0  0
 24 23  1  0  0  0  0
 25 17  1  0  0  0  0
 25 27  1  0  0  0  0
 26 30  1  0  0  0  0
 28 25  1  0  0  0  0
 29 28  2  0  0  0  0
 30 27  1  0  0  0  0
 30 32  1  0  0  0  0
 32 31  1  0  0  0  0
M  END
>  <MODEL>
8

>  <REMARK>
 VINA RESULT:      -7.3      1.830      2.699
  Name = 
  2 active torsions:
  status: ('A' for Active; 'I' for Inactive)
    1  A    between atoms: C_15  and  C_26
    2  A    between atoms: C_16  and  C_27
                            x       y       z     vdW  Elec       q    Type
                         _______ _______ _______ _____ _____    ______ ____

>  <TORSDO>
F 2

$$$$
=
 OpenBabel10262421103D

 32 37  0  0  1  0  0  0  0  0999 V2000
  190.1290  176.7530  140.0360 C   0  0  2  0  0  3  0  0  0  0  0  0
  188.2240  176.8350  138.4440 C   0  0  2  0  0  3  0  0  0  0  0  0
  191.5800  177.1350  140.3020 C   0  0  0  0  0  2  0  0  0  0  0  0
  189.7310  177.1200  138.5900 C   0  0  2  0  0  3  0  0  0  0  0  0
  187.6570  176.7160  137.0350 C   0  0  0  0  0  0  0  0  0  0  0  0
  184.0150  179.4890  139.5220 C   0  0  0  0  0  2  0  0  0  0  0  0
  187.5270  177.8970  139.3020 C   0  0  2  0  0  3  0  0  0  0  0  0
  183.9060  177.9320  137.2520 S   0  0  0  0  0  0  0  0  0  0  0  0
  185.6880  178.1560  137.6310 C   0  0  2  0  0  3  0  0  0  0  0  0
  188.2080  175.7040  136.0670 C   0  0  2  0  0  3  0  0  0  0  0  0
  190.6710  176.4450  137.5710 C   0  0  1  0  0  3  0  0  0  0  0  0
  186.4740  177.2600  136.7160 C   0  0  0  0  0  3  0  0  0  0  0  0
  190.4120  177.0210  136.1900 C   0  0  0  0  0  2  0  0  0  0  0  0
  192.1320  176.7530  137.9070 C   0  0  0  0  0  2  0  0  0  0  0  0
  187.9430  177.7380  140.7440 C   0  0  0  0  0  3  0  0  0  0  0  0
  188.3550  174.3300  136.6980 C   0  0  0  0  0  1  0  0  0  0  0  0
  189.1650  177.2960  141.0910 C   0  0  0  0  0  0  0  0  0  0  0  0
  186.0090  177.9060  139.1130 C   0  0  2  0  0  3  0  0  0  0  0  0
  189.4940  176.1320  135.3600 C   0  0  0  0  0  2  0  0  0  0  0  0
  192.4760  176.3700  139.3410 C   0  0  0  0  0  2  0  0  0  0  0  0
  183.2210  178.3600  138.8930 C   0  0  0  0  0  2  0  0  0  0  0  0
  185.3850  179.0020  139.9940 C   0  0  0  0  0  2  0  0  0  0  0  0
  190.6190  178.3210  144.5770 C   0  0  2  0  0  3  0  0  0  0  0  0
  191.6800  177.0770  145.2890 Cl  0  0  0  0  0  0  0  0  0  0  0  0
  189.4400  177.1360  142.5650 C   0  0  2  0  0  3  0  0  0  0  0  0
  189.2590  178.3290  145.2730 C   0  0  0  0  0  2  0  0  0  0  0  0
  188.1400  177.1930  143.3680 C   0  0  0  0  0  2  0  0  0  0  0  0
  190.4840  178.1000  143.0960 C   0  0  0  0  0  0  0  0  0  0  0  0
  191.3000  178.6110  142.3440 O   0  0  0  0  0  0  0  0  0  0  0  0
  188.4140  177.1230  144.8630 C   0  0  2  0  0  3  0  0  0  0  0  0
  186.0400  177.8780  144.8230 C   0  0  0  0  0  1  0  0  0  0  0  0
  187.0950  177.1280  145.6140 C   0  0  0  0  0  2  0  0  0  0  0  0
  1  3  1  1  0  0  0
  1 17  1  0  0  0  0
  2  5  1  6  0  0  0
  2  4  1  0  0  0  0
  2  7  1  0  0  0  0
  4  1  1  0  0  0  0
  6 22  1  0  0  0  0
  7 15  1  0  0  0  0
  8  9  1  0  0  0  0
  8 21  1  0  0  0  0
  9 18  1  0  0  0  0
 10 16  1  0  0  0  0
 10  5  1  0  0  0  0
 11 14  1  0  0  0  0
 11  4  1  0  0  0  0
 12  5  2  0  0  0  0
 12  9  1  0  0  0  0
 13 11  1  0  0  0  0
 14 20  1  0  0  0  0
 15 17  2  0  0  0  0
 17 25  1  0  0  0  0
 18  7  1  0  0  0  0
 18 22  1  0  0  0  0
 19 10  1  0  0  0  0
 19 13  1  0  0  0  0
 20  3  1  0  0  0  0
 21  6  1  0  0  0  0
 23 26  1  0  0  0  0
 23 24  1  0  0  0  0
 25 28  1  0  0  0  0
 25 27  1  0  0  0  0
 27 30  1  0  0  0  0
 28 23  1  0  0  0  0
 29 28  2  0  0  0  0
 30 26  1  0  0  0  0
 30 32  1  0  0  0  0
 31 32  1  0  0  0  0
M  END
>  <MODEL>
9

>  <REMARK>
 VINA RESULT:      -7.1      3.090      6.629
  Name = 
  2 active torsions:
  status: ('A' for Active; 'I' for Inactive)
    1  A    between atoms: C_15  and  C_26
    2  A    between atoms: C_16  and  C_27
                            x       y       z     vdW  Elec       q    Type
                         _______ _______ _______ _____ _____    ______ ____

>  <TORSDO>
F 2

$$$$
