=
 OpenBabel10262421263D

 32 37  0  0  1  0  0  0  0  0999 V2000
  189.4010  176.8840  142.5530 C   0  0  2  0  0  3  0  0  0  0  0  0
  187.1670  177.8040  138.4190 C   0  0  0  0  0  2  0  0  0  0  0  0
  192.2690  174.9810  137.2990 C   0  0  0  0  0  3  0  0  0  0  0  0
  191.3980  173.9560  137.1600 C   0  0  0  0  0  3  0  0  0  0  0  0
  187.7210  178.5550  140.7230 C   0  0  2  0  0  3  0  0  0  0  0  0
  189.7600  178.5400  139.1000 C   0  0  0  0  0  2  0  0  0  0  0  0
  189.7250  176.8110  141.0690 C   0  0  0  0  0  2  0  0  0  0  0  0
  191.8150  176.4250  137.4070 C   0  0  0  0  0  2  0  0  0  0  0  0
  189.6620  177.7960  137.7590 C   0  0  1  0  0  3  0  0  0  0  0  0
  190.3550  176.4630  137.8330 C   0  0  1  0  0  3  0  0  0  0  0  0
  188.1680  175.9700  137.1050 N   0  0  0  0  0  0  0  0  0  0  0  0
  187.8920  176.9540  142.7620 C   0  0  0  0  0  2  0  0  0  0  0  0
  188.9730  177.8380  140.2130 C   0  0  1  0  0  0  0  0  0  0  0  0
  187.3140  178.2400  142.1720 C   0  0  0  0  0  2  0  0  0  0  0  0
  189.8920  174.1550  137.1840 C   0  0  0  0  0  2  0  0  0  0  0  0
  189.5620  175.6160  136.8890 C   0  0  2  0  0  3  0  0  0  0  0  0
  187.5760  177.3420  139.8150 C   0  0  2  0  0  3  0  0  0  0  0  0
  188.2140  177.4130  137.3700 C   0  0  1  0  0  3  0  0  0  0  0  0
  190.2660  178.2770  143.3560 S   0  0  0  0  0  0  0  0  0  0  0  0
  191.4310  177.1760  144.2170 C   0  0  0  0  0  2  0  0  0  0  0  0
  191.1090  177.1040  145.6750 C   0  0  0  0  0  0  0  0  0  0  0  0
  189.7400  177.4670  146.1540 C   0  0  0  0  0  1  0  0  0  0  0  0
  191.9780  176.7980  146.4800 O   0  0  0  0  0  0  0  0  0  0  0  0
  187.4710  175.8210  135.8320 C   0  0  0  0  0  2  0  0  0  0  0  0
  187.9520  173.3600  134.5940 O   0  0  0  0  0  1  0  0  0  0  0  0
  185.8560  172.2870  135.2500 C   0  0  2  0  0  3  0  0  0  0  0  0
  186.4100  174.7260  135.9190 C   0  0  2  0  0  3  0  0  0  0  0  0
  185.1050  173.2570  137.4940 C   0  0  0  0  0  2  0  0  0  0  0  0
  184.6780  172.5510  136.1940 C   0  0  0  0  0  2  0  0  0  0  0  0
  186.7700  171.2210  135.8440 C   0  0  0  0  0  1  0  0  0  0  0  0
  186.3260  174.1710  137.3360 C   0  0  0  0  0  2  0  0  0  0  0  0
  186.5970  173.5950  134.8830 C   0  0  1  0  0  3  0  0  0  0  0  0
  1 12  1  0  0  0  0
  1 19  1  6  0  0  0
  3  8  1  0  0  0  0
  4 15  1  0  0  0  0
  4  3  2  0  0  0  0
  5 14  1  1  0  0  0
  7  1  1  0  0  0  0
  9 10  1  0  0  0  0
  9  6  1  1  0  0  0
 10  8  1  6  0  0  0
 11 18  1  0  0  0  0
 13  6  1  6  0  0  0
 13  5  1  0  0  0  0
 13  7  1  0  0  0  0
 14 12  1  0  0  0  0
 16 11  1  0  0  0  0
 16 15  1  1  0  0  0
 16 10  1  0  0  0  0
 17  2  1  6  0  0  0
 17 13  1  0  0  0  0
 17  5  1  0  0  0  0
 18  9  1  0  0  0  0
 18  2  1  1  0  0  0
 19 20  1  0  0  0  0
 20 21  1  0  0  0  0
 21 22  1  0  0  0  0
 21 23  2  0  0  0  0
 24 11  1  0  0  0  0
 26 30  1  1  0  0  0
 26 29  1  0  0  0  0
 27 24  1  1  0  0  0
 27 31  1  0  0  0  0
 29 28  1  0  0  0  0
 31 28  1  0  0  0  0
 32 25  1  1  0  0  0
 32 26  1  0  0  0  0
 32 27  1  0  0  0  0
M  END
>  <MODEL>
1

>  <REMARK>
 VINA RESULT:      -6.6      0.000      0.000
  Name = 
  5 active torsions:
  status: ('A' for Active; 'I' for Inactive)
    1  A    between atoms: C_1  and  C_10
    2  A    between atoms: C_2  and  S_24
    3  A    between atoms: C_10  and  S_24
    4  A    between atoms: C_11  and  C_27
    5  A    between atoms: N_16  and  C_27
                            x       y       z     vdW  Elec       q    Type
                         _______ _______ _______ _____ _____    ______ ____

>  <TORSDO>
F 5

$$$$
=
 OpenBabel10262421263D

 32 37  0  0  1  0  0  0  0  0999 V2000
  189.9090  176.4050  142.5220 C   0  0  2  0  0  3  0  0  0  0  0  0
  187.4750  177.9860  138.7150 C   0  0  0  0  0  2  0  0  0  0  0  0
  191.8410  174.3980  136.8920 C   0  0  0  0  0  3  0  0  0  0  0  0
  190.7880  173.5540  136.8000 C   0  0  0  0  0  3  0  0  0  0  0  0
  188.3860  178.4670  140.9780 C   0  0  2  0  0  3  0  0  0  0  0  0
  190.2140  178.2070  139.1380 C   0  0  0  0  0  2  0  0  0  0  0  0
  190.0640  176.3790  141.0100 C   0  0  0  0  0  2  0  0  0  0  0  0
  191.6700  175.8890  137.1230 C   0  0  0  0  0  2  0  0  0  0  0  0
  189.8480  177.5870  137.7820 C   0  0  1  0  0  3  0  0  0  0  0  0
  190.2920  176.1520  137.7110 C   0  0  1  0  0  3  0  0  0  0  0  0
  187.9890  176.1010  137.2070 N   0  0  0  0  0  0  0  0  0  0  0  0
  188.4680  176.7230  142.9020 C   0  0  0  0  0  2  0  0  0  0  0  0
  189.4280  177.5790  140.2960 C   0  0  1  0  0  0  0  0  0  0  0  0
  188.0760  178.1280  142.4450 C   0  0  0  0  0  2  0  0  0  0  0  0
  189.3540  174.0120  137.0020 C   0  0  0  0  0  2  0  0  0  0  0  0
  189.2660  175.5240  136.8190 C   0  0  2  0  0  3  0  0  0  0  0  0
  187.9320  177.3640  140.0310 C   0  0  2  0  0  3  0  0  0  0  0  0
  188.3230  177.4920  137.5380 C   0  0  1  0  0  3  0  0  0  0  0  0
  191.0890  177.5660  143.2930 S   0  0  0  0  0  0  0  0  0  0  0  0
  191.5430  176.3810  144.5980 C   0  0  0  0  0  2  0  0  0  0  0  0
  191.1390  176.8960  145.9420 C   0  0  0  0  0  0  0  0  0  0  0  0
  189.8030  177.5430  146.1210 C   0  0  0  0  0  1  0  0  0  0  0  0
  191.9190  176.8340  146.8820 O   0  0  0  0  0  0  0  0  0  0  0  0
  187.1520  176.1650  136.0140 C   0  0  0  0  0  2  0  0  0  0  0  0
  184.6940  177.3500  136.6240 O   0  0  0  0  0  1  0  0  0  0  0  0
  183.3730  175.2930  136.6390 C   0  0  2  0  0  3  0  0  0  0  0  0
  185.9190  175.2780  136.1680 C   0  0  2  0  0  3  0  0  0  0  0  0
  184.4130  173.6370  134.9910 C   0  0  0  0  0  2  0  0  0  0  0  0
  183.5350  173.8220  136.2410 C   0  0  0  0  0  2  0  0  0  0  0  0
  182.5200  176.0200  135.6040 C   0  0  0  0  0  1  0  0  0  0  0  0
  185.4880  174.7170  134.8180 C   0  0  0  0  0  2  0  0  0  0  0  0
  184.7410  175.9710  136.8900 C   0  0  1  0  0  3  0  0  0  0  0  0
  1 12  1  0  0  0  0
  1 19  1  1  0  0  0
  3  8  1  0  0  0  0
  4  3  2  0  0  0  0
  4 15  1  0  0  0  0
  5 14  1  1  0  0  0
  7  1  1  0  0  0  0
  9  6  1  1  0  0  0
 10  8  1  6  0  0  0
 10  9  1  0  0  0  0
 11 18  1  0  0  0  0
 13  6  1  6  0  0  0
 13  5  1  0  0  0  0
 13  7  1  0  0  0  0
 14 12  1  0  0  0  0
 16 15  1  1  0  0  0
 16 11  1  0  0  0  0
 16 10  1  0  0  0  0
 17  2  1  6  0  0  0
 17 13  1  0  0  0  0
 17  5  1  0  0  0  0
 18  9  1  0  0  0  0
 18  2  1  1  0  0  0
 19 20  1  0  0  0  0
 20 21  1  0  0  0  0
 21 22  1  0  0  0  0
 21 23  2  0  0  0  0
 24 11  1  0  0  0  0
 26 30  1  6  0  0  0
 26 32  1  0  0  0  0
 27 24  1  6  0  0  0
 27 32  1  0  0  0  0
 28 29  1  0  0  0  0
 29 26  1  0  0  0  0
 31 28  1  0  0  0  0
 31 27  1  0  0  0  0
 32 25  1  6  0  0  0
M  END
>  <MODEL>
2

>  <REMARK>
 VINA RESULT:      -6.3      1.553      2.002
  Name = 
  5 active torsions:
  status: ('A' for Active; 'I' for Inactive)
    1  A    between atoms: C_1  and  C_10
    2  A    between atoms: C_2  and  S_24
    3  A    between atoms: C_10  and  S_24
    4  A    between atoms: C_11  and  C_27
    5  A    between atoms: N_16  and  C_27
                            x       y       z     vdW  Elec       q    Type
                         _______ _______ _______ _____ _____    ______ ____

>  <TORSDO>
F 5

$$$$
=
 OpenBabel10262421263D

 32 37  0  0  1  0  0  0  0  0999 V2000
  185.2440  179.0810  142.8050 C   0  0  2  0  0  3  0  0  0  0  0  0
  183.1160  179.0600  138.5160 C   0  0  0  0  0  2  0  0  0  0  0  0
  178.9630  179.0530  142.7590 C   0  0  0  0  0  3  0  0  0  0  0  0
  178.9310  180.3570  142.4010 C   0  0  0  0  0  3  0  0  0  0  0  0
  185.0110  178.2880  139.9290 C   0  0  2  0  0  3  0  0  0  0  0  0
  182.7170  177.2310  140.5720 C   0  0  0  0  0  2  0  0  0  0  0  0
  183.8370  178.8950  142.2590 C   0  0  0  0  0  2  0  0  0  0  0  0
  179.7090  178.0060  141.9530 C   0  0  0  0  0  2  0  0  0  0  0  0
  181.4170  177.8430  140.0300 C   0  0  1  0  0  3  0  0  0  0  0  0
  180.7470  178.6910  141.0770 C   0  0  1  0  0  3  0  0  0  0  0  0
  180.9940  180.1120  139.2120 N   0  0  0  0  0  0  0  0  0  0  0  0
  186.1330  179.7470  141.7620 C   0  0  0  0  0  2  0  0  0  0  0  0
  183.7890  178.2930  140.8490 C   0  0  1  0  0  0  0  0  0  0  0  0
  186.3060  178.8520  140.5350 C   0  0  0  0  0  2  0  0  0  0  0  0
  179.7050  180.8960  141.2100 C   0  0  0  0  0  2  0  0  0  0  0  0
  180.0640  179.7500  140.2690 C   0  0  2  0  0  3  0  0  0  0  0  0
  183.9460  179.3630  139.7610 C   0  0  2  0  0  3  0  0  0  0  0  0
  181.6410  178.8390  138.8680 C   0  0  1  0  0  3  0  0  0  0  0  0
  185.9450  177.5000  143.3910 S   0  0  0  0  0  0  0  0  0  0  0  0
  186.0830  178.0920  145.1060 C   0  0  0  0  0  2  0  0  0  0  0  0
  187.4800  177.9230  145.6120 C   0  0  0  0  0  0  0  0  0  0  0  0
  188.5370  177.3720  144.7100 C   0  0  0  0  0  1  0  0  0  0  0  0
  187.7460  178.1870  146.7770 O   0  0  0  0  0  0  0  0  0  0  0  0
  180.2090  180.4900  138.0420 C   0  0  0  0  0  2  0  0  0  0  0  0
  179.8670  181.0470  135.3230 O   0  0  0  0  0  1  0  0  0  0  0  0
  180.7840  183.3120  135.3700 C   0  0  2  0  0  3  0  0  0  0  0  0
  180.6610  181.8440  137.4990 C   0  0  2  0  0  3  0  0  0  0  0  0
  180.3290  184.3340  137.6690 C   0  0  0  0  0  2  0  0  0  0  0  0
  181.2100  184.3570  136.4070 C   0  0  0  0  0  2  0  0  0  0  0  0
  179.4400  183.7000  134.7630 C   0  0  0  0  0  1  0  0  0  0  0  0
  179.7460  182.9550  138.0000 C   0  0  0  0  0  2  0  0  0  0  0  0
  180.8000  181.8810  135.9600 C   0  0  1  0  0  3  0  0  0  0  0  0
  1 19  1  6  0  0  0
  4  3  2  0  0  0  0
  5 14  1  1  0  0  0
  5 13  1  0  0  0  0
  7  1  1  0  0  0  0
  8  3  1  0  0  0  0
  9  6  1  1  0  0  0
  9 10  1  0  0  0  0
 10  8  1  6  0  0  0
 11 16  1  0  0  0  0
 12  1  1  0  0  0  0
 13  6  1  6  0  0  0
 13  7  1  0  0  0  0
 14 12  1  0  0  0  0
 15  4  1  0  0  0  0
 16 10  1  0  0  0  0
 16 15  1  1  0  0  0
 17  2  1  6  0  0  0
 17  5  1  0  0  0  0
 17 13  1  0  0  0  0
 18  2  1  1  0  0  0
 18 11  1  0  0  0  0
 18  9  1  0  0  0  0
 19 20  1  0  0  0  0
 20 21  1  0  0  0  0
 21 23  2  0  0  0  0
 22 21  1  0  0  0  0
 24 11  1  0  0  0  0
 26 30  1  1  0  0  0
 26 32  1  0  0  0  0
 26 29  1  0  0  0  0
 27 31  1  0  0  0  0
 27 24  1  6  0  0  0
 28 31  1  0  0  0  0
 29 28  1  0  0  0  0
 32 25  1  6  0  0  0
 32 27  1  0  0  0  0
M  END
>  <MODEL>
3

>  <REMARK>
 VINA RESULT:      -6.0      6.658      9.121
  Name = 
  5 active torsions:
  status: ('A' for Active; 'I' for Inactive)
    1  A    between atoms: C_1  and  C_10
    2  A    between atoms: C_2  and  S_24
    3  A    between atoms: C_10  and  S_24
    4  A    between atoms: C_11  and  C_27
    5  A    between atoms: N_16  and  C_27
                            x       y       z     vdW  Elec       q    Type
                         _______ _______ _______ _____ _____    ______ ____

>  <TORSDO>
F 5

$$$$
=
 OpenBabel10262421263D

 32 37  0  0  1  0  0  0  0  0999 V2000
  190.1580  176.4650  141.1230 C   0  0  2  0  0  3  0  0  0  0  0  0
  186.8390  178.3990  138.2660 C   0  0  0  0  0  2  0  0  0  0  0  0
  190.4340  174.9520  135.0340 C   0  0  0  0  0  3  0  0  0  0  0  0
  189.3690  174.1280  135.1600 C   0  0  0  0  0  3  0  0  0  0  0  0
  188.3410  178.6700  140.2290 C   0  0  2  0  0  3  0  0  0  0  0  0
  189.5960  178.5600  137.9470 C   0  0  0  0  0  2  0  0  0  0  0  0
  189.8980  176.5730  139.6290 C   0  0  0  0  0  2  0  0  0  0  0  0
  190.3790  176.4170  135.4250 C   0  0  0  0  0  2  0  0  0  0  0  0
  188.8580  178.0660  136.6940 C   0  0  1  0  0  3  0  0  0  0  0  0
  189.2200  176.6390  136.3850 C   0  0  1  0  0  3  0  0  0  0  0  0
  186.8660  176.6520  136.5230 N   0  0  0  0  0  0  0  0  0  0  0  0
  188.8830  176.7610  141.9050 C   0  0  0  0  0  2  0  0  0  0  0  0
  189.1320  177.8370  139.2170 C   0  0  1  0  0  0  0  0  0  0  0  0
  188.4280  178.2040  141.6910 C   0  0  0  0  0  2  0  0  0  0  0  0
  188.0570  174.5780  135.7820 C   0  0  0  0  0  2  0  0  0  0  0  0
  187.9720  176.1010  135.7570 C   0  0  2  0  0  3  0  0  0  0  0  0
  187.6140  177.6580  139.3520 C   0  0  2  0  0  3  0  0  0  0  0  0
  187.3210  178.0050  136.8660 C   0  0  1  0  0  3  0  0  0  0  0  0
  191.5390  177.5440  141.6390 S   0  0  0  0  0  0  0  0  0  0  0  0
  191.6650  176.7540  143.2740 C   0  0  0  0  0  2  0  0  0  0  0  0
  191.4000  177.7450  144.3610 C   0  0  0  0  0  0  0  0  0  0  0  0
  191.3320  179.2040  144.0380 C   0  0  0  0  0  1  0  0  0  0  0  0
  191.2890  177.3700  145.5190 O   0  0  0  0  0  0  0  0  0  0  0  0
  185.7410  176.8280  135.6120 C   0  0  0  0  0  2  0  0  0  0  0  0
  184.8920  174.3630  134.5990 O   0  0  0  0  0  1  0  0  0  0  0  0
  182.9330  174.1130  136.0390 C   0  0  2  0  0  3  0  0  0  0  0  0
  184.4770  176.1880  136.1800 C   0  0  2  0  0  3  0  0  0  0  0  0
  183.3980  175.2800  138.2670 C   0  0  0  0  0  2  0  0  0  0  0  0
  182.3280  174.7800  137.2800 C   0  0  0  0  0  2  0  0  0  0  0  0
  183.5810  172.7880  136.4240 C   0  0  0  0  0  1  0  0  0  0  0  0
  184.7160  175.6950  137.6020 C   0  0  0  0  0  2  0  0  0  0  0  0
  183.8920  175.0690  135.2890 C   0  0  1  0  0  3  0  0  0  0  0  0
  1 19  1  1  0  0  0
  1 12  1  0  0  0  0
  3  4  2  0  0  0  0
  3  8  1  0  0  0  0
  4 15  1  0  0  0  0
  5 14  1  1  0  0  0
  7  1  1  0  0  0  0
  9 18  1  0  0  0  0
  9  6  1  1  0  0  0
 10  8  1  6  0  0  0
 10  9  1  0  0  0  0
 11 18  1  0  0  0  0
 13  6  1  6  0  0  0
 13 17  1  0  0  0  0
 13  7  1  0  0  0  0
 13  5  1  0  0  0  0
 14 12  1  0  0  0  0
 16 15  1  1  0  0  0
 16 10  1  0  0  0  0
 16 11  1  0  0  0  0
 17  2  1  6  0  0  0
 17  5  1  0  0  0  0
 18  2  1  1  0  0  0
 19 20  1  0  0  0  0
 20 21  1  0  0  0  0
 21 23  2  0  0  0  0
 22 21  1  0  0  0  0
 24 11  1  0  0  0  0
 26 30  1  1  0  0  0
 26 29  1  0  0  0  0
 27 24  1  6  0  0  0
 27 31  1  0  0  0  0
 29 28  1  0  0  0  0
 31 28  1  0  0  0  0
 32 25  1  1  0  0  0
 32 26  1  0  0  0  0
 32 27  1  0  0  0  0
M  END
>  <MODEL>
4

>  <REMARK>
 VINA RESULT:      -5.9      1.809      2.189
  Name = 
  5 active torsions:
  status: ('A' for Active; 'I' for Inactive)
    1  A    between atoms: C_1  and  C_10
    2  A    between atoms: C_2  and  S_24
    3  A    between atoms: C_10  and  S_24
    4  A    between atoms: C_11  and  C_27
    5  A    between atoms: N_16  and  C_27
                            x       y       z     vdW  Elec       q    Type
                         _______ _______ _______ _____ _____    ______ ____

>  <TORSDO>
F 5

$$$$
=
 OpenBabel10262421263D

 32 37  0  0  1  0  0  0  0  0999 V2000
  191.2260  177.9220  144.6580 C   0  0  2  0  0  3  0  0  0  0  0  0
  187.5870  178.0670  141.5500 C   0  0  0  0  0  2  0  0  0  0  0  0
  185.4340  178.0650  147.0830 C   0  0  0  0  0  3  0  0  0  0  0  0
  185.3090  179.3780  146.7820 C   0  0  0  0  0  3  0  0  0  0  0  0
  189.8560  177.2080  142.0940 C   0  0  2  0  0  3  0  0  0  0  0  0
  187.9630  176.1980  143.5730 C   0  0  0  0  0  2  0  0  0  0  0  0
  189.7120  177.7880  144.7050 C   0  0  0  0  0  2  0  0  0  0  0  0
  185.7660  177.0190  146.0350 C   0  0  0  0  0  2  0  0  0  0  0  0
  186.5770  176.8590  143.5940 C   0  0  1  0  0  3  0  0  0  0  0  0
  186.4010  177.6980  144.8300 C   0  0  1  0  0  3  0  0  0  0  0  0
  185.9460  179.1580  143.0360 N   0  0  0  0  0  0  0  0  0  0  0  0
  191.6580  178.5900  143.3570 C   0  0  0  0  0  2  0  0  0  0  0  0
  189.0930  177.2230  143.4200 C   0  0  1  0  0  0  0  0  0  0  0  0
  191.3040  177.7220  142.1500 C   0  0  0  0  0  2  0  0  0  0  0  0
  185.5730  179.9260  145.3900 C   0  0  0  0  0  2  0  0  0  0  0  0
  185.4930  178.7950  144.3690 C   0  0  2  0  0  3  0  0  0  0  0  0
  188.8490  178.3160  142.3710 C   0  0  2  0  0  3  0  0  0  0  0  0
  186.3610  177.8780  142.4500 C   0  0  1  0  0  3  0  0  0  0  0  0
  192.0460  176.3080  144.9000 S   0  0  0  0  0  0  0  0  0  0  0  0
  191.0610  175.9280  146.3830 C   0  0  0  0  0  2  0  0  0  0  0  0
  191.7390  176.4420  147.6120 C   0  0  0  0  0  0  0  0  0  0  0  0
  192.8060  175.6270  148.2700 C   0  0  0  0  0  1  0  0  0  0  0  0
  191.3860  177.5030  148.1080 O   0  0  0  0  0  0  0  0  0  0  0  0
  184.7790  179.5870  142.2740 C   0  0  0  0  0  2  0  0  0  0  0  0
  182.1810  178.6280  141.8830 O   0  0  0  0  0  1  0  0  0  0  0  0
  182.6610  177.2810  139.9000 C   0  0  2  0  0  3  0  0  0  0  0  0
  184.5070  178.6320  141.1140 C   0  0  2  0  0  3  0  0  0  0  0  0
  184.5790  178.3750  138.6090 C   0  0  0  0  0  2  0  0  0  0  0  0
  183.8050  177.0770  138.9010 C   0  0  0  0  0  2  0  0  0  0  0  0
  181.5540  178.1130  139.2610 C   0  0  0  0  0  1  0  0  0  0  0  0
  184.6030  179.3640  139.7810 C   0  0  0  0  0  2  0  0  0  0  0  0
  183.1710  177.8660  141.2400 C   0  0  1  0  0  3  0  0  0  0  0  0
  1  7  1  0  0  0  0
  1 19  1  6  0  0  0
  4  3  2  0  0  0  0
  5 14  1  1  0  0  0
  5 17  1  0  0  0  0
  5 13  1  0  0  0  0
  8  3  1  0  0  0  0
  9  6  1  6  0  0  0
  9 10  1  0  0  0  0
 10  8  1  1  0  0  0
 11 16  1  0  0  0  0
 12  1  1  0  0  0  0
 13  6  1  1  0  0  0
 13  7  1  0  0  0  0
 14 12  1  0  0  0  0
 15  4  1  0  0  0  0
 16 10  1  0  0  0  0
 16 15  1  1  0  0  0
 17  2  1  6  0  0  0
 17 13  1  0  0  0  0
 18  2  1  1  0  0  0
 18 11  1  0  0  0  0
 18  9  1  0  0  0  0
 19 20  1  0  0  0  0
 20 21  1  0  0  0  0
 21 23  2  0  0  0  0
 21 22  1  0  0  0  0
 24 11  1  0  0  0  0
 26 30  1  6  0  0  0
 26 32  1  0  0  0  0
 27 32  1  0  0  0  0
 27 24  1  1  0  0  0
 28 29  1  0  0  0  0
 28 31  1  0  0  0  0
 29 26  1  0  0  0  0
 31 27  1  0  0  0  0
 32 25  1  6  0  0  0
M  END
>  <MODEL>
5

>  <REMARK>
 VINA RESULT:      -5.9      4.537      6.864
  Name = 
  5 active torsions:
  status: ('A' for Active; 'I' for Inactive)
    1  A    between atoms: C_1  and  C_10
    2  A    between atoms: C_2  and  S_24
    3  A    between atoms: C_10  and  S_24
    4  A    between atoms: C_11  and  C_27
    5  A    between atoms: N_16  and  C_27
                            x       y       z     vdW  Elec       q    Type
                         _______ _______ _______ _____ _____    ______ ____

>  <TORSDO>
F 5

$$$$
=
 OpenBabel10262421263D

 32 37  0  0  1  0  0  0  0  0999 V2000
  190.7030  178.4970  145.4330 C   0  0  2  0  0  3  0  0  0  0  0  0
  188.6920  177.5700  141.1880 C   0  0  0  0  0  2  0  0  0  0  0  0
  184.4330  178.7420  145.1550 C   0  0  0  0  0  3  0  0  0  0  0  0
  184.4790  179.9260  144.5020 C   0  0  0  0  0  3  0  0  0  0  0  0
  190.5060  177.0650  142.8120 C   0  0  2  0  0  3  0  0  0  0  0  0
  188.1430  176.2920  143.5950 C   0  0  0  0  0  2  0  0  0  0  0  0
  189.3040  178.2520  144.8910 C   0  0  0  0  0  2  0  0  0  0  0  0
  185.1440  177.5030  144.6420 C   0  0  0  0  0  2  0  0  0  0  0  0
  186.8920  176.8190  142.8770 C   0  0  1  0  0  3  0  0  0  0  0  0
  186.2400  177.9170  143.6720 C   0  0  1  0  0  3  0  0  0  0  0  0
  186.6110  178.8500  141.5380 N   0  0  0  0  0  0  0  0  0  0  0  0
  191.6540  178.8600  144.2980 C   0  0  0  0  0  2  0  0  0  0  0  0
  189.2610  177.3400  143.6580 C   0  0  1  0  0  0  0  0  0  0  0  0
  191.8120  177.6970  143.3200 C   0  0  0  0  0  2  0  0  0  0  0  0
  185.3120  180.1370  143.2500 C   0  0  0  0  0  2  0  0  0  0  0  0
  185.6350  178.7870  142.6140 C   0  0  2  0  0  3  0  0  0  0  0  0
  189.5040  178.1180  142.3590 C   0  0  2  0  0  3  0  0  0  0  0  0
  187.1990  177.5050  141.5240 C   0  0  1  0  0  3  0  0  0  0  0  0
  191.3050  177.0670  146.3960 S   0  0  0  0  0  0  0  0  0  0  0  0
  189.6650  176.7480  147.1180 C   0  0  0  0  0  2  0  0  0  0  0  0
  189.3370  177.7720  148.1560 C   0  0  0  0  0  0  0  0  0  0  0  0
  187.9290  178.2530  148.3080 C   0  0  0  0  0  1  0  0  0  0  0  0
  190.2250  178.2540  148.8450 O   0  0  0  0  0  0  0  0  0  0  0  0
  185.8790  178.9790  140.2840 C   0  0  0  0  0  2  0  0  0  0  0  0
  183.9330  180.5030  138.9750 O   0  0  0  0  0  1  0  0  0  0  0  0
  181.9910  179.2630  139.7900 C   0  0  2  0  0  3  0  0  0  0  0  0
  184.4060  178.6250  140.4760 C   0  0  2  0  0  3  0  0  0  0  0  0
  182.6720  176.8260  140.1630 C   0  0  0  0  0  2  0  0  0  0  0  0
  181.6930  177.9550  140.5330 C   0  0  0  0  0  2  0  0  0  0  0  0
  181.6680  179.1050  138.3090 C   0  0  0  0  0  1  0  0  0  0  0  0
  184.0720  177.3150  139.7730 C   0  0  0  0  0  2  0  0  0  0  0  0
  183.4360  179.7520  140.0530 C   0  0  1  0  0  3  0  0  0  0  0  0
  1 19  1  6  0  0  0
  4  3  2  0  0  0  0
  5 14  1  1  0  0  0
  5 13  1  0  0  0  0
  7  1  1  0  0  0  0
  8  3  1  0  0  0  0
  9  6  1  1  0  0  0
  9 10  1  0  0  0  0
 10  8  1  1  0  0  0
 11 16  1  0  0  0  0
 12  1  1  0  0  0  0
 13  6  1  6  0  0  0
 13  7  1  0  0  0  0
 14 12  1  0  0  0  0
 15  4  1  0  0  0  0
 16 15  1  1  0  0  0
 16 10  1  0  0  0  0
 17  2  1  6  0  0  0
 17  5  1  0  0  0  0
 17 13  1  0  0  0  0
 18  2  1  1  0  0  0
 18 11  1  0  0  0  0
 18  9  1  0  0  0  0
 19 20  1  0  0  0  0
 20 21  1  0  0  0  0
 21 22  1  0  0  0  0
 21 23  2  0  0  0  0
 24 11  1  0  0  0  0
 26 30  1  6  0  0  0
 26 32  1  0  0  0  0
 26 29  1  0  0  0  0
 27 24  1  6  0  0  0
 28 29  1  0  0  0  0
 31 28  1  0  0  0  0
 31 27  1  0  0  0  0
 32 25  1  6  0  0  0
 32 27  1  0  0  0  0
M  END
>  <MODEL>
6

>  <REMARK>
 VINA RESULT:      -5.7      4.502      6.557
  Name = 
  5 active torsions:
  status: ('A' for Active; 'I' for Inactive)
    1  A    between atoms: C_1  and  C_10
    2  A    between atoms: C_2  and  S_24
    3  A    between atoms: C_10  and  S_24
    4  A    between atoms: C_11  and  C_27
    5  A    between atoms: N_16  and  C_27
                            x       y       z     vdW  Elec       q    Type
                         _______ _______ _______ _____ _____    ______ ____

>  <TORSDO>
F 5

$$$$
=
 OpenBabel10262421263D

 32 37  0  0  1  0  0  0  0  0999 V2000
  188.1210  176.8950  142.9170 C   0  0  2  0  0  3  0  0  0  0  0  0
  183.6810  178.6660  142.6590 C   0  0  0  0  0  2  0  0  0  0  0  0
  185.6160  177.4370  137.1820 C   0  0  0  0  0  3  0  0  0  0  0  0
  184.8200  176.3650  137.3970 C   0  0  0  0  0  3  0  0  0  0  0  0
  185.9020  178.7100  143.7770 C   0  0  2  0  0  3  0  0  0  0  0  0
  185.9280  179.6330  141.3400 C   0  0  0  0  0  2  0  0  0  0  0  0
  187.1750  177.3810  141.8300 C   0  0  0  0  0  2  0  0  0  0  0  0
  185.6180  178.6450  138.1010 C   0  0  0  0  0  2  0  0  0  0  0  0
  184.7340  179.3690  140.4110 C   0  0  1  0  0  3  0  0  0  0  0  0
  185.0370  178.2520  139.4510 C   0  0  1  0  0  3  0  0  0  0  0  0
  183.0410  177.6040  140.5250 N   0  0  0  0  0  0  0  0  0  0  0  0
  187.3480  176.5930  144.1950 C   0  0  0  0  0  2  0  0  0  0  0  0
  186.1920  178.4630  142.2950 C   0  0  1  0  0  0  0  0  0  0  0  0
  186.7150  177.8600  144.7670 C   0  0  0  0  0  2  0  0  0  0  0  0
  183.9250  176.2430  138.6180 C   0  0  0  0  0  2  0  0  0  0  0  0
  183.6970  177.6240  139.2280 C   0  0  2  0  0  3  0  0  0  0  0  0
  184.9430  177.8600  142.9520 C   0  0  2  0  0  3  0  0  0  0  0  0
  183.4760  178.8580  141.1530 C   0  0  1  0  0  3  0  0  0  0  0  0
  189.4740  178.0870  143.2040 S   0  0  0  0  0  0  0  0  0  0  0  0
  190.7590  176.8700  142.7810 C   0  0  0  0  0  2  0  0  0  0  0  0
  191.3940  176.3210  144.0190 C   0  0  0  0  0  0  0  0  0  0  0  0
  191.2930  177.0770  145.3050 C   0  0  0  0  0  1  0  0  0  0  0  0
  192.0380  175.2830  143.9680 O   0  0  0  0  0  0  0  0  0  0  0  0
  181.6070  177.7490  140.2980 C   0  0  0  0  0  2  0  0  0  0  0  0
  180.6480  178.1030  137.6950 O   0  0  0  0  0  1  0  0  0  0  0  0
  180.3690  180.5280  137.8130 C   0  0  2  0  0  3  0  0  0  0  0  0
  181.2730  179.1580  139.8160 C   0  0  2  0  0  3  0  0  0  0  0  0
  179.8210  181.1750  140.2260 C   0  0  0  0  0  2  0  0  0  0  0  0
  180.3900  181.6360  138.8720 C   0  0  0  0  0  2  0  0  0  0  0  0
  178.9310  180.2240  137.4080 C   0  0  0  0  0  1  0  0  0  0  0  0
  180.0230  179.6820  140.5130 C   0  0  0  0  0  2  0  0  0  0  0  0
  181.1510  179.2770  138.2800 C   0  0  1  0  0  3  0  0  0  0  0  0
  1 19  1  1  0  0  0
  1 12  1  0  0  0  0
  3  4  2  0  0  0  0
  3  8  1  0  0  0  0
  4 15  1  0  0  0  0
  5 14  1  1  0  0  0
  7 13  1  0  0  0  0
  7  1  1  0  0  0  0
  9 18  1  0  0  0  0
  9  6  1  1  0  0  0
 10  8  1  6  0  0  0
 10  9  1  0  0  0  0
 11 18  1  0  0  0  0
 12 14  1  0  0  0  0
 13  6  1  6  0  0  0
 13 17  1  0  0  0  0
 13  5  1  0  0  0  0
 16 15  1  1  0  0  0
 16 10  1  0  0  0  0
 16 11  1  0  0  0  0
 17  2  1  6  0  0  0
 17  5  1  0  0  0  0
 18  2  1  1  0  0  0
 20 19  1  0  0  0  0
 20 21  1  0  0  0  0
 21 22  1  0  0  0  0
 23 21  2  0  0  0  0
 24 11  1  0  0  0  0
 26 30  1  1  0  0  0
 26 32  1  0  0  0  0
 26 29  1  0  0  0  0
 27 24  1  6  0  0  0
 27 31  1  0  0  0  0
 28 31  1  0  0  0  0
 29 28  1  0  0  0  0
 32 25  1  1  0  0  0
 32 27  1  0  0  0  0
M  END
>  <MODEL>
7

>  <REMARK>
 VINA RESULT:      -5.5      4.597      6.428
  Name = 
  5 active torsions:
  status: ('A' for Active; 'I' for Inactive)
    1  A    between atoms: C_1  and  C_10
    2  A    between atoms: C_2  and  S_24
    3  A    between atoms: C_10  and  S_24
    4  A    between atoms: C_11  and  C_27
    5  A    between atoms: N_16  and  C_27
                            x       y       z     vdW  Elec       q    Type
                         _______ _______ _______ _____ _____    ______ ____

>  <TORSDO>
F 5

$$$$
=
 OpenBabel10262421263D

 32 37  0  0  1  0  0  0  0  0999 V2000
  189.7640  176.0330  138.0600 C   0  0  2  0  0  3  0  0  0  0  0  0
  185.5220  178.0570  137.1490 C   0  0  0  0  0  2  0  0  0  0  0  0
  185.2840  172.2960  135.7320 C   0  0  0  0  0  3  0  0  0  0  0  0
  184.6440  172.2720  136.9230 C   0  0  0  0  0  3  0  0  0  0  0  0
  187.9990  178.2770  137.1620 C   0  0  2  0  0  3  0  0  0  0  0  0
  187.0950  176.6300  135.3560 C   0  0  0  0  0  2  0  0  0  0  0  0
  188.4720  175.6470  137.3570 C   0  0  0  0  0  2  0  0  0  0  0  0
  185.6100  173.5910  135.0100 C   0  0  0  0  0  2  0  0  0  0  0  0
  185.6440  176.1320  135.4350 C   0  0  1  0  0  3  0  0  0  0  0  0
  185.5840  174.7420  136.0050 C   0  0  1  0  0  3  0  0  0  0  0  0
  184.1470  176.0190  137.3680 N   0  0  0  0  0  0  0  0  0  0  0  0
  189.5320  177.2270  138.9780 C   0  0  0  0  0  2  0  0  0  0  0  0
  187.7170  176.8330  136.7430 C   0  0  1  0  0  0  0  0  0  0  0  0
  189.1370  178.4680  138.1780 C   0  0  0  0  0  2  0  0  0  0  0  0
  184.2740  173.5370  137.6770 C   0  0  0  0  0  2  0  0  0  0  0  0
  184.2690  174.7240  136.7180 C   0  0  2  0  0  3  0  0  0  0  0  0
  186.8150  177.5340  137.7680 C   0  0  2  0  0  3  0  0  0  0  0  0
  184.7650  176.9470  136.4130 C   0  0  1  0  0  3  0  0  0  0  0  0
  191.1060  176.3450  136.8620 S   0  0  0  0  0  0  0  0  0  0  0  0
  192.1530  175.0260  137.5530 C   0  0  0  0  0  2  0  0  0  0  0  0
  193.4800  175.5720  137.9740 C   0  0  0  0  0  0  0  0  0  0  0  0
  194.6780  174.6780  138.0010 C   0  0  0  0  0  1  0  0  0  0  0  0
  193.5750  176.7330  138.3450 O   0  0  0  0  0  0  0  0  0  0  0  0
  182.7300  176.3660  137.4020 C   0  0  0  0  0  2  0  0  0  0  0  0
  180.1190  176.5970  138.3770 O   0  0  0  0  0  1  0  0  0  0  0  0
  180.5870  178.3000  140.0670 C   0  0  2  0  0  3  0  0  0  0  0  0
  182.4420  177.3640  138.5210 C   0  0  2  0  0  3  0  0  0  0  0  0
  182.9870  177.9950  140.8970 C   0  0  0  0  0  2  0  0  0  0  0  0
  181.8040  178.9640  140.7220 C   0  0  0  0  0  2  0  0  0  0  0  0
  179.9660  177.2920  141.0280 C   0  0  0  0  0  1  0  0  0  0  0  0
  183.0540  176.8920  139.8340 C   0  0  0  0  0  2  0  0  0  0  0  0
  180.9410  177.6940  138.6880 C   0  0  1  0  0  3  0  0  0  0  0  0
  1 19  1  6  0  0  0
  1 12  1  0  0  0  0
  3  4  2  0  0  0  0
  4 15  1  0  0  0  0
  5 17  1  0  0  0  0
  5 14  1  1  0  0  0
  7  1  1  0  0  0  0
  8  3  1  0  0  0  0
  9  6  1  1  0  0  0
  9 10  1  0  0  0  0
  9 18  1  0  0  0  0
 10  8  1  6  0  0  0
 10 16  1  0  0  0  0
 11 24  1  0  0  0  0
 13  6  1  6  0  0  0
 13  5  1  0  0  0  0
 13  7  1  0  0  0  0
 13 17  1  0  0  0  0
 14 12  1  0  0  0  0
 16 11  1  0  0  0  0
 16 15  1  1  0  0  0
 17  2  1  6  0  0  0
 18  2  1  1  0  0  0
 18 11  1  0  0  0  0
 19 20  1  0  0  0  0
 20 21  1  0  0  0  0
 21 22  1  0  0  0  0
 21 23  2  0  0  0  0
 26 29  1  0  0  0  0
 26 30  1  1  0  0  0
 27 24  1  6  0  0  0
 27 32  1  0  0  0  0
 27 31  1  0  0  0  0
 29 28  1  0  0  0  0
 31 28  1  0  0  0  0
 32 25  1  1  0  0  0
 32 26  1  0  0  0  0
M  END
>  <MODEL>
8

>  <REMARK>
 VINA RESULT:      -5.5      3.937      6.382
  Name = 
  5 active torsions:
  status: ('A' for Active; 'I' for Inactive)
    1  A    between atoms: C_1  and  C_10
    2  A    between atoms: C_2  and  S_24
    3  A    between atoms: C_10  and  S_24
    4  A    between atoms: C_11  and  C_27
    5  A    between atoms: N_16  and  C_27
                            x       y       z     vdW  Elec       q    Type
                         _______ _______ _______ _____ _____    ______ ____

>  <TORSDO>
F 5

$$$$
=
 OpenBabel10262421263D

 32 37  0  0  1  0  0  0  0  0999 V2000
  181.6900  175.3850  138.7390 C   0  0  2  0  0  3  0  0  0  0  0  0
  185.5300  178.2170  138.3450 C   0  0  0  0  0  2  0  0  0  0  0  0
  183.0420  179.0270  143.6750 C   0  0  0  0  0  3  0  0  0  0  0  0
  184.0780  178.2280  144.0170 C   0  0  0  0  0  3  0  0  0  0  0  0
  183.5670  177.1670  137.2360 C   0  0  2  0  0  3  0  0  0  0  0  0
  182.9400  179.0150  138.9640 C   0  0  0  0  0  2  0  0  0  0  0  0
  182.3150  176.5310  139.5180 C   0  0  0  0  0  2  0  0  0  0  0  0
  182.9260  179.6630  142.3010 C   0  0  0  0  0  2  0  0  0  0  0  0
  183.9950  179.5160  139.9620 C   0  0  1  0  0  3  0  0  0  0  0  0
  183.7910  178.8930  141.3150 C   0  0  1  0  0  3  0  0  0  0  0  0
  186.0290  178.4090  140.7540 N   0  0  0  0  0  0  0  0  0  0  0  0
  182.7090  174.7770  137.7820 C   0  0  0  0  0  2  0  0  0  0  0  0
  183.1000  177.5230  138.6490 C   0  0  1  0  0  0  0  0  0  0  0  0
  183.1340  175.7870  136.7170 C   0  0  0  0  0  2  0  0  0  0  0  0
  185.1660  177.8330  143.0330 C   0  0  0  0  0  2  0  0  0  0  0  0
  185.1820  178.8140  141.8640 C   0  0  2  0  0  3  0  0  0  0  0  0
  184.5400  177.0560  138.4020 C   0  0  2  0  0  3  0  0  0  0  0  0
  185.4380  179.0940  139.5980 C   0  0  1  0  0  3  0  0  0  0  0  0
  180.1740  175.9180  137.8720 S   0  0  0  0  0  0  0  0  0  0  0  0
  179.1550  175.7730  139.3730 C   0  0  0  0  0  2  0  0  0  0  0  0
  179.0990  174.3540  139.8390 C   0  0  0  0  0  0  0  0  0  0  0  0
  179.3130  174.0360  141.2840 C   0  0  0  0  0  1  0  0  0  0  0  0
  178.9310  173.4500  139.0320 O   0  0  0  0  0  0  0  0  0  0  0  0
  187.3390  179.0190  140.9520 C   0  0  0  0  0  2  0  0  0  0  0  0
  189.4600  178.1760  139.3360 O   0  0  0  0  0  1  0  0  0  0  0  0
  190.4890  176.6700  140.9640 C   0  0  2  0  0  3  0  0  0  0  0  0
  188.3340  178.0010  141.5050 C   0  0  2  0  0  3  0  0  0  0  0  0
  190.0300  177.5660  143.3150 C   0  0  0  0  0  2  0  0  0  0  0  0
  190.3670  176.3340  142.4550 C   0  0  0  0  0  2  0  0  0  0  0  0
  191.7350  177.5130  140.7210 C   0  0  0  0  0  1  0  0  0  0  0  0
  189.2050  178.6320  142.5840 C   0  0  0  0  0  2  0  0  0  0  0  0
  189.1940  177.3190  140.4170 C   0  0  1  0  0  3  0  0  0  0  0  0
  1 19  1  6  0  0  0
  1  7  1  0  0  0  0
  3  4  2  0  0  0  0
  5 14  1  1  0  0  0
  5 17  1  0  0  0  0
  5 13  1  0  0  0  0
  8  3  1  0  0  0  0
  9  6  1  6  0  0  0
  9 10  1  0  0  0  0
 10 16  1  0  0  0  0
 10  8  1  1  0  0  0
 11 24  1  0  0  0  0
 11 16  1  0  0  0  0
 12  1  1  0  0  0  0
 13  6  1  1  0  0  0
 13  7  1  0  0  0  0
 14 12  1  0  0  0  0
 15  4  1  0  0  0  0
 16 15  1  1  0  0  0
 17  2  1  6  0  0  0
 17 13  1  0  0  0  0
 18  2  1  6  0  0  0
 18  9  1  0  0  0  0
 18 11  1  0  0  0  0
 19 20  1  0  0  0  0
 20 21  1  0  0  0  0
 21 22  1  0  0  0  0
 23 21  2  0  0  0  0
 26 30  1  1  0  0  0
 26 29  1  0  0  0  0
 27 24  1  6  0  0  0
 27 31  1  0  0  0  0
 29 28  1  0  0  0  0
 31 28  1  0  0  0  0
 32 25  1  6  0  0  0
 32 26  1  0  0  0  0
 32 27  1  0  0  0  0
M  END
>  <MODEL>
9

>  <REMARK>
 VINA RESULT:      -5.3      4.619      8.756
  Name = 
  5 active torsions:
  status: ('A' for Active; 'I' for Inactive)
    1  A    between atoms: C_1  and  C_10
    2  A    between atoms: C_2  and  S_24
    3  A    between atoms: C_10  and  S_24
    4  A    between atoms: C_11  and  C_27
    5  A    between atoms: N_16  and  C_27
                            x       y       z     vdW  Elec       q    Type
                         _______ _______ _______ _____ _____    ______ ____

>  <TORSDO>
F 5

$$$$
