=
 OpenBabel10262423233D

 34 38  0  0  1  0  0  0  0  0999 V2000
  181.0760  178.3020  142.4730 C   0  0  1  0  0  3  0  0  0  0  0  0
  179.7180  177.8120  142.9390 C   0  0  0  0  0  1  0  0  0  0  0  0
  180.6270  180.0440  140.8000 N   0  0  0  0  0  0  0  0  0  0  0  0
  181.1040  180.1650  137.1990 C   0  0  0  0  0  2  0  0  0  0  0  0
  181.2400  178.4380  138.6980 N   0  0  0  0  0  0  0  0  0  0  0  0
  181.2940  177.9300  139.9540 C   0  0  0  0  0  0  0  0  0  0  0  0
  181.0340  178.7730  141.0450 C   0  0  0  0  0  0  0  0  0  0  0  0
  181.6460  176.5620  140.1430 N   0  0  0  0  0  1  0  0  0  0  0  0
  181.1260  181.5890  136.7620 C   0  0  0  0  0  2  0  0  0  0  0  0
  179.8400  182.2960  137.0060 C   0  0  0  0  0  0  0  0  0  0  0  0
  179.3570  182.4130  138.2420 C   0  0  0  0  0  3  0  0  0  0  0  0
  180.9090  179.7330  138.4490 C   0  0  0  0  0  0  0  0  0  0  0  0
  179.8520  181.7190  139.4450 C   0  0  0  0  0  2  0  0  0  0  0  0
  180.5080  180.5510  139.5430 C   0  0  0  0  0  0  0  0  0  0  0  0
  179.2120  182.9970  135.9230 N   0  0  0  0  0  0  0  0  0  0  0  0
  178.9330  184.3390  136.0390 O   0  0  0  0  0  0  0  0  0  0  0  0
  178.9320  182.4090  134.8560 O   0  0  0  0  0  0  0  0  0  0  0  0
  181.6130  179.3700  143.4200 C   0  0  0  0  0  2  0  0  0  0  0  0
  186.6910  177.9260  143.8960 C   0  0  0  0  0  3  0  0  0  0  0  0
  185.5130  178.4550  146.4250 C   0  0  0  0  0  3  0  0  0  0  0  0
  189.5300  177.2020  146.1690 C   0  0  0  0  0  0  0  0  0  0  0  0
  183.0080  179.0550  143.8450 C   0  0  0  0  0  0  0  0  0  0  0  0
  184.2500  178.5960  142.7930 S   0  0  0  0  0  0  0  0  0  0  0  0
  188.7720  177.3570  145.0010 C   0  0  0  0  0  3  0  0  0  0  0  0
  187.4400  177.7730  145.0710 C   0  0  0  0  0  0  0  0  0  0  0  0
  183.4440  179.0030  145.1690 C   0  0  0  0  0  3  0  0  0  0  0  0
  187.6090  177.8810  147.5010 C   0  0  0  0  0  3  0  0  0  0  0  0
  186.8510  178.0380  146.3390 C   0  0  0  0  0  0  0  0  0  0  0  0
  188.9410  177.4650  147.4150 C   0  0  0  0  0  3  0  0  0  0  0  0
  184.7810  178.6040  145.2470 C   0  0  0  0  0  0  0  0  0  0  0  0
  185.3680  178.3420  144.0160 C   0  0  0  0  0  0  0  0  0  0  0  0
  190.9320  176.7640  146.0850 C   0  0  0  0  0  0  0  0  0  0  0  0
  191.4610  176.5290  144.9660 O   0  0  0  0  0  0  0  0  0  0  0  0
  191.6880  176.6080  147.2410 O   0  0  0  0  0  1  0  0  0  0  0  0
  1  2  1  1  0  0  0
  1 18  1  0  0  0  0
  3  7  1  0  0  0  0
  4 12  1  0  0  0  0
  5  6  1  0  0  0  0
  6  8  1  0  0  0  0
  6  7  2  0  0  0  0
  7  1  1  0  0  0  0
  9 10  1  0  0  0  0
  9  4  1  0  0  0  0
 10 11  2  0  0  0  0
 11 13  1  0  0  0  0
 12  5  2  0  0  0  0
 12 14  1  0  0  0  0
 13 14  1  0  0  0  0
 14  3  2  0  0  0  0
 15 16  2  0  0  0  0
 15 10  1  0  0  0  0
 17 15  2  0  0  0  0
 18 22  1  0  0  0  0
 19 31  2  0  0  0  0
 19 25  1  0  0  0  0
 21 29  1  0  0  0  0
 22 26  2  0  0  0  0
 23 22  1  0  0  0  0
 23 31  1  0  0  0  0
 24 25  1  0  0  0  0
 24 21  2  0  0  0  0
 25 28  2  0  0  0  0
 26 30  1  0  0  0  0
 28 20  1  0  0  0  0
 28 27  1  0  0  0  0
 29 27  2  0  0  0  0
 30 20  2  0  0  0  0
 31 30  1  0  0  0  0
 32 21  1  0  0  0  0
 32 34  1  0  0  0  0
 33 32  2  0  0  0  0
M  END
>  <MODEL>
1

>  <REMARK>
 VINA RESULT:      -9.7      0.000      0.000
  Name = 
  5 active torsions:
  status: ('A' for Active; 'I' for Inactive)
    1  A    between atoms: N_3  and  C_25
    2  A    between atoms: C_7  and  C_11
    3  A    between atoms: C_8  and  C_17
    4  A    between atoms: C_10  and  C_17
    5  A    between atoms: C_10  and  C_20
                            x       y       z     vdW  Elec       q    Type
                         _______ _______ _______ _____ _____    ______ ____

>  <TORSDO>
F 5

$$$$
=
 OpenBabel10262423233D

 34 38  0  0  1  0  0  0  0  0999 V2000
  189.1210  178.1610  147.1040 C   0  0  1  0  0  3  0  0  0  0  0  0
  190.0260  178.1370  148.3210 C   0  0  0  0  0  1  0  0  0  0  0  0
  189.3880  178.1590  144.6620 N   0  0  0  0  0  0  0  0  0  0  0  0
  191.9320  176.7580  142.4770 C   0  0  0  0  0  2  0  0  0  0  0  0
  191.5320  176.4940  144.7170 N   0  0  0  0  0  0  0  0  0  0  0  0
  190.9240  176.8240  145.8830 C   0  0  0  0  0  0  0  0  0  0  0  0
  189.8530  177.7300  145.8620 C   0  0  0  0  0  0  0  0  0  0  0  0
  191.4060  176.2730  147.1060 N   0  0  0  0  0  1  0  0  0  0  0  0
  191.8700  177.4490  141.1580 C   0  0  0  0  0  2  0  0  0  0  0  0
  190.5840  177.2320  140.4430 C   0  0  0  0  0  0  0  0  0  0  0  0
  189.4330  177.6190  140.9910 C   0  0  0  0  0  3  0  0  0  0  0  0
  191.1220  176.9820  143.5170 C   0  0  0  0  0  0  0  0  0  0  0  0
  189.2330  178.0740  142.3800 C   0  0  0  0  0  2  0  0  0  0  0  0
  189.9490  177.7880  143.4790 C   0  0  0  0  0  0  0  0  0  0  0  0
  190.6090  176.7590  139.0890 N   0  0  0  0  0  0  0  0  0  0  0  0
  190.2080  177.5830  138.0630 O   0  0  0  0  0  0  0  0  0  0  0  0
  191.0140  175.6080  138.8190 O   0  0  0  0  0  0  0  0  0  0  0  0
  187.8660  177.3320  147.3540 C   0  0  0  0  0  2  0  0  0  0  0  0
  183.3910  179.0110  145.0630 C   0  0  0  0  0  3  0  0  0  0  0  0
  185.1650  177.8560  143.1700 C   0  0  0  0  0  3  0  0  0  0  0  0
  181.4070  179.3190  141.9450 C   0  0  0  0  0  0  0  0  0  0  0  0
  186.7580  177.7520  146.4470 C   0  0  0  0  0  0  0  0  0  0  0  0
  185.3250  178.4870  146.9620 S   0  0  0  0  0  0  0  0  0  0  0  0
  181.7820  179.4030  143.2930 C   0  0  0  0  0  3  0  0  0  0  0  0
  183.0250  178.9220  143.7120 C   0  0  0  0  0  0  0  0  0  0  0  0
  186.7170  177.5070  145.0750 C   0  0  0  0  0  3  0  0  0  0  0  0
  183.5350  178.2620  141.4210 C   0  0  0  0  0  3  0  0  0  0  0  0
  183.9130  178.3440  142.7630 C   0  0  0  0  0  0  0  0  0  0  0  0
  182.2890  178.7470  141.0160 C   0  0  0  0  0  3  0  0  0  0  0  0
  185.5160  177.9520  144.5170 C   0  0  0  0  0  0  0  0  0  0  0  0
  184.6400  178.5190  145.4330 C   0  0  0  0  0  0  0  0  0  0  0  0
  180.0950  179.8290  141.5130 C   0  0  0  0  0  0  0  0  0  0  0  0
  179.4220  179.2070  140.6480 O   0  0  0  0  0  0  0  0  0  0  0  0
  179.5860  181.0020  142.0580 O   0  0  0  0  0  1  0  0  0  0  0  0
  1 18  1  0  0  0  0
  1  2  1  1  0  0  0
  3  7  1  0  0  0  0
  4 12  1  0  0  0  0
  5  6  1  0  0  0  0
  6  8  1  0  0  0  0
  7  6  2  0  0  0  0
  7  1  1  0  0  0  0
  9  4  1  0  0  0  0
 10 11  2  0  0  0  0
 10  9  1  0  0  0  0
 11 13  1  0  0  0  0
 12  5  2  0  0  0  0
 13 14  1  0  0  0  0
 14 12  1  0  0  0  0
 14  3  2  0  0  0  0
 15 10  1  0  0  0  0
 16 15  2  0  0  0  0
 17 15  2  0  0  0  0
 19 31  1  0  0  0  0
 20 30  1  0  0  0  0
 21 24  2  0  0  0  0
 22 23  1  0  0  0  0
 22 18  1  0  0  0  0
 24 25  1  0  0  0  0
 25 19  2  0  0  0  0
 26 22  2  0  0  0  0
 27 28  1  0  0  0  0
 28 20  2  0  0  0  0
 28 25  1  0  0  0  0
 29 27  2  0  0  0  0
 29 21  1  0  0  0  0
 30 26  1  0  0  0  0
 30 31  2  0  0  0  0
 31 23  1  0  0  0  0
 32 21  1  0  0  0  0
 32 34  1  0  0  0  0
 33 32  2  0  0  0  0
M  END
>  <MODEL>
2

>  <REMARK>
 VINA RESULT:      -9.3      4.847      9.906
  Name = 
  5 active torsions:
  status: ('A' for Active; 'I' for Inactive)
    1  A    between atoms: N_3  and  C_25
    2  A    between atoms: C_7  and  C_11
    3  A    between atoms: C_8  and  C_17
    4  A    between atoms: C_10  and  C_17
    5  A    between atoms: C_10  and  C_20
                            x       y       z     vdW  Elec       q    Type
                         _______ _______ _______ _____ _____    ______ ____

>  <TORSDO>
F 5

$$$$
=
 OpenBabel10262423233D

 34 38  0  0  1  0  0  0  0  0999 V2000
  181.3080  178.2810  143.0800 C   0  0  1  0  0  3  0  0  0  0  0  0
  179.9230  178.1260  143.6810 C   0  0  0  0  0  1  0  0  0  0  0  0
  181.8860  177.3580  140.8780 N   0  0  0  0  0  0  0  0  0  0  0  0
  180.9610  178.3190  137.4980 C   0  0  0  0  0  2  0  0  0  0  0  0
  180.6660  179.3640  139.5150 N   0  0  0  0  0  0  0  0  0  0  0  0
  180.6760  179.3990  140.8700 C   0  0  0  0  0  0  0  0  0  0  0  0
  181.2550  178.3340  141.5780 C   0  0  0  0  0  0  0  0  0  0  0  0
  180.0690  180.4960  141.5480 N   0  0  0  0  0  1  0  0  0  0  0  0
  181.1840  177.1600  136.5880 C   0  0  0  0  0  2  0  0  0  0  0  0
  182.6110  176.7530  136.4970 C   0  0  0  0  0  0  0  0  0  0  0  0
  183.2720  176.3570  137.5850 C   0  0  0  0  0  3  0  0  0  0  0  0
  181.2270  178.3480  138.8080 C   0  0  0  0  0  0  0  0  0  0  0  0
  182.8080  176.4700  138.9810 C   0  0  0  0  0  2  0  0  0  0  0  0
  181.9390  177.3400  139.5200 C   0  0  0  0  0  0  0  0  0  0  0  0
  183.2210  176.6270  135.2050 N   0  0  0  0  0  0  0  0  0  0  0  0
  183.3270  175.3920  134.6090 O   0  0  0  0  0  0  0  0  0  0  0  0
  183.6420  177.6330  134.5940 O   0  0  0  0  0  0  0  0  0  0  0  0
  182.0190  179.4900  143.6790 C   0  0  0  0  0  2  0  0  0  0  0  0
  187.0560  177.9310  144.2100 C   0  0  0  0  0  3  0  0  0  0  0  0
  185.8380  178.4080  146.7300 C   0  0  0  0  0  3  0  0  0  0  0  0
  189.8340  177.0820  146.5150 C   0  0  0  0  0  0  0  0  0  0  0  0
  183.3980  179.1340  144.1220 C   0  0  0  0  0  0  0  0  0  0  0  0
  184.6520  178.6830  143.0800 S   0  0  0  0  0  0  0  0  0  0  0  0
  189.1030  177.2880  145.3370 C   0  0  0  0  0  3  0  0  0  0  0  0
  187.7790  177.7280  145.3940 C   0  0  0  0  0  0  0  0  0  0  0  0
  183.8060  179.0340  145.4510 C   0  0  0  0  0  3  0  0  0  0  0  0
  187.9010  177.7600  147.8290 C   0  0  0  0  0  3  0  0  0  0  0  0
  187.1690  177.9670  146.6580 C   0  0  0  0  0  0  0  0  0  0  0  0
  189.2250  177.3200  147.7570 C   0  0  0  0  0  3  0  0  0  0  0  0
  185.1330  178.6070  145.5430 C   0  0  0  0  0  0  0  0  0  0  0  0
  185.7390  178.3700  144.3170 C   0  0  0  0  0  0  0  0  0  0  0  0
  191.2290  176.6190  146.4450 C   0  0  0  0  0  0  0  0  0  0  0  0
  191.7160  176.2220  145.3530 O   0  0  0  0  0  0  0  0  0  0  0  0
  192.0250  176.6190  147.5850 O   0  0  0  0  0  1  0  0  0  0  0  0
  1 18  1  0  0  0  0
  1  2  1  1  0  0  0
  3  7  1  0  0  0  0
  4 12  1  0  0  0  0
  5  6  1  0  0  0  0
  6  8  1  0  0  0  0
  6  7  2  0  0  0  0
  7  1  1  0  0  0  0
  9  4  1  0  0  0  0
 10  9  1  0  0  0  0
 10 11  2  0  0  0  0
 11 13  1  0  0  0  0
 12  5  2  0  0  0  0
 12 14  1  0  0  0  0
 13 14  1  0  0  0  0
 14  3  2  0  0  0  0
 15 10  1  0  0  0  0
 16 15  2  0  0  0  0
 17 15  2  0  0  0  0
 18 22  1  0  0  0  0
 19 31  2  0  0  0  0
 19 25  1  0  0  0  0
 21 29  1  0  0  0  0
 22 26  2  0  0  0  0
 23 22  1  0  0  0  0
 23 31  1  0  0  0  0
 24 25  1  0  0  0  0
 24 21  2  0  0  0  0
 25 28  2  0  0  0  0
 26 30  1  0  0  0  0
 28 20  1  0  0  0  0
 28 27  1  0  0  0  0
 29 27  2  0  0  0  0
 30 20  2  0  0  0  0
 31 30  1  0  0  0  0
 32 21  1  0  0  0  0
 32 34  1  0  0  0  0
 33 32  2  0  0  0  0
M  END
>  <MODEL>
3

>  <REMARK>
 VINA RESULT:      -9.1      2.523      3.466
  Name = 
  5 active torsions:
  status: ('A' for Active; 'I' for Inactive)
    1  A    between atoms: N_3  and  C_25
    2  A    between atoms: C_7  and  C_11
    3  A    between atoms: C_8  and  C_17
    4  A    between atoms: C_10  and  C_17
    5  A    between atoms: C_10  and  C_20
                            x       y       z     vdW  Elec       q    Type
                         _______ _______ _______ _____ _____    ______ ____

>  <TORSDO>
F 5

$$$$
=
 OpenBabel10262423233D

 34 38  0  0  1  0  0  0  0  0999 V2000
  188.4000  177.4230  145.5870 C   0  0  1  0  0  3  0  0  0  0  0  0
  188.7180  177.0290  147.0170 C   0  0  0  0  0  1  0  0  0  0  0  0
  186.3510  177.7100  144.2620 N   0  0  0  0  0  0  0  0  0  0  0  0
  183.0560  178.9990  145.0940 C   0  0  0  0  0  2  0  0  0  0  0  0
  185.0370  179.0190  146.2450 N   0  0  0  0  0  0  0  0  0  0  0  0
  186.3190  178.6300  146.4500 C   0  0  0  0  0  0  0  0  0  0  0  0
  186.9810  177.9030  145.4480 C   0  0  0  0  0  0  0  0  0  0  0  0
  186.9560  178.9360  147.6870 N   0  0  0  0  0  1  0  0  0  0  0  0
  182.0760  178.5060  144.0860 C   0  0  0  0  0  2  0  0  0  0  0  0
  182.3500  179.0030  142.7110 C   0  0  0  0  0  0  0  0  0  0  0  0
  183.5040  178.7210  142.1080 C   0  0  0  0  0  3  0  0  0  0  0  0
  184.3720  178.7600  145.0880 C   0  0  0  0  0  0  0  0  0  0  0  0
  184.6960  178.1190  142.7350 C   0  0  0  0  0  2  0  0  0  0  0  0
  185.0870  178.1480  144.0200 C   0  0  0  0  0  0  0  0  0  0  0  0
  181.2970  179.6430  141.9770 N   0  0  0  0  0  0  0  0  0  0  0  0
  180.4310  180.4990  142.6180 O   0  0  0  0  0  0  0  0  0  0  0  0
  181.1640  179.4540  140.7490 O   0  0  0  0  0  0  0  0  0  0  0  0
  189.4100  178.4450  145.0760 C   0  0  0  0  0  2  0  0  0  0  0  0
  192.3750  177.2270  140.8550 C   0  0  0  0  0  3  0  0  0  0  0  0
  189.6060  177.2130  140.2260 C   0  0  0  0  0  3  0  0  0  0  0  0
  192.4680  176.3780  137.2460 C   0  0  0  0  0  0  0  0  0  0  0  0
  189.9760  178.0250  143.7600 C   0  0  0  0  0  0  0  0  0  0  0  0
  191.6280  177.8750  143.4320 S   0  0  0  0  0  0  0  0  0  0  0  0
  192.8860  176.6640  138.5530 C   0  0  0  0  0  3  0  0  0  0  0  0
  191.9480  176.9420  139.5500 C   0  0  0  0  0  0  0  0  0  0  0  0
  189.2250  177.7970  142.6080 C   0  0  0  0  0  3  0  0  0  0  0  0
  190.1490  176.6500  137.9310 C   0  0  0  0  0  3  0  0  0  0  0  0
  190.5600  176.9350  139.2340 C   0  0  0  0  0  0  0  0  0  0  0  0
  191.0980  176.3730  136.9430 C   0  0  0  0  0  3  0  0  0  0  0  0
  190.0470  177.4940  141.5200 C   0  0  0  0  0  0  0  0  0  0  0  0
  191.4030  177.4980  141.8150 C   0  0  0  0  0  0  0  0  0  0  0  0
  193.4640  176.0860  136.2030 C   0  0  0  0  0  0  0  0  0  0  0  0
  193.2230  175.2260  135.3130 O   0  0  0  0  0  0  0  0  0  0  0  0
  194.6800  176.7590  136.1870 O   0  0  0  0  0  1  0  0  0  0  0  0
  1  2  1  1  0  0  0
  3  7  1  0  0  0  0
  5  6  1  0  0  0  0
  6  8  1  0  0  0  0
  7  1  1  0  0  0  0
  7  6  2  0  0  0  0
  9  4  1  0  0  0  0
 10  9  1  0  0  0  0
 11 10  2  0  0  0  0
 11 13  1  0  0  0  0
 12  4  1  0  0  0  0
 12  5  2  0  0  0  0
 13 14  1  0  0  0  0
 14  3  2  0  0  0  0
 14 12  1  0  0  0  0
 15 16  2  0  0  0  0
 15 10  1  0  0  0  0
 17 15  2  0  0  0  0
 18  1  1  0  0  0  0
 19 31  1  0  0  0  0
 20 30  1  0  0  0  0
 21 24  2  0  0  0  0
 22 18  1  0  0  0  0
 23 22  1  0  0  0  0
 24 25  1  0  0  0  0
 25 19  2  0  0  0  0
 26 22  2  0  0  0  0
 27 28  1  0  0  0  0
 28 25  1  0  0  0  0
 28 20  2  0  0  0  0
 29 21  1  0  0  0  0
 29 27  2  0  0  0  0
 30 31  2  0  0  0  0
 30 26  1  0  0  0  0
 31 23  1  0  0  0  0
 32 21  1  0  0  0  0
 33 32  2  0  0  0  0
 34 32  1  0  0  0  0
M  END
>  <MODEL>
4

>  <REMARK>
 VINA RESULT:      -8.9      5.599      8.127
  Name = 
  5 active torsions:
  status: ('A' for Active; 'I' for Inactive)
    1  A    between atoms: N_3  and  C_25
    2  A    between atoms: C_7  and  C_11
    3  A    between atoms: C_8  and  C_17
    4  A    between atoms: C_10  and  C_17
    5  A    between atoms: C_10  and  C_20
                            x       y       z     vdW  Elec       q    Type
                         _______ _______ _______ _____ _____    ______ ____

>  <TORSDO>
F 5

$$$$
=
 OpenBabel10262423233D

 34 38  0  0  1  0  0  0  0  0999 V2000
  189.3030  176.3320  137.1890 C   0  0  1  0  0  3  0  0  0  0  0  0
  188.5690  176.3830  135.8620 C   0  0  0  0  0  1  0  0  0  0  0  0
  191.7370  176.2350  136.8700 N   0  0  0  0  0  0  0  0  0  0  0  0
  194.1180  173.4920  136.9920 C   0  0  0  0  0  2  0  0  0  0  0  0
  191.8270  173.5240  136.9880 N   0  0  0  0  0  0  0  0  0  0  0  0
  190.6270  174.1480  137.0830 C   0  0  0  0  0  0  0  0  0  0  0  0
  190.5840  175.5510  137.0810 C   0  0  0  0  0  0  0  0  0  0  0  0
  189.4400  173.3710  137.2190 N   0  0  0  0  0  1  0  0  0  0  0  0
  195.4840  174.0470  137.2090 C   0  0  0  0  0  2  0  0  0  0  0  0
  195.9480  174.9120  136.0910 C   0  0  0  0  0  0  0  0  0  0  0  0
  195.2720  176.0120  135.7630 C   0  0  0  0  0  3  0  0  0  0  0  0
  192.9950  174.2060  136.8560 C   0  0  0  0  0  0  0  0  0  0  0  0
  193.9360  176.3990  136.2540 C   0  0  0  0  0  2  0  0  0  0  0  0
  192.9400  175.6210  136.7110 C   0  0  0  0  0  0  0  0  0  0  0  0
  197.2190  174.6450  135.4830 N   0  0  0  0  0  0  0  0  0  0  0  0
  198.3300  175.3640  135.8610 O   0  0  0  0  0  0  0  0  0  0  0  0
  197.3430  173.7460  134.6240 O   0  0  0  0  0  0  0  0  0  0  0  0
  189.5260  177.7390  137.7320 C   0  0  0  0  0  2  0  0  0  0  0  0
  190.1410  177.4550  142.9890 C   0  0  0  0  0  3  0  0  0  0  0  0
  187.4300  177.9070  142.2770 C   0  0  0  0  0  3  0  0  0  0  0  0
  188.5300  177.5270  146.3290 C   0  0  0  0  0  0  0  0  0  0  0  0
  189.4090  177.7620  139.2200 C   0  0  0  0  0  0  0  0  0  0  0  0
  190.6970  177.5030  140.2850 S   0  0  0  0  0  0  0  0  0  0  0  0
  189.5070  177.4290  145.3280 C   0  0  0  0  0  3  0  0  0  0  0  0
  189.1560  177.5540  143.9820 C   0  0  0  0  0  0  0  0  0  0  0  0
  188.2130  177.9030  139.9220 C   0  0  0  0  0  3  0  0  0  0  0  0
  186.8270  177.8770  144.6260 C   0  0  0  0  0  3  0  0  0  0  0  0
  187.7970  177.7810  143.6260 C   0  0  0  0  0  0  0  0  0  0  0  0
  187.1920  177.7510  145.9690 C   0  0  0  0  0  3  0  0  0  0  0  0
  188.4210  177.8070  141.3000 C   0  0  0  0  0  0  0  0  0  0  0  0
  189.7430  177.5860  141.6610 C   0  0  0  0  0  0  0  0  0  0  0  0
  188.9100  177.3950  147.7440 C   0  0  0  0  0  0  0  0  0  0  0  0
  190.1240  177.3780  148.0810 O   0  0  0  0  0  0  0  0  0  0  0  0
  187.9300  177.2900  148.7250 O   0  0  0  0  0  1  0  0  0  0  0  0
  1  2  1  6  0  0  0
  1 18  1  0  0  0  0
  3  7  1  0  0  0  0
  4  9  1  0  0  0  0
  5  6  1  0  0  0  0
  6  8  1  0  0  0  0
  7  6  2  0  0  0  0
  7  1  1  0  0  0  0
 10  9  1  0  0  0  0
 11 10  2  0  0  0  0
 11 13  1  0  0  0  0
 12  5  2  0  0  0  0
 12  4  1  0  0  0  0
 13 14  1  0  0  0  0
 14 12  1  0  0  0  0
 14  3  2  0  0  0  0
 15 16  2  0  0  0  0
 15 10  1  0  0  0  0
 17 15  2  0  0  0  0
 18 22  1  0  0  0  0
 19 25  1  0  0  0  0
 20 28  1  0  0  0  0
 21 32  1  0  0  0  0
 22 26  2  0  0  0  0
 22 23  1  0  0  0  0
 23 31  1  0  0  0  0
 24 21  2  0  0  0  0
 25 24  1  0  0  0  0
 26 30  1  0  0  0  0
 27 29  2  0  0  0  0
 28 25  2  0  0  0  0
 28 27  1  0  0  0  0
 29 21  1  0  0  0  0
 30 31  1  0  0  0  0
 30 20  2  0  0  0  0
 31 19  2  0  0  0  0
 32 33  2  0  0  0  0
 32 34  1  0  0  0  0
M  END
>  <MODEL>
5

>  <REMARK>
 VINA RESULT:      -8.9      7.828     11.121
  Name = 
  5 active torsions:
  status: ('A' for Active; 'I' for Inactive)
    1  A    between atoms: N_3  and  C_25
    2  A    between atoms: C_7  and  C_11
    3  A    between atoms: C_8  and  C_17
    4  A    between atoms: C_10  and  C_17
    5  A    between atoms: C_10  and  C_20
                            x       y       z     vdW  Elec       q    Type
                         _______ _______ _______ _____ _____    ______ ____

>  <TORSDO>
F 5

$$$$
=
 OpenBabel10262423233D

 34 38  0  0  1  0  0  0  0  0999 V2000
  190.2310  178.2260  144.3370 C   0  0  1  0  0  3  0  0  0  0  0  0
  191.6250  178.2510  144.9360 C   0  0  0  0  0  1  0  0  0  0  0  0
  189.5970  178.3780  141.9680 N   0  0  0  0  0  0  0  0  0  0  0  0
  190.4250  176.3420  139.0740 C   0  0  0  0  0  2  0  0  0  0  0  0
  190.7700  176.0180  141.3160 N   0  0  0  0  0  0  0  0  0  0  0  0
  190.7960  176.4330  142.6060 C   0  0  0  0  0  0  0  0  0  0  0  0
  190.2420  177.6790  142.9360 C   0  0  0  0  0  0  0  0  0  0  0  0
  191.4160  175.6130  143.5940 N   0  0  0  0  0  1  0  0  0  0  0  0
  190.1830  177.1380  137.8380 C   0  0  0  0  0  2  0  0  0  0  0  0
  188.7560  177.5120  137.6520 C   0  0  0  0  0  0  0  0  0  0  0  0
  188.1280  178.2540  138.5630 C   0  0  0  0  0  3  0  0  0  0  0  0
  190.1940  176.7510  140.3260 C   0  0  0  0  0  0  0  0  0  0  0  0
  188.6280  178.6020  139.9060 C   0  0  0  0  0  2  0  0  0  0  0  0
  189.5080  177.9470  140.6820 C   0  0  0  0  0  0  0  0  0  0  0  0
  188.1120  177.2120  136.4060 N   0  0  0  0  0  0  0  0  0  0  0  0
  188.2810  175.9780  135.8210 O   0  0  0  0  0  0  0  0  0  0  0  0
  187.3740  178.0510  135.8470 O   0  0  0  0  0  0  0  0  0  0  0  0
  189.2700  177.4690  145.2470 C   0  0  0  0  0  2  0  0  0  0  0  0
  184.0950  178.6120  145.2370 C   0  0  0  0  0  3  0  0  0  0  0  0
  185.0870  178.2320  142.6040 C   0  0  0  0  0  3  0  0  0  0  0  0
  181.0120  179.1080  143.2360 C   0  0  0  0  0  0  0  0  0  0  0  0
  187.8530  177.8210  144.9410 C   0  0  0  0  0  0  0  0  0  0  0  0
  186.6710  178.1350  146.1090 S   0  0  0  0  0  0  0  0  0  0  0  0
  181.8810  179.0040  144.3300 C   0  0  0  0  0  3  0  0  0  0  0  0
  183.2340  178.7140  144.1350 C   0  0  0  0  0  0  0  0  0  0  0  0
  187.2970  177.8440  143.6630 C   0  0  0  0  0  3  0  0  0  0  0  0
  182.8610  178.6290  141.7270 C   0  0  0  0  0  3  0  0  0  0  0  0
  183.7300  178.5250  142.8150 C   0  0  0  0  0  0  0  0  0  0  0  0
  181.5100  178.9190  141.9380 C   0  0  0  0  0  3  0  0  0  0  0  0
  185.9320  178.1350  143.7100 C   0  0  0  0  0  0  0  0  0  0  0  0
  185.4350  178.3230  144.9920 C   0  0  0  0  0  0  0  0  0  0  0  0
  179.5890  179.4140  143.4520 C   0  0  0  0  0  0  0  0  0  0  0  0
  178.9310  178.7980  144.3320 O   0  0  0  0  0  1  0  0  0  0  0  0
  178.9580  180.3880  142.6860 O   0  0  0  0  0  0  0  0  0  0  0  0
  1  2  1  1  0  0  0
  1 18  1  0  0  0  0
  3  7  1  0  0  0  0
  4 12  1  0  0  0  0
  5  6  1  0  0  0  0
  6  7  2  0  0  0  0
  6  8  1  0  0  0  0
  7  1  1  0  0  0  0
  9  4  1  0  0  0  0
 10  9  1  0  0  0  0
 10 11  2  0  0  0  0
 11 13  1  0  0  0  0
 12 14  1  0  0  0  0
 12  5  2  0  0  0  0
 13 14  1  0  0  0  0
 14  3  2  0  0  0  0
 15 10  1  0  0  0  0
 16 15  2  0  0  0  0
 17 15  2  0  0  0  0
 20 28  2  0  0  0  0
 20 30  1  0  0  0  0
 21 32  1  0  0  0  0
 21 24  2  0  0  0  0
 22 18  1  0  0  0  0
 22 23  1  0  0  0  0
 25 24  1  0  0  0  0
 25 19  2  0  0  0  0
 26 30  1  0  0  0  0
 26 22  2  0  0  0  0
 27 29  2  0  0  0  0
 27 28  1  0  0  0  0
 28 25  1  0  0  0  0
 29 21  1  0  0  0  0
 30 31  2  0  0  0  0
 31 19  1  0  0  0  0
 31 23  1  0  0  0  0
 32 33  1  0  0  0  0
 34 32  2  0  0  0  0
M  END
>  <MODEL>
6

>  <REMARK>
 VINA RESULT:      -8.8      5.269      8.976
  Name = 
  5 active torsions:
  status: ('A' for Active; 'I' for Inactive)
    1  A    between atoms: N_3  and  C_25
    2  A    between atoms: C_7  and  C_11
    3  A    between atoms: C_8  and  C_17
    4  A    between atoms: C_10  and  C_17
    5  A    between atoms: C_10  and  C_20
                            x       y       z     vdW  Elec       q    Type
                         _______ _______ _______ _____ _____    ______ ____

>  <TORSDO>
F 5

$$$$
=
 OpenBabel10262423233D

 34 38  0  0  1  0  0  0  0  0999 V2000
  188.8880  177.7010  137.6510 C   0  0  1  0  0  3  0  0  0  0  0  0
  189.4240  178.1630  136.3080 C   0  0  0  0  0  1  0  0  0  0  0  0
  187.9420  175.4700  137.2500 N   0  0  0  0  0  0  0  0  0  0  0  0
  184.5300  174.2180  137.2480 C   0  0  0  0  0  2  0  0  0  0  0  0
  185.3730  176.3470  137.3200 N   0  0  0  0  0  0  0  0  0  0  0  0
  186.3800  177.2430  137.4650 C   0  0  0  0  0  0  0  0  0  0  0  0
  187.7060  176.7850  137.4870 C   0  0  0  0  0  0  0  0  0  0  0  0
  186.0710  178.6250  137.6260 N   0  0  0  0  0  1  0  0  0  0  0  0
  184.5580  172.7390  137.4280 C   0  0  0  0  0  2  0  0  0  0  0  0
  185.2320  172.0260  136.3110 C   0  0  0  0  0  0  0  0  0  0  0  0
  186.5090  172.2740  136.0240 C   0  0  0  0  0  3  0  0  0  0  0  0
  185.6000  175.0160  137.1610 C   0  0  0  0  0  0  0  0  0  0  0  0
  187.3310  173.3730  136.5650 C   0  0  0  0  0  2  0  0  0  0  0  0
  186.9460  174.5680  137.0410 C   0  0  0  0  0  0  0  0  0  0  0  0
  184.5480  170.9480  135.6560 N   0  0  0  0  0  0  0  0  0  0  0  0
  183.1810  170.8300  135.7660 O   0  0  0  0  0  0  0  0  0  0  0  0
  185.1740  170.1190  134.9620 O   0  0  0  0  0  0  0  0  0  0  0  0
  189.9990  177.0720  138.4840 C   0  0  0  0  0  2  0  0  0  0  0  0
  190.1070  177.3570  143.7750 C   0  0  0  0  0  3  0  0  0  0  0  0
  187.4740  177.6840  142.7640 C   0  0  0  0  0  3  0  0  0  0  0  0
  188.1810  177.7540  146.9190 C   0  0  0  0  0  0  0  0  0  0  0  0
  189.7400  177.2500  139.9420 C   0  0  0  0  0  0  0  0  0  0  0  0
  190.9210  177.1280  141.1470 S   0  0  0  0  0  0  0  0  0  0  0  0
  189.2510  177.5680  146.0330 C   0  0  0  0  0  3  0  0  0  0  0  0
  189.0300  177.5430  144.6540 C   0  0  0  0  0  0  0  0  0  0  0  0
  188.4800  177.4440  140.5090 C   0  0  0  0  0  3  0  0  0  0  0  0
  186.6480  177.8920  145.0350 C   0  0  0  0  0  3  0  0  0  0  0  0
  187.7100  177.7080  144.1480 C   0  0  0  0  0  0  0  0  0  0  0  0
  186.8830  177.9150  146.4120 C   0  0  0  0  0  3  0  0  0  0  0  0
  188.5550  177.4990  141.9030 C   0  0  0  0  0  0  0  0  0  0  0  0
  189.8380  177.3400  142.4090 C   0  0  0  0  0  0  0  0  0  0  0  0
  188.4230  177.7790  148.3710 C   0  0  0  0  0  0  0  0  0  0  0  0
  189.4150  178.3970  148.8420 O   0  0  0  0  0  0  0  0  0  0  0  0
  187.5570  177.1220  149.2370 O   0  0  0  0  0  1  0  0  0  0  0  0
  1  2  1  6  0  0  0
  1 18  1  0  0  0  0
  3  7  1  0  0  0  0
  4  9  1  0  0  0  0
  5  6  1  0  0  0  0
  6  7  2  0  0  0  0
  6  8  1  0  0  0  0
  7  1  1  0  0  0  0
 10  9  1  0  0  0  0
 11 10  2  0  0  0  0
 11 13  1  0  0  0  0
 12  4  1  0  0  0  0
 12  5  2  0  0  0  0
 13 14  1  0  0  0  0
 14 12  1  0  0  0  0
 14  3  2  0  0  0  0
 15 16  2  0  0  0  0
 15 10  1  0  0  0  0
 17 15  2  0  0  0  0
 18 22  1  0  0  0  0
 19 25  1  0  0  0  0
 20 28  1  0  0  0  0
 21 32  1  0  0  0  0
 22 26  2  0  0  0  0
 22 23  1  0  0  0  0
 23 31  1  0  0  0  0
 24 21  2  0  0  0  0
 25 24  1  0  0  0  0
 26 30  1  0  0  0  0
 27 29  2  0  0  0  0
 28 25  2  0  0  0  0
 28 27  1  0  0  0  0
 29 21  1  0  0  0  0
 30 31  1  0  0  0  0
 30 20  2  0  0  0  0
 31 19  2  0  0  0  0
 32 33  2  0  0  0  0
 32 34  1  0  0  0  0
M  END
>  <MODEL>
7

>  <REMARK>
 VINA RESULT:      -8.8      6.017      7.935
  Name = 
  5 active torsions:
  status: ('A' for Active; 'I' for Inactive)
    1  A    between atoms: N_3  and  C_25
    2  A    between atoms: C_7  and  C_11
    3  A    between atoms: C_8  and  C_17
    4  A    between atoms: C_10  and  C_17
    5  A    between atoms: C_10  and  C_20
                            x       y       z     vdW  Elec       q    Type
                         _______ _______ _______ _____ _____    ______ ____

>  <TORSDO>
F 5

$$$$
=
 OpenBabel10262423233D

 34 38  0  0  1  0  0  0  0  0999 V2000
  181.6250  178.7920  141.0620 C   0  0  1  0  0  3  0  0  0  0  0  0
  180.6930  179.9810  140.9230 C   0  0  0  0  0  1  0  0  0  0  0  0
  181.4280  177.0000  139.3940 N   0  0  0  0  0  0  0  0  0  0  0  0
  179.4190  173.9740  139.2730 C   0  0  0  0  0  2  0  0  0  0  0  0
  179.3710  175.7810  140.6800 N   0  0  0  0  0  0  0  0  0  0  0  0
  179.8840  176.9260  141.1940 C   0  0  0  0  0  0  0  0  0  0  0  0
  180.9840  177.5260  140.5630 C   0  0  0  0  0  0  0  0  0  0  0  0
  179.3190  177.4780  142.3810 N   0  0  0  0  0  1  0  0  0  0  0  0
  180.0310  173.0260  138.3000 C   0  0  0  0  0  2  0  0  0  0  0  0
  180.0370  173.5420  136.9050 C   0  0  0  0  0  0  0  0  0  0  0  0
  180.6790  174.6700  136.6050 C   0  0  0  0  0  3  0  0  0  0  0  0
  179.8620  175.2050  139.5520 C   0  0  0  0  0  0  0  0  0  0  0  0
  181.2450  175.6380  137.5630 C   0  0  0  0  0  2  0  0  0  0  0  0
  180.8840  175.8870  138.8320 C   0  0  0  0  0  0  0  0  0  0  0  0
  179.4910  172.7290  135.8570 N   0  0  0  0  0  0  0  0  0  0  0  0
  179.3240  171.3760  136.0490 O   0  0  0  0  0  0  0  0  0  0  0  0
  179.1400  173.2340  134.7700 O   0  0  0  0  0  0  0  0  0  0  0  0
  182.9590  179.0750  140.3790 C   0  0  0  0  0  2  0  0  0  0  0  0
  187.5600  177.9580  142.7610 C   0  0  0  0  0  3  0  0  0  0  0  0
  185.4390  178.1770  144.6360 C   0  0  0  0  0  3  0  0  0  0  0  0
  189.3370  177.2390  145.9360 C   0  0  0  0  0  0  0  0  0  0  0  0
  184.0990  178.8230  141.3080 C   0  0  0  0  0  0  0  0  0  0  0  0
  185.6940  178.5480  140.8150 S   0  0  0  0  0  0  0  0  0  0  0  0
  189.0870  177.4430  144.5720 C   0  0  0  0  0  3  0  0  0  0  0  0
  187.8000  177.7550  144.1280 C   0  0  0  0  0  0  0  0  0  0  0  0
  183.9840  178.6850  142.6910 C   0  0  0  0  0  3  0  0  0  0  0  0
  186.9910  177.6600  146.4260 C   0  0  0  0  0  3  0  0  0  0  0  0
  186.7380  177.8650  145.0680 C   0  0  0  0  0  0  0  0  0  0  0  0
  188.2840  177.3490  146.8560 C   0  0  0  0  0  3  0  0  0  0  0  0
  185.2160  178.3770  143.2730 C   0  0  0  0  0  0  0  0  0  0  0  0
  186.2610  178.2670  142.3670 C   0  0  0  0  0  0  0  0  0  0  0  0
  190.6970  176.9110  146.3940 C   0  0  0  0  0  0  0  0  0  0  0  0
  190.9480  176.8070  147.6240 O   0  0  0  0  0  1  0  0  0  0  0  0
  191.7170  176.7100  145.4710 O   0  0  0  0  0  0  0  0  0  0  0  0
  1  2  1  6  0  0  0
  3  7  1  0  0  0  0
  4 12  1  0  0  0  0
  5  6  1  0  0  0  0
  6  8  1  0  0  0  0
  7  1  1  0  0  0  0
  7  6  2  0  0  0  0
  9  4  1  0  0  0  0
 10  9  1  0  0  0  0
 11 10  2  0  0  0  0
 11 13  1  0  0  0  0
 12  5  2  0  0  0  0
 13 14  1  0  0  0  0
 14  3  2  0  0  0  0
 14 12  1  0  0  0  0
 15 16  2  0  0  0  0
 15 10  1  0  0  0  0
 17 15  2  0  0  0  0
 18  1  1  0  0  0  0
 18 22  1  0  0  0  0
 19 25  1  0  0  0  0
 20 28  1  0  0  0  0
 21 32  1  0  0  0  0
 21 29  1  0  0  0  0
 22 26  2  0  0  0  0
 23 22  1  0  0  0  0
 23 31  1  0  0  0  0
 24 21  2  0  0  0  0
 25 24  1  0  0  0  0
 25 28  2  0  0  0  0
 26 30  1  0  0  0  0
 27 29  2  0  0  0  0
 28 27  1  0  0  0  0
 30 20  2  0  0  0  0
 31 19  2  0  0  0  0
 31 30  1  0  0  0  0
 32 33  1  0  0  0  0
 34 32  2  0  0  0  0
M  END
>  <MODEL>
8

>  <REMARK>
 VINA RESULT:      -8.6      3.540      4.928
  Name = 
  5 active torsions:
  status: ('A' for Active; 'I' for Inactive)
    1  A    between atoms: N_3  and  C_25
    2  A    between atoms: C_7  and  C_11
    3  A    between atoms: C_8  and  C_17
    4  A    between atoms: C_10  and  C_17
    5  A    between atoms: C_10  and  C_20
                            x       y       z     vdW  Elec       q    Type
                         _______ _______ _______ _____ _____    ______ ____

>  <TORSDO>
F 5

$$$$
=
 OpenBabel10262423233D

 34 38  0  0  1  0  0  0  0  0999 V2000
  189.1720  177.0670  137.6310 C   0  0  1  0  0  3  0  0  0  0  0  0
  189.4570  177.8610  136.3700 C   0  0  0  0  0  1  0  0  0  0  0  0
  187.2170  175.6440  137.2000 N   0  0  0  0  0  0  0  0  0  0  0  0
  186.8880  172.1520  136.2480 C   0  0  0  0  0  2  0  0  0  0  0  0
  188.6940  173.3810  136.9420 N   0  0  0  0  0  0  0  0  0  0  0  0
  189.3200  174.5460  137.2390 C   0  0  0  0  0  0  0  0  0  0  0  0
  188.5660  175.7270  137.3150 C   0  0  0  0  0  0  0  0  0  0  0  0
  190.7320  174.5540  137.4330 N   0  0  0  0  0  1  0  0  0  0  0  0
  185.5380  171.9370  135.6560 C   0  0  0  0  0  2  0  0  0  0  0  0
  184.4310  172.1820  136.6190 C   0  0  0  0  0  0  0  0  0  0  0  0
  184.2780  173.3790  137.1830 C   0  0  0  0  0  3  0  0  0  0  0  0
  187.3510  173.3040  136.7470 C   0  0  0  0  0  0  0  0  0  0  0  0
  185.2350  174.5000  137.1330 C   0  0  0  0  0  2  0  0  0  0  0  0
  186.5670  174.4730  136.9630 C   0  0  0  0  0  0  0  0  0  0  0  0
  183.4310  171.1700  136.8050 N   0  0  0  0  0  0  0  0  0  0  0  0
  183.7100  169.8590  136.4940 O   0  0  0  0  0  0  0  0  0  0  0  0
  182.3080  171.4560  137.2710 O   0  0  0  0  0  0  0  0  0  0  0  0
  190.4310  176.9470  138.4830 C   0  0  0  0  0  2  0  0  0  0  0  0
  190.3910  177.4830  143.7560 C   0  0  0  0  0  3  0  0  0  0  0  0
  187.7600  177.4210  142.6920 C   0  0  0  0  0  3  0  0  0  0  0  0
  188.3650  177.7710  146.8490 C   0  0  0  0  0  0  0  0  0  0  0  0
  190.1210  177.1560  139.9270 C   0  0  0  0  0  0  0  0  0  0  0  0
  191.2820  177.2420  141.1540 S   0  0  0  0  0  0  0  0  0  0  0  0
  189.4680  177.6850  145.9880 C   0  0  0  0  0  3  0  0  0  0  0  0
  189.2820  177.5690  144.6090 C   0  0  0  0  0  0  0  0  0  0  0  0
  188.8360  177.2110  140.4650 C   0  0  0  0  0  3  0  0  0  0  0  0
  186.8660  177.6230  144.9370 C   0  0  0  0  0  3  0  0  0  0  0  0
  187.9620  177.5380  144.0760 C   0  0  0  0  0  0  0  0  0  0  0  0
  187.0680  177.7390  146.3150 C   0  0  0  0  0  3  0  0  0  0  0  0
  188.8740  177.3380  141.8560 C   0  0  0  0  0  0  0  0  0  0  0  0
  190.1550  177.3700  142.3880 C   0  0  0  0  0  0  0  0  0  0  0  0
  188.5720  177.8930  148.3010 C   0  0  0  0  0  0  0  0  0  0  0  0
  187.6680  177.5430  149.1060 O   0  0  0  0  0  1  0  0  0  0  0  0
  189.7690  178.3950  148.7980 O   0  0  0  0  0  0  0  0  0  0  0  0
  1  2  1  6  0  0  0
  1 18  1  0  0  0  0
  3  7  1  0  0  0  0
  4 12  1  0  0  0  0
  5  6  1  0  0  0  0
  6  7  2  0  0  0  0
  6  8  1  0  0  0  0
  7  1  1  0  0  0  0
  9  4  1  0  0  0  0
  9 10  1  0  0  0  0
 10 15  1  0  0  0  0
 10 11  2  0  0  0  0
 12  5  2  0  0  0  0
 12 14  1  0  0  0  0
 13 11  1  0  0  0  0
 14 13  1  0  0  0  0
 14  3  2  0  0  0  0
 15 17  2  0  0  0  0
 16 15  2  0  0  0  0
 18 22  1  0  0  0  0
 19 25  1  0  0  0  0
 20 28  1  0  0  0  0
 21 32  1  0  0  0  0
 22 26  2  0  0  0  0
 22 23  1  0  0  0  0
 23 31  1  0  0  0  0
 24 21  2  0  0  0  0
 25 24  1  0  0  0  0
 26 30  1  0  0  0  0
 27 29  2  0  0  0  0
 28 25  2  0  0  0  0
 28 27  1  0  0  0  0
 29 21  1  0  0  0  0
 30 31  1  0  0  0  0
 30 20  2  0  0  0  0
 31 19  2  0  0  0  0
 32 34  2  0  0  0  0
 32 33  1  0  0  0  0
M  END
>  <MODEL>
9

>  <REMARK>
 VINA RESULT:      -8.6      6.531      8.270
  Name = 
  5 active torsions:
  status: ('A' for Active; 'I' for Inactive)
    1  A    between atoms: N_3  and  C_25
    2  A    between atoms: C_7  and  C_11
    3  A    between atoms: C_8  and  C_17
    4  A    between atoms: C_10  and  C_17
    5  A    between atoms: C_10  and  C_20
                            x       y       z     vdW  Elec       q    Type
                         _______ _______ _______ _____ _____    ______ ____

>  <TORSDO>
F 5

$$$$
