=
 OpenBabel10262422563D

 37 41  0  0  1  0  0  0  0  0999 V2000
  186.0150  179.0880  141.5420 C   0  0  2  0  0  3  0  0  0  0  0  0
  187.8160  178.0430  140.0940 C   0  0  0  0  0  3  0  0  0  0  0  0
  184.7950  178.3840  139.3870 C   0  0  1  0  0  3  0  0  0  0  0  0
  185.9960  178.4740  138.4140 C   0  0  1  0  0  3  0  0  0  0  0  0
  187.1780  177.7250  138.9620 C   0  0  0  0  0  3  0  0  0  0  0  0
  184.9080  179.3890  140.5350 C   0  0  0  0  0  2  0  0  0  0  0  0
  187.4320  179.1990  140.9670 C   0  0  0  0  0  2  0  0  0  0  0  0
  180.4340  175.8770  136.7020 O   0  0  0  0  0  0  0  0  0  0  0  0
  183.3710  178.4480  138.7710 C   0  0  1  0  0  3  0  0  0  0  0  0
  180.9630  177.3340  138.5260 C   0  0  1  0  0  3  0  0  0  0  0  0
  182.4610  177.1820  138.8520 C   0  0  2  0  0  0  0  0  0  0  0  0
  180.4080  178.6500  139.0620 C   0  0  0  0  0  2  0  0  0  0  0  0
  182.7670  176.1170  139.8870 C   0  0  0  0  0  2  0  0  0  0  0  0
  182.2380  174.7990  137.8490 C   0  0  0  0  0  2  0  0  0  0  0  0
  183.5640  181.1760  138.6330 Cl  0  0  0  0  0  0  0  0  0  0  0  0
  181.2450  179.8260  138.5820 C   0  0  0  0  0  2  0  0  0  0  0  0
  183.1490  175.8740  138.4350 C   0  0  1  0  0  3  0  0  0  0  0  0
  182.6460  179.7460  139.1710 C   0  0  1  0  0  3  0  0  0  0  0  0
  180.7070  177.2120  137.0250 C   0  0  0  0  0  2  0  0  0  0  0  0
  181.6750  175.2550  136.5080 C   0  0  0  0  0  2  0  0  0  0  0  0
  185.7100  177.9110  142.4860 C   0  0  1  0  0  3  0  0  0  0  0  0
  186.6730  177.7700  143.6640 C   0  0  0  0  0  2  0  0  0  0  0  0
  188.7600  176.7380  144.2180 O   0  0  0  0  0  1  0  0  0  0  0  0
  187.5880  176.5710  143.4800 C   0  0  0  0  0  2  0  0  0  0  0  0
  184.2310  177.8230  142.8820 C   0  0  0  0  0  2  0  0  0  0  0  0
  182.2560  179.2730  143.2430 C   0  0  0  0  0  1  0  0  0  0  0  0
  183.7130  179.0650  143.5980 C   0  0  0  0  0  3  0  0  0  0  0  0
  183.8370  178.9020  145.0990 C   0  0  0  0  0  1  0  0  0  0  0  0
  185.6930  177.9030  137.0360 C   0  0  0  0  0  2  0  0  0  0  0  0
  186.7450  176.8850  136.6380 C   0  0  0  0  0  2  0  0  0  0  0  0
  185.4180  175.5170  135.0180 C   0  0  0  0  0  3  0  0  0  0  0  0
  186.0870  175.6100  136.2440 C   0  0  0  0  0  0  0  0  0  0  0  0
  186.0990  174.5160  137.1170 C   0  0  0  0  0  3  0  0  0  0  0  0
  185.4720  172.2670  137.6010 F   0  0  0  0  0  0  0  0  0  0  0  0
  184.7940  173.2340  135.5300 C   0  0  0  0  0  3  0  0  0  0  0  0
  185.4560  173.3270  136.7590 C   0  0  0  0  0  0  0  0  0  0  0  0
  184.7750  174.3290  134.6600 C   0  0  0  0  0  3  0  0  0  0  0  0
  1 21  1  6  0  0  0
  2  7  1  0  0  0  0
  3  6  1  1  0  0  0
  4 29  1  6  0  0  0
  4  5  1  0  0  0  0
  4  3  1  0  0  0  0
  5  2  2  0  0  0  0
  6  1  1  0  0  0  0
  7  1  1  0  0  0  0
  8 19  1  0  0  0  0
  9 11  1  0  0  0  0
  9 18  1  0  0  0  0
  9  3  1  1  0  0  0
 10 19  1  6  0  0  0
 10 11  1  0  0  0  0
 10 12  1  0  0  0  0
 11 13  1  1  0  0  0
 16 12  1  0  0  0  0
 16 18  1  0  0  0  0
 17 14  1  6  0  0  0
 17 11  1  0  0  0  0
 17 13  1  0  0  0  0
 18 15  1  6  0  0  0
 20  8  1  0  0  0  0
 20 14  1  0  0  0  0
 21 25  1  1  0  0  0
 21 22  1  0  0  0  0
 24 22  1  0  0  0  0
 24 23  1  0  0  0  0
 25 27  1  0  0  0  0
 26 27  1  0  0  0  0
 27 28  1  0  0  0  0
 30 29  1  0  0  0  0
 31 32  1  0  0  0  0
 32 30  1  0  0  0  0
 32 33  2  0  0  0  0
 35 36  2  0  0  0  0
 36 33  1  0  0  0  0
 36 34  1  0  0  0  0
 37 31  2  0  0  0  0
 37 35  1  0  0  0  0
M  END
>  <MODEL>
1

>  <REMARK>
 VINA RESULT:      -4.8      0.000      0.000
  Name = 
  9 active torsions:
  status: ('A' for Active; 'I' for Inactive)
    1  A    between atoms: C_1  and  C_33
    2  A    between atoms: C_4  and  C_10
    3  A    between atoms: C_5  and  C_23
    4  A    between atoms: C_5  and  C_33
    5  A    between atoms: C_6  and  C_31
    6  A    between atoms: C_14  and  C_37
    7  A    between atoms: C_17  and  C_26
    8  A    between atoms: C_17  and  C_33
    9  A    between atoms: C_31  and  C_37
                            x       y       z     vdW  Elec       q    Type
                         _______ _______ _______ _____ _____    ______ ____

>  <TORSDO>
F 9

$$$$
=
 OpenBabel10262422563D

 37 41  0  0  1  0  0  0  0  0999 V2000
  184.3940  178.5750  138.7330 C   0  0  2  0  0  3  0  0  0  0  0  0
  185.2960  178.6550  141.1020 C   0  0  0  0  0  3  0  0  0  0  0  0
  186.8010  177.6810  138.5480 C   0  0  1  0  0  3  0  0  0  0  0  0
  187.4080  178.4290  139.7590 C   0  0  1  0  0  3  0  0  0  0  0  0
  186.5590  178.2320  140.9830 C   0  0  0  0  0  3  0  0  0  0  0  0
  185.6650  178.4710  137.8950 C   0  0  0  0  0  2  0  0  0  0  0  0
  184.5600  179.3890  140.0230 C   0  0  0  0  0  2  0  0  0  0  0  0
  189.2840  173.4030  135.7110 O   0  0  0  0  0  0  0  0  0  0  0  0
  187.7830  177.1730  137.4570 C   0  0  1  0  0  3  0  0  0  0  0  0
  188.2290  175.5300  135.4070 C   0  0  1  0  0  3  0  0  0  0  0  0
  187.4310  175.8630  136.6820 C   0  0  2  0  0  0  0  0  0  0  0  0
  188.5280  176.7840  134.5940 C   0  0  0  0  0  2  0  0  0  0  0  0
  185.9930  175.3820  136.6590 C   0  0  0  0  0  2  0  0  0  0  0  0
  187.2910  173.2970  137.0330 C   0  0  0  0  0  2  0  0  0  0  0  0
  189.0470  179.6010  137.4770 Cl  0  0  0  0  0  0  0  0  0  0  0  0
  189.1990  177.8420  135.4560 C   0  0  0  0  0  2  0  0  0  0  0  0
  186.9950  174.6920  137.5740 C   0  0  1  0  0  3  0  0  0  0  0  0
  188.2410  178.3200  136.5370 C   0  0  1  0  0  3  0  0  0  0  0  0
  189.5190  174.7830  135.7410 C   0  0  0  0  0  2  0  0  0  0  0  0
  188.7950  173.0570  136.9790 C   0  0  0  0  0  2  0  0  0  0  0  0
  183.5700  177.2770  138.8000 C   0  0  1  0  0  3  0  0  0  0  0  0
  182.7040  177.1340  140.0510 C   0  0  0  0  0  2  0  0  0  0  0  0
  180.4070  176.7930  140.6270 O   0  0  0  0  0  1  0  0  0  0  0  0
  181.4090  176.4040  139.7380 C   0  0  0  0  0  2  0  0  0  0  0  0
  182.8290  176.9650  137.4940 C   0  0  0  0  0  2  0  0  0  0  0  0
  182.1470  177.7760  135.2570 C   0  0  0  0  0  1  0  0  0  0  0  0
  182.5000  178.2010  136.6660 C   0  0  0  0  0  3  0  0  0  0  0  0
  181.3230  178.9440  137.2670 C   0  0  0  0  0  1  0  0  0  0  0  0
  188.8180  177.9660  140.1020 C   0  0  0  0  0  2  0  0  0  0  0  0
  188.7750  176.8110  141.0860 C   0  0  0  0  0  2  0  0  0  0  0  0
  189.7630  178.3930  142.7520 C   0  0  0  0  0  3  0  0  0  0  0  0
  189.6780  177.0960  142.2340 C   0  0  0  0  0  0  0  0  0  0  0  0
  190.4740  176.0760  142.7690 C   0  0  0  0  0  3  0  0  0  0  0  0
  192.1090  175.3630  144.3500 F   0  0  0  0  0  0  0  0  0  0  0  0
  191.4220  177.6460  144.3510 C   0  0  0  0  0  3  0  0  0  0  0  0
  191.3420  176.3510  143.8290 C   0  0  0  0  0  0  0  0  0  0  0  0
  190.6320  178.6670  143.8120 C   0  0  0  0  0  3  0  0  0  0  0  0
  1 21  1  1  0  0  0
  1  7  1  0  0  0  0
  3  6  1  6  0  0  0
  3  4  1  0  0  0  0
  4 29  1  1  0  0  0
  4  5  1  0  0  0  0
  5  2  2  0  0  0  0
  6  1  1  0  0  0  0
  7  2  1  0  0  0  0
  8 19  1  0  0  0  0
  8 20  1  0  0  0  0
  9  3  1  6  0  0  0
 10 12  1  1  0  0  0
 10 19  1  0  0  0  0
 10 11  1  0  0  0  0
 11 13  1  6  0  0  0
 11  9  1  0  0  0  0
 11 17  1  0  0  0  0
 12 16  1  0  0  0  0
 14 17  1  0  0  0  0
 16 18  1  0  0  0  0
 17 13  1  6  0  0  0
 18  9  1  0  0  0  0
 18 15  1  1  0  0  0
 20 14  1  0  0  0  0
 21 25  1  6  0  0  0
 21 22  1  0  0  0  0
 24 22  1  0  0  0  0
 24 23  1  0  0  0  0
 26 27  1  0  0  0  0
 27 28  1  0  0  0  0
 27 25  1  0  0  0  0
 29 30  1  0  0  0  0
 30 32  1  0  0  0  0
 31 37  1  0  0  0  0
 32 31  2  0  0  0  0
 32 33  1  0  0  0  0
 33 36  2  0  0  0  0
 36 34  1  0  0  0  0
 36 35  1  0  0  0  0
 37 35  2  0  0  0  0
M  END
>  <MODEL>
2

>  <REMARK>
 VINA RESULT:      -4.6      3.221      6.989
  Name = 
  9 active torsions:
  status: ('A' for Active; 'I' for Inactive)
    1  A    between atoms: C_1  and  C_33
    2  A    between atoms: C_4  and  C_10
    3  A    between atoms: C_5  and  C_23
    4  A    between atoms: C_5  and  C_33
    5  A    between atoms: C_6  and  C_31
    6  A    between atoms: C_14  and  C_37
    7  A    between atoms: C_17  and  C_26
    8  A    between atoms: C_17  and  C_33
    9  A    between atoms: C_31  and  C_37
                            x       y       z     vdW  Elec       q    Type
                         _______ _______ _______ _____ _____    ______ ____

>  <TORSDO>
F 9

$$$$
=
 OpenBabel10262422563D

 37 41  0  0  1  0  0  0  0  0999 V2000
  181.4740  178.2510  142.9110 C   0  0  2  0  0  3  0  0  0  0  0  0
  179.9180  180.2460  143.0940 C   0  0  0  0  0  3  0  0  0  0  0  0
  180.8940  178.8540  140.4770 C   0  0  1  0  0  3  0  0  0  0  0  0
  179.5060  179.4920  140.7320 C   0  0  1  0  0  3  0  0  0  0  0  0
  179.5890  180.5180  141.8270 C   0  0  0  0  0  3  0  0  0  0  0  0
  181.2160  177.7550  141.4910 C   0  0  0  0  0  2  0  0  0  0  0  0
  180.2460  178.8710  143.5900 C   0  0  0  0  0  2  0  0  0  0  0  0
  181.0710  174.6390  136.6410 O   0  0  0  0  0  0  0  0  0  0  0  0
  181.1920  178.3470  139.0400 C   0  0  1  0  0  3  0  0  0  0  0  0
  180.3950  176.9160  136.9380 C   0  0  1  0  0  3  0  0  0  0  0  0
  180.3070  177.2040  138.4490 C   0  0  2  0  0  0  0  0  0  0  0  0
  180.5310  178.2040  136.1340 C   0  0  0  0  0  2  0  0  0  0  0  0
  178.9420  176.9390  139.0540 C   0  0  0  0  0  2  0  0  0  0  0  0
  179.8710  174.6600  138.7120 C   0  0  0  0  0  2  0  0  0  0  0  0
  182.7570  180.5490  138.5970 Cl  0  0  0  0  0  0  0  0  0  0  0  0
  181.6910  179.0440  136.6480 C   0  0  0  0  0  2  0  0  0  0  0  0
  180.0980  176.0080  139.3900 C   0  0  1  0  0  3  0  0  0  0  0  0
  181.4040  179.5200  138.0640 C   0  0  1  0  0  3  0  0  0  0  0  0
  181.5420  175.9580  136.6230 C   0  0  0  0  0  2  0  0  0  0  0  0
  181.1290  174.2160  137.9760 C   0  0  0  0  0  2  0  0  0  0  0  0
  182.8320  178.9490  143.1030 C   0  0  1  0  0  3  0  0  0  0  0  0
  183.0720  179.5080  144.5050 C   0  0  0  0  0  2  0  0  0  0  0  0
  184.2150  178.6160  146.4090 O   0  0  0  0  0  1  0  0  0  0  0  0
  184.3840  179.0000  145.0790 C   0  0  0  0  0  2  0  0  0  0  0  0
  184.0110  178.1380  142.5500 C   0  0  0  0  0  2  0  0  0  0  0  0
  186.4260  178.4880  142.1330 C   0  0  0  0  0  1  0  0  0  0  0  0
  185.0340  178.9800  141.7980 C   0  0  0  0  0  3  0  0  0  0  0  0
  184.8180  178.8660  140.3020 C   0  0  0  0  0  1  0  0  0  0  0  0
  178.9310  180.1820  139.5030 C   0  0  0  0  0  2  0  0  0  0  0  0
  179.1150  181.6850  139.6000 C   0  0  0  0  0  2  0  0  0  0  0  0
  178.9310  181.7120  137.1060 C   0  0  0  0  0  3  0  0  0  0  0  0
  179.5070  182.2290  138.2720 C   0  0  0  0  0  0  0  0  0  0  0  0
  180.4820  183.2300  138.1840 C   0  0  0  0  0  3  0  0  0  0  0  0
  181.8100  184.6920  136.8490 F   0  0  0  0  0  0  0  0  0  0  0  0
  180.2880  183.2080  135.7700 C   0  0  0  0  0  3  0  0  0  0  0  0
  180.8690  183.7210  136.9340 C   0  0  0  0  0  0  0  0  0  0  0  0
  179.3190  182.2030  135.8560 C   0  0  0  0  0  3  0  0  0  0  0  0
  1 21  1  6  0  0  0
  1  7  1  0  0  0  0
  2  7  1  0  0  0  0
  3  4  1  0  0  0  0
  3  6  1  1  0  0  0
  4 29  1  6  0  0  0
  4  5  1  0  0  0  0
  5  2  2  0  0  0  0
  6  1  1  0  0  0  0
  8 20  1  0  0  0  0
  9  3  1  1  0  0  0
 10 12  1  6  0  0  0
 10 11  1  0  0  0  0
 11  9  1  0  0  0  0
 11 13  1  1  0  0  0
 11 17  1  0  0  0  0
 12 16  1  0  0  0  0
 13 17  1  0  0  0  0
 16 18  1  0  0  0  0
 17 14  1  6  0  0  0
 18 15  1  1  0  0  0
 18  9  1  0  0  0  0
 19  8  1  0  0  0  0
 19 10  1  0  0  0  0
 20 14  1  0  0  0  0
 21 25  1  1  0  0  0
 21 22  1  0  0  0  0
 22 24  1  0  0  0  0
 24 23  1  0  0  0  0
 27 26  1  0  0  0  0
 27 25  1  0  0  0  0
 28 27  1  0  0  0  0
 29 30  1  0  0  0  0
 31 32  1  0  0  0  0
 32 30  1  0  0  0  0
 33 32  2  0  0  0  0
 34 36  1  0  0  0  0
 35 37  1  0  0  0  0
 35 36  2  0  0  0  0
 36 33  1  0  0  0  0
 37 31  2  0  0  0  0
M  END
>  <MODEL>
3

>  <REMARK>
 VINA RESULT:      -4.4      3.362      6.258
  Name = 
  9 active torsions:
  status: ('A' for Active; 'I' for Inactive)
    1  A    between atoms: C_1  and  C_33
    2  A    between atoms: C_4  and  C_10
    3  A    between atoms: C_5  and  C_23
    4  A    between atoms: C_5  and  C_33
    5  A    between atoms: C_6  and  C_31
    6  A    between atoms: C_14  and  C_37
    7  A    between atoms: C_17  and  C_26
    8  A    between atoms: C_17  and  C_33
    9  A    between atoms: C_31  and  C_37
                            x       y       z     vdW  Elec       q    Type
                         _______ _______ _______ _____ _____    ______ ____

>  <TORSDO>
F 9

$$$$
=
 OpenBabel10262422563D

 37 41  0  0  1  0  0  0  0  0999 V2000
  186.2080  179.0230  141.5600 C   0  0  2  0  0  3  0  0  0  0  0  0
  187.9700  177.8780  140.1410 C   0  0  0  0  0  3  0  0  0  0  0  0
  184.9690  178.3290  139.4130 C   0  0  1  0  0  3  0  0  0  0  0  0
  186.1770  178.3510  138.4450 C   0  0  1  0  0  3  0  0  0  0  0  0
  187.3250  177.5640  139.0130 C   0  0  0  0  0  3  0  0  0  0  0  0
  185.1190  179.3510  140.5420 C   0  0  0  0  0  2  0  0  0  0  0  0
  187.6310  179.0640  140.9900 C   0  0  0  0  0  2  0  0  0  0  0  0
  180.5740  175.9860  136.6380 O   0  0  0  0  0  0  0  0  0  0  0  0
  183.5520  178.4400  138.7880 C   0  0  1  0  0  3  0  0  0  0  0  0
  181.1210  177.3870  138.5000 C   0  0  1  0  0  3  0  0  0  0  0  0
  182.6130  177.1930  138.8320 C   0  0  2  0  0  0  0  0  0  0  0  0
  180.5920  178.7010  139.0640 C   0  0  0  0  0  2  0  0  0  0  0  0
  182.8870  176.0970  139.8440 C   0  0  0  0  0  2  0  0  0  0  0  0
  182.3450  174.8410  137.7700 C   0  0  0  0  0  2  0  0  0  0  0  0
  183.8060  181.1650  138.7180 Cl  0  0  0  0  0  0  0  0  0  0  0  0
  181.4580  179.8690  138.6180 C   0  0  0  0  0  2  0  0  0  0  0  0
  183.2750  175.8800  138.3880 C   0  0  1  0  0  3  0  0  0  0  0  0
  182.8520  179.7440  139.2150 C   0  0  1  0  0  3  0  0  0  0  0  0
  180.8740  177.3070  136.9950 C   0  0  0  0  0  2  0  0  0  0  0  0
  181.8020  175.3410  136.4370 C   0  0  0  0  0  2  0  0  0  0  0  0
  185.8500  177.8790  142.5250 C   0  0  1  0  0  3  0  0  0  0  0  0
  186.8200  177.7010  143.6930 C   0  0  0  0  0  2  0  0  0  0  0  0
  188.9480  176.6390  143.9540 O   0  0  0  0  0  1  0  0  0  0  0  0
  187.6340  176.4270  143.5380 C   0  0  0  0  0  2  0  0  0  0  0  0
  184.3740  177.8770  142.9400 C   0  0  0  0  0  2  0  0  0  0  0  0
  182.5170  179.3780  143.5960 C   0  0  0  0  0  1  0  0  0  0  0  0
  183.9820  179.0640  143.8120 C   0  0  0  0  0  3  0  0  0  0  0  0
  184.2070  178.7430  145.2760 C   0  0  0  0  0  1  0  0  0  0  0  0
  185.8560  177.7660  137.0760 C   0  0  0  0  0  2  0  0  0  0  0  0
  186.8760  178.2220  136.0490 C   0  0  0  0  0  2  0  0  0  0  0  0
  187.2510  175.8400  135.3850 C   0  0  0  0  0  3  0  0  0  0  0  0
  187.7840  177.0930  135.7080 C   0  0  0  0  0  0  0  0  0  0  0  0
  189.1720  177.2720  135.7510 C   0  0  0  0  0  3  0  0  0  0  0  0
  191.3670  176.3780  135.4950 F   0  0  0  0  0  0  0  0  0  0  0  0
  189.4900  174.9540  135.1280 C   0  0  0  0  0  3  0  0  0  0  0  0
  190.0240  176.2040  135.4580 C   0  0  0  0  0  0  0  0  0  0  0  0
  188.1040  174.7720  135.0920 C   0  0  0  0  0  3  0  0  0  0  0  0
  1 21  1  6  0  0  0
  2  7  1  0  0  0  0
  3  6  1  1  0  0  0
  4 29  1  6  0  0  0
  4  5  1  0  0  0  0
  4  3  1  0  0  0  0
  5  2  2  0  0  0  0
  6  1  1  0  0  0  0
  7  1  1  0  0  0  0
  8 19  1  0  0  0  0
  9 11  1  0  0  0  0
  9 18  1  0  0  0  0
  9  3  1  1  0  0  0
 10 19  1  6  0  0  0
 10 11  1  0  0  0  0
 10 12  1  0  0  0  0
 11 13  1  1  0  0  0
 16 12  1  0  0  0  0
 16 18  1  0  0  0  0
 17 14  1  6  0  0  0
 17 11  1  0  0  0  0
 17 13  1  0  0  0  0
 18 15  1  6  0  0  0
 20  8  1  0  0  0  0
 20 14  1  0  0  0  0
 21 25  1  1  0  0  0
 21 22  1  0  0  0  0
 24 22  1  0  0  0  0
 24 23  1  0  0  0  0
 25 27  1  0  0  0  0
 26 27  1  0  0  0  0
 27 28  1  0  0  0  0
 30 29  1  0  0  0  0
 31 32  1  0  0  0  0
 32 33  2  0  0  0  0
 32 30  1  0  0  0  0
 35 36  2  0  0  0  0
 36 34  1  0  0  0  0
 36 33  1  0  0  0  0
 37 35  1  0  0  0  0
 37 31  2  0  0  0  0
M  END
>  <MODEL>
4

>  <REMARK>
 VINA RESULT:      -4.1      1.680      2.048
  Name = 
  9 active torsions:
  status: ('A' for Active; 'I' for Inactive)
    1  A    between atoms: C_1  and  C_33
    2  A    between atoms: C_4  and  C_10
    3  A    between atoms: C_5  and  C_23
    4  A    between atoms: C_5  and  C_33
    5  A    between atoms: C_6  and  C_31
    6  A    between atoms: C_14  and  C_37
    7  A    between atoms: C_17  and  C_26
    8  A    between atoms: C_17  and  C_33
    9  A    between atoms: C_31  and  C_37
                            x       y       z     vdW  Elec       q    Type
                         _______ _______ _______ _____ _____    ______ ____

>  <TORSDO>
F 9

$$$$
=
 OpenBabel10262422563D

 37 41  0  0  1  0  0  0  0  0999 V2000
  182.5020  179.2870  139.2090 C   0  0  2  0  0  3  0  0  0  0  0  0
  184.9640  178.7030  139.0330 C   0  0  0  0  0  3  0  0  0  0  0  0
  182.6160  177.4760  137.3840 C   0  0  1  0  0  3  0  0  0  0  0  0
  184.0590  177.7490  136.8920 C   0  0  1  0  0  3  0  0  0  0  0  0
  185.0130  177.7960  138.0520 C   0  0  0  0  0  3  0  0  0  0  0  0
  181.9350  178.7450  137.9000 C   0  0  0  0  0  2  0  0  0  0  0  0
  183.9440  179.7980  139.1030 C   0  0  0  0  0  2  0  0  0  0  0  0
  180.6140  172.6180  135.1700 O   0  0  0  0  0  0  0  0  0  0  0  0
  181.6620  176.7240  136.4150 C   0  0  1  0  0  3  0  0  0  0  0  0
  179.9260  174.7370  136.0440 C   0  0  1  0  0  3  0  0  0  0  0  0
  181.0970  175.3340  136.8480 C   0  0  2  0  0  0  0  0  0  0  0  0
  178.9320  175.8150  135.6260 C   0  0  0  0  0  2  0  0  0  0  0  0
  181.0950  174.9630  138.3180 C   0  0  0  0  0  2  0  0  0  0  0  0
  181.8540  172.8780  137.2000 C   0  0  0  0  0  2  0  0  0  0  0  0
  181.3390  179.0230  134.9640 Cl  0  0  0  0  0  0  0  0  0  0  0  0
  179.6380  176.9490  134.8970 C   0  0  0  0  0  2  0  0  0  0  0  0
  182.1500  174.3610  137.4000 C   0  0  1  0  0  3  0  0  0  0  0  0
  180.5880  177.6670  135.8430 C   0  0  1  0  0  3  0  0  0  0  0  0
  180.4280  173.9630  134.8270 C   0  0  0  0  0  2  0  0  0  0  0  0
  181.9000  172.5230  135.7190 C   0  0  0  0  0  2  0  0  0  0  0  0
  182.1170  178.4680  140.4540 C   0  0  1  0  0  3  0  0  0  0  0  0
  180.9030  177.5590  140.2720 C   0  0  0  0  0  2  0  0  0  0  0  0
  179.2750  177.5560  142.0250 O   0  0  0  0  0  1  0  0  0  0  0  0
  179.6500  178.2000  140.8460 C   0  0  0  0  0  2  0  0  0  0  0  0
  183.3150  177.7760  141.1160 C   0  0  0  0  0  2  0  0  0  0  0  0
  184.8560  179.0000  142.6180 C   0  0  0  0  0  1  0  0  0  0  0  0
  183.5610  178.2180  142.5530 C   0  0  0  0  0  3  0  0  0  0  0  0
  182.4280  179.0990  143.0380 C   0  0  0  0  0  1  0  0  0  0  0  0
  184.5700  176.6910  135.9230 C   0  0  0  0  0  2  0  0  0  0  0  0
  186.0840  176.6080  135.9750 C   0  0  0  0  0  2  0  0  0  0  0  0
  187.8590  174.9120  136.4520 C   0  0  0  0  0  3  0  0  0  0  0  0
  186.4990  175.2310  136.3540 C   0  0  0  0  0  0  0  0  0  0  0  0
  185.5330  174.2420  136.5720 C   0  0  0  0  0  3  0  0  0  0  0  0
  184.9890  171.9860  137.1160 F   0  0  0  0  0  0  0  0  0  0  0  0
  187.2830  172.6260  137.0060 C   0  0  0  0  0  3  0  0  0  0  0  0
  185.9240  172.9410  136.9010 C   0  0  0  0  0  0  0  0  0  0  0  0
  188.2500  173.6110  136.7810 C   0  0  0  0  0  3  0  0  0  0  0  0
  1 21  1  1  0  0  0
  2  7  1  0  0  0  0
  3  6  1  6  0  0  0
  4 29  1  6  0  0  0
  4  3  1  0  0  0  0
  4  5  1  0  0  0  0
  5  2  2  0  0  0  0
  6  1  1  0  0  0  0
  7  1  1  0  0  0  0
  8 20  1  0  0  0  0
  9 11  1  0  0  0  0
  9  3  1  1  0  0  0
 10 19  1  6  0  0  0
 10 11  1  0  0  0  0
 11 17  1  0  0  0  0
 11 13  1  1  0  0  0
 12 10  1  0  0  0  0
 16 12  1  0  0  0  0
 16 18  1  0  0  0  0
 17 14  1  6  0  0  0
 17 13  1  0  0  0  0
 18 15  1  6  0  0  0
 18  9  1  0  0  0  0
 19  8  1  0  0  0  0
 20 14  1  0  0  0  0
 21 22  1  6  0  0  0
 21 25  1  0  0  0  0
 22 24  1  0  0  0  0
 24 23  1  0  0  0  0
 25 27  1  0  0  0  0
 27 26  1  0  0  0  0
 27 28  1  0  0  0  0
 29 30  1  0  0  0  0
 30 32  1  0  0  0  0
 31 37  1  0  0  0  0
 32 31  2  0  0  0  0
 32 33  1  0  0  0  0
 33 36  2  0  0  0  0
 36 35  1  0  0  0  0
 36 34  1  0  0  0  0
 37 35  2  0  0  0  0
M  END
>  <MODEL>
5

>  <REMARK>
 VINA RESULT:      -4.1      2.498      3.847
  Name = 
  9 active torsions:
  status: ('A' for Active; 'I' for Inactive)
    1  A    between atoms: C_1  and  C_33
    2  A    between atoms: C_4  and  C_10
    3  A    between atoms: C_5  and  C_23
    4  A    between atoms: C_5  and  C_33
    5  A    between atoms: C_6  and  C_31
    6  A    between atoms: C_14  and  C_37
    7  A    between atoms: C_17  and  C_26
    8  A    between atoms: C_17  and  C_33
    9  A    between atoms: C_31  and  C_37
                            x       y       z     vdW  Elec       q    Type
                         _______ _______ _______ _____ _____    ______ ____

>  <TORSDO>
F 9

$$$$
=
 OpenBabel10262422563D

 37 41  0  0  1  0  0  0  0  0999 V2000
  180.4700  178.8770  138.1640 C   0  0  2  0  0  3  0  0  0  0  0  0
  180.2400  178.7280  140.6850 C   0  0  0  0  0  3  0  0  0  0  0  0
  182.6720  177.8080  138.9600 C   0  0  1  0  0  3  0  0  0  0  0  0
  182.7160  178.4250  140.3800 C   0  0  1  0  0  3  0  0  0  0  0  0
  181.4070  178.2150  141.0880 C   0  0  0  0  0  3  0  0  0  0  0  0
  181.9750  178.7280  137.9560 C   0  0  0  0  0  2  0  0  0  0  0  0
  180.0860  179.5880  139.4670 C   0  0  0  0  0  2  0  0  0  0  0  0
  185.9590  173.5460  137.0780 O   0  0  0  0  0  0  0  0  0  0  0  0
  184.0120  177.2980  138.3630 C   0  0  1  0  0  3  0  0  0  0  0  0
  185.2450  175.7720  136.5600 C   0  0  1  0  0  3  0  0  0  0  0  0
  183.9810  176.0810  137.3850 C   0  0  2  0  0  0  0  0  0  0  0  0
  185.9290  177.0510  136.0900 C   0  0  0  0  0  2  0  0  0  0  0  0
  182.6820  175.7260  136.6880 C   0  0  0  0  0  2  0  0  0  0  0  0
  183.5850  173.5170  137.3780 C   0  0  0  0  0  2  0  0  0  0  0  0
  185.2440  179.6020  139.1790 Cl  0  0  0  0  0  0  0  0  0  0  0  0
  186.1960  177.9840  137.2610 C   0  0  0  0  0  2  0  0  0  0  0  0
  183.1420  174.8910  137.8730 C   0  0  1  0  0  3  0  0  0  0  0  0
  184.8810  178.4640  137.8570 C   0  0  1  0  0  3  0  0  0  0  0  0
  186.2190  174.8960  137.3470 C   0  0  0  0  0  2  0  0  0  0  0  0
  184.9450  173.1550  137.9620 C   0  0  0  0  0  2  0  0  0  0  0  0
  179.6470  177.6470  137.7430 C   0  0  1  0  0  3  0  0  0  0  0  0
  180.1910  176.8990  136.5270 C   0  0  0  0  0  2  0  0  0  0  0  0
  179.5460  178.4650  134.8360 O   0  0  0  0  0  1  0  0  0  0  0  0
  179.3400  177.1650  135.2960 C   0  0  0  0  0  2  0  0  0  0  0  0
  179.2810  176.7340  138.9190 C   0  0  0  0  0  2  0  0  0  0  0  0
  180.1600  174.8180  140.2170 C   0  0  0  0  0  1  0  0  0  0  0  0
  179.8860  175.3390  138.8230 C   0  0  0  0  0  3  0  0  0  0  0  0
  178.9310  174.3940  138.1210 C   0  0  0  0  0  1  0  0  0  0  0  0
  183.8090  177.8290  141.2570 C   0  0  0  0  0  2  0  0  0  0  0  0
  183.9640  178.6320  142.5350 C   0  0  0  0  0  2  0  0  0  0  0  0
  185.2820  178.2550  144.6270 C   0  0  0  0  0  3  0  0  0  0  0  0
  185.2190  178.2340  143.2290 C   0  0  0  0  0  0  0  0  0  0  0  0
  186.3490  177.8780  142.4840 C   0  0  0  0  0  3  0  0  0  0  0  0
  188.6280  177.1820  142.4170 F   0  0  0  0  0  0  0  0  0  0  0  0
  187.5950  177.5450  144.5340 C   0  0  0  0  0  3  0  0  0  0  0  0
  187.5360  177.5300  143.1370 C   0  0  0  0  0  0  0  0  0  0  0  0
  186.4680  177.9080  145.2790 C   0  0  0  0  0  3  0  0  0  0  0  0
  1 21  1  1  0  0  0
  1  7  1  0  0  0  0
  2  5  2  0  0  0  0
  3  6  1  6  0  0  0
  3  4  1  0  0  0  0
  4  5  1  0  0  0  0
  4 29  1  1  0  0  0
  6  1  1  0  0  0  0
  7  2  1  0  0  0  0
  8 19  1  0  0  0  0
  8 20  1  0  0  0  0
  9  3  1  6  0  0  0
 10 12  1  1  0  0  0
 10 19  1  0  0  0  0
 10 11  1  0  0  0  0
 11 13  1  6  0  0  0
 11 17  1  0  0  0  0
 11  9  1  0  0  0  0
 12 16  1  0  0  0  0
 14 17  1  0  0  0  0
 14 20  1  0  0  0  0
 16 18  1  0  0  0  0
 17 13  1  6  0  0  0
 18  9  1  0  0  0  0
 18 15  1  1  0  0  0
 21 22  1  6  0  0  0
 21 25  1  0  0  0  0
 23 24  1  0  0  0  0
 24 22  1  0  0  0  0
 27 25  1  0  0  0  0
 27 26  1  0  0  0  0
 28 27  1  0  0  0  0
 29 30  1  0  0  0  0
 30 32  1  0  0  0  0
 31 37  1  0  0  0  0
 32 31  2  0  0  0  0
 33 36  2  0  0  0  0
 33 32  1  0  0  0  0
 34 36  1  0  0  0  0
 35 37  2  0  0  0  0
 36 35  1  0  0  0  0
M  END
>  <MODEL>
6

>  <REMARK>
 VINA RESULT:      -4.0      2.418      6.888
  Name = 
  9 active torsions:
  status: ('A' for Active; 'I' for Inactive)
    1  A    between atoms: C_1  and  C_33
    2  A    between atoms: C_4  and  C_10
    3  A    between atoms: C_5  and  C_23
    4  A    between atoms: C_5  and  C_33
    5  A    between atoms: C_6  and  C_31
    6  A    between atoms: C_14  and  C_37
    7  A    between atoms: C_17  and  C_26
    8  A    between atoms: C_17  and  C_33
    9  A    between atoms: C_31  and  C_37
                            x       y       z     vdW  Elec       q    Type
                         _______ _______ _______ _____ _____    ______ ____

>  <TORSDO>
F 9

$$$$
=
 OpenBabel10262422563D

 37 41  0  0  1  0  0  0  0  0999 V2000
  181.7230  178.7580  139.3650 C   0  0  2  0  0  3  0  0  0  0  0  0
  184.1260  179.0800  140.1110 C   0  0  0  0  0  3  0  0  0  0  0  0
  183.1050  177.2690  137.7840 C   0  0  1  0  0  3  0  0  0  0  0  0
  184.4310  178.0670  137.8320 C   0  0  1  0  0  3  0  0  0  0  0  0
  184.8340  178.3380  139.2540 C   0  0  0  0  0  3  0  0  0  0  0  0
  181.8840  178.1730  137.9650 C   0  0  0  0  0  2  0  0  0  0  0  0
  182.8290  179.7440  139.7620 C   0  0  0  0  0  2  0  0  0  0  0  0
  184.3730  172.5120  134.9070 O   0  0  0  0  0  0  0  0  0  0  0  0
  182.8840  176.3240  136.5710 C   0  0  1  0  0  3  0  0  0  0  0  0
  182.5350  173.8370  135.6800 C   0  0  1  0  0  3  0  0  0  0  0  0
  183.0480  174.7850  136.7810 C   0  0  2  0  0  0  0  0  0  0  0  0
  181.2290  174.3420  135.0760 C   0  0  0  0  0  2  0  0  0  0  0  0
  182.9560  174.2160  138.1830 C   0  0  0  0  0  2  0  0  0  0  0  0
  184.8820  172.9980  137.1950 C   0  0  0  0  0  2  0  0  0  0  0  0
  181.7050  178.3770  135.1970 Cl  0  0  0  0  0  0  0  0  0  0  0  0
  181.3720  175.7810  134.6030 C   0  0  0  0  0  2  0  0  0  0  0  0
  184.3230  174.3760  137.5340 C   0  0  1  0  0  3  0  0  0  0  0  0
  181.6100  176.7000  135.7920 C   0  0  1  0  0  3  0  0  0  0  0  0
  183.5880  173.6290  134.5940 C   0  0  0  0  0  2  0  0  0  0  0  0
  185.3890  172.9680  135.7580 C   0  0  0  0  0  2  0  0  0  0  0  0
  181.2430  177.7500  140.4230 C   0  0  1  0  0  3  0  0  0  0  0  0
  180.0360  178.2070  141.2410 C   0  0  0  0  0  2  0  0  0  0  0  0
  180.5780  180.1530  142.5220 O   0  0  0  0  0  1  0  0  0  0  0  0
  180.4670  178.7640  142.5870 C   0  0  0  0  0  2  0  0  0  0  0  0
  181.1200  176.3200  139.8820 C   0  0  0  0  0  2  0  0  0  0  0  0
  179.2480  175.6150  138.4240 C   0  0  0  0  0  1  0  0  0  0  0  0
  179.6900  175.7950  139.8600 C   0  0  0  0  0  3  0  0  0  0  0  0
  179.6030  174.4610  140.5740 C   0  0  0  0  0  1  0  0  0  0  0  0
  185.5890  177.3420  137.1590 C   0  0  0  0  0  2  0  0  0  0  0  0
  186.7960  178.2550  137.0460 C   0  0  0  0  0  2  0  0  0  0  0  0
  188.6650  178.2660  138.7080 C   0  0  0  0  0  3  0  0  0  0  0  0
  187.9750  177.6090  137.6830 C   0  0  0  0  0  0  0  0  0  0  0  0
  188.4210  176.3620  137.2290 C   0  0  0  0  0  3  0  0  0  0  0  0
  189.9750  174.5600  137.3720 F   0  0  0  0  0  0  0  0  0  0  0  0
  190.2310  176.4230  138.8380 C   0  0  0  0  0  3  0  0  0  0  0  0
  189.5460  175.7680  137.8080 C   0  0  0  0  0  0  0  0  0  0  0  0
  189.7900  177.6720  139.2870 C   0  0  0  0  0  3  0  0  0  0  0  0
  1  7  1  0  0  0  0
  1 21  1  1  0  0  0
  3  4  1  0  0  0  0
  3  6  1  6  0  0  0
  4 29  1  1  0  0  0
  4  5  1  0  0  0  0
  5  2  2  0  0  0  0
  6  1  1  0  0  0  0
  7  2  1  0  0  0  0
  8 20  1  0  0  0  0
  9 11  1  0  0  0  0
  9  3  1  1  0  0  0
 10 19  1  6  0  0  0
 10 11  1  0  0  0  0
 11 17  1  0  0  0  0
 11 13  1  1  0  0  0
 12 10  1  0  0  0  0
 16 12  1  0  0  0  0
 16 18  1  0  0  0  0
 17 14  1  6  0  0  0
 17 13  1  0  0  0  0
 18 15  1  6  0  0  0
 18  9  1  0  0  0  0
 19  8  1  0  0  0  0
 20 14  1  0  0  0  0
 21 25  1  6  0  0  0
 21 22  1  0  0  0  0
 22 24  1  0  0  0  0
 23 24  1  0  0  0  0
 26 27  1  0  0  0  0
 27 25  1  0  0  0  0
 27 28  1  0  0  0  0
 30 29  1  0  0  0  0
 30 32  1  0  0  0  0
 31 37  1  0  0  0  0
 32 31  2  0  0  0  0
 33 32  1  0  0  0  0
 33 36  2  0  0  0  0
 34 36  1  0  0  0  0
 35 37  2  0  0  0  0
 36 35  1  0  0  0  0
M  END
>  <MODEL>
7

>  <REMARK>
 VINA RESULT:      -4.0      2.932      5.027
  Name = 
  9 active torsions:
  status: ('A' for Active; 'I' for Inactive)
    1  A    between atoms: C_1  and  C_33
    2  A    between atoms: C_4  and  C_10
    3  A    between atoms: C_5  and  C_23
    4  A    between atoms: C_5  and  C_33
    5  A    between atoms: C_6  and  C_31
    6  A    between atoms: C_14  and  C_37
    7  A    between atoms: C_17  and  C_26
    8  A    between atoms: C_17  and  C_33
    9  A    between atoms: C_31  and  C_37
                            x       y       z     vdW  Elec       q    Type
                         _______ _______ _______ _____ _____    ______ ____

>  <TORSDO>
F 9

$$$$
=
 OpenBabel10262422563D

 37 41  0  0  1  0  0  0  0  0999 V2000
  184.3710  175.5770  136.7750 C   0  0  2  0  0  3  0  0  0  0  0  0
  183.0170  176.3810  134.7860 C   0  0  0  0  0  3  0  0  0  0  0  0
  182.4440  176.9390  137.8030 C   0  0  1  0  0  3  0  0  0  0  0  0
  182.1920  177.8970  136.6130 C   0  0  1  0  0  3  0  0  0  0  0  0
  182.0480  177.1240  135.3330 C   0  0  0  0  0  3  0  0  0  0  0  0
  183.9090  176.5080  137.8920 C   0  0  0  0  0  2  0  0  0  0  0  0
  184.3820  176.2250  135.3850 C   0  0  0  0  0  2  0  0  0  0  0  0
  183.4840  178.9990  143.0170 O   0  0  0  0  0  0  0  0  0  0  0  0
  181.9430  177.3920  139.2020 C   0  0  1  0  0  3  0  0  0  0  0  0
  182.0100  179.2150  141.1440 C   0  0  1  0  0  3  0  0  0  0  0  0
  182.6820  178.5660  139.9190 C   0  0  2  0  0  0  0  0  0  0  0  0
  180.5010  179.3270  140.9560 C   0  0  0  0  0  2  0  0  0  0  0  0
  183.5270  179.5190  139.0970 C   0  0  0  0  0  2  0  0  0  0  0  0
  184.9250  179.1020  141.1080 C   0  0  0  0  0  2  0  0  0  0  0  0
  179.6280  175.9810  138.8200 Cl  0  0  0  0  0  0  0  0  0  0  0  0
  179.8990  177.9780  140.5910 C   0  0  0  0  0  2  0  0  0  0  0  0
  184.2130  178.4450  139.9290 C   0  0  1  0  0  3  0  0  0  0  0  0
  180.4100  177.5290  139.2300 C   0  0  1  0  0  3  0  0  0  0  0  0
  182.3390  178.4510  142.4250 C   0  0  0  0  0  2  0  0  0  0  0  0
  184.5820  178.3790  142.4050 C   0  0  0  0  0  2  0  0  0  0  0  0
  183.8480  174.1350  136.8940 C   0  0  1  0  0  3  0  0  0  0  0  0
  184.7460  173.1930  137.6950 C   0  0  0  0  0  2  0  0  0  0  0  0
  186.1980  172.2870  136.0230 O   0  0  0  0  0  1  0  0  0  0  0  0
  186.1500  173.1530  137.1150 C   0  0  0  0  0  2  0  0  0  0  0  0
  182.3670  174.0600  137.2850 C   0  0  0  0  0  2  0  0  0  0  0  0
  180.3080  173.9710  135.9140 C   0  0  0  0  0  1  0  0  0  0  0  0
  181.5300  173.1940  136.3520 C   0  0  0  0  0  3  0  0  0  0  0  0
  182.3330  172.8040  135.1270 C   0  0  0  0  0  1  0  0  0  0  0  0
  180.9340  178.7390  136.7800 C   0  0  0  0  0  2  0  0  0  0  0  0
  180.7820  179.7070  135.6210 C   0  0  0  0  0  2  0  0  0  0  0  0
  180.8130  181.3510  137.5050 C   0  0  0  0  0  3  0  0  0  0  0  0
  180.8140  181.1050  136.1270 C   0  0  0  0  0  0  0  0  0  0  0  0
  180.8030  182.1770  135.2270 C   0  0  0  0  0  3  0  0  0  0  0  0
  180.7990  184.5280  134.8330 F   0  0  0  0  0  0  0  0  0  0  0  0
  180.8100  183.7350  137.0810 C   0  0  0  0  0  3  0  0  0  0  0  0
  180.8050  183.4910  135.7040 C   0  0  0  0  0  0  0  0  0  0  0  0
  180.8140  182.6650  137.9820 C   0  0  0  0  0  3  0  0  0  0  0  0
  1 21  1  6  0  0  0
  1  6  1  0  0  0  0
  2  5  2  0  0  0  0
  2  7  1  0  0  0  0
  3  6  1  1  0  0  0
  4 29  1  1  0  0  0
  4  3  1  0  0  0  0
  5  4  1  0  0  0  0
  7  1  1  0  0  0  0
  9  3  1  6  0  0  0
  9 18  1  0  0  0  0
  9 11  1  0  0  0  0
 10 12  1  6  0  0  0
 10 19  1  0  0  0  0
 11 13  1  6  0  0  0
 11 17  1  0  0  0  0
 11 10  1  0  0  0  0
 14 20  1  0  0  0  0
 16 12  1  0  0  0  0
 17 13  1  6  0  0  0
 17 14  1  0  0  0  0
 18 15  1  1  0  0  0
 18 16  1  0  0  0  0
 19  8  1  0  0  0  0
 20  8  1  0  0  0  0
 21 25  1  1  0  0  0
 21 22  1  0  0  0  0
 23 24  1  0  0  0  0
 24 22  1  0  0  0  0
 26 27  1  0  0  0  0
 27 25  1  0  0  0  0
 28 27  1  0  0  0  0
 30 32  1  0  0  0  0
 30 29  1  0  0  0  0
 31 37  1  0  0  0  0
 32 31  2  0  0  0  0
 33 36  2  0  0  0  0
 33 32  1  0  0  0  0
 34 36  1  0  0  0  0
 35 37  2  0  0  0  0
 36 35  1  0  0  0  0
M  END
>  <MODEL>
8

>  <REMARK>
 VINA RESULT:      -4.0      3.491      7.249
  Name = 
  9 active torsions:
  status: ('A' for Active; 'I' for Inactive)
    1  A    between atoms: C_1  and  C_33
    2  A    between atoms: C_4  and  C_10
    3  A    between atoms: C_5  and  C_23
    4  A    between atoms: C_5  and  C_33
    5  A    between atoms: C_6  and  C_31
    6  A    between atoms: C_14  and  C_37
    7  A    between atoms: C_17  and  C_26
    8  A    between atoms: C_17  and  C_33
    9  A    between atoms: C_31  and  C_37
                            x       y       z     vdW  Elec       q    Type
                         _______ _______ _______ _____ _____    ______ ____

>  <TORSDO>
F 9

$$$$
=
 OpenBabel10262422563D

 37 41  0  0  1  0  0  0  0  0999 V2000
  182.5400  179.3090  139.2410 C   0  0  2  0  0  3  0  0  0  0  0  0
  184.9810  178.6250  139.1420 C   0  0  0  0  0  3  0  0  0  0  0  0
  182.6230  177.4320  137.4820 C   0  0  1  0  0  3  0  0  0  0  0  0
  184.0850  177.6320  137.0140 C   0  0  1  0  0  3  0  0  0  0  0  0
  185.0150  177.6830  138.1930 C   0  0  0  0  0  3  0  0  0  0  0  0
  181.9810  178.7430  137.9380 C   0  0  0  0  0  2  0  0  0  0  0  0
  184.0030  179.7610  139.1500 C   0  0  0  0  0  2  0  0  0  0  0  0
  180.6510  172.5850  135.2140 O   0  0  0  0  0  0  0  0  0  0  0  0
  181.6610  176.6840  136.5180 C   0  0  1  0  0  3  0  0  0  0  0  0
  179.9490  174.6770  136.1430 C   0  0  1  0  0  3  0  0  0  0  0  0
  181.1260  175.2770  136.9350 C   0  0  2  0  0  0  0  0  0  0  0  0
  178.9310  175.7470  135.7640 C   0  0  0  0  0  2  0  0  0  0  0  0
  181.1600  174.8780  138.3970 C   0  0  0  0  0  2  0  0  0  0  0  0
  181.9280  172.8270  137.2240 C   0  0  0  0  0  2  0  0  0  0  0  0
  181.2740  179.0040  135.1180 Cl  0  0  0  0  0  0  0  0  0  0  0  0
  179.6040  176.9050  135.0440 C   0  0  0  0  0  2  0  0  0  0  0  0
  182.2040  174.3110  137.4470 C   0  0  1  0  0  3  0  0  0  0  0  0
  180.5610  177.6210  135.9850 C   0  0  1  0  0  3  0  0  0  0  0  0
  180.4380  173.9340  134.9010 C   0  0  0  0  0  2  0  0  0  0  0  0
  181.9490  172.5000  135.7360 C   0  0  0  0  0  2  0  0  0  0  0  0
  182.0970  178.5500  140.5040 C   0  0  1  0  0  3  0  0  0  0  0  0
  180.9190  177.5990  140.2980 C   0  0  0  0  0  2  0  0  0  0  0  0
  179.0470  176.8530  141.5880 O   0  0  0  0  0  1  0  0  0  0  0  0
  179.7420  177.9900  141.1760 C   0  0  0  0  0  2  0  0  0  0  0  0
  183.2670  177.9290  141.2770 C   0  0  0  0  0  2  0  0  0  0  0  0
  182.8010  178.6280  143.6060 C   0  0  0  0  0  1  0  0  0  0  0  0
  183.7550  178.7830  142.4400 C   0  0  0  0  0  3  0  0  0  0  0  0
  185.1400  178.3470  142.8740 C   0  0  0  0  0  1  0  0  0  0  0  0
  184.5760  176.5220  136.0940 C   0  0  0  0  0  2  0  0  0  0  0  0
  185.5900  177.0600  135.1030 C   0  0  0  0  0  2  0  0  0  0  0  0
  187.5810  175.8390  135.9970 C   0  0  0  0  0  3  0  0  0  0  0  0
  186.9450  177.0540  135.7170 C   0  0  0  0  0  0  0  0  0  0  0  0
  187.5670  178.2620  136.0560 C   0  0  0  0  0  3  0  0  0  0  0  0
  189.4320  179.4230  136.9820 F   0  0  0  0  0  0  0  0  0  0  0  0
  189.4650  177.0390  136.9310 C   0  0  0  0  0  3  0  0  0  0  0  0
  188.8280  178.2540  136.6590 C   0  0  0  0  0  0  0  0  0  0  0  0
  188.8420  175.8320  136.6010 C   0  0  0  0  0  3  0  0  0  0  0  0
  1 21  1  1  0  0  0
  2  7  1  0  0  0  0
  3  6  1  6  0  0  0
  4 29  1  6  0  0  0
  4  3  1  0  0  0  0
  4  5  1  0  0  0  0
  5  2  2  0  0  0  0
  6  1  1  0  0  0  0
  7  1  1  0  0  0  0
  8 20  1  0  0  0  0
  9 11  1  0  0  0  0
  9  3  1  1  0  0  0
 10 19  1  6  0  0  0
 10 11  1  0  0  0  0
 11 17  1  0  0  0  0
 11 13  1  1  0  0  0
 12 10  1  0  0  0  0
 16 12  1  0  0  0  0
 16 18  1  0  0  0  0
 17 14  1  6  0  0  0
 17 13  1  0  0  0  0
 18 15  1  6  0  0  0
 18  9  1  0  0  0  0
 19  8  1  0  0  0  0
 20 14  1  0  0  0  0
 21 22  1  6  0  0  0
 21 25  1  0  0  0  0
 22 24  1  0  0  0  0
 24 23  1  0  0  0  0
 25 27  1  0  0  0  0
 27 28  1  0  0  0  0
 27 26  1  0  0  0  0
 30 32  1  0  0  0  0
 30 29  1  0  0  0  0
 31 37  1  0  0  0  0
 32 31  2  0  0  0  0
 32 33  1  0  0  0  0
 33 36  2  0  0  0  0
 36 35  1  0  0  0  0
 36 34  1  0  0  0  0
 37 35  2  0  0  0  0
M  END
>  <MODEL>
9

>  <REMARK>
 VINA RESULT:      -4.0      2.933      4.329
  Name = 
  9 active torsions:
  status: ('A' for Active; 'I' for Inactive)
    1  A    between atoms: C_1  and  C_33
    2  A    between atoms: C_4  and  C_10
    3  A    between atoms: C_5  and  C_23
    4  A    between atoms: C_5  and  C_33
    5  A    between atoms: C_6  and  C_31
    6  A    between atoms: C_14  and  C_37
    7  A    between atoms: C_17  and  C_26
    8  A    between atoms: C_17  and  C_33
    9  A    between atoms: C_31  and  C_37
                            x       y       z     vdW  Elec       q    Type
                         _______ _______ _______ _____ _____    ______ ____

>  <TORSDO>
F 9

$$$$
