=
 OpenBabel10262419313D

 31 36  0  0  1  0  0  0  0  0999 V2000
  190.1290  177.0330  145.8970 C   0  0  0  0  0  0  0  0  0  0  0  0
  187.4070  177.6730  143.3100 C   0  0  2  0  0  3  0  0  0  0  0  0
  188.7620  177.5430  143.9580 C   0  0  0  0  0  0  0  0  0  0  0  0
  191.2830  177.1550  145.1180 C   0  0  0  0  0  3  0  0  0  0  0  0
  188.7060  178.2150  141.1970 C   0  0  0  0  0  0  0  0  0  0  0  0
  190.2390  176.7030  147.3420 C   0  0  0  0  0  1  0  0  0  0  0  0
  189.8390  177.9560  141.7770 N   0  0  0  0  0  0  0  0  0  0  0  0
  187.4840  178.1880  141.9430 N   0  0  0  0  0  2  0  0  0  0  0  0
  188.8720  177.2160  145.3170 C   0  0  0  0  0  3  0  0  0  0  0  0
  189.9260  177.6450  143.1730 C   0  0  0  0  0  0  0  0  0  0  0  0
  191.1810  177.4570  143.7580 C   0  0  0  0  0  3  0  0  0  0  0  0
  186.3870  178.4560  144.1490 C   0  0  2  0  0  3  0  0  0  0  0  0
  185.4130  178.2260  146.3940 C   0  0  0  0  0  3  0  0  0  0  0  0
  186.4220  177.9820  145.5700 C   0  0  0  0  0  3  0  0  0  0  0  0
  184.2410  178.8290  145.9330 O   0  0  0  0  0  0  0  0  0  0  0  0
  183.8040  178.7550  144.5730 C   0  0  2  0  0  3  0  0  0  0  0  0
  184.9530  178.5850  143.5750 C   0  0  1  0  0  0  0  0  0  0  0  0
  184.3280  179.9490  143.7950 C   0  0  0  0  0  2  0  0  0  0  0  0
  184.3800  178.9860  140.8790 S   0  0  0  0  0  1  0  0  0  0  0  0
  184.5110  177.8580  142.3040 C   0  0  0  0  0  2  0  0  0  0  0  0
  188.6780  178.5480  139.7460 C   0  0  0  0  0  2  0  0  0  0  0  0
  191.8070  174.9020  137.5180 C   0  0  0  0  0  0  0  0  0  0  0  0
  191.2950  176.8670  138.8930 C   0  0  0  0  0  3  0  0  0  0  0  0
  188.2390  175.6670  137.6640 O   0  0  0  0  0  0  0  0  0  0  0  0
  187.7530  176.6770  138.3370 N   0  0  0  0  0  0  0  0  0  0  0  0
  192.8130  173.9680  136.9480 C   0  0  0  0  0  1  0  0  0  0  0  0
  188.7950  177.3040  138.9320 C   0  0  0  0  0  0  0  0  0  0  0  0
  192.2300  175.9710  138.3430 C   0  0  0  0  0  3  0  0  0  0  0  0
  189.5430  175.6210  137.7900 C   0  0  0  0  0  0  0  0  0  0  0  0
  189.9540  176.6480  138.5890 C   0  0  0  0  0  0  0  0  0  0  0  0
  190.4400  174.7170  137.2300 C   0  0  0  0  0  3  0  0  0  0  0  0
  1  6  1  0  0  0  0
  2  8  1  6  0  0  0
  2  3  1  0  0  0  0
  2 12  1  0  0  0  0
  3  9  2  0  0  0  0
  4  1  2  0  0  0  0
  5  7  2  0  0  0  0
  5  8  1  0  0  0  0
  7 10  1  0  0  0  0
  9  1  1  0  0  0  0
 10 11  2  0  0  0  0
 10  3  1  0  0  0  0
 11  4  1  0  0  0  0
 12 14  1  1  0  0  0
 14 13  2  0  0  0  0
 15 13  1  0  0  0  0
 16 18  1  6  0  0  0
 16 15  1  0  0  0  0
 17 20  1  6  0  0  0
 17 18  1  0  0  0  0
 17 12  1  0  0  0  0
 17 16  1  0  0  0  0
 19 20  1  0  0  0  0
 21  5  1  0  0  0  0
 22 28  1  0  0  0  0
 24 29  1  0  0  0  0
 24 25  1  0  0  0  0
 25 27  2  0  0  0  0
 26 22  1  0  0  0  0
 27 21  1  0  0  0  0
 28 23  2  0  0  0  0
 29 30  2  0  0  0  0
 30 23  1  0  0  0  0
 30 27  1  0  0  0  0
 31 22  2  0  0  0  0
 31 29  1  0  0  0  0
M  END
>  <MODEL>
1

>  <REMARK>
 VINA RESULT:      -9.7      0.000      0.000
  Name = 
  4 active torsions:
  status: ('A' for Active; 'I' for Inactive)
    1  A    between atoms: C_4  and  C_5
    2  A    between atoms: C_9  and  C_23
    3  A    between atoms: C_15  and  C_23
    4  A    between atoms: C_29  and  C_30
                            x       y       z     vdW  Elec       q    Type
                         _______ _______ _______ _____ _____    ______ ____

>  <TORSDO>
F 4

$$$$
=
 OpenBabel10262419313D

 31 36  0  0  1  0  0  0  0  0999 V2000
  190.1200  177.1390  146.1480 C   0  0  0  0  0  0  0  0  0  0  0  0
  187.3900  177.5930  143.5300 C   0  0  2  0  0  3  0  0  0  0  0  0
  188.7460  177.5190  144.1840 C   0  0  0  0  0  0  0  0  0  0  0  0
  191.2730  177.2320  145.3630 C   0  0  0  0  0  3  0  0  0  0  0  0
  188.6820  178.0320  141.3890 C   0  0  0  0  0  0  0  0  0  0  0  0
  190.2340  176.8930  147.6090 C   0  0  0  0  0  1  0  0  0  0  0  0
  189.8180  177.8220  141.9820 N   0  0  0  0  0  0  0  0  0  0  0  0
  187.4600  178.0300  142.1350 N   0  0  0  0  0  2  0  0  0  0  0  0
  188.8600  177.2710  145.5590 C   0  0  0  0  0  3  0  0  0  0  0  0
  189.9090  177.5920  143.3930 C   0  0  0  0  0  0  0  0  0  0  0  0
  191.1670  177.4550  143.9880 C   0  0  0  0  0  3  0  0  0  0  0  0
  186.3590  178.4070  144.3240 C   0  0  2  0  0  3  0  0  0  0  0  0
  185.2670  178.2010  146.5160 C   0  0  0  0  0  3  0  0  0  0  0  0
  186.3060  177.9250  145.7400 C   0  0  0  0  0  3  0  0  0  0  0  0
  184.1420  178.8490  146.0020 O   0  0  0  0  0  0  0  0  0  0  0  0
  183.7710  178.7980  144.6220 C   0  0  2  0  0  3  0  0  0  0  0  0
  184.9600  178.5920  143.6800 C   0  0  1  0  0  0  0  0  0  0  0  0
  184.3760  179.9770  143.8800 C   0  0  0  0  0  2  0  0  0  0  0  0
  184.4930  179.0380  140.9710 S   0  0  0  0  0  1  0  0  0  0  0  0
  184.5560  177.8890  142.3840 C   0  0  0  0  0  2  0  0  0  0  0  0
  188.6510  178.2820  139.9210 C   0  0  0  0  0  2  0  0  0  0  0  0
  188.4990  174.7490  135.9790 C   0  0  0  0  0  0  0  0  0  0  0  0
  187.7010  176.6510  137.3060 C   0  0  0  0  0  3  0  0  0  0  0  0
  190.7180  175.6010  138.7510 O   0  0  0  0  0  0  0  0  0  0  0  0
  190.4750  176.5780  139.5850 N   0  0  0  0  0  0  0  0  0  0  0  0
  188.3040  173.8160  134.8390 C   0  0  0  0  0  1  0  0  0  0  0  0
  189.3160  177.1610  139.1960 C   0  0  0  0  0  0  0  0  0  0  0  0
  187.5380  175.7560  136.2330 C   0  0  0  0  0  3  0  0  0  0  0  0
  189.7670  175.5220  137.8530 C   0  0  0  0  0  0  0  0  0  0  0  0
  188.8410  176.4960  138.0910 C   0  0  0  0  0  0  0  0  0  0  0  0
  189.6370  174.6220  136.8000 C   0  0  0  0  0  3  0  0  0  0  0  0
  1  6  1  0  0  0  0
  2  8  1  6  0  0  0
  2  3  1  0  0  0  0
  2 12  1  0  0  0  0
  3  9  2  0  0  0  0
  4  1  2  0  0  0  0
  5  7  2  0  0  0  0
  5  8  1  0  0  0  0
  7 10  1  0  0  0  0
  9  1  1  0  0  0  0
 10 11  2  0  0  0  0
 10  3  1  0  0  0  0
 11  4  1  0  0  0  0
 12 14  1  1  0  0  0
 14 13  2  0  0  0  0
 15 13  1  0  0  0  0
 16 18  1  6  0  0  0
 16 15  1  0  0  0  0
 17 20  1  6  0  0  0
 17 18  1  0  0  0  0
 17 12  1  0  0  0  0
 17 16  1  0  0  0  0
 19 20  1  0  0  0  0
 21  5  1  0  0  0  0
 22 28  2  0  0  0  0
 22 31  1  0  0  0  0
 23 30  2  0  0  0  0
 24 25  1  0  0  0  0
 26 22  1  0  0  0  0
 27 25  2  0  0  0  0
 27 21  1  0  0  0  0
 28 23  1  0  0  0  0
 29 30  1  0  0  0  0
 29 24  1  0  0  0  0
 30 27  1  0  0  0  0
 31 29  2  0  0  0  0
M  END
>  <MODEL>
2

>  <REMARK>
 VINA RESULT:      -9.6      1.210      1.798
  Name = 
  4 active torsions:
  status: ('A' for Active; 'I' for Inactive)
    1  A    between atoms: C_4  and  C_5
    2  A    between atoms: C_9  and  C_23
    3  A    between atoms: C_15  and  C_23
    4  A    between atoms: C_29  and  C_30
                            x       y       z     vdW  Elec       q    Type
                         _______ _______ _______ _____ _____    ______ ____

>  <TORSDO>
F 4

$$$$
=
 OpenBabel10262419313D

 31 36  0  0  1  0  0  0  0  0999 V2000
  182.4190  178.8290  142.9860 C   0  0  0  0  0  0  0  0  0  0  0  0
  184.7670  178.1700  140.0580 C   0  0  2  0  0  3  0  0  0  0  0  0
  184.2500  178.5910  141.4100 C   0  0  0  0  0  0  0  0  0  0  0  0
  183.3190  179.2330  143.9750 C   0  0  0  0  0  3  0  0  0  0  0  0
  187.0440  178.8430  140.9560 C   0  0  0  0  0  0  0  0  0  0  0  0
  180.9670  178.7440  143.2910 C   0  0  0  0  0  1  0  0  0  0  0  0
  186.5600  179.0610  142.1410 N   0  0  0  0  0  0  0  0  0  0  0  0
  186.1790  178.5000  139.8680 N   0  0  0  0  0  2  0  0  0  0  0  0
  182.8840  178.4980  141.7100 C   0  0  0  0  0  3  0  0  0  0  0  0
  185.1560  178.9800  142.4160 C   0  0  0  0  0  0  0  0  0  0  0  0
  184.6850  179.3050  143.6910 C   0  0  0  0  0  3  0  0  0  0  0  0
  183.9100  178.6610  138.8830 C   0  0  2  0  0  3  0  0  0  0  0  0
  182.2340  180.4280  138.5470 C   0  0  0  0  0  3  0  0  0  0  0  0
  183.2840  179.9790  139.2210 C   0  0  0  0  0  3  0  0  0  0  0  0
  181.6120  179.6350  137.5800 O   0  0  0  0  0  0  0  0  0  0  0  0
  181.6620  178.2050  137.5880 C   0  0  2  0  0  3  0  0  0  0  0  0
  182.9180  177.6450  138.2610 C   0  0  1  0  0  0  0  0  0  0  0  0
  182.8330  177.7240  136.7480 C   0  0  0  0  0  2  0  0  0  0  0  0
  183.4970  174.9460  137.8940 S   0  0  0  0  0  1  0  0  0  0  0  0
  182.6820  176.2590  138.8600 C   0  0  0  0  0  2  0  0  0  0  0  0
  188.5110  178.9580  140.7250 C   0  0  0  0  0  2  0  0  0  0  0  0
  191.0600  176.8700  144.8710 C   0  0  0  0  0  0  0  0  0  0  0  0
  189.7830  178.5820  143.6640 C   0  0  0  0  0  3  0  0  0  0  0  0
  190.1750  175.8750  141.4710 O   0  0  0  0  0  0  0  0  0  0  0  0
  189.5020  176.6430  140.6550 N   0  0  0  0  0  0  0  0  0  0  0  0
  191.7580  176.4320  146.1080 C   0  0  0  0  0  1  0  0  0  0  0  0
  189.2170  177.7870  141.3220 C   0  0  0  0  0  0  0  0  0  0  0  0
  190.4510  178.1460  144.8240 C   0  0  0  0  0  3  0  0  0  0  0  0
  190.3450  176.4740  142.6240 C   0  0  0  0  0  0  0  0  0  0  0  0
  189.7540  177.7030  142.5840 C   0  0  0  0  0  0  0  0  0  0  0  0
  191.0120  176.0120  143.7550 C   0  0  0  0  0  3  0  0  0  0  0  0
  1  6  1  0  0  0  0
  1  4  1  0  0  0  0
  2  8  1  6  0  0  0
  2  3  1  0  0  0  0
  3  9  1  0  0  0  0
  3 10  2  0  0  0  0
  5  7  2  0  0  0  0
  7 10  1  0  0  0  0
  8  5  1  0  0  0  0
  9  1  2  0  0  0  0
 10 11  1  0  0  0  0
 11  4  2  0  0  0  0
 12 14  1  1  0  0  0
 12  2  1  0  0  0  0
 13 14  2  0  0  0  0
 15 16  1  0  0  0  0
 15 13  1  0  0  0  0
 16 18  1  6  0  0  0
 16 17  1  0  0  0  0
 17 20  1  1  0  0  0
 17 12  1  0  0  0  0
 18 17  1  0  0  0  0
 19 20  1  0  0  0  0
 21  5  1  0  0  0  0
 21 27  1  0  0  0  0
 22 26  1  0  0  0  0
 23 28  2  0  0  0  0
 24 29  1  0  0  0  0
 25 27  2  0  0  0  0
 25 24  1  0  0  0  0
 27 30  1  0  0  0  0
 28 22  1  0  0  0  0
 29 31  1  0  0  0  0
 30 29  2  0  0  0  0
 30 23  1  0  0  0  0
 31 22  2  0  0  0  0
M  END
>  <MODEL>
3

>  <REMARK>
 VINA RESULT:      -9.2      3.281      6.254
  Name = 
  4 active torsions:
  status: ('A' for Active; 'I' for Inactive)
    1  A    between atoms: C_4  and  C_5
    2  A    between atoms: C_9  and  C_23
    3  A    between atoms: C_15  and  C_23
    4  A    between atoms: C_29  and  C_30
                            x       y       z     vdW  Elec       q    Type
                         _______ _______ _______ _____ _____    ______ ____

>  <TORSDO>
F 4

$$$$
=
 OpenBabel10262419313D

 31 36  0  0  1  0  0  0  0  0999 V2000
  184.1850  178.6200  143.3680 C   0  0  0  0  0  0  0  0  0  0  0  0
  187.8810  178.4770  142.4570 C   0  0  2  0  0  3  0  0  0  0  0  0
  186.3790  178.4990  142.3370 C   0  0  0  0  0  0  0  0  0  0  0  0
  183.5920  178.6930  142.1050 C   0  0  0  0  0  3  0  0  0  0  0  0
  187.8690  178.4250  139.9180 C   0  0  0  0  0  0  0  0  0  0  0  0
  183.3380  178.6410  144.5890 C   0  0  0  0  0  1  0  0  0  0  0  0
  186.5810  178.5820  139.8790 N   0  0  0  0  0  0  0  0  0  0  0  0
  188.5450  178.2650  141.1700 N   0  0  0  0  0  2  0  0  0  0  0  0
  185.5740  178.5340  143.4850 C   0  0  0  0  0  3  0  0  0  0  0  0
  185.7790  178.5930  141.0670 C   0  0  0  0  0  0  0  0  0  0  0  0
  184.3890  178.6830  140.9570 C   0  0  0  0  0  3  0  0  0  0  0  0
  188.4070  177.5110  143.5280 C   0  0  2  0  0  3  0  0  0  0  0  0
  188.1760  177.2940  145.9650 C   0  0  0  0  0  3  0  0  0  0  0  0
  187.6760  177.7280  144.8160 C   0  0  0  0  0  3  0  0  0  0  0  0
  189.4510  176.7260  146.0220 O   0  0  0  0  0  0  0  0  0  0  0  0
  190.4820  177.0180  145.0750 C   0  0  2  0  0  3  0  0  0  0  0  0
  189.9460  177.4160  143.6970 C   0  0  1  0  0  0  0  0  0  0  0  0
  190.4460  176.0060  143.9430 C   0  0  0  0  0  2  0  0  0  0  0  0
  191.8900  177.4280  141.7030 S   0  0  0  0  0  1  0  0  0  0  0  0
  190.9100  178.3330  142.9450 C   0  0  0  0  0  2  0  0  0  0  0  0
  188.6490  178.4050  138.6500 C   0  0  0  0  0  2  0  0  0  0  0  0
  191.7750  174.4060  137.1380 C   0  0  0  0  0  0  0  0  0  0  0  0
  191.2720  176.6270  138.0500 C   0  0  0  0  0  3  0  0  0  0  0  0
  188.1960  175.1080  137.3230 O   0  0  0  0  0  0  0  0  0  0  0  0
  187.7130  176.2370  137.7720 N   0  0  0  0  0  0  0  0  0  0  0  0
  192.7810  173.3870  136.7390 C   0  0  0  0  0  1  0  0  0  0  0  0
  188.7650  177.0080  138.1410 C   0  0  0  0  0  0  0  0  0  0  0  0
  192.2060  175.6470  137.6650 C   0  0  0  0  0  3  0  0  0  0  0  0
  189.5060  175.1210  137.3760 C   0  0  0  0  0  0  0  0  0  0  0  0
  189.9240  176.3150  137.8880 C   0  0  0  0  0  0  0  0  0  0  0  0
  190.4020  174.1310  136.9870 C   0  0  0  0  0  3  0  0  0  0  0  0
  1  9  1  0  0  0  0
  1  6  1  0  0  0  0
  2  8  1  6  0  0  0
  2 12  1  0  0  0  0
  3  2  1  0  0  0  0
  3  9  2  0  0  0  0
  4  1  2  0  0  0  0
  5  8  1  0  0  0  0
  7  5  2  0  0  0  0
  7 10  1  0  0  0  0
 10  3  1  0  0  0  0
 11 10  2  0  0  0  0
 11  4  1  0  0  0  0
 12 17  1  0  0  0  0
 12 14  1  1  0  0  0
 13 15  1  0  0  0  0
 14 13  2  0  0  0  0
 16 18  1  6  0  0  0
 16 15  1  0  0  0  0
 17 20  1  6  0  0  0
 17 18  1  0  0  0  0
 17 16  1  0  0  0  0
 19 20  1  0  0  0  0
 21  5  1  0  0  0  0
 22 28  1  0  0  0  0
 24 29  1  0  0  0  0
 24 25  1  0  0  0  0
 25 27  2  0  0  0  0
 26 22  1  0  0  0  0
 27 21  1  0  0  0  0
 28 23  2  0  0  0  0
 29 30  2  0  0  0  0
 30 23  1  0  0  0  0
 30 27  1  0  0  0  0
 31 22  2  0  0  0  0
 31 29  1  0  0  0  0
M  END
>  <MODEL>
4

>  <REMARK>
 VINA RESULT:      -8.9      2.042      4.325
  Name = 
  4 active torsions:
  status: ('A' for Active; 'I' for Inactive)
    1  A    between atoms: C_4  and  C_5
    2  A    between atoms: C_9  and  C_23
    3  A    between atoms: C_15  and  C_23
    4  A    between atoms: C_29  and  C_30
                            x       y       z     vdW  Elec       q    Type
                         _______ _______ _______ _____ _____    ______ ____

>  <TORSDO>
F 4

$$$$
=
 OpenBabel10262419313D

 31 36  0  0  1  0  0  0  0  0999 V2000
  189.8160  176.9860  145.9170 C   0  0  0  0  0  0  0  0  0  0  0  0
  187.2380  177.7280  143.2120 C   0  0  2  0  0  3  0  0  0  0  0  0
  188.5570  177.5570  143.9230 C   0  0  0  0  0  0  0  0  0  0  0  0
  191.0100  177.0940  145.1980 C   0  0  0  0  0  3  0  0  0  0  0  0
  188.6510  178.2740  141.1740 C   0  0  0  0  0  0  0  0  0  0  0  0
  189.8480  176.6310  147.3600 C   0  0  0  0  0  1  0  0  0  0  0  0
  189.7480  177.9810  141.8040 N   0  0  0  0  0  0  0  0  0  0  0  0
  187.3940  178.2620  141.8590 N   0  0  0  0  0  2  0  0  0  0  0  0
  188.5930  177.2060  145.2800 C   0  0  0  0  0  3  0  0  0  0  0  0
  189.7600  177.6450  143.1970 C   0  0  0  0  0  0  0  0  0  0  0  0
  190.9800  177.4200  143.8390 C   0  0  0  0  0  3  0  0  0  0  0  0
  186.1960  178.5200  144.0140 C   0  0  2  0  0  3  0  0  0  0  0  0
  185.2190  178.3630  146.2640 C   0  0  0  0  0  3  0  0  0  0  0  0
  186.2370  178.1100  145.4530 C   0  0  0  0  0  3  0  0  0  0  0  0
  184.0340  178.9160  145.7740 O   0  0  0  0  0  0  0  0  0  0  0  0
  183.6050  178.7710  144.4170 C   0  0  2  0  0  3  0  0  0  0  0  0
  184.7610  178.5870  143.4300 C   0  0  1  0  0  0  0  0  0  0  0  0
  184.1010  179.9440  143.5890 C   0  0  0  0  0  2  0  0  0  0  0  0
  183.2170  178.7450  141.1180 S   0  0  0  0  0  1  0  0  0  0  0  0
  184.3420  177.7960  142.1910 C   0  0  0  0  0  2  0  0  0  0  0  0
  188.7020  178.6300  139.7290 C   0  0  0  0  0  2  0  0  0  0  0  0
  186.6310  175.1800  136.2870 C   0  0  0  0  0  0  0  0  0  0  0  0
  188.4070  176.1870  137.6460 C   0  0  0  0  0  3  0  0  0  0  0  0
  185.4690  177.9740  138.3320 O   0  0  0  0  0  0  0  0  0  0  0  0
  186.2570  178.6530  139.1240 N   0  0  0  0  0  0  0  0  0  0  0  0
  186.2050  174.1600  135.2940 C   0  0  0  0  0  1  0  0  0  0  0  0
  187.4930  178.1080  139.0300 C   0  0  0  0  0  0  0  0  0  0  0  0
  187.9810  175.2290  136.7060 C   0  0  0  0  0  3  0  0  0  0  0  0
  186.1420  177.0250  137.7260 C   0  0  0  0  0  0  0  0  0  0  0  0
  187.4440  177.0670  138.1330 C   0  0  0  0  0  0  0  0  0  0  0  0
  185.6870  176.0920  136.8000 C   0  0  0  0  0  3  0  0  0  0  0  0
  1  6  1  0  0  0  0
  2  8  1  6  0  0  0
  2  3  1  0  0  0  0
  2 12  1  0  0  0  0
  3  9  2  0  0  0  0
  4  1  2  0  0  0  0
  5  7  2  0  0  0  0
  5  8  1  0  0  0  0
  7 10  1  0  0  0  0
  9  1  1  0  0  0  0
 10 11  2  0  0  0  0
 10  3  1  0  0  0  0
 11  4  1  0  0  0  0
 12 14  1  1  0  0  0
 14 13  2  0  0  0  0
 15 13  1  0  0  0  0
 16 18  1  6  0  0  0
 16 15  1  0  0  0  0
 17 20  1  6  0  0  0
 17 18  1  0  0  0  0
 17 12  1  0  0  0  0
 17 16  1  0  0  0  0
 19 20  1  0  0  0  0
 21  5  1  0  0  0  0
 22 28  2  0  0  0  0
 22 31  1  0  0  0  0
 23 30  2  0  0  0  0
 24 25  1  0  0  0  0
 26 22  1  0  0  0  0
 27 25  2  0  0  0  0
 27 21  1  0  0  0  0
 28 23  1  0  0  0  0
 29 30  1  0  0  0  0
 29 24  1  0  0  0  0
 30 27  1  0  0  0  0
 31 29  2  0  0  0  0
M  END
>  <MODEL>
5

>  <REMARK>
 VINA RESULT:      -8.9      1.799      2.386
  Name = 
  4 active torsions:
  status: ('A' for Active; 'I' for Inactive)
    1  A    between atoms: C_4  and  C_5
    2  A    between atoms: C_9  and  C_23
    3  A    between atoms: C_15  and  C_23
    4  A    between atoms: C_29  and  C_30
                            x       y       z     vdW  Elec       q    Type
                         _______ _______ _______ _____ _____    ______ ____

>  <TORSDO>
F 4

$$$$
=
 OpenBabel10262419313D

 31 36  0  0  1  0  0  0  0  0999 V2000
  187.9870  177.5260  144.8090 C   0  0  0  0  0  0  0  0  0  0  0  0
  187.8850  178.4880  141.1240 C   0  0  2  0  0  3  0  0  0  0  0  0
  187.4470  178.1360  142.5230 C   0  0  0  0  0  0  0  0  0  0  0  0
  186.6380  177.6310  145.1590 C   0  0  0  0  0  3  0  0  0  0  0  0
  185.4110  178.8160  140.6610 C   0  0  0  0  0  0  0  0  0  0  0  0
  188.9920  177.1420  145.8340 C   0  0  0  0  0  1  0  0  0  0  0  0
  185.1090  178.6360  141.9110 N   0  0  0  0  0  0  0  0  0  0  0  0
  186.7580  178.6510  140.2060 N   0  0  0  0  0  2  0  0  0  0  0  0
  188.3920  177.7880  143.4980 C   0  0  0  0  0  3  0  0  0  0  0  0
  186.0910  178.2600  142.8840 C   0  0  0  0  0  0  0  0  0  0  0  0
  185.6930  178.0010  144.1980 C   0  0  0  0  0  3  0  0  0  0  0  0
  188.9490  177.5430  140.5480 C   0  0  2  0  0  3  0  0  0  0  0  0
  191.3270  177.1000  140.9830 C   0  0  0  0  0  3  0  0  0  0  0  0
  190.1570  177.5320  141.4330 C   0  0  0  0  0  3  0  0  0  0  0  0
  191.4940  176.7510  139.6410 O   0  0  0  0  0  0  0  0  0  0  0  0
  190.6880  177.2850  138.5860 C   0  0  2  0  0  3  0  0  0  0  0  0
  189.2850  177.6950  139.0420 C   0  0  1  0  0  0  0  0  0  0  0  0
  189.5010  176.3730  138.3300 C   0  0  0  0  0  2  0  0  0  0  0  0
  187.7470  178.1730  136.7710 S   0  0  0  0  0  1  0  0  0  0  0  0
  188.7030  178.8160  138.1820 C   0  0  0  0  0  2  0  0  0  0  0  0
  184.3450  179.1900  139.6910 C   0  0  0  0  0  2  0  0  0  0  0  0
  180.1570  175.9700  140.0650 C   0  0  0  0  0  0  0  0  0  0  0  0
  181.5000  177.9570  140.5780 C   0  0  0  0  0  3  0  0  0  0  0  0
  183.2780  176.1240  138.1750 O   0  0  0  0  0  0  0  0  0  0  0  0
  184.1420  177.0970  138.3040 N   0  0  0  0  0  0  0  0  0  0  0  0
  178.9310  175.1620  140.2960 C   0  0  0  0  0  1  0  0  0  0  0  0
  183.6370  177.9680  139.2100 C   0  0  0  0  0  0  0  0  0  0  0  0
  180.3470  177.1750  140.7810 C   0  0  0  0  0  3  0  0  0  0  0  0
  182.2480  176.3240  138.9620 C   0  0  0  0  0  0  0  0  0  0  0  0
  182.4270  177.4880  139.6500 C   0  0  0  0  0  0  0  0  0  0  0  0
  181.1200  175.5280  139.1370 C   0  0  0  0  0  3  0  0  0  0  0  0
  1  4  1  0  0  0  0
  1  6  1  0  0  0  0
  2  8  1  6  0  0  0
  2  3  1  0  0  0  0
  3 10  2  0  0  0  0
  3  9  1  0  0  0  0
  5  7  2  0  0  0  0
  7 10  1  0  0  0  0
  8  5  1  0  0  0  0
  9  1  2  0  0  0  0
 10 11  1  0  0  0  0
 11  4  2  0  0  0  0
 12  2  1  0  0  0  0
 12 14  1  1  0  0  0
 13 14  2  0  0  0  0
 15 13  1  0  0  0  0
 16 18  1  6  0  0  0
 16 17  1  0  0  0  0
 16 15  1  0  0  0  0
 17 20  1  6  0  0  0
 17 12  1  0  0  0  0
 18 17  1  0  0  0  0
 19 20  1  0  0  0  0
 21  5  1  0  0  0  0
 22 26  1  0  0  0  0
 22 28  1  0  0  0  0
 23 28  2  0  0  0  0
 24 25  1  0  0  0  0
 24 29  1  0  0  0  0
 25 27  2  0  0  0  0
 27 30  1  0  0  0  0
 27 21  1  0  0  0  0
 29 31  1  0  0  0  0
 29 30  2  0  0  0  0
 30 23  1  0  0  0  0
 31 22  2  0  0  0  0
M  END
>  <MODEL>
6

>  <REMARK>
 VINA RESULT:      -8.7      3.075      6.931
  Name = 
  4 active torsions:
  status: ('A' for Active; 'I' for Inactive)
    1  A    between atoms: C_4  and  C_5
    2  A    between atoms: C_9  and  C_23
    3  A    between atoms: C_15  and  C_23
    4  A    between atoms: C_29  and  C_30
                            x       y       z     vdW  Elec       q    Type
                         _______ _______ _______ _____ _____    ______ ____

>  <TORSDO>
F 4

$$$$
=
 OpenBabel10262419313D

 31 36  0  0  1  0  0  0  0  0999 V2000
  185.1620  178.2840  145.2360 C   0  0  0  0  0  0  0  0  0  0  0  0
  188.6170  178.2300  143.6330 C   0  0  2  0  0  3  0  0  0  0  0  0
  187.1190  178.2310  143.8030 C   0  0  0  0  0  0  0  0  0  0  0  0
  184.3380  178.3870  144.1120 C   0  0  0  0  0  3  0  0  0  0  0  0
  188.1210  178.2560  141.1430 C   0  0  0  0  0  0  0  0  0  0  0  0
  184.5630  178.2530  146.5960 C   0  0  0  0  0  1  0  0  0  0  0  0
  186.8470  178.3930  141.3560 N   0  0  0  0  0  0  0  0  0  0  0  0
  189.0250  178.0690  142.2370 N   0  0  0  0  0  2  0  0  0  0  0  0
  186.5490  178.2180  145.0830 C   0  0  0  0  0  3  0  0  0  0  0  0
  186.2870  178.3550  142.6740 C   0  0  0  0  0  0  0  0  0  0  0  0
  184.9000  178.4250  142.8340 C   0  0  0  0  0  3  0  0  0  0  0  0
  189.3480  177.2400  144.5510 C   0  0  2  0  0  3  0  0  0  0  0  0
  189.5470  176.9130  146.9790 C   0  0  0  0  0  3  0  0  0  0  0  0
  188.8430  177.3760  145.9540 C   0  0  0  0  0  3  0  0  0  0  0  0
  190.8280  176.3910  146.7910 O   0  0  0  0  0  0  0  0  0  0  0  0
  191.6710  176.7610  145.6960 C   0  0  2  0  0  3  0  0  0  0  0  0
  190.8950  177.1960  144.4510 C   0  0  1  0  0  0  0  0  0  0  0  0
  191.4710  175.7960  144.5400 C   0  0  0  0  0  2  0  0  0  0  0  0
  192.0560  177.5030  141.9380 S   0  0  0  0  0  1  0  0  0  0  0  0
  191.6880  178.1790  143.5890 C   0  0  0  0  0  2  0  0  0  0  0  0
  188.6440  178.2890  139.7500 C   0  0  0  0  0  2  0  0  0  0  0  0
  186.9640  175.1220  135.8510 C   0  0  0  0  0  0  0  0  0  0  0  0
  188.5080  175.8940  137.5940 C   0  0  0  0  0  3  0  0  0  0  0  0
  185.7460  178.0530  137.6570 O   0  0  0  0  0  0  0  0  0  0  0  0
  186.4190  178.6280  138.6200 N   0  0  0  0  0  0  0  0  0  0  0  0
  186.6420  174.1610  134.7640 C   0  0  0  0  0  1  0  0  0  0  0  0
  187.5640  177.9250  138.7870 C   0  0  0  0  0  0  0  0  0  0  0  0
  188.1830  174.9960  136.5600 C   0  0  0  0  0  3  0  0  0  0  0  0
  186.4090  177.0220  137.1920 C   0  0  0  0  0  0  0  0  0  0  0  0
  187.5820  176.8950  137.8770 C   0  0  0  0  0  0  0  0  0  0  0  0
  186.0560  176.1520  136.1660 C   0  0  0  0  0  3  0  0  0  0  0  0
  1  6  1  0  0  0  0
  2  8  1  6  0  0  0
  2  3  1  0  0  0  0
  2 12  1  0  0  0  0
  3  9  2  0  0  0  0
  4  1  2  0  0  0  0
  5  7  2  0  0  0  0
  5  8  1  0  0  0  0
  7 10  1  0  0  0  0
  9  1  1  0  0  0  0
 10 11  2  0  0  0  0
 10  3  1  0  0  0  0
 11  4  1  0  0  0  0
 12 14  1  1  0  0  0
 14 13  2  0  0  0  0
 15 13  1  0  0  0  0
 16 18  1  6  0  0  0
 16 15  1  0  0  0  0
 17 20  1  6  0  0  0
 17 18  1  0  0  0  0
 17 12  1  0  0  0  0
 17 16  1  0  0  0  0
 19 20  1  0  0  0  0
 21  5  1  0  0  0  0
 22 31  2  0  0  0  0
 22 28  1  0  0  0  0
 23 30  1  0  0  0  0
 24 25  1  0  0  0  0
 25 27  2  0  0  0  0
 26 22  1  0  0  0  0
 27 21  1  0  0  0  0
 28 23  2  0  0  0  0
 29 24  1  0  0  0  0
 29 30  2  0  0  0  0
 30 27  1  0  0  0  0
 31 29  1  0  0  0  0
M  END
>  <MODEL>
7

>  <REMARK>
 VINA RESULT:      -8.6      2.640      4.844
  Name = 
  4 active torsions:
  status: ('A' for Active; 'I' for Inactive)
    1  A    between atoms: C_4  and  C_5
    2  A    between atoms: C_9  and  C_23
    3  A    between atoms: C_15  and  C_23
    4  A    between atoms: C_29  and  C_30
                            x       y       z     vdW  Elec       q    Type
                         _______ _______ _______ _____ _____    ______ ____

>  <TORSDO>
F 4

$$$$
=
 OpenBabel10262419313D

 31 36  0  0  1  0  0  0  0  0999 V2000
  187.2370  177.8460  144.8030 C   0  0  0  0  0  0  0  0  0  0  0  0
  187.3750  178.5510  141.0610 C   0  0  2  0  0  3  0  0  0  0  0  0
  186.8480  178.3270  142.4560 C   0  0  0  0  0  0  0  0  0  0  0  0
  185.8830  178.0610  145.0740 C   0  0  0  0  0  3  0  0  0  0  0  0
  184.9520  179.0010  140.4490 C   0  0  0  0  0  0  0  0  0  0  0  0
  188.1650  177.4720  145.9020 C   0  0  0  0  0  1  0  0  0  0  0  0
  184.5810  178.9290  141.6910 N   0  0  0  0  0  0  0  0  0  0  0  0
  186.3060  178.7210  140.0760 N   0  0  0  0  0  2  0  0  0  0  0  0
  187.7210  177.9900  143.5000 C   0  0  0  0  0  3  0  0  0  0  0  0
  185.4880  178.5620  142.7370 C   0  0  0  0  0  0  0  0  0  0  0  0
  185.0110  178.4210  144.0430 C   0  0  0  0  0  3  0  0  0  0  0  0
  188.3990  177.5030  140.6060 C   0  0  2  0  0  3  0  0  0  0  0  0
  190.5530  176.6690  141.4460 C   0  0  0  0  0  3  0  0  0  0  0  0
  189.3830  177.2380  141.7030 C   0  0  0  0  0  3  0  0  0  0  0  0
  190.9480  176.4050  140.1330 O   0  0  0  0  0  0  0  0  0  0  0  0
  190.4590  177.1370  139.0060 C   0  0  2  0  0  3  0  0  0  0  0  0
  189.0600  177.7190  139.2200 C   0  0  1  0  0  0  0  0  0  0  0  0
  189.2410  176.4400  138.4250 C   0  0  0  0  0  2  0  0  0  0  0  0
  187.9170  178.6290  136.8490 S   0  0  0  0  0  1  0  0  0  0  0  0
  188.8260  178.9800  138.3880 C   0  0  0  0  0  2  0  0  0  0  0  0
  183.9610  179.3730  139.4020 C   0  0  0  0  0  2  0  0  0  0  0  0
  180.4710  175.4140  139.8480 C   0  0  0  0  0  0  0  0  0  0  0  0
  182.6520  176.4260  139.3630 C   0  0  0  0  0  3  0  0  0  0  0  0
  180.5470  179.0190  140.4290 O   0  0  0  0  0  0  0  0  0  0  0  0
  181.6100  179.7520  140.2250 N   0  0  0  0  0  0  0  0  0  0  0  0
  179.6070  174.2070  139.9020 C   0  0  0  0  0  1  0  0  0  0  0  0
  182.5970  178.9240  139.8050 C   0  0  0  0  0  0  0  0  0  0  0  0
  181.8150  175.2960  139.4210 C   0  0  0  0  0  3  0  0  0  0  0  0
  180.8000  177.7630  140.1500 C   0  0  0  0  0  0  0  0  0  0  0  0
  182.0970  177.6450  139.7430 C   0  0  0  0  0  0  0  0  0  0  0  0
  179.9460  176.6670  140.2200 C   0  0  0  0  0  3  0  0  0  0  0  0
  1  4  1  0  0  0  0
  1  6  1  0  0  0  0
  2  8  1  6  0  0  0
  2  3  1  0  0  0  0
  3 10  2  0  0  0  0
  3  9  1  0  0  0  0
  5  7  2  0  0  0  0
  7 10  1  0  0  0  0
  8  5  1  0  0  0  0
  9  1  2  0  0  0  0
 10 11  1  0  0  0  0
 11  4  2  0  0  0  0
 12  2  1  0  0  0  0
 12 14  1  1  0  0  0
 13 14  2  0  0  0  0
 15 13  1  0  0  0  0
 16 18  1  6  0  0  0
 16 17  1  0  0  0  0
 16 15  1  0  0  0  0
 17 20  1  6  0  0  0
 17 12  1  0  0  0  0
 18 17  1  0  0  0  0
 19 20  1  0  0  0  0
 21 27  1  0  0  0  0
 21  5  1  0  0  0  0
 22 26  1  0  0  0  0
 22 31  1  0  0  0  0
 23 28  1  0  0  0  0
 23 30  2  0  0  0  0
 25 24  1  0  0  0  0
 27 25  2  0  0  0  0
 28 22  2  0  0  0  0
 29 31  2  0  0  0  0
 29 24  1  0  0  0  0
 30 27  1  0  0  0  0
 30 29  1  0  0  0  0
M  END
>  <MODEL>
8

>  <REMARK>
 VINA RESULT:      -8.6      3.366      7.109
  Name = 
  4 active torsions:
  status: ('A' for Active; 'I' for Inactive)
    1  A    between atoms: C_4  and  C_5
    2  A    between atoms: C_9  and  C_23
    3  A    between atoms: C_15  and  C_23
    4  A    between atoms: C_29  and  C_30
                            x       y       z     vdW  Elec       q    Type
                         _______ _______ _______ _____ _____    ______ ____

>  <TORSDO>
F 4

$$$$
=
 OpenBabel10262419313D

 31 36  0  0  1  0  0  0  0  0999 V2000
  186.9010  177.8580  144.9430 C   0  0  0  0  0  0  0  0  0  0  0  0
  187.3530  178.5230  141.2190 C   0  0  2  0  0  3  0  0  0  0  0  0
  186.7120  178.3290  142.5700 C   0  0  0  0  0  0  0  0  0  0  0  0
  185.5380  178.1190  145.1060 C   0  0  0  0  0  3  0  0  0  0  0  0
  185.0020  179.0460  140.4160 C   0  0  0  0  0  0  0  0  0  0  0  0
  187.7280  177.4640  146.1140 C   0  0  0  0  0  1  0  0  0  0  0  0
  184.5330  178.9980  141.6260 N   0  0  0  0  0  0  0  0  0  0  0  0
  186.3700  178.7180  140.1530 N   0  0  0  0  0  2  0  0  0  0  0  0
  187.4900  177.9730  143.6810 C   0  0  0  0  0  3  0  0  0  0  0  0
  185.3430  178.6110  142.7420 C   0  0  0  0  0  0  0  0  0  0  0  0
  184.7620  178.4980  144.0080 C   0  0  0  0  0  3  0  0  0  0  0  0
  188.3750  177.4370  140.8520 C   0  0  2  0  0  3  0  0  0  0  0  0
  190.4020  176.5090  141.8870 C   0  0  0  0  0  3  0  0  0  0  0  0
  189.2360  177.1240  142.0360 C   0  0  0  0  0  3  0  0  0  0  0  0
  190.9120  176.2400  140.6150 O   0  0  0  0  0  0  0  0  0  0  0  0
  190.5640  177.0010  139.4540 C   0  0  2  0  0  3  0  0  0  0  0  0
  189.1750  177.6370  139.5390 C   0  0  1  0  0  0  0  0  0  0  0  0
  189.3820  176.3580  138.7500 C   0  0  0  0  0  2  0  0  0  0  0  0
  188.6190  178.5680  136.9740 S   0  0  0  0  0  1  0  0  0  0  0  0
  189.0730  178.9140  138.7040 C   0  0  0  0  0  2  0  0  0  0  0  0
  184.1080  179.4400  139.2930 C   0  0  0  0  0  2  0  0  0  0  0  0
  184.0500  175.2040  136.1150 C   0  0  0  0  0  0  0  0  0  0  0  0
  185.0380  177.1690  137.2010 C   0  0  0  0  0  3  0  0  0  0  0  0
  181.7630  176.8770  138.4190 O   0  0  0  0  0  0  0  0  0  0  0  0
  182.0890  177.9480  139.0950 N   0  0  0  0  0  0  0  0  0  0  0  0
  184.1830  174.0650  135.1700 C   0  0  0  0  0  1  0  0  0  0  0  0
  183.3710  178.2480  138.7810 C   0  0  0  0  0  0  0  0  0  0  0  0
  185.1410  176.0840  136.3110 C   0  0  0  0  0  3  0  0  0  0  0  0
  182.7700  176.4830  137.6780 C   0  0  0  0  0  0  0  0  0  0  0  0
  183.8260  177.3260  137.8690 C   0  0  0  0  0  0  0  0  0  0  0  0
  182.8380  175.4010  136.8070 C   0  0  0  0  0  3  0  0  0  0  0  0
  1  4  1  0  0  0  0
  1  6  1  0  0  0  0
  2  8  1  6  0  0  0
  2  3  1  0  0  0  0
  3 10  2  0  0  0  0
  3  9  1  0  0  0  0
  5  7  2  0  0  0  0
  7 10  1  0  0  0  0
  8  5  1  0  0  0  0
  9  1  2  0  0  0  0
 10 11  1  0  0  0  0
 11  4  2  0  0  0  0
 12  2  1  0  0  0  0
 12 14  1  1  0  0  0
 13 14  2  0  0  0  0
 15 13  1  0  0  0  0
 16 18  1  6  0  0  0
 16 17  1  0  0  0  0
 16 15  1  0  0  0  0
 17 20  1  6  0  0  0
 17 12  1  0  0  0  0
 18 17  1  0  0  0  0
 19 20  1  0  0  0  0
 21  5  1  0  0  0  0
 22 28  2  0  0  0  0
 22 31  1  0  0  0  0
 23 30  2  0  0  0  0
 24 25  1  0  0  0  0
 26 22  1  0  0  0  0
 27 25  2  0  0  0  0
 27 21  1  0  0  0  0
 28 23  1  0  0  0  0
 29 30  1  0  0  0  0
 29 24  1  0  0  0  0
 30 27  1  0  0  0  0
 31 29  2  0  0  0  0
M  END
>  <MODEL>
9

>  <REMARK>
 VINA RESULT:      -8.4      3.530      5.962
  Name = 
  4 active torsions:
  status: ('A' for Active; 'I' for Inactive)
    1  A    between atoms: C_4  and  C_5
    2  A    between atoms: C_9  and  C_23
    3  A    between atoms: C_15  and  C_23
    4  A    between atoms: C_29  and  C_30
                            x       y       z     vdW  Elec       q    Type
                         _______ _______ _______ _____ _____    ______ ____

>  <TORSDO>
F 4

$$$$
