=
 OpenBabel10262420553D

 28 32  0  0  1  0  0  0  0  0999 V2000
  190.6680  176.7840  144.4190 C   0  0  1  0  0  3  0  0  0  0  0  0
  185.6930  178.1720  143.3240 C   0  0  0  0  0  3  0  0  0  0  0  0
  188.7440  178.3460  148.6290 C   0  0  0  0  0  2  0  0  0  0  0  0
  184.7560  178.6450  145.5160 C   0  0  0  0  0  0  0  0  0  0  0  0
  187.1110  178.0770  145.3240 C   0  0  0  0  0  0  0  0  0  0  0  0
  183.3470  178.7360  143.5480 C   0  0  0  0  0  0  0  0  0  0  0  0
  185.8630  178.2930  144.7120 C   0  0  0  0  0  0  0  0  0  0  0  0
  186.1040  178.5840  147.4660 C   0  0  0  0  0  3  0  0  0  0  0  0
  183.5050  178.8620  144.9300 C   0  0  0  0  0  3  0  0  0  0  0  0
  189.5820  177.3050  146.6190 N   0  0  0  0  0  0  0  0  0  0  0  0
  188.3370  177.8140  144.4970 C   0  0  0  0  0  2  0  0  0  0  0  0
  184.9050  178.7820  146.8590 N   0  0  0  0  0  0  0  0  0  0  0  0
  191.3960  175.6180  146.5650 C   0  0  0  0  0  2  0  0  0  0  0  0
  187.2350  178.2310  146.7140 C   0  0  0  0  0  0  0  0  0  0  0  0
  190.7300  176.7450  147.3470 C   0  0  0  0  0  2  0  0  0  0  0  0
  182.0740  178.9570  142.9550 N   0  0  0  0  0  1  0  0  0  0  0  0
  184.4390  178.3910  142.7460 C   0  0  0  0  0  3  0  0  0  0  0  0
  188.5400  177.9740  147.3630 C   0  0  0  0  0  0  0  0  0  0  0  0
  191.8180  176.1230  145.1920 C   0  0  0  0  0  2  0  0  0  0  0  0
  189.3470  176.9130  145.2150 C   0  0  1  0  0  3  0  0  0  0  0  0
  191.2510  178.3150  143.5820 S   0  0  0  0  0  0  0  0  0  0  0  0
  190.8600  177.8110  141.9050 C   0  0  0  0  0  0  0  0  0  0  0  0
  190.2410  176.9990  139.3010 C   0  0  0  0  0  0  0  0  0  0  0  0
  191.8810  177.4200  141.0320 C   0  0  0  0  0  3  0  0  0  0  0  0
  189.5270  177.7720  141.4810 C   0  0  0  0  0  3  0  0  0  0  0  0
  189.2180  177.3700  140.1780 C   0  0  0  0  0  3  0  0  0  0  0  0
  189.9420  176.6130  138.0380 F   0  0  0  0  0  0  0  0  0  0  0  0
  191.5720  177.0190  139.7290 C   0  0  0  0  0  3  0  0  0  0  0  0
  1 21  1  1  0  0  0
  1 19  1  0  0  0  0
  1 20  1  0  0  0  0
  2  7  1  0  0  0  0
  4 12  1  0  0  0  0
  5 14  2  0  0  0  0
  6  9  2  0  0  0  0
  7  5  1  0  0  0  0
  7  4  2  0  0  0  0
  9  4  1  0  0  0  0
 10 15  1  0  0  0  0
 10 18  1  0  0  0  0
 11  5  1  0  0  0  0
 12  8  2  0  0  0  0
 13 15  1  0  0  0  0
 14 18  1  0  0  0  0
 14  8  1  0  0  0  0
 16  6  1  0  0  0  0
 17  2  2  0  0  0  0
 17  6  1  0  0  0  0
 18  3  2  0  0  0  0
 19 13  1  0  0  0  0
 20 11  1  6  0  0  0
 20 10  1  0  0  0  0
 22 21  1  0  0  0  0
 23 28  2  0  0  0  0
 23 26  1  0  0  0  0
 24 22  2  0  0  0  0
 25 22  1  0  0  0  0
 26 25  2  0  0  0  0
 27 23  1  0  0  0  0
 28 24  1  0  0  0  0
M  END
>  <MODEL>
1

>  <REMARK>
 VINA RESULT:     -11.3      0.000      0.000
  Name = 
  2 active torsions:
  status: ('A' for Active; 'I' for Inactive)
    1  A    between atoms: C_1  and  S_2
    2  A    between atoms: S_2  and  C_3
                            x       y       z     vdW  Elec       q    Type
                         _______ _______ _______ _____ _____    ______ ____

>  <TORSDO>
F 2

$$$$
=
 OpenBabel10262420553D

 28 32  0  0  1  0  0  0  0  0999 V2000
  188.8510  177.0750  141.5610 C   0  0  1  0  0  3  0  0  0  0  0  0
  183.8300  178.5380  142.2870 C   0  0  0  0  0  3  0  0  0  0  0  0
  188.4030  178.0480  146.3270 C   0  0  0  0  0  2  0  0  0  0  0  0
  183.6480  178.7090  144.7060 C   0  0  0  0  0  0  0  0  0  0  0  0
  185.8040  178.1970  143.7050 C   0  0  0  0  0  0  0  0  0  0  0  0
  181.6940  179.0420  143.3140 C   0  0  0  0  0  0  0  0  0  0  0  0
  184.4340  178.4780  143.5530 C   0  0  0  0  0  0  0  0  0  0  0  0
  185.5400  178.4070  146.1020 C   0  0  0  0  0  3  0  0  0  0  0  0
  182.2840  178.9870  144.5790 C   0  0  0  0  0  3  0  0  0  0  0  0
  188.5310  177.2900  144.0400 N   0  0  0  0  0  0  0  0  0  0  0  0
  186.6960  178.0590  142.5050 C   0  0  0  0  0  2  0  0  0  0  0  0
  184.2180  178.6700  145.9380 N   0  0  0  0  0  0  0  0  0  0  0  0
  190.1830  175.6460  143.1970 C   0  0  0  0  0  2  0  0  0  0  0  0
  186.3650  178.1690  144.9920 C   0  0  0  0  0  0  0  0  0  0  0  0
  189.8330  176.6520  144.2880 C   0  0  0  0  0  2  0  0  0  0  0  0
  180.3060  179.3250  143.1900 N   0  0  0  0  0  1  0  0  0  0  0  0
  182.4650  178.8180  142.1700 C   0  0  0  0  0  3  0  0  0  0  0  0
  187.8000  177.8440  145.1550 C   0  0  0  0  0  0  0  0  0  0  0  0
  190.1650  176.3310  141.8380 C   0  0  0  0  0  2  0  0  0  0  0  0
  187.8540  177.0840  142.7440 C   0  0  1  0  0  3  0  0  0  0  0  0
  189.1870  178.7090  140.7860 S   0  0  0  0  0  0  0  0  0  0  0  0
  188.6210  178.2900  139.1360 C   0  0  0  0  0  0  0  0  0  0  0  0
  187.7420  177.6640  136.5540 C   0  0  0  0  0  0  0  0  0  0  0  0
  187.2570  178.0970  138.8870 C   0  0  0  0  0  3  0  0  0  0  0  0
  189.5410  178.1930  138.0870 C   0  0  0  0  0  3  0  0  0  0  0  0
  189.1030  177.8750  136.7980 C   0  0  0  0  0  3  0  0  0  0  0  0
  187.3180  177.3540  135.3070 F   0  0  0  0  0  0  0  0  0  0  0  0
  186.8190  177.7800  137.5980 C   0  0  0  0  0  3  0  0  0  0  0  0
  1 21  1  1  0  0  0
  1 19  1  0  0  0  0
  1 20  1  0  0  0  0
  2  7  1  0  0  0  0
  4 12  1  0  0  0  0
  5 14  2  0  0  0  0
  6  9  2  0  0  0  0
  7  5  1  0  0  0  0
  7  4  2  0  0  0  0
  9  4  1  0  0  0  0
 10 15  1  0  0  0  0
 10 18  1  0  0  0  0
 11  5  1  0  0  0  0
 12  8  2  0  0  0  0
 13 15  1  0  0  0  0
 14 18  1  0  0  0  0
 14  8  1  0  0  0  0
 16  6  1  0  0  0  0
 17  2  2  0  0  0  0
 17  6  1  0  0  0  0
 18  3  2  0  0  0  0
 19 13  1  0  0  0  0
 20 11  1  6  0  0  0
 20 10  1  0  0  0  0
 22 21  1  0  0  0  0
 23 26  2  0  0  0  0
 23 28  1  0  0  0  0
 24 22  1  0  0  0  0
 25 22  2  0  0  0  0
 26 25  1  0  0  0  0
 27 23  1  0  0  0  0
 28 24  2  0  0  0  0
M  END
>  <MODEL>
2

>  <REMARK>
 VINA RESULT:      -9.5      1.991      2.976
  Name = 
  2 active torsions:
  status: ('A' for Active; 'I' for Inactive)
    1  A    between atoms: C_1  and  S_2
    2  A    between atoms: S_2  and  C_3
                            x       y       z     vdW  Elec       q    Type
                         _______ _______ _______ _____ _____    ______ ____

>  <TORSDO>
F 2

$$$$
=
 OpenBabel10262420553D

 28 32  0  0  1  0  0  0  0  0999 V2000
  189.1760  177.2280  144.1280 C   0  0  1  0  0  3  0  0  0  0  0  0
  184.6480  177.9480  141.5090 C   0  0  0  0  0  3  0  0  0  0  0  0
  186.0570  179.1900  147.3360 C   0  0  0  0  0  2  0  0  0  0  0  0
  183.1050  178.6420  143.2540 C   0  0  0  0  0  0  0  0  0  0  0  0
  185.4450  178.2850  143.8060 C   0  0  0  0  0  0  0  0  0  0  0  0
  182.3080  178.3070  140.9910 C   0  0  0  0  0  0  0  0  0  0  0  0
  184.4120  178.2870  142.8500 C   0  0  0  0  0  0  0  0  0  0  0  0
  183.8460  178.9970  145.4780 C   0  0  0  0  0  3  0  0  0  0  0  0
  182.0620  178.6480  142.3230 C   0  0  0  0  0  3  0  0  0  0  0  0
  187.4840  177.9550  145.8320 N   0  0  0  0  0  0  0  0  0  0  0  0
  186.8670  178.0250  143.3970 C   0  0  0  0  0  2  0  0  0  0  0  0
  182.8600  178.9870  144.5450 N   0  0  0  0  0  0  0  0  0  0  0  0
  189.3270  176.4640  146.5540 C   0  0  0  0  0  2  0  0  0  0  0  0
  185.1620  178.6510  145.1310 C   0  0  0  0  0  0  0  0  0  0  0  0
  188.4080  177.6210  146.9270 C   0  0  0  0  0  2  0  0  0  0  0  0
  181.2450  178.3140  140.0470 N   0  0  0  0  0  1  0  0  0  0  0  0
  183.6000  177.9580  140.5850 C   0  0  0  0  0  3  0  0  0  0  0  0
  186.2410  178.6200  146.1430 C   0  0  0  0  0  0  0  0  0  0  0  0
  190.0930  176.8020  145.2830 C   0  0  0  0  0  2  0  0  0  0  0  0
  187.6790  177.3420  144.5030 C   0  0  1  0  0  3  0  0  0  0  0  0
  189.8890  178.6700  143.2370 S   0  0  0  0  0  0  0  0  0  0  0  0
  190.0440  177.8820  141.6320 C   0  0  0  0  0  0  0  0  0  0  0  0
  190.2720  176.6290  139.1410 C   0  0  0  0  0  0  0  0  0  0  0  0
  191.2840  177.3980  141.2020 C   0  0  0  0  0  3  0  0  0  0  0  0
  188.9130  177.7160  140.8250 C   0  0  0  0  0  3  0  0  0  0  0  0
  189.0280  177.0940  139.5780 C   0  0  0  0  0  3  0  0  0  0  0  0
  190.3840  176.0290  137.9330 F   0  0  0  0  0  0  0  0  0  0  0  0
  191.4000  176.7760  139.9550 C   0  0  0  0  0  3  0  0  0  0  0  0
  1 21  1  1  0  0  0
  1 20  1  0  0  0  0
  1 19  1  0  0  0  0
  2  7  1  0  0  0  0
  4 12  1  0  0  0  0
  5 14  2  0  0  0  0
  6  9  2  0  0  0  0
  7  4  2  0  0  0  0
  7  5  1  0  0  0  0
  9  4  1  0  0  0  0
 10 18  1  0  0  0  0
 10 15  1  0  0  0  0
 11  5  1  0  0  0  0
 12  8  2  0  0  0  0
 13 15  1  0  0  0  0
 14  8  1  0  0  0  0
 14 18  1  0  0  0  0
 16  6  1  0  0  0  0
 17  6  1  0  0  0  0
 17  2  2  0  0  0  0
 18  3  2  0  0  0  0
 19 13  1  0  0  0  0
 20 11  1  6  0  0  0
 20 10  1  0  0  0  0
 22 21  1  0  0  0  0
 23 26  2  0  0  0  0
 23 28  1  0  0  0  0
 24 22  1  0  0  0  0
 25 22  2  0  0  0  0
 26 25  1  0  0  0  0
 27 23  1  0  0  0  0
 28 24  2  0  0  0  0
M  END
>  <MODEL>
3

>  <REMARK>
 VINA RESULT:      -9.0      1.339      2.174
  Name = 
  2 active torsions:
  status: ('A' for Active; 'I' for Inactive)
    1  A    between atoms: C_1  and  S_2
    2  A    between atoms: S_2  and  C_3
                            x       y       z     vdW  Elec       q    Type
                         _______ _______ _______ _____ _____    ______ ____

>  <TORSDO>
F 2

$$$$
=
 OpenBabel10262420553D

 28 32  0  0  1  0  0  0  0  0999 V2000
  189.6270  176.6840  142.3040 C   0  0  1  0  0  3  0  0  0  0  0  0
  184.6170  178.3250  142.5930 C   0  0  0  0  0  3  0  0  0  0  0  0
  188.9120  178.0290  146.9450 C   0  0  0  0  0  2  0  0  0  0  0  0
  184.2900  178.6840  144.9750 C   0  0  0  0  0  0  0  0  0  0  0  0
  186.4870  178.0440  144.1570 C   0  0  0  0  0  0  0  0  0  0  0  0
  182.4370  178.9590  143.4390 C   0  0  0  0  0  0  0  0  0  0  0  0
  185.1380  178.3470  143.8960 C   0  0  0  0  0  0  0  0  0  0  0  0
  186.0810  178.4420  146.5100 C   0  0  0  0  0  3  0  0  0  0  0  0
  182.9450  178.9870  144.7400 C   0  0  0  0  0  3  0  0  0  0  0  0
  189.1600  177.0960  144.7340 N   0  0  0  0  0  0  0  0  0  0  0  0
  187.4480  177.7910  143.0310 C   0  0  0  0  0  2  0  0  0  0  0  0
  184.7800  178.7250  146.2410 N   0  0  0  0  0  0  0  0  0  0  0  0
  190.8100  175.3500  144.1250 C   0  0  0  0  0  2  0  0  0  0  0  0
  186.9660  178.0990  145.4760 C   0  0  0  0  0  0  0  0  0  0  0  0
  190.4230  176.4460  145.1120 C   0  0  0  0  0  2  0  0  0  0  0  0
  181.0680  179.2670  143.2040 N   0  0  0  0  0  1  0  0  0  0  0  0
  183.2710  178.6290  142.3670 C   0  0  0  0  0  3  0  0  0  0  0  0
  188.3770  177.7520  145.7550 C   0  0  0  0  0  0  0  0  0  0  0  0
  190.8980  175.9300  142.7200 C   0  0  0  0  0  2  0  0  0  0  0  0
  188.5580  176.8080  143.4160 C   0  0  1  0  0  3  0  0  0  0  0  0
  190.0600  178.2450  141.4330 S   0  0  0  0  0  0  0  0  0  0  0  0
  191.0240  177.5010  140.1150 C   0  0  0  0  0  0  0  0  0  0  0  0
  192.5210  176.3150  138.0710 C   0  0  0  0  0  0  0  0  0  0  0  0
  192.4220  177.5130  140.1730 C   0  0  0  0  0  3  0  0  0  0  0  0
  190.3760  176.8750  139.0450 C   0  0  0  0  0  3  0  0  0  0  0  0
  191.1240  176.2860  138.0210 C   0  0  0  0  0  3  0  0  0  0  0  0
  193.2460  175.7470  137.0780 F   0  0  0  0  0  0  0  0  0  0  0  0
  193.1700  176.9240  139.1500 C   0  0  0  0  0  3  0  0  0  0  0  0
  1 21  1  1  0  0  0
  1 19  1  0  0  0  0
  1 20  1  0  0  0  0
  2  7  1  0  0  0  0
  4 12  1  0  0  0  0
  5 14  2  0  0  0  0
  6  9  2  0  0  0  0
  7  5  1  0  0  0  0
  7  4  2  0  0  0  0
  9  4  1  0  0  0  0
 10 15  1  0  0  0  0
 10 18  1  0  0  0  0
 11  5  1  0  0  0  0
 12  8  2  0  0  0  0
 13 15  1  0  0  0  0
 14 18  1  0  0  0  0
 14  8  1  0  0  0  0
 16  6  1  0  0  0  0
 17  2  2  0  0  0  0
 17  6  1  0  0  0  0
 18  3  2  0  0  0  0
 19 13  1  0  0  0  0
 20 11  1  6  0  0  0
 20 10  1  0  0  0  0
 22 24  1  0  0  0  0
 22 21  1  0  0  0  0
 23 28  1  0  0  0  0
 25 22  2  0  0  0  0
 26 23  2  0  0  0  0
 26 25  1  0  0  0  0
 27 23  1  0  0  0  0
 28 24  2  0  0  0  0
M  END
>  <MODEL>
4

>  <REMARK>
 VINA RESULT:      -8.8      1.426      1.913
  Name = 
  2 active torsions:
  status: ('A' for Active; 'I' for Inactive)
    1  A    between atoms: C_1  and  S_2
    2  A    between atoms: S_2  and  C_3
                            x       y       z     vdW  Elec       q    Type
                         _______ _______ _______ _____ _____    ______ ____

>  <TORSDO>
F 2

$$$$
=
 OpenBabel10262420553D

 28 32  0  0  1  0  0  0  0  0999 V2000
  189.1460  178.2470  143.4940 C   0  0  1  0  0  3  0  0  0  0  0  0
  187.0280  177.8780  138.6710 C   0  0  0  0  0  3  0  0  0  0  0  0
  192.7460  176.7530  140.5490 C   0  0  0  0  0  2  0  0  0  0  0  0
  188.9520  177.4210  137.2570 C   0  0  0  0  0  0  0  0  0  0  0  0
  189.2500  177.5620  139.6650 C   0  0  0  0  0  0  0  0  0  0  0  0
  186.7640  177.7360  136.2670 C   0  0  0  0  0  0  0  0  0  0  0  0
  188.4030  177.6240  138.5430 C   0  0  0  0  0  0  0  0  0  0  0  0
  191.1070  177.0890  138.1870 C   0  0  0  0  0  3  0  0  0  0  0  0
  188.1300  177.4800  136.1270 C   0  0  0  0  0  3  0  0  0  0  0  0
  191.0440  177.7710  141.9260 N   0  0  0  0  0  0  0  0  0  0  0  0
  188.6900  177.6580  141.0550 C   0  0  0  0  0  2  0  0  0  0  0  0
  190.2770  177.1590  137.1140 N   0  0  0  0  0  0  0  0  0  0  0  0
  191.5010  179.0970  143.9690 C   0  0  0  0  0  2  0  0  0  0  0  0
  190.6150  177.2850  139.4870 C   0  0  0  0  0  0  0  0  0  0  0  0
  192.0240  178.0560  142.9850 C   0  0  0  0  0  2  0  0  0  0  0  0
  185.9310  177.7960  135.1160 N   0  0  0  0  0  1  0  0  0  0  0  0
  186.2140  177.9350  137.5370 C   0  0  0  0  0  3  0  0  0  0  0  0
  191.5120  177.2490  140.6630 C   0  0  0  0  0  0  0  0  0  0  0  0
  190.1800  178.6280  144.5620 C   0  0  0  0  0  2  0  0  0  0  0  0
  189.6720  178.3020  142.0400 C   0  0  1  0  0  3  0  0  0  0  0  0
  188.2670  176.7030  143.9690 S   0  0  0  0  0  0  0  0  0  0  0  0
  186.7100  177.4680  144.4250 C   0  0  0  0  0  0  0  0  0  0  0  0
  184.2920  178.6880  145.1280 C   0  0  0  0  0  0  0  0  0  0  0  0
  186.4020  177.6900  145.7720 C   0  0  0  0  0  3  0  0  0  0  0  0
  185.8160  177.8790  143.4290 C   0  0  0  0  0  3  0  0  0  0  0  0
  184.6060  178.4840  143.7810 C   0  0  0  0  0  3  0  0  0  0  0  0
  183.1180  179.2710  145.4690 F   0  0  0  0  0  0  0  0  0  0  0  0
  185.1920  178.2940  146.1230 C   0  0  0  0  0  3  0  0  0  0  0  0
  1 21  1  1  0  0  0
  1 19  1  0  0  0  0
  3 18  2  0  0  0  0
  4  7  1  0  0  0  0
  5 11  1  0  0  0  0
  6 17  1  0  0  0  0
  7  2  1  0  0  0  0
  7  5  2  0  0  0  0
  8 14  2  0  0  0  0
  9  6  2  0  0  0  0
  9  4  1  0  0  0  0
 10 20  1  0  0  0  0
 10 15  1  0  0  0  0
 12  4  2  0  0  0  0
 12  8  1  0  0  0  0
 13 19  1  0  0  0  0
 14  5  1  0  0  0  0
 14 18  1  0  0  0  0
 15 13  1  0  0  0  0
 16  6  1  0  0  0  0
 17  2  2  0  0  0  0
 18 10  1  0  0  0  0
 20 11  1  6  0  0  0
 20  1  1  0  0  0  0
 21 22  1  0  0  0  0
 22 24  1  0  0  0  0
 23 27  1  0  0  0  0
 23 28  1  0  0  0  0
 24 28  2  0  0  0  0
 25 26  1  0  0  0  0
 25 22  2  0  0  0  0
 26 23  2  0  0  0  0
M  END
>  <MODEL>
5

>  <REMARK>
 VINA RESULT:      -8.6      3.814      7.120
  Name = 
  2 active torsions:
  status: ('A' for Active; 'I' for Inactive)
    1  A    between atoms: C_1  and  S_2
    2  A    between atoms: S_2  and  C_3
                            x       y       z     vdW  Elec       q    Type
                         _______ _______ _______ _____ _____    ______ ____

>  <TORSDO>
F 2

$$$$
=
 OpenBabel10262420553D

 28 32  0  0  1  0  0  0  0  0999 V2000
  188.9700  176.8090  137.8490 C   0  0  1  0  0  3  0  0  0  0  0  0
  187.5200  177.4620  142.8850 C   0  0  0  0  0  3  0  0  0  0  0  0
  193.0950  177.5580  140.3560 C   0  0  0  0  0  2  0  0  0  0  0  0
  189.6440  177.5290  144.0660 C   0  0  0  0  0  0  0  0  0  0  0  0
  189.6340  177.3850  141.6400 C   0  0  0  0  0  0  0  0  0  0  0  0
  187.5630  177.6000  145.3030 C   0  0  0  0  0  0  0  0  0  0  0  0
  188.9240  177.4570  142.8520 C   0  0  0  0  0  0  0  0  0  0  0  0
  191.7030  177.4800  142.8930 C   0  0  0  0  0  3  0  0  0  0  0  0
  188.9590  177.5990  145.2830 C   0  0  0  0  0  3  0  0  0  0  0  0
  191.0900  176.8970  139.1870 N   0  0  0  0  0  0  0  0  0  0  0  0
  188.9110  177.4210  140.3240 C   0  0  0  0  0  2  0  0  0  0  0  0
  191.0020  177.5410  144.0540 N   0  0  0  0  0  0  0  0  0  0  0  0
  191.0580  175.5520  137.1060 C   0  0  0  0  0  2  0  0  0  0  0  0
  191.0380  177.4040  141.6590 C   0  0  0  0  0  0  0  0  0  0  0  0
  191.8720  176.4590  138.0210 C   0  0  0  0  0  2  0  0  0  0  0  0
  186.8700  177.6710  146.5430 N   0  0  0  0  0  1  0  0  0  0  0  0
  186.8440  177.5320  144.1060 C   0  0  0  0  0  3  0  0  0  0  0  0
  191.7860  177.2990  140.3870 C   0  0  0  0  0  0  0  0  0  0  0  0
  189.7870  176.2670  136.6690 C   0  0  0  0  0  2  0  0  0  0  0  0
  189.6390  176.6280  139.2330 C   0  0  1  0  0  3  0  0  0  0  0  0
  188.3420  178.4970  137.4780 S   0  0  0  0  0  0  0  0  0  0  0  0
  186.6150  178.0530  137.2870 C   0  0  0  0  0  0  0  0  0  0  0  0
  183.9240  177.3370  137.0080 C   0  0  0  0  0  0  0  0  0  0  0  0
  186.1710  177.4400  136.1100 C   0  0  0  0  0  3  0  0  0  0  0  0
  185.7150  178.2850  138.3340 C   0  0  0  0  0  3  0  0  0  0  0  0
  184.3700  177.9310  138.1920 C   0  0  0  0  0  3  0  0  0  0  0  0
  182.6210  176.9970  136.8700 F   0  0  0  0  0  0  0  0  0  0  0  0
  184.8260  177.0860  135.9690 C   0  0  0  0  0  3  0  0  0  0  0  0
  1 21  1  6  0  0  0
  1 20  1  0  0  0  0
  2 17  1  0  0  0  0
  3 18  2  0  0  0  0
  4  9  2  0  0  0  0
  5 14  2  0  0  0  0
  5  7  1  0  0  0  0
  6 16  1  0  0  0  0
  7  2  2  0  0  0  0
  7  4  1  0  0  0  0
  8 12  2  0  0  0  0
  9  6  1  0  0  0  0
 10 20  1  0  0  0  0
 10 18  1  0  0  0  0
 11  5  1  0  0  0  0
 12  4  1  0  0  0  0
 13 15  1  0  0  0  0
 14  8  1  0  0  0  0
 15 10  1  0  0  0  0
 17  6  2  0  0  0  0
 18 14  1  0  0  0  0
 19 13  1  0  0  0  0
 19  1  1  0  0  0  0
 20 11  1  1  0  0  0
 22 21  1  0  0  0  0
 22 25  1  0  0  0  0
 23 26  1  0  0  0  0
 24 22  2  0  0  0  0
 26 25  2  0  0  0  0
 27 23  1  0  0  0  0
 28 24  1  0  0  0  0
 28 23  2  0  0  0  0
M  END
>  <MODEL>
6

>  <REMARK>
 VINA RESULT:      -8.6      3.589      6.601
  Name = 
  2 active torsions:
  status: ('A' for Active; 'I' for Inactive)
    1  A    between atoms: C_1  and  S_2
    2  A    between atoms: S_2  and  C_3
                            x       y       z     vdW  Elec       q    Type
                         _______ _______ _______ _____ _____    ______ ____

>  <TORSDO>
F 2

$$$$
