=
 OpenBabel10262421433D

 30 34  0  0  1  0  0  0  0  0999 V2000
  185.4950  178.5190  139.7730 C   0  0  0  0  0  0  0  0  0  0  0  0
  187.5510  177.5790  138.6810 C   0  0  0  0  0  0  0  0  0  0  0  0
  184.2610  178.0730  139.5330 C   0  0  0  0  0  0  0  0  0  0  0  0
  185.9200  179.1750  141.0610 C   0  0  0  0  0  3  0  0  0  0  0  0
  182.3070  179.0560  143.0630 S   0  0  0  0  0  0  0  0  0  0  0  0
  181.0630  179.2880  139.4160 C   0  0  0  0  0  3  0  0  0  0  0  0
  183.4610  178.7470  141.7340 C   0  0  0  0  0  0  0  0  0  0  0  0
  184.9690  179.5090  143.3290 C   0  0  0  0  0  2  0  0  0  0  0  0
  182.0280  177.2850  137.2320 N   0  0  0  0  0  2  0  0  0  0  0  0
  184.8230  179.1100  142.0830 C   0  0  0  0  0  0  0  0  0  0  0  0
  183.1440  178.2820  140.5120 C   0  0  0  0  0  0  0  0  0  0  0  0
  187.8760  176.6540  137.7500 C   0  0  0  0  0  3  0  0  0  0  0  0
  180.8670  176.9430  137.6500 C   0  0  0  0  0  2  0  0  0  0  0  0
  180.2010  179.1970  138.3820 C   0  0  0  0  0  3  0  0  0  0  0  0
  183.8660  178.3580  145.2060 C   0  0  0  0  0  1  0  0  0  0  0  0
  188.4330  177.8290  139.6840 F   0  0  0  0  0  0  0  0  0  0  0  0
  185.0440  177.0360  135.3110 F   0  0  0  0  0  0  0  0  0  0  0  0
  186.9780  176.2890  136.5810 C   0  0  0  0  0  2  0  0  0  0  0  0
  183.7240  179.4460  144.1610 C   0  0  2  0  0  3  0  0  0  0  0  0
  186.3290  178.4680  138.5370 C   0  0  1  0  0  3  0  0  0  0  0  0
  184.2330  177.4990  138.1780 C   0  0  0  0  0  0  0  0  0  0  0  0
  183.1640  176.5430  137.6960 C   0  0  2  0  0  3  0  0  0  0  0  0
  179.7630  177.9400  137.6600 C   0  0  0  0  0  2  0  0  0  0  0  0
  181.0690  177.1480  140.4670 O   0  0  0  0  0  0  0  0  0  0  0  0
  185.9670  177.3940  136.2730 C   0  0  2  0  0  3  0  0  0  0  0  0
  185.3720  177.8610  137.5640 C   0  0  0  0  0  0  0  0  0  0  0  0
  181.7260  178.1660  140.1240 C   0  0  0  0  0  0  0  0  0  0  0  0
  182.4540  174.8880  135.9110 C   0  0  0  0  0  1  0  0  0  0  0  0
  183.5840  175.3620  136.8090 C   0  0  0  0  0  3  0  0  0  0  0  0
  184.0150  174.1970  137.6800 C   0  0  0  0  0  1  0  0  0  0  0  0
  1  4  1  0  0  0  0
  2 16  1  0  0  0  0
  3  1  2  0  0  0  0
  3 11  1  0  0  0  0
  4 10  2  0  0  0  0
  5 19  1  0  0  0  0
  6 27  1  0  0  0  0
  7 10  1  0  0  0  0
  7  5  1  0  0  0  0
  8 19  1  0  0  0  0
  9 13  1  0  0  0  0
  9 22  1  0  0  0  0
 10  8  1  0  0  0  0
 11  7  2  0  0  0  0
 12  2  2  0  0  0  0
 13 23  1  0  0  0  0
 14  6  2  0  0  0  0
 18 12  1  0  0  0  0
 19 15  1  1  0  0  0
 20 26  1  6  0  0  0
 20  2  1  0  0  0  0
 20  1  1  0  0  0  0
 21  3  1  0  0  0  0
 22 29  1  6  0  0  0
 22 21  1  0  0  0  0
 23 14  1  0  0  0  0
 25 17  1  6  0  0  0
 25 18  1  0  0  0  0
 25 26  1  0  0  0  0
 26 21  2  0  0  0  0
 27 24  2  0  0  0  0
 27 11  1  0  0  0  0
 28 29  1  0  0  0  0
 29 30  1  0  0  0  0
M  END
>  <MODEL>
1

>  <REMARK>
 VINA RESULT:      -6.4      0.000      0.000
  Name = 
  1 active torsions:
  status: ('A' for Active; 'I' for Inactive)
    1  A    between atoms: C_11  and  C_25
                            x       y       z     vdW  Elec       q    Type
                         _______ _______ _______ _____ _____    ______ ____

>  <TORSDO>
F 1

$$$$
=
 OpenBabel10262421433D

 30 34  0  0  1  0  0  0  0  0999 V2000
  186.8010  178.4860  140.7740 C   0  0  0  0  0  0  0  0  0  0  0  0
  184.3200  178.7170  141.0820 C   0  0  0  0  0  0  0  0  0  0  0  0
  187.6310  178.0800  141.7360 C   0  0  0  0  0  0  0  0  0  0  0  0
  187.0650  178.3060  139.3010 C   0  0  0  0  0  3  0  0  0  0  0  0
  190.7500  176.4530  139.5310 S   0  0  0  0  0  0  0  0  0  0  0  0
  190.8630  178.6010  142.7350 C   0  0  0  0  0  3  0  0  0  0  0  0
  189.2360  177.1800  140.1390 C   0  0  0  0  0  0  0  0  0  0  0  0
  188.6870  177.0750  137.8830 C   0  0  0  0  0  2  0  0  0  0  0  0
  188.5960  178.4690  144.8700 N   0  0  0  0  0  2  0  0  0  0  0  0
  188.2930  177.4750  139.0740 C   0  0  0  0  0  0  0  0  0  0  0  0
  188.9720  177.4870  141.4210 C   0  0  0  0  0  0  0  0  0  0  0  0
  183.4010  178.5900  142.0650 C   0  0  0  0  0  3  0  0  0  0  0  0
  189.5960  177.7670  145.2550 C   0  0  0  0  0  2  0  0  0  0  0  0
  191.2770  179.0060  143.9540 C   0  0  0  0  0  3  0  0  0  0  0  0
  189.7410  174.8780  137.5280 C   0  0  0  0  0  1  0  0  0  0  0  0
  183.9430  178.4590  139.8020 F   0  0  0  0  0  0  0  0  0  0  0  0
  185.3090  179.8900  145.0300 F   0  0  0  0  0  0  0  0  0  0  0  0
  183.7000  178.8540  143.5310 C   0  0  0  0  0  2  0  0  0  0  0  0
  189.9900  176.3340  137.8650 C   0  0  2  0  0  3  0  0  0  0  0  0
  185.6940  179.3100  141.3390 C   0  0  1  0  0  3  0  0  0  0  0  0
  187.0340  178.4270  143.0360 C   0  0  0  0  0  0  0  0  0  0  0  0
  187.4490  177.7880  144.3440 C   0  0  2  0  0  3  0  0  0  0  0  0
  190.9530  178.3730  145.2910 C   0  0  0  0  0  2  0  0  0  0  0  0
  190.3210  176.2900  142.9510 O   0  0  0  0  0  0  0  0  0  0  0  0
  184.9260  179.7480  143.7110 C   0  0  2  0  0  3  0  0  0  0  0  0
  186.0050  179.2570  142.7980 C   0  0  0  0  0  0  0  0  0  0  0  0
  190.0500  177.4010  142.4250 C   0  0  0  0  0  0  0  0  0  0  0  0
  186.5110  178.2450  146.6550 C   0  0  0  0  0  1  0  0  0  0  0  0
  186.3590  177.4480  145.3710 C   0  0  0  0  0  3  0  0  0  0  0  0
  186.4280  175.9730  145.7200 C   0  0  0  0  0  1  0  0  0  0  0  0
  1  3  1  0  0  0  0
  2 20  1  0  0  0  0
  2 12  2  0  0  0  0
  3 21  1  0  0  0  0
  4  1  2  0  0  0  0
  5  7  1  0  0  0  0
  6 14  2  0  0  0  0
  7 11  1  0  0  0  0
  8 10  1  0  0  0  0
  9 13  1  0  0  0  0
 10  4  1  0  0  0  0
 10  7  2  0  0  0  0
 11  3  2  0  0  0  0
 11 27  1  0  0  0  0
 12 18  1  0  0  0  0
 13 23  1  0  0  0  0
 14 23  1  0  0  0  0
 16  2  1  0  0  0  0
 18 25  1  0  0  0  0
 19 15  1  1  0  0  0
 19  8  1  0  0  0  0
 19  5  1  0  0  0  0
 20  1  1  6  0  0  0
 20 26  1  0  0  0  0
 21 22  1  0  0  0  0
 22  9  1  0  0  0  0
 22 29  1  1  0  0  0
 25 17  1  1  0  0  0
 26 21  2  0  0  0  0
 26 25  1  0  0  0  0
 27  6  1  0  0  0  0
 27 24  2  0  0  0  0
 29 30  1  0  0  0  0
 29 28  1  0  0  0  0
M  END
>  <MODEL>
2

>  <REMARK>
 VINA RESULT:      -6.1      4.467      8.274
  Name = 
  1 active torsions:
  status: ('A' for Active; 'I' for Inactive)
    1  A    between atoms: C_11  and  C_25
                            x       y       z     vdW  Elec       q    Type
                         _______ _______ _______ _____ _____    ______ ____

>  <TORSDO>
F 1

$$$$
=
 OpenBabel10262421433D

 30 34  0  0  1  0  0  0  0  0999 V2000
  188.2030  178.3010  140.1280 C   0  0  0  0  0  0  0  0  0  0  0  0
  190.1640  177.4390  138.8190 C   0  0  0  0  0  0  0  0  0  0  0  0
  186.9320  178.0790  139.7880 C   0  0  0  0  0  0  0  0  0  0  0  0
  188.6670  178.5480  141.5400 C   0  0  0  0  0  3  0  0  0  0  0  0
  185.0160  178.3420  143.4620 S   0  0  0  0  0  0  0  0  0  0  0  0
  183.8980  179.6490  140.0070 C   0  0  0  0  0  3  0  0  0  0  0  0
  186.1590  178.2530  142.0920 C   0  0  0  0  0  0  0  0  0  0  0  0
  187.7040  178.3970  143.8230 C   0  0  0  0  0  2  0  0  0  0  0  0
  184.6820  178.1770  137.3740 N   0  0  0  0  0  2  0  0  0  0  0  0
  187.5450  178.3520  142.5160 C   0  0  0  0  0  0  0  0  0  0  0  0
  185.8220  178.1580  140.7940 C   0  0  0  0  0  0  0  0  0  0  0  0
  190.4040  176.7540  137.6790 C   0  0  0  0  0  3  0  0  0  0  0  0
  183.4790  177.8780  137.6950 C   0  0  0  0  0  2  0  0  0  0  0  0
  183.0580  179.9280  138.9890 C   0  0  0  0  0  3  0  0  0  0  0  0
  186.4310  176.9380  145.3440 C   0  0  0  0  0  1  0  0  0  0  0  0
  191.0430  177.3180  139.8480 F   0  0  0  0  0  0  0  0  0  0  0  0
  187.6970  178.0790  135.4370 F   0  0  0  0  0  0  0  0  0  0  0  0
  189.5000  176.8100  136.4600 C   0  0  0  0  0  2  0  0  0  0  0  0
  186.4400  178.2680  144.6170 C   0  0  2  0  0  3  0  0  0  0  0  0
  189.0550  178.4720  138.9170 C   0  0  1  0  0  3  0  0  0  0  0  0
  186.8730  177.8810  138.3300 C   0  0  0  0  0  0  0  0  0  0  0  0
  185.7130  177.2130  137.6230 C   0  0  2  0  0  3  0  0  0  0  0  0
  182.4970  178.9600  137.9690 C   0  0  0  0  0  2  0  0  0  0  0  0
  183.6330  177.3250  140.4680 O   0  0  0  0  0  0  0  0  0  0  0  0
  188.6310  178.0670  136.4540 C   0  0  2  0  0  3  0  0  0  0  0  0
  188.0610  178.2530  137.8250 C   0  0  0  0  0  0  0  0  0  0  0  0
  184.4100  178.3130  140.3960 C   0  0  0  0  0  0  0  0  0  0  0  0
  184.8920  176.2210  135.4400 C   0  0  0  0  0  1  0  0  0  0  0  0
  186.0170  176.2590  136.4590 C   0  0  0  0  0  3  0  0  0  0  0  0
  186.2210  174.8520  136.9910 C   0  0  0  0  0  1  0  0  0  0  0  0
  1  4  1  0  0  0  0
  2 20  1  0  0  0  0
  2 16  1  0  0  0  0
  3  1  2  0  0  0  0
  3 11  1  0  0  0  0
  4 10  2  0  0  0  0
  5 19  1  0  0  0  0
  6 27  1  0  0  0  0
  7 10  1  0  0  0  0
  7  5  1  0  0  0  0
  8 19  1  0  0  0  0
  9 22  1  0  0  0  0
  9 13  1  0  0  0  0
 10  8  1  0  0  0  0
 11  7  2  0  0  0  0
 12  2  2  0  0  0  0
 13 23  1  0  0  0  0
 14  6  2  0  0  0  0
 18 12  1  0  0  0  0
 19 15  1  6  0  0  0
 20 26  1  6  0  0  0
 20  1  1  0  0  0  0
 21  3  1  0  0  0  0
 22 29  1  6  0  0  0
 22 21  1  0  0  0  0
 23 14  1  0  0  0  0
 25 17  1  6  0  0  0
 25 18  1  0  0  0  0
 25 26  1  0  0  0  0
 26 21  2  0  0  0  0
 27 24  2  0  0  0  0
 27 11  1  0  0  0  0
 28 29  1  0  0  0  0
 29 30  1  0  0  0  0
M  END
>  <MODEL>
3

>  <REMARK>
 VINA RESULT:      -6.0      2.083      2.760
  Name = 
  1 active torsions:
  status: ('A' for Active; 'I' for Inactive)
    1  A    between atoms: C_11  and  C_25
                            x       y       z     vdW  Elec       q    Type
                         _______ _______ _______ _____ _____    ______ ____

>  <TORSDO>
F 1

$$$$
=
 OpenBabel10262421433D

 30 34  0  0  1  0  0  0  0  0999 V2000
  184.7440  178.8000  140.8730 C   0  0  0  0  0  0  0  0  0  0  0  0
  185.4690  178.0310  138.5960 C   0  0  0  0  0  0  0  0  0  0  0  0
  183.5300  178.5760  141.3770 C   0  0  0  0  0  0  0  0  0  0  0  0
  185.9830  178.9880  141.7090 C   0  0  0  0  0  3  0  0  0  0  0  0
  184.2860  178.6370  145.4590 S   0  0  0  0  0  0  0  0  0  0  0  0
  181.3010  180.0890  143.4890 C   0  0  0  0  0  3  0  0  0  0  0  0
  184.3420  178.6300  143.6740 C   0  0  0  0  0  0  0  0  0  0  0  0
  186.6270  178.7150  144.0910 C   0  0  0  0  0  2  0  0  0  0  0  0
  180.2720  178.7550  140.8670 N   0  0  0  0  0  2  0  0  0  0  0  0
  185.6960  178.7290  143.1590 C   0  0  0  0  0  0  0  0  0  0  0  0
  183.2760  178.5910  142.8550 C   0  0  0  0  0  0  0  0  0  0  0  0
  184.9450  177.4030  137.5190 C   0  0  0  0  0  3  0  0  0  0  0  0
  179.5170  178.4230  141.8470 C   0  0  0  0  0  2  0  0  0  0  0  0
  180.0170  180.4040  143.2190 C   0  0  0  0  0  3  0  0  0  0  0  0
  186.5340  177.1670  146.0040 C   0  0  0  0  0  1  0  0  0  0  0  0
  186.7930  177.8740  138.8590 F   0  0  0  0  0  0  0  0  0  0  0  0
  181.4540  178.7930  137.4830 F   0  0  0  0  0  0  0  0  0  0  0  0
  183.4830  177.5040  137.1200 C   0  0  0  0  0  2  0  0  0  0  0  0
  186.1170  178.5290  145.4880 C   0  0  2  0  0  3  0  0  0  0  0  0
  184.6740  179.0420  139.4030 C   0  0  1  0  0  3  0  0  0  0  0  0
  182.5830  178.4470  140.2580 C   0  0  0  0  0  0  0  0  0  0  0  0
  181.2220  177.7950  140.3840 C   0  0  2  0  0  3  0  0  0  0  0  0
  178.9310  179.4770  142.7170 C   0  0  0  0  0  2  0  0  0  0  0  0
  181.3350  177.7420  143.9080 O   0  0  0  0  0  0  0  0  0  0  0  0
  182.8160  178.7470  137.7080 C   0  0  2  0  0  3  0  0  0  0  0  0
  183.2140  178.8590  139.1460 C   0  0  0  0  0  0  0  0  0  0  0  0
  181.9210  178.7440  143.4190 C   0  0  0  0  0  0  0  0  0  0  0  0
  179.2130  176.8510  139.1600 C   0  0  0  0  0  1  0  0  0  0  0  0
  180.7280  176.9020  139.2370 C   0  0  0  0  0  3  0  0  0  0  0  0
  181.2400  175.4870  139.4350 C   0  0  0  0  0  1  0  0  0  0  0  0
  1  3  2  0  0  0  0
  1  4  1  0  0  0  0
  2 16  1  0  0  0  0
  3 11  1  0  0  0  0
  4 10  2  0  0  0  0
  5 19  1  0  0  0  0
  7  5  1  0  0  0  0
  8 19  1  0  0  0  0
  9 13  1  0  0  0  0
 10  7  1  0  0  0  0
 10  8  1  0  0  0  0
 11 27  1  0  0  0  0
 11  7  2  0  0  0  0
 12  2  2  0  0  0  0
 13 23  1  0  0  0  0
 14  6  2  0  0  0  0
 18 12  1  0  0  0  0
 18 25  1  0  0  0  0
 19 15  1  6  0  0  0
 20  2  1  6  0  0  0
 20  1  1  0  0  0  0
 21 22  1  0  0  0  0
 21  3  1  0  0  0  0
 22 29  1  6  0  0  0
 22  9  1  0  0  0  0
 23 14  1  0  0  0  0
 25 17  1  1  0  0  0
 25 26  1  0  0  0  0
 26 20  1  0  0  0  0
 26 21  2  0  0  0  0
 27  6  1  0  0  0  0
 27 24  2  0  0  0  0
 28 29  1  0  0  0  0
 29 30  1  0  0  0  0
M  END
>  <MODEL>
4

>  <REMARK>
 VINA RESULT:      -5.9      2.316      3.348
  Name = 
  1 active torsions:
  status: ('A' for Active; 'I' for Inactive)
    1  A    between atoms: C_11  and  C_25
                            x       y       z     vdW  Elec       q    Type
                         _______ _______ _______ _____ _____    ______ ____

>  <TORSDO>
F 1

$$$$
=
 OpenBabel10262421433D

 30 34  0  0  1  0  0  0  0  0999 V2000
  188.1650  177.2990  142.0620 C   0  0  0  0  0  0  0  0  0  0  0  0
  189.4200  177.3230  144.2360 C   0  0  0  0  0  0  0  0  0  0  0  0
  186.9760  177.8770  141.8880 C   0  0  0  0  0  0  0  0  0  0  0  0
  189.1670  177.0800  140.9580 C   0  0  0  0  0  3  0  0  0  0  0  0
  187.0130  178.6760  137.8140 S   0  0  0  0  0  0  0  0  0  0  0  0
  184.1300  177.4070  140.0450 C   0  0  0  0  0  3  0  0  0  0  0  0
  187.3620  178.2320  139.5090 C   0  0  0  0  0  0  0  0  0  0  0  0
  189.4570  177.7990  138.6000 C   0  0  0  0  0  2  0  0  0  0  0  0
  183.9020  178.2300  143.0420 N   0  0  0  0  0  2  0  0  0  0  0  0
  188.7170  177.7410  139.6880 C   0  0  0  0  0  0  0  0  0  0  0  0
  186.4870  178.2780  140.5280 C   0  0  0  0  0  0  0  0  0  0  0  0
  189.2480  177.7570  145.5050 C   0  0  0  0  0  3  0  0  0  0  0  0
  183.1010  178.9370  142.3370 C   0  0  0  0  0  2  0  0  0  0  0  0
  182.8710  177.2980  140.5160 C   0  0  0  0  0  3  0  0  0  0  0  0
  189.4300  179.7570  137.1070 C   0  0  0  0  0  1  0  0  0  0  0  0
  190.6800  177.2720  143.7320 F   0  0  0  0  0  0  0  0  0  0  0  0
  185.5790  177.1240  146.0110 F   0  0  0  0  0  0  0  0  0  0  0  0
  187.8920  177.8530  146.1820 C   0  0  0  0  0  2  0  0  0  0  0  0
  188.7850  178.4210  137.4130 C   0  0  2  0  0  3  0  0  0  0  0  0
  188.2800  176.7210  143.4320 C   0  0  1  0  0  3  0  0  0  0  0  0
  186.2860  177.9130  143.1880 C   0  0  0  0  0  0  0  0  0  0  0  0
  185.1230  178.8330  143.4940 C   0  0  2  0  0  3  0  0  0  0  0  0
  182.1400  178.2700  141.4190 C   0  0  0  0  0  2  0  0  0  0  0  0
  184.6660  179.7300  140.1140 O   0  0  0  0  0  0  0  0  0  0  0  0
  186.8550  176.9520  145.5120 C   0  0  2  0  0  3  0  0  0  0  0  0
  186.9720  177.1220  144.0300 C   0  0  0  0  0  0  0  0  0  0  0  0
  185.0620  178.5420  140.2510 C   0  0  0  0  0  0  0  0  0  0  0  0
  183.8740  179.0040  145.6930 C   0  0  0  0  0  1  0  0  0  0  0  0
  185.0570  179.4950  144.8770 C   0  0  0  0  0  3  0  0  0  0  0  0
  184.9300  180.9990  144.7180 C   0  0  0  0  0  1  0  0  0  0  0  0
  2 12  2  0  0  0  0
  3  1  1  0  0  0  0
  3 21  1  0  0  0  0
  4  1  2  0  0  0  0
  5  7  1  0  0  0  0
  6 27  1  0  0  0  0
  6 14  2  0  0  0  0
  7 10  2  0  0  0  0
  7 11  1  0  0  0  0
  8 10  1  0  0  0  0
  9 22  1  0  0  0  0
 10  4  1  0  0  0  0
 11  3  2  0  0  0  0
 12 18  1  0  0  0  0
 13  9  1  0  0  0  0
 14 23  1  0  0  0  0
 16  2  1  0  0  0  0
 19 15  1  1  0  0  0
 19  5  1  0  0  0  0
 19  8  1  0  0  0  0
 20  1  1  6  0  0  0
 20 26  1  0  0  0  0
 20  2  1  0  0  0  0
 21 22  1  0  0  0  0
 21 26  2  0  0  0  0
 22 29  1  1  0  0  0
 23 13  1  0  0  0  0
 24 27  2  0  0  0  0
 25 17  1  1  0  0  0
 25 18  1  0  0  0  0
 26 25  1  0  0  0  0
 27 11  1  0  0  0  0
 29 28  1  0  0  0  0
 30 29  1  0  0  0  0
M  END
>  <MODEL>
5

>  <REMARK>
 VINA RESULT:      -5.9      3.634      6.758
  Name = 
  1 active torsions:
  status: ('A' for Active; 'I' for Inactive)
    1  A    between atoms: C_11  and  C_25
                            x       y       z     vdW  Elec       q    Type
                         _______ _______ _______ _____ _____    ______ ____

>  <TORSDO>
F 1

$$$$
=
 OpenBabel10262421433D

 30 34  0  0  1  0  0  0  0  0999 V2000
  184.6320  177.7150  138.2150 C   0  0  0  0  0  0  0  0  0  0  0  0
  183.0730  179.6170  138.7190 C   0  0  0  0  0  0  0  0  0  0  0  0
  184.2690  176.6180  137.5470 C   0  0  0  0  0  0  0  0  0  0  0  0
  186.0390  178.2530  138.2530 C   0  0  0  0  0  3  0  0  0  0  0  0
  187.8840  175.3900  135.9140 S   0  0  0  0  0  0  0  0  0  0  0  0
  185.0410  173.2850  137.4580 C   0  0  0  0  0  3  0  0  0  0  0  0
  186.5290  176.2270  136.7230 C   0  0  0  0  0  0  0  0  0  0  0  0
  188.1800  177.8250  137.0720 C   0  0  0  0  0  2  0  0  0  0  0  0
  182.0610  174.1790  137.2710 N   0  0  0  0  0  2  0  0  0  0  0  0
  186.9290  177.4910  137.3160 C   0  0  0  0  0  0  0  0  0  0  0  0
  185.2750  175.7570  136.8420 C   0  0  0  0  0  0  0  0  0  0  0  0
  181.7700  179.9360  138.5520 C   0  0  0  0  0  3  0  0  0  0  0  0
  182.3010  173.2830  136.3880 C   0  0  0  0  0  2  0  0  0  0  0  0
  184.1830  172.2530  137.5930 C   0  0  0  0  0  3  0  0  0  0  0  0
  189.1950  177.5470  134.8460 C   0  0  0  0  0  1  0  0  0  0  0  0
  183.9910  180.6190  138.7330 F   0  0  0  0  0  0  0  0  0  0  0  0
  180.1220  176.6000  139.0690 F   0  0  0  0  0  0  0  0  0  0  0  0
  180.6520  178.9080  138.5230 C   0  0  0  0  0  2  0  0  0  0  0  0
  188.9230  176.8790  136.1790 C   0  0  2  0  0  3  0  0  0  0  0  0
  183.5160  178.2080  139.0730 C   0  0  1  0  0  3  0  0  0  0  0  0
  182.8250  176.4140  137.7460 C   0  0  0  0  0  0  0  0  0  0  0  0
  181.9710  175.5460  136.8470 C   0  0  2  0  0  3  0  0  0  0  0  0
  182.9240  171.9950  136.7930 C   0  0  0  0  0  2  0  0  0  0  0  0
  184.7550  174.1000  135.2360 O   0  0  0  0  0  0  0  0  0  0  0  0
  181.0620  177.6020  139.2030 C   0  0  2  0  0  3  0  0  0  0  0  0
  182.4350  177.2370  138.7340 C   0  0  0  0  0  0  0  0  0  0  0  0
  184.9790  174.3670  136.4470 C   0  0  0  0  0  0  0  0  0  0  0  0
  179.5980  174.8780  136.2550 C   0  0  0  0  0  1  0  0  0  0  0  0
  180.5590  176.0310  136.4870 C   0  0  0  0  0  3  0  0  0  0  0  0
  180.6130  176.8640  135.2200 C   0  0  0  0  0  1  0  0  0  0  0  0
  1  4  1  0  0  0  0
  2 16  1  0  0  0  0
  2 20  1  0  0  0  0
  3 21  1  0  0  0  0
  3  1  2  0  0  0  0
  5 19  1  0  0  0  0
  5  7  1  0  0  0  0
  6 14  2  0  0  0  0
  7 11  2  0  0  0  0
  7 10  1  0  0  0  0
  8 10  1  0  0  0  0
 10  4  2  0  0  0  0
 11  3  1  0  0  0  0
 12  2  2  0  0  0  0
 13 23  1  0  0  0  0
 13  9  1  0  0  0  0
 18 12  1  0  0  0  0
 18 25  1  0  0  0  0
 19 15  1  6  0  0  0
 19  8  1  0  0  0  0
 20  1  1  6  0  0  0
 21 26  2  0  0  0  0
 22 29  1  1  0  0  0
 22  9  1  0  0  0  0
 22 21  1  0  0  0  0
 23 14  1  0  0  0  0
 24 27  2  0  0  0  0
 25 17  1  6  0  0  0
 26 20  1  0  0  0  0
 26 25  1  0  0  0  0
 27 11  1  0  0  0  0
 27  6  1  0  0  0  0
 28 29  1  0  0  0  0
 30 29  1  0  0  0  0
M  END
>  <MODEL>
6

>  <REMARK>
 VINA RESULT:      -5.4      3.424      5.967
  Name = 
  1 active torsions:
  status: ('A' for Active; 'I' for Inactive)
    1  A    between atoms: C_11  and  C_25
                            x       y       z     vdW  Elec       q    Type
                         _______ _______ _______ _____ _____    ______ ____

>  <TORSDO>
F 1

$$$$
=
 OpenBabel10262421433D

 30 34  0  0  1  0  0  0  0  0999 V2000
  183.2620  177.3420  137.8340 C   0  0  0  0  0  0  0  0  0  0  0  0
  185.7070  177.4210  137.2700 C   0  0  0  0  0  0  0  0  0  0  0  0
  182.5460  176.2170  137.8670 C   0  0  0  0  0  0  0  0  0  0  0  0
  182.9380  178.5720  138.6430 C   0  0  0  0  0  3  0  0  0  0  0  0
  179.5360  177.2100  140.5500 S   0  0  0  0  0  0  0  0  0  0  0  0
  179.3360  175.1900  137.2670 C   0  0  0  0  0  3  0  0  0  0  0  0
  180.9790  177.1200  139.5000 C   0  0  0  0  0  0  0  0  0  0  0  0
  181.4060  179.1740  140.5010 C   0  0  0  0  0  2  0  0  0  0  0  0
  181.7200  173.4440  136.2770 N   0  0  0  0  0  2  0  0  0  0  0  0
  181.8140  178.3040  139.5990 C   0  0  0  0  0  0  0  0  0  0  0  0
  181.2750  176.1160  138.6560 C   0  0  0  0  0  0  0  0  0  0  0  0
  186.6890  176.5760  136.8850 C   0  0  0  0  0  3  0  0  0  0  0  0
  180.8420  172.6990  136.8370 C   0  0  0  0  0  2  0  0  0  0  0  0
  178.9450  174.2120  136.4230 C   0  0  0  0  0  3  0  0  0  0  0  0
  180.6200  178.4740  142.7270 C   0  0  0  0  0  1  0  0  0  0  0  0
  186.0400  178.5110  138.0100 F   0  0  0  0  0  0  0  0  0  0  0  0
  184.8060  174.2330  134.6310 F   0  0  0  0  0  0  0  0  0  0  0  0
  186.4440  175.3290  136.0540 C   0  0  0  0  0  2  0  0  0  0  0  0
  180.2090  178.7450  141.2940 C   0  0  2  0  0  3  0  0  0  0  0  0
  184.2860  177.2900  136.7510 C   0  0  1  0  0  3  0  0  0  0  0  0
  183.1680  175.2480  136.9500 C   0  0  0  0  0  0  0  0  0  0  0  0
  182.9130  173.7580  137.0090 C   0  0  2  0  0  3  0  0  0  0  0  0
  179.4230  172.7760  136.3990 C   0  0  0  0  0  2  0  0  0  0  0  0
  180.1780  174.0940  139.2100 O   0  0  0  0  0  0  0  0  0  0  0  0
  185.1270  175.4080  135.2820 C   0  0  2  0  0  3  0  0  0  0  0  0
  184.0680  175.9160  136.2090 C   0  0  0  0  0  0  0  0  0  0  0  0
  180.2760  175.0590  138.4060 C   0  0  0  0  0  0  0  0  0  0  0  0
  183.6450  171.3610  136.6220 C   0  0  0  0  0  1  0  0  0  0  0  0
  184.0940  172.8030  136.7820 C   0  0  0  0  0  3  0  0  0  0  0  0
  185.0430  172.8740  137.9640 C   0  0  0  0  0  1  0  0  0  0  0  0
  1  3  2  0  0  0  0
  1  4  1  0  0  0  0
  2 16  1  0  0  0  0
  3 11  1  0  0  0  0
  4 10  2  0  0  0  0
  5 19  1  0  0  0  0
  6 27  1  0  0  0  0
  7 10  1  0  0  0  0
  7  5  1  0  0  0  0
  8 19  1  0  0  0  0
  9 13  1  0  0  0  0
  9 22  1  0  0  0  0
 10  8  1  0  0  0  0
 11  7  2  0  0  0  0
 12  2  2  0  0  0  0
 14  6  2  0  0  0  0
 18 12  1  0  0  0  0
 19 15  1  1  0  0  0
 20 26  1  1  0  0  0
 20  2  1  0  0  0  0
 20  1  1  0  0  0  0
 21 22  1  0  0  0  0
 21  3  1  0  0  0  0
 22 29  1  6  0  0  0
 23 14  1  0  0  0  0
 23 13  1  0  0  0  0
 25 17  1  1  0  0  0
 25 18  1  0  0  0  0
 25 26  1  0  0  0  0
 26 21  2  0  0  0  0
 27 11  1  0  0  0  0
 27 24  2  0  0  0  0
 28 29  1  0  0  0  0
 29 30  1  0  0  0  0
M  END
>  <MODEL>
7

>  <REMARK>
 VINA RESULT:      -5.4      2.525      3.576
  Name = 
  1 active torsions:
  status: ('A' for Active; 'I' for Inactive)
    1  A    between atoms: C_11  and  C_25
                            x       y       z     vdW  Elec       q    Type
                         _______ _______ _______ _____ _____    ______ ____

>  <TORSDO>
F 1

$$$$
=
 OpenBabel10262421433D

 30 34  0  0  1  0  0  0  0  0999 V2000
  184.6300  178.8070  141.1570 C   0  0  0  0  0  0  0  0  0  0  0  0
  187.0480  178.1970  141.4390 C   0  0  0  0  0  0  0  0  0  0  0  0
  183.8710  178.3760  140.1480 C   0  0  0  0  0  0  0  0  0  0  0  0
  184.0930  179.1910  142.5110 C   0  0  0  0  0  3  0  0  0  0  0  0
  180.0750  178.5170  141.8240 S   0  0  0  0  0  0  0  0  0  0  0  0
  181.2290  179.4680  138.2660 C   0  0  0  0  0  3  0  0  0  0  0  0
  181.8240  178.5390  141.4580 C   0  0  0  0  0  0  0  0  0  0  0  0
  181.9400  179.0030  143.7330 C   0  0  0  0  0  2  0  0  0  0  0  0
  183.6080  178.0100  136.8770 N   0  0  0  0  0  2  0  0  0  0  0  0
  182.6310  178.8710  142.6190 C   0  0  0  0  0  0  0  0  0  0  0  0
  182.3760  178.3310  140.2500 C   0  0  0  0  0  0  0  0  0  0  0  0
  188.0060  177.5030  140.7840 C   0  0  0  0  0  3  0  0  0  0  0  0
  182.4990  177.5450  136.4370 C   0  0  0  0  0  2  0  0  0  0  0  0
  181.1800  179.5650  136.9210 C   0  0  0  0  0  3  0  0  0  0  0  0
  180.1380  177.4400  144.3440 C   0  0  0  0  0  1  0  0  0  0  0  0
  187.1060  178.2630  142.7950 F   0  0  0  0  0  0  0  0  0  0  0  0
  187.1670  178.2860  137.2060 F   0  0  0  0  0  0  0  0  0  0  0  0
  188.0520  177.3610  139.2730 C   0  0  0  0  0  2  0  0  0  0  0  0
  180.4750  178.7180  143.6030 C   0  0  2  0  0  3  0  0  0  0  0  0
  186.0300  179.0500  140.7040 C   0  0  1  0  0  3  0  0  0  0  0  0
  184.7480  178.1020  138.9970 C   0  0  0  0  0  0  0  0  0  0  0  0
  184.3450  177.2290  137.8280 C   0  0  2  0  0  3  0  0  0  0  0  0
  181.4650  178.4740  135.9100 C   0  0  0  0  0  2  0  0  0  0  0  0
  180.9490  177.1560  138.7750 O   0  0  0  0  0  0  0  0  0  0  0  0
  187.2640  178.4670  138.5720 C   0  0  2  0  0  3  0  0  0  0  0  0
  185.9520  178.6280  139.2740 C   0  0  0  0  0  0  0  0  0  0  0  0
  181.5080  178.2480  139.0600 C   0  0  0  0  0  0  0  0  0  0  0  0
  185.5790  176.4990  135.7370 C   0  0  0  0  0  1  0  0  0  0  0  0
  185.3910  176.2790  137.2280 C   0  0  0  0  0  3  0  0  0  0  0  0
  184.9570  174.8410  137.4430 C   0  0  0  0  0  1  0  0  0  0  0  0
  1  4  1  0  0  0  0
  2 16  1  0  0  0  0
  3 11  1  0  0  0  0
  3  1  2  0  0  0  0
  4 10  2  0  0  0  0
  5 19  1  0  0  0  0
  6 27  1  0  0  0  0
  7  5  1  0  0  0  0
  7 10  1  0  0  0  0
  9 22  1  0  0  0  0
 10  8  1  0  0  0  0
 11  7  2  0  0  0  0
 12  2  2  0  0  0  0
 13  9  1  0  0  0  0
 14  6  2  0  0  0  0
 18 12  1  0  0  0  0
 19  8  1  0  0  0  0
 19 15  1  1  0  0  0
 20 26  1  6  0  0  0
 20  1  1  0  0  0  0
 20  2  1  0  0  0  0
 21 26  2  0  0  0  0
 21  3  1  0  0  0  0
 22 29  1  6  0  0  0
 22 21  1  0  0  0  0
 23 13  1  0  0  0  0
 23 14  1  0  0  0  0
 24 27  2  0  0  0  0
 25 17  1  6  0  0  0
 25 18  1  0  0  0  0
 25 26  1  0  0  0  0
 27 11  1  0  0  0  0
 28 29  1  0  0  0  0
 29 30  1  0  0  0  0
M  END
>  <MODEL>
8

>  <REMARK>
 VINA RESULT:      -5.3      1.811      2.385
  Name = 
  1 active torsions:
  status: ('A' for Active; 'I' for Inactive)
    1  A    between atoms: C_11  and  C_25
                            x       y       z     vdW  Elec       q    Type
                         _______ _______ _______ _____ _____    ______ ____

>  <TORSDO>
F 1

$$$$
=
 OpenBabel10262421433D

 30 34  0  0  1  0  0  0  0  0999 V2000
  186.7110  178.3760  139.7640 C   0  0  0  0  0  0  0  0  0  0  0  0
  186.0550  177.8670  137.3950 C   0  0  0  0  0  0  0  0  0  0  0  0
  185.8810  178.2620  140.8020 C   0  0  0  0  0  0  0  0  0  0  0  0
  188.2090  178.2450  139.8630 C   0  0  0  0  0  3  0  0  0  0  0  0
  188.5280  177.5790  143.9280 S   0  0  0  0  0  0  0  0  0  0  0  0
  185.3360  179.7470  143.8370 C   0  0  0  0  0  3  0  0  0  0  0  0
  187.7020  177.8380  142.3650 C   0  0  0  0  0  0  0  0  0  0  0  0
  189.8610  177.5150  141.5660 C   0  0  0  0  0  2  0  0  0  0  0  0
  182.9080  179.0030  142.0300 N   0  0  0  0  0  2  0  0  0  0  0  0
  188.6190  177.8120  141.2390 C   0  0  0  0  0  0  0  0  0  0  0  0
  186.3900  178.0860  142.2010 C   0  0  0  0  0  0  0  0  0  0  0  0
  184.9560  177.4990  136.7000 C   0  0  0  0  0  3  0  0  0  0  0  0
  182.6770  178.6400  143.2370 C   0  0  0  0  0  2  0  0  0  0  0  0
  184.1800  180.2880  144.2760 C   0  0  0  0  0  3  0  0  0  0  0  0
  190.3950  175.7220  143.1670 C   0  0  0  0  0  1  0  0  0  0  0  0
  187.2740  177.4760  136.9380 F   0  0  0  0  0  0  0  0  0  0  0  0
  182.2660  179.3850  138.5240 F   0  0  0  0  0  0  0  0  0  0  0  0
  183.5420  177.8780  137.1060 C   0  0  0  0  0  2  0  0  0  0  0  0
  190.0720  177.1950  143.0150 C   0  0  2  0  0  3  0  0  0  0  0  0
  185.9840  178.8490  138.5510 C   0  0  1  0  0  3  0  0  0  0  0  0
  184.5050  178.4490  140.3140 C   0  0  0  0  0  0  0  0  0  0  0  0
  183.2780  177.9970  141.0770 C   0  0  2  0  0  3  0  0  0  0  0  0
  182.8220  179.6230  144.3430 C   0  0  0  0  0  2  0  0  0  0  0  0
  185.0830  177.3850  144.0440 O   0  0  0  0  0  0  0  0  0  0  0  0
  183.5210  179.1010  138.0220 C   0  0  2  0  0  3  0  0  0  0  0  0
  184.5840  178.9290  139.0620 C   0  0  0  0  0  0  0  0  0  0  0  0
  185.5490  178.3520  143.3830 C   0  0  0  0  0  0  0  0  0  0  0  0
  180.8160  177.3940  141.0780 C   0  0  0  0  0  1  0  0  0  0  0  0
  182.1150  177.3760  140.2910 C   0  0  0  0  0  3  0  0  0  0  0  0
  182.4420  175.9340  139.9500 C   0  0  0  0  0  1  0  0  0  0  0  0
  1  4  2  0  0  0  0
  1  3  1  0  0  0  0
  3 11  2  0  0  0  0
  4 10  1  0  0  0  0
  6 14  2  0  0  0  0
  7  5  1  0  0  0  0
  8 19  1  0  0  0  0
  9 13  1  0  0  0  0
 10  8  1  0  0  0  0
 10  7  2  0  0  0  0
 11  7  1  0  0  0  0
 11 27  1  0  0  0  0
 12 18  1  0  0  0  0
 12  2  2  0  0  0  0
 13 23  1  0  0  0  0
 14 23  1  0  0  0  0
 16  2  1  0  0  0  0
 18 25  1  0  0  0  0
 19 15  1  6  0  0  0
 19  5  1  0  0  0  0
 20  2  1  6  0  0  0
 20 26  1  0  0  0  0
 20  1  1  0  0  0  0
 21  3  1  0  0  0  0
 21 22  1  0  0  0  0
 22 29  1  6  0  0  0
 22  9  1  0  0  0  0
 25 17  1  1  0  0  0
 25 26  1  0  0  0  0
 26 21  2  0  0  0  0
 27  6  1  0  0  0  0
 27 24  2  0  0  0  0
 29 28  1  0  0  0  0
 30 29  1  0  0  0  0
M  END
>  <MODEL>
9

>  <REMARK>
 VINA RESULT:      -5.3      2.857      4.698
  Name = 
  1 active torsions:
  status: ('A' for Active; 'I' for Inactive)
    1  A    between atoms: C_11  and  C_25
                            x       y       z     vdW  Elec       q    Type
                         _______ _______ _______ _____ _____    ______ ____

>  <TORSDO>
F 1

$$$$
