=
 OpenBabel10262419253D

 31 34  0  0  1  0  0  0  0  0999 V2000
  183.4710  178.7980  144.4280 C   0  0  0  0  0  0  0  0  0  0  0  0
  187.1510  178.1120  143.9330 C   0  0  0  0  0  0  0  0  0  0  0  0
  187.6980  177.8560  145.2410 C   0  0  0  0  0  0  0  0  0  0  0  0
  187.3060  178.3980  147.6890 C   0  0  0  0  0  2  0  0  0  0  0  0
  185.7680  178.4030  143.6800 C   0  0  0  0  0  0  0  0  0  0  0  0
  183.0550  178.9730  143.1110 C   0  0  0  0  0  3  0  0  0  0  0  0
  186.7850  177.7060  146.4390 C   0  0  0  0  0  2  0  0  0  0  0  0
  187.5670  178.2910  141.5010 C   0  0  0  0  0  0  0  0  0  0  0  0
  182.5760  178.9010  145.4400 F   0  0  0  0  0  0  0  0  0  0  0  0
  189.9180  177.6090  144.2550 C   0  0  0  0  0  3  0  0  0  0  0  0
  188.1310  177.4280  148.5300 C   0  0  0  0  0  2  0  0  0  0  0  0
  186.2150  178.5470  141.2890 C   0  0  0  0  0  3  0  0  0  0  0  0
  188.0350  178.0800  142.8100 C   0  0  0  0  0  0  0  0  0  0  0  0
  184.8100  178.5180  144.7040 C   0  0  0  0  0  3  0  0  0  0  0  0
  189.0850  176.5760  147.6930 C   0  0  0  0  0  2  0  0  0  0  0  0
  185.3230  178.6050  142.3480 C   0  0  0  0  0  0  0  0  0  0  0  0
  183.9810  178.8780  142.0730 C   0  0  0  0  0  3  0  0  0  0  0  0
  189.3950  177.8320  142.9950 C   0  0  0  0  0  3  0  0  0  0  0  0
  189.0990  177.6040  145.3760 C   0  0  0  0  0  0  0  0  0  0  0  0
  189.8290  177.4380  146.6860 C   0  0  0  0  0  2  0  0  0  0  0  0
  186.9720  178.2520  138.6060 O   0  0  0  0  0  0  0  0  0  0  0  0
  188.1660  178.2970  138.9990 C   0  0  0  0  0  0  0  0  0  0  0  0
  188.4880  178.2600  140.3970 N   0  0  0  0  0  2  0  0  0  0  0  0
  189.1090  179.5620  137.2310 O   0  0  0  0  0  1  0  0  0  0  0  0
  189.2600  178.3980  137.9880 C   0  0  2  0  0  3  0  0  0  0  0  0
  189.7760  174.7000  136.8800 C   0  0  0  0  0  0  0  0  0  0  0  0
  188.9280  177.3330  135.8900 O   0  0  0  0  0  0  0  0  0  0  0  0
  189.4880  174.6250  135.4200 C   0  0  0  0  0  1  0  0  0  0  0  0
  190.1270  173.6530  137.4820 O   0  0  0  0  0  0  0  0  0  0  0  0
  189.2680  177.2000  137.0960 C   0  0  0  0  0  0  0  0  0  0  0  0
  189.6670  175.9240  137.6170 N   0  0  0  0  0  2  0  0  0  0  0  0
  1 14  1  0  0  0  0
  1  9  1  0  0  0  0
  2  3  1  0  0  0  0
  3 19  2  0  0  0  0
  3  7  1  0  0  0  0
  4 11  1  0  0  0  0
  5  2  1  0  0  0  0
  5 14  2  0  0  0  0
  6  1  2  0  0  0  0
  7  4  1  0  0  0  0
  8 13  1  0  0  0  0
 10 19  1  0  0  0  0
 12  8  2  0  0  0  0
 12 16  1  0  0  0  0
 13 18  1  0  0  0  0
 13  2  2  0  0  0  0
 15 11  1  0  0  0  0
 16  5  1  0  0  0  0
 17 16  2  0  0  0  0
 17  6  1  0  0  0  0
 18 10  2  0  0  0  0
 19 20  1  0  0  0  0
 20 15  1  0  0  0  0
 21 22  2  0  0  0  0
 22 23  1  0  0  0  0
 23  8  1  0  0  0  0
 25 24  1  6  0  0  0
 25 22  1  0  0  0  0
 26 29  2  0  0  0  0
 26 31  1  0  0  0  0
 27 30  2  0  0  0  0
 28 26  1  0  0  0  0
 30 31  1  0  0  0  0
 30 25  1  0  0  0  0
M  END
>  <MODEL>
1

>  <REMARK>
 VINA RESULT:     -11.6      0.000      0.000
  Name = 
  3 active torsions:
  status: ('A' for Active; 'I' for Inactive)
    1  A    between atoms: C_9  and  C_22
    2  A    between atoms: C_15  and  N_23
    3  A    between atoms: C_19  and  C_22
                            x       y       z     vdW  Elec       q    Type
                         _______ _______ _______ _____ _____    ______ ____

>  <TORSDO>
F 3

$$$$
=
 OpenBabel10262419253D

 31 34  0  0  1  0  0  0  0  0999 V2000
  190.0270  177.1270  147.2180 C   0  0  0  0  0  0  0  0  0  0  0  0
  188.4210  177.4520  143.8140 C   0  0  0  0  0  0  0  0  0  0  0  0
  187.0930  177.9630  144.0370 C   0  0  0  0  0  0  0  0  0  0  0  0
  185.2630  178.0130  145.7950 C   0  0  0  0  0  2  0  0  0  0  0  0
  189.3730  177.1990  144.8590 C   0  0  0  0  0  0  0  0  0  0  0  0
  191.3000  176.6860  146.8680 C   0  0  0  0  0  3  0  0  0  0  0  0
  186.6730  178.4360  145.4120 C   0  0  0  0  0  2  0  0  0  0  0  0
  190.1170  176.7020  142.1760 C   0  0  0  0  0  0  0  0  0  0  0  0
  189.7070  177.3130  148.5210 F   0  0  0  0  0  0  0  0  0  0  0  0
  186.6530  177.8400  141.6390 C   0  0  0  0  0  3  0  0  0  0  0  0
  184.2580  179.0950  145.4060 C   0  0  0  0  0  2  0  0  0  0  0  0
  191.0230  176.4900  143.2120 C   0  0  0  0  0  3  0  0  0  0  0  0
  188.8250  177.1740  142.4720 C   0  0  0  0  0  0  0  0  0  0  0  0
  189.0790  177.3780  146.2230 C   0  0  0  0  0  3  0  0  0  0  0  0
  184.5150  179.6740  144.0150 C   0  0  0  0  0  2  0  0  0  0  0  0
  190.6710  176.7290  144.5300 C   0  0  0  0  0  0  0  0  0  0  0  0
  191.6200  176.4850  145.5270 C   0  0  0  0  0  3  0  0  0  0  0  0
  187.9350  177.3720  141.4170 C   0  0  0  0  0  3  0  0  0  0  0  0
  186.2190  178.1500  142.9210 C   0  0  0  0  0  0  0  0  0  0  0  0
  184.7720  178.5620  143.0100 C   0  0  0  0  0  2  0  0  0  0  0  0
  192.3230  177.8650  140.5910 O   0  0  0  0  0  0  0  0  0  0  0  0
  191.5970  176.9680  140.0890 C   0  0  0  0  0  0  0  0  0  0  0  0
  190.4840  176.4250  140.8130 N   0  0  0  0  0  2  0  0  0  0  0  0
  193.1490  176.9480  138.2990 O   0  0  0  0  0  1  0  0  0  0  0  0
  191.9100  176.4610  138.7200 C   0  0  2  0  0  3  0  0  0  0  0  0
  189.0450  178.5730  137.1390 C   0  0  0  0  0  0  0  0  0  0  0  0
  190.5890  176.0990  136.7790 O   0  0  0  0  0  0  0  0  0  0  0  0
  188.5230  177.8130  135.9670 C   0  0  0  0  0  1  0  0  0  0  0  0
  188.5190  179.6780  137.4270 O   0  0  0  0  0  0  0  0  0  0  0  0
  190.8440  176.8570  137.7520 C   0  0  0  0  0  0  0  0  0  0  0  0
  190.1230  178.0830  137.9450 N   0  0  0  0  0  2  0  0  0  0  0  0
  1  9  1  0  0  0  0
  2  3  1  0  0  0  0
  2  5  1  0  0  0  0
  3  7  1  0  0  0  0
  5 14  1  0  0  0  0
  6  1  1  0  0  0  0
  7  4  1  0  0  0  0
  8 13  1  0  0  0  0
  8 12  2  0  0  0  0
 10 19  1  0  0  0  0
 11  4  1  0  0  0  0
 12 16  1  0  0  0  0
 13  2  2  0  0  0  0
 14  1  2  0  0  0  0
 15 11  1  0  0  0  0
 16  5  2  0  0  0  0
 16 17  1  0  0  0  0
 17  6  2  0  0  0  0
 18 10  2  0  0  0  0
 18 13  1  0  0  0  0
 19 20  1  0  0  0  0
 19  3  2  0  0  0  0
 20 15  1  0  0  0  0
 22 21  2  0  0  0  0
 22 23  1  0  0  0  0
 23  8  1  0  0  0  0
 25 24  1  6  0  0  0
 25 22  1  0  0  0  0
 26 29  2  0  0  0  0
 26 31  1  0  0  0  0
 27 30  2  0  0  0  0
 28 26  1  0  0  0  0
 30 31  1  0  0  0  0
 30 25  1  0  0  0  0
M  END
>  <MODEL>
2

>  <REMARK>
 VINA RESULT:     -11.2      2.434      4.847
  Name = 
  3 active torsions:
  status: ('A' for Active; 'I' for Inactive)
    1  A    between atoms: C_9  and  C_22
    2  A    between atoms: C_15  and  N_23
    3  A    between atoms: C_19  and  C_22
                            x       y       z     vdW  Elec       q    Type
                         _______ _______ _______ _____ _____    ______ ____

>  <TORSDO>
F 3

$$$$
=
 OpenBabel10262419253D

 31 34  0  0  1  0  0  0  0  0999 V2000
  184.9480  178.3910  145.8410 C   0  0  0  0  0  0  0  0  0  0  0  0
  188.2380  177.6900  144.1250 C   0  0  0  0  0  0  0  0  0  0  0  0
  189.1920  177.4160  145.1690 C   0  0  0  0  0  0  0  0  0  0  0  0
  189.6560  177.9330  147.6100 C   0  0  0  0  0  2  0  0  0  0  0  0
  186.8540  177.9910  144.3570 C   0  0  0  0  0  0  0  0  0  0  0  0
  184.1130  178.5830  144.7440 C   0  0  0  0  0  3  0  0  0  0  0  0
  188.7370  177.2590  146.6030 C   0  0  0  0  0  2  0  0  0  0  0  0
  187.8080  177.8940  141.6970 C   0  0  0  0  0  0  0  0  0  0  0  0
  184.4500  178.4870  147.0980 F   0  0  0  0  0  0  0  0  0  0  0  0
  190.9460  177.1690  143.4880 C   0  0  0  0  0  3  0  0  0  0  0  0
  190.7090  176.9490  148.1140 C   0  0  0  0  0  2  0  0  0  0  0  0
  186.4670  178.1600  141.9570 C   0  0  0  0  0  3  0  0  0  0  0  0
  188.6900  177.6650  142.7690 C   0  0  0  0  0  0  0  0  0  0  0  0
  186.2990  178.1010  145.6460 C   0  0  0  0  0  3  0  0  0  0  0  0
  191.3160  176.1020  146.9960 C   0  0  0  0  0  2  0  0  0  0  0  0
  185.9870  178.2110  143.2560 C   0  0  0  0  0  0  0  0  0  0  0  0
  184.6330  178.4950  143.4540 C   0  0  0  0  0  3  0  0  0  0  0  0
  190.0300  177.4080  142.4810 C   0  0  0  0  0  3  0  0  0  0  0  0
  190.5550  177.1550  144.8200 C   0  0  0  0  0  0  0  0  0  0  0  0
  191.6830  176.9700  145.8040 C   0  0  0  0  0  2  0  0  0  0  0  0
  186.3810  178.5830  139.2030 O   0  0  0  0  0  0  0  0  0  0  0  0
  187.5980  178.2640  139.1600 C   0  0  0  0  0  0  0  0  0  0  0  0
  188.3020  177.8700  140.3460 N   0  0  0  0  0  2  0  0  0  0  0  0
  187.6820  179.2020  136.9850 O   0  0  0  0  0  1  0  0  0  0  0  0
  188.3140  178.3060  137.8510 C   0  0  2  0  0  3  0  0  0  0  0  0
  189.6080  174.7080  137.1090 C   0  0  0  0  0  0  0  0  0  0  0  0
  187.5200  176.6350  136.3590 O   0  0  0  0  0  0  0  0  0  0  0  0
  188.7650  174.1460  136.0150 C   0  0  0  0  0  1  0  0  0  0  0  0
  190.5390  174.0050  137.5780 O   0  0  0  0  0  0  0  0  0  0  0  0
  188.3710  176.9470  137.2350 C   0  0  0  0  0  0  0  0  0  0  0  0
  189.3900  176.0220  137.6400 N   0  0  0  0  0  2  0  0  0  0  0  0
  1  9  1  0  0  0  0
  2  5  1  0  0  0  0
  2  3  1  0  0  0  0
  3  7  1  0  0  0  0
  4 11  1  0  0  0  0
  5 14  2  0  0  0  0
  6  1  2  0  0  0  0
  7  4  1  0  0  0  0
  8 12  2  0  0  0  0
  8 13  1  0  0  0  0
 10 19  1  0  0  0  0
 12 16  1  0  0  0  0
 13  2  2  0  0  0  0
 14  1  1  0  0  0  0
 15 11  1  0  0  0  0
 16 17  2  0  0  0  0
 16  5  1  0  0  0  0
 17  6  1  0  0  0  0
 18 13  1  0  0  0  0
 18 10  2  0  0  0  0
 19  3  2  0  0  0  0
 19 20  1  0  0  0  0
 20 15  1  0  0  0  0
 22 21  2  0  0  0  0
 22 23  1  0  0  0  0
 23  8  1  0  0  0  0
 25 24  1  6  0  0  0
 25 22  1  0  0  0  0
 26 29  2  0  0  0  0
 26 31  1  0  0  0  0
 27 30  2  0  0  0  0
 28 26  1  0  0  0  0
 30 31  1  0  0  0  0
 30 25  1  0  0  0  0
M  END
>  <MODEL>
3

>  <REMARK>
 VINA RESULT:     -11.1      1.154      1.513
  Name = 
  3 active torsions:
  status: ('A' for Active; 'I' for Inactive)
    1  A    between atoms: C_9  and  C_22
    2  A    between atoms: C_15  and  N_23
    3  A    between atoms: C_19  and  C_22
                            x       y       z     vdW  Elec       q    Type
                         _______ _______ _______ _____ _____    ______ ____

>  <TORSDO>
F 3

$$$$
=
 OpenBabel10262419253D

 31 34  0  0  1  0  0  0  0  0999 V2000
  190.2540  176.7910  146.8380 C   0  0  0  0  0  0  0  0  0  0  0  0
  188.3260  177.5140  143.6720 C   0  0  0  0  0  0  0  0  0  0  0  0
  187.0220  177.9690  144.0840 C   0  0  0  0  0  0  0  0  0  0  0  0
  185.3700  177.7640  146.0000 C   0  0  0  0  0  2  0  0  0  0  0  0
  189.3760  177.1490  144.5810 C   0  0  0  0  0  0  0  0  0  0  0  0
  191.4900  176.4210  146.3160 C   0  0  0  0  0  3  0  0  0  0  0  0
  186.7340  178.2570  145.5410 C   0  0  0  0  0  2  0  0  0  0  0  0
  189.8590  177.0080  141.7980 C   0  0  0  0  0  0  0  0  0  0  0  0
  190.0620  176.8050  148.1790 F   0  0  0  0  0  0  0  0  0  0  0  0
  186.3540  178.1430  141.7420 C   0  0  0  0  0  3  0  0  0  0  0  0
  184.3270  178.8680  145.8490 C   0  0  0  0  0  2  0  0  0  0  0  0
  190.8620  176.6830  142.7070 C   0  0  0  0  0  3  0  0  0  0  0  0
  188.5990  177.4160  142.2730 C   0  0  0  0  0  0  0  0  0  0  0  0
  189.2140  177.1490  145.9790 C   0  0  0  0  0  3  0  0  0  0  0  0
  184.4440  179.6220  144.5250 C   0  0  0  0  0  2  0  0  0  0  0  0
  190.6380  176.7480  144.0730 C   0  0  0  0  0  0  0  0  0  0  0  0
  191.6810  176.3970  144.9350 C   0  0  0  0  0  3  0  0  0  0  0  0
  187.6100  177.7290  141.3410 C   0  0  0  0  0  3  0  0  0  0  0  0
  186.0440  178.2800  143.0880 C   0  0  0  0  0  0  0  0  0  0  0  0
  184.6090  178.6510  143.3670 C   0  0  0  0  0  2  0  0  0  0  0  0
  192.3630  177.5040  140.3090 O   0  0  0  0  0  0  0  0  0  0  0  0
  191.3390  177.1070  139.6960 C   0  0  0  0  0  0  0  0  0  0  0  0
  190.0940  176.9120  140.3820 N   0  0  0  0  0  2  0  0  0  0  0  0
  190.1600  176.5850  137.7070 O   0  0  0  0  0  1  0  0  0  0  0  0
  191.4310  176.8290  138.2320 C   0  0  2  0  0  3  0  0  0  0  0  0
  194.7000  174.8790  137.4040 C   0  0  0  0  0  0  0  0  0  0  0  0
  191.8410  174.5030  137.9680 O   0  0  0  0  0  0  0  0  0  0  0  0
  194.3420  173.4380  137.2800 C   0  0  0  0  0  1  0  0  0  0  0  0
  195.8960  175.2240  137.2230 O   0  0  0  0  0  0  0  0  0  0  0  0
  192.3300  175.6650  137.9700 C   0  0  0  0  0  0  0  0  0  0  0  0
  193.7260  175.8820  137.7200 N   0  0  0  0  0  2  0  0  0  0  0  0
  1  9  1  0  0  0  0
  2  3  1  0  0  0  0
  2  5  1  0  0  0  0
  3  7  1  0  0  0  0
  5 14  1  0  0  0  0
  6  1  1  0  0  0  0
  7  4  1  0  0  0  0
  8 13  1  0  0  0  0
  8 12  2  0  0  0  0
 10 19  1  0  0  0  0
 11  4  1  0  0  0  0
 12 16  1  0  0  0  0
 13  2  2  0  0  0  0
 14  1  2  0  0  0  0
 15 11  1  0  0  0  0
 16  5  2  0  0  0  0
 16 17  1  0  0  0  0
 17  6  2  0  0  0  0
 18 10  2  0  0  0  0
 18 13  1  0  0  0  0
 19 20  1  0  0  0  0
 19  3  2  0  0  0  0
 20 15  1  0  0  0  0
 22 21  2  0  0  0  0
 22 23  1  0  0  0  0
 23  8  1  0  0  0  0
 25 24  1  1  0  0  0
 25 22  1  0  0  0  0
 26 31  1  0  0  0  0
 27 30  2  0  0  0  0
 28 26  1  0  0  0  0
 29 26  2  0  0  0  0
 30 25  1  0  0  0  0
 31 30  1  0  0  0  0
M  END
>  <MODEL>
4

>  <REMARK>
 VINA RESULT:     -11.0      2.886      4.934
  Name = 
  3 active torsions:
  status: ('A' for Active; 'I' for Inactive)
    1  A    between atoms: C_9  and  C_22
    2  A    between atoms: C_15  and  N_23
    3  A    between atoms: C_19  and  C_22
                            x       y       z     vdW  Elec       q    Type
                         _______ _______ _______ _____ _____    ______ ____

>  <TORSDO>
F 3

$$$$
=
 OpenBabel10262419253D

 31 34  0  0  1  0  0  0  0  0999 V2000
  184.8990  178.2680  145.5200 C   0  0  0  0  0  0  0  0  0  0  0  0
  188.2160  178.0040  143.7330 C   0  0  0  0  0  0  0  0  0  0  0  0
  189.1770  177.5790  144.7180 C   0  0  0  0  0  0  0  0  0  0  0  0
  189.6170  177.6630  147.2160 C   0  0  0  0  0  2  0  0  0  0  0  0
  186.8210  178.2100  144.0040 C   0  0  0  0  0  0  0  0  0  0  0  0
  184.0600  178.6260  144.4690 C   0  0  0  0  0  3  0  0  0  0  0  0
  188.7250  177.1500  146.0970 C   0  0  0  0  0  2  0  0  0  0  0  0
  187.7830  178.6280  141.3780 C   0  0  0  0  0  0  0  0  0  0  0  0
  184.3950  178.1180  146.7690 F   0  0  0  0  0  0  0  0  0  0  0  0
  190.9420  177.7010  143.0350 C   0  0  0  0  0  3  0  0  0  0  0  0
  190.7040  176.6410  147.5430 C   0  0  0  0  0  2  0  0  0  0  0  0
  186.4330  178.7960  141.6710 C   0  0  0  0  0  3  0  0  0  0  0  0
  188.6710  178.2400  142.3980 C   0  0  0  0  0  0  0  0  0  0  0  0
  186.2600  178.0650  145.2870 C   0  0  0  0  0  3  0  0  0  0  0  0
  191.3420  176.0320  146.2960 C   0  0  0  0  0  2  0  0  0  0  0  0
  185.9490  178.5940  142.9540 C   0  0  0  0  0  0  0  0  0  0  0  0
  184.5850  178.7900  143.1880 C   0  0  0  0  0  3  0  0  0  0  0  0
  190.0200  178.0860  142.0800 C   0  0  0  0  0  3  0  0  0  0  0  0
  190.5480  177.4330  144.3390 C   0  0  0  0  0  0  0  0  0  0  0  0
  191.6800  177.1130  145.2830 C   0  0  0  0  0  2  0  0  0  0  0  0
  188.5430  176.6520  139.3150 O   0  0  0  0  0  0  0  0  0  0  0  0
  188.5880  177.8820  139.0510 C   0  0  0  0  0  0  0  0  0  0  0  0
  188.2800  178.8650  140.0490 N   0  0  0  0  0  2  0  0  0  0  0  0
  189.0520  179.7070  137.6130 O   0  0  0  0  0  1  0  0  0  0  0  0
  188.9620  178.3150  137.6720 C   0  0  2  0  0  3  0  0  0  0  0  0
  185.5260  177.1910  136.2210 C   0  0  0  0  0  0  0  0  0  0  0  0
  188.3610  177.5120  135.5180 O   0  0  0  0  0  0  0  0  0  0  0  0
  185.7640  176.7030  134.8330 C   0  0  0  0  0  1  0  0  0  0  0  0
  184.3570  177.1560  136.6830 O   0  0  0  0  0  0  0  0  0  0  0  0
  187.9660  177.8200  136.6740 C   0  0  0  0  0  0  0  0  0  0  0  0
  186.5850  177.6960  137.0440 N   0  0  0  0  0  2  0  0  0  0  0  0
  1  9  1  0  0  0  0
  2  5  1  0  0  0  0
  2  3  1  0  0  0  0
  3  7  1  0  0  0  0
  4 11  1  0  0  0  0
  5 14  2  0  0  0  0
  6  1  2  0  0  0  0
  7  4  1  0  0  0  0
  8 12  2  0  0  0  0
  8 13  1  0  0  0  0
 10 19  1  0  0  0  0
 12 16  1  0  0  0  0
 13  2  2  0  0  0  0
 14  1  1  0  0  0  0
 15 11  1  0  0  0  0
 16 17  2  0  0  0  0
 16  5  1  0  0  0  0
 17  6  1  0  0  0  0
 18 13  1  0  0  0  0
 18 10  2  0  0  0  0
 19  3  2  0  0  0  0
 19 20  1  0  0  0  0
 20 15  1  0  0  0  0
 22 21  2  0  0  0  0
 22 23  1  0  0  0  0
 23  8  1  0  0  0  0
 25 24  1  1  0  0  0
 25 22  1  0  0  0  0
 26 29  2  0  0  0  0
 26 31  1  0  0  0  0
 27 30  2  0  0  0  0
 28 26  1  0  0  0  0
 30 31  1  0  0  0  0
 30 25  1  0  0  0  0
M  END
>  <MODEL>
5

>  <REMARK>
 VINA RESULT:     -10.9      1.759      2.366
  Name = 
  3 active torsions:
  status: ('A' for Active; 'I' for Inactive)
    1  A    between atoms: C_9  and  C_22
    2  A    between atoms: C_15  and  N_23
    3  A    between atoms: C_19  and  C_22
                            x       y       z     vdW  Elec       q    Type
                         _______ _______ _______ _____ _____    ______ ____

>  <TORSDO>
F 3

$$$$
=
 OpenBabel10262419253D

 31 34  0  0  1  0  0  0  0  0999 V2000
  190.0410  177.3200  141.7700 C   0  0  0  0  0  0  0  0  0  0  0  0
  186.6920  178.2710  143.2330 C   0  0  0  0  0  0  0  0  0  0  0  0
  186.8190  178.1380  144.6620 C   0  0  0  0  0  0  0  0  0  0  0  0
  188.1280  176.8590  146.4210 C   0  0  0  0  0  2  0  0  0  0  0  0
  187.7550  178.0160  142.3030 C   0  0  0  0  0  0  0  0  0  0  0  0
  189.8090  177.5390  140.4150 C   0  0  0  0  0  3  0  0  0  0  0  0
  188.1700  177.8780  145.2920 C   0  0  0  0  0  2  0  0  0  0  0  0
  185.2420  178.8590  141.3170 C   0  0  0  0  0  0  0  0  0  0  0  0
  191.2520  176.8790  142.1880 F   0  0  0  0  0  0  0  0  0  0  0  0
  184.4720  178.7610  144.9190 C   0  0  0  0  0  3  0  0  0  0  0  0
  187.9320  177.5590  147.7630 C   0  0  0  0  0  2  0  0  0  0  0  0
  186.3010  178.6260  140.4440 C   0  0  0  0  0  3  0  0  0  0  0  0
  185.4300  178.6790  142.6990 C   0  0  0  0  0  0  0  0  0  0  0  0
  189.0250  177.5560  142.6970 C   0  0  0  0  0  3  0  0  0  0  0  0
  186.8760  178.6620  147.7110 C   0  0  0  0  0  2  0  0  0  0  0  0
  187.5380  178.2120  140.9150 C   0  0  0  0  0  0  0  0  0  0  0  0
  188.5580  177.9820  139.9880 C   0  0  0  0  0  3  0  0  0  0  0  0
  184.3510  178.9130  143.5510 C   0  0  0  0  0  3  0  0  0  0  0  0
  185.6820  178.3920  145.4920 C   0  0  0  0  0  0  0  0  0  0  0  0
  185.6310  178.1800  146.9840 C   0  0  0  0  0  2  0  0  0  0  0  0
  183.0700  177.1650  140.2460 O   0  0  0  0  0  0  0  0  0  0  0  0
  182.9000  178.4080  140.3530 C   0  0  0  0  0  0  0  0  0  0  0  0
  183.9550  179.2620  140.8160 N   0  0  0  0  0  2  0  0  0  0  0  0
  181.7450  180.1300  139.2070 O   0  0  0  0  0  1  0  0  0  0  0  0
  181.5730  178.9920  139.9980 C   0  0  2  0  0  3  0  0  0  0  0  0
  179.7920  178.4790  143.4230 C   0  0  0  0  0  0  0  0  0  0  0  0
  180.3600  180.5040  141.3720 O   0  0  0  0  0  0  0  0  0  0  0  0
  179.1200  179.7620  143.7750 C   0  0  0  0  0  1  0  0  0  0  0  0
  179.6810  177.5020  144.2080 O   0  0  0  0  0  0  0  0  0  0  0  0
  180.7980  179.3320  141.2280 C   0  0  0  0  0  0  0  0  0  0  0  0
  180.5570  178.3240  142.2210 N   0  0  0  0  0  2  0  0  0  0  0  0
  1  9  1  0  0  0  0
  1 14  1  0  0  0  0
  2  3  1  0  0  0  0
  3  7  1  0  0  0  0
  3 19  2  0  0  0  0
  4 11  1  0  0  0  0
  5 14  2  0  0  0  0
  5  2  1  0  0  0  0
  6  1  2  0  0  0  0
  7  4  1  0  0  0  0
  8 13  1  0  0  0  0
 10 19  1  0  0  0  0
 12 16  1  0  0  0  0
 12  8  2  0  0  0  0
 13  2  2  0  0  0  0
 13 18  1  0  0  0  0
 15 11  1  0  0  0  0
 16  5  1  0  0  0  0
 17  6  1  0  0  0  0
 17 16  2  0  0  0  0
 18 10  2  0  0  0  0
 19 20  1  0  0  0  0
 20 15  1  0  0  0  0
 21 22  2  0  0  0  0
 22 23  1  0  0  0  0
 23  8  1  0  0  0  0
 25 24  1  1  0  0  0
 25 22  1  0  0  0  0
 25 30  1  0  0  0  0
 26 28  1  0  0  0  0
 26 29  2  0  0  0  0
 30 27  2  0  0  0  0
 30 31  1  0  0  0  0
 31 26  1  0  0  0  0
M  END
>  <MODEL>
6

>  <REMARK>
 VINA RESULT:     -10.9      3.810      6.769
  Name = 
  3 active torsions:
  status: ('A' for Active; 'I' for Inactive)
    1  A    between atoms: C_9  and  C_22
    2  A    between atoms: C_15  and  N_23
    3  A    between atoms: C_19  and  C_22
                            x       y       z     vdW  Elec       q    Type
                         _______ _______ _______ _____ _____    ______ ____

>  <TORSDO>
F 3

$$$$
=
 OpenBabel10262419253D

 31 34  0  0  1  0  0  0  0  0999 V2000
  191.0950  177.3960  141.8140 C   0  0  0  0  0  0  0  0  0  0  0  0
  188.0020  177.8130  143.9410 C   0  0  0  0  0  0  0  0  0  0  0  0
  188.4380  177.7450  145.3120 C   0  0  0  0  0  0  0  0  0  0  0  0
  190.2760  176.7560  146.7560 C   0  0  0  0  0  2  0  0  0  0  0  0
  188.8810  177.7140  142.8100 C   0  0  0  0  0  0  0  0  0  0  0  0
  190.5580  177.5330  140.5370 C   0  0  0  0  0  3  0  0  0  0  0  0
  189.9130  177.7340  145.6500 C   0  0  0  0  0  2  0  0  0  0  0  0
  186.1140  178.0930  142.3680 C   0  0  0  0  0  0  0  0  0  0  0  0
  192.4220  177.1760  141.9710 F   0  0  0  0  0  0  0  0  0  0  0  0
  186.1220  177.9730  146.0510 C   0  0  0  0  0  3  0  0  0  0  0  0
  190.2410  177.4510  148.1150 C   0  0  0  0  0  2  0  0  0  0  0  0
  186.9970  178.0160  141.2950 C   0  0  0  0  0  3  0  0  0  0  0  0
  186.6070  177.9880  143.6810 C   0  0  0  0  0  0  0  0  0  0  0  0
  190.2640  177.4850  142.9330 C   0  0  0  0  0  3  0  0  0  0  0  0
  189.0250  178.3600  148.2880 C   0  0  0  0  0  2  0  0  0  0  0  0
  188.3550  177.8300  141.4980 C   0  0  0  0  0  0  0  0  0  0  0  0
  189.1890  177.7480  140.3800 C   0  0  0  0  0  3  0  0  0  0  0  0
  185.7000  178.0630  144.7380 C   0  0  0  0  0  3  0  0  0  0  0  0
  187.4680  177.8280  146.3600 C   0  0  0  0  0  0  0  0  0  0  0  0
  187.7590  177.6550  147.8290 C   0  0  0  0  0  2  0  0  0  0  0  0
  184.7540  179.6900  140.2860 O   0  0  0  0  0  0  0  0  0  0  0  0
  184.0740  179.0000  141.0890 C   0  0  0  0  0  0  0  0  0  0  0  0
  184.7020  178.2600  142.1450 N   0  0  0  0  0  2  0  0  0  0  0  0
  181.9690  179.0210  142.1750 O   0  0  0  0  0  1  0  0  0  0  0  0
  182.5910  178.9510  140.9270 C   0  0  2  0  0  3  0  0  0  0  0  0
  182.8640  175.8390  138.6010 C   0  0  0  0  0  0  0  0  0  0  0  0
  180.9970  177.2880  140.3460 O   0  0  0  0  0  0  0  0  0  0  0  0
  181.5180  175.2000  138.5480 C   0  0  0  0  0  1  0  0  0  0  0  0
  183.8020  175.3320  137.9340 O   0  0  0  0  0  0  0  0  0  0  0  0
  182.1780  177.7060  140.2130 C   0  0  0  0  0  0  0  0  0  0  0  0
  183.1210  177.0100  139.3860 N   0  0  0  0  0  2  0  0  0  0  0  0
  1  9  1  0  0  0  0
  1 14  1  0  0  0  0
  2  3  1  0  0  0  0
  3  7  1  0  0  0  0
  3 19  2  0  0  0  0
  4 11  1  0  0  0  0
  5 14  2  0  0  0  0
  5  2  1  0  0  0  0
  6  1  2  0  0  0  0
  7  4  1  0  0  0  0
  8 13  1  0  0  0  0
 10 19  1  0  0  0  0
 11 15  1  0  0  0  0
 12 16  1  0  0  0  0
 12  8  2  0  0  0  0
 13  2  2  0  0  0  0
 13 18  1  0  0  0  0
 16  5  1  0  0  0  0
 17  6  1  0  0  0  0
 17 16  2  0  0  0  0
 18 10  2  0  0  0  0
 19 20  1  0  0  0  0
 20 15  1  0  0  0  0
 21 22  2  0  0  0  0
 22 23  1  0  0  0  0
 23  8  1  0  0  0  0
 25 22  1  0  0  0  0
 25 24  1  1  0  0  0
 26 31  1  0  0  0  0
 28 26  1  0  0  0  0
 29 26  2  0  0  0  0
 30 27  2  0  0  0  0
 30 25  1  0  0  0  0
 31 30  1  0  0  0  0
M  END
>  <MODEL>
7

>  <REMARK>
 VINA RESULT:     -10.7      3.565      5.536
  Name = 
  3 active torsions:
  status: ('A' for Active; 'I' for Inactive)
    1  A    between atoms: C_9  and  C_22
    2  A    between atoms: C_15  and  N_23
    3  A    between atoms: C_19  and  C_22
                            x       y       z     vdW  Elec       q    Type
                         _______ _______ _______ _____ _____    ______ ____

>  <TORSDO>
F 3

$$$$
=
 OpenBabel10262419253D

 31 34  0  0  1  0  0  0  0  0999 V2000
  190.4710  176.9050  146.2790 C   0  0  0  0  0  0  0  0  0  0  0  0
  188.1070  177.8730  143.4980 C   0  0  0  0  0  0  0  0  0  0  0  0
  186.8280  178.1160  144.1160 C   0  0  0  0  0  0  0  0  0  0  0  0
  185.4530  177.4490  146.1420 C   0  0  0  0  0  2  0  0  0  0  0  0
  189.2900  177.4940  144.2170 C   0  0  0  0  0  0  0  0  0  0  0  0
  191.6620  176.7540  145.5730 C   0  0  0  0  0  3  0  0  0  0  0  0
  186.6980  178.1510  145.6230 C   0  0  0  0  0  2  0  0  0  0  0  0
  189.4360  177.8230  141.4120 C   0  0  0  0  0  0  0  0  0  0  0  0
  190.4460  176.6980  147.6180 F   0  0  0  0  0  0  0  0  0  0  0  0
  185.8610  178.5610  141.9190 C   0  0  0  0  0  3  0  0  0  0  0  0
  184.3010  178.4410  146.2840 C   0  0  0  0  0  2  0  0  0  0  0  0
  190.5690  177.4780  142.1430 C   0  0  0  0  0  3  0  0  0  0  0  0
  188.2130  178.0150  142.0800 C   0  0  0  0  0  0  0  0  0  0  0  0
  189.3040  177.2690  145.6060 C   0  0  0  0  0  3  0  0  0  0  0  0
  184.1840  179.3920  145.0930 C   0  0  0  0  0  2  0  0  0  0  0  0
  190.5110  177.3150  143.5180 C   0  0  0  0  0  0  0  0  0  0  0  0
  191.6810  176.9560  144.1940 C   0  0  0  0  0  3  0  0  0  0  0  0
  187.0910  178.3520  141.3230 C   0  0  0  0  0  3  0  0  0  0  0  0
  185.7090  178.4620  143.2950 C   0  0  0  0  0  0  0  0  0  0  0  0
  184.2920  178.6280  143.7840 C   0  0  0  0  0  2  0  0  0  0  0  0
  190.5570  175.9450  139.4240 O   0  0  0  0  0  0  0  0  0  0  0  0
  190.0040  177.0070  139.0390 C   0  0  0  0  0  0  0  0  0  0  0  0
  189.5010  177.9650  139.9820 N   0  0  0  0  0  2  0  0  0  0  0  0
  189.4070  178.5650  137.3560 O   0  0  0  0  0  1  0  0  0  0  0  0
  189.8660  177.2640  137.5750 C   0  0  2  0  0  3  0  0  0  0  0  0
  186.5420  175.3760  136.8300 C   0  0  0  0  0  0  0  0  0  0  0  0
  189.3930  175.4430  136.1240 O   0  0  0  0  0  0  0  0  0  0  0  0
  186.8610  174.2610  135.8930 C   0  0  0  0  0  1  0  0  0  0  0  0
  185.3540  175.5190  137.2190 O   0  0  0  0  0  0  0  0  0  0  0  0
  188.9350  176.2770  136.9500 C   0  0  0  0  0  0  0  0  0  0  0  0
  187.5440  176.2850  137.3010 N   0  0  0  0  0  2  0  0  0  0  0  0
  1  9  1  0  0  0  0
  2  3  1  0  0  0  0
  2  5  1  0  0  0  0
  3  7  1  0  0  0  0
  4 11  1  0  0  0  0
  5 14  2  0  0  0  0
  6  1  2  0  0  0  0
  7  4  1  0  0  0  0
  8 13  1  0  0  0  0
  8 12  2  0  0  0  0
 10 19  1  0  0  0  0
 12 16  1  0  0  0  0
 13  2  2  0  0  0  0
 14  1  1  0  0  0  0
 15 11  1  0  0  0  0
 16 17  2  0  0  0  0
 16  5  1  0  0  0  0
 17  6  1  0  0  0  0
 18 10  2  0  0  0  0
 18 13  1  0  0  0  0
 19 20  1  0  0  0  0
 19  3  2  0  0  0  0
 20 15  1  0  0  0  0
 22 21  2  0  0  0  0
 22 23  1  0  0  0  0
 23  8  1  0  0  0  0
 25 24  1  1  0  0  0
 25 22  1  0  0  0  0
 26 29  2  0  0  0  0
 26 31  1  0  0  0  0
 27 30  2  0  0  0  0
 28 26  1  0  0  0  0
 30 31  1  0  0  0  0
 30 25  1  0  0  0  0
M  END
>  <MODEL>
8

>  <REMARK>
 VINA RESULT:     -10.6      2.221      4.443
  Name = 
  3 active torsions:
  status: ('A' for Active; 'I' for Inactive)
    1  A    between atoms: C_9  and  C_22
    2  A    between atoms: C_15  and  N_23
    3  A    between atoms: C_19  and  C_22
                            x       y       z     vdW  Elec       q    Type
                         _______ _______ _______ _____ _____    ______ ____

>  <TORSDO>
F 3

$$$$
=
 OpenBabel10262419253D

 31 34  0  0  1  0  0  0  0  0999 V2000
  186.2950  178.1160  147.1560 C   0  0  0  0  0  0  0  0  0  0  0  0
  187.4210  178.0060  143.5520 C   0  0  0  0  0  0  0  0  0  0  0  0
  188.7430  177.4330  143.5550 C   0  0  0  0  0  0  0  0  0  0  0  0
  190.7850  177.1790  145.0410 C   0  0  0  0  0  2  0  0  0  0  0  0
  186.6280  178.2090  144.7320 C   0  0  0  0  0  0  0  0  0  0  0  0
  185.0090  178.6280  147.0150 C   0  0  0  0  0  3  0  0  0  0  0  0
  189.3190  176.8380  144.8220 C   0  0  0  0  0  2  0  0  0  0  0  0
  185.5600  178.9430  142.2180 C   0  0  0  0  0  0  0  0  0  0  0  0
  186.7750  177.8160  148.3870 F   0  0  0  0  0  0  0  0  0  0  0  0
  188.8670  177.7300  141.1350 C   0  0  0  0  0  3  0  0  0  0  0  0
  191.6790  176.0980  144.4410 C   0  0  0  0  0  2  0  0  0  0  0  0
  184.8090  179.1040  143.3790 C   0  0  0  0  0  3  0  0  0  0  0  0
  186.8570  178.4040  142.3010 C   0  0  0  0  0  0  0  0  0  0  0  0
  187.0910  177.9120  146.0270 C   0  0  0  0  0  3  0  0  0  0  0  0
  191.2150  175.6400  143.0580 C   0  0  0  0  0  2  0  0  0  0  0  0
  185.3210  178.7480  144.6170 C   0  0  0  0  0  0  0  0  0  0  0  0
  184.5230  178.9450  145.7480 C   0  0  0  0  0  3  0  0  0  0  0  0
  187.5900  178.2590  141.1230 C   0  0  0  0  0  3  0  0  0  0  0  0
  189.4520  177.3050  142.3200 C   0  0  0  0  0  0  0  0  0  0  0  0
  190.8790  176.8370  142.1830 C   0  0  0  0  0  2  0  0  0  0  0  0
  183.4710  177.6190  140.6000 O   0  0  0  0  0  0  0  0  0  0  0  0
  183.9740  178.7030  140.2070 C   0  0  0  0  0  0  0  0  0  0  0  0
  185.0290  179.3390  140.9410 N   0  0  0  0  0  2  0  0  0  0  0  0
  184.1080  180.5450  138.7220 O   0  0  0  0  0  1  0  0  0  0  0  0
  183.4530  179.3340  138.9580 C   0  0  2  0  0  3  0  0  0  0  0  0
  180.0250  180.3470  140.5050 C   0  0  0  0  0  0  0  0  0  0  0  0
  181.2480  179.2290  138.0790 O   0  0  0  0  0  0  0  0  0  0  0  0
  178.9650  179.9790  139.5240 C   0  0  0  0  0  1  0  0  0  0  0  0
  179.6840  180.8700  141.5970 O   0  0  0  0  0  0  0  0  0  0  0  0
  181.9790  179.5540  139.0520 C   0  0  0  0  0  0  0  0  0  0  0  0
  181.4160  180.1230  140.2440 N   0  0  0  0  0  2  0  0  0  0  0  0
  1  9  1  0  0  0  0
  2  3  1  0  0  0  0
  2  5  1  0  0  0  0
  3  7  1  0  0  0  0
  5 14  1  0  0  0  0
  6  1  1  0  0  0  0
  7  4  1  0  0  0  0
  8 13  1  0  0  0  0
  8 12  2  0  0  0  0
 10 19  1  0  0  0  0
 11  4  1  0  0  0  0
 12 16  1  0  0  0  0
 13  2  2  0  0  0  0
 14  1  2  0  0  0  0
 15 11  1  0  0  0  0
 16  5  2  0  0  0  0
 16 17  1  0  0  0  0
 17  6  2  0  0  0  0
 18 10  2  0  0  0  0
 18 13  1  0  0  0  0
 19  3  2  0  0  0  0
 20 19  1  0  0  0  0
 20 15  1  0  0  0  0
 22 21  2  0  0  0  0
 22 23  1  0  0  0  0
 23  8  1  0  0  0  0
 25 24  1  1  0  0  0
 25 30  1  0  0  0  0
 25 22  1  0  0  0  0
 26 29  2  0  0  0  0
 27 30  2  0  0  0  0
 28 26  1  0  0  0  0
 30 31  1  0  0  0  0
 31 26  1  0  0  0  0
M  END
>  <MODEL>
9

>  <REMARK>
 VINA RESULT:     -10.6      3.489      5.836
  Name = 
  3 active torsions:
  status: ('A' for Active; 'I' for Inactive)
    1  A    between atoms: C_9  and  C_22
    2  A    between atoms: C_15  and  N_23
    3  A    between atoms: C_19  and  C_22
                            x       y       z     vdW  Elec       q    Type
                         _______ _______ _______ _____ _____    ______ ____

>  <TORSDO>
F 3

$$$$
