=
 OpenBabel10262421373D

 32 38  0  0  1  0  0  0  0  0999 V2000
  187.3880  177.9560  136.8560 C   0  0  1  0  0  3  0  0  0  0  0  0
  188.0500  178.0000  141.9830 C   0  0  0  0  0  0  0  0  0  0  0  0
  183.4400  178.5090  143.7670 C   0  0  0  0  0  2  0  0  0  0  0  0
  184.0440  179.0850  145.0330 C   0  0  0  0  0  2  0  0  0  0  0  0
  189.9710  177.5350  143.5980 C   0  0  0  0  0  0  0  0  0  0  0  0
  190.3560  177.0970  144.9490 C   0  0  0  0  0  0  0  0  0  0  0  0
  188.4170  177.9910  139.5650 C   0  0  0  0  0  0  0  0  0  0  0  0
  186.2070  178.4270  140.4450 C   0  0  0  0  0  3  0  0  0  0  0  0
  191.0560  176.2220  147.5180 C   0  0  0  0  0  3  0  0  0  0  0  0
  186.5010  178.5100  137.9720 C   0  0  0  0  0  2  0  0  0  0  0  0
  184.3590  178.8200  142.5940 C   0  0  0  0  0  2  0  0  0  0  0  0
  186.6790  178.2860  141.7610 C   0  0  0  0  0  0  0  0  0  0  0  0
  185.7980  178.4220  142.8470 C   0  0  0  0  0  0  0  0  0  0  0  0
  187.6460  177.9940  144.3940 C   0  0  0  0  0  0  0  0  0  0  0  0
  191.9650  176.0910  146.4640 C   0  0  0  0  0  3  0  0  0  0  0  0
  188.8540  178.3210  137.1090 C   0  0  0  0  0  2  0  0  0  0  0  0
  187.0550  178.2710  139.3510 C   0  0  0  0  0  0  0  0  0  0  0  0
  191.6160  176.5280  145.1840 C   0  0  0  0  0  3  0  0  0  0  0  0
  189.3580  177.7300  138.4250 C   0  0  0  0  0  2  0  0  0  0  0  0
  185.3380  178.3460  145.3450 C   0  0  0  0  0  2  0  0  0  0  0  0
  186.2860  178.2870  144.1670 C   0  0  0  0  0  0  0  0  0  0  0  0
  188.1360  177.9290  145.8240 C   0  0  0  0  0  2  0  0  0  0  0  0
  188.8920  177.8460  140.8670 C   0  0  0  0  0  3  0  0  0  0  0  0
  190.8600  177.6220  142.7070 O   0  0  0  0  0  0  0  0  0  0  0  0
  189.8020  176.7930  147.2890 C   0  0  0  0  0  3  0  0  0  0  0  0
  188.5440  177.8620  143.3060 C   0  0  0  0  0  0  0  0  0  0  0  0
  189.4440  177.2230  146.0080 C   0  0  0  0  0  0  0  0  0  0  0  0
  187.1820  176.4530  136.7010 C   0  0  0  0  0  2  0  0  0  0  0  0
  185.7090  176.1040  136.7980 C   0  0  0  0  0  2  0  0  0  0  0  0
  185.4920  174.6810  136.3290 C   0  0  0  0  0  3  0  0  0  0  0  0
  184.8010  173.8940  137.4230 C   0  0  0  0  0  2  0  0  0  0  0  0
  186.2920  173.7440  137.2090 C   0  0  0  0  0  2  0  0  0  0  0  0
  1 28  1  1  0  0  0
  1 16  1  0  0  0  0
  1 10  1  0  0  0  0
  2 26  1  0  0  0  0
  3  4  1  0  0  0  0
  4 20  1  0  0  0  0
  5  6  1  0  0  0  0
  6 18  2  0  0  0  0
  6 27  1  0  0  0  0
  7 23  1  0  0  0  0
  8 12  2  0  0  0  0
 10 17  1  0  0  0  0
 11 13  1  0  0  0  0
 11  3  1  0  0  0  0
 12  2  1  0  0  0  0
 12 13  1  0  0  0  0
 13 21  2  0  0  0  0
 14 22  1  0  0  0  0
 15  9  2  0  0  0  0
 16 19  1  0  0  0  0
 17  7  2  0  0  0  0
 17  8  1  0  0  0  0
 18 15  1  0  0  0  0
 19  7  1  0  0  0  0
 21 14  1  0  0  0  0
 21 20  1  0  0  0  0
 22 27  1  0  0  0  0
 23  2  2  0  0  0  0
 24  5  2  0  0  0  0
 25  9  1  0  0  0  0
 26  5  1  0  0  0  0
 26 14  2  0  0  0  0
 27 25  2  0  0  0  0
 28 29  1  0  0  0  0
 30 29  1  0  0  0  0
 30 32  1  0  0  0  0
 30 31  1  0  0  0  0
 32 31  1  0  0  0  0
M  END
>  <MODEL>
1

>  <REMARK>
 VINA RESULT:     -11.3      0.000      0.000
  Name = 
  3 active torsions:
  status: ('A' for Active; 'I' for Inactive)
    1  A    between atoms: C_1  and  C_10
    2  A    between atoms: C_2  and  C_24
    3  A    between atoms: C_10  and  C_24
                            x       y       z     vdW  Elec       q    Type
                         _______ _______ _______ _____ _____    ______ ____

>  <TORSDO>
F 3

$$$$
=
 OpenBabel10262421373D

 32 38  0  0  1  0  0  0  0  0999 V2000
  187.6320  177.9460  136.4720 C   0  0  1  0  0  3  0  0  0  0  0  0
  186.9290  178.3040  141.5800 C   0  0  0  0  0  0  0  0  0  0  0  0
  181.9920  178.5650  142.0810 C   0  0  0  0  0  2  0  0  0  0  0  0
  182.2100  179.2480  143.4160 C   0  0  0  0  0  2  0  0  0  0  0  0
  188.3850  178.0640  143.6640 C   0  0  0  0  0  0  0  0  0  0  0  0
  188.4280  177.7260  145.0940 C   0  0  0  0  0  0  0  0  0  0  0  0
  187.9140  178.1970  139.3450 C   0  0  0  0  0  0  0  0  0  0  0  0
  185.5300  178.5140  139.5950 C   0  0  0  0  0  3  0  0  0  0  0  0
  188.4830  177.0390  147.8110 C   0  0  0  0  0  3  0  0  0  0  0  0
  186.4540  178.4900  137.2810 C   0  0  0  0  0  2  0  0  0  0  0  0
  183.1650  178.8810  141.1640 C   0  0  0  0  0  2  0  0  0  0  0  0
  185.6490  178.4760  140.9950 C   0  0  0  0  0  0  0  0  0  0  0  0
  184.5090  178.6030  141.8060 C   0  0  0  0  0  0  0  0  0  0  0  0
  185.9110  178.3920  143.8010 C   0  0  0  0  0  0  0  0  0  0  0  0
  189.6410  176.9210  147.0380 C   0  0  0  0  0  3  0  0  0  0  0  0
  188.9570  178.4300  137.0660 C   0  0  0  0  0  2  0  0  0  0  0  0
  186.6420  178.3640  138.7690 C   0  0  0  0  0  0  0  0  0  0  0  0
  189.6150  177.2640  145.6840 C   0  0  0  0  0  3  0  0  0  0  0  0
  189.1340  177.9460  138.5050 C   0  0  0  0  0  2  0  0  0  0  0  0
  183.4180  178.6230  144.1000 C   0  0  0  0  0  2  0  0  0  0  0  0
  184.6420  178.5730  143.2120 C   0  0  0  0  0  0  0  0  0  0  0  0
  186.0130  178.4370  145.3100 C   0  0  0  0  0  2  0  0  0  0  0  0
  188.0400  178.1540  140.7320 C   0  0  0  0  0  3  0  0  0  0  0  0
  189.4690  178.1700  143.0260 O   0  0  0  0  0  0  0  0  0  0  0  0
  187.3010  177.5040  147.2290 C   0  0  0  0  0  3  0  0  0  0  0  0
  187.0670  178.2710  142.9920 C   0  0  0  0  0  0  0  0  0  0  0  0
  187.2660  177.8390  145.8720 C   0  0  0  0  0  0  0  0  0  0  0  0
  187.5600  176.4260  136.3730 C   0  0  0  0  0  2  0  0  0  0  0  0
  186.1690  175.9840  135.9600 C   0  0  0  0  0  2  0  0  0  0  0  0
  185.6510  174.9540  136.9410 C   0  0  0  0  0  3  0  0  0  0  0  0
  184.3580  174.3660  136.4140 C   0  0  0  0  0  2  0  0  0  0  0  0
  184.3240  175.4240  137.4970 C   0  0  0  0  0  2  0  0  0  0  0  0
  1 28  1  1  0  0  0
  1 16  1  0  0  0  0
  1 10  1  0  0  0  0
  2 26  1  0  0  0  0
  3  4  1  0  0  0  0
  4 20  1  0  0  0  0
  5  6  1  0  0  0  0
  6 18  2  0  0  0  0
  6 27  1  0  0  0  0
  7 23  1  0  0  0  0
  8 12  2  0  0  0  0
 10 17  1  0  0  0  0
 11 13  1  0  0  0  0
 11  3  1  0  0  0  0
 12  2  1  0  0  0  0
 12 13  1  0  0  0  0
 13 21  2  0  0  0  0
 14 22  1  0  0  0  0
 15  9  2  0  0  0  0
 16 19  1  0  0  0  0
 17  7  2  0  0  0  0
 17  8  1  0  0  0  0
 18 15  1  0  0  0  0
 19  7  1  0  0  0  0
 21 14  1  0  0  0  0
 21 20  1  0  0  0  0
 22 27  1  0  0  0  0
 23  2  2  0  0  0  0
 24  5  2  0  0  0  0
 25  9  1  0  0  0  0
 26  5  1  0  0  0  0
 26 14  2  0  0  0  0
 27 25  2  0  0  0  0
 29 28  1  0  0  0  0
 29 30  1  0  0  0  0
 30 32  1  0  0  0  0
 31 30  1  0  0  0  0
 31 32  1  0  0  0  0
M  END
>  <MODEL>
2

>  <REMARK>
 VINA RESULT:     -10.7      1.060      1.711
  Name = 
  3 active torsions:
  status: ('A' for Active; 'I' for Inactive)
    1  A    between atoms: C_1  and  C_10
    2  A    between atoms: C_2  and  C_24
    3  A    between atoms: C_10  and  C_24
                            x       y       z     vdW  Elec       q    Type
                         _______ _______ _______ _____ _____    ______ ____

>  <TORSDO>
F 3

$$$$
=
 OpenBabel10262421373D

 32 38  0  0  1  0  0  0  0  0999 V2000
  187.9420  177.7720  136.7210 C   0  0  1  0  0  3  0  0  0  0  0  0
  187.0770  178.2480  141.7950 C   0  0  0  0  0  0  0  0  0  0  0  0
  182.1280  178.5490  142.1290 C   0  0  0  0  0  2  0  0  0  0  0  0
  182.3080  179.2610  143.4560 C   0  0  0  0  0  2  0  0  0  0  0  0
  188.4640  178.0470  143.9300 C   0  0  0  0  0  0  0  0  0  0  0  0
  188.4580  177.7400  145.3680 C   0  0  0  0  0  0  0  0  0  0  0  0
  188.1330  178.0850  139.5960 C   0  0  0  0  0  0  0  0  0  0  0  0
  185.7440  178.4220  139.7620 C   0  0  0  0  0  3  0  0  0  0  0  0
  188.4200  177.1140  148.0990 C   0  0  0  0  0  3  0  0  0  0  0  0
  186.7420  178.3410  137.4800 C   0  0  0  0  0  2  0  0  0  0  0  0
  183.3320  178.8380  141.2450 C   0  0  0  0  0  2  0  0  0  0  0  0
  185.8180  178.4150  141.1650 C   0  0  0  0  0  0  0  0  0  0  0  0
  184.6530  178.5660  141.9350 C   0  0  0  0  0  0  0  0  0  0  0  0
  185.9880  178.3920  143.9790 C   0  0  0  0  0  0  0  0  0  0  0  0
  189.6020  176.9720  147.3680 C   0  0  0  0  0  3  0  0  0  0  0  0
  189.2510  178.2610  137.3480 C   0  0  0  0  0  2  0  0  0  0  0  0
  186.8810  178.2470  138.9750 C   0  0  0  0  0  0  0  0  0  0  0  0
  189.6220  177.2840  146.0060 C   0  0  0  0  0  3  0  0  0  0  0  0
  189.3780  177.8090  138.8020 C   0  0  0  0  0  2  0  0  0  0  0  0
  183.4880  178.6440  144.1920 C   0  0  0  0  0  2  0  0  0  0  0  0
  184.7400  178.5670  143.3460 C   0  0  0  0  0  0  0  0  0  0  0  0
  186.0420  178.4700  145.4900 C   0  0  0  0  0  2  0  0  0  0  0  0
  188.2140  178.0720  140.9870 C   0  0  0  0  0  3  0  0  0  0  0  0
  189.5680  178.1310  143.3260 O   0  0  0  0  0  0  0  0  0  0  0  0
  187.2610  177.5730  147.4700 C   0  0  0  0  0  3  0  0  0  0  0  0
  187.1690  178.2460  143.2110 C   0  0  0  0  0  0  0  0  0  0  0  0
  187.2720  177.8770  146.1060 C   0  0  0  0  0  0  0  0  0  0  0  0
  187.8630  176.2500  136.6540 C   0  0  0  0  0  2  0  0  0  0  0  0
  188.8390  175.7110  135.6250 C   0  0  0  0  0  2  0  0  0  0  0  0
  189.9520  174.9610  136.3250 C   0  0  0  0  0  3  0  0  0  0  0  0
  190.1820  173.6390  135.6230 C   0  0  0  0  0  2  0  0  0  0  0  0
  189.3930  173.6840  136.9140 C   0  0  0  0  0  2  0  0  0  0  0  0
  1 28  1  1  0  0  0
  1 16  1  0  0  0  0
  1 10  1  0  0  0  0
  2 26  1  0  0  0  0
  3  4  1  0  0  0  0
  4 20  1  0  0  0  0
  5  6  1  0  0  0  0
  6 18  2  0  0  0  0
  6 27  1  0  0  0  0
  7 23  1  0  0  0  0
  8 12  2  0  0  0  0
 10 17  1  0  0  0  0
 11 13  1  0  0  0  0
 11  3  1  0  0  0  0
 12  2  1  0  0  0  0
 12 13  1  0  0  0  0
 13 21  2  0  0  0  0
 14 22  1  0  0  0  0
 15  9  2  0  0  0  0
 16 19  1  0  0  0  0
 17  7  2  0  0  0  0
 17  8  1  0  0  0  0
 18 15  1  0  0  0  0
 19  7  1  0  0  0  0
 21 14  1  0  0  0  0
 21 20  1  0  0  0  0
 22 27  1  0  0  0  0
 23  2  2  0  0  0  0
 24  5  2  0  0  0  0
 25  9  1  0  0  0  0
 26  5  1  0  0  0  0
 26 14  2  0  0  0  0
 27 25  2  0  0  0  0
 29 30  1  0  0  0  0
 29 28  1  0  0  0  0
 30 32  1  0  0  0  0
 31 30  1  0  0  0  0
 31 32  1  0  0  0  0
M  END
>  <MODEL>
3

>  <REMARK>
 VINA RESULT:     -10.4      1.470      2.188
  Name = 
  3 active torsions:
  status: ('A' for Active; 'I' for Inactive)
    1  A    between atoms: C_1  and  C_10
    2  A    between atoms: C_2  and  C_24
    3  A    between atoms: C_10  and  C_24
                            x       y       z     vdW  Elec       q    Type
                         _______ _______ _______ _____ _____    ______ ____

>  <TORSDO>
F 3

$$$$
=
 OpenBabel10262421373D

 32 38  0  0  1  0  0  0  0  0999 V2000
  180.3820  178.8490  142.4500 C   0  0  1  0  0  3  0  0  0  0  0  0
  185.5320  178.4080  142.3740 C   0  0  0  0  0  0  0  0  0  0  0  0
  186.7130  177.5050  147.1160 C   0  0  0  0  0  2  0  0  0  0  0  0
  188.0980  178.0490  146.8250 C   0  0  0  0  0  2  0  0  0  0  0  0
  187.3420  178.2410  140.5810 C   0  0  0  0  0  0  0  0  0  0  0  0
  188.6850  177.7470  140.2400 C   0  0  0  0  0  0  0  0  0  0  0  0
  183.1970  178.7990  141.7620 C   0  0  0  0  0  0  0  0  0  0  0  0
  183.8050  178.5470  144.0900 C   0  0  0  0  0  3  0  0  0  0  0  0
  191.2300  176.7580  139.6100 C   0  0  0  0  0  3  0  0  0  0  0  0
  181.4150  179.0150  143.5660 C   0  0  0  0  0  2  0  0  0  0  0  0
  185.7100  178.1840  146.1940 C   0  0  0  0  0  2  0  0  0  0  0  0
  185.1540  178.3640  143.7400 C   0  0  0  0  0  0  0  0  0  0  0  0
  186.1180  178.1340  144.7350 C   0  0  0  0  0  0  0  0  0  0  0  0
  187.8540  177.9930  143.0160 C   0  0  0  0  0  0  0  0  0  0  0  0
  190.3030  176.9960  138.5930 C   0  0  0  0  0  3  0  0  0  0  0  0
  180.8650  179.5380  141.1700 C   0  0  0  0  0  2  0  0  0  0  0  0
  182.8260  178.7510  143.1190 C   0  0  0  0  0  0  0  0  0  0  0  0
  189.0340  177.4890  138.9060 C   0  0  0  0  0  3  0  0  0  0  0  0
  182.1750  178.9310  140.6700 C   0  0  0  0  0  2  0  0  0  0  0  0
  188.5110  177.6280  145.4220 C   0  0  0  0  0  2  0  0  0  0  0  0
  187.4730  177.9600  144.3730 C   0  0  0  0  0  0  0  0  0  0  0  0
  189.3250  177.8730  142.6820 C   0  0  0  0  0  2  0  0  0  0  0  0
  184.5320  178.6140  141.4070 C   0  0  0  0  0  3  0  0  0  0  0  0
  186.5920  178.6620  139.6580 O   0  0  0  0  0  0  0  0  0  0  0  0
  190.8890  177.0180  140.9400 C   0  0  0  0  0  3  0  0  0  0  0  0
  186.8900  178.2320  142.0050 C   0  0  0  0  0  0  0  0  0  0  0  0
  189.6170  177.5020  141.2600 C   0  0  0  0  0  0  0  0  0  0  0  0
  180.0590  177.3750  142.2310 C   0  0  0  0  0  2  0  0  0  0  0  0
  179.2810  177.1860  140.9420 C   0  0  0  0  0  2  0  0  0  0  0  0
  179.9670  176.1440  140.0840 C   0  0  0  0  0  3  0  0  0  0  0  0
  178.9310  175.4360  139.2350 C   0  0  0  0  0  2  0  0  0  0  0  0
  179.4700  174.7710  140.4840 C   0  0  0  0  0  2  0  0  0  0  0  0
  1 28  1  6  0  0  0
  1 10  1  0  0  0  0
  2 12  1  0  0  0  0
  4  3  1  0  0  0  0
  5 26  1  0  0  0  0
  6  5  1  0  0  0  0
  6 27  1  0  0  0  0
  7 17  1  0  0  0  0
  9 25  1  0  0  0  0
 11  3  1  0  0  0  0
 12  8  1  0  0  0  0
 12 13  2  0  0  0  0
 13 11  1  0  0  0  0
 14 21  2  0  0  0  0
 15 18  1  0  0  0  0
 15  9  2  0  0  0  0
 16  1  1  0  0  0  0
 17 10  1  0  0  0  0
 17  8  2  0  0  0  0
 18  6  2  0  0  0  0
 19 16  1  0  0  0  0
 19  7  1  0  0  0  0
 20  4  1  0  0  0  0
 21 13  1  0  0  0  0
 21 20  1  0  0  0  0
 22 14  1  0  0  0  0
 23  7  2  0  0  0  0
 23  2  1  0  0  0  0
 24  5  2  0  0  0  0
 25 27  2  0  0  0  0
 26  2  2  0  0  0  0
 26 14  1  0  0  0  0
 27 22  1  0  0  0  0
 29 28  1  0  0  0  0
 30 32  1  0  0  0  0
 30 29  1  0  0  0  0
 31 30  1  0  0  0  0
 31 32  1  0  0  0  0
M  END
>  <MODEL>
4

>  <REMARK>
 VINA RESULT:     -10.3      2.787      5.823
  Name = 
  3 active torsions:
  status: ('A' for Active; 'I' for Inactive)
    1  A    between atoms: C_1  and  C_10
    2  A    between atoms: C_2  and  C_24
    3  A    between atoms: C_10  and  C_24
                            x       y       z     vdW  Elec       q    Type
                         _______ _______ _______ _____ _____    ______ ____

>  <TORSDO>
F 3

$$$$
=
 OpenBabel10262421373D

 32 38  0  0  1  0  0  0  0  0999 V2000
  181.2100  179.7570  138.9570 C   0  0  1  0  0  3  0  0  0  0  0  0
  185.2420  178.3610  141.8750 C   0  0  0  0  0  0  0  0  0  0  0  0
  189.0800  178.4730  138.7200 C   0  0  0  0  0  2  0  0  0  0  0  0
  189.7970  177.4970  139.6320 C   0  0  0  0  0  2  0  0  0  0  0  0
  185.6810  177.9990  144.3640 C   0  0  0  0  0  0  0  0  0  0  0  0
  186.6770  178.0110  145.4450 C   0  0  0  0  0  0  0  0  0  0  0  0
  182.9920  178.8590  141.0590 C   0  0  0  0  0  0  0  0  0  0  0  0
  184.8340  178.7240  139.4980 C   0  0  0  0  0  3  0  0  0  0  0  0
  188.5930  178.0800  147.4890 C   0  0  0  0  0  3  0  0  0  0  0  0
  182.5650  179.1640  138.5690 C   0  0  0  0  0  2  0  0  0  0  0  0
  187.5790  178.2530  138.8410 C   0  0  0  0  0  2  0  0  0  0  0  0
  185.7290  178.4440  140.5460 C   0  0  0  0  0  0  0  0  0  0  0  0
  187.0950  178.2540  140.2770 C   0  0  0  0  0  0  0  0  0  0  0  0
  187.5080  177.8890  142.6610 C   0  0  0  0  0  0  0  0  0  0  0  0
  187.2410  178.2530  147.7950 C   0  0  0  0  0  3  0  0  0  0  0  0
  180.6400  179.0290  140.1780 C   0  0  0  0  0  2  0  0  0  0  0  0
  183.4800  178.9440  139.7420 C   0  0  0  0  0  0  0  0  0  0  0  0
  186.2850  178.2180  146.7760 C   0  0  0  0  0  3  0  0  0  0  0  0
  181.5600  179.1680  141.3910 C   0  0  0  0  0  2  0  0  0  0  0  0
  189.4700  177.8380  141.0780 C   0  0  0  0  0  2  0  0  0  0  0  0
  187.9840  177.9630  141.3360 C   0  0  0  0  0  0  0  0  0  0  0  0
  188.4840  177.5050  143.7520 C   0  0  0  0  0  2  0  0  0  0  0  0
  183.8730  178.5860  142.1030 C   0  0  0  0  0  3  0  0  0  0  0  0
  184.4560  177.9320  144.6600 O   0  0  0  0  0  0  0  0  0  0  0  0
  188.9880  177.8690  146.1660 C   0  0  0  0  0  3  0  0  0  0  0  0
  186.1320  178.0720  142.9410 C   0  0  0  0  0  0  0  0  0  0  0  0
  188.0370  177.8430  145.1410 C   0  0  0  0  0  0  0  0  0  0  0  0
  181.3230  181.2610  139.1770 C   0  0  0  0  0  2  0  0  0  0  0  0
  181.6960  181.9620  137.8850 C   0  0  0  0  0  2  0  0  0  0  0  0
  180.7440  183.1140  137.6400 C   0  0  0  0  0  3  0  0  0  0  0  0
  180.8050  183.5110  136.1790 C   0  0  0  0  0  2  0  0  0  0  0  0
  181.5400  184.3310  137.2190 C   0  0  0  0  0  2  0  0  0  0  0  0
  1 28  1  1  0  0  0
  1 16  1  0  0  0  0
  2 23  2  0  0  0  0
  2 26  1  0  0  0  0
  3 11  1  0  0  0  0
  3  4  1  0  0  0  0
  4 20  1  0  0  0  0
  5 24  2  0  0  0  0
  5  6  1  0  0  0  0
  6 18  1  0  0  0  0
  7 19  1  0  0  0  0
  7 23  1  0  0  0  0
  8 17  1  0  0  0  0
  8 12  2  0  0  0  0
  9 15  1  0  0  0  0
 10  1  1  0  0  0  0
 10 17  1  0  0  0  0
 11 13  1  0  0  0  0
 12  2  1  0  0  0  0
 13 12  1  0  0  0  0
 13 21  2  0  0  0  0
 14 26  2  0  0  0  0
 14 22  1  0  0  0  0
 16 19  1  0  0  0  0
 17  7  2  0  0  0  0
 18 15  2  0  0  0  0
 20 21  1  0  0  0  0
 21 14  1  0  0  0  0
 22 27  1  0  0  0  0
 25  9  2  0  0  0  0
 26  5  1  0  0  0  0
 27  6  2  0  0  0  0
 27 25  1  0  0  0  0
 29 28  1  0  0  0  0
 30 29  1  0  0  0  0
 31 32  1  0  0  0  0
 31 30  1  0  0  0  0
 32 30  1  0  0  0  0
M  END
>  <MODEL>
5

>  <REMARK>
 VINA RESULT:     -10.0      3.482      5.930
  Name = 
  3 active torsions:
  status: ('A' for Active; 'I' for Inactive)
    1  A    between atoms: C_1  and  C_10
    2  A    between atoms: C_2  and  C_24
    3  A    between atoms: C_10  and  C_24
                            x       y       z     vdW  Elec       q    Type
                         _______ _______ _______ _____ _____    ______ ____

>  <TORSDO>
F 3

$$$$
=
 OpenBabel10262421373D

 32 38  0  0  1  0  0  0  0  0999 V2000
  189.2950  177.5490  147.5590 C   0  0  1  0  0  3  0  0  0  0  0  0
  185.6330  178.4570  144.0260 C   0  0  0  0  0  0  0  0  0  0  0  0
  187.9470  177.6810  139.6970 C   0  0  0  0  0  2  0  0  0  0  0  0
  186.9160  178.5770  139.0390 C   0  0  0  0  0  2  0  0  0  0  0  0
  183.1090  178.8430  144.0420 C   0  0  0  0  0  0  0  0  0  0  0  0
  181.8490  178.7270  143.2930 C   0  0  0  0  0  0  0  0  0  0  0  0
  186.8830  178.2580  146.1180 C   0  0  0  0  0  0  0  0  0  0  0  0
  188.0400  178.0700  144.0020 C   0  0  0  0  0  3  0  0  0  0  0  0
  179.4590  178.4590  141.8540 C   0  0  0  0  0  3  0  0  0  0  0  0
  189.4060  177.9270  146.0810 C   0  0  0  0  0  2  0  0  0  0  0  0
  188.1320  178.1190  141.1430 C   0  0  0  0  0  2  0  0  0  0  0  0
  186.8360  178.2560  143.3020 C   0  0  0  0  0  0  0  0  0  0  0  0
  186.8240  178.2390  141.8980 C   0  0  0  0  0  0  0  0  0  0  0  0
  184.4080  178.6280  141.9170 C   0  0  0  0  0  0  0  0  0  0  0  0
  179.4320  178.4930  143.2500 C   0  0  0  0  0  3  0  0  0  0  0  0
  188.2190  178.3950  148.2460 C   0  0  0  0  0  2  0  0  0  0  0  0
  188.0730  178.0560  145.3950 C   0  0  0  0  0  0  0  0  0  0  0  0
  180.6230  178.6280  143.9680 C   0  0  0  0  0  3  0  0  0  0  0  0
  186.8450  178.1700  147.6160 C   0  0  0  0  0  2  0  0  0  0  0  0
  185.5630  178.3390  139.6940 C   0  0  0  0  0  2  0  0  0  0  0  0
  185.6100  178.4380  141.2030 C   0  0  0  0  0  0  0  0  0  0  0  0
  183.1450  178.9070  141.1310 C   0  0  0  0  0  2  0  0  0  0  0  0
  185.6840  178.4400  145.4310 C   0  0  0  0  0  3  0  0  0  0  0  0
  183.0670  179.0960  145.2780 O   0  0  0  0  0  0  0  0  0  0  0  0
  180.6770  178.5620  141.1770 C   0  0  0  0  0  3  0  0  0  0  0  0
  184.4110  178.6540  143.3330 C   0  0  0  0  0  0  0  0  0  0  0  0
  181.8720  178.6870  141.8900 C   0  0  0  0  0  0  0  0  0  0  0  0
  189.0460  176.0530  147.7150 C   0  0  0  0  0  2  0  0  0  0  0  0
  190.3580  175.2920  147.7190 C   0  0  0  0  0  2  0  0  0  0  0  0
  191.4950  176.2400  147.3990 C   0  0  0  0  0  3  0  0  0  0  0  0
  192.4310  175.5810  146.4060 C   0  0  0  0  0  2  0  0  0  0  0  0
  192.7960  175.6280  147.8740 C   0  0  0  0  0  2  0  0  0  0  0  0
  1 28  1  6  0  0  0
  1 16  1  0  0  0  0
  2 23  2  0  0  0  0
  3 11  1  0  0  0  0
  4 20  1  0  0  0  0
  4  3  1  0  0  0  0
  5 24  2  0  0  0  0
  6 18  1  0  0  0  0
  6  5  1  0  0  0  0
  7 19  1  0  0  0  0
  8 17  1  0  0  0  0
  9 15  1  0  0  0  0
 10  1  1  0  0  0  0
 11 13  1  0  0  0  0
 12  8  2  0  0  0  0
 12  2  1  0  0  0  0
 13 12  1  0  0  0  0
 14 26  2  0  0  0  0
 15 18  2  0  0  0  0
 17 10  1  0  0  0  0
 17  7  2  0  0  0  0
 19 16  1  0  0  0  0
 20 21  1  0  0  0  0
 21 13  2  0  0  0  0
 21 14  1  0  0  0  0
 22 27  1  0  0  0  0
 22 14  1  0  0  0  0
 23  7  1  0  0  0  0
 25  9  2  0  0  0  0
 25 27  1  0  0  0  0
 26  2  1  0  0  0  0
 26  5  1  0  0  0  0
 27  6  2  0  0  0  0
 28 29  1  0  0  0  0
 30 29  1  0  0  0  0
 30 32  1  0  0  0  0
 31 30  1  0  0  0  0
 31 32  1  0  0  0  0
M  END
>  <MODEL>
6

>  <REMARK>
 VINA RESULT:      -9.4      2.535      8.611
  Name = 
  3 active torsions:
  status: ('A' for Active; 'I' for Inactive)
    1  A    between atoms: C_1  and  C_10
    2  A    between atoms: C_2  and  C_24
    3  A    between atoms: C_10  and  C_24
                            x       y       z     vdW  Elec       q    Type
                         _______ _______ _______ _____ _____    ______ ____

>  <TORSDO>
F 3

$$$$
=
 OpenBabel10262421373D

 32 38  0  0  1  0  0  0  0  0999 V2000
  180.3370  178.8620  140.0500 C   0  0  1  0  0  3  0  0  0  0  0  0
  185.2030  178.5850  141.7730 C   0  0  0  0  0  0  0  0  0  0  0  0
  184.6910  178.1280  146.6950 C   0  0  0  0  0  2  0  0  0  0  0  0
  186.0910  178.6910  146.8450 C   0  0  0  0  0  2  0  0  0  0  0  0
  187.5180  178.3250  140.7280 C   0  0  0  0  0  0  0  0  0  0  0  0
  188.8970  177.8480  140.9110 C   0  0  0  0  0  0  0  0  0  0  0  0
  183.2170  178.8460  140.3700 C   0  0  0  0  0  0  0  0  0  0  0  0
  182.9930  178.8130  142.7780 C   0  0  0  0  0  3  0  0  0  0  0  0
  191.5060  176.8940  141.2790 C   0  0  0  0  0  3  0  0  0  0  0  0
  180.9250  179.1560  141.4310 C   0  0  0  0  0  2  0  0  0  0  0  0
  184.0640  178.6930  145.4290 C   0  0  0  0  0  2  0  0  0  0  0  0
  184.3800  178.6450  142.9260 C   0  0  0  0  0  0  0  0  0  0  0  0
  184.9460  178.5320  144.2080 C   0  0  0  0  0  0  0  0  0  0  0  0
  187.1650  178.3030  143.2030 C   0  0  0  0  0  0  0  0  0  0  0  0
  190.9820  177.0130  139.9890 C   0  0  0  0  0  3  0  0  0  0  0  0
  181.2280  179.4540  138.9540 C   0  0  0  0  0  2  0  0  0  0  0  0
  182.4050  178.9010  141.5180 C   0  0  0  0  0  0  0  0  0  0  0  0
  189.6820  177.4900  139.8050 C   0  0  0  0  0  3  0  0  0  0  0  0
  182.6310  178.8500  138.9870 C   0  0  0  0  0  2  0  0  0  0  0  0
  186.9600  178.1650  145.7120 C   0  0  0  0  0  2  0  0  0  0  0  0
  186.3430  178.3730  144.3460 C   0  0  0  0  0  0  0  0  0  0  0  0
  188.6620  178.2030  143.4020 C   0  0  0  0  0  2  0  0  0  0  0  0
  184.5940  178.6750  140.5090 C   0  0  0  0  0  3  0  0  0  0  0  0
  187.1280  178.6410  139.5700 O   0  0  0  0  0  0  0  0  0  0  0  0
  190.7300  177.2540  142.3830 C   0  0  0  0  0  3  0  0  0  0  0  0
  186.6060  178.4230  141.9070 C   0  0  0  0  0  0  0  0  0  0  0  0
  189.4240  177.7220  142.2060 C   0  0  0  0  0  0  0  0  0  0  0  0
  180.1110  177.3650  139.8690 C   0  0  0  0  0  2  0  0  0  0  0  0
  179.3000  177.0960  138.6160 C   0  0  0  0  0  2  0  0  0  0  0  0
  180.0940  176.2130  137.6770 C   0  0  0  0  0  3  0  0  0  0  0  0
  179.1870  175.7180  136.5690 C   0  0  0  0  0  2  0  0  0  0  0  0
  179.5330  174.8080  137.7280 C   0  0  0  0  0  2  0  0  0  0  0  0
  1 28  1  6  0  0  0
  1 10  1  0  0  0  0
  2 26  2  0  0  0  0
  2 12  1  0  0  0  0
  3  4  1  0  0  0  0
  5  6  1  0  0  0  0
  5 26  1  0  0  0  0
  6 27  1  0  0  0  0
  7 23  2  0  0  0  0
  7 17  1  0  0  0  0
  8 12  1  0  0  0  0
  9 25  1  0  0  0  0
 10 17  1  0  0  0  0
 11  3  1  0  0  0  0
 12 13  2  0  0  0  0
 13 21  1  0  0  0  0
 13 11  1  0  0  0  0
 14 22  1  0  0  0  0
 14 21  2  0  0  0  0
 15  9  2  0  0  0  0
 16 19  1  0  0  0  0
 16  1  1  0  0  0  0
 17  8  2  0  0  0  0
 18 15  1  0  0  0  0
 18  6  2  0  0  0  0
 19  7  1  0  0  0  0
 20  4  1  0  0  0  0
 21 20  1  0  0  0  0
 23  2  1  0  0  0  0
 24  5  2  0  0  0  0
 26 14  1  0  0  0  0
 27 25  2  0  0  0  0
 27 22  1  0  0  0  0
 29 28  1  0  0  0  0
 30 32  1  0  0  0  0
 30 29  1  0  0  0  0
 31 30  1  0  0  0  0
 31 32  1  0  0  0  0
M  END
>  <MODEL>
7

>  <REMARK>
 VINA RESULT:      -9.3      3.102      5.008
  Name = 
  3 active torsions:
  status: ('A' for Active; 'I' for Inactive)
    1  A    between atoms: C_1  and  C_10
    2  A    between atoms: C_2  and  C_24
    3  A    between atoms: C_10  and  C_24
                            x       y       z     vdW  Elec       q    Type
                         _______ _______ _______ _____ _____    ______ ____

>  <TORSDO>
F 3

$$$$
=
 OpenBabel10262421373D

 32 38  0  0  1  0  0  0  0  0999 V2000
  191.8870  176.2320  137.3020 C   0  0  1  0  0  3  0  0  0  0  0  0
  188.5280  177.7820  140.9120 C   0  0  0  0  0  0  0  0  0  0  0  0
  184.2940  178.4260  138.3910 C   0  0  0  0  0  2  0  0  0  0  0  0
  183.8470  179.3820  139.4790 C   0  0  0  0  0  2  0  0  0  0  0  0
  188.5020  177.9420  143.4600 C   0  0  0  0  0  0  0  0  0  0  0  0
  187.6780  177.9370  144.6780 C   0  0  0  0  0  0  0  0  0  0  0  0
  190.5560  177.1140  139.7200 C   0  0  0  0  0  0  0  0  0  0  0  0
  188.5400  177.6140  138.4800 C   0  0  0  0  0  3  0  0  0  0  0  0
  186.0830  177.8830  146.9820 C   0  0  0  0  0  3  0  0  0  0  0  0
  190.5770  177.0120  137.1770 C   0  0  0  0  0  2  0  0  0  0  0  0
  185.8130  178.4590  138.2960 C   0  0  0  0  0  2  0  0  0  0  0  0
  187.8490  177.8880  139.6720 C   0  0  0  0  0  0  0  0  0  0  0  0
  186.4950  178.2600  139.6340 C   0  0  0  0  0  0  0  0  0  0  0  0
  186.4780  178.4300  142.0750 C   0  0  0  0  0  0  0  0  0  0  0  0
  187.4320  177.5280  147.0590 C   0  0  0  0  0  3  0  0  0  0  0  0
  192.7150  176.7650  138.4750 C   0  0  0  0  0  2  0  0  0  0  0  0
  189.8760  177.2170  138.4920 C   0  0  0  0  0  0  0  0  0  0  0  0
  188.2280  177.5550  145.9110 C   0  0  0  0  0  3  0  0  0  0  0  0
  191.9690  176.6120  139.8000 C   0  0  0  0  0  2  0  0  0  0  0  0
  184.3320  178.8620  140.8250 C   0  0  0  0  0  2  0  0  0  0  0  0
  185.8110  178.5430  140.8380 C   0  0  0  0  0  0  0  0  0  0  0  0
  185.7260  178.8120  143.3320 C   0  0  0  0  0  2  0  0  0  0  0  0
  189.8760  177.3810  140.9070 C   0  0  0  0  0  3  0  0  0  0  0  0
  189.7550  177.8390  143.5680 O   0  0  0  0  0  0  0  0  0  0  0  0
  185.5330  178.2690  145.7570 C   0  0  0  0  0  3  0  0  0  0  0  0
  187.8460  178.0640  142.1230 C   0  0  0  0  0  0  0  0  0  0  0  0
  186.3220  178.2880  144.6030 C   0  0  0  0  0  0  0  0  0  0  0  0
  191.6150  174.7360  137.4140 C   0  0  0  0  0  2  0  0  0  0  0  0
  190.5380  174.3160  136.4310 C   0  0  0  0  0  2  0  0  0  0  0  0
  189.3830  173.6870  137.1820 C   0  0  0  0  0  3  0  0  0  0  0  0
  188.5030  172.9350  136.2050 C   0  0  0  0  0  2  0  0  0  0  0  0
  188.0870  174.3030  136.7010 C   0  0  0  0  0  2  0  0  0  0  0  0
  1 28  1  1  0  0  0
  1 16  1  0  0  0  0
  2 26  1  0  0  0  0
  3  4  1  0  0  0  0
  4 20  1  0  0  0  0
  5 24  2  0  0  0  0
  5  6  1  0  0  0  0
  6 18  1  0  0  0  0
  7 19  1  0  0  0  0
  7 23  1  0  0  0  0
  8 17  1  0  0  0  0
  8 12  2  0  0  0  0
  9 15  1  0  0  0  0
 10  1  1  0  0  0  0
 10 17  1  0  0  0  0
 11  3  1  0  0  0  0
 11 13  1  0  0  0  0
 12  2  1  0  0  0  0
 13 12  1  0  0  0  0
 13 21  2  0  0  0  0
 14 26  2  0  0  0  0
 14 22  1  0  0  0  0
 16 19  1  0  0  0  0
 17  7  2  0  0  0  0
 18 15  2  0  0  0  0
 20 21  1  0  0  0  0
 21 14  1  0  0  0  0
 22 27  1  0  0  0  0
 23  2  2  0  0  0  0
 25  9  2  0  0  0  0
 26  5  1  0  0  0  0
 27  6  2  0  0  0  0
 27 25  1  0  0  0  0
 29 30  1  0  0  0  0
 29 28  1  0  0  0  0
 31 32  1  0  0  0  0
 31 30  1  0  0  0  0
 32 30  1  0  0  0  0
M  END
>  <MODEL>
8

>  <REMARK>
 VINA RESULT:      -9.3      1.926      3.753
  Name = 
  3 active torsions:
  status: ('A' for Active; 'I' for Inactive)
    1  A    between atoms: C_1  and  C_10
    2  A    between atoms: C_2  and  C_24
    3  A    between atoms: C_10  and  C_24
                            x       y       z     vdW  Elec       q    Type
                         _______ _______ _______ _____ _____    ______ ____

>  <TORSDO>
F 3

$$$$
=
 OpenBabel10262421373D

 32 38  0  0  1  0  0  0  0  0999 V2000
  192.1820  175.8630  136.0470 C   0  0  1  0  0  3  0  0  0  0  0  0
  190.1330  177.3120  140.5660 C   0  0  0  0  0  0  0  0  0  0  0  0
  185.3790  178.2510  139.4640 C   0  0  0  0  0  2  0  0  0  0  0  0
  185.3250  179.1560  140.6790 C   0  0  0  0  0  2  0  0  0  0  0  0
  190.8740  177.3210  143.0090 C   0  0  0  0  0  0  0  0  0  0  0  0
  190.4510  177.2720  144.4170 C   0  0  0  0  0  0  0  0  0  0  0  0
  191.6770  176.6460  138.7910 C   0  0  0  0  0  0  0  0  0  0  0  0
  189.4120  177.2880  138.2370 C   0  0  0  0  0  3  0  0  0  0  0  0
  189.6130  177.1380  147.0880 C   0  0  0  0  0  3  0  0  0  0  0  0
  190.9360  176.6940  136.3570 C   0  0  0  0  0  2  0  0  0  0  0  0
  186.8010  178.2370  138.9200 C   0  0  0  0  0  2  0  0  0  0  0  0
  189.1220  177.5150  139.5930 C   0  0  0  0  0  0  0  0  0  0  0  0
  187.8380  177.9350  139.9810 C   0  0  0  0  0  0  0  0  0  0  0  0
  188.5580  177.9610  142.3200 C   0  0  0  0  0  0  0  0  0  0  0  0
  190.9040  176.7310  146.7410 C   0  0  0  0  0  3  0  0  0  0  0  0
  193.3470  176.2950  136.9410 C   0  0  0  0  0  2  0  0  0  0  0  0
  190.6690  176.8450  137.8300 C   0  0  0  0  0  0  0  0  0  0  0  0
  191.3230  176.7980  145.4090 C   0  0  0  0  0  3  0  0  0  0  0  0
  193.0220  176.0900  138.4210 C   0  0  0  0  0  2  0  0  0  0  0  0
  186.1620  178.5410  141.7920 C   0  0  0  0  0  2  0  0  0  0  0  0
  187.5600  178.1700  141.3460 C   0  0  0  0  0  0  0  0  0  0  0  0
  188.2350  178.2930  143.7600 C   0  0  0  0  0  2  0  0  0  0  0  0
  191.3950  176.8650  140.1390 C   0  0  0  0  0  3  0  0  0  0  0  0
  192.0960  177.1680  142.7320 O   0  0  0  0  0  0  0  0  0  0  0  0
  188.7440  177.6140  146.1040 C   0  0  0  0  0  3  0  0  0  0  0  0
  189.8570  177.5440  141.9380 C   0  0  0  0  0  0  0  0  0  0  0  0
  189.1530  177.6740  144.7690 C   0  0  0  0  0  0  0  0  0  0  0  0
  191.8790  174.3730  136.1660 C   0  0  0  0  0  2  0  0  0  0  0  0
  190.6360  174.0170  135.3730 C   0  0  0  0  0  2  0  0  0  0  0  0
  189.5440  173.5600  136.3180 C   0  0  0  0  0  3  0  0  0  0  0  0
  188.6340  172.5880  135.5950 C   0  0  0  0  0  2  0  0  0  0  0  0
  188.2060  174.0270  135.7880 C   0  0  0  0  0  2  0  0  0  0  0  0
  1 28  1  1  0  0  0
  1 10  1  0  0  0  0
  1 16  1  0  0  0  0
  2 26  1  0  0  0  0
  3  4  1  0  0  0  0
  4 20  1  0  0  0  0
  5  6  1  0  0  0  0
  6 27  2  0  0  0  0
  6 18  1  0  0  0  0
  7 23  1  0  0  0  0
  8 12  2  0  0  0  0
 10 17  1  0  0  0  0
 11  3  1  0  0  0  0
 11 13  1  0  0  0  0
 12 13  1  0  0  0  0
 12  2  1  0  0  0  0
 13 21  2  0  0  0  0
 14 22  1  0  0  0  0
 15  9  1  0  0  0  0
 16 19  1  0  0  0  0
 17  8  1  0  0  0  0
 17  7  2  0  0  0  0
 18 15  2  0  0  0  0
 19  7  1  0  0  0  0
 21 20  1  0  0  0  0
 21 14  1  0  0  0  0
 22 27  1  0  0  0  0
 23  2  2  0  0  0  0
 24  5  2  0  0  0  0
 25  9  2  0  0  0  0
 26 14  2  0  0  0  0
 26  5  1  0  0  0  0
 27 25  1  0  0  0  0
 29 28  1  0  0  0  0
 29 30  1  0  0  0  0
 31 32  1  0  0  0  0
 31 30  1  0  0  0  0
 32 30  1  0  0  0  0
M  END
>  <MODEL>
9

>  <REMARK>
 VINA RESULT:      -9.0      2.269      3.500
  Name = 
  3 active torsions:
  status: ('A' for Active; 'I' for Inactive)
    1  A    between atoms: C_1  and  C_10
    2  A    between atoms: C_2  and  C_24
    3  A    between atoms: C_10  and  C_24
                            x       y       z     vdW  Elec       q    Type
                         _______ _______ _______ _____ _____    ______ ____

>  <TORSDO>
F 3

$$$$
