=
 OpenBabel10262421243D

 32 36  0  0  1  0  0  0  0  0999 V2000
  193.6540  177.3490  139.0370 C   0  0  0  0  0  3  0  0  0  0  0  0
  188.5600  177.1910  141.0760 C   0  0  0  0  0  3  0  0  0  0  0  0
  191.3840  176.9010  146.3540 C   0  0  0  0  0  3  0  0  0  0  0  0
  190.0610  176.7470  146.8240 C   0  0  0  0  0  3  0  0  0  0  0  0
  190.6410  176.7520  139.7440 C   0  0  0  0  0  0  0  0  0  0  0  0
  191.5930  177.4440  141.8980 N   0  0  0  0  0  0  0  0  0  0  0  0
  192.9390  177.8640  140.0320 C   0  0  0  0  0  3  0  0  0  0  0  0
  191.6460  177.0250  144.9780 C   0  0  0  0  0  3  0  0  0  0  0  0
  190.4920  177.0900  142.7380 C   0  0  0  0  0  0  0  0  0  0  0  0
  190.5570  176.9810  144.1100 C   0  0  0  0  0  0  0  0  0  0  0  0
  188.3990  176.8780  143.5330 N   0  0  0  0  0  0  0  0  0  0  0  0
  192.1920  175.5630  138.1320 C   0  0  0  0  0  3  0  0  0  0  0  0
  191.7080  177.3200  140.6090 C   0  0  0  0  0  0  0  0  0  0  0  0
  190.8980  176.0040  138.6720 C   0  0  0  0  0  3  0  0  0  0  0  0
  193.4020  176.1070  138.2930 C   0  0  0  0  0  0  0  0  0  0  0  0
  188.9810  176.7180  145.9230 C   0  0  0  0  0  3  0  0  0  0  0  0
  189.2690  176.8380  144.5620 C   0  0  0  0  0  0  0  0  0  0  0  0
  189.2150  177.0590  139.9280 C   0  0  0  0  0  3  0  0  0  0  0  0
  189.1430  177.0350  142.4090 C   0  0  0  0  0  0  0  0  0  0  0  0
  195.4860  174.6010  138.1610 C   0  0  0  0  0  0  0  0  0  0  0  0
  194.5380  175.5350  137.6260 N   0  0  0  0  0  2  0  0  0  0  0  0
  195.4190  174.2080  139.3550 O   0  0  0  0  0  0  0  0  0  0  0  0
  196.7960  173.9920  137.1130 S   0  0  0  0  0  1  0  0  0  0  0  0
  186.9440  176.8060  143.6180 C   0  0  0  0  0  2  0  0  0  0  0  0
  184.5470  178.0380  142.8320 O   0  0  0  0  0  1  0  0  0  0  0  0
  184.5750  179.6710  144.6280 C   0  0  2  0  0  3  0  0  0  0  0  0
  186.3940  177.9910  144.4030 C   0  0  2  0  0  3  0  0  0  0  0  0
  185.7060  178.6910  146.4510 C   0  0  0  0  0  2  0  0  0  0  0  0
  185.3130  179.9080  145.8130 O   0  0  0  0  0  0  0  0  0  0  0  0
  183.1840  179.1220  144.9420 C   0  0  0  0  0  1  0  0  0  0  0  0
  185.7960  177.5630  145.5940 O   0  0  0  0  0  0  0  0  0  0  0  0
  185.3870  178.8350  143.6180 C   0  0  1  0  0  3  0  0  0  0  0  0
  1  7  1  0  0  0  0
  2 19  2  0  0  0  0
  3  4  1  0  0  0  0
  5 18  2  0  0  0  0
  5 13  1  0  0  0  0
  6  9  2  0  0  0  0
  7 13  2  0  0  0  0
  8  3  2  0  0  0  0
  9 10  1  0  0  0  0
 10 17  2  0  0  0  0
 10  8  1  0  0  0  0
 11 24  1  0  0  0  0
 11 17  1  0  0  0  0
 12 15  1  0  0  0  0
 12 14  2  0  0  0  0
 13  6  1  0  0  0  0
 14  5  1  0  0  0  0
 15  1  2  0  0  0  0
 16  4  2  0  0  0  0
 17 16  1  0  0  0  0
 18  2  1  0  0  0  0
 19  9  1  0  0  0  0
 19 11  1  0  0  0  0
 20 22  2  0  0  0  0
 21 20  1  0  0  0  0
 21 15  1  0  0  0  0
 23 20  1  0  0  0  0
 26 30  1  1  0  0  0
 26 29  1  0  0  0  0
 27 24  1  6  0  0  0
 27 31  1  0  0  0  0
 29 28  1  0  0  0  0
 31 28  1  0  0  0  0
 32 25  1  1  0  0  0
 32 27  1  0  0  0  0
 32 26  1  0  0  0  0
M  END
>  <MODEL>
1

>  <REMARK>
 VINA RESULT:      -8.7      0.000      0.000
  Name = 
  3 active torsions:
  status: ('A' for Active; 'I' for Inactive)
    1  A    between atoms: N_10  and  C_24
    2  A    between atoms: C_11  and  C_27
    3  A    between atoms: N_16  and  C_27
                            x       y       z     vdW  Elec       q    Type
                         _______ _______ _______ _____ _____    ______ ____

>  <TORSDO>
F 3

$$$$
=
 OpenBabel10262421243D

 32 36  0  0  1  0  0  0  0  0999 V2000
  193.0860  176.4120  138.9750 C   0  0  0  0  0  3  0  0  0  0  0  0
  188.2400  178.8610  139.7830 C   0  0  0  0  0  3  0  0  0  0  0  0
  188.8910  176.8370  145.3870 C   0  0  0  0  0  3  0  0  0  0  0  0
  187.5940  177.3800  145.5180 C   0  0  0  0  0  3  0  0  0  0  0  0
  190.1150  177.4610  138.8770 C   0  0  0  0  0  0  0  0  0  0  0  0
  190.6160  177.4270  141.2800 N   0  0  0  0  0  0  0  0  0  0  0  0
  192.4670  177.1720  139.8720 C   0  0  0  0  0  3  0  0  0  0  0  0
  189.5650  176.8780  144.1530 C   0  0  0  0  0  3  0  0  0  0  0  0
  189.2960  177.6640  141.7730 C   0  0  0  0  0  0  0  0  0  0  0  0
  188.9000  177.4630  143.0770 C   0  0  0  0  0  0  0  0  0  0  0  0
  187.2450  178.5470  142.0360 N   0  0  0  0  0  0  0  0  0  0  0  0
  191.2660  175.7210  137.4400 C   0  0  0  0  0  3  0  0  0  0  0  0
  191.0210  177.3310  140.0480 C   0  0  0  0  0  0  0  0  0  0  0  0
  190.2660  176.7490  137.7610 C   0  0  0  0  0  3  0  0  0  0  0  0
  192.4810  175.5330  137.9650 C   0  0  0  0  0  0  0  0  0  0  0  0
  186.9540  177.9760  144.4150 C   0  0  0  0  0  3  0  0  0  0  0  0
  187.6420  177.9980  143.2010 C   0  0  0  0  0  0  0  0  0  0  0  0
  189.0440  178.4640  138.8020 C   0  0  0  0  0  3  0  0  0  0  0  0
  188.2570  178.3480  141.1540 C   0  0  0  0  0  0  0  0  0  0  0  0
  194.5640  174.6240  136.7560 C   0  0  0  0  0  0  0  0  0  0  0  0
  193.3230  174.4850  137.4620 N   0  0  0  0  0  2  0  0  0  0  0  0
  195.0300  175.7570  136.4640 O   0  0  0  0  0  0  0  0  0  0  0  0
  195.4610  173.1590  136.2700 S   0  0  0  0  0  1  0  0  0  0  0  0
  185.9910  179.2510  141.7850 C   0  0  0  0  0  2  0  0  0  0  0  0
  183.2850  178.6490  142.2310 O   0  0  0  0  0  1  0  0  0  0  0  0
  182.9650  177.5980  140.0660 C   0  0  2  0  0  3  0  0  0  0  0  0
  185.1760  178.5290  140.7170 C   0  0  2  0  0  3  0  0  0  0  0  0
  184.4690  178.6170  138.5610 C   0  0  0  0  0  2  0  0  0  0  0  0
  183.6870  177.4570  138.8560 O   0  0  0  0  0  0  0  0  0  0  0  0
  181.8260  178.6050  139.9170 C   0  0  0  0  0  1  0  0  0  0  0  0
  184.8220  179.4070  139.6860 O   0  0  0  0  0  0  0  0  0  0  0  0
  183.9090  177.8610  141.2560 C   0  0  1  0  0  3  0  0  0  0  0  0
  1  7  1  0  0  0  0
  2 19  2  0  0  0  0
  3  4  1  0  0  0  0
  5 13  1  0  0  0  0
  6  9  2  0  0  0  0
  7 13  2  0  0  0  0
  8  3  2  0  0  0  0
  9 10  1  0  0  0  0
 10 17  2  0  0  0  0
 10  8  1  0  0  0  0
 11 17  1  0  0  0  0
 12 14  2  0  0  0  0
 12 15  1  0  0  0  0
 13  6  1  0  0  0  0
 14  5  1  0  0  0  0
 15  1  2  0  0  0  0
 16  4  2  0  0  0  0
 17 16  1  0  0  0  0
 18  5  2  0  0  0  0
 18  2  1  0  0  0  0
 19  9  1  0  0  0  0
 19 11  1  0  0  0  0
 20 21  1  0  0  0  0
 21 15  1  0  0  0  0
 22 20  2  0  0  0  0
 23 20  1  0  0  0  0
 24 11  1  0  0  0  0
 26 30  1  6  0  0  0
 26 32  1  0  0  0  0
 27 32  1  0  0  0  0
 27 24  1  1  0  0  0
 28 29  1  0  0  0  0
 28 31  1  0  0  0  0
 29 26  1  0  0  0  0
 31 27  1  0  0  0  0
 32 25  1  1  0  0  0
M  END
>  <MODEL>
2

>  <REMARK>
 VINA RESULT:      -8.4      2.330      3.262
  Name = 
  3 active torsions:
  status: ('A' for Active; 'I' for Inactive)
    1  A    between atoms: N_10  and  C_24
    2  A    between atoms: C_11  and  C_27
    3  A    between atoms: N_16  and  C_27
                            x       y       z     vdW  Elec       q    Type
                         _______ _______ _______ _____ _____    ______ ____

>  <TORSDO>
F 3

$$$$
=
 OpenBabel10262421243D

 32 36  0  0  1  0  0  0  0  0999 V2000
  189.9950  177.6670  139.1420 C   0  0  0  0  0  3  0  0  0  0  0  0
  184.6390  178.7900  138.7050 C   0  0  0  0  0  3  0  0  0  0  0  0
  184.8030  178.7100  144.6950 C   0  0  0  0  0  3  0  0  0  0  0  0
  183.4110  178.8830  144.5340 C   0  0  0  0  0  3  0  0  0  0  0  0
  186.9200  177.7710  138.4580 C   0  0  0  0  0  0  0  0  0  0  0  0
  187.0020  178.5650  140.7800 N   0  0  0  0  0  0  0  0  0  0  0  0
  189.0700  178.4470  139.6920 C   0  0  0  0  0  3  0  0  0  0  0  0
  185.6450  178.5850  143.5760 C   0  0  0  0  0  3  0  0  0  0  0  0
  185.6000  178.5540  141.0560 C   0  0  0  0  0  0  0  0  0  0  0  0
  185.0500  178.6290  142.3170 C   0  0  0  0  0  0  0  0  0  0  0  0
  183.3830  178.8650  140.8450 N   0  0  0  0  0  0  0  0  0  0  0  0
  188.6780  176.0880  137.7560 C   0  0  0  0  0  3  0  0  0  0  0  0
  187.6200  178.2390  139.6830 C   0  0  0  0  0  0  0  0  0  0  0  0
  187.4220  176.8430  137.6450 C   0  0  0  0  0  3  0  0  0  0  0  0
  189.7970  176.4050  138.4170 C   0  0  0  0  0  0  0  0  0  0  0  0
  182.8420  178.9370  143.2480 C   0  0  0  0  0  3  0  0  0  0  0  0
  183.6990  178.8040  142.1540 C   0  0  0  0  0  0  0  0  0  0  0  0
  185.6670  178.3710  137.9750 C   0  0  0  0  0  3  0  0  0  0  0  0
  184.5470  178.7140  140.1640 C   0  0  0  0  0  0  0  0  0  0  0  0
  192.0020  175.5650  137.3880 C   0  0  0  0  0  0  0  0  0  0  0  0
  190.9370  175.5350  138.3490 N   0  0  0  0  0  2  0  0  0  0  0  0
  192.0040  176.3880  136.4360 O   0  0  0  0  0  0  0  0  0  0  0  0
  193.3470  174.4010  137.5410 S   0  0  0  0  0  1  0  0  0  0  0  0
  182.0580  179.0890  140.2760 C   0  0  0  0  0  2  0  0  0  0  0  0
  179.5270  179.0000  139.0640 O   0  0  0  0  0  1  0  0  0  0  0  0
  179.1600  176.6520  139.5630 C   0  0  2  0  0  3  0  0  0  0  0  0
  181.2540  177.7930  140.2660 C   0  0  2  0  0  3  0  0  0  0  0  0
  181.2760  175.6110  139.6380 C   0  0  0  0  0  2  0  0  0  0  0  0
  179.9110  175.5600  140.0610 O   0  0  0  0  0  0  0  0  0  0  0  0
  178.9330  176.5260  138.0570 C   0  0  0  0  0  1  0  0  0  0  0  0
  181.7560  176.9050  139.3080 O   0  0  0  0  0  0  0  0  0  0  0  0
  179.7580  177.9990  140.0160 C   0  0  1  0  0  3  0  0  0  0  0  0
  1  7  1  0  0  0  0
  2 19  2  0  0  0  0
  4  3  1  0  0  0  0
  5 13  1  0  0  0  0
  6  9  2  0  0  0  0
  8  3  2  0  0  0  0
  9 10  1  0  0  0  0
 10  8  1  0  0  0  0
 11 17  1  0  0  0  0
 12 15  1  0  0  0  0
 13  7  2  0  0  0  0
 13  6  1  0  0  0  0
 14 12  2  0  0  0  0
 14  5  1  0  0  0  0
 15  1  2  0  0  0  0
 16  4  2  0  0  0  0
 17 10  2  0  0  0  0
 17 16  1  0  0  0  0
 18  5  2  0  0  0  0
 18  2  1  0  0  0  0
 19 11  1  0  0  0  0
 19  9  1  0  0  0  0
 20 23  1  0  0  0  0
 20 21  1  0  0  0  0
 21 15  1  0  0  0  0
 22 20  2  0  0  0  0
 24 11  1  0  0  0  0
 26 30  1  6  0  0  0
 26 32  1  0  0  0  0
 26 29  1  0  0  0  0
 27 24  1  6  0  0  0
 28 29  1  0  0  0  0
 31 28  1  0  0  0  0
 31 27  1  0  0  0  0
 32 25  1  6  0  0  0
 32 27  1  0  0  0  0
M  END
>  <MODEL>
3

>  <REMARK>
 VINA RESULT:      -8.3      4.161      5.907
  Name = 
  3 active torsions:
  status: ('A' for Active; 'I' for Inactive)
    1  A    between atoms: N_10  and  C_24
    2  A    between atoms: C_11  and  C_27
    3  A    between atoms: N_16  and  C_27
                            x       y       z     vdW  Elec       q    Type
                         _______ _______ _______ _____ _____    ______ ____

>  <TORSDO>
F 3

$$$$
=
 OpenBabel10262421243D

 32 36  0  0  1  0  0  0  0  0999 V2000
  184.9150  179.2620  144.9650 C   0  0  0  0  0  3  0  0  0  0  0  0
  184.5810  178.7560  139.5090 C   0  0  0  0  0  3  0  0  0  0  0  0
  178.9380  177.1010  140.6650 C   0  0  0  0  0  3  0  0  0  0  0  0
  178.9330  176.8750  139.2710 C   0  0  0  0  0  3  0  0  0  0  0  0
  185.3000  178.5970  141.9080 C   0  0  0  0  0  0  0  0  0  0  0  0
  182.8600  178.7130  142.1510 N   0  0  0  0  0  0  0  0  0  0  0  0
  184.0830  179.5390  143.9660 C   0  0  0  0  0  3  0  0  0  0  0  0
  180.1010  177.5510  141.3140 C   0  0  0  0  0  3  0  0  0  0  0  0
  182.4970  178.1960  140.8690 C   0  0  0  0  0  0  0  0  0  0  0  0
  181.2370  177.7520  140.5320 C   0  0  0  0  0  0  0  0  0  0  0  0
  182.4340  177.8550  138.6470 N   0  0  0  0  0  0  0  0  0  0  0  0
  186.6180  177.7960  143.9180 C   0  0  0  0  0  3  0  0  0  0  0  0
  184.0470  178.9060  142.6450 C   0  0  0  0  0  0  0  0  0  0  0  0
  186.3960  178.1270  142.5040 C   0  0  0  0  0  3  0  0  0  0  0  0
  185.9770  178.2480  145.0010 C   0  0  0  0  0  0  0  0  0  0  0  0
  180.0930  177.0990  138.5060 C   0  0  0  0  0  3  0  0  0  0  0  0
  181.2360  177.5400  139.1760 C   0  0  0  0  0  0  0  0  0  0  0  0
  185.4790  178.8910  140.4790 C   0  0  0  0  0  3  0  0  0  0  0  0
  183.2140  178.2610  139.6800 C   0  0  0  0  0  0  0  0  0  0  0  0
  187.7300  177.8060  146.8340 C   0  0  0  0  0  0  0  0  0  0  0  0
  186.3950  177.8250  146.3070 N   0  0  0  0  0  2  0  0  0  0  0  0
  188.7180  178.1450  146.1310 O   0  0  0  0  0  0  0  0  0  0  0  0
  187.9950  177.2790  148.5190 S   0  0  0  0  0  1  0  0  0  0  0  0
  182.8060  177.8070  137.2360 C   0  0  0  0  0  2  0  0  0  0  0  0
  185.4230  177.3830  136.3120 O   0  0  0  0  0  1  0  0  0  0  0  0
  185.1360  174.9890  136.0230 C   0  0  2  0  0  3  0  0  0  0  0  0
  183.2700  176.4060  136.8530 C   0  0  2  0  0  3  0  0  0  0  0  0
  183.5340  174.2780  137.6010 C   0  0  0  0  0  2  0  0  0  0  0  0
  184.1730  174.0040  136.3520 O   0  0  0  0  0  0  0  0  0  0  0  0
  186.3620  174.8890  136.9310 C   0  0  0  0  0  1  0  0  0  0  0  0
  183.5380  175.6420  137.9940 O   0  0  0  0  0  0  0  0  0  0  0  0
  184.5030  176.3920  135.9460 C   0  0  1  0  0  3  0  0  0  0  0  0
  1 15  1  0  0  0  0
  2 19  1  0  0  0  0
  2 18  2  0  0  0  0
  3  8  1  0  0  0  0
  4  3  2  0  0  0  0
  5 14  2  0  0  0  0
  5 13  1  0  0  0  0
  6 13  2  0  0  0  0
  7  1  2  0  0  0  0
  9  6  1  0  0  0  0
 10  9  1  0  0  0  0
 10  8  2  0  0  0  0
 11 17  1  0  0  0  0
 11 19  1  0  0  0  0
 12 15  2  0  0  0  0
 13  7  1  0  0  0  0
 14 12  1  0  0  0  0
 15 21  1  0  0  0  0
 16 17  2  0  0  0  0
 16  4  1  0  0  0  0
 17 10  1  0  0  0  0
 18  5  1  0  0  0  0
 19  9  2  0  0  0  0
 20 23  1  0  0  0  0
 21 20  1  0  0  0  0
 22 20  2  0  0  0  0
 24 11  1  0  0  0  0
 26 29  1  0  0  0  0
 26 30  1  1  0  0  0
 27 24  1  1  0  0  0
 27 31  1  0  0  0  0
 28 31  1  0  0  0  0
 29 28  1  0  0  0  0
 32 26  1  0  0  0  0
 32 25  1  1  0  0  0
 32 27  1  0  0  0  0
M  END
>  <MODEL>
4

>  <REMARK>
 VINA RESULT:      -7.6      5.809      9.680
  Name = 
  3 active torsions:
  status: ('A' for Active; 'I' for Inactive)
    1  A    between atoms: N_10  and  C_24
    2  A    between atoms: C_11  and  C_27
    3  A    between atoms: N_16  and  C_27
                            x       y       z     vdW  Elec       q    Type
                         _______ _______ _______ _____ _____    ______ ____

>  <TORSDO>
F 3

$$$$
=
 OpenBabel10262421243D

 32 36  0  0  1  0  0  0  0  0999 V2000
  188.6580  178.2530  142.8720 C   0  0  0  0  0  3  0  0  0  0  0  0
  192.7160  177.1040  139.3580 C   0  0  0  0  0  3  0  0  0  0  0  0
  188.3310  174.5930  136.1350 C   0  0  0  0  0  3  0  0  0  0  0  0
  189.4210  174.2180  135.3190 C   0  0  0  0  0  3  0  0  0  0  0  0
  191.3010  177.3400  141.4170 C   0  0  0  0  0  0  0  0  0  0  0  0
  189.5820  177.0380  139.6910 N   0  0  0  0  0  0  0  0  0  0  0  0
  188.9080  178.2640  141.5670 C   0  0  0  0  0  3  0  0  0  0  0  0
  188.5400  175.3140  137.3250 C   0  0  0  0  0  3  0  0  0  0  0  0
  190.3680  176.3280  138.7330 C   0  0  0  0  0  0  0  0  0  0  0  0
  189.8540  175.6290  137.6620 C   0  0  0  0  0  0  0  0  0  0  0  0
  192.0700  175.7410  137.3860 N   0  0  0  0  0  0  0  0  0  0  0  0
  190.5820  177.0130  143.8240 C   0  0  0  0  0  3  0  0  0  0  0  0
  189.9330  177.4950  140.8570 C   0  0  0  0  0  0  0  0  0  0  0  0
  191.5360  177.1430  142.7140 C   0  0  0  0  0  3  0  0  0  0  0  0
  189.3240  177.4580  143.9120 C   0  0  0  0  0  0  0  0  0  0  0  0
  190.7370  174.5630  135.6810 C   0  0  0  0  0  3  0  0  0  0  0  0
  190.9170  175.2740  136.8690 C   0  0  0  0  0  0  0  0  0  0  0  0
  192.5190  177.5030  140.6100 C   0  0  0  0  0  3  0  0  0  0  0  0
  191.7420  176.3920  138.5300 C   0  0  0  0  0  0  0  0  0  0  0  0
  189.0690  177.3350  146.4710 C   0  0  0  0  0  0  0  0  0  0  0  0
  188.5800  177.2620  145.1240 N   0  0  0  0  0  2  0  0  0  0  0  0
  190.2840  177.5530  146.7170 O   0  0  0  0  0  0  0  0  0  0  0  0
  187.9300  177.1000  147.8260 S   0  0  0  0  0  1  0  0  0  0  0  0
  193.4040  175.6070  136.8080 C   0  0  0  0  0  2  0  0  0  0  0  0
  194.9160  173.7460  135.3470 O   0  0  0  0  0  1  0  0  0  0  0  0
  195.7190  172.5690  137.3130 C   0  0  2  0  0  3  0  0  0  0  0  0
  194.1940  174.5200  137.5290 C   0  0  2  0  0  3  0  0  0  0  0  0
  195.8060  174.1300  139.0790 C   0  0  0  0  0  2  0  0  0  0  0  0
  195.7070  172.7510  138.7170 O   0  0  0  0  0  0  0  0  0  0  0  0
  197.1020  172.8560  136.7300 C   0  0  0  0  0  1  0  0  0  0  0  0
  195.3630  175.0460  138.0900 O   0  0  0  0  0  0  0  0  0  0  0  0
  194.5630  173.3320  136.6370 C   0  0  1  0  0  3  0  0  0  0  0  0
  1 15  1  0  0  0  0
  2 18  2  0  0  0  0
  3  8  1  0  0  0  0
  4 16  1  0  0  0  0
  4  3  2  0  0  0  0
  5 14  2  0  0  0  0
  6 13  2  0  0  0  0
  7  1  2  0  0  0  0
  8 10  2  0  0  0  0
  9  6  1  0  0  0  0
 10  9  1  0  0  0  0
 11 19  1  0  0  0  0
 12 15  2  0  0  0  0
 13  5  1  0  0  0  0
 13  7  1  0  0  0  0
 14 12  1  0  0  0  0
 15 21  1  0  0  0  0
 16 17  2  0  0  0  0
 17 11  1  0  0  0  0
 17 10  1  0  0  0  0
 18  5  1  0  0  0  0
 19  9  2  0  0  0  0
 19  2  1  0  0  0  0
 20 22  2  0  0  0  0
 20 23  1  0  0  0  0
 21 20  1  0  0  0  0
 24 11  1  0  0  0  0
 26 30  1  6  0  0  0
 26 29  1  0  0  0  0
 27 24  1  6  0  0  0
 27 31  1  0  0  0  0
 29 28  1  0  0  0  0
 31 28  1  0  0  0  0
 32 25  1  6  0  0  0
 32 26  1  0  0  0  0
 32 27  1  0  0  0  0
M  END
>  <MODEL>
5

>  <REMARK>
 VINA RESULT:      -7.6      3.727      9.659
  Name = 
  3 active torsions:
  status: ('A' for Active; 'I' for Inactive)
    1  A    between atoms: N_10  and  C_24
    2  A    between atoms: C_11  and  C_27
    3  A    between atoms: N_16  and  C_27
                            x       y       z     vdW  Elec       q    Type
                         _______ _______ _______ _____ _____    ______ ____

>  <TORSDO>
F 3

$$$$
=
 OpenBabel10262421243D

 32 36  0  0  1  0  0  0  0  0999 V2000
  189.6020  177.6150  137.8000 C   0  0  0  0  0  3  0  0  0  0  0  0
  184.8570  179.3010  139.9860 C   0  0  0  0  0  3  0  0  0  0  0  0
  187.3490  177.5120  145.1350 C   0  0  0  0  0  3  0  0  0  0  0  0
  186.0720  177.8500  145.6350 C   0  0  0  0  0  3  0  0  0  0  0  0
  186.5970  178.1900  138.5590 C   0  0  0  0  0  0  0  0  0  0  0  0
  187.7470  178.2810  140.7260 N   0  0  0  0  0  0  0  0  0  0  0  0
  189.1480  178.2880  138.8520 C   0  0  0  0  0  3  0  0  0  0  0  0
  187.6370  177.6320  143.7640 C   0  0  0  0  0  3  0  0  0  0  0  0
  186.5970  178.3210  141.5730 C   0  0  0  0  0  0  0  0  0  0  0  0
  186.6160  178.0860  142.9310 C   0  0  0  0  0  0  0  0  0  0  0  0
  184.5900  178.8810  142.4180 N   0  0  0  0  0  0  0  0  0  0  0  0
  187.5550  176.6220  136.8160 C   0  0  0  0  0  3  0  0  0  0  0  0
  187.8030  178.2250  139.4280 C   0  0  0  0  0  0  0  0  0  0  0  0
  186.5390  177.4880  137.4280 C   0  0  0  0  0  3  0  0  0  0  0  0
  188.8820  176.6340  136.9770 C   0  0  0  0  0  0  0  0  0  0  0  0
  185.0660  178.3180  144.7700 C   0  0  0  0  0  3  0  0  0  0  0  0
  185.3760  178.4220  143.4130 C   0  0  0  0  0  0  0  0  0  0  0  0
  185.4060  179.0140  138.8110 C   0  0  0  0  0  3  0  0  0  0  0  0
  185.3340  178.8230  141.2850 C   0  0  0  0  0  0  0  0  0  0  0  0
  190.4700  174.6210  136.7450 C   0  0  0  0  0  0  0  0  0  0  0  0
  189.7020  175.7190  136.2340 N   0  0  0  0  0  2  0  0  0  0  0  0
  190.5240  174.3760  137.9790 O   0  0  0  0  0  0  0  0  0  0  0  0
  191.3780  173.5860  135.6080 S   0  0  0  0  0  1  0  0  0  0  0  0
  183.2230  179.3770  142.5440 C   0  0  0  0  0  2  0  0  0  0  0  0
  180.4760  179.5530  143.0940 O   0  0  0  0  0  1  0  0  0  0  0  0
  179.8700  177.7190  141.6230 C   0  0  2  0  0  3  0  0  0  0  0  0
  182.2420  178.4170  141.8810 C   0  0  2  0  0  3  0  0  0  0  0  0
  181.4660  177.6540  139.8880 C   0  0  0  0  0  2  0  0  0  0  0  0
  180.4980  176.9180  140.6390 O   0  0  0  0  0  0  0  0  0  0  0  0
  178.9310  178.7430  140.9870 C   0  0  0  0  0  1  0  0  0  0  0  0
  182.0100  178.7840  140.5510 O   0  0  0  0  0  0  0  0  0  0  0  0
  180.8990  178.3100  142.6070 C   0  0  1  0  0  3  0  0  0  0  0  0
  1  7  1  0  0  0  0
  2 19  2  0  0  0  0
  3  4  1  0  0  0  0
  5 18  2  0  0  0  0
  5 13  1  0  0  0  0
  6  9  2  0  0  0  0
  7 13  2  0  0  0  0
  8  3  2  0  0  0  0
  9 10  1  0  0  0  0
 10 17  2  0  0  0  0
 10  8  1  0  0  0  0
 11 24  1  0  0  0  0
 11 17  1  0  0  0  0
 12 15  1  0  0  0  0
 12 14  2  0  0  0  0
 13  6  1  0  0  0  0
 14  5  1  0  0  0  0
 15  1  2  0  0  0  0
 16  4  2  0  0  0  0
 17 16  1  0  0  0  0
 18  2  1  0  0  0  0
 19  9  1  0  0  0  0
 19 11  1  0  0  0  0
 20 22  2  0  0  0  0
 21 20  1  0  0  0  0
 21 15  1  0  0  0  0
 23 20  1  0  0  0  0
 26 30  1  6  0  0  0
 26 32  1  0  0  0  0
 27 24  1  1  0  0  0
 27 32  1  0  0  0  0
 28 31  1  0  0  0  0
 28 29  1  0  0  0  0
 29 26  1  0  0  0  0
 31 27  1  0  0  0  0
 32 25  1  6  0  0  0
M  END
>  <MODEL>
6

>  <REMARK>
 VINA RESULT:      -7.6      3.514      4.973
  Name = 
  3 active torsions:
  status: ('A' for Active; 'I' for Inactive)
    1  A    between atoms: N_10  and  C_24
    2  A    between atoms: C_11  and  C_27
    3  A    between atoms: N_16  and  C_27
                            x       y       z     vdW  Elec       q    Type
                         _______ _______ _______ _____ _____    ______ ____

>  <TORSDO>
F 3

$$$$
=
 OpenBabel10262421243D

 32 36  0  0  1  0  0  0  0  0999 V2000
  182.0890  179.9010  138.5460 C   0  0  0  0  0  3  0  0  0  0  0  0
  185.1430  178.4730  142.8790 C   0  0  0  0  0  3  0  0  0  0  0  0
  189.5280  178.0360  138.8170 C   0  0  0  0  0  3  0  0  0  0  0  0
  190.2430  177.5630  139.9390 C   0  0  0  0  0  3  0  0  0  0  0  0
  183.3270  178.6350  141.1540 C   0  0  0  0  0  0  0  0  0  0  0  0
  185.3050  179.2040  139.8160 N   0  0  0  0  0  0  0  0  0  0  0  0
  183.2930  180.1270  139.0620 C   0  0  0  0  0  3  0  0  0  0  0  0
  188.1720  178.3930  138.9300 C   0  0  0  0  0  3  0  0  0  0  0  0
  186.2920  178.5310  140.6020 C   0  0  0  0  0  0  0  0  0  0  0  0
  187.5730  178.2530  140.1800 C   0  0  0  0  0  0  0  0  0  0  0  0
  187.4790  177.8070  142.3690 N   0  0  0  0  0  0  0  0  0  0  0  0
  181.2270  178.0020  139.8860 C   0  0  0  0  0  3  0  0  0  0  0  0
  184.0220  179.2800  140.0090 C   0  0  0  0  0  0  0  0  0  0  0  0
  182.1090  178.1030  141.0570 C   0  0  0  0  0  3  0  0  0  0  0  0
  181.2110  178.7460  138.7760 C   0  0  0  0  0  0  0  0  0  0  0  0
  189.6130  177.4440  141.1910 C   0  0  0  0  0  3  0  0  0  0  0  0
  188.2660  177.8000  141.2750 C   0  0  0  0  0  0  0  0  0  0  0  0
  183.8730  178.6280  142.5190 C   0  0  0  0  0  3  0  0  0  0  0  0
  186.2640  178.2560  141.9640 C   0  0  0  0  0  0  0  0  0  0  0  0
  180.3300  177.6490  136.6190 C   0  0  0  0  0  0  0  0  0  0  0  0
  180.2190  178.5030  137.7670 N   0  0  0  0  0  2  0  0  0  0  0  0
  181.3960  177.0300  136.3630 O   0  0  0  0  0  0  0  0  0  0  0  0
  178.9310  177.4710  135.5250 S   0  0  0  0  0  1  0  0  0  0  0  0
  187.8690  177.4400  143.7270 C   0  0  0  0  0  2  0  0  0  0  0  0
  189.1510  178.0100  146.1580 O   0  0  0  0  0  1  0  0  0  0  0  0
  191.3800  177.5630  145.3070 C   0  0  2  0  0  3  0  0  0  0  0  0
  189.3860  177.3400  143.8400 C   0  0  2  0  0  3  0  0  0  0  0  0
  191.1690  175.9540  143.5950 C   0  0  0  0  0  2  0  0  0  0  0  0
  191.9620  177.0120  144.1400 O   0  0  0  0  0  0  0  0  0  0  0  0
  191.4660  176.5890  146.4820 C   0  0  0  0  0  1  0  0  0  0  0  0
  189.7900  176.0020  143.9280 O   0  0  0  0  0  0  0  0  0  0  0  0
  189.9670  178.1130  145.0260 C   0  0  1  0  0  3  0  0  0  0  0  0
  1 15  2  0  0  0  0
  1  7  1  0  0  0  0
  3  8  2  0  0  0  0
  3  4  1  0  0  0  0
  4 16  2  0  0  0  0
  5 18  2  0  0  0  0
  6 13  1  0  0  0  0
  6  9  2  0  0  0  0
  7 13  2  0  0  0  0
  8 10  1  0  0  0  0
  9 19  1  0  0  0  0
 10  9  1  0  0  0  0
 10 17  2  0  0  0  0
 11 24  1  0  0  0  0
 12 14  2  0  0  0  0
 13  5  1  0  0  0  0
 14  5  1  0  0  0  0
 15 12  1  0  0  0  0
 16 17  1  0  0  0  0
 17 11  1  0  0  0  0
 18  2  1  0  0  0  0
 19 11  1  0  0  0  0
 19  2  2  0  0  0  0
 20 21  1  0  0  0  0
 21 15  1  0  0  0  0
 22 20  2  0  0  0  0
 23 20  1  0  0  0  0
 26 30  1  1  0  0  0
 27 24  1  1  0  0  0
 27 31  1  0  0  0  0
 27 32  1  0  0  0  0
 28 31  1  0  0  0  0
 28 29  1  0  0  0  0
 29 26  1  0  0  0  0
 32 26  1  0  0  0  0
 32 25  1  1  0  0  0
M  END
>  <MODEL>
7

>  <REMARK>
 VINA RESULT:      -7.6      5.253      8.687
  Name = 
  3 active torsions:
  status: ('A' for Active; 'I' for Inactive)
    1  A    between atoms: N_10  and  C_24
    2  A    between atoms: C_11  and  C_27
    3  A    between atoms: N_16  and  C_27
                            x       y       z     vdW  Elec       q    Type
                         _______ _______ _______ _____ _____    ______ ____

>  <TORSDO>
F 3

$$$$
=
 OpenBabel10262421243D

 32 36  0  0  1  0  0  0  0  0999 V2000
  183.2780  179.0920  139.1030 C   0  0  0  0  0  3  0  0  0  0  0  0
  188.2620  178.6740  141.3650 C   0  0  0  0  0  3  0  0  0  0  0  0
  189.6330  175.8780  136.2440 C   0  0  0  0  0  3  0  0  0  0  0  0
  190.8630  175.6920  136.9110 C   0  0  0  0  0  3  0  0  0  0  0  0
  185.7900  178.6010  140.9430 C   0  0  0  0  0  0  0  0  0  0  0  0
  186.6680  178.2120  138.6840 N   0  0  0  0  0  0  0  0  0  0  0  0
  184.5590  179.2200  138.7740 C   0  0  0  0  0  3  0  0  0  0  0  0
  188.5650  176.5370  136.8790 C   0  0  0  0  0  3  0  0  0  0  0  0
  187.9390  177.6660  139.0440 C   0  0  0  0  0  0  0  0  0  0  0  0
  188.7710  176.9850  138.1830 C   0  0  0  0  0  0  0  0  0  0  0  0
  189.9270  177.3780  140.0550 N   0  0  0  0  0  0  0  0  0  0  0  0
  183.3540  178.0300  141.3420 C   0  0  0  0  0  3  0  0  0  0  0  0
  185.7110  178.6280  139.4590 C   0  0  0  0  0  0  0  0  0  0  0  0
  184.7380  178.3470  141.7210 C   0  0  0  0  0  3  0  0  0  0  0  0
  182.7030  178.3150  140.2090 C   0  0  0  0  0  0  0  0  0  0  0  0
  191.0440  176.1670  138.2240 C   0  0  0  0  0  3  0  0  0  0  0  0
  189.9670  176.8120  138.8330 C   0  0  0  0  0  0  0  0  0  0  0  0
  187.0060  178.9620  141.6860 C   0  0  0  0  0  3  0  0  0  0  0  0
  188.6850  177.9070  140.1920 C   0  0  0  0  0  0  0  0  0  0  0  0
  180.7910  176.7130  139.5740 C   0  0  0  0  0  0  0  0  0  0  0  0
  181.3220  177.9510  140.0670 N   0  0  0  0  0  2  0  0  0  0  0  0
  181.5450  175.7940  139.1590 O   0  0  0  0  0  0  0  0  0  0  0  0
  179.0220  176.4750  139.5370 S   0  0  0  0  0  1  0  0  0  0  0  0
  191.0170  177.4440  141.0230 C   0  0  0  0  0  2  0  0  0  0  0  0
  190.9750  175.4270  142.9770 O   0  0  0  0  0  1  0  0  0  0  0  0
  190.0130  176.8480  144.6950 C   0  0  2  0  0  3  0  0  0  0  0  0
  190.4770  177.7350  142.4190 C   0  0  2  0  0  3  0  0  0  0  0  0
  190.7100  179.0570  144.2510 C   0  0  0  0  0  2  0  0  0  0  0  0
  189.7320  178.2240  144.8760 O   0  0  0  0  0  0  0  0  0  0  0  0
  191.2310  176.4200  145.5130 C   0  0  0  0  0  1  0  0  0  0  0  0
  191.4100  178.4590  143.1710 O   0  0  0  0  0  0  0  0  0  0  0  0
  190.0780  176.4800  143.2000 C   0  0  1  0  0  3  0  0  0  0  0  0
  1 15  1  0  0  0  0
  2 18  2  0  0  0  0
  3  8  2  0  0  0  0
  3  4  1  0  0  0  0
  4 16  2  0  0  0  0
  5 18  1  0  0  0  0
  5 14  2  0  0  0  0
  6  9  1  0  0  0  0
  6 13  2  0  0  0  0
  7  1  2  0  0  0  0
  7 13  1  0  0  0  0
  8 10  1  0  0  0  0
  9 19  2  0  0  0  0
 10 17  2  0  0  0  0
 10  9  1  0  0  0  0
 11 19  1  0  0  0  0
 11 24  1  0  0  0  0
 12 14  1  0  0  0  0
 13  5  1  0  0  0  0
 15 12  2  0  0  0  0
 16 17  1  0  0  0  0
 17 11  1  0  0  0  0
 19  2  1  0  0  0  0
 20 21  1  0  0  0  0
 21 15  1  0  0  0  0
 22 20  2  0  0  0  0
 23 20  1  0  0  0  0
 26 29  1  0  0  0  0
 26 30  1  6  0  0  0
 27 24  1  6  0  0  0
 27 31  1  0  0  0  0
 27 32  1  0  0  0  0
 28 29  1  0  0  0  0
 31 28  1  0  0  0  0
 32 25  1  1  0  0  0
 32 26  1  0  0  0  0
M  END
>  <MODEL>
8

>  <REMARK>
 VINA RESULT:      -7.5      4.775      8.446
  Name = 
  3 active torsions:
  status: ('A' for Active; 'I' for Inactive)
    1  A    between atoms: N_10  and  C_24
    2  A    between atoms: C_11  and  C_27
    3  A    between atoms: N_16  and  C_27
                            x       y       z     vdW  Elec       q    Type
                         _______ _______ _______ _____ _____    ______ ____

>  <TORSDO>
F 3

$$$$
=
 OpenBabel10262421243D

 32 36  0  0  1  0  0  0  0  0999 V2000
  189.9630  177.7850  138.8180 C   0  0  0  0  0  3  0  0  0  0  0  0
  184.5480  178.1390  137.9870 C   0  0  0  0  0  3  0  0  0  0  0  0
  184.3640  179.0760  143.9040 C   0  0  0  0  0  3  0  0  0  0  0  0
  182.9730  179.0440  143.6610 C   0  0  0  0  0  3  0  0  0  0  0  0
  186.9430  177.3880  138.0080 C   0  0  0  0  0  0  0  0  0  0  0  0
  186.7940  178.5590  140.1600 N   0  0  0  0  0  0  0  0  0  0  0  0
  188.9220  178.5230  139.1890 C   0  0  0  0  0  3  0  0  0  0  0  0
  185.2790  178.8730  142.8560 C   0  0  0  0  0  3  0  0  0  0  0  0
  185.3890  178.4190  140.3790 C   0  0  0  0  0  0  0  0  0  0  0  0
  184.7600  178.6330  141.5860 C   0  0  0  0  0  0  0  0  0  0  0  0
  183.1670  178.4100  140.0320 N   0  0  0  0  0  0  0  0  0  0  0  0
  188.9250  175.8460  137.6740 C   0  0  0  0  0  3  0  0  0  0  0  0
  187.5100  178.1370  139.1600 C   0  0  0  0  0  0  0  0  0  0  0  0
  187.5980  176.4080  137.3860 C   0  0  0  0  0  3  0  0  0  0  0  0
  189.9570  176.4050  138.3130 C   0  0  0  0  0  0  0  0  0  0  0  0
  182.4790  178.8110  142.3640 C   0  0  0  0  0  3  0  0  0  0  0  0
  183.4090  178.6070  141.3430 C   0  0  0  0  0  0  0  0  0  0  0  0
  185.6600  177.7370  137.3800 C   0  0  0  0  0  3  0  0  0  0  0  0
  184.3790  178.2950  139.4320 C   0  0  0  0  0  0  0  0  0  0  0  0
  192.2140  175.5220  137.4460 C   0  0  0  0  0  0  0  0  0  0  0  0
  191.1930  175.6860  138.4410 N   0  0  0  0  0  2  0  0  0  0  0  0
  192.0830  175.9940  136.2860 O   0  0  0  0  0  0  0  0  0  0  0  0
  193.6980  174.6180  137.8600 S   0  0  0  0  0  1  0  0  0  0  0  0
  181.8610  178.3680  139.3820 C   0  0  0  0  0  2  0  0  0  0  0  0
  180.4010  178.4600  136.9860 O   0  0  0  0  0  1  0  0  0  0  0  0
  180.4540  180.8810  136.8230 C   0  0  2  0  0  3  0  0  0  0  0  0
  181.5490  179.7060  138.7200 C   0  0  2  0  0  3  0  0  0  0  0  0
  180.5650  181.7300  139.0210 C   0  0  0  0  0  2  0  0  0  0  0  0
  180.8330  181.9750  137.6390 O   0  0  0  0  0  0  0  0  0  0  0  0
  178.9330  180.7550  136.7390 C   0  0  0  0  0  1  0  0  0  0  0  0
  180.5100  180.3610  139.3910 O   0  0  0  0  0  0  0  0  0  0  0  0
  181.1870  179.5910  137.2380 C   0  0  1  0  0  3  0  0  0  0  0  0
  1  7  1  0  0  0  0
  2 19  2  0  0  0  0
  4  3  1  0  0  0  0
  5 13  1  0  0  0  0
  6  9  2  0  0  0  0
  8  3  2  0  0  0  0
  9 10  1  0  0  0  0
 10  8  1  0  0  0  0
 11 17  1  0  0  0  0
 12 15  1  0  0  0  0
 13  7  2  0  0  0  0
 13  6  1  0  0  0  0
 14 12  2  0  0  0  0
 14  5  1  0  0  0  0
 15 21  1  0  0  0  0
 15  1  2  0  0  0  0
 16  4  2  0  0  0  0
 17 10  2  0  0  0  0
 17 16  1  0  0  0  0
 18  2  1  0  0  0  0
 18  5  2  0  0  0  0
 19 11  1  0  0  0  0
 19  9  1  0  0  0  0
 20 23  1  0  0  0  0
 20 21  1  0  0  0  0
 22 20  2  0  0  0  0
 24 11  1  0  0  0  0
 26 30  1  1  0  0  0
 26 32  1  0  0  0  0
 26 29  1  0  0  0  0
 27 24  1  1  0  0  0
 27 31  1  0  0  0  0
 28 31  1  0  0  0  0
 29 28  1  0  0  0  0
 32 25  1  1  0  0  0
 32 27  1  0  0  0  0
M  END
>  <MODEL>
9

>  <REMARK>
 VINA RESULT:      -7.4      4.747      6.392
  Name = 
  3 active torsions:
  status: ('A' for Active; 'I' for Inactive)
    1  A    between atoms: N_10  and  C_24
    2  A    between atoms: C_11  and  C_27
    3  A    between atoms: N_16  and  C_27
                            x       y       z     vdW  Elec       q    Type
                         _______ _______ _______ _____ _____    ______ ____

>  <TORSDO>
F 3

$$$$
