=
 OpenBabel10262419233D

 31 33  0  0  1  0  0  0  0  0999 V2000
  189.9680  176.5490  137.6040 N   0  0  0  0  0  0  0  0  0  0  0  0
  191.1140  176.0870  136.8520 C   0  0  0  0  0  0  0  0  0  0  0  0
  192.1700  175.0130  134.9310 C   0  0  0  0  0  3  0  0  0  0  0  0
  190.9930  175.5280  135.6460 C   0  0  0  0  0  3  0  0  0  0  0  0
  192.5520  176.6380  138.7160 C   0  0  0  0  0  3  0  0  0  0  0  0
  193.3680  175.1310  135.4250 N   0  0  0  0  0  0  0  0  0  0  0  0
  190.1870  177.0220  138.9510 C   0  0  0  0  0  0  0  0  0  0  0  0
  194.4800  176.9890  136.4160 N   0  0  0  0  0  1  0  0  0  0  0  0
  191.3900  177.0400  139.4540 N   0  0  0  0  0  0  0  0  0  0  0  0
  192.4500  176.1840  137.4660 C   0  0  0  0  0  0  0  0  0  0  0  0
  193.6840  175.8040  136.6910 C   0  0  1  0  0  3  0  0  0  0  0  0
  189.0280  177.4400  139.8060 C   0  0  2  0  0  3  0  0  0  0  0  0
  188.8120  178.8160  139.7040 O   0  0  0  0  0  1  0  0  0  0  0  0
  189.2760  177.0540  141.2540 C   0  0  0  0  0  2  0  0  0  0  0  0
  189.3970  178.4890  142.9850 O   0  0  0  0  0  1  0  0  0  0  0  0
  188.5090  177.9160  142.1370 N   0  0  0  0  0  0  0  0  0  0  0  0
  187.6890  177.0790  142.9110 N   0  0  0  0  0  2  0  0  0  0  0  0
  184.7870  178.7040  144.6210 C   0  0  0  0  0  0  0  0  0  0  0  0
  186.3790  177.9590  146.2850 C   0  0  0  0  0  3  0  0  0  0  0  0
  183.4990  179.3600  144.2740 C   0  0  0  0  0  1  0  0  0  0  0  0
  185.6150  178.2130  143.6080 C   0  0  0  0  0  3  0  0  0  0  0  0
  187.2080  177.4680  145.2720 C   0  0  0  0  0  3  0  0  0  0  0  0
  186.8310  177.5930  143.9310 C   0  0  0  0  0  0  0  0  0  0  0  0
  185.1680  178.5770  145.9600 C   0  0  0  0  0  3  0  0  0  0  0  0
  188.6020  176.5830  137.0620 C   0  0  1  0  0  3  0  0  0  0  0  0
  187.3200  178.6810  136.5670 C   0  0  0  0  0  1  0  0  0  0  0  0
  188.0860  177.2880  134.6580 C   0  0  0  0  0  1  0  0  0  0  0  0
  188.4010  177.7400  136.0740 C   0  0  0  0  0  3  0  0  0  0  0  0
  188.1190  175.2050  136.6060 C   0  0  0  0  0  2  0  0  0  0  0  0
  186.5630  173.1600  137.0620 C   0  0  0  0  0  1  0  0  0  0  0  0
  186.3740  174.9630  137.0430 S   0  0  0  0  0  0  0  0  0  0  0  0
  1  7  1  0  0  0  0
  2 10  1  0  0  0  0
  2  1  1  0  0  0  0
  3  6  2  0  0  0  0
  3  4  1  0  0  0  0
  4  2  2  0  0  0  0
  5  9  1  0  0  0  0
  6 11  1  0  0  0  0
  7  9  2  0  0  0  0
  7 12  1  0  0  0  0
 10  5  2  0  0  0  0
 11  8  1  6  0  0  0
 11 10  1  0  0  0  0
 12 13  1  1  0  0  0
 12 14  1  0  0  0  0
 14 16  1  0  0  0  0
 16 17  1  0  0  0  0
 16 15  1  0  0  0  0
 17 23  1  0  0  0  0
 18 24  1  0  0  0  0
 20 18  1  0  0  0  0
 21 23  1  0  0  0  0
 21 18  2  0  0  0  0
 22 19  1  0  0  0  0
 23 22  2  0  0  0  0
 24 19  2  0  0  0  0
 25 29  1  6  0  0  0
 25  1  1  0  0  0  0
 27 28  1  0  0  0  0
 28 26  1  0  0  0  0
 28 25  1  0  0  0  0
 29 31  1  0  0  0  0
 31 30  1  0  0  0  0
M  END
>  <MODEL>
1

>  <REMARK>
 VINA RESULT:      -7.2      0.000      0.000
  Name = 
  9 active torsions:
  status: ('A' for Active; 'I' for Inactive)
    1  A    between atoms: N_3  and  N_9
    2  A    between atoms: N_3  and  C_22
    3  A    between atoms: N_4  and  C_12
    4  A    between atoms: N_9  and  C_23
    5  A    between atoms: C_12  and  C_25
    6  A    between atoms: C_12  and  C_27
    7  A    between atoms: C_15  and  C_21
    8  A    between atoms: C_15  and  C_23
    9  A    between atoms: C_27  and  S_28
                            x       y       z     vdW  Elec       q    Type
                         _______ _______ _______ _____ _____    ______ ____

>  <TORSDO>
F 9

$$$$
=
 OpenBabel10262419233D

 31 33  0  0  1  0  0  0  0  0999 V2000
  184.8800  177.2710  137.7420 N   0  0  0  0  0  0  0  0  0  0  0  0
  185.7920  176.5220  136.9040 C   0  0  0  0  0  0  0  0  0  0  0  0
  186.3500  174.7060  135.3720 C   0  0  0  0  0  3  0  0  0  0  0  0
  185.3890  175.4850  136.1660 C   0  0  0  0  0  3  0  0  0  0  0  0
  187.6360  177.8420  137.7430 C   0  0  0  0  0  3  0  0  0  0  0  0
  187.6100  175.0300  135.3220 N   0  0  0  0  0  0  0  0  0  0  0  0
  185.4320  178.2920  138.6000 C   0  0  0  0  0  0  0  0  0  0  0  0
  188.6760  177.1340  134.9960 N   0  0  0  0  0  1  0  0  0  0  0  0
  186.7130  178.5310  138.5990 N   0  0  0  0  0  0  0  0  0  0  0  0
  187.2210  176.8810  136.9170 C   0  0  0  0  0  0  0  0  0  0  0  0
  188.1960  176.1950  135.9960 C   0  0  1  0  0  3  0  0  0  0  0  0
  184.5460  179.0480  139.5460 C   0  0  2  0  0  3  0  0  0  0  0  0
  184.2880  180.3310  139.0600 O   0  0  0  0  0  1  0  0  0  0  0  0
  185.1900  179.1260  140.9200 C   0  0  0  0  0  2  0  0  0  0  0  0
  183.2260  178.1210  141.3710 O   0  0  0  0  0  1  0  0  0  0  0  0
  184.4870  178.2560  141.8480 N   0  0  0  0  0  0  0  0  0  0  0  0
  184.3900  178.9520  143.0630 N   0  0  0  0  0  2  0  0  0  0  0  0
  187.1490  177.6600  145.2330 C   0  0  0  0  0  0  0  0  0  0  0  0
  185.3120  178.3930  146.6290 C   0  0  0  0  0  3  0  0  0  0  0  0
  188.5100  177.0780  145.0970 C   0  0  0  0  0  1  0  0  0  0  0  0
  186.4270  178.0210  144.0920 C   0  0  0  0  0  3  0  0  0  0  0  0
  184.5900  178.7550  145.4880 C   0  0  0  0  0  3  0  0  0  0  0  0
  185.1420  178.5700  144.2170 C   0  0  0  0  0  0  0  0  0  0  0  0
  186.5920  177.8460  146.5010 C   0  0  0  0  0  3  0  0  0  0  0  0
  183.4250  177.0610  137.7450 C   0  0  1  0  0  3  0  0  0  0  0  0
  181.7510  178.6660  136.7880 C   0  0  0  0  0  1  0  0  0  0  0  0
  182.1070  176.4990  135.6260 C   0  0  0  0  0  1  0  0  0  0  0  0
  182.7630  177.5850  136.4630 C   0  0  0  0  0  3  0  0  0  0  0  0
  183.0380  175.6480  138.1840 C   0  0  0  0  0  2  0  0  0  0  0  0
  180.6620  174.5900  138.4010 C   0  0  0  0  0  1  0  0  0  0  0  0
  181.6890  175.7030  139.3980 S   0  0  0  0  0  0  0  0  0  0  0  0
  1 25  1  0  0  0  0
  1  7  1  0  0  0  0
  2 10  1  0  0  0  0
  2  1  1  0  0  0  0
  3  4  1  0  0  0  0
  4  2  2  0  0  0  0
  5  9  1  0  0  0  0
  6  3  2  0  0  0  0
  6 11  1  0  0  0  0
  7 12  1  0  0  0  0
  9  7  2  0  0  0  0
 10  5  2  0  0  0  0
 11  8  1  6  0  0  0
 11 10  1  0  0  0  0
 12 13  1  6  0  0  0
 12 14  1  0  0  0  0
 14 16  1  0  0  0  0
 15 16  1  0  0  0  0
 16 17  1  0  0  0  0
 17 23  1  0  0  0  0
 18 24  1  0  0  0  0
 20 18  1  0  0  0  0
 21 23  1  0  0  0  0
 21 18  2  0  0  0  0
 22 19  1  0  0  0  0
 23 22  2  0  0  0  0
 24 19  2  0  0  0  0
 25 29  1  6  0  0  0
 27 28  1  0  0  0  0
 28 26  1  0  0  0  0
 28 25  1  0  0  0  0
 29 31  1  0  0  0  0
 30 31  1  0  0  0  0
M  END
>  <MODEL>
2

>  <REMARK>
 VINA RESULT:      -7.2      3.601      4.891
  Name = 
  9 active torsions:
  status: ('A' for Active; 'I' for Inactive)
    1  A    between atoms: N_3  and  N_9
    2  A    between atoms: N_3  and  C_22
    3  A    between atoms: N_4  and  C_12
    4  A    between atoms: N_9  and  C_23
    5  A    between atoms: C_12  and  C_25
    6  A    between atoms: C_12  and  C_27
    7  A    between atoms: C_15  and  C_21
    8  A    between atoms: C_15  and  C_23
    9  A    between atoms: C_27  and  S_28
                            x       y       z     vdW  Elec       q    Type
                         _______ _______ _______ _____ _____    ______ ____

>  <TORSDO>
F 9

$$$$
=
 OpenBabel10262419233D

 31 33  0  0  1  0  0  0  0  0999 V2000
  189.9540  176.5220  137.5410 N   0  0  0  0  0  0  0  0  0  0  0  0
  191.1040  176.0680  136.7890 C   0  0  0  0  0  0  0  0  0  0  0  0
  192.1700  175.0190  134.8590 C   0  0  0  0  0  3  0  0  0  0  0  0
  190.9900  175.5270  135.5740 C   0  0  0  0  0  3  0  0  0  0  0  0
  192.5310  176.5830  138.6720 C   0  0  0  0  0  3  0  0  0  0  0  0
  193.3650  175.1250  135.3640 N   0  0  0  0  0  0  0  0  0  0  0  0
  190.1660  176.9730  138.8960 C   0  0  0  0  0  0  0  0  0  0  0  0
  194.4770  176.9630  136.3920 N   0  0  0  0  0  1  0  0  0  0  0  0
  191.3650  176.9780  139.4080 N   0  0  0  0  0  0  0  0  0  0  0  0
  192.4360  176.1490  137.4150 C   0  0  0  0  0  0  0  0  0  0  0  0
  193.6750  175.7770  136.6420 C   0  0  1  0  0  3  0  0  0  0  0  0
  189.0010  177.3820  139.7490 C   0  0  2  0  0  3  0  0  0  0  0  0
  188.7740  178.7560  139.6440 O   0  0  0  0  0  1  0  0  0  0  0  0
  189.2520  177.0000  141.1980 C   0  0  0  0  0  2  0  0  0  0  0  0
  189.3800  178.5770  142.8000 O   0  0  0  0  0  1  0  0  0  0  0  0
  188.4820  177.8620  142.0790 N   0  0  0  0  0  0  0  0  0  0  0  0
  187.8100  177.0240  142.9830 N   0  0  0  0  0  2  0  0  0  0  0  0
  186.9480  178.0000  146.4880 C   0  0  0  0  0  0  0  0  0  0  0  0
  185.1350  178.6340  145.0140 C   0  0  0  0  0  3  0  0  0  0  0  0
  187.5370  177.9390  147.8510 C   0  0  0  0  0  1  0  0  0  0  0  0
  187.6540  177.4840  145.3990 C   0  0  0  0  0  3  0  0  0  0  0  0
  185.8420  178.1170  143.9240 C   0  0  0  0  0  3  0  0  0  0  0  0
  187.1020  177.5400  144.1110 C   0  0  0  0  0  0  0  0  0  0  0  0
  185.6890  178.5750  146.2970 C   0  0  0  0  0  3  0  0  0  0  0  0
  188.5930  176.5690  136.9890 C   0  0  1  0  0  3  0  0  0  0  0  0
  187.2740  178.6540  136.5330 C   0  0  0  0  0  1  0  0  0  0  0  0
  188.1370  177.3570  134.5980 C   0  0  0  0  0  1  0  0  0  0  0  0
  188.3950  177.7600  136.0410 C   0  0  0  0  0  3  0  0  0  0  0  0
  188.1190  175.2070  136.4800 C   0  0  0  0  0  2  0  0  0  0  0  0
  186.6680  173.1400  137.1390 C   0  0  0  0  0  1  0  0  0  0  0  0
  186.3870  174.9200  136.9410 S   0  0  0  0  0  0  0  0  0  0  0  0
  1  7  1  0  0  0  0
  2 10  1  0  0  0  0
  2  1  1  0  0  0  0
  3  6  2  0  0  0  0
  3  4  1  0  0  0  0
  4  2  2  0  0  0  0
  5  9  1  0  0  0  0
  6 11  1  0  0  0  0
  7  9  2  0  0  0  0
  7 12  1  0  0  0  0
 10  5  2  0  0  0  0
 11  8  1  6  0  0  0
 11 10  1  0  0  0  0
 12 13  1  1  0  0  0
 12 14  1  0  0  0  0
 14 16  1  0  0  0  0
 16 15  1  0  0  0  0
 16 17  1  0  0  0  0
 17 23  1  0  0  0  0
 18 20  1  0  0  0  0
 19 24  2  0  0  0  0
 21 18  2  0  0  0  0
 22 23  2  0  0  0  0
 22 19  1  0  0  0  0
 23 21  1  0  0  0  0
 24 18  1  0  0  0  0
 25 29  1  6  0  0  0
 25  1  1  0  0  0  0
 27 28  1  0  0  0  0
 28 26  1  0  0  0  0
 28 25  1  0  0  0  0
 29 31  1  0  0  0  0
 31 30  1  0  0  0  0
M  END
>  <MODEL>
3

>  <REMARK>
 VINA RESULT:      -7.1      0.422      1.345
  Name = 
  9 active torsions:
  status: ('A' for Active; 'I' for Inactive)
    1  A    between atoms: N_3  and  N_9
    2  A    between atoms: N_3  and  C_22
    3  A    between atoms: N_4  and  C_12
    4  A    between atoms: N_9  and  C_23
    5  A    between atoms: C_12  and  C_25
    6  A    between atoms: C_12  and  C_27
    7  A    between atoms: C_15  and  C_21
    8  A    between atoms: C_15  and  C_23
    9  A    between atoms: C_27  and  S_28
                            x       y       z     vdW  Elec       q    Type
                         _______ _______ _______ _____ _____    ______ ____

>  <TORSDO>
F 9

$$$$
=
 OpenBabel10262419233D

 31 33  0  0  1  0  0  0  0  0999 V2000
  181.9330  178.0620  139.3590 N   0  0  0  0  0  0  0  0  0  0  0  0
  181.2060  176.9990  138.7000 C   0  0  0  0  0  0  0  0  0  0  0  0
  179.2020  175.6740  138.2660 C   0  0  0  0  0  3  0  0  0  0  0  0
  179.9010  176.8000  138.9030 C   0  0  0  0  0  3  0  0  0  0  0  0
  183.2680  176.2040  137.7190 C   0  0  0  0  0  3  0  0  0  0  0  0
  179.8170  174.8690  137.4490 N   0  0  0  0  0  0  0  0  0  0  0  0
  183.3650  178.1180  139.1770 C   0  0  0  0  0  0  0  0  0  0  0  0
  181.2840  175.3050  135.6250 N   0  0  0  0  0  1  0  0  0  0  0  0
  183.9670  177.2380  138.4260 N   0  0  0  0  0  0  0  0  0  0  0  0
  181.9460  176.0700  137.8270 C   0  0  0  0  0  0  0  0  0  0  0  0
  181.2210  175.0050  137.0460 C   0  0  1  0  0  3  0  0  0  0  0  0
  184.1810  179.1500  139.8970 C   0  0  2  0  0  3  0  0  0  0  0  0
  184.3510  180.2850  139.1010 O   0  0  0  0  0  1  0  0  0  0  0  0
  185.5320  178.5740  140.2850 C   0  0  0  0  0  2  0  0  0  0  0  0
  187.2620  179.0750  141.6360 O   0  0  0  0  0  1  0  0  0  0  0  0
  185.9080  179.0410  141.6090 N   0  0  0  0  0  0  0  0  0  0  0  0
  185.5090  178.0490  142.5190 N   0  0  0  0  0  2  0  0  0  0  0  0
  187.1780  177.7750  145.8540 C   0  0  0  0  0  0  0  0  0  0  0  0
  185.0570  178.9140  146.1140 C   0  0  0  0  0  3  0  0  0  0  0  0
  188.4300  177.2360  146.4450 C   0  0  0  0  0  1  0  0  0  0  0  0
  186.9440  177.6510  144.4820 C   0  0  0  0  0  3  0  0  0  0  0  0
  184.8240  178.7900  144.7410 C   0  0  0  0  0  3  0  0  0  0  0  0
  185.7640  178.1590  143.9200 C   0  0  0  0  0  0  0  0  0  0  0  0
  186.2350  178.4060  146.6700 C   0  0  0  0  0  3  0  0  0  0  0  0
  181.2890  179.0960  140.1810 C   0  0  1  0  0  3  0  0  0  0  0  0
  181.2050  180.7110  138.2640 C   0  0  0  0  0  1  0  0  0  0  0  0
  179.6530  181.0620  140.1710 C   0  0  0  0  0  1  0  0  0  0  0  0
  180.3970  180.0250  139.3460 C   0  0  0  0  0  3  0  0  0  0  0  0
  180.6740  178.5280  141.4610 C   0  0  0  0  0  2  0  0  0  0  0  0
  180.2330  178.6300  144.0310 C   0  0  0  0  0  1  0  0  0  0  0  0
  181.5810  179.1140  142.9200 S   0  0  0  0  0  0  0  0  0  0  0  0
  1 25  1  0  0  0  0
  2  4  2  0  0  0  0
  2  1  1  0  0  0  0
  3  4  1  0  0  0  0
  5 10  2  0  0  0  0
  5  9  1  0  0  0  0
  6  3  2  0  0  0  0
  7  1  1  0  0  0  0
  7 12  1  0  0  0  0
  9  7  2  0  0  0  0
 10  2  1  0  0  0  0
 11  8  1  6  0  0  0
 11  6  1  0  0  0  0
 11 10  1  0  0  0  0
 12 13  1  6  0  0  0
 12 14  1  0  0  0  0
 14 16  1  0  0  0  0
 16 15  1  0  0  0  0
 16 17  1  0  0  0  0
 17 23  1  0  0  0  0
 18 20  1  0  0  0  0
 18 24  1  0  0  0  0
 19 24  2  0  0  0  0
 21 18  2  0  0  0  0
 22 19  1  0  0  0  0
 23 21  1  0  0  0  0
 23 22  2  0  0  0  0
 25 29  1  1  0  0  0
 26 28  1  0  0  0  0
 28 27  1  0  0  0  0
 28 25  1  0  0  0  0
 29 31  1  0  0  0  0
 31 30  1  0  0  0  0
M  END
>  <MODEL>
4

>  <REMARK>
 VINA RESULT:      -6.7      5.653      8.129
  Name = 
  9 active torsions:
  status: ('A' for Active; 'I' for Inactive)
    1  A    between atoms: N_3  and  N_9
    2  A    between atoms: N_3  and  C_22
    3  A    between atoms: N_4  and  C_12
    4  A    between atoms: N_9  and  C_23
    5  A    between atoms: C_12  and  C_25
    6  A    between atoms: C_12  and  C_27
    7  A    between atoms: C_15  and  C_21
    8  A    between atoms: C_15  and  C_23
    9  A    between atoms: C_27  and  S_28
                            x       y       z     vdW  Elec       q    Type
                         _______ _______ _______ _____ _____    ______ ____

>  <TORSDO>
F 9

$$$$
=
 OpenBabel10262419233D

 31 33  0  0  1  0  0  0  0  0999 V2000
  187.0180  177.3760  138.3720 N   0  0  0  0  0  0  0  0  0  0  0  0
  188.3470  176.8100  138.4640 C   0  0  2  0  0  3  0  0  0  0  0  0
  190.1500  175.3490  137.7080 C   0  0  0  0  0  3  0  0  0  0  0  0
  188.8180  175.9530  137.5560 C   0  0  0  0  0  3  0  0  0  0  0  0
  188.6620  177.9130  140.5930 C   0  0  0  0  0  3  0  0  0  0  0  0
  190.9290  175.6660  138.7010 N   0  0  0  0  0  0  0  0  0  0  0  0
  186.5520  178.1920  139.4690 C   0  0  0  0  0  0  0  0  0  0  0  0
  191.5190  177.7840  139.6170 N   0  0  0  0  0  1  0  0  0  0  0  0
  187.3220  178.4160  140.4960 N   0  0  0  0  0  0  0  0  0  0  0  0
  189.1810  177.1470  139.6320 C   0  0  0  0  0  0  0  0  0  0  0  0
  190.6030  176.6610  139.7300 C   0  0  0  0  0  0  0  0  0  0  0  0
  185.1560  178.7410  139.4640 C   0  0  2  0  0  3  0  0  0  0  0  0
  185.0300  179.7600  138.5180 O   0  0  0  0  0  1  0  0  0  0  0  0
  184.7910  179.2580  140.8460 C   0  0  0  0  0  2  0  0  0  0  0  0
  183.0280  177.8830  141.1120 O   0  0  0  0  0  1  0  0  0  0  0  0
  184.2350  178.1810  141.6490 N   0  0  0  0  0  0  0  0  0  0  0  0
  183.9930  178.7110  142.9260 N   0  0  0  0  0  2  0  0  0  0  0  0
  186.9550  177.6550  144.9500 C   0  0  0  0  0  0  0  0  0  0  0  0
  185.1870  178.3750  146.4390 C   0  0  0  0  0  3  0  0  0  0  0  0
  188.3300  177.1290  144.7440 C   0  0  0  0  0  1  0  0  0  0  0  0
  186.1390  177.9250  143.8490 C   0  0  0  0  0  3  0  0  0  0  0  0
  184.3700  178.6450  145.3360 C   0  0  0  0  0  3  0  0  0  0  0  0
  184.8410  178.4220  144.0390 C   0  0  0  0  0  0  0  0  0  0  0  0
  186.4800  177.8800  146.2450 C   0  0  0  0  0  3  0  0  0  0  0  0
  186.1330  177.1810  137.2150 C   0  0  1  0  0  3  0  0  0  0  0  0
  187.3430  179.0190  136.0110 C   0  0  0  0  0  1  0  0  0  0  0  0
  185.8870  177.5000  134.6890 C   0  0  0  0  0  1  0  0  0  0  0  0
  186.7990  177.6080  135.9000 C   0  0  0  0  0  3  0  0  0  0  0  0
  185.4530  175.8110  137.2220 C   0  0  0  0  0  2  0  0  0  0  0  0
  183.4060  174.2040  137.4150 C   0  0  0  0  0  1  0  0  0  0  0  0
  183.6480  175.9950  137.2690 S   0  0  0  0  0  0  0  0  0  0  0  0
  1  2  1  0  0  0  0
  1  7  1  0  0  0  0
  2  4  1  1  0  0  0
  2 10  1  0  0  0  0
  3  6  1  0  0  0  0
  4  3  2  0  0  0  0
  6 11  2  0  0  0  0
  7  9  2  0  0  0  0
  8 11  1  0  0  0  0
  9  5  1  0  0  0  0
 10 11  1  0  0  0  0
 10  5  2  0  0  0  0
 12 13  1  6  0  0  0
 12  7  1  0  0  0  0
 12 14  1  0  0  0  0
 14 16  1  0  0  0  0
 15 16  1  0  0  0  0
 16 17  1  0  0  0  0
 17 23  1  0  0  0  0
 18 24  1  0  0  0  0
 20 18  1  0  0  0  0
 21 23  1  0  0  0  0
 21 18  2  0  0  0  0
 22 19  1  0  0  0  0
 23 22  2  0  0  0  0
 24 19  2  0  0  0  0
 25 29  1  6  0  0  0
 25  1  1  0  0  0  0
 27 28  1  0  0  0  0
 28 26  1  0  0  0  0
 28 25  1  0  0  0  0
 29 31  1  0  0  0  0
 31 30  1  0  0  0  0
M  END
>  <MODEL>
5

>  <REMARK>
 VINA RESULT:      -6.6      2.448      3.597
  Name = 
  9 active torsions:
  status: ('A' for Active; 'I' for Inactive)
    1  A    between atoms: N_3  and  N_9
    2  A    between atoms: N_3  and  C_22
    3  A    between atoms: N_4  and  C_12
    4  A    between atoms: N_9  and  C_23
    5  A    between atoms: C_12  and  C_25
    6  A    between atoms: C_12  and  C_27
    7  A    between atoms: C_15  and  C_21
    8  A    between atoms: C_15  and  C_23
    9  A    between atoms: C_27  and  S_28
                            x       y       z     vdW  Elec       q    Type
                         _______ _______ _______ _____ _____    ______ ____

>  <TORSDO>
F 9

$$$$
=
 OpenBabel10262419233D

 31 33  0  0  1  0  0  0  0  0999 V2000
  181.3290  178.3750  138.1920 N   0  0  0  0  0  0  0  0  0  0  0  0
  181.0510  179.1840  137.0260 C   0  0  0  0  0  0  0  0  0  0  0  0
  180.6100  179.4960  134.6450 C   0  0  0  0  0  3  0  0  0  0  0  0
  180.8300  178.6460  135.8240 C   0  0  0  0  0  3  0  0  0  0  0  0
  181.4080  181.1850  138.3360 C   0  0  0  0  0  3  0  0  0  0  0  0
  180.5720  180.7930  134.7420 N   0  0  0  0  0  0  0  0  0  0  0  0
  181.6810  179.0520  139.4180 C   0  0  0  0  0  0  0  0  0  0  0  0
  179.4480  182.2200  136.2820 N   0  0  0  0  0  1  0  0  0  0  0  0
  181.7280  180.3540  139.4610 N   0  0  0  0  0  0  0  0  0  0  0  0
  181.0740  180.6520  137.1600 C   0  0  0  0  0  0  0  0  0  0  0  0
  180.7010  181.5380  136.0010 C   0  0  1  0  0  3  0  0  0  0  0  0
  182.0550  178.2630  140.6390 C   0  0  2  0  0  3  0  0  0  0  0  0
  181.7220  178.9650  141.7990 O   0  0  0  0  0  1  0  0  0  0  0  0
  183.5410  177.9460  140.6240 C   0  0  0  0  0  2  0  0  0  0  0  0
  184.9510  179.7000  140.5510 O   0  0  0  0  0  1  0  0  0  0  0  0
  184.2650  178.9220  141.4220 N   0  0  0  0  0  0  0  0  0  0  0  0
  185.2160  178.2100  142.1700 N   0  0  0  0  0  2  0  0  0  0  0  0
  186.4370  177.9490  145.6950 C   0  0  0  0  0  0  0  0  0  0  0  0
  184.2000  178.8730  145.6920 C   0  0  0  0  0  3  0  0  0  0  0  0
  187.6450  177.5040  146.4380 C   0  0  0  0  0  1  0  0  0  0  0  0
  186.4050  177.8640  144.3010 C   0  0  0  0  0  3  0  0  0  0  0  0
  184.1670  178.7880  144.2960 C   0  0  0  0  0  3  0  0  0  0  0  0
  185.2670  178.2830  143.5960 C   0  0  0  0  0  0  0  0  0  0  0  0
  185.3350  178.4540  146.3910 C   0  0  0  0  0  3  0  0  0  0  0  0
  181.2480  176.9070  138.1980 C   0  0  1  0  0  3  0  0  0  0  0  0
  179.4640  175.8730  139.6260 C   0  0  0  0  0  1  0  0  0  0  0  0
  179.4750  175.3600  137.1950 C   0  0  0  0  0  1  0  0  0  0  0  0
  179.7970  176.4080  138.2480 C   0  0  0  0  0  3  0  0  0  0  0  0
  182.1540  176.2670  137.1460 C   0  0  0  0  0  2  0  0  0  0  0  0
  183.0840  173.8540  136.7910 C   0  0  0  0  0  1  0  0  0  0  0  0
  183.4110  175.2220  137.9350 S   0  0  0  0  0  0  0  0  0  0  0  0
  1 25  1  0  0  0  0
  1  7  1  0  0  0  0
  2 10  1  0  0  0  0
  2  1  1  0  0  0  0
  3  6  2  0  0  0  0
  3  4  1  0  0  0  0
  4  2  2  0  0  0  0
  5  9  1  0  0  0  0
  6 11  1  0  0  0  0
  7  9  2  0  0  0  0
  7 12  1  0  0  0  0
 10  5  2  0  0  0  0
 11  8  1  1  0  0  0
 11 10  1  0  0  0  0
 12 13  1  1  0  0  0
 14 12  1  0  0  0  0
 14 16  1  0  0  0  0
 15 16  1  0  0  0  0
 16 17  1  0  0  0  0
 17 23  1  0  0  0  0
 18 24  1  0  0  0  0
 18 20  1  0  0  0  0
 19 24  2  0  0  0  0
 21 18  2  0  0  0  0
 22 19  1  0  0  0  0
 23 22  2  0  0  0  0
 23 21  1  0  0  0  0
 25 29  1  6  0  0  0
 25 28  1  0  0  0  0
 27 28  1  0  0  0  0
 28 26  1  0  0  0  0
 29 31  1  0  0  0  0
 30 31  1  0  0  0  0
M  END
>  <MODEL>
6

>  <REMARK>
 VINA RESULT:      -6.3      6.189      8.400
  Name = 
  9 active torsions:
  status: ('A' for Active; 'I' for Inactive)
    1  A    between atoms: N_3  and  N_9
    2  A    between atoms: N_3  and  C_22
    3  A    between atoms: N_4  and  C_12
    4  A    between atoms: N_9  and  C_23
    5  A    between atoms: C_12  and  C_25
    6  A    between atoms: C_12  and  C_27
    7  A    between atoms: C_15  and  C_21
    8  A    between atoms: C_15  and  C_23
    9  A    between atoms: C_27  and  S_28
                            x       y       z     vdW  Elec       q    Type
                         _______ _______ _______ _____ _____    ______ ____

>  <TORSDO>
F 9

$$$$
=
 OpenBabel10262419233D

 31 33  0  0  1  0  0  0  0  0999 V2000
  188.1570  177.9680  143.6060 N   0  0  0  0  0  0  0  0  0  0  0  0
  187.8590  177.8650  145.0180 C   0  0  2  0  0  3  0  0  0  0  0  0
  188.4460  177.3950  147.3410 C   0  0  0  0  0  3  0  0  0  0  0  0
  188.7920  177.5510  145.9200 C   0  0  0  0  0  3  0  0  0  0  0  0
  185.5190  178.2520  144.5460 C   0  0  0  0  0  3  0  0  0  0  0  0
  187.2360  177.6050  147.7710 N   0  0  0  0  0  0  0  0  0  0  0  0
  187.0570  178.1850  142.6960 C   0  0  0  0  0  0  0  0  0  0  0  0
  185.7050  179.3780  147.3440 N   0  0  0  0  0  1  0  0  0  0  0  0
  185.8400  178.2980  143.1490 N   0  0  0  0  0  0  0  0  0  0  0  0
  186.4660  178.0530  145.4630 C   0  0  0  0  0  0  0  0  0  0  0  0
  186.1180  178.0470  146.9290 C   0  0  0  0  0  0  0  0  0  0  0  0
  187.2960  178.2230  141.2150 C   0  0  2  0  0  3  0  0  0  0  0  0
  187.9520  179.4010  140.8520 O   0  0  0  0  0  1  0  0  0  0  0  0
  185.9780  178.1050  140.4680 C   0  0  0  0  0  2  0  0  0  0  0  0
  184.8580  179.7560  139.4240 O   0  0  0  0  0  1  0  0  0  0  0  0
  185.9760  178.9970  139.3200 N   0  0  0  0  0  0  0  0  0  0  0  0
  185.8180  178.1930  138.1810 N   0  0  0  0  0  2  0  0  0  0  0  0
  188.1070  176.0300  136.1630 C   0  0  0  0  0  0  0  0  0  0  0  0
  189.0560  178.2510  136.3410 C   0  0  0  0  0  3  0  0  0  0  0  0
  188.1850  174.6340  135.6620 C   0  0  0  0  0  1  0  0  0  0  0  0
  187.0110  176.4370  136.9280 C   0  0  0  0  0  3  0  0  0  0  0  0
  187.9590  178.6580  137.1060 C   0  0  0  0  0  3  0  0  0  0  0  0
  186.9330  177.7550  137.4030 C   0  0  0  0  0  0  0  0  0  0  0  0
  189.1300  176.9360  135.8690 C   0  0  0  0  0  3  0  0  0  0  0  0
  189.5180  177.8860  143.0570 C   0  0  1  0  0  3  0  0  0  0  0  0
  191.3050  179.3940  143.9670 C   0  0  0  0  0  1  0  0  0  0  0  0
  191.6030  176.9380  144.1950 C   0  0  0  0  0  1  0  0  0  0  0  0
  190.5900  178.0690  144.1410 C   0  0  0  0  0  3  0  0  0  0  0  0
  189.6990  176.6970  142.1130 C   0  0  0  0  0  2  0  0  0  0  0  0
  189.8230  176.4620  139.5170 C   0  0  0  0  0  1  0  0  0  0  0  0
  190.9150  177.0850  140.8230 S   0  0  0  0  0  0  0  0  0  0  0  0
  1  2  1  0  0  0  0
  2 10  1  0  0  0  0
  2  4  1  6  0  0  0
  3  6  1  0  0  0  0
  4  3  2  0  0  0  0
  5 10  2  0  0  0  0
  7  9  2  0  0  0  0
  7  1  1  0  0  0  0
  9  5  1  0  0  0  0
 10 11  1  0  0  0  0
 11  8  1  0  0  0  0
 11  6  2  0  0  0  0
 12 13  1  1  0  0  0
 12  7  1  0  0  0  0
 14 12  1  0  0  0  0
 16 15  1  0  0  0  0
 16 14  1  0  0  0  0
 17 16  1  0  0  0  0
 18 21  1  0  0  0  0
 19 22  2  0  0  0  0
 20 18  1  0  0  0  0
 21 23  2  0  0  0  0
 22 23  1  0  0  0  0
 23 17  1  0  0  0  0
 24 18  2  0  0  0  0
 24 19  1  0  0  0  0
 25 29  1  1  0  0  0
 25  1  1  0  0  0  0
 25 28  1  0  0  0  0
 26 28  1  0  0  0  0
 28 27  1  0  0  0  0
 30 31  1  0  0  0  0
 31 29  1  0  0  0  0
M  END
>  <MODEL>
7

>  <REMARK>
 VINA RESULT:      -6.3      3.366      8.641
  Name = 
  9 active torsions:
  status: ('A' for Active; 'I' for Inactive)
    1  A    between atoms: N_3  and  N_9
    2  A    between atoms: N_3  and  C_22
    3  A    between atoms: N_4  and  C_12
    4  A    between atoms: N_9  and  C_23
    5  A    between atoms: C_12  and  C_25
    6  A    between atoms: C_12  and  C_27
    7  A    between atoms: C_15  and  C_21
    8  A    between atoms: C_15  and  C_23
    9  A    between atoms: C_27  and  S_28
                            x       y       z     vdW  Elec       q    Type
                         _______ _______ _______ _____ _____    ______ ____

>  <TORSDO>
F 9

$$$$
=
 OpenBabel10262419233D

 31 33  0  0  1  0  0  0  0  0999 V2000
  190.5400  177.3670  141.4340 N   0  0  0  0  0  0  0  0  0  0  0  0
  191.5540  177.1320  140.4290 C   0  0  0  0  0  0  0  0  0  0  0  0
  193.8620  176.8450  139.6870 C   0  0  0  0  0  3  0  0  0  0  0  0
  192.8480  177.0230  140.7370 C   0  0  0  0  0  3  0  0  0  0  0  0
  189.8700  177.2990  138.7020 C   0  0  0  0  0  3  0  0  0  0  0  0
  193.5280  176.7370  138.4340 N   0  0  0  0  0  0  0  0  0  0  0  0
  189.1860  177.5990  140.9900 C   0  0  0  0  0  0  0  0  0  0  0  0
  191.8410  175.4390  137.3650 N   0  0  0  0  0  1  0  0  0  0  0  0
  188.8980  177.5800  139.7190 N   0  0  0  0  0  0  0  0  0  0  0  0
  191.1470  177.0740  139.0130 C   0  0  0  0  0  0  0  0  0  0  0  0
  192.1470  176.7410  137.9370 C   0  0  1  0  0  3  0  0  0  0  0  0
  188.1090  177.9250  141.9820 C   0  0  2  0  0  3  0  0  0  0  0  0
  187.3310  176.7970  142.2510 O   0  0  0  0  0  1  0  0  0  0  0  0
  187.2350  179.0520  141.4570 C   0  0  0  0  0  2  0  0  0  0  0  0
  185.7370  178.7450  139.8050 O   0  0  0  0  0  1  0  0  0  0  0  0
  185.9120  178.5460  141.1330 N   0  0  0  0  0  0  0  0  0  0  0  0
  184.9880  179.3720  141.7930 N   0  0  0  0  0  2  0  0  0  0  0  0
  185.0620  178.7440  145.4790 C   0  0  0  0  0  0  0  0  0  0  0  0
  182.7650  178.7480  144.7160 C   0  0  0  0  0  3  0  0  0  0  0  0
  186.0530  178.6130  146.5790 C   0  0  0  0  0  1  0  0  0  0  0  0
  185.4970  178.9900  144.1740 C   0  0  0  0  0  3  0  0  0  0  0  0
  183.2000  178.9940  143.4100 C   0  0  0  0  0  3  0  0  0  0  0  0
  184.5650  179.1150  143.1340 C   0  0  0  0  0  0  0  0  0  0  0  0
  183.6960  178.6240  145.7510 C   0  0  0  0  0  3  0  0  0  0  0  0
  190.8150  177.3590  142.8780 C   0  0  1  0  0  3  0  0  0  0  0  0
  191.3310  179.5510  143.9830 C   0  0  0  0  0  1  0  0  0  0  0  0
  189.3770  178.2510  144.7970 C   0  0  0  0  0  1  0  0  0  0  0  0
  190.2290  178.5900  143.5850 C   0  0  0  0  0  3  0  0  0  0  0  0
  190.5260  176.0020  143.5210 C   0  0  0  0  0  2  0  0  0  0  0  0
  191.6920  176.1050  145.8540 C   0  0  0  0  0  1  0  0  0  0  0  0
  192.0340  175.3110  144.2610 S   0  0  0  0  0  0  0  0  0  0  0  0
  1 25  1  0  0  0  0
  2  4  2  0  0  0  0
  2  1  1  0  0  0  0
  3  4  1  0  0  0  0
  5 10  2  0  0  0  0
  5  9  1  0  0  0  0
  6  3  2  0  0  0  0
  7  1  1  0  0  0  0
  7 12  1  0  0  0  0
  9  7  2  0  0  0  0
 10  2  1  0  0  0  0
 11  8  1  1  0  0  0
 11  6  1  0  0  0  0
 11 10  1  0  0  0  0
 12 13  1  6  0  0  0
 14 12  1  0  0  0  0
 15 16  1  0  0  0  0
 16 14  1  0  0  0  0
 16 17  1  0  0  0  0
 17 23  1  0  0  0  0
 18 24  1  0  0  0  0
 18 20  1  0  0  0  0
 19 24  2  0  0  0  0
 21 18  2  0  0  0  0
 22 19  1  0  0  0  0
 23 22  2  0  0  0  0
 23 21  1  0  0  0  0
 25 29  1  1  0  0  0
 25 28  1  0  0  0  0
 28 26  1  0  0  0  0
 28 27  1  0  0  0  0
 29 31  1  0  0  0  0
 31 30  1  0  0  0  0
M  END
>  <MODEL>
8

>  <REMARK>
 VINA RESULT:      -6.3      2.937      5.093
  Name = 
  9 active torsions:
  status: ('A' for Active; 'I' for Inactive)
    1  A    between atoms: N_3  and  N_9
    2  A    between atoms: N_3  and  C_22
    3  A    between atoms: N_4  and  C_12
    4  A    between atoms: N_9  and  C_23
    5  A    between atoms: C_12  and  C_25
    6  A    between atoms: C_12  and  C_27
    7  A    between atoms: C_15  and  C_21
    8  A    between atoms: C_15  and  C_23
    9  A    between atoms: C_27  and  S_28
                            x       y       z     vdW  Elec       q    Type
                         _______ _______ _______ _____ _____    ______ ____

>  <TORSDO>
F 9

$$$$
=
 OpenBabel10262419233D

 31 33  0  0  1  0  0  0  0  0999 V2000
  189.1300  177.3450  144.8360 N   0  0  0  0  0  0  0  0  0  0  0  0
  188.6060  177.7110  146.1350 C   0  0  2  0  0  3  0  0  0  0  0  0
  188.8370  178.2490  148.5040 C   0  0  0  0  0  3  0  0  0  0  0  0
  189.4010  177.9390  147.1820 C   0  0  0  0  0  3  0  0  0  0  0  0
  186.3540  177.4340  145.2970 C   0  0  0  0  0  3  0  0  0  0  0  0
  187.5530  178.3630  148.6840 N   0  0  0  0  0  0  0  0  0  0  0  0
  188.1870  176.9950  143.8000 C   0  0  0  0  0  0  0  0  0  0  0  0
  185.8900  179.5210  147.4330 N   0  0  0  0  0  1  0  0  0  0  0  0
  186.9060  177.0260  144.0370 N   0  0  0  0  0  0  0  0  0  0  0  0
  187.1450  177.7740  146.3160 C   0  0  0  0  0  0  0  0  0  0  0  0
  186.5490  178.2390  147.6200 C   0  0  0  0  0  0  0  0  0  0  0  0
  188.6740  176.5330  142.4580 C   0  0  2  0  0  3  0  0  0  0  0  0
  189.8140  175.7390  142.5950 O   0  0  0  0  0  1  0  0  0  0  0  0
  188.9690  177.7280  141.5660 C   0  0  0  0  0  2  0  0  0  0  0  0
  188.5290  178.2380  139.4180 O   0  0  0  0  0  1  0  0  0  0  0  0
  187.9190  177.8770  140.5720 N   0  0  0  0  0  0  0  0  0  0  0  0
  187.1300  178.9660  140.9740 N   0  0  0  0  0  2  0  0  0  0  0  0
  183.7500  178.8710  142.5710 C   0  0  0  0  0  0  0  0  0  0  0  0
  183.5170  178.5170  140.1870 C   0  0  0  0  0  3  0  0  0  0  0  0
  183.1370  179.0030  143.9180 C   0  0  0  0  0  1  0  0  0  0  0  0
  185.1350  178.9780  142.4210 C   0  0  0  0  0  3  0  0  0  0  0  0
  184.9030  178.6240  140.0370 C   0  0  0  0  0  3  0  0  0  0  0  0
  185.7170  178.8540  141.1510 C   0  0  0  0  0  0  0  0  0  0  0  0
  182.9400  178.6410  141.4550 C   0  0  0  0  0  3  0  0  0  0  0  0
  190.5640  177.3350  144.5150 C   0  0  1  0  0  3  0  0  0  0  0  0
  192.1090  178.1020  142.6930 C   0  0  0  0  0  1  0  0  0  0  0  0
  191.3050  179.7770  144.3420 C   0  0  0  0  0  1  0  0  0  0  0  0
  190.9580  178.5000  143.5950 C   0  0  0  0  0  3  0  0  0  0  0  0
  191.4390  177.1140  145.7490 C   0  0  0  0  0  2  0  0  0  0  0  0
  192.4300  175.5240  147.5660 C   0  0  0  0  0  1  0  0  0  0  0  0
  192.0570  175.4070  145.7960 S   0  0  0  0  0  0  0  0  0  0  0  0
  1  2  1  0  0  0  0
  2 10  1  0  0  0  0
  2  4  1  1  0  0  0
  3  6  1  0  0  0  0
  4  3  2  0  0  0  0
  5 10  2  0  0  0  0
  7  9  2  0  0  0  0
  7  1  1  0  0  0  0
  8 11  1  0  0  0  0
  9  5  1  0  0  0  0
 10 11  1  0  0  0  0
 11  6  2  0  0  0  0
 12 13  1  1  0  0  0
 12  7  1  0  0  0  0
 14 12  1  0  0  0  0
 15 16  1  0  0  0  0
 16 17  1  0  0  0  0
 16 14  1  0  0  0  0
 17 23  1  0  0  0  0
 18 20  1  0  0  0  0
 19 24  1  0  0  0  0
 21 18  1  0  0  0  0
 22 19  2  0  0  0  0
 22 23  1  0  0  0  0
 23 21  2  0  0  0  0
 24 18  2  0  0  0  0
 25  1  1  0  0  0  0
 25 29  1  1  0  0  0
 26 28  1  0  0  0  0
 28 27  1  0  0  0  0
 28 25  1  0  0  0  0
 29 31  1  0  0  0  0
 31 30  1  0  0  0  0
M  END
>  <MODEL>
9

>  <REMARK>
 VINA RESULT:      -6.3      4.791      8.388
  Name = 
  9 active torsions:
  status: ('A' for Active; 'I' for Inactive)
    1  A    between atoms: N_3  and  N_9
    2  A    between atoms: N_3  and  C_22
    3  A    between atoms: N_4  and  C_12
    4  A    between atoms: N_9  and  C_23
    5  A    between atoms: C_12  and  C_25
    6  A    between atoms: C_12  and  C_27
    7  A    between atoms: C_15  and  C_21
    8  A    between atoms: C_15  and  C_23
    9  A    between atoms: C_27  and  S_28
                            x       y       z     vdW  Elec       q    Type
                         _______ _______ _______ _____ _____    ______ ____

>  <TORSDO>
F 9

$$$$
