=
 OpenBabel10262421203D

 32 35  0  0  1  0  0  0  0  0999 V2000
  192.1540  177.2410  140.0160 C   0  0  0  0  0  0  0  0  0  0  0  0
  193.5620  177.4160  139.9150 N   0  0  0  0  0  1  0  0  0  0  0  0
  188.0580  175.6090  143.1700 O   0  0  0  0  0  1  0  0  0  0  0  0
  189.0960  177.5500  139.8170 S   0  0  0  0  0  0  0  0  0  0  0  0
  189.6050  177.1910  142.4520 C   0  0  0  0  0  0  0  0  0  0  0  0
  191.4540  176.4720  138.9600 C   0  0  0  0  0  3  0  0  0  0  0  0
  190.1370  177.4250  141.2620 C   0  0  0  0  0  0  0  0  0  0  0  0
  191.5430  177.6010  141.1090 N   0  0  0  0  0  0  0  0  0  0  0  0
  189.7060  177.0190  143.9430 O   0  0  0  0  0  0  0  0  0  0  0  0
  190.1230  176.4180  138.8440 C   0  0  0  0  0  0  0  0  0  0  0  0
  188.5280  176.9220  143.2610 C   0  0  2  0  0  0  0  0  0  0  0  0
  187.5500  178.0750  143.4710 C   0  0  1  0  0  3  0  0  0  0  0  0
  186.2420  177.7590  142.7690 C   0  0  1  0  0  3  0  0  0  0  0  0
  186.3460  177.6470  144.3000 C   0  0  2  0  0  3  0  0  0  0  0  0
  185.6950  178.7660  145.1500 C   0  0  1  0  0  3  0  0  0  0  0  0
  184.1950  178.6430  145.3980 C   0  0  0  0  0  1  0  0  0  0  0  0
  186.4090  178.9870  146.4010 N   0  0  0  0  0  2  0  0  0  0  0  0
  187.1820  177.4660  146.8650 S   0  0  0  0  0  0  0  0  0  0  0  0
  187.8380  178.1680  148.4080 C   0  0  0  0  0  2  0  0  0  0  0  0
  189.3530  178.1400  148.3870 C   0  0  0  0  0  2  0  0  0  0  0  0
  189.8330  177.1860  147.3080 C   0  0  0  0  0  2  0  0  0  0  0  0
  191.9090  176.0300  146.6820 C   0  0  0  0  0  2  0  0  0  0  0  0
  191.2470  176.7750  147.5680 C   0  0  0  0  0  3  0  0  0  0  0  0
  185.5600  179.3060  142.0850 S   0  0  0  0  0  0  0  0  0  0  0  0
  184.0850  178.4560  141.4610 C   0  0  0  0  0  1  0  0  0  0  0  0
  189.5980  175.5050  137.9050 O   0  0  0  0  0  0  0  0  0  0  0  0
  187.8500  174.5330  136.4670 C   0  0  0  0  0  2  0  0  0  0  0  0
  188.7450  175.7160  136.7640 C   0  0  1  0  0  3  0  0  0  0  0  0
  187.2720  175.7850  137.1140 C   0  0  1  0  0  3  0  0  0  0  0  0
  186.6030  176.5390  136.1500 O   0  0  0  0  0  0  0  0  0  0  0  0
  185.7780  177.9500  137.8770 C   0  0  0  0  0  1  0  0  0  0  0  0
  186.6390  177.8490  136.6360 C   0  0  0  0  0  2  0  0  0  0  0  0
  1  8  2  0  0  0  0
  2  1  1  0  0  0  0
  4  7  1  0  0  0  0
  5 11  1  0  0  0  0
  5  9  1  0  0  0  0
  6  1  1  0  0  0  0
  7  5  2  0  0  0  0
  8  7  1  0  0  0  0
 10  6  2  0  0  0  0
 10  4  1  0  0  0  0
 11  3  1  6  0  0  0
 11  9  1  0  0  0  0
 12 11  1  6  0  0  0
 12 14  1  0  0  0  0
 13 24  1  1  0  0  0
 13 12  1  0  0  0  0
 13 14  1  0  0  0  0
 14 15  1  1  0  0  0
 15 16  1  1  0  0  0
 15 17  1  0  0  0  0
 17 18  1  0  0  0  0
 18 19  1  0  0  0  0
 20 19  1  0  0  0  0
 21 23  1  0  0  0  0
 21 20  1  0  0  0  0
 22 23  2  0  0  0  0
 25 24  1  0  0  0  0
 26 10  1  0  0  0  0
 27 28  1  0  0  0  0
 27 29  1  0  0  0  0
 28 29  1  0  0  0  0
 28 26  1  1  0  0  0
 29 30  1  6  0  0  0
 30 32  1  0  0  0  0
 32 31  1  0  0  0  0
M  END
>  <MODEL>
1

>  <REMARK>
 VINA RESULT:      -6.9      0.000      0.000
  Name = 
  13 active torsions:
  status: ('A' for Active; 'I' for Inactive)
    1  A    between atoms: C_1  and  N_4
    2  A    between atoms: C_1  and  C_30
    3  A    between atoms: C_2  and  C_27
    4  A    between atoms: N_4  and  S_17
    5  A    between atoms: C_5  and  S_14
    6  A    between atoms: C_6  and  S_17
    7  A    between atoms: C_6  and  C_29
    8  A    between atoms: O_7  and  C_26
    9  A    between atoms: O_7  and  C_31
   10  A    between atoms: C_12  and  O_28
   11  A    between atoms: C_18  and  C_25
   12  A    between atoms: C_18  and  C_29
   13  A    between atoms: O_28  and  C_32
                            x       y       z     vdW  Elec       q    Type
                         _______ _______ _______ _____ _____    ______ ____

>  <TORSDO>
F 13

$$$$
=
 OpenBabel10262421203D

 32 35  0  0  1  0  0  0  0  0999 V2000
  190.8050  176.6100  144.4770 C   0  0  0  0  0  0  0  0  0  0  0  0
  191.9240  176.2940  145.2960 N   0  0  0  0  0  1  0  0  0  0  0  0
  189.1310  179.0240  139.9200 O   0  0  0  0  0  1  0  0  0  0  0  0
  188.1440  176.5590  142.9280 S   0  0  0  0  0  0  0  0  0  0  0  0
  190.0220  177.2230  141.0940 C   0  0  0  0  0  0  0  0  0  0  0  0
  189.6410  177.2900  145.0910 C   0  0  0  0  0  3  0  0  0  0  0  0
  189.8090  176.7820  142.3240 C   0  0  0  0  0  0  0  0  0  0  0  0
  190.8970  176.4590  143.1870 N   0  0  0  0  0  0  0  0  0  0  0  0
  190.9280  177.5840  139.9490 O   0  0  0  0  0  0  0  0  0  0  0  0
  188.4660  177.4510  144.4730 C   0  0  0  0  0  0  0  0  0  0  0  0
  189.5700  177.6970  139.8860 C   0  0  2  0  0  0  0  0  0  0  0  0
  188.8670  176.6780  138.9930 C   0  0  1  0  0  3  0  0  0  0  0  0
  188.3550  177.3730  137.7440 C   0  0  1  0  0  3  0  0  0  0  0  0
  189.6070  176.4800  137.6770 C   0  0  2  0  0  3  0  0  0  0  0  0
  189.4570  175.0780  137.0370 C   0  0  1  0  0  3  0  0  0  0  0  0
  189.5450  175.0140  135.5150 C   0  0  0  0  0  1  0  0  0  0  0  0
  190.3490  174.1010  137.6470 N   0  0  0  0  0  2  0  0  0  0  0  0
  191.7240  173.8630  136.5620 S   0  0  0  0  0  0  0  0  0  0  0  0
  192.8330  174.8560  137.6050 C   0  0  0  0  0  2  0  0  0  0  0  0
  194.1770  175.0180  136.9240 C   0  0  0  0  0  2  0  0  0  0  0  0
  195.0590  173.8230  137.2410 C   0  0  0  0  0  2  0  0  0  0  0  0
  196.4090  174.3240  139.2320 C   0  0  0  0  0  2  0  0  0  0  0  0
  195.3250  173.7490  138.7110 C   0  0  0  0  0  3  0  0  0  0  0  0
  186.7610  176.6220  137.2730 S   0  0  0  0  0  0  0  0  0  0  0  0
  185.8350  178.0670  137.8560 C   0  0  0  0  0  1  0  0  0  0  0  0
  187.5130  178.2730  145.1100 O   0  0  0  0  0  0  0  0  0  0  0  0
  185.8910  178.6460  146.9260 C   0  0  0  0  0  2  0  0  0  0  0  0
  186.1950  177.9730  145.6050 C   0  0  1  0  0  3  0  0  0  0  0  0
  185.2730  179.1760  145.6390 C   0  0  1  0  0  3  0  0  0  0  0  0
  183.9490  178.7460  145.5490 O   0  0  0  0  0  0  0  0  0  0  0  0
  183.7700  178.7930  143.1780 C   0  0  0  0  0  1  0  0  0  0  0  0
  183.4110  179.4720  144.4820 C   0  0  0  0  0  2  0  0  0  0  0  0
  1  6  1  0  0  0  0
  1  2  1  0  0  0  0
  4 10  1  0  0  0  0
  5  7  2  0  0  0  0
  7  4  1  0  0  0  0
  7  8  1  0  0  0  0
  8  1  2  0  0  0  0
  9  5  1  0  0  0  0
 10  6  2  0  0  0  0
 10 26  1  0  0  0  0
 11  3  1  6  0  0  0
 11  9  1  0  0  0  0
 11  5  1  0  0  0  0
 12 11  1  1  0  0  0
 13 24  1  6  0  0  0
 13 12  1  0  0  0  0
 14 15  1  6  0  0  0
 14 13  1  0  0  0  0
 14 12  1  0  0  0  0
 15 16  1  6  0  0  0
 15 17  1  0  0  0  0
 18 19  1  0  0  0  0
 18 17  1  0  0  0  0
 20 21  1  0  0  0  0
 20 19  1  0  0  0  0
 21 23  1  0  0  0  0
 23 22  2  0  0  0  0
 24 25  1  0  0  0  0
 28 26  1  6  0  0  0
 28 29  1  0  0  0  0
 28 27  1  0  0  0  0
 29 30  1  1  0  0  0
 29 27  1  0  0  0  0
 31 32  1  0  0  0  0
 32 30  1  0  0  0  0
M  END
>  <MODEL>
2

>  <REMARK>
 VINA RESULT:      -6.2      3.073      8.050
  Name = 
  13 active torsions:
  status: ('A' for Active; 'I' for Inactive)
    1  A    between atoms: C_1  and  N_4
    2  A    between atoms: C_1  and  C_30
    3  A    between atoms: C_2  and  C_27
    4  A    between atoms: N_4  and  S_17
    5  A    between atoms: C_5  and  S_14
    6  A    between atoms: C_6  and  S_17
    7  A    between atoms: C_6  and  C_29
    8  A    between atoms: O_7  and  C_26
    9  A    between atoms: O_7  and  C_31
   10  A    between atoms: C_12  and  O_28
   11  A    between atoms: C_18  and  C_25
   12  A    between atoms: C_18  and  C_29
   13  A    between atoms: O_28  and  C_32
                            x       y       z     vdW  Elec       q    Type
                         _______ _______ _______ _____ _____    ______ ____

>  <TORSDO>
F 13

$$$$
=
 OpenBabel10262421203D

 32 35  0  0  1  0  0  0  0  0999 V2000
  190.7540  176.5130  144.2400 C   0  0  0  0  0  0  0  0  0  0  0  0
  191.8790  176.1150  145.0150 N   0  0  0  0  0  1  0  0  0  0  0  0
  189.0660  179.2310  139.8640 O   0  0  0  0  0  1  0  0  0  0  0  0
  188.0610  176.6360  142.7520 S   0  0  0  0  0  0  0  0  0  0  0  0
  189.9210  177.3390  140.9150 C   0  0  0  0  0  0  0  0  0  0  0  0
  189.6270  177.1950  144.9170 C   0  0  0  0  0  3  0  0  0  0  0  0
  189.7190  176.8380  142.1240 C   0  0  0  0  0  0  0  0  0  0  0  0
  190.8140  176.4310  142.9420 N   0  0  0  0  0  0  0  0  0  0  0  0
  190.8140  177.7350  139.7720 O   0  0  0  0  0  0  0  0  0  0  0  0
  188.4460  177.4280  144.3360 C   0  0  0  0  0  0  0  0  0  0  0  0
  189.4600  177.8950  139.7460 C   0  0  2  0  0  0  0  0  0  0  0  0
  188.7040  176.9510  138.8140 C   0  0  1  0  0  3  0  0  0  0  0  0
  188.0410  177.7570  137.7120 C   0  0  1  0  0  3  0  0  0  0  0  0
  189.3090  176.9380  137.4170 C   0  0  2  0  0  3  0  0  0  0  0  0
  189.1430  175.6110  136.6350 C   0  0  1  0  0  3  0  0  0  0  0  0
  189.8850  175.5090  135.3070 C   0  0  0  0  0  1  0  0  0  0  0  0
  189.4170  174.4490  137.4700 N   0  0  0  0  0  2  0  0  0  0  0  0
  188.8800  173.0080  136.5960 S   0  0  0  0  0  0  0  0  0  0  0  0
  187.1430  173.5450  136.6000 C   0  0  0  0  0  2  0  0  0  0  0  0
  186.3390  172.6900  137.5590 C   0  0  0  0  0  2  0  0  0  0  0  0
  184.8700  173.0610  137.4680 C   0  0  0  0  0  2  0  0  0  0  0  0
  183.0070  171.5050  137.0850 C   0  0  0  0  0  2  0  0  0  0  0  0
  184.1320  172.0610  136.6360 C   0  0  0  0  0  3  0  0  0  0  0  0
  186.4330  176.9900  137.3170 S   0  0  0  0  0  0  0  0  0  0  0  0
  185.5260  178.2790  138.2120 C   0  0  0  0  0  1  0  0  0  0  0  0
  187.5350  178.2440  145.0390 O   0  0  0  0  0  0  0  0  0  0  0  0
  186.0280  178.3140  146.9870 C   0  0  0  0  0  2  0  0  0  0  0  0
  186.2070  177.9680  145.5250 C   0  0  1  0  0  3  0  0  0  0  0  0
  185.4330  179.2130  145.9100 C   0  0  1  0  0  3  0  0  0  0  0  0
  184.0660  178.9600  145.7980 O   0  0  0  0  0  0  0  0  0  0  0  0
  182.4320  178.7570  144.0820 C   0  0  0  0  0  1  0  0  0  0  0  0
  183.7250  179.4130  144.5200 C   0  0  0  0  0  2  0  0  0  0  0  0
  1  6  1  0  0  0  0
  1  2  1  0  0  0  0
  4 10  1  0  0  0  0
  5  7  2  0  0  0  0
  7  4  1  0  0  0  0
  7  8  1  0  0  0  0
  8  1  2  0  0  0  0
  9  5  1  0  0  0  0
 10  6  2  0  0  0  0
 10 26  1  0  0  0  0
 11  9  1  0  0  0  0
 11  3  1  1  0  0  0
 11  5  1  0  0  0  0
 12 11  1  1  0  0  0
 13 24  1  6  0  0  0
 13 12  1  0  0  0  0
 14 15  1  6  0  0  0
 14 13  1  0  0  0  0
 14 12  1  0  0  0  0
 15 16  1  6  0  0  0
 15 17  1  0  0  0  0
 18 19  1  0  0  0  0
 18 17  1  0  0  0  0
 19 20  1  0  0  0  0
 21 20  1  0  0  0  0
 23 22  2  0  0  0  0
 23 21  1  0  0  0  0
 24 25  1  0  0  0  0
 28 26  1  6  0  0  0
 28 29  1  0  0  0  0
 28 27  1  0  0  0  0
 29 30  1  1  0  0  0
 29 27  1  0  0  0  0
 31 32  1  0  0  0  0
 32 30  1  0  0  0  0
M  END
>  <MODEL>
3

>  <REMARK>
 VINA RESULT:      -6.1      2.990      8.422
  Name = 
  13 active torsions:
  status: ('A' for Active; 'I' for Inactive)
    1  A    between atoms: C_1  and  N_4
    2  A    between atoms: C_1  and  C_30
    3  A    between atoms: C_2  and  C_27
    4  A    between atoms: N_4  and  S_17
    5  A    between atoms: C_5  and  S_14
    6  A    between atoms: C_6  and  S_17
    7  A    between atoms: C_6  and  C_29
    8  A    between atoms: O_7  and  C_26
    9  A    between atoms: O_7  and  C_31
   10  A    between atoms: C_12  and  O_28
   11  A    between atoms: C_18  and  C_25
   12  A    between atoms: C_18  and  C_29
   13  A    between atoms: O_28  and  C_32
                            x       y       z     vdW  Elec       q    Type
                         _______ _______ _______ _____ _____    ______ ____

>  <TORSDO>
F 13

$$$$
=
 OpenBabel10262421203D

 32 35  0  0  1  0  0  0  0  0999 V2000
  192.5530  176.5740  138.0850 C   0  0  0  0  0  0  0  0  0  0  0  0
  193.7880  176.8580  137.4400 N   0  0  0  0  0  1  0  0  0  0  0  0
  190.1410  175.2270  142.7500 O   0  0  0  0  0  1  0  0  0  0  0  0
  189.6120  176.5450  138.9990 S   0  0  0  0  0  0  0  0  0  0  0  0
  191.0620  176.7730  141.2750 C   0  0  0  0  0  0  0  0  0  0  0  0
  191.6620  175.5460  137.4980 C   0  0  0  0  0  3  0  0  0  0  0  0
  191.0980  176.8120  139.9510 C   0  0  0  0  0  0  0  0  0  0  0  0
  192.3130  177.0860  139.2580 N   0  0  0  0  0  0  0  0  0  0  0  0
  191.7040  176.9140  142.6270 O   0  0  0  0  0  0  0  0  0  0  0  0
  190.4020  175.3430  137.8970 C   0  0  0  0  0  0  0  0  0  0  0  0
  190.3940  176.5710  142.4580 C   0  0  2  0  0  0  0  0  0  0  0  0
  189.3790  177.6440  142.8410 C   0  0  1  0  0  3  0  0  0  0  0  0
  188.0940  177.4190  142.0660 C   0  0  1  0  0  3  0  0  0  0  0  0
  188.1750  177.0490  143.5570 C   0  0  2  0  0  3  0  0  0  0  0  0
  187.4760  177.9880  144.5710 C   0  0  1  0  0  3  0  0  0  0  0  0
  186.1220  177.5260  145.1010 C   0  0  0  0  0  1  0  0  0  0  0  0
  188.3590  178.3610  145.6670 N   0  0  0  0  0  2  0  0  0  0  0  0
  187.8860  177.4300  147.0940 S   0  0  0  0  0  0  0  0  0  0  0  0
  189.5660  176.7840  147.3400 C   0  0  0  0  0  2  0  0  0  0  0  0
  190.4660  177.2350  146.2060 C   0  0  0  0  0  2  0  0  0  0  0  0
  191.7940  176.5040  146.2830 C   0  0  0  0  0  2  0  0  0  0  0  0
  192.9210  175.6970  148.3120 C   0  0  0  0  0  2  0  0  0  0  0  0
  191.8510  175.6600  147.5170 C   0  0  0  0  0  3  0  0  0  0  0  0
  187.3780  179.0430  141.6410 S   0  0  0  0  0  0  0  0  0  0  0  0
  185.8150  178.2880  141.1180 C   0  0  0  0  0  1  0  0  0  0  0  0
  189.7360  174.2150  137.3730 O   0  0  0  0  0  0  0  0  0  0  0  0
  188.7740  172.9650  135.4800 C   0  0  0  0  0  2  0  0  0  0  0  0
  188.6340  174.1170  136.4510 C   0  0  1  0  0  3  0  0  0  0  0  0
  187.7940  172.8710  136.6420 C   0  0  1  0  0  3  0  0  0  0  0  0
  186.5000  173.1100  136.1780 O   0  0  0  0  0  0  0  0  0  0  0  0
  184.5870  172.5940  137.4930 C   0  0  0  0  0  1  0  0  0  0  0  0
  185.7830  173.5040  137.3120 C   0  0  0  0  0  2  0  0  0  0  0  0
  1  8  2  0  0  0  0
  2  1  1  0  0  0  0
  4  7  1  0  0  0  0
  5 11  1  0  0  0  0
  5  9  1  0  0  0  0
  6 10  2  0  0  0  0
  6  1  1  0  0  0  0
  7  5  2  0  0  0  0
  8  7  1  0  0  0  0
 10  4  1  0  0  0  0
 11  9  1  0  0  0  0
 11  3  1  1  0  0  0
 12 11  1  6  0  0  0
 12 14  1  0  0  0  0
 13 24  1  1  0  0  0
 13 12  1  0  0  0  0
 13 14  1  0  0  0  0
 14 15  1  1  0  0  0
 15 16  1  1  0  0  0
 15 17  1  0  0  0  0
 17 18  1  0  0  0  0
 18 19  1  0  0  0  0
 20 21  1  0  0  0  0
 20 19  1  0  0  0  0
 21 23  1  0  0  0  0
 23 22  2  0  0  0  0
 25 24  1  0  0  0  0
 26 10  1  0  0  0  0
 27 28  1  0  0  0  0
 27 29  1  0  0  0  0
 28 29  1  0  0  0  0
 28 26  1  1  0  0  0
 29 30  1  6  0  0  0
 30 32  1  0  0  0  0
 32 31  1  0  0  0  0
M  END
>  <MODEL>
4

>  <REMARK>
 VINA RESULT:      -6.0      1.857      2.375
  Name = 
  13 active torsions:
  status: ('A' for Active; 'I' for Inactive)
    1  A    between atoms: C_1  and  N_4
    2  A    between atoms: C_1  and  C_30
    3  A    between atoms: C_2  and  C_27
    4  A    between atoms: N_4  and  S_17
    5  A    between atoms: C_5  and  S_14
    6  A    between atoms: C_6  and  S_17
    7  A    between atoms: C_6  and  C_29
    8  A    between atoms: O_7  and  C_26
    9  A    between atoms: O_7  and  C_31
   10  A    between atoms: C_12  and  O_28
   11  A    between atoms: C_18  and  C_25
   12  A    between atoms: C_18  and  C_29
   13  A    between atoms: O_28  and  C_32
                            x       y       z     vdW  Elec       q    Type
                         _______ _______ _______ _____ _____    ______ ____

>  <TORSDO>
F 13

$$$$
=
 OpenBabel10262421203D

 32 35  0  0  1  0  0  0  0  0999 V2000
  192.2080  177.2590  140.0490 C   0  0  0  0  0  0  0  0  0  0  0  0
  193.6170  177.4080  139.9220 N   0  0  0  0  0  1  0  0  0  0  0  0
  188.1590  175.4300  143.1560 O   0  0  0  0  0  1  0  0  0  0  0  0
  189.1560  177.6650  139.9770 S   0  0  0  0  0  0  0  0  0  0  0  0
  189.7300  177.0360  142.5470 C   0  0  0  0  0  0  0  0  0  0  0  0
  191.4570  176.6160  138.9460 C   0  0  0  0  0  3  0  0  0  0  0  0
  190.2330  177.3720  141.3690 C   0  0  0  0  0  0  0  0  0  0  0  0
  191.6390  177.5260  141.1900 N   0  0  0  0  0  0  0  0  0  0  0  0
  189.8680  176.7160  144.0100 O   0  0  0  0  0  0  0  0  0  0  0  0
  190.1220  176.6070  138.8660 C   0  0  0  0  0  0  0  0  0  0  0  0
  188.6690  176.7160  143.3590 C   0  0  2  0  0  0  0  0  0  0  0  0
  187.7310  177.8670  143.7110 C   0  0  1  0  0  3  0  0  0  0  0  0
  186.4360  177.7160  142.9330 C   0  0  1  0  0  3  0  0  0  0  0  0
  186.4830  177.3750  144.4330 C   0  0  2  0  0  3  0  0  0  0  0  0
  185.8480  178.3850  145.4210 C   0  0  1  0  0  3  0  0  0  0  0  0
  184.4020  178.7840  145.1460 C   0  0  0  0  0  1  0  0  0  0  0  0
  186.0130  177.9690  146.8070 N   0  0  0  0  0  2  0  0  0  0  0  0
  187.2580  178.9890  147.5400 S   0  0  0  0  0  0  0  0  0  0  0  0
  188.0260  177.5860  148.4030 C   0  0  0  0  0  2  0  0  0  0  0  0
  188.8570  176.7730  147.4310 C   0  0  0  0  0  2  0  0  0  0  0  0
  190.2790  177.3050  147.4030 C   0  0  0  0  0  2  0  0  0  0  0  0
  192.0750  175.9080  146.4770 C   0  0  0  0  0  2  0  0  0  0  0  0
  191.2580  176.1780  147.4950 C   0  0  0  0  0  3  0  0  0  0  0  0
  185.8400  179.3760  142.4680 S   0  0  0  0  0  0  0  0  0  0  0  0
  185.5640  178.8650  140.7500 C   0  0  0  0  0  1  0  0  0  0  0  0
  189.5450  175.8050  137.8600 O   0  0  0  0  0  0  0  0  0  0  0  0
  189.3140  174.1760  136.0250 C   0  0  0  0  0  2  0  0  0  0  0  0
  189.9010  174.4930  137.3840 C   0  0  1  0  0  3  0  0  0  0  0  0
  190.7930  174.5150  136.1590 C   0  0  1  0  0  3  0  0  0  0  0  0
  191.5440  173.3400  136.1140 O   0  0  0  0  0  0  0  0  0  0  0  0
  193.5720  174.3410  136.8500 C   0  0  0  0  0  1  0  0  0  0  0  0
  192.8120  173.7450  135.6840 C   0  0  0  0  0  2  0  0  0  0  0  0
  1  8  2  0  0  0  0
  2  1  1  0  0  0  0
  4  7  1  0  0  0  0
  5 11  1  0  0  0  0
  5  9  1  0  0  0  0
  6  1  1  0  0  0  0
  7  5  2  0  0  0  0
  8  7  1  0  0  0  0
 10  6  2  0  0  0  0
 10  4  1  0  0  0  0
 11  3  1  6  0  0  0
 11  9  1  0  0  0  0
 12 11  1  6  0  0  0
 12 14  1  0  0  0  0
 13 24  1  1  0  0  0
 13 12  1  0  0  0  0
 13 14  1  0  0  0  0
 14 15  1  1  0  0  0
 15 16  1  6  0  0  0
 15 17  1  0  0  0  0
 17 18  1  0  0  0  0
 18 19  1  0  0  0  0
 20 19  1  0  0  0  0
 21 20  1  0  0  0  0
 21 23  1  0  0  0  0
 22 23  2  0  0  0  0
 25 24  1  0  0  0  0
 26 10  1  0  0  0  0
 27 29  1  0  0  0  0
 27 28  1  0  0  0  0
 28 26  1  6  0  0  0
 29 30  1  1  0  0  0
 29 28  1  0  0  0  0
 32 30  1  0  0  0  0
 32 31  1  0  0  0  0
M  END
>  <MODEL>
5

>  <REMARK>
 VINA RESULT:      -5.9      1.452      2.490
  Name = 
  13 active torsions:
  status: ('A' for Active; 'I' for Inactive)
    1  A    between atoms: C_1  and  N_4
    2  A    between atoms: C_1  and  C_30
    3  A    between atoms: C_2  and  C_27
    4  A    between atoms: N_4  and  S_17
    5  A    between atoms: C_5  and  S_14
    6  A    between atoms: C_6  and  S_17
    7  A    between atoms: C_6  and  C_29
    8  A    between atoms: O_7  and  C_26
    9  A    between atoms: O_7  and  C_31
   10  A    between atoms: C_12  and  O_28
   11  A    between atoms: C_18  and  C_25
   12  A    between atoms: C_18  and  C_29
   13  A    between atoms: O_28  and  C_32
                            x       y       z     vdW  Elec       q    Type
                         _______ _______ _______ _____ _____    ______ ____

>  <TORSDO>
F 13

$$$$
=
 OpenBabel10262421203D

 32 35  0  0  1  0  0  0  0  0999 V2000
  190.9750  176.9510  144.6760 C   0  0  0  0  0  0  0  0  0  0  0  0
  191.9570  177.0090  145.7020 N   0  0  0  0  0  1  0  0  0  0  0  0
  189.5680  178.6480  139.7230 O   0  0  0  0  0  1  0  0  0  0  0  0
  188.7990  176.0580  142.6880 S   0  0  0  0  0  0  0  0  0  0  0  0
  190.7110  177.2300  141.1700 C   0  0  0  0  0  0  0  0  0  0  0  0
  189.5660  177.2530  145.0200 C   0  0  0  0  0  3  0  0  0  0  0  0
  190.4060  176.7690  142.3740 C   0  0  0  0  0  0  0  0  0  0  0  0
  191.3540  176.8110  143.4380 N   0  0  0  0  0  0  0  0  0  0  0  0
  191.6710  177.8300  140.1810 O   0  0  0  0  0  0  0  0  0  0  0  0
  188.5390  177.0340  144.1920 C   0  0  0  0  0  0  0  0  0  0  0  0
  190.3800  177.5200  139.8690 C   0  0  2  0  0  0  0  0  0  0  0  0
  190.1980  176.3180  138.9460 C   0  0  1  0  0  3  0  0  0  0  0  0
  189.4200  176.7430  137.7140 C   0  0  1  0  0  3  0  0  0  0  0  0
  190.9370  176.5040  137.6280 C   0  0  2  0  0  3  0  0  0  0  0  0
  191.4230  175.1980  136.9510 C   0  0  1  0  0  3  0  0  0  0  0  0
  191.9300  175.3260  135.5180 C   0  0  0  0  0  1  0  0  0  0  0  0
  192.3850  174.4810  137.7770 N   0  0  0  0  0  2  0  0  0  0  0  0
  193.7690  174.0570  136.7620 S   0  0  0  0  0  0  0  0  0  0  0  0
  194.9680  174.5380  138.0400 C   0  0  0  0  0  2  0  0  0  0  0  0
  195.8490  173.3570  138.3950 C   0  0  0  0  0  2  0  0  0  0  0  0
  196.8780  173.1380  137.3000 C   0  0  0  0  0  2  0  0  0  0  0  0
  199.1800  173.9860  137.4220 C   0  0  0  0  0  2  0  0  0  0  0  0
  197.8790  174.2490  137.3000 C   0  0  0  0  0  3  0  0  0  0  0  0
  188.3240  175.3730  137.2160 S   0  0  0  0  0  0  0  0  0  0  0  0
  187.4930  176.4030  135.9770 C   0  0  0  0  0  1  0  0  0  0  0  0
  187.2800  177.5360  144.5850 O   0  0  0  0  0  0  0  0  0  0  0  0
  185.5330  178.0920  146.2310 C   0  0  0  0  0  2  0  0  0  0  0  0
  186.9100  178.3940  145.6810 C   0  0  1  0  0  3  0  0  0  0  0  0
  186.7760  177.6640  147.0020 C   0  0  1  0  0  3  0  0  0  0  0  0
  187.0030  178.5570  148.0490 O   0  0  0  0  0  0  0  0  0  0  0  0
  189.3340  178.3090  148.4500 C   0  0  0  0  0  1  0  0  0  0  0  0
  187.9340  177.9140  148.8700 C   0  0  0  0  0  2  0  0  0  0  0  0
  1  6  1  0  0  0  0
  1  2  1  0  0  0  0
  4 10  1  0  0  0  0
  5  7  2  0  0  0  0
  7  4  1  0  0  0  0
  7  8  1  0  0  0  0
  8  1  2  0  0  0  0
  9  5  1  0  0  0  0
 10 26  1  0  0  0  0
 10  6  2  0  0  0  0
 11  3  1  6  0  0  0
 11  9  1  0  0  0  0
 11  5  1  0  0  0  0
 12 11  1  1  0  0  0
 13 24  1  6  0  0  0
 13 12  1  0  0  0  0
 14 15  1  6  0  0  0
 14 13  1  0  0  0  0
 14 12  1  0  0  0  0
 15 16  1  6  0  0  0
 15 17  1  0  0  0  0
 18 17  1  0  0  0  0
 18 19  1  0  0  0  0
 19 20  1  0  0  0  0
 21 20  1  0  0  0  0
 23 21  1  0  0  0  0
 23 22  2  0  0  0  0
 25 24  1  0  0  0  0
 27 29  1  0  0  0  0
 28 26  1  6  0  0  0
 28 27  1  0  0  0  0
 28 29  1  0  0  0  0
 29 30  1  1  0  0  0
 30 32  1  0  0  0  0
 31 32  1  0  0  0  0
M  END
>  <MODEL>
6

>  <REMARK>
 VINA RESULT:      -5.5      3.619      8.993
  Name = 
  13 active torsions:
  status: ('A' for Active; 'I' for Inactive)
    1  A    between atoms: C_1  and  N_4
    2  A    between atoms: C_1  and  C_30
    3  A    between atoms: C_2  and  C_27
    4  A    between atoms: N_4  and  S_17
    5  A    between atoms: C_5  and  S_14
    6  A    between atoms: C_6  and  S_17
    7  A    between atoms: C_6  and  C_29
    8  A    between atoms: O_7  and  C_26
    9  A    between atoms: O_7  and  C_31
   10  A    between atoms: C_12  and  O_28
   11  A    between atoms: C_18  and  C_25
   12  A    between atoms: C_18  and  C_29
   13  A    between atoms: O_28  and  C_32
                            x       y       z     vdW  Elec       q    Type
                         _______ _______ _______ _____ _____    ______ ____

>  <TORSDO>
F 13

$$$$
=
 OpenBabel10262421203D

 32 35  0  0  1  0  0  0  0  0999 V2000
  188.3460  178.6290  137.8860 C   0  0  0  0  0  0  0  0  0  0  0  0
  189.2970  179.0830  136.9300 N   0  0  0  0  0  1  0  0  0  0  0  0
  187.6190  176.1570  142.6560 O   0  0  0  0  0  1  0  0  0  0  0  0
  185.9110  178.3280  139.7470 S   0  0  0  0  0  0  0  0  0  0  0  0
  188.0730  178.0290  141.3500 C   0  0  0  0  0  0  0  0  0  0  0  0
  187.2390  177.7570  137.4310 C   0  0  0  0  0  3  0  0  0  0  0  0
  187.6500  178.3850  140.1470 C   0  0  0  0  0  0  0  0  0  0  0  0
  188.5650  178.8400  139.1520 N   0  0  0  0  0  0  0  0  0  0  0  0
  189.1520  177.8530  142.3820 O   0  0  0  0  0  0  0  0  0  0  0  0
  186.1850  177.4400  138.1910 C   0  0  0  0  0  0  0  0  0  0  0  0
  187.8460  177.5360  142.6120 C   0  0  2  0  0  0  0  0  0  0  0  0
  187.1020  178.4670  143.5650 C   0  0  1  0  0  3  0  0  0  0  0  0
  185.6240  178.1220  143.5540 C   0  0  1  0  0  3  0  0  0  0  0  0
  186.5070  177.7070  144.7430 C   0  0  2  0  0  3  0  0  0  0  0  0
  186.3740  178.5180  146.0560 C   0  0  1  0  0  3  0  0  0  0  0  0
  185.3360  178.0220  147.0570 C   0  0  0  0  0  1  0  0  0  0  0  0
  187.6620  178.7190  146.7060 N   0  0  0  0  0  2  0  0  0  0  0  0
  187.8380  177.4920  147.9660 S   0  0  0  0  0  0  0  0  0  0  0  0
  189.5990  177.2360  147.5970 C   0  0  0  0  0  2  0  0  0  0  0  0
  189.8130  177.2020  146.0970 C   0  0  0  0  0  2  0  0  0  0  0  0
  191.2790  176.9470  145.7950 C   0  0  0  0  0  2  0  0  0  0  0  0
  191.6730  178.8850  144.3380 C   0  0  0  0  0  2  0  0  0  0  0  0
  191.6540  177.5600  144.4840 C   0  0  0  0  0  3  0  0  0  0  0  0
  184.6650  179.6660  143.7180 S   0  0  0  0  0  0  0  0  0  0  0  0
  183.1380  178.7540  144.0690 C   0  0  0  0  0  1  0  0  0  0  0  0
  185.3040  176.4590  137.6900 O   0  0  0  0  0  0  0  0  0  0  0  0
  183.1810  175.2100  137.6220 C   0  0  0  0  0  2  0  0  0  0  0  0
  183.8970  176.5240  137.3900 C   0  0  1  0  0  3  0  0  0  0  0  0
  183.0100  176.3600  138.6080 C   0  0  1  0  0  3  0  0  0  0  0  0
  181.7880  176.9900  138.3780 O   0  0  0  0  0  0  0  0  0  0  0  0
  182.1960  177.9430  140.5180 C   0  0  0  0  0  1  0  0  0  0  0  0
  181.8810  178.2070  139.0610 C   0  0  0  0  0  2  0  0  0  0  0  0
  1  8  2  0  0  0  0
  2  1  1  0  0  0  0
  4  7  1  0  0  0  0
  5  9  1  0  0  0  0
  5 11  1  0  0  0  0
  6  1  1  0  0  0  0
  6 10  2  0  0  0  0
  7  5  2  0  0  0  0
  8  7  1  0  0  0  0
  9 11  1  0  0  0  0
 10  4  1  0  0  0  0
 11  3  1  1  0  0  0
 12 11  1  6  0  0  0
 12 14  1  0  0  0  0
 13 12  1  0  0  0  0
 13 24  1  1  0  0  0
 13 14  1  0  0  0  0
 14 15  1  1  0  0  0
 15 17  1  0  0  0  0
 15 16  1  1  0  0  0
 17 18  1  0  0  0  0
 19 18  1  0  0  0  0
 20 19  1  0  0  0  0
 21 20  1  0  0  0  0
 22 23  2  0  0  0  0
 23 21  1  0  0  0  0
 24 25  1  0  0  0  0
 26 10  1  0  0  0  0
 27 29  1  0  0  0  0
 28 27  1  0  0  0  0
 28 26  1  1  0  0  0
 28 29  1  0  0  0  0
 29 30  1  6  0  0  0
 30 32  1  0  0  0  0
 32 31  1  0  0  0  0
M  END
>  <MODEL>
7

>  <REMARK>
 VINA RESULT:      -5.4      2.421      3.351
  Name = 
  13 active torsions:
  status: ('A' for Active; 'I' for Inactive)
    1  A    between atoms: C_1  and  N_4
    2  A    between atoms: C_1  and  C_30
    3  A    between atoms: C_2  and  C_27
    4  A    between atoms: N_4  and  S_17
    5  A    between atoms: C_5  and  S_14
    6  A    between atoms: C_6  and  S_17
    7  A    between atoms: C_6  and  C_29
    8  A    between atoms: O_7  and  C_26
    9  A    between atoms: O_7  and  C_31
   10  A    between atoms: C_12  and  O_28
   11  A    between atoms: C_18  and  C_25
   12  A    between atoms: C_18  and  C_29
   13  A    between atoms: O_28  and  C_32
                            x       y       z     vdW  Elec       q    Type
                         _______ _______ _______ _____ _____    ______ ____

>  <TORSDO>
F 13

$$$$
=
 OpenBabel10262421203D

 32 35  0  0  1  0  0  0  0  0999 V2000
  190.5230  177.0060  144.3810 C   0  0  0  0  0  0  0  0  0  0  0  0
  191.6700  176.9410  145.2200 N   0  0  0  0  0  1  0  0  0  0  0  0
  188.4330  179.0200  139.8010 O   0  0  0  0  0  1  0  0  0  0  0  0
  187.9680  176.3750  142.7820 S   0  0  0  0  0  0  0  0  0  0  0  0
  189.6830  177.4540  140.9850 C   0  0  0  0  0  0  0  0  0  0  0  0
  189.2260  177.4050  144.9750 C   0  0  0  0  0  3  0  0  0  0  0  0
  189.5510  176.9680  142.2100 C   0  0  0  0  0  0  0  0  0  0  0  0
  190.6690  176.8890  143.0920 N   0  0  0  0  0  0  0  0  0  0  0  0
  190.5050  178.0170  139.8590 O   0  0  0  0  0  0  0  0  0  0  0  0
  188.0560  177.3040  144.3350 C   0  0  0  0  0  0  0  0  0  0  0  0
  189.1570  177.8240  139.7710 C   0  0  2  0  0  0  0  0  0  0  0  0
  188.7150  176.6810  138.8620 C   0  0  1  0  0  3  0  0  0  0  0  0
  187.9770  177.2490  137.6630 C   0  0  1  0  0  3  0  0  0  0  0  0
  189.4180  176.7330  137.5120 C   0  0  2  0  0  3  0  0  0  0  0  0
  189.6230  175.3630  136.8180 C   0  0  1  0  0  3  0  0  0  0  0  0
  190.1190  175.4010  135.3770 C   0  0  0  0  0  1  0  0  0  0  0  0
  190.4380  174.4620  137.6210 N   0  0  0  0  0  2  0  0  0  0  0  0
  191.5380  173.6040  136.5350 S   0  0  0  0  0  0  0  0  0  0  0  0
  192.9910  173.9880  137.5580 C   0  0  0  0  0  2  0  0  0  0  0  0
  193.9060  174.9430  136.8190 C   0  0  0  0  0  2  0  0  0  0  0  0
  193.5520  176.3750  137.1800 C   0  0  0  0  0  2  0  0  0  0  0  0
  193.6150  177.1550  139.5080 C   0  0  0  0  0  2  0  0  0  0  0  0
  192.9990  176.4390  138.5670 C   0  0  0  0  0  3  0  0  0  0  0  0
  186.6250  176.1080  137.2190 S   0  0  0  0  0  0  0  0  0  0  0  0
  185.9780  177.2570  135.9740 C   0  0  0  0  0  1  0  0  0  0  0  0
  186.9330  177.8880  144.9570 O   0  0  0  0  0  0  0  0  0  0  0  0
  185.5120  178.5080  146.8720 C   0  0  0  0  0  2  0  0  0  0  0  0
  186.8290  178.6910  146.1480 C   0  0  1  0  0  3  0  0  0  0  0  0
  186.7830  177.8750  147.4250 C   0  0  1  0  0  3  0  0  0  0  0  0
  187.2630  178.6460  148.4830 O   0  0  0  0  0  0  0  0  0  0  0  0
  189.6240  178.3700  148.4660 C   0  0  0  0  0  1  0  0  0  0  0  0
  188.3040  177.8910  149.0310 C   0  0  0  0  0  2  0  0  0  0  0  0
  1  6  1  0  0  0  0
  1  2  1  0  0  0  0
  4 10  1  0  0  0  0
  5  7  2  0  0  0  0
  7  4  1  0  0  0  0
  7  8  1  0  0  0  0
  8  1  2  0  0  0  0
  9  5  1  0  0  0  0
 10 26  1  0  0  0  0
 10  6  2  0  0  0  0
 11  3  1  6  0  0  0
 11  9  1  0  0  0  0
 11  5  1  0  0  0  0
 12 11  1  1  0  0  0
 13 24  1  6  0  0  0
 13 12  1  0  0  0  0
 14 15  1  6  0  0  0
 14 13  1  0  0  0  0
 14 12  1  0  0  0  0
 15 16  1  6  0  0  0
 15 17  1  0  0  0  0
 18 19  1  0  0  0  0
 18 17  1  0  0  0  0
 20 21  1  0  0  0  0
 20 19  1  0  0  0  0
 21 23  1  0  0  0  0
 23 22  2  0  0  0  0
 25 24  1  0  0  0  0
 27 29  1  0  0  0  0
 28 26  1  6  0  0  0
 28 27  1  0  0  0  0
 28 29  1  0  0  0  0
 29 30  1  1  0  0  0
 30 32  1  0  0  0  0
 31 32  1  0  0  0  0
M  END
>  <MODEL>
8

>  <REMARK>
 VINA RESULT:      -5.4      2.752      8.498
  Name = 
  13 active torsions:
  status: ('A' for Active; 'I' for Inactive)
    1  A    between atoms: C_1  and  N_4
    2  A    between atoms: C_1  and  C_30
    3  A    between atoms: C_2  and  C_27
    4  A    between atoms: N_4  and  S_17
    5  A    between atoms: C_5  and  S_14
    6  A    between atoms: C_6  and  S_17
    7  A    between atoms: C_6  and  C_29
    8  A    between atoms: O_7  and  C_26
    9  A    between atoms: O_7  and  C_31
   10  A    between atoms: C_12  and  O_28
   11  A    between atoms: C_18  and  C_25
   12  A    between atoms: C_18  and  C_29
   13  A    between atoms: O_28  and  C_32
                            x       y       z     vdW  Elec       q    Type
                         _______ _______ _______ _____ _____    ______ ____

>  <TORSDO>
F 13

$$$$
=
 OpenBabel10262421203D

 32 35  0  0  1  0  0  0  0  0999 V2000
  184.6890  175.0220  137.5690 C   0  0  0  0  0  0  0  0  0  0  0  0
  184.7760  173.6040  137.5010 N   0  0  0  0  0  1  0  0  0  0  0  0
  181.5450  179.3620  136.7480 O   0  0  0  0  0  1  0  0  0  0  0  0
  184.9370  177.9820  138.3860 S   0  0  0  0  0  0  0  0  0  0  0  0
  182.2860  177.5630  138.0240 C   0  0  0  0  0  0  0  0  0  0  0  0
  185.7320  175.8340  136.9000 C   0  0  0  0  0  3  0  0  0  0  0  0
  183.4750  176.9900  138.1290 C   0  0  0  0  0  0  0  0  0  0  0  0
  183.6150  175.5720  138.0600 N   0  0  0  0  0  0  0  0  0  0  0  0
  180.7900  177.5050  137.8820 O   0  0  0  0  0  0  0  0  0  0  0  0
  185.8650  177.1540  137.0670 C   0  0  0  0  0  0  0  0  0  0  0  0
  181.4840  178.6770  137.9650 C   0  0  2  0  0  0  0  0  0  0  0  0
  181.3190  179.4470  139.2730 C   0  0  1  0  0  3  0  0  0  0  0  0
  179.8440  179.5320  139.6230 C   0  0  1  0  0  3  0  0  0  0  0  0
  180.7670  178.5600  140.3810 C   0  0  2  0  0  3  0  0  0  0  0  0
  181.1970  178.9490  141.8170 C   0  0  1  0  0  3  0  0  0  0  0  0
  180.3100  178.4460  142.9510 C   0  0  0  0  0  1  0  0  0  0  0  0
  182.5940  178.6270  142.0740 N   0  0  0  0  0  2  0  0  0  0  0  0
  182.9440  179.0140  143.7630 S   0  0  0  0  0  0  0  0  0  0  0  0
  184.6310  178.3440  143.6600 C   0  0  0  0  0  2  0  0  0  0  0  0
  185.3270  178.4850  144.9990 C   0  0  0  0  0  2  0  0  0  0  0  0
  186.5480  177.5840  145.0390 C   0  0  0  0  0  2  0  0  0  0  0  0
  188.2220  176.7200  143.4630 C   0  0  0  0  0  2  0  0  0  0  0  0
  187.0540  177.3330  143.6550 C   0  0  0  0  0  3  0  0  0  0  0  0
  179.5220  181.1550  140.3910 S   0  0  0  0  0  0  0  0  0  0  0  0
  179.9420  182.0330  138.8610 C   0  0  0  0  0  1  0  0  0  0  0  0
  186.7840  177.8180  136.2290 O   0  0  0  0  0  0  0  0  0  0  0  0
  188.7340  179.0680  137.0710 C   0  0  0  0  0  2  0  0  0  0  0  0
  188.2220  177.8850  136.2780 C   0  0  1  0  0  3  0  0  0  0  0  0
  188.7920  177.6660  137.6650 C   0  0  1  0  0  3  0  0  0  0  0  0
  190.0910  177.1710  137.5580 O   0  0  0  0  0  0  0  0  0  0  0  0
  190.0950  177.2220  139.9350 C   0  0  0  0  0  1  0  0  0  0  0  0
  190.2620  176.3730  138.6930 C   0  0  0  0  0  2  0  0  0  0  0  0
  1  8  2  0  0  0  0
  2  1  1  0  0  0  0
  5  7  2  0  0  0  0
  6 10  2  0  0  0  0
  6  1  1  0  0  0  0
  7  4  1  0  0  0  0
  8  7  1  0  0  0  0
  9 11  1  0  0  0  0
  9  5  1  0  0  0  0
 10  4  1  0  0  0  0
 11  3  1  6  0  0  0
 11  5  1  0  0  0  0
 12 11  1  6  0  0  0
 12 13  1  0  0  0  0
 12 14  1  0  0  0  0
 13 14  1  0  0  0  0
 13 24  1  1  0  0  0
 14 15  1  1  0  0  0
 15 17  1  0  0  0  0
 15 16  1  1  0  0  0
 17 18  1  0  0  0  0
 19 18  1  0  0  0  0
 19 20  1  0  0  0  0
 20 21  1  0  0  0  0
 22 23  2  0  0  0  0
 23 21  1  0  0  0  0
 25 24  1  0  0  0  0
 26 10  1  0  0  0  0
 27 29  1  0  0  0  0
 28 26  1  1  0  0  0
 28 27  1  0  0  0  0
 28 29  1  0  0  0  0
 29 30  1  6  0  0  0
 30 32  1  0  0  0  0
 32 31  1  0  0  0  0
M  END
>  <MODEL>
9

>  <REMARK>
 VINA RESULT:      -5.3      3.986      6.466
  Name = 
  13 active torsions:
  status: ('A' for Active; 'I' for Inactive)
    1  A    between atoms: C_1  and  N_4
    2  A    between atoms: C_1  and  C_30
    3  A    between atoms: C_2  and  C_27
    4  A    between atoms: N_4  and  S_17
    5  A    between atoms: C_5  and  S_14
    6  A    between atoms: C_6  and  S_17
    7  A    between atoms: C_6  and  C_29
    8  A    between atoms: O_7  and  C_26
    9  A    between atoms: O_7  and  C_31
   10  A    between atoms: C_12  and  O_28
   11  A    between atoms: C_18  and  C_25
   12  A    between atoms: C_18  and  C_29
   13  A    between atoms: O_28  and  C_32
                            x       y       z     vdW  Elec       q    Type
                         _______ _______ _______ _____ _____    ______ ____

>  <TORSDO>
F 13

$$$$
