=
 OpenBabel10262421283D

 32 38  0  0  1  0  0  0  0  0999 V2000
  187.2850  178.8950  144.4710 C   0  0  0  0  0  2  0  0  0  0  0  0
  187.4650  177.1030  146.3220 C   0  0  1  0  0  3  0  0  0  0  0  0
  186.0570  177.6310  146.6700 C   0  0  1  0  0  3  0  0  0  0  0  0
  188.1580  177.9620  148.6650 C   0  0  2  0  0  3  0  0  0  0  0  0
  187.4540  179.2110  148.1310 C   0  0  0  0  0  2  0  0  0  0  0  0
  186.0660  178.8690  147.5850 C   0  0  0  0  0  2  0  0  0  0  0  0
  189.7470  177.0130  147.5560 C   0  0  0  0  0  2  0  0  0  0  0  0
  185.9700  178.1800  144.1540 C   0  0  1  0  0  3  0  0  0  0  0  0
  185.1780  177.8820  145.4380 C   0  0  0  0  0  2  0  0  0  0  0  0
  189.6630  178.1380  148.5750 C   0  0  0  0  0  2  0  0  0  0  0  0
  188.2150  178.0010  145.3020 C   0  0  1  0  0  3  0  0  0  0  0  0
  188.2410  176.8260  147.6370 C   0  0  2  0  0  3  0  0  0  0  0  0
  190.0710  178.3200  142.1270 O   0  0  0  0  0  0  0  0  0  0  0  0
  190.8390  179.1050  144.2230 C   0  0  0  0  0  2  0  0  0  0  0  0
  189.5220  177.0490  141.9250 C   0  0  0  0  0  2  0  0  0  0  0  0
  188.2220  175.2740  143.0710 C   0  0  0  0  0  1  0  0  0  0  0  0
  188.5590  176.7500  143.0630 C   0  0  1  0  0  3  0  0  0  0  0  0
  189.1520  177.1620  144.4220 C   0  0  1  0  0  3  0  0  0  0  0  0
  191.1050  178.1640  143.0670 C   0  0  1  0  0  3  0  0  0  0  0  0
  190.6340  177.6140  144.4290 C   0  0  1  0  0  3  0  0  0  0  0  0
  183.3990  177.9810  141.8020 C   0  0  0  0  0  3  0  0  0  0  0  0
  185.1270  178.9220  143.0980 C   0  0  1  0  0  0  0  0  0  0  0  0
  185.2050  180.4310  143.2950 C   0  0  0  0  0  1  0  0  0  0  0  0
  184.4330  178.0400  140.9850 C   0  0  0  0  0  3  0  0  0  0  0  0
  185.6290  178.6050  141.6850 C   0  0  0  0  0  2  0  0  0  0  0  0
  183.7380  178.4710  143.0850 N   0  0  0  0  0  0  0  0  0  0  0  0
  182.7940  178.5280  144.1950 C   0  0  0  0  0  2  0  0  0  0  0  0
  180.0220  178.1140  144.0000 S   0  0  0  0  0  0  0  0  0  0  0  0
  181.2310  180.0320  142.9510 N   0  0  0  0  0  0  0  0  0  0  0  0
  179.0670  179.1860  143.1210 C   0  0  0  0  0  3  0  0  0  0  0  0
  181.4470  178.9450  143.7160 C   0  0  0  0  0  0  0  0  0  0  0  0
  179.9180  180.1720  142.6230 C   0  0  0  0  0  3  0  0  0  0  0  0
  1 11  1  0  0  0  0
  2  3  1  0  0  0  0
  2 12  1  0  0  0  0
  3  6  1  0  0  0  0
  5  4  1  0  0  0  0
  6  5  1  0  0  0  0
  7 12  1  0  0  0  0
  7 10  1  0  0  0  0
  8  1  1  0  0  0  0
  8  9  1  0  0  0  0
  9  3  1  0  0  0  0
 10  4  1  0  0  0  0
 11  2  1  0  0  0  0
 12  4  1  0  0  0  0
 13 19  1  0  0  0  0
 14 20  1  0  0  0  0
 15 13  1  0  0  0  0
 15 17  1  0  0  0  0
 17 16  1  0  0  0  0
 17 18  1  0  0  0  0
 18 20  1  0  0  0  0
 18 11  1  0  0  0  0
 19 14  1  0  0  0  0
 19 20  1  0  0  0  0
 21 26  1  0  0  0  0
 22 23  1  0  0  0  0
 22  8  1  0  0  0  0
 24 25  1  0  0  0  0
 24 21  2  0  0  0  0
 25 22  1  0  0  0  0
 26 22  1  0  0  0  0
 26 27  1  0  0  0  0
 29 31  2  0  0  0  0
 30 28  1  0  0  0  0
 31 28  1  0  0  0  0
 31 27  1  0  0  0  0
 32 29  1  0  0  0  0
 32 30  2  0  0  0  0
M  END
>  <MODEL>
1

>  <REMARK>
 VINA RESULT:      -6.4      0.000      0.000
  Name = 
  4 active torsions:
  status: ('A' for Active; 'I' for Inactive)
    1  A    between atoms: C_8  and  C_28
    2  A    between atoms: C_16  and  C_31
    3  A    between atoms: C_19  and  C_24
    4  A    between atoms: N_23  and  C_24
                            x       y       z     vdW  Elec       q    Type
                         _______ _______ _______ _____ _____    ______ ____

>  <TORSDO>
F 4

$$$$
=
 OpenBabel10262421283D

 32 38  0  0  1  0  0  0  0  0999 V2000
  189.5730  176.5310  140.0750 C   0  0  0  0  0  2  0  0  0  0  0  0
  189.1080  178.4900  138.4560 C   0  0  1  0  0  3  0  0  0  0  0  0
  188.2140  178.9580  139.6240 C   0  0  1  0  0  3  0  0  0  0  0  0
  186.9150  178.3320  137.0890 C   0  0  2  0  0  3  0  0  0  0  0  0
  186.4970  177.5520  138.3370 C   0  0  0  0  0  2  0  0  0  0  0  0
  186.8020  178.3450  139.6090 C   0  0  0  0  0  2  0  0  0  0  0  0
  188.6940  177.8100  135.9860 C   0  0  0  0  0  2  0  0  0  0  0  0
  189.9160  177.6550  141.0540 C   0  0  1  0  0  3  0  0  0  0  0  0
  188.8630  178.7750  141.0020 C   0  0  0  0  0  2  0  0  0  0  0  0
  187.2390  177.3700  135.9610 C   0  0  0  0  0  2  0  0  0  0  0  0
  189.6100  177.0310  138.6230 C   0  0  1  0  0  3  0  0  0  0  0  0
  188.3820  178.7780  137.1160 C   0  0  2  0  0  3  0  0  0  0  0  0
  191.9770  174.3100  137.8330 O   0  0  0  0  0  0  0  0  0  0  0  0
  190.1420  174.9390  136.4760 C   0  0  0  0  0  2  0  0  0  0  0  0
  192.8790  175.2210  138.3920 C   0  0  0  0  0  2  0  0  0  0  0  0
  193.0410  177.5450  139.2450 C   0  0  0  0  0  1  0  0  0  0  0  0
  192.0970  176.3960  138.9550 C   0  0  1  0  0  3  0  0  0  0  0  0
  190.9940  176.8530  137.9830 C   0  0  1  0  0  3  0  0  0  0  0  0
  191.6480  174.8050  136.5580 C   0  0  1  0  0  3  0  0  0  0  0  0
  190.9860  176.1980  136.5790 C   0  0  1  0  0  3  0  0  0  0  0  0
  189.3750  178.1470  144.4670 C   0  0  0  0  0  3  0  0  0  0  0  0
  190.1630  177.1430  142.4870 C   0  0  1  0  0  0  0  0  0  0  0  0
  190.5770  175.6760  142.4810 C   0  0  0  0  0  1  0  0  0  0  0  0
  190.6440  178.5000  144.3970 C   0  0  0  0  0  3  0  0  0  0  0  0
  191.2810  177.9450  143.1620 C   0  0  0  0  0  2  0  0  0  0  0  0
  189.0080  177.3530  143.3550 N   0  0  0  0  0  0  0  0  0  0  0  0
  187.6650  176.8180  143.1620 C   0  0  0  0  0  2  0  0  0  0  0  0
  186.3650  177.6650  145.5040 S   0  0  0  0  0  0  0  0  0  0  0  0
  185.8270  178.5130  143.2160 N   0  0  0  0  0  0  0  0  0  0  0  0
  185.1270  178.8030  145.4190 C   0  0  0  0  0  3  0  0  0  0  0  0
  186.6580  177.6680  143.8560 C   0  0  0  0  0  0  0  0  0  0  0  0
  184.9830  179.1460  144.0750 C   0  0  0  0  0  3  0  0  0  0  0  0
  1  8  1  0  0  0  0
  2 11  1  0  0  0  0
  2  3  1  0  0  0  0
  3  9  1  0  0  0  0
  4 12  1  0  0  0  0
  4  5  1  0  0  0  0
  5  6  1  0  0  0  0
  6  3  1  0  0  0  0
  7 12  1  0  0  0  0
  8 22  1  0  0  0  0
  9  8  1  0  0  0  0
 10  7  1  0  0  0  0
 10  4  1  0  0  0  0
 11  1  1  0  0  0  0
 12  2  1  0  0  0  0
 13 15  1  0  0  0  0
 14 19  1  0  0  0  0
 14 20  1  0  0  0  0
 15 17  1  0  0  0  0
 17 16  1  0  0  0  0
 18 11  1  0  0  0  0
 18 17  1  0  0  0  0
 19 20  1  0  0  0  0
 19 13  1  0  0  0  0
 20 18  1  0  0  0  0
 22 25  1  0  0  0  0
 22 26  1  0  0  0  0
 23 22  1  0  0  0  0
 24 21  2  0  0  0  0
 25 24  1  0  0  0  0
 26 21  1  0  0  0  0
 27 26  1  0  0  0  0
 27 31  1  0  0  0  0
 29 31  2  0  0  0  0
 29 32  1  0  0  0  0
 30 28  1  0  0  0  0
 31 28  1  0  0  0  0
 32 30  2  0  0  0  0
M  END
>  <MODEL>
2

>  <REMARK>
 VINA RESULT:      -6.1      3.907      7.469
  Name = 
  4 active torsions:
  status: ('A' for Active; 'I' for Inactive)
    1  A    between atoms: C_8  and  C_28
    2  A    between atoms: C_16  and  C_31
    3  A    between atoms: C_19  and  C_24
    4  A    between atoms: N_23  and  C_24
                            x       y       z     vdW  Elec       q    Type
                         _______ _______ _______ _____ _____    ______ ____

>  <TORSDO>
F 4

$$$$
=
 OpenBabel10262421283D

 32 38  0  0  1  0  0  0  0  0999 V2000
  188.9210  178.3500  142.4320 C   0  0  0  0  0  2  0  0  0  0  0  0
  186.7350  177.3010  143.3230 C   0  0  1  0  0  3  0  0  0  0  0  0
  186.1760  177.8780  142.0050 C   0  0  1  0  0  3  0  0  0  0  0  0
  185.1010  178.9250  144.5050 C   0  0  2  0  0  3  0  0  0  0  0  0
  185.7730  179.8980  143.5340 C   0  0  0  0  0  2  0  0  0  0  0  0
  185.7480  179.3530  142.1040 C   0  0  0  0  0  2  0  0  0  0  0  0
  186.2660  177.6990  145.8440 C   0  0  0  0  0  2  0  0  0  0  0  0
  188.5930  177.5340  141.1800 C   0  0  1  0  0  3  0  0  0  0  0  0
  187.1080  177.6700  140.8040 C   0  0  0  0  0  2  0  0  0  0  0  0
  185.6810  179.1020  145.8970 C   0  0  0  0  0  2  0  0  0  0  0  0
  188.1610  177.8180  143.6550 C   0  0  1  0  0  3  0  0  0  0  0  0
  185.6900  177.5100  144.4500 C   0  0  2  0  0  3  0  0  0  0  0  0
  191.3260  177.5440  145.5350 O   0  0  0  0  0  0  0  0  0  0  0  0
  189.2850  178.3310  146.4380 C   0  0  0  0  0  2  0  0  0  0  0  0
  191.4390  176.3850  144.7600 C   0  0  0  0  0  2  0  0  0  0  0  0
  190.1800  174.9740  143.1540 C   0  0  0  0  0  1  0  0  0  0  0  0
  190.2950  176.3570  143.7590 C   0  0  1  0  0  3  0  0  0  0  0  0
  188.9620  176.7550  144.4190 C   0  0  1  0  0  3  0  0  0  0  0  0
  190.3630  177.2720  146.5230 C   0  0  1  0  0  3  0  0  0  0  0  0
  188.9690  176.9240  145.9590 C   0  0  1  0  0  3  0  0  0  0  0  0
  191.0640  176.3510  139.0170 C   0  0  0  0  0  3  0  0  0  0  0  0
  189.5330  177.8480  139.9990 C   0  0  1  0  0  0  0  0  0  0  0  0
  189.0560  179.0740  139.2290 C   0  0  0  0  0  1  0  0  0  0  0  0
  191.8040  177.1280  139.7840 C   0  0  0  0  0  3  0  0  0  0  0  0
  190.9540  178.1300  140.5000 C   0  0  0  0  0  2  0  0  0  0  0  0
  189.6970  176.7050  139.1050 N   0  0  0  0  0  0  0  0  0  0  0  0
  188.6430  176.0190  138.3670 C   0  0  0  0  0  2  0  0  0  0  0  0
  186.8940  177.3590  136.6250 S   0  0  0  0  0  0  0  0  0  0  0  0
  189.2850  176.8620  136.1010 N   0  0  0  0  0  0  0  0  0  0  0  0
  187.4310  177.8690  135.1130 C   0  0  0  0  0  3  0  0  0  0  0  0
  188.3700  176.7140  137.0780 C   0  0  0  0  0  0  0  0  0  0  0  0
  188.7730  177.5030  135.0160 C   0  0  0  0  0  3  0  0  0  0  0  0
  1 11  1  0  0  0  0
  2 11  1  0  0  0  0
  2 12  1  0  0  0  0
  3  6  1  0  0  0  0
  3  2  1  0  0  0  0
  4 10  1  0  0  0  0
  5  4  1  0  0  0  0
  6  5  1  0  0  0  0
  7 10  1  0  0  0  0
  8  1  1  0  0  0  0
  9  8  1  0  0  0  0
  9  3  1  0  0  0  0
 11 18  1  0  0  0  0
 12  4  1  0  0  0  0
 12  7  1  0  0  0  0
 13 19  1  0  0  0  0
 14 19  1  0  0  0  0
 15 13  1  0  0  0  0
 16 17  1  0  0  0  0
 17 18  1  0  0  0  0
 17 15  1  0  0  0  0
 18 20  1  0  0  0  0
 20 14  1  0  0  0  0
 20 19  1  0  0  0  0
 21 26  1  0  0  0  0
 21 24  2  0  0  0  0
 22 25  1  0  0  0  0
 22  8  1  0  0  0  0
 23 22  1  0  0  0  0
 24 25  1  0  0  0  0
 26 22  1  0  0  0  0
 27 26  1  0  0  0  0
 28 31  1  0  0  0  0
 29 31  2  0  0  0  0
 30 28  1  0  0  0  0
 31 27  1  0  0  0  0
 32 30  2  0  0  0  0
 32 29  1  0  0  0  0
M  END
>  <MODEL>
3

>  <REMARK>
 VINA RESULT:      -5.9      3.790      6.201
  Name = 
  4 active torsions:
  status: ('A' for Active; 'I' for Inactive)
    1  A    between atoms: C_8  and  C_28
    2  A    between atoms: C_16  and  C_31
    3  A    between atoms: C_19  and  C_24
    4  A    between atoms: N_23  and  C_24
                            x       y       z     vdW  Elec       q    Type
                         _______ _______ _______ _____ _____    ______ ____

>  <TORSDO>
F 4

$$$$
=
 OpenBabel10262421283D

 32 38  0  0  1  0  0  0  0  0999 V2000
  189.0480  174.4690  137.1840 C   0  0  0  0  0  2  0  0  0  0  0  0
  191.0140  175.4030  135.7940 C   0  0  1  0  0  3  0  0  0  0  0  0
  190.7820  174.1040  134.9930 C   0  0  1  0  0  3  0  0  0  0  0  0
  193.3490  174.4270  136.3370 C   0  0  2  0  0  3  0  0  0  0  0  0
  192.4760  173.2270  136.7080 C   0  0  0  0  0  2  0  0  0  0  0  0
  191.5100  172.8790  135.5740 C   0  0  0  0  0  2  0  0  0  0  0  0
  192.9810  176.3800  137.1770 C   0  0  0  0  0  2  0  0  0  0  0  0
  188.3580  174.3830  135.8220 C   0  0  1  0  0  3  0  0  0  0  0  0
  189.2990  173.7870  134.7610 C   0  0  0  0  0  2  0  0  0  0  0  0
  193.7840  175.1580  137.5950 C   0  0  0  0  0  2  0  0  0  0  0  0
  190.2420  175.4320  137.1400 C   0  0  1  0  0  3  0  0  0  0  0  0
  192.5390  175.6580  135.9140 C   0  0  2  0  0  3  0  0  0  0  0  0
  188.2990  177.1950  139.7370 O   0  0  0  0  0  0  0  0  0  0  0  0
  190.5560  176.5210  139.9660 C   0  0  0  0  0  2  0  0  0  0  0  0
  187.7940  177.8530  138.6110 C   0  0  0  0  0  2  0  0  0  0  0  0
  188.1070  178.0590  136.1590 C   0  0  0  0  0  1  0  0  0  0  0  0
  188.3420  177.1750  137.3660 C   0  0  1  0  0  3  0  0  0  0  0  0
  189.8430  176.8680  137.5090 C   0  0  1  0  0  3  0  0  0  0  0  0
  189.5980  177.6940  139.9410 C   0  0  1  0  0  3  0  0  0  0  0  0
  190.5570  177.4440  138.7590 C   0  0  1  0  0  3  0  0  0  0  0  0
  185.2380  174.1430  137.3680 C   0  0  0  0  0  3  0  0  0  0  0  0
  187.0010  173.6530  135.8850 C   0  0  1  0  0  0  0  0  0  0  0  0
  186.7300  172.8870  134.5950 C   0  0  0  0  0  1  0  0  0  0  0  0
  185.8130  173.0710  137.8780 C   0  0  0  0  0  3  0  0  0  0  0  0
  186.9810  172.6490  137.0420 C   0  0  0  0  0  2  0  0  0  0  0  0
  185.8990  174.5620  136.1900 N   0  0  0  0  0  0  0  0  0  0  0  0
  185.4860  175.7220  135.4090 C   0  0  0  0  0  2  0  0  0  0  0  0
  182.7840  176.4360  135.6930 S   0  0  0  0  0  0  0  0  0  0  0  0
  184.6220  177.2970  137.1490 N   0  0  0  0  0  0  0  0  0  0  0  0
  182.3170  177.5210  136.8940 C   0  0  0  0  0  3  0  0  0  0  0  0
  184.4040  176.4670  136.1110 C   0  0  0  0  0  0  0  0  0  0  0  0
  183.4720  177.8780  137.5880 C   0  0  0  0  0  3  0  0  0  0  0  0
  2 12  1  0  0  0  0
  2 11  1  0  0  0  0
  3  6  1  0  0  0  0
  3  2  1  0  0  0  0
  4  5  1  0  0  0  0
  4 10  1  0  0  0  0
  6  5  1  0  0  0  0
  7 10  1  0  0  0  0
  8 22  1  0  0  0  0
  8  1  1  0  0  0  0
  9  3  1  0  0  0  0
  9  8  1  0  0  0  0
 11  1  1  0  0  0  0
 11 18  1  0  0  0  0
 12  4  1  0  0  0  0
 12  7  1  0  0  0  0
 13 19  1  0  0  0  0
 15 13  1  0  0  0  0
 16 17  1  0  0  0  0
 17 18  1  0  0  0  0
 17 15  1  0  0  0  0
 18 20  1  0  0  0  0
 19 14  1  0  0  0  0
 20 19  1  0  0  0  0
 20 14  1  0  0  0  0
 21 24  2  0  0  0  0
 22 26  1  0  0  0  0
 22 25  1  0  0  0  0
 23 22  1  0  0  0  0
 25 24  1  0  0  0  0
 26 21  1  0  0  0  0
 27 31  1  0  0  0  0
 27 26  1  0  0  0  0
 28 31  1  0  0  0  0
 28 30  1  0  0  0  0
 29 32  1  0  0  0  0
 30 32  2  0  0  0  0
 31 29  2  0  0  0  0
M  END
>  <MODEL>
4

>  <REMARK>
 VINA RESULT:      -5.8      6.228      9.261
  Name = 
  4 active torsions:
  status: ('A' for Active; 'I' for Inactive)
    1  A    between atoms: C_8  and  C_28
    2  A    between atoms: C_16  and  C_31
    3  A    between atoms: C_19  and  C_24
    4  A    between atoms: N_23  and  C_24
                            x       y       z     vdW  Elec       q    Type
                         _______ _______ _______ _____ _____    ______ ____

>  <TORSDO>
F 4

$$$$
=
 OpenBabel10262421283D

 32 38  0  0  1  0  0  0  0  0999 V2000
  182.2850  176.2730  139.1620 C   0  0  0  0  0  2  0  0  0  0  0  0
  180.9720  178.4220  139.7340 C   0  0  1  0  0  3  0  0  0  0  0  0
  182.3590  179.0660  139.5240 C   0  0  1  0  0  3  0  0  0  0  0  0
  181.1670  179.2500  142.1800 C   0  0  2  0  0  3  0  0  0  0  0  0
  182.5230  178.5570  142.0330 C   0  0  0  0  0  2  0  0  0  0  0  0
  183.2530  179.0360  140.7770 C   0  0  0  0  0  2  0  0  0  0  0  0
  179.3280  178.2150  141.7320 C   0  0  0  0  0  2  0  0  0  0  0  0
  182.7090  177.0730  137.9290 C   0  0  1  0  0  3  0  0  0  0  0  0
  183.1150  178.5060  138.3130 C   0  0  0  0  0  2  0  0  0  0  0  0
  180.2140  178.3620  142.9590 C   0  0  0  0  0  2  0  0  0  0  0  0
  181.0270  176.8730  139.8050 C   0  0  1  0  0  3  0  0  0  0  0  0
  180.2750  179.1030  140.9410 C   0  0  2  0  0  3  0  0  0  0  0  0
  179.7630  173.5710  138.7410 O   0  0  0  0  0  0  0  0  0  0  0  0
  179.8050  174.3420  140.9780 C   0  0  0  0  0  2  0  0  0  0  0  0
  179.2990  174.3340  137.6630 C   0  0  0  0  0  2  0  0  0  0  0  0
  179.0940  176.6730  136.8650 C   0  0  0  0  0  1  0  0  0  0  0  0
  179.8460  175.7460  137.7970 C   0  0  1  0  0  3  0  0  0  0  0  0
  179.7370  176.2550  139.2450 C   0  0  1  0  0  3  0  0  0  0  0  0
  178.9310  173.8760  139.8330 C   0  0  1  0  0  3  0  0  0  0  0  0
  178.9540  175.3630  140.2420 C   0  0  1  0  0  3  0  0  0  0  0  0
  185.3940  177.4020  135.7230 C   0  0  0  0  0  3  0  0  0  0  0  0
  183.7900  176.3560  137.0960 C   0  0  1  0  0  0  0  0  0  0  0  0
  184.0180  174.9350  137.5980 C   0  0  0  0  0  1  0  0  0  0  0  0
  184.4800  176.9530  134.8840 C   0  0  0  0  0  3  0  0  0  0  0  0
  183.3710  176.2740  135.6240 C   0  0  0  0  0  2  0  0  0  0  0  0
  185.0450  177.1020  137.0610 N   0  0  0  0  0  0  0  0  0  0  0  0
  185.8670  177.4760  138.2060 C   0  0  0  0  0  2  0  0  0  0  0  0
  188.4730  176.5940  137.6390 S   0  0  0  0  0  0  0  0  0  0  0  0
  187.7380  178.9770  137.4960 N   0  0  0  0  0  0  0  0  0  0  0  0
  189.6600  177.6980  137.1840 C   0  0  0  0  0  3  0  0  0  0  0  0
  187.2680  177.7460  137.7780 C   0  0  0  0  0  0  0  0  0  0  0  0
  189.0570  178.9550  137.1630 C   0  0  0  0  0  3  0  0  0  0  0  0
  1 11  1  0  0  0  0
  2 11  1  0  0  0  0
  2 12  1  0  0  0  0
  3  2  1  0  0  0  0
  3  6  1  0  0  0  0
  4 10  1  0  0  0  0
  5  4  1  0  0  0  0
  6  5  1  0  0  0  0
  7 10  1  0  0  0  0
  8  9  1  0  0  0  0
  8  1  1  0  0  0  0
  9  3  1  0  0  0  0
 12  7  1  0  0  0  0
 12  4  1  0  0  0  0
 13 19  1  0  0  0  0
 15 17  1  0  0  0  0
 15 13  1  0  0  0  0
 16 17  1  0  0  0  0
 17 18  1  0  0  0  0
 18 11  1  0  0  0  0
 18 20  1  0  0  0  0
 19 20  1  0  0  0  0
 19 14  1  0  0  0  0
 20 14  1  0  0  0  0
 21 26  1  0  0  0  0
 22 23  1  0  0  0  0
 22  8  1  0  0  0  0
 24 25  1  0  0  0  0
 24 21  2  0  0  0  0
 25 22  1  0  0  0  0
 26 22  1  0  0  0  0
 26 27  1  0  0  0  0
 28 31  1  0  0  0  0
 29 31  2  0  0  0  0
 30 28  1  0  0  0  0
 31 27  1  0  0  0  0
 32 30  2  0  0  0  0
 32 29  1  0  0  0  0
M  END
>  <MODEL>
5

>  <REMARK>
 VINA RESULT:      -5.8      6.345      9.586
  Name = 
  4 active torsions:
  status: ('A' for Active; 'I' for Inactive)
    1  A    between atoms: C_8  and  C_28
    2  A    between atoms: C_16  and  C_31
    3  A    between atoms: C_19  and  C_24
    4  A    between atoms: N_23  and  C_24
                            x       y       z     vdW  Elec       q    Type
                         _______ _______ _______ _____ _____    ______ ____

>  <TORSDO>
F 4

$$$$
=
 OpenBabel10262421283D

 32 38  0  0  1  0  0  0  0  0999 V2000
  183.7630  176.7860  138.3400 C   0  0  0  0  0  2  0  0  0  0  0  0
  182.4890  178.9090  139.0730 C   0  0  1  0  0  3  0  0  0  0  0  0
  183.9100  179.3630  139.4680 C   0  0  1  0  0  3  0  0  0  0  0  0
  181.9370  179.0820  141.5970 C   0  0  2  0  0  3  0  0  0  0  0  0
  183.2150  178.2450  141.6700 C   0  0  0  0  0  2  0  0  0  0  0  0
  184.3450  178.8950  140.8690 C   0  0  0  0  0  2  0  0  0  0  0  0
  180.2750  178.4810  140.3590 C   0  0  0  0  0  2  0  0  0  0  0  0
  184.6200  177.7840  137.5600 C   0  0  1  0  0  3  0  0  0  0  0  0
  184.9770  179.0030  138.4280 C   0  0  0  0  0  2  0  0  0  0  0  0
  180.7230  178.1900  141.7830 C   0  0  0  0  0  2  0  0  0  0  0  0
  182.4100  177.3990  138.7250 C   0  0  1  0  0  3  0  0  0  0  0  0
  181.4870  179.3780  140.1610 C   0  0  2  0  0  3  0  0  0  0  0  0
  181.3390  174.6900  136.4560 O   0  0  0  0  0  0  0  0  0  0  0  0
  180.7070  174.8740  138.7290 C   0  0  0  0  0  2  0  0  0  0  0  0
  181.3000  175.7550  135.5490 C   0  0  0  0  0  2  0  0  0  0  0  0
  181.5230  178.2220  135.4140 C   0  0  0  0  0  1  0  0  0  0  0  0
  181.8680  176.9910  136.2270 C   0  0  1  0  0  3  0  0  0  0  0  0
  181.3320  177.1400  137.6610 C   0  0  1  0  0  3  0  0  0  0  0  0
  180.2210  174.8410  137.2950 C   0  0  1  0  0  3  0  0  0  0  0  0
  180.2110  176.1620  138.0930 C   0  0  1  0  0  3  0  0  0  0  0  0
  187.8140  178.2580  136.2350 C   0  0  0  0  0  3  0  0  0  0  0  0
  185.8600  177.1330  136.9160 C   0  0  1  0  0  0  0  0  0  0  0  0
  185.8910  175.6320  137.1810 C   0  0  0  0  0  1  0  0  0  0  0  0
  187.1480  178.0420  135.1170 C   0  0  0  0  0  3  0  0  0  0  0  0
  185.8550  177.3430  135.3980 C   0  0  0  0  0  2  0  0  0  0  0  0
  187.1030  177.7620  137.3530 N   0  0  0  0  0  0  0  0  0  0  0  0
  187.5950  177.8600  138.7220 C   0  0  0  0  0  2  0  0  0  0  0  0
  189.5680  176.0070  137.9680 S   0  0  0  0  0  0  0  0  0  0  0  0
  189.9160  177.8170  139.6540 N   0  0  0  0  0  0  0  0  0  0  0  0
  191.0950  176.0620  138.6750 C   0  0  0  0  0  3  0  0  0  0  0  0
  188.9810  177.3220  138.8200 C   0  0  0  0  0  0  0  0  0  0  0  0
  191.0860  177.1280  139.5750 C   0  0  0  0  0  3  0  0  0  0  0  0
  1 11  1  0  0  0  0
  2  3  1  0  0  0  0
  2 12  1  0  0  0  0
  3  6  1  0  0  0  0
  4  5  1  0  0  0  0
  4 10  1  0  0  0  0
  6  5  1  0  0  0  0
  7 10  1  0  0  0  0
  8  1  1  0  0  0  0
  8  9  1  0  0  0  0
  9  3  1  0  0  0  0
 11  2  1  0  0  0  0
 12  7  1  0  0  0  0
 12  4  1  0  0  0  0
 13 19  1  0  0  0  0
 15 17  1  0  0  0  0
 15 13  1  0  0  0  0
 16 17  1  0  0  0  0
 17 18  1  0  0  0  0
 18 20  1  0  0  0  0
 18 11  1  0  0  0  0
 19 20  1  0  0  0  0
 19 14  1  0  0  0  0
 20 14  1  0  0  0  0
 21 26  1  0  0  0  0
 22 23  1  0  0  0  0
 22 26  1  0  0  0  0
 22  8  1  0  0  0  0
 24 25  1  0  0  0  0
 24 21  2  0  0  0  0
 25 22  1  0  0  0  0
 26 27  1  0  0  0  0
 27 31  1  0  0  0  0
 28 30  1  0  0  0  0
 28 31  1  0  0  0  0
 30 32  2  0  0  0  0
 31 29  2  0  0  0  0
 32 29  1  0  0  0  0
M  END
>  <MODEL>
6

>  <REMARK>
 VINA RESULT:      -5.6      5.869      9.535
  Name = 
  4 active torsions:
  status: ('A' for Active; 'I' for Inactive)
    1  A    between atoms: C_8  and  C_28
    2  A    between atoms: C_16  and  C_31
    3  A    between atoms: C_19  and  C_24
    4  A    between atoms: N_23  and  C_24
                            x       y       z     vdW  Elec       q    Type
                         _______ _______ _______ _____ _____    ______ ____

>  <TORSDO>
F 4

$$$$
=
 OpenBabel10262421283D

 32 38  0  0  1  0  0  0  0  0999 V2000
  182.1530  175.9650  138.7180 C   0  0  0  0  0  2  0  0  0  0  0  0
  180.4030  175.0760  137.0390 C   0  0  1  0  0  3  0  0  0  0  0  0
  179.4280  175.7200  138.0470 C   0  0  1  0  0  3  0  0  0  0  0  0
  179.2720  172.8330  137.6650 C   0  0  2  0  0  3  0  0  0  0  0  0
  179.5720  173.3700  139.0660 C   0  0  0  0  0  2  0  0  0  0  0  0
  179.0600  174.8030  139.2270 C   0  0  0  0  0  2  0  0  0  0  0  0
  180.8240  172.6650  136.1760 C   0  0  0  0  0  2  0  0  0  0  0  0
  181.4170  177.2900  138.5110 C   0  0  1  0  0  3  0  0  0  0  0  0
  179.8930  177.0890  138.5580 C   0  0  0  0  0  2  0  0  0  0  0  0
  180.2930  171.7750  137.2880 C   0  0  0  0  0  2  0  0  0  0  0  0
  181.8560  174.9830  137.5760 C   0  0  1  0  0  3  0  0  0  0  0  0
  179.8060  173.7330  136.5440 C   0  0  2  0  0  3  0  0  0  0  0  0
  185.4470  175.7050  137.1050 O   0  0  0  0  0  0  0  0  0  0  0  0
  184.5580  173.5810  137.6530 C   0  0  0  0  0  2  0  0  0  0  0  0
  184.9310  176.5280  136.0980 C   0  0  0  0  0  2  0  0  0  0  0  0
  182.8190  177.1060  134.9320 C   0  0  0  0  0  1  0  0  0  0  0  0
  183.4140  176.5240  136.1980 C   0  0  1  0  0  3  0  0  0  0  0  0
  182.8710  175.1030  136.4290 C   0  0  1  0  0  3  0  0  0  0  0  0
  185.3390  174.3840  136.6350 C   0  0  1  0  0  3  0  0  0  0  0  0
  183.8920  173.9410  136.3360 C   0  0  1  0  0  3  0  0  0  0  0  0
  183.0050  180.3800  138.8510 C   0  0  0  0  0  3  0  0  0  0  0  0
  181.8970  178.3960  139.4720 C   0  0  1  0  0  0  0  0  0  0  0  0
  181.1830  178.3030  140.8150 C   0  0  0  0  0  1  0  0  0  0  0  0
  183.9600  179.5960  139.3110 C   0  0  0  0  0  3  0  0  0  0  0  0
  183.4030  178.2720  139.7300 C   0  0  0  0  0  2  0  0  0  0  0  0
  181.7490  179.7300  138.8970 N   0  0  0  0  0  0  0  0  0  0  0  0
  180.5080  180.3530  138.4520 C   0  0  0  0  0  2  0  0  0  0  0  0
  180.4990  182.3300  136.4560 S   0  0  0  0  0  0  0  0  0  0  0  0
  180.7600  179.8870  136.0080 N   0  0  0  0  0  0  0  0  0  0  0  0
  180.6600  181.8990  134.8360 C   0  0  0  0  0  3  0  0  0  0  0  0
  180.6100  180.7600  137.0220 C   0  0  0  0  0  0  0  0  0  0  0  0
  180.7930  180.5110  134.7990 C   0  0  0  0  0  3  0  0  0  0  0  0
  2 11  1  0  0  0  0
  2  3  1  0  0  0  0
  3  9  1  0  0  0  0
  3  6  1  0  0  0  0
  4  5  1  0  0  0  0
  5  6  1  0  0  0  0
  7 12  1  0  0  0  0
  7 10  1  0  0  0  0
  8  9  1  0  0  0  0
  8  1  1  0  0  0  0
  8 22  1  0  0  0  0
 10  4  1  0  0  0  0
 11  1  1  0  0  0  0
 12  2  1  0  0  0  0
 12  4  1  0  0  0  0
 15 17  1  0  0  0  0
 15 13  1  0  0  0  0
 16 17  1  0  0  0  0
 17 18  1  0  0  0  0
 18 11  1  0  0  0  0
 19 13  1  0  0  0  0
 19 14  1  0  0  0  0
 20 18  1  0  0  0  0
 20 19  1  0  0  0  0
 20 14  1  0  0  0  0
 21 26  1  0  0  0  0
 21 24  2  0  0  0  0
 22 25  1  0  0  0  0
 22 23  1  0  0  0  0
 24 25  1  0  0  0  0
 26 22  1  0  0  0  0
 27 26  1  0  0  0  0
 28 31  1  0  0  0  0
 29 31  2  0  0  0  0
 30 28  1  0  0  0  0
 31 27  1  0  0  0  0
 32 30  2  0  0  0  0
 32 29  1  0  0  0  0
M  END
>  <MODEL>
7

>  <REMARK>
 VINA RESULT:      -5.6      6.836      9.632
  Name = 
  4 active torsions:
  status: ('A' for Active; 'I' for Inactive)
    1  A    between atoms: C_8  and  C_28
    2  A    between atoms: C_16  and  C_31
    3  A    between atoms: C_19  and  C_24
    4  A    between atoms: N_23  and  C_24
                            x       y       z     vdW  Elec       q    Type
                         _______ _______ _______ _____ _____    ______ ____

>  <TORSDO>
F 4

$$$$
=
 OpenBabel10262421283D

 32 38  0  0  1  0  0  0  0  0999 V2000
  185.4200  175.3380  135.6030 C   0  0  0  0  0  2  0  0  0  0  0  0
  184.7590  173.4310  137.2150 C   0  0  1  0  0  3  0  0  0  0  0  0
  186.2400  173.0430  137.0170 C   0  0  1  0  0  3  0  0  0  0  0  0
  184.2110  171.1540  136.1100 C   0  0  2  0  0  3  0  0  0  0  0  0
  185.2080  171.7040  135.0870 C   0  0  0  0  0  2  0  0  0  0  0  0
  186.4930  172.1760  135.7710 C   0  0  0  0  0  2  0  0  0  0  0  0
  182.4810  172.2950  136.7090 C   0  0  0  0  0  2  0  0  0  0  0  0
  186.5370  175.5720  136.6210 C   0  0  1  0  0  3  0  0  0  0  0  0
  187.1940  174.2440  137.0360 C   0  0  0  0  0  2  0  0  0  0  0  0
  182.7950  171.3160  135.5890 C   0  0  0  0  0  2  0  0  0  0  0  0
  184.2770  174.5150  136.2140 C   0  0  1  0  0  3  0  0  0  0  0  0
  183.8970  172.1410  137.2410 C   0  0  2  0  0  3  0  0  0  0  0  0
  182.3420  177.5520  135.3980 O   0  0  0  0  0  0  0  0  0  0  0  0
  181.7790  175.3640  134.6930 C   0  0  0  0  0  2  0  0  0  0  0  0
  182.7060  177.8780  136.7090 C   0  0  0  0  0  2  0  0  0  0  0  0
  183.8050  176.9410  138.7260 C   0  0  0  0  0  1  0  0  0  0  0  0
  183.6690  176.8200  137.2230 C   0  0  1  0  0  3  0  0  0  0  0  0
  183.1980  175.4030  136.8500 C   0  0  1  0  0  3  0  0  0  0  0  0
  181.3400  176.5710  135.4940 C   0  0  1  0  0  3  0  0  0  0  0  0
  181.7920  175.2810  136.2100 C   0  0  1  0  0  3  0  0  0  0  0  0
  187.9670  178.7110  137.1490 C   0  0  0  0  0  3  0  0  0  0  0  0
  187.5670  176.6170  136.1480 C   0  0  1  0  0  0  0  0  0  0  0  0
  188.6210  175.9810  135.2480 C   0  0  0  0  0  1  0  0  0  0  0  0
  187.2340  178.9850  136.0870 C   0  0  0  0  0  3  0  0  0  0  0  0
  186.8790  177.7310  135.3520 C   0  0  0  0  0  2  0  0  0  0  0  0
  188.1930  177.3200  137.2640 N   0  0  0  0  0  0  0  0  0  0  0  0
  188.9710  176.7210  138.3420 C   0  0  0  0  0  2  0  0  0  0  0  0
  189.6210  177.2890  141.0160 S   0  0  0  0  0  0  0  0  0  0  0  0
  187.5840  178.1500  139.8550 N   0  0  0  0  0  0  0  0  0  0  0  0
  188.6030  178.2530  141.9480 C   0  0  0  0  0  3  0  0  0  0  0  0
  188.6800  177.3990  139.6370 C   0  0  0  0  0  0  0  0  0  0  0  0
  187.5390  178.6280  141.1290 C   0  0  0  0  0  3  0  0  0  0  0  0
  1 11  1  0  0  0  0
  1  8  1  0  0  0  0
  2 12  1  0  0  0  0
  3  9  1  0  0  0  0
  3  2  1  0  0  0  0
  4 12  1  0  0  0  0
  5  6  1  0  0  0  0
  5  4  1  0  0  0  0
  6  3  1  0  0  0  0
  7 12  1  0  0  0  0
  8  9  1  0  0  0  0
 10  4  1  0  0  0  0
 10  7  1  0  0  0  0
 11 18  1  0  0  0  0
 11  2  1  0  0  0  0
 13 19  1  0  0  0  0
 13 15  1  0  0  0  0
 14 19  1  0  0  0  0
 14 20  1  0  0  0  0
 15 17  1  0  0  0  0
 17 16  1  0  0  0  0
 18 17  1  0  0  0  0
 19 20  1  0  0  0  0
 20 18  1  0  0  0  0
 21 26  1  0  0  0  0
 22  8  1  0  0  0  0
 22 26  1  0  0  0  0
 23 22  1  0  0  0  0
 24 21  2  0  0  0  0
 25 24  1  0  0  0  0
 25 22  1  0  0  0  0
 26 27  1  0  0  0  0
 27 31  1  0  0  0  0
 28 30  1  0  0  0  0
 29 32  1  0  0  0  0
 31 29  2  0  0  0  0
 31 28  1  0  0  0  0
 32 30  2  0  0  0  0
M  END
>  <MODEL>
8

>  <REMARK>
 VINA RESULT:      -5.6      6.391     10.413
  Name = 
  4 active torsions:
  status: ('A' for Active; 'I' for Inactive)
    1  A    between atoms: C_8  and  C_28
    2  A    between atoms: C_16  and  C_31
    3  A    between atoms: C_19  and  C_24
    4  A    between atoms: N_23  and  C_24
                            x       y       z     vdW  Elec       q    Type
                         _______ _______ _______ _____ _____    ______ ____

>  <TORSDO>
F 4

$$$$
=
 OpenBabel10262421283D

 32 38  0  0  1  0  0  0  0  0999 V2000
  183.8060  177.1230  137.0250 C   0  0  0  0  0  2  0  0  0  0  0  0
  182.1930  175.5220  138.2530 C   0  0  1  0  0  3  0  0  0  0  0  0
  182.9590  174.4660  137.4280 C   0  0  1  0  0  3  0  0  0  0  0  0
  180.1050  174.7760  136.9170 C   0  0  2  0  0  3  0  0  0  0  0  0
  181.0830  175.0000  135.7620 C   0  0  0  0  0  2  0  0  0  0  0  0
  182.4010  174.2640  136.0070 C   0  0  0  0  0  2  0  0  0  0  0  0
  179.7260  176.3190  138.3760 C   0  0  0  0  0  2  0  0  0  0  0  0
  184.8780  176.1800  137.5750 C   0  0  1  0  0  3  0  0  0  0  0  0
  184.4730  174.7080  137.3800 C   0  0  0  0  0  2  0  0  0  0  0  0
  179.1480  175.9510  137.0190 C   0  0  0  0  0  2  0  0  0  0  0  0
  182.4890  176.9770  137.8000 C   0  0  1  0  0  3  0  0  0  0  0  0
  180.6880  175.1460  138.2850 C   0  0  2  0  0  3  0  0  0  0  0  0
  183.5890  180.3880  138.6860 O   0  0  0  0  0  0  0  0  0  0  0  0
  181.6290  179.8780  137.4610 C   0  0  0  0  0  2  0  0  0  0  0  0
  183.9630  179.7310  139.8640 C   0  0  0  0  0  2  0  0  0  0  0  0
  183.8060  177.5420  141.0200 C   0  0  0  0  0  1  0  0  0  0  0  0
  183.7500  178.2380  139.6760 C   0  0  1  0  0  3  0  0  0  0  0  0
  182.4040  177.9460  138.9880 C   0  0  1  0  0  3  0  0  0  0  0  0
  182.1880  180.5030  138.7220 C   0  0  1  0  0  3  0  0  0  0  0  0
  181.4500  179.1490  138.7820 C   0  0  1  0  0  3  0  0  0  0  0  0
  187.1790  178.6280  136.6320 C   0  0  0  0  0  3  0  0  0  0  0  0
  186.2830  176.4840  137.0200 C   0  0  1  0  0  0  0  0  0  0  0  0
  187.2070  175.2820  137.1760 C   0  0  0  0  0  1  0  0  0  0  0  0
  186.8260  178.1940  135.4380 C   0  0  0  0  0  3  0  0  0  0  0  0
  186.2120  176.8320  135.5290 C   0  0  0  0  0  2  0  0  0  0  0  0
  186.8720  177.6740  137.6300 N   0  0  0  0  0  0  0  0  0  0  0  0
  187.1490  177.8790  139.0470 C   0  0  0  0  0  2  0  0  0  0  0  0
  189.2220  177.4340  140.8890 S   0  0  0  0  0  0  0  0  0  0  0  0
  189.5170  177.3890  138.4090 N   0  0  0  0  0  0  0  0  0  0  0  0
  190.7860  177.1280  140.3450 C   0  0  0  0  0  3  0  0  0  0  0  0
  188.5720  177.5630  139.3530 C   0  0  0  0  0  0  0  0  0  0  0  0
  190.7410  177.1440  138.9520 C   0  0  0  0  0  3  0  0  0  0  0  0
  1  8  1  0  0  0  0
  1 11  1  0  0  0  0
  2 12  1  0  0  0  0
  3  2  1  0  0  0  0
  4 10  1  0  0  0  0
  4 12  1  0  0  0  0
  5  6  1  0  0  0  0
  5  4  1  0  0  0  0
  6  3  1  0  0  0  0
  9  3  1  0  0  0  0
  9  8  1  0  0  0  0
 10  7  1  0  0  0  0
 11  2  1  0  0  0  0
 11 18  1  0  0  0  0
 12  7  1  0  0  0  0
 13 19  1  0  0  0  0
 13 15  1  0  0  0  0
 14 19  1  0  0  0  0
 14 20  1  0  0  0  0
 17 15  1  0  0  0  0
 17 16  1  0  0  0  0
 18 17  1  0  0  0  0
 19 20  1  0  0  0  0
 20 18  1  0  0  0  0
 21 26  1  0  0  0  0
 22 23  1  0  0  0  0
 22  8  1  0  0  0  0
 22 26  1  0  0  0  0
 24 25  1  0  0  0  0
 24 21  2  0  0  0  0
 25 22  1  0  0  0  0
 26 27  1  0  0  0  0
 27 31  1  0  0  0  0
 29 32  1  0  0  0  0
 29 31  2  0  0  0  0
 30 28  1  0  0  0  0
 31 28  1  0  0  0  0
 32 30  2  0  0  0  0
M  END
>  <MODEL>
9

>  <REMARK>
 VINA RESULT:      -5.5      5.600      9.881
  Name = 
  4 active torsions:
  status: ('A' for Active; 'I' for Inactive)
    1  A    between atoms: C_8  and  C_28
    2  A    between atoms: C_16  and  C_31
    3  A    between atoms: C_19  and  C_24
    4  A    between atoms: N_23  and  C_24
                            x       y       z     vdW  Elec       q    Type
                         _______ _______ _______ _____ _____    ______ ____

>  <TORSDO>
F 4

$$$$
