=
 OpenBabel10262419103D

 34 38  0  0  1  0  0  0  0  0999 V2000
  185.8800  178.4420  144.8440 C   0  0  0  0  0  0  0  0  0  0  0  0
  187.2370  177.1220  143.2200 C   0  0  0  0  0  3  0  0  0  0  0  0
  185.6100  179.0220  142.4950 C   0  0  2  0  0  3  0  0  0  0  0  0
  184.9500  178.4220  140.1510 C   0  0  0  0  0  0  0  0  0  0  0  0
  187.7310  177.5650  146.2260 C   0  0  0  0  0  3  0  0  0  0  0  0
  188.6020  177.1200  145.3230 C   0  0  0  0  0  3  0  0  0  0  0  0
  187.2080  178.5830  140.5860 N   0  0  0  0  0  0  0  0  0  0  0  0
  186.2710  178.1920  143.5780 C   0  0  0  0  0  0  0  0  0  0  0  0
  185.6410  178.1150  138.6530 S   0  0  0  0  0  0  0  0  0  0  0  0
  186.2580  177.5670  145.9930 C   0  0  0  0  0  2  0  0  0  0  0  0
  184.1500  179.1020  142.7510 N   0  0  0  0  0  0  0  0  0  0  0  0
  184.8900  179.5430  145.0980 C   0  0  0  0  0  2  0  0  0  0  0  0
  188.2480  176.6630  143.9670 C   0  0  0  0  0  3  0  0  0  0  0  0
  183.5350  178.5320  140.4710 C   0  0  0  0  0  3  0  0  0  0  0  0
  183.1540  178.8490  141.7150 C   0  0  0  0  0  0  0  0  0  0  0  0
  187.2050  178.2810  139.2670 C   0  0  0  0  0  0  0  0  0  0  0  0
  185.9430  178.6370  141.0800 C   0  0  0  0  0  0  0  0  0  0  0  0
  183.7150  179.4440  144.1170 C   0  0  0  0  0  2  0  0  0  0  0  0
  179.8160  178.5730  143.4940 C   0  0  0  0  0  0  0  0  0  0  0  0
  178.9340  178.9800  142.4890 C   0  0  0  0  0  3  0  0  0  0  0  0
  181.7000  178.9140  141.9930 C   0  0  0  0  0  0  0  0  0  0  0  0
  179.4280  179.3470  141.2340 C   0  0  0  0  0  3  0  0  0  0  0  0
  181.1910  178.5360  143.2450 C   0  0  0  0  0  3  0  0  0  0  0  0
  180.8030  179.3110  140.9870 C   0  0  0  0  0  3  0  0  0  0  0  0
  179.3390  178.2120  144.7090 F   0  0  0  0  0  0  0  0  0  0  0  0
  188.4480  178.1980  138.4450 C   0  0  0  0  0  2  0  0  0  0  0  0
  189.6600  178.2780  139.3180 C   0  0  0  0  0  3  0  0  0  0  0  0
  190.4660  177.2360  139.5420 C   0  0  0  0  0  0  0  0  0  0  0  0
  192.8140  177.3100  139.9180 O   0  0  0  0  0  0  0  0  0  0  0  0
  191.6560  177.4310  140.4080 C   0  0  0  0  0  0  0  0  0  0  0  0
  191.6560  176.7920  142.7870 C   0  0  0  0  0  1  0  0  0  0  0  0
  191.5070  177.7580  141.7570 O   0  0  0  0  0  0  0  0  0  0  0  0
  190.8530  175.4240  137.8680 C   0  0  0  0  0  1  0  0  0  0  0  0
  190.1470  176.0000  138.9570 O   0  0  0  0  0  0  0  0  0  0  0  0
  1 12  1  0  0  0  0
  1 10  1  0  0  0  0
  2  8  1  0  0  0  0
  2 13  2  0  0  0  0
  3 17  1  6  0  0  0
  3 11  1  0  0  0  0
  3  8  1  0  0  0  0
  4 14  1  0  0  0  0
  4 17  2  0  0  0  0
  6  5  2  0  0  0  0
  7 17  1  0  0  0  0
  8  1  2  0  0  0  0
  9 16  1  0  0  0  0
  9  4  1  0  0  0  0
 10  5  1  0  0  0  0
 11 18  1  0  0  0  0
 13  6  1  0  0  0  0
 14 15  2  0  0  0  0
 15 21  1  0  0  0  0
 15 11  1  0  0  0  0
 16  7  2  0  0  0  0
 18 12  1  0  0  0  0
 19 25  1  0  0  0  0
 20 19  2  0  0  0  0
 21 23  2  0  0  0  0
 22 20  1  0  0  0  0
 23 19  1  0  0  0  0
 24 22  2  0  0  0  0
 24 21  1  0  0  0  0
 26 16  1  0  0  0  0
 26 27  1  0  0  0  0
 27 28  2  0  0  0  0
 28 30  1  0  0  0  0
 29 30  2  0  0  0  0
 30 32  1  0  0  0  0
 32 31  1  0  0  0  0
 33 34  1  0  0  0  0
 34 28  1  0  0  0  0
M  END
>  <MODEL>
1

>  <REMARK>
 VINA RESULT:      -9.3      0.000      0.000
  Name = 
  6 active torsions:
  status: ('A' for Active; 'I' for Inactive)
    1  A    between atoms: C_3  and  C_17
    2  A    between atoms: C_12  and  C_28
    3  A    between atoms: C_13  and  C_14
    4  A    between atoms: C_13  and  O_33
    5  A    between atoms: C_14  and  O_34
    6  A    between atoms: C_17  and  C_29
                            x       y       z     vdW  Elec       q    Type
                         _______ _______ _______ _____ _____    ______ ____

>  <TORSDO>
F 6

$$$$
=
 OpenBabel10262419103D

 34 38  0  0  1  0  0  0  0  0999 V2000
  184.8570  178.7340  141.2650 C   0  0  0  0  0  0  0  0  0  0  0  0
  186.2800  177.7520  143.0640 C   0  0  0  0  0  3  0  0  0  0  0  0
  187.2500  178.6600  140.8230 C   0  0  2  0  0  3  0  0  0  0  0  0
  189.3790  177.3760  140.4960 C   0  0  0  0  0  0  0  0  0  0  0  0
  183.4600  178.9670  143.2910 C   0  0  0  0  0  3  0  0  0  0  0  0
  184.3160  178.7250  144.2820 C   0  0  0  0  0  3  0  0  0  0  0  0
  189.1410  178.5020  142.4930 N   0  0  0  0  0  0  0  0  0  0  0  0
  186.0730  178.4020  141.7440 C   0  0  0  0  0  0  0  0  0  0  0  0
  190.8310  177.0640  141.2760 S   0  0  0  0  0  0  0  0  0  0  0  0
  183.5870  178.3390  141.9440 C   0  0  0  0  0  2  0  0  0  0  0  0
  186.9150  178.2080  139.4490 N   0  0  0  0  0  0  0  0  0  0  0  0
  184.7550  179.3810  139.9130 C   0  0  0  0  0  2  0  0  0  0  0  0
  185.5290  177.8950  144.1610 C   0  0  0  0  0  3  0  0  0  0  0  0
  188.9910  176.9820  139.1510 C   0  0  0  0  0  3  0  0  0  0  0  0
  187.8090  177.3730  138.6550 C   0  0  0  0  0  0  0  0  0  0  0  0
  190.3720  177.9570  142.6330 C   0  0  0  0  0  0  0  0  0  0  0  0
  188.5810  178.1530  141.3050 C   0  0  0  0  0  0  0  0  0  0  0  0
  185.6160  178.6250  138.8920 C   0  0  0  0  0  2  0  0  0  0  0  0
  186.5770  175.2060  135.7970 C   0  0  0  0  0  0  0  0  0  0  0  0
  186.8330  176.0290  134.6970 C   0  0  0  0  0  3  0  0  0  0  0  0
  187.4500  176.9150  137.2920 C   0  0  0  0  0  0  0  0  0  0  0  0
  187.4030  177.2910  134.8880 C   0  0  0  0  0  3  0  0  0  0  0  0
  186.8890  175.6450  137.0870 C   0  0  0  0  0  3  0  0  0  0  0  0
  187.7140  177.7300  136.1790 C   0  0  0  0  0  3  0  0  0  0  0  0
  186.0290  173.9820  135.6130 F   0  0  0  0  0  0  0  0  0  0  0  0
  191.2450  178.2030  143.8170 C   0  0  0  0  0  2  0  0  0  0  0  0
  190.4430  178.1510  145.0790 C   0  0  0  0  0  3  0  0  0  0  0  0
  190.6710  177.2620  146.0510 C   0  0  0  0  0  0  0  0  0  0  0  0
  190.2970  177.8130  148.3340 O   0  0  0  0  0  0  0  0  0  0  0  0
  189.8300  177.3130  147.2720 C   0  0  0  0  0  0  0  0  0  0  0  0
  187.3950  177.6880  147.2500 C   0  0  0  0  0  1  0  0  0  0  0  0
  188.5220  176.8240  147.2550 O   0  0  0  0  0  0  0  0  0  0  0  0
  192.2930  175.5750  146.9200 C   0  0  0  0  0  1  0  0  0  0  0  0
  191.6900  176.3140  145.8690 O   0  0  0  0  0  0  0  0  0  0  0  0
  1  8  2  0  0  0  0
  1 10  1  0  0  0  0
  2 13  2  0  0  0  0
  3 17  1  1  0  0  0
  3  8  1  0  0  0  0
  4  9  1  0  0  0  0
  4 17  2  0  0  0  0
  5  6  2  0  0  0  0
  7 16  2  0  0  0  0
  8  2  1  0  0  0  0
  9 16  1  0  0  0  0
 10  5  1  0  0  0  0
 11  3  1  0  0  0  0
 12  1  1  0  0  0  0
 13  6  1  0  0  0  0
 14  4  1  0  0  0  0
 15 14  2  0  0  0  0
 15 11  1  0  0  0  0
 16 26  1  0  0  0  0
 17  7  1  0  0  0  0
 18 11  1  0  0  0  0
 18 12  1  0  0  0  0
 19 23  1  0  0  0  0
 20 22  1  0  0  0  0
 20 19  2  0  0  0  0
 21 15  1  0  0  0  0
 22 24  2  0  0  0  0
 23 21  2  0  0  0  0
 24 21  1  0  0  0  0
 25 19  1  0  0  0  0
 26 27  1  0  0  0  0
 27 28  2  0  0  0  0
 28 30  1  0  0  0  0
 30 29  2  0  0  0  0
 31 32  1  0  0  0  0
 32 30  1  0  0  0  0
 34 28  1  0  0  0  0
 34 33  1  0  0  0  0
M  END
>  <MODEL>
2

>  <REMARK>
 VINA RESULT:      -9.1      3.558      6.668
  Name = 
  6 active torsions:
  status: ('A' for Active; 'I' for Inactive)
    1  A    between atoms: C_3  and  C_17
    2  A    between atoms: C_12  and  C_28
    3  A    between atoms: C_13  and  C_14
    4  A    between atoms: C_13  and  O_33
    5  A    between atoms: C_14  and  O_34
    6  A    between atoms: C_17  and  C_29
                            x       y       z     vdW  Elec       q    Type
                         _______ _______ _______ _____ _____    ______ ____

>  <TORSDO>
F 6

$$$$
=
 OpenBabel10262419103D

 34 38  0  0  1  0  0  0  0  0999 V2000
  185.7750  178.2520  144.2620 C   0  0  0  0  0  0  0  0  0  0  0  0
  187.5530  177.2200  142.8490 C   0  0  0  0  0  3  0  0  0  0  0  0
  185.7620  178.8600  141.9050 C   0  0  2  0  0  3  0  0  0  0  0  0
  185.5590  178.2400  139.4830 C   0  0  0  0  0  0  0  0  0  0  0  0
  187.5210  177.6370  145.8990 C   0  0  0  0  0  3  0  0  0  0  0  0
  188.5760  177.3670  145.1340 C   0  0  0  0  0  3  0  0  0  0  0  0
  187.6730  178.7450  140.2540 N   0  0  0  0  0  0  0  0  0  0  0  0
  186.3830  178.1100  143.0680 C   0  0  0  0  0  0  0  0  0  0  0  0
  186.5040  178.0970  138.1040 S   0  0  0  0  0  0  0  0  0  0  0  0
  186.1170  177.4110  145.4480 C   0  0  0  0  0  2  0  0  0  0  0  0
  184.2870  178.6970  141.9390 N   0  0  0  0  0  0  0  0  0  0  0  0
  184.5920  179.1720  144.3750 C   0  0  0  0  0  2  0  0  0  0  0  0
  188.5040  176.9040  143.7350 C   0  0  0  0  0  3  0  0  0  0  0  0
  184.1150  178.1110  139.5870 C   0  0  0  0  0  3  0  0  0  0  0  0
  183.5090  178.3220  140.7630 C   0  0  0  0  0  0  0  0  0  0  0  0
  187.9130  178.4900  138.9470 C   0  0  0  0  0  0  0  0  0  0  0  0
  186.3570  178.5790  140.5520 C   0  0  0  0  0  0  0  0  0  0  0  0
  183.6060  178.9190  143.2270 C   0  0  0  0  0  2  0  0  0  0  0  0
  180.0530  176.7950  140.4240 C   0  0  0  0  0  0  0  0  0  0  0  0
  179.2440  177.8440  140.8700 C   0  0  0  0  0  3  0  0  0  0  0  0
  182.0380  178.1450  140.8200 C   0  0  0  0  0  0  0  0  0  0  0  0
  179.8250  179.0460  141.2850 C   0  0  0  0  0  3  0  0  0  0  0  0
  181.4430  176.9480  140.3950 C   0  0  0  0  0  3  0  0  0  0  0  0
  181.2150  179.1970  141.2560 C   0  0  0  0  0  3  0  0  0  0  0  0
  179.4920  175.6330  140.0170 F   0  0  0  0  0  0  0  0  0  0  0  0
  189.2600  178.6340  138.3200 C   0  0  0  0  0  2  0  0  0  0  0  0
  189.7790  177.3010  137.8840 C   0  0  0  0  0  3  0  0  0  0  0  0
  190.7490  176.6480  138.5320 C   0  0  0  0  0  0  0  0  0  0  0  0
  190.3070  174.4260  137.8070 O   0  0  0  0  0  0  0  0  0  0  0  0
  191.1730  175.3200  138.0260 C   0  0  0  0  0  0  0  0  0  0  0  0
  193.4010  176.0370  137.2570 C   0  0  0  0  0  1  0  0  0  0  0  0
  192.5210  175.0510  137.7770 O   0  0  0  0  0  0  0  0  0  0  0  0
  190.9520  176.9770  140.9990 C   0  0  0  0  0  1  0  0  0  0  0  0
  191.3290  177.2530  139.6590 O   0  0  0  0  0  0  0  0  0  0  0  0
  1 12  1  0  0  0  0
  1 10  1  0  0  0  0
  2  8  1  0  0  0  0
  2 13  2  0  0  0  0
  3 17  1  6  0  0  0
  3 11  1  0  0  0  0
  3  8  1  0  0  0  0
  4 14  1  0  0  0  0
  4 17  2  0  0  0  0
  6  5  2  0  0  0  0
  7 17  1  0  0  0  0
  8  1  2  0  0  0  0
  9 16  1  0  0  0  0
  9  4  1  0  0  0  0
 10  5  1  0  0  0  0
 11 18  1  0  0  0  0
 13  6  1  0  0  0  0
 14 15  2  0  0  0  0
 15 21  1  0  0  0  0
 15 11  1  0  0  0  0
 16  7  2  0  0  0  0
 18 12  1  0  0  0  0
 19 20  1  0  0  0  0
 20 22  2  0  0  0  0
 21 24  2  0  0  0  0
 23 19  2  0  0  0  0
 23 21  1  0  0  0  0
 24 22  1  0  0  0  0
 25 19  1  0  0  0  0
 26 16  1  0  0  0  0
 27 26  1  0  0  0  0
 27 28  2  0  0  0  0
 28 34  1  0  0  0  0
 29 30  2  0  0  0  0
 30 28  1  0  0  0  0
 31 32  1  0  0  0  0
 32 30  1  0  0  0  0
 34 33  1  0  0  0  0
M  END
>  <MODEL>
3

>  <REMARK>
 VINA RESULT:      -8.9      1.574      2.289
  Name = 
  6 active torsions:
  status: ('A' for Active; 'I' for Inactive)
    1  A    between atoms: C_3  and  C_17
    2  A    between atoms: C_12  and  C_28
    3  A    between atoms: C_13  and  C_14
    4  A    between atoms: C_13  and  O_33
    5  A    between atoms: C_14  and  O_34
    6  A    between atoms: C_17  and  C_29
                            x       y       z     vdW  Elec       q    Type
                         _______ _______ _______ _____ _____    ______ ____

>  <TORSDO>
F 6

$$$$
=
 OpenBabel10262419103D

 34 38  0  0  1  0  0  0  0  0999 V2000
  186.0270  178.2760  144.6950 C   0  0  0  0  0  0  0  0  0  0  0  0
  187.5110  177.1620  143.0270 C   0  0  0  0  0  3  0  0  0  0  0  0
  185.7410  178.9580  142.3750 C   0  0  2  0  0  3  0  0  0  0  0  0
  185.1640  178.4340  139.9920 C   0  0  0  0  0  0  0  0  0  0  0  0
  187.9270  177.4810  146.0610 C   0  0  0  0  0  3  0  0  0  0  0  0
  188.8440  177.1590  145.1510 C   0  0  0  0  0  3  0  0  0  0  0  0
  187.3950  178.7570  140.4750 N   0  0  0  0  0  0  0  0  0  0  0  0
  186.4550  178.1280  143.4250 C   0  0  0  0  0  0  0  0  0  0  0  0
  185.8980  178.2660  138.4930 S   0  0  0  0  0  0  0  0  0  0  0  0
  186.4620  177.3740  145.8030 C   0  0  0  0  0  2  0  0  0  0  0  0
  184.2760  178.9030  142.6090 N   0  0  0  0  0  0  0  0  0  0  0  0
  184.9450  179.2760  144.9900 C   0  0  0  0  0  2  0  0  0  0  0  0
  188.5470  176.7490  143.7670 C   0  0  0  0  0  3  0  0  0  0  0  0
  183.7410  178.4090  140.2920 C   0  0  0  0  0  3  0  0  0  0  0  0
  183.3180  178.6250  141.5450 C   0  0  0  0  0  0  0  0  0  0  0  0
  187.4350  178.5280  139.1410 C   0  0  0  0  0  0  0  0  0  0  0  0
  186.1230  178.6790  140.9480 C   0  0  0  0  0  0  0  0  0  0  0  0
  183.7960  179.1340  143.9840 C   0  0  0  0  0  2  0  0  0  0  0  0
  179.9600  178.8160  143.2970 C   0  0  0  0  0  0  0  0  0  0  0  0
  179.1010  178.3560  142.2960 C   0  0  0  0  0  3  0  0  0  0  0  0
  181.8600  178.5550  141.8000 C   0  0  0  0  0  0  0  0  0  0  0  0
  179.6150  177.9890  141.0490 C   0  0  0  0  0  3  0  0  0  0  0  0
  181.3330  178.9090  143.0510 C   0  0  0  0  0  3  0  0  0  0  0  0
  180.9880  178.0840  140.8040 C   0  0  0  0  0  3  0  0  0  0  0  0
  179.4640  179.1670  144.5070 F   0  0  0  0  0  0  0  0  0  0  0  0
  188.6910  178.5920  138.3390 C   0  0  0  0  0  2  0  0  0  0  0  0
  189.0300  177.2440  137.7870 C   0  0  0  0  0  3  0  0  0  0  0  0
  190.0430  176.5030  138.2450 C   0  0  0  0  0  0  0  0  0  0  0  0
  191.3000  174.5030  137.9680 O   0  0  0  0  0  0  0  0  0  0  0  0
  190.2770  175.1680  137.6410 C   0  0  0  0  0  0  0  0  0  0  0  0
  188.8630  173.3140  136.8450 C   0  0  0  0  0  1  0  0  0  0  0  0
  189.3710  174.6350  136.7220 O   0  0  0  0  0  0  0  0  0  0  0  0
  190.6560  176.7540  140.6530 C   0  0  0  0  0  1  0  0  0  0  0  0
  190.8460  177.0230  139.2720 O   0  0  0  0  0  0  0  0  0  0  0  0
  1 12  1  0  0  0  0
  1 10  1  0  0  0  0
  2  8  1  0  0  0  0
  2 13  2  0  0  0  0
  3 17  1  6  0  0  0
  3 11  1  0  0  0  0
  3  8  1  0  0  0  0
  4 14  1  0  0  0  0
  4 17  2  0  0  0  0
  6  5  2  0  0  0  0
  7 17  1  0  0  0  0
  8  1  2  0  0  0  0
  9 16  1  0  0  0  0
  9  4  1  0  0  0  0
 10  5  1  0  0  0  0
 11 18  1  0  0  0  0
 13  6  1  0  0  0  0
 14 15  2  0  0  0  0
 15 21  1  0  0  0  0
 15 11  1  0  0  0  0
 16  7  2  0  0  0  0
 18 12  1  0  0  0  0
 19 25  1  0  0  0  0
 20 19  2  0  0  0  0
 21 23  2  0  0  0  0
 22 20  1  0  0  0  0
 23 19  1  0  0  0  0
 24 22  2  0  0  0  0
 24 21  1  0  0  0  0
 26 16  1  0  0  0  0
 27 28  2  0  0  0  0
 27 26  1  0  0  0  0
 28 34  1  0  0  0  0
 30 29  2  0  0  0  0
 30 28  1  0  0  0  0
 32 31  1  0  0  0  0
 32 30  1  0  0  0  0
 34 33  1  0  0  0  0
M  END
>  <MODEL>
4

>  <REMARK>
 VINA RESULT:      -8.8      1.028      2.088
  Name = 
  6 active torsions:
  status: ('A' for Active; 'I' for Inactive)
    1  A    between atoms: C_3  and  C_17
    2  A    between atoms: C_12  and  C_28
    3  A    between atoms: C_13  and  C_14
    4  A    between atoms: C_13  and  O_33
    5  A    between atoms: C_14  and  O_34
    6  A    between atoms: C_17  and  C_29
                            x       y       z     vdW  Elec       q    Type
                         _______ _______ _______ _____ _____    ______ ____

>  <TORSDO>
F 6

$$$$
=
 OpenBabel10262419103D

 34 38  0  0  1  0  0  0  0  0999 V2000
  186.0750  178.3760  144.7180 C   0  0  0  0  0  0  0  0  0  0  0  0
  187.4970  177.1360  143.0860 C   0  0  0  0  0  3  0  0  0  0  0  0
  185.7990  178.9790  142.3750 C   0  0  2  0  0  3  0  0  0  0  0  0
  185.1810  178.3860  140.0180 C   0  0  0  0  0  0  0  0  0  0  0  0
  187.9500  177.5560  146.1030 C   0  0  0  0  0  3  0  0  0  0  0  0
  188.8460  177.1600  145.2000 C   0  0  0  0  0  3  0  0  0  0  0  0
  187.4270  178.6330  140.4730 N   0  0  0  0  0  0  0  0  0  0  0  0
  186.4860  178.1610  143.4520 C   0  0  0  0  0  0  0  0  0  0  0  0
  185.8960  178.1290  138.5220 S   0  0  0  0  0  0  0  0  0  0  0  0
  186.4800  177.5010  145.8580 C   0  0  0  0  0  2  0  0  0  0  0  0
  184.3350  178.9950  142.6200 N   0  0  0  0  0  0  0  0  0  0  0  0
  185.0380  179.4310  144.9800 C   0  0  0  0  0  2  0  0  0  0  0  0
  188.5210  176.7090  143.8350 C   0  0  0  0  0  3  0  0  0  0  0  0
  183.7610  178.4330  140.3280 C   0  0  0  0  0  3  0  0  0  0  0  0
  183.3580  178.7160  141.5740 C   0  0  0  0  0  0  0  0  0  0  0  0
  187.4470  178.3510  139.1500 C   0  0  0  0  0  0  0  0  0  0  0  0
  186.1580  178.6280  140.9580 C   0  0  0  0  0  0  0  0  0  0  0  0
  183.8760  179.2990  143.9880 C   0  0  0  0  0  2  0  0  0  0  0  0
  180.0360  178.6520  143.4030 C   0  0  0  0  0  0  0  0  0  0  0  0
  179.1340  178.6540  142.3360 C   0  0  0  0  0  3  0  0  0  0  0  0
  181.9000  178.7170  141.8410 C   0  0  0  0  0  0  0  0  0  0  0  0
  179.6090  178.6810  141.0210 C   0  0  0  0  0  3  0  0  0  0  0  0
  181.4120  178.6780  143.1560 C   0  0  0  0  0  3  0  0  0  0  0  0
  180.9850  178.7080  140.7750 C   0  0  0  0  0  3  0  0  0  0  0  0
  179.5780  178.6210  144.6770 F   0  0  0  0  0  0  0  0  0  0  0  0
  188.6980  178.3310  138.3370 C   0  0  0  0  0  2  0  0  0  0  0  0
  189.4150  177.0290  138.5100 C   0  0  0  0  0  3  0  0  0  0  0  0
  189.8810  176.3120  137.4840 C   0  0  0  0  0  0  0  0  0  0  0  0
  190.0230  173.9390  137.5650 O   0  0  0  0  0  0  0  0  0  0  0  0
  190.5990  175.0450  137.7700 C   0  0  0  0  0  0  0  0  0  0  0  0
  192.8200  176.1000  137.9190 C   0  0  0  0  0  1  0  0  0  0  0  0
  191.9090  175.0630  138.2530 O   0  0  0  0  0  0  0  0  0  0  0  0
  190.4060  176.3690  135.0430 C   0  0  0  0  0  1  0  0  0  0  0  0
  189.6640  176.7840  136.1800 O   0  0  0  0  0  0  0  0  0  0  0  0
  1 12  1  0  0  0  0
  1 10  1  0  0  0  0
  2  8  1  0  0  0  0
  2 13  2  0  0  0  0
  3 17  1  6  0  0  0
  3 11  1  0  0  0  0
  3  8  1  0  0  0  0
  4 14  1  0  0  0  0
  4 17  2  0  0  0  0
  6  5  2  0  0  0  0
  7 17  1  0  0  0  0
  8  1  2  0  0  0  0
  9 16  1  0  0  0  0
  9  4  1  0  0  0  0
 10  5  1  0  0  0  0
 11 18  1  0  0  0  0
 13  6  1  0  0  0  0
 14 15  2  0  0  0  0
 15 21  1  0  0  0  0
 15 11  1  0  0  0  0
 16  7  2  0  0  0  0
 18 12  1  0  0  0  0
 19 25  1  0  0  0  0
 20 19  2  0  0  0  0
 21 23  2  0  0  0  0
 22 20  1  0  0  0  0
 23 19  1  0  0  0  0
 24 22  2  0  0  0  0
 24 21  1  0  0  0  0
 26 27  1  0  0  0  0
 26 16  1  0  0  0  0
 28 30  1  0  0  0  0
 28 27  2  0  0  0  0
 29 30  2  0  0  0  0
 30 32  1  0  0  0  0
 31 32  1  0  0  0  0
 33 34  1  0  0  0  0
 34 28  1  0  0  0  0
M  END
>  <MODEL>
5

>  <REMARK>
 VINA RESULT:      -8.7      1.326      1.815
  Name = 
  6 active torsions:
  status: ('A' for Active; 'I' for Inactive)
    1  A    between atoms: C_3  and  C_17
    2  A    between atoms: C_12  and  C_28
    3  A    between atoms: C_13  and  C_14
    4  A    between atoms: C_13  and  O_33
    5  A    between atoms: C_14  and  O_34
    6  A    between atoms: C_17  and  C_29
                            x       y       z     vdW  Elec       q    Type
                         _______ _______ _______ _____ _____    ______ ____

>  <TORSDO>
F 6

$$$$
=
 OpenBabel10262419103D

 34 38  0  0  1  0  0  0  0  0999 V2000
  190.5600  176.4250  145.1640 C   0  0  0  0  0  0  0  0  0  0  0  0
  188.8150  178.1540  145.6000 C   0  0  0  0  0  3  0  0  0  0  0  0
  188.8080  176.6330  143.4860 C   0  0  2  0  0  3  0  0  0  0  0  0
  187.5780  177.9690  141.7560 C   0  0  0  0  0  0  0  0  0  0  0  0
  190.6860  176.7610  147.6090 C   0  0  0  0  0  3  0  0  0  0  0  0
  189.5770  177.4450  147.8810 C   0  0  0  0  0  3  0  0  0  0  0  0
  186.4940  177.6110  143.7590 N   0  0  0  0  0  0  0  0  0  0  0  0
  189.4220  177.0550  144.8070 C   0  0  0  0  0  0  0  0  0  0  0  0
  186.0950  178.7180  141.5170 S   0  0  0  0  0  0  0  0  0  0  0  0
  191.4060  176.8760  146.3080 C   0  0  0  0  0  2  0  0  0  0  0  0
  189.8730  176.5190  142.4570 N   0  0  0  0  0  0  0  0  0  0  0  0
  191.0960  175.3310  144.2860 C   0  0  0  0  0  2  0  0  0  0  0  0
  188.8740  178.3210  146.9260 C   0  0  0  0  0  3  0  0  0  0  0  0
  188.6560  177.8050  140.7930 C   0  0  0  0  0  3  0  0  0  0  0  0
  189.7550  177.1190  141.1320 C   0  0  0  0  0  0  0  0  0  0  0  0
  185.5680  178.3190  143.0700 C   0  0  0  0  0  0  0  0  0  0  0  0
  187.6260  177.4400  143.0260 C   0  0  0  0  0  0  0  0  0  0  0  0
  191.0910  175.7720  142.8170 C   0  0  0  0  0  2  0  0  0  0  0  0
  191.6380  176.2510  137.9560 C   0  0  0  0  0  0  0  0  0  0  0  0
  192.9100  176.7530  138.2450 C   0  0  0  0  0  3  0  0  0  0  0  0
  190.8360  177.0110  140.1240 C   0  0  0  0  0  0  0  0  0  0  0  0
  193.1520  177.3770  139.4720 C   0  0  0  0  0  3  0  0  0  0  0  0
  190.6090  176.3750  138.8940 C   0  0  0  0  0  3  0  0  0  0  0  0
  192.1210  177.5020  140.4080 C   0  0  0  0  0  3  0  0  0  0  0  0
  191.4040  175.6410  136.7710 F   0  0  0  0  0  0  0  0  0  0  0  0
  184.2080  178.6230  143.6050 C   0  0  0  0  0  2  0  0  0  0  0  0
  183.2390  178.8280  142.4850 C   0  0  0  0  0  3  0  0  0  0  0  0
  181.9150  178.8650  142.6640 C   0  0  0  0  0  0  0  0  0  0  0  0
  180.7630  178.1360  140.7150 O   0  0  0  0  0  0  0  0  0  0  0  0
  181.0440  179.0970  141.4850 C   0  0  0  0  0  0  0  0  0  0  0  0
  179.2970  180.8060  141.7930 C   0  0  0  0  0  1  0  0  0  0  0  0
  180.5220  180.3660  141.2260 O   0  0  0  0  0  0  0  0  0  0  0  0
  180.0770  178.2690  144.2450 C   0  0  0  0  0  1  0  0  0  0  0  0
  181.4070  178.6730  143.9590 O   0  0  0  0  0  0  0  0  0  0  0  0
  1 10  1  0  0  0  0
  2 13  2  0  0  0  0
  3 17  1  6  0  0  0
  3  8  1  0  0  0  0
  4 17  2  0  0  0  0
  5  6  2  0  0  0  0
  8  1  2  0  0  0  0
  8  2  1  0  0  0  0
  9  4  1  0  0  0  0
  9 16  1  0  0  0  0
 10  5  1  0  0  0  0
 11 18  1  0  0  0  0
 11  3  1  0  0  0  0
 12  1  1  0  0  0  0
 13  6  1  0  0  0  0
 14 15  2  0  0  0  0
 14  4  1  0  0  0  0
 15 11  1  0  0  0  0
 16 26  1  0  0  0  0
 16  7  2  0  0  0  0
 17  7  1  0  0  0  0
 18 12  1  0  0  0  0
 19 20  2  0  0  0  0
 19 23  1  0  0  0  0
 20 22  1  0  0  0  0
 21 24  1  0  0  0  0
 21 15  1  0  0  0  0
 22 24  2  0  0  0  0
 23 21  2  0  0  0  0
 25 19  1  0  0  0  0
 27 28  2  0  0  0  0
 27 26  1  0  0  0  0
 28 34  1  0  0  0  0
 29 30  2  0  0  0  0
 30 28  1  0  0  0  0
 32 30  1  0  0  0  0
 32 31  1  0  0  0  0
 34 33  1  0  0  0  0
M  END
>  <MODEL>
6

>  <REMARK>
 VINA RESULT:      -8.7      4.398      8.699
  Name = 
  6 active torsions:
  status: ('A' for Active; 'I' for Inactive)
    1  A    between atoms: C_3  and  C_17
    2  A    between atoms: C_12  and  C_28
    3  A    between atoms: C_13  and  C_14
    4  A    between atoms: C_13  and  O_33
    5  A    between atoms: C_14  and  O_34
    6  A    between atoms: C_17  and  C_29
                            x       y       z     vdW  Elec       q    Type
                         _______ _______ _______ _____ _____    ______ ____

>  <TORSDO>
F 6

$$$$
=
 OpenBabel10262419103D

 34 38  0  0  1  0  0  0  0  0999 V2000
  185.2280  178.6830  142.0120 C   0  0  0  0  0  0  0  0  0  0  0  0
  187.0240  177.2970  143.0490 C   0  0  0  0  0  3  0  0  0  0  0  0
  187.3020  178.4930  140.7510 C   0  0  2  0  0  3  0  0  0  0  0  0
  189.0050  177.1170  139.5300 C   0  0  0  0  0  0  0  0  0  0  0  0
  184.6330  178.6790  144.4110 C   0  0  0  0  0  3  0  0  0  0  0  0
  185.7310  178.2040  144.9960 C   0  0  0  0  0  3  0  0  0  0  0  0
  189.6030  177.9010  141.6130 N   0  0  0  0  0  0  0  0  0  0  0  0
  186.4770  178.1780  141.9840 C   0  0  0  0  0  0  0  0  0  0  0  0
  190.5790  176.5600  139.7010 S   0  0  0  0  0  0  0  0  0  0  0  0
  184.2170  178.2810  143.0350 C   0  0  0  0  0  2  0  0  0  0  0  0
  186.4690  178.3100  139.5360 N   0  0  0  0  0  0  0  0  0  0  0  0
  184.7680  179.5570  140.8800 C   0  0  0  0  0  2  0  0  0  0  0  0
  186.7100  177.3110  144.3490 C   0  0  0  0  0  3  0  0  0  0  0  0
  188.1400  176.9900  138.3680 C   0  0  0  0  0  3  0  0  0  0  0  0
  186.9250  177.5540  138.3750 C   0  0  0  0  0  0  0  0  0  0  0  0
  190.7240  177.2430  141.2380 C   0  0  0  0  0  0  0  0  0  0  0  0
  188.6360  177.8060  140.6630 C   0  0  0  0  0  0  0  0  0  0  0  0
  185.1270  178.9200  139.5310 C   0  0  0  0  0  2  0  0  0  0  0  0
  184.0250  176.5520  136.1460 C   0  0  0  0  0  0  0  0  0  0  0  0
  184.4910  176.9520  134.8910 C   0  0  0  0  0  3  0  0  0  0  0  0
  186.0720  177.3650  137.1770 C   0  0  0  0  0  0  0  0  0  0  0  0
  185.7480  177.5530  134.7730 C   0  0  0  0  0  3  0  0  0  0  0  0
  184.8140  176.7530  137.2820 C   0  0  0  0  0  3  0  0  0  0  0  0
  186.5360  177.7540  135.9100 C   0  0  0  0  0  3  0  0  0  0  0  0
  182.8100  175.9660  136.2610 F   0  0  0  0  0  0  0  0  0  0  0  0
  191.9680  177.2130  142.0620 C   0  0  0  0  0  2  0  0  0  0  0  0
  191.6820  176.6610  143.4220 C   0  0  0  0  0  3  0  0  0  0  0  0
  191.6700  177.4140  144.5260 C   0  0  0  0  0  0  0  0  0  0  0  0
  190.3150  177.1140  146.4590 O   0  0  0  0  0  0  0  0  0  0  0  0
  191.3510  176.7680  145.8240 C   0  0  0  0  0  0  0  0  0  0  0  0
  192.5370  175.7320  147.7180 C   0  0  0  0  0  1  0  0  0  0  0  0
  192.1790  175.7720  146.3440 O   0  0  0  0  0  0  0  0  0  0  0  0
  191.0080  179.7900  144.1360 C   0  0  0  0  0  1  0  0  0  0  0  0
  191.9680  178.7810  144.4110 O   0  0  0  0  0  0  0  0  0  0  0  0
  1 10  1  0  0  0  0
  2 13  2  0  0  0  0
  3 17  1  6  0  0  0
  3  8  1  0  0  0  0
  4  9  1  0  0  0  0
  4 17  2  0  0  0  0
  5  6  2  0  0  0  0
  8  1  2  0  0  0  0
  8  2  1  0  0  0  0
  9 16  1  0  0  0  0
 10  5  1  0  0  0  0
 11  3  1  0  0  0  0
 12  1  1  0  0  0  0
 13  6  1  0  0  0  0
 14 15  2  0  0  0  0
 14  4  1  0  0  0  0
 15 11  1  0  0  0  0
 16  7  2  0  0  0  0
 16 26  1  0  0  0  0
 17  7  1  0  0  0  0
 18 11  1  0  0  0  0
 18 12  1  0  0  0  0
 19 25  1  0  0  0  0
 19 23  1  0  0  0  0
 20 19  2  0  0  0  0
 21 23  2  0  0  0  0
 21 15  1  0  0  0  0
 22 20  1  0  0  0  0
 22 24  2  0  0  0  0
 24 21  1  0  0  0  0
 26 27  1  0  0  0  0
 27 28  2  0  0  0  0
 28 30  1  0  0  0  0
 30 32  1  0  0  0  0
 30 29  2  0  0  0  0
 32 31  1  0  0  0  0
 33 34  1  0  0  0  0
 34 28  1  0  0  0  0
M  END
>  <MODEL>
7

>  <REMARK>
 VINA RESULT:      -8.6      3.253      5.569
  Name = 
  6 active torsions:
  status: ('A' for Active; 'I' for Inactive)
    1  A    between atoms: C_3  and  C_17
    2  A    between atoms: C_12  and  C_28
    3  A    between atoms: C_13  and  C_14
    4  A    between atoms: C_13  and  O_33
    5  A    between atoms: C_14  and  O_34
    6  A    between atoms: C_17  and  C_29
                            x       y       z     vdW  Elec       q    Type
                         _______ _______ _______ _____ _____    ______ ____

>  <TORSDO>
F 6

$$$$
=
 OpenBabel10262419103D

 34 38  0  0  1  0  0  0  0  0999 V2000
  190.9370  177.1760  139.9370 C   0  0  0  0  0  0  0  0  0  0  0  0
  188.6530  176.7250  139.0410 C   0  0  0  0  0  3  0  0  0  0  0  0
  189.0930  178.2580  141.1010 C   0  0  2  0  0  3  0  0  0  0  0  0
  186.9730  178.1390  142.4350 C   0  0  0  0  0  0  0  0  0  0  0  0
  191.3650  176.4820  137.6040 C   0  0  0  0  0  3  0  0  0  0  0  0
  190.1580  176.5310  137.0450 C   0  0  0  0  0  3  0  0  0  0  0  0
  186.7770  178.7630  140.2240 N   0  0  0  0  0  0  0  0  0  0  0  0
  189.6050  177.3750  139.9790 C   0  0  0  0  0  0  0  0  0  0  0  0
  185.3270  178.4240  142.2720 S   0  0  0  0  0  0  0  0  0  0  0  0
  191.5740  176.1610  139.0450 C   0  0  0  0  0  2  0  0  0  0  0  0
  189.7640  177.8850  142.3720 N   0  0  0  0  0  0  0  0  0  0  0  0
  191.8130  177.8750  140.9380 C   0  0  0  0  0  2  0  0  0  0  0  0
  188.8860  176.3670  137.7730 C   0  0  0  0  0  3  0  0  0  0  0  0
  187.6970  177.7890  143.6460 C   0  0  0  0  0  3  0  0  0  0  0  0
  189.0300  177.6600  143.6130 C   0  0  0  0  0  0  0  0  0  0  0  0
  185.4900  178.8260  140.6400 C   0  0  0  0  0  0  0  0  0  0  0  0
  187.5980  178.3550  141.2280 C   0  0  0  0  0  0  0  0  0  0  0  0
  191.2290  177.7330  142.3500 C   0  0  0  0  0  2  0  0  0  0  0  0
  189.7610  177.1320  147.2970 C   0  0  0  0  0  0  0  0  0  0  0  0
  191.0470  176.5870  147.2470 C   0  0  0  0  0  3  0  0  0  0  0  0
  189.7150  177.2690  144.8690 C   0  0  0  0  0  0  0  0  0  0  0  0
  191.6730  176.3870  146.0130 C   0  0  0  0  0  3  0  0  0  0  0  0
  189.1020  177.4760  146.1140 C   0  0  0  0  0  3  0  0  0  0  0  0
  191.0120  176.7310  144.8300 C   0  0  0  0  0  3  0  0  0  0  0  0
  189.1560  177.3300  148.4920 F   0  0  0  0  0  0  0  0  0  0  0  0
  184.3710  179.2870  139.7670 C   0  0  0  0  0  2  0  0  0  0  0  0
  183.5920  178.1180  139.2530 C   0  0  0  0  0  3  0  0  0  0  0  0
  183.9330  177.4440  138.1510 C   0  0  0  0  0  0  0  0  0  0  0  0
  182.1630  176.4470  136.9130 O   0  0  0  0  0  0  0  0  0  0  0  0
  183.1020  176.2840  137.7420 C   0  0  0  0  0  0  0  0  0  0  0  0
  184.2070  174.0870  137.5950 C   0  0  0  0  0  1  0  0  0  0  0  0
  183.3560  175.0110  138.2570 O   0  0  0  0  0  0  0  0  0  0  0  0
  185.5990  177.1730  136.3120 C   0  0  0  0  0  1  0  0  0  0  0  0
  185.0560  177.8680  137.4230 O   0  0  0  0  0  0  0  0  0  0  0  0
  1  8  2  0  0  0  0
  1 12  1  0  0  0  0
  2  8  1  0  0  0  0
  3  8  1  6  0  0  0
  3 17  1  0  0  0  0
  3 11  1  0  0  0  0
  4 14  1  0  0  0  0
  5 10  1  0  0  0  0
  6  5  2  0  0  0  0
  6 13  1  0  0  0  0
  7 16  2  0  0  0  0
  7 17  1  0  0  0  0
  9  4  1  0  0  0  0
 10  1  1  0  0  0  0
 11 15  1  0  0  0  0
 12 18  1  0  0  0  0
 13  2  2  0  0  0  0
 15 14  2  0  0  0  0
 15 21  1  0  0  0  0
 16  9  1  0  0  0  0
 17  4  2  0  0  0  0
 18 11  1  0  0  0  0
 19 25  1  0  0  0  0
 20 19  1  0  0  0  0
 21 23  1  0  0  0  0
 22 20  2  0  0  0  0
 23 19  2  0  0  0  0
 24 21  2  0  0  0  0
 24 22  1  0  0  0  0
 26 16  1  0  0  0  0
 27 26  1  0  0  0  0
 28 27  2  0  0  0  0
 29 30  2  0  0  0  0
 30 28  1  0  0  0  0
 30 32  1  0  0  0  0
 31 32  1  0  0  0  0
 33 34  1  0  0  0  0
 34 28  1  0  0  0  0
M  END
>  <MODEL>
8

>  <REMARK>
 VINA RESULT:      -8.5      3.842      7.770
  Name = 
  6 active torsions:
  status: ('A' for Active; 'I' for Inactive)
    1  A    between atoms: C_3  and  C_17
    2  A    between atoms: C_12  and  C_28
    3  A    between atoms: C_13  and  C_14
    4  A    between atoms: C_13  and  O_33
    5  A    between atoms: C_14  and  O_34
    6  A    between atoms: C_17  and  C_29
                            x       y       z     vdW  Elec       q    Type
                         _______ _______ _______ _____ _____    ______ ____

>  <TORSDO>
F 6

$$$$
=
 OpenBabel10262419103D

 34 38  0  0  1  0  0  0  0  0999 V2000
  190.8570  177.1500  139.7640 C   0  0  0  0  0  0  0  0  0  0  0  0
  188.5520  176.7080  138.9160 C   0  0  0  0  0  3  0  0  0  0  0  0
  189.0400  178.2300  140.9730 C   0  0  2  0  0  3  0  0  0  0  0  0
  186.9500  178.1090  142.3520 C   0  0  0  0  0  0  0  0  0  0  0  0
  191.2320  176.4660  137.4190 C   0  0  0  0  0  3  0  0  0  0  0  0
  190.0130  176.5190  136.8860 C   0  0  0  0  0  3  0  0  0  0  0  0
  186.7070  178.7440  140.1500 N   0  0  0  0  0  0  0  0  0  0  0  0
  189.5260  177.3510  139.8360 C   0  0  0  0  0  0  0  0  0  0  0  0
  185.3010  178.3980  142.2270 S   0  0  0  0  0  0  0  0  0  0  0  0
  191.4710  176.1380  138.8540 C   0  0  0  0  0  2  0  0  0  0  0  0
  189.7380  177.8500  142.2270 N   0  0  0  0  0  0  0  0  0  0  0  0
  191.7550  177.8420  140.7490 C   0  0  0  0  0  2  0  0  0  0  0  0
  188.7570  176.3550  137.6420 C   0  0  0  0  0  3  0  0  0  0  0  0
  187.7000  177.7520  143.5460 C   0  0  0  0  0  3  0  0  0  0  0  0
  189.0320  177.6200  143.4830 C   0  0  0  0  0  0  0  0  0  0  0  0
  185.4300  178.8070  140.5940 C   0  0  0  0  0  0  0  0  0  0  0  0
  187.5490  178.3290  141.1330 C   0  0  0  0  0  0  0  0  0  0  0  0
  191.2030  177.6950  142.1720 C   0  0  0  0  0  2  0  0  0  0  0  0
  189.8790  177.1430  147.1490 C   0  0  0  0  0  0  0  0  0  0  0  0
  191.1290  176.5240  147.0640 C   0  0  0  0  0  3  0  0  0  0  0  0
  189.7430  177.2230  144.7210 C   0  0  0  0  0  0  0  0  0  0  0  0
  191.6930  176.2590  145.8130 C   0  0  0  0  0  3  0  0  0  0  0  0
  189.1920  177.4950  145.9830 C   0  0  0  0  0  3  0  0  0  0  0  0
  191.0050  176.6100  144.6480 C   0  0  0  0  0  3  0  0  0  0  0  0
  189.3340  177.4060  148.3600 F   0  0  0  0  0  0  0  0  0  0  0  0
  184.2930  179.2740  139.7480 C   0  0  0  0  0  2  0  0  0  0  0  0
  183.3480  178.1480  139.4730 C   0  0  0  0  0  3  0  0  0  0  0  0
  182.1270  178.0740  140.0110 C   0  0  0  0  0  0  0  0  0  0  0  0
  181.7850  175.8140  139.3520 O   0  0  0  0  0  0  0  0  0  0  0  0
  181.2600  176.9230  139.6520 C   0  0  0  0  0  0  0  0  0  0  0  0
  179.0740  176.6110  140.7430 C   0  0  0  0  0  1  0  0  0  0  0  0
  179.8700  177.0530  139.6530 O   0  0  0  0  0  0  0  0  0  0  0  0
  181.5890  178.9100  142.3010 C   0  0  0  0  0  1  0  0  0  0  0  0
  181.7210  179.0830  140.8990 O   0  0  0  0  0  0  0  0  0  0  0  0
  1  8  2  0  0  0  0
  1 12  1  0  0  0  0
  2  8  1  0  0  0  0
  3  8  1  6  0  0  0
  3 17  1  0  0  0  0
  3 11  1  0  0  0  0
  4 14  1  0  0  0  0
  5 10  1  0  0  0  0
  6  5  2  0  0  0  0
  6 13  1  0  0  0  0
  7 16  2  0  0  0  0
  7 17  1  0  0  0  0
  9  4  1  0  0  0  0
 10  1  1  0  0  0  0
 11 15  1  0  0  0  0
 12 18  1  0  0  0  0
 13  2  2  0  0  0  0
 15 14  2  0  0  0  0
 15 21  1  0  0  0  0
 16  9  1  0  0  0  0
 17  4  2  0  0  0  0
 18 11  1  0  0  0  0
 19 25  1  0  0  0  0
 20 19  1  0  0  0  0
 21 23  1  0  0  0  0
 22 20  2  0  0  0  0
 23 19  2  0  0  0  0
 24 21  2  0  0  0  0
 24 22  1  0  0  0  0
 26 16  1  0  0  0  0
 27 26  1  0  0  0  0
 27 28  2  0  0  0  0
 28 34  1  0  0  0  0
 29 30  2  0  0  0  0
 30 32  1  0  0  0  0
 30 28  1  0  0  0  0
 32 31  1  0  0  0  0
 34 33  1  0  0  0  0
M  END
>  <MODEL>
9

>  <REMARK>
 VINA RESULT:      -8.5      3.895      8.380
  Name = 
  6 active torsions:
  status: ('A' for Active; 'I' for Inactive)
    1  A    between atoms: C_3  and  C_17
    2  A    between atoms: C_12  and  C_28
    3  A    between atoms: C_13  and  C_14
    4  A    between atoms: C_13  and  O_33
    5  A    between atoms: C_14  and  O_34
    6  A    between atoms: C_17  and  C_29
                            x       y       z     vdW  Elec       q    Type
                         _______ _______ _______ _____ _____    ______ ____

>  <TORSDO>
F 6

$$$$
