=
 OpenBabel10262421233D

 32 37  0  0  1  0  0  0  0  0999 V2000
  190.7140  177.5070  138.6960 C   0  0  1  0  0  3  0  0  0  0  0  0
  186.3090  175.8590  137.1020 C   0  0  0  0  0  3  0  0  0  0  0  0
  186.9270  174.7300  136.5630 C   0  0  0  0  0  3  0  0  0  0  0  0
  192.8430  176.3700  137.9620 C   0  0  0  0  0  0  0  0  0  0  0  0
  193.3530  175.0850  137.4910 C   0  0  0  0  0  0  0  0  0  0  0  0
  189.8370  177.4170  141.0410 C   0  0  2  0  0  3  0  0  0  0  0  0
  188.6310  178.6250  139.3030 O   0  0  0  0  0  0  0  0  0  0  0  0
  193.2320  173.0250  136.5680 C   0  0  0  0  0  0  0  0  0  0  0  0
  187.6170  178.5260  141.4560 C   0  0  0  0  0  1  0  0  0  0  0  0
  187.0810  176.8810  137.6550 C   0  0  0  0  0  3  0  0  0  0  0  0
  189.2960  177.9200  138.2680 C   0  0  2  0  0  3  0  0  0  0  0  0
  188.4800  176.7810  137.6870 C   0  0  0  0  0  0  0  0  0  0  0  0
  190.5980  175.5640  137.0720 C   0  0  0  0  0  0  0  0  0  0  0  0
  194.1950  172.9810  137.6120 N   0  0  0  0  0  2  0  0  0  0  0  0
  188.4740  177.7930  140.4370 C   0  0  2  0  0  3  0  0  0  0  0  0
  194.1830  174.2930  138.1640 C   0  0  0  0  0  3  0  0  0  0  0  0
  188.3200  174.6300  136.5650 C   0  0  0  0  0  3  0  0  0  0  0  0
  189.1130  175.6540  137.1120 C   0  0  0  0  0  0  0  0  0  0  0  0
  191.1910  174.4700  136.5500 C   0  0  0  0  0  3  0  0  0  0  0  0
  190.6490  176.6850  139.9810 C   0  0  0  0  0  2  0  0  0  0  0  0
  193.5560  177.1290  138.6730 O   0  0  0  0  0  0  0  0  0  0  0  0
  192.9380  172.0230  135.8650 O   0  0  0  0  0  0  0  0  0  0  0  0
  191.4310  176.7550  137.5660 C   0  0  1  0  0  3  0  0  0  0  0  0
  192.6800  174.3870  136.3670 C   0  0  1  0  0  3  0  0  0  0  0  0
  189.6620  176.5030  142.2510 C   0  0  0  0  0  2  0  0  0  0  0  0
  191.0810  178.6380  143.1640 S   0  0  0  0  0  1  0  0  0  0  0  0
  190.5930  176.9020  143.3870 C   0  0  1  0  0  3  0  0  0  0  0  0
  189.8900  176.7370  144.7250 C   0  0  0  0  0  2  0  0  0  0  0  0
  188.8230  177.8000  144.9000 C   0  0  0  0  0  2  0  0  0  0  0  0
  187.5500  177.1560  145.4080 C   0  0  0  0  0  3  0  0  0  0  0  0
  186.7860  178.1590  146.2460 C   0  0  0  0  0  2  0  0  0  0  0  0
  186.3540  177.8790  144.8220 C   0  0  0  0  0  2  0  0  0  0  0  0
  1 20  1  1  0  0  0
  2 10  1  0  0  0  0
  3 17  1  0  0  0  0
  3  2  2  0  0  0  0
  4 21  2  0  0  0  0
  5  4  1  0  0  0  0
  5 16  2  0  0  0  0
  6 25  1  1  0  0  0
  7 15  1  0  0  0  0
  8 14  1  0  0  0  0
 10 12  2  0  0  0  0
 11 12  1  1  0  0  0
 11  1  1  0  0  0  0
 11  7  1  0  0  0  0
 13 18  1  0  0  0  0
 14 16  1  0  0  0  0
 15  6  1  0  0  0  0
 15  9  1  1  0  0  0
 17 18  2  0  0  0  0
 18 12  1  0  0  0  0
 19 13  2  0  0  0  0
 20  6  1  0  0  0  0
 22  8  2  0  0  0  0
 23 13  1  1  0  0  0
 23  4  1  0  0  0  0
 23  1  1  0  0  0  0
 24 19  1  1  0  0  0
 24  8  1  0  0  0  0
 24  5  1  0  0  0  0
 25 27  1  0  0  0  0
 27 26  1  6  0  0  0
 27 28  1  0  0  0  0
 28 29  1  0  0  0  0
 29 30  1  0  0  0  0
 30 31  1  0  0  0  0
 32 30  1  0  0  0  0
 32 31  1  0  0  0  0
M  END
>  <MODEL>
1

>  <REMARK>
 VINA RESULT:      -7.9      0.000      0.000
  Name = 
  5 active torsions:
  status: ('A' for Active; 'I' for Inactive)
    1  A    between atoms: C_1  and  C_10
    2  A    between atoms: C_8  and  C_23
    3  A    between atoms: C_10  and  C_24
    4  A    between atoms: C_19  and  C_23
    5  A    between atoms: C_19  and  C_24
                            x       y       z     vdW  Elec       q    Type
                         _______ _______ _______ _____ _____    ______ ____

>  <TORSDO>
F 5

$$$$
=
 OpenBabel10262421233D

 32 37  0  0  1  0  0  0  0  0999 V2000
  190.9150  176.9860  137.9820 C   0  0  1  0  0  3  0  0  0  0  0  0
  186.7330  174.4860  137.0190 C   0  0  0  0  0  3  0  0  0  0  0  0
  187.4820  173.3430  136.7370 C   0  0  0  0  0  3  0  0  0  0  0  0
  193.1600  175.9690  137.4470 C   0  0  0  0  0  0  0  0  0  0  0  0
  193.8230  174.6800  137.2730 C   0  0  0  0  0  0  0  0  0  0  0  0
  190.0870  177.3590  140.3170 C   0  0  2  0  0  3  0  0  0  0  0  0
  188.7150  177.9590  138.3960 O   0  0  0  0  0  0  0  0  0  0  0  0
  193.9520  172.4590  136.8720 C   0  0  0  0  0  0  0  0  0  0  0  0
  187.7510  178.2620  140.5530 C   0  0  0  0  0  1  0  0  0  0  0  0
  187.3770  175.6970  137.2790 C   0  0  0  0  0  3  0  0  0  0  0  0
  189.4500  177.1100  137.5300 C   0  0  2  0  0  3  0  0  0  0  0  0
  188.7770  175.7760  137.2730 C   0  0  0  0  0  0  0  0  0  0  0  0
  191.0240  174.7090  136.8720 C   0  0  0  0  0  0  0  0  0  0  0  0
  194.9270  172.7830  137.8530 N   0  0  0  0  0  2  0  0  0  0  0  0
  188.6800  177.4130  139.7010 C   0  0  2  0  0  3  0  0  0  0  0  0
  194.7550  174.1780  138.0780 C   0  0  0  0  0  3  0  0  0  0  0  0
  188.8760  173.4150  136.7010 C   0  0  0  0  0  3  0  0  0  0  0  0
  189.5410  174.6280  136.9550 C   0  0  0  0  0  0  0  0  0  0  0  0
  191.7440  173.6010  136.6000 C   0  0  0  0  0  3  0  0  0  0  0  0
  190.9710  176.4960  139.4270 C   0  0  0  0  0  2  0  0  0  0  0  0
  193.7810  176.9570  137.9260 O   0  0  0  0  0  0  0  0  0  0  0  0
  193.7780  171.2890  136.4410 O   0  0  0  0  0  0  0  0  0  0  0  0
  191.7050  176.0750  137.0330 C   0  0  1  0  0  3  0  0  0  0  0  0
  193.2290  173.6560  136.3780 C   0  0  1  0  0  3  0  0  0  0  0  0
  190.0460  176.7500  141.7160 C   0  0  0  0  0  2  0  0  0  0  0  0
  188.9710  177.9190  143.9270 S   0  0  0  0  0  1  0  0  0  0  0  0
  190.3770  177.7850  142.7820 C   0  0  1  0  0  3  0  0  0  0  0  0
  191.6220  177.3680  143.5490 C   0  0  0  0  0  2  0  0  0  0  0  0
  191.2650  176.3950  144.6560 C   0  0  0  0  0  2  0  0  0  0  0  0
  191.7460  176.9440  145.9820 C   0  0  0  0  0  3  0  0  0  0  0  0
  190.7740  176.5390  147.0690 C   0  0  0  0  0  2  0  0  0  0  0  0
  192.0820  175.7930  146.9090 C   0  0  0  0  0  2  0  0  0  0  0  0
  1 20  1  1  0  0  0
  2 10  1  0  0  0  0
  3  2  2  0  0  0  0
  4 21  2  0  0  0  0
  5  4  1  0  0  0  0
  5 16  2  0  0  0  0
  6 25  1  1  0  0  0
  7 15  1  0  0  0  0
  8 14  1  0  0  0  0
 11 12  1  1  0  0  0
 11  1  1  0  0  0  0
 11  7  1  0  0  0  0
 12 10  2  0  0  0  0
 13 18  1  0  0  0  0
 14 16  1  0  0  0  0
 15  6  1  0  0  0  0
 15  9  1  1  0  0  0
 17  3  1  0  0  0  0
 17 18  2  0  0  0  0
 18 12  1  0  0  0  0
 19 13  2  0  0  0  0
 20  6  1  0  0  0  0
 22  8  2  0  0  0  0
 23 13  1  1  0  0  0
 23  4  1  0  0  0  0
 23  1  1  0  0  0  0
 24 19  1  1  0  0  0
 24  8  1  0  0  0  0
 24  5  1  0  0  0  0
 25 27  1  0  0  0  0
 27 28  1  0  0  0  0
 27 26  1  1  0  0  0
 28 29  1  0  0  0  0
 29 30  1  0  0  0  0
 30 32  1  0  0  0  0
 30 31  1  0  0  0  0
 32 31  1  0  0  0  0
M  END
>  <MODEL>
2

>  <REMARK>
 VINA RESULT:      -7.5      1.661      1.966
  Name = 
  5 active torsions:
  status: ('A' for Active; 'I' for Inactive)
    1  A    between atoms: C_1  and  C_10
    2  A    between atoms: C_8  and  C_23
    3  A    between atoms: C_10  and  C_24
    4  A    between atoms: C_19  and  C_23
    5  A    between atoms: C_19  and  C_24
                            x       y       z     vdW  Elec       q    Type
                         _______ _______ _______ _____ _____    ______ ____

>  <TORSDO>
F 5

$$$$
=
 OpenBabel10262421233D

 32 37  0  0  1  0  0  0  0  0999 V2000
  182.1720  179.1610  140.3120 C   0  0  1  0  0  3  0  0  0  0  0  0
  179.0680  175.2920  140.5680 C   0  0  0  0  0  3  0  0  0  0  0  0
  179.9250  174.5520  139.7530 C   0  0  0  0  0  3  0  0  0  0  0  0
  184.1100  179.1350  138.6990 C   0  0  0  0  0  0  0  0  0  0  0  0
  184.9930  178.2210  137.9800 C   0  0  0  0  0  0  0  0  0  0  0  0
  182.4410  179.0360  142.8000 C   0  0  2  0  0  3  0  0  0  0  0  0
  180.2290  179.1710  141.7900 O   0  0  0  0  0  0  0  0  0  0  0  0
  185.6260  176.2560  137.0600 C   0  0  0  0  0  0  0  0  0  0  0  0
  180.3270  178.9390  144.1590 C   0  0  0  0  0  1  0  0  0  0  0  0
  179.3320  176.6390  140.8170 C   0  0  0  0  0  3  0  0  0  0  0  0
  180.7110  178.7310  140.5310 C   0  0  2  0  0  3  0  0  0  0  0  0
  180.4640  177.2590  140.2660 C   0  0  0  0  0  0  0  0  0  0  0  0
  182.4810  177.1800  138.7600 C   0  0  0  0  0  0  0  0  0  0  0  0
  186.7810  176.8730  137.6110 N   0  0  0  0  0  2  0  0  0  0  0  0
  180.9760  178.5740  142.8340 C   0  0  2  0  0  3  0  0  0  0  0  0
  186.2950  178.0740  138.2020 C   0  0  0  0  0  3  0  0  0  0  0  0
  181.0390  175.1640  139.1760 C   0  0  0  0  0  3  0  0  0  0  0  0
  181.3170  176.5220  139.4120 C   0  0  0  0  0  0  0  0  0  0  0  0
  183.3070  176.4600  137.9730 C   0  0  0  0  0  3  0  0  0  0  0  0
  183.0410  178.6430  141.4560 C   0  0  0  0  0  2  0  0  0  0  0  0
  184.5280  180.2560  139.1010 O   0  0  0  0  0  0  0  0  0  0  0  0
  185.6590  175.1400  136.4790 O   0  0  0  0  0  0  0  0  0  0  0  0
  182.6810  178.6910  138.9430 C   0  0  1  0  0  3  0  0  0  0  0  0
  184.4160  177.1030  137.1900 C   0  0  1  0  0  3  0  0  0  0  0  0
  183.2460  178.3740  143.9150 C   0  0  0  0  0  2  0  0  0  0  0  0
  185.1330  178.9560  145.7880 S   0  0  0  0  0  1  0  0  0  0  0  0
  184.6320  178.9910  144.0420 C   0  0  1  0  0  3  0  0  0  0  0  0
  185.6330  178.2090  143.2070 C   0  0  0  0  0  2  0  0  0  0  0  0
  186.6090  177.4690  144.1020 C   0  0  0  0  0  2  0  0  0  0  0  0
  188.0070  177.5940  143.5310 C   0  0  0  0  0  3  0  0  0  0  0  0
  188.9960  176.9890  144.5040 C   0  0  0  0  0  2  0  0  0  0  0  0
  188.5690  176.2100  143.2780 C   0  0  0  0  0  2  0  0  0  0  0  0
  1 11  1  0  0  0  0
  1 20  1  1  0  0  0
  2 10  1  0  0  0  0
  3  2  2  0  0  0  0
  4 21  2  0  0  0  0
  5 16  2  0  0  0  0
  5  4  1  0  0  0  0
  6 15  1  0  0  0  0
  6 25  1  1  0  0  0
  7 15  1  0  0  0  0
  8 24  1  0  0  0  0
  8 14  1  0  0  0  0
 11 12  1  1  0  0  0
 11  7  1  0  0  0  0
 12 10  2  0  0  0  0
 13 23  1  0  0  0  0
 13 18  1  0  0  0  0
 14 16  1  0  0  0  0
 15  9  1  1  0  0  0
 17 18  2  0  0  0  0
 17  3  1  0  0  0  0
 18 12  1  0  0  0  0
 19 13  2  0  0  0  0
 20  6  1  0  0  0  0
 22  8  2  0  0  0  0
 23  4  1  1  0  0  0
 23  1  1  0  0  0  0
 24 19  1  1  0  0  0
 24  5  1  0  0  0  0
 25 27  1  0  0  0  0
 27 26  1  1  0  0  0
 28 27  1  0  0  0  0
 28 29  1  0  0  0  0
 30 29  1  0  0  0  0
 30 31  1  0  0  0  0
 32 30  1  0  0  0  0
 32 31  1  0  0  0  0
M  END
>  <MODEL>
3

>  <REMARK>
 VINA RESULT:      -7.4      5.080      7.682
  Name = 
  5 active torsions:
  status: ('A' for Active; 'I' for Inactive)
    1  A    between atoms: C_1  and  C_10
    2  A    between atoms: C_8  and  C_23
    3  A    between atoms: C_10  and  C_24
    4  A    between atoms: C_19  and  C_23
    5  A    between atoms: C_19  and  C_24
                            x       y       z     vdW  Elec       q    Type
                         _______ _______ _______ _____ _____    ______ ____

>  <TORSDO>
F 5

$$$$
=
 OpenBabel10262421233D

 32 37  0  0  1  0  0  0  0  0999 V2000
  187.6300  178.4440  138.2770 C   0  0  1  0  0  3  0  0  0  0  0  0
  190.8590  175.9960  135.4050 C   0  0  0  0  0  3  0  0  0  0  0  0
  191.4330  175.4230  136.5410 C   0  0  0  0  0  3  0  0  0  0  0  0
  187.9170  178.4680  140.7830 C   0  0  0  0  0  0  0  0  0  0  0  0
  188.4980  177.6980  141.8790 C   0  0  0  0  0  0  0  0  0  0  0  0
  185.7670  177.2430  137.1100 C   0  0  2  0  0  3  0  0  0  0  0  0
  187.4520  178.4630  135.8430 O   0  0  0  0  0  0  0  0  0  0  0  0
  189.8770  176.1860  142.8380 C   0  0  0  0  0  0  0  0  0  0  0  0
  185.8100  177.2720  134.5950 C   0  0  0  0  0  1  0  0  0  0  0  0
  189.8660  176.9680  135.5400 C   0  0  0  0  0  3  0  0  0  0  0  0
  188.3660  178.4460  136.9270 C   0  0  2  0  0  3  0  0  0  0  0  0
  189.4260  177.3680  136.8100 C   0  0  0  0  0  0  0  0  0  0  0  0
  189.6250  177.2780  139.3190 C   0  0  0  0  0  0  0  0  0  0  0  0
  188.6290  176.1280  143.5130 N   0  0  0  0  0  2  0  0  0  0  0  0
  186.6560  177.2930  135.8570 C   0  0  2  0  0  3  0  0  0  0  0  0
  187.8100  177.0720  142.8300 C   0  0  0  0  0  3  0  0  0  0  0  0
  191.0230  175.8310  137.8110 C   0  0  0  0  0  3  0  0  0  0  0  0
  190.0270  176.8130  137.9640 C   0  0  0  0  0  0  0  0  0  0  0  0
  190.1830  176.7190  140.4140 C   0  0  0  0  0  3  0  0  0  0  0  0
  186.6650  177.2620  138.3400 C   0  0  0  0  0  2  0  0  0  0  0  0
  186.8590  179.1350  140.9500 O   0  0  0  0  0  0  0  0  0  0  0  0
  190.8550  175.4540  143.1440 O   0  0  0  0  0  0  0  0  0  0  0  0
  188.6270  178.4370  139.4440 C   0  0  1  0  0  3  0  0  0  0  0  0
  189.9080  177.2400  141.7960 C   0  0  1  0  0  3  0  0  0  0  0  0
  184.9270  175.9680  137.1290 C   0  0  0  0  0  2  0  0  0  0  0  0
  182.4800  175.5220  136.0250 S   0  0  0  0  0  1  0  0  0  0  0  0
  183.4550  176.2780  137.3600 C   0  0  1  0  0  3  0  0  0  0  0  0
  183.0050  175.7190  138.7010 C   0  0  0  0  0  2  0  0  0  0  0  0
  182.3920  176.8130  139.5550 C   0  0  0  0  0  2  0  0  0  0  0  0
  183.4880  177.5240  140.3210 C   0  0  0  0  0  3  0  0  0  0  0  0
  183.5100  178.9830  139.9170 C   0  0  0  0  0  2  0  0  0  0  0  0
  182.8680  178.5700  141.2250 C   0  0  0  0  0  2  0  0  0  0  0  0
  1 20  1  6  0  0  0
  1 23  1  0  0  0  0
  2 10  2  0  0  0  0
  2  3  1  0  0  0  0
  3 17  2  0  0  0  0
  4 21  2  0  0  0  0
  4  5  1  0  0  0  0
  5 16  2  0  0  0  0
  6 25  1  6  0  0  0
  6 20  1  0  0  0  0
  7 15  1  0  0  0  0
  8 22  2  0  0  0  0
  8 14  1  0  0  0  0
 10 12  1  0  0  0  0
 11  7  1  6  0  0  0
 11  1  1  0  0  0  0
 12 11  1  0  0  0  0
 12 18  2  0  0  0  0
 13 19  2  0  0  0  0
 15  9  1  6  0  0  0
 15  6  1  0  0  0  0
 16 14  1  0  0  0  0
 17 18  1  0  0  0  0
 18 13  1  0  0  0  0
 23 13  1  1  0  0  0
 23  4  1  0  0  0  0
 24 19  1  6  0  0  0
 24  5  1  0  0  0  0
 24  8  1  0  0  0  0
 25 27  1  0  0  0  0
 27 26  1  6  0  0  0
 27 28  1  0  0  0  0
 28 29  1  0  0  0  0
 29 30  1  0  0  0  0
 30 32  1  0  0  0  0
 31 30  1  0  0  0  0
 31 32  1  0  0  0  0
M  END
>  <MODEL>
4

>  <REMARK>
 VINA RESULT:      -7.2      3.608      6.319
  Name = 
  5 active torsions:
  status: ('A' for Active; 'I' for Inactive)
    1  A    between atoms: C_1  and  C_10
    2  A    between atoms: C_8  and  C_23
    3  A    between atoms: C_10  and  C_24
    4  A    between atoms: C_19  and  C_23
    5  A    between atoms: C_19  and  C_24
                            x       y       z     vdW  Elec       q    Type
                         _______ _______ _______ _____ _____    ______ ____

>  <TORSDO>
F 5

$$$$
=
 OpenBabel10262421233D

 32 37  0  0  1  0  0  0  0  0999 V2000
  186.3870  178.9560  140.7100 C   0  0  1  0  0  3  0  0  0  0  0  0
  181.5840  177.8200  141.2630 C   0  0  0  0  0  3  0  0  0  0  0  0
  181.6390  177.0310  140.1130 C   0  0  0  0  0  3  0  0  0  0  0  0
  187.6120  178.3230  138.5970 C   0  0  0  0  0  0  0  0  0  0  0  0
  187.5850  177.3590  137.5020 C   0  0  0  0  0  0  0  0  0  0  0  0
  186.8350  177.9010  142.9370 C   0  0  2  0  0  3  0  0  0  0  0  0
  185.1320  179.6250  142.6930 O   0  0  0  0  0  0  0  0  0  0  0  0
  186.6640  175.8250  136.1190 C   0  0  0  0  0  0  0  0  0  0  0  0
  185.3650  178.6290  144.8450 C   0  0  0  0  0  1  0  0  0  0  0  0
  182.6890  178.5850  141.6390 C   0  0  0  0  0  3  0  0  0  0  0  0
  185.0420  179.4230  141.2930 C   0  0  2  0  0  3  0  0  0  0  0  0
  183.8670  178.5600  140.8770 C   0  0  0  0  0  0  0  0  0  0  0  0
  185.1300  177.8060  138.8320 C   0  0  0  0  0  0  0  0  0  0  0  0
  188.0020  175.4280  136.3830 N   0  0  0  0  0  2  0  0  0  0  0  0
  185.4410  178.4060  143.3430 C   0  0  2  0  0  3  0  0  0  0  0  0
  188.4950  176.4140  137.2850 C   0  0  0  0  0  3  0  0  0  0  0  0
  182.7950  177.0190  139.3310 C   0  0  0  0  0  3  0  0  0  0  0  0
  183.9160  177.7880  139.6920 C   0  0  0  0  0  0  0  0  0  0  0  0
  185.1780  177.0410  137.7220 C   0  0  0  0  0  3  0  0  0  0  0  0
  186.8520  177.6920  141.4290 C   0  0  0  0  0  2  0  0  0  0  0  0
  188.7040  178.7800  139.0310 O   0  0  0  0  0  0  0  0  0  0  0  0
  185.8880  175.1650  135.3800 O   0  0  0  0  0  0  0  0  0  0  0  0
  186.2840  178.7510  139.1920 C   0  0  1  0  0  3  0  0  0  0  0  0
  186.3240  177.1220  136.7540 C   0  0  1  0  0  3  0  0  0  0  0  0
  187.1550  176.5760  143.6250 C   0  0  0  0  0  2  0  0  0  0  0  0
  189.7000  176.0480  142.8190 S   0  0  0  0  0  1  0  0  0  0  0  0
  188.5810  176.5570  144.1570 C   0  0  1  0  0  3  0  0  0  0  0  0
  188.9750  177.9390  144.6530 C   0  0  0  0  0  2  0  0  0  0  0  0
  189.4380  177.8750  146.0960 C   0  0  0  0  0  2  0  0  0  0  0  0
  188.2340  177.9260  147.0130 C   0  0  0  0  0  3  0  0  0  0  0  0
  188.3570  176.8360  148.0560 C   0  0  0  0  0  2  0  0  0  0  0  0
  188.6880  178.2690  148.4170 C   0  0  0  0  0  2  0  0  0  0  0  0
  1 11  1  0  0  0  0
  1 20  1  1  0  0  0
  2 10  1  0  0  0  0
  3  2  2  0  0  0  0
  4 21  2  0  0  0  0
  5  4  1  0  0  0  0
  6 15  1  0  0  0  0
  6 25  1  1  0  0  0
  7 15  1  0  0  0  0
  8 14  1  0  0  0  0
  8 24  1  0  0  0  0
 11 12  1  1  0  0  0
 11  7  1  0  0  0  0
 12 10  2  0  0  0  0
 13 23  1  0  0  0  0
 13 18  1  0  0  0  0
 14 16  1  0  0  0  0
 15  9  1  1  0  0  0
 16  5  2  0  0  0  0
 17 18  2  0  0  0  0
 17  3  1  0  0  0  0
 18 12  1  0  0  0  0
 19 13  2  0  0  0  0
 20  6  1  0  0  0  0
 22  8  2  0  0  0  0
 23  4  1  1  0  0  0
 23  1  1  0  0  0  0
 24  5  1  0  0  0  0
 24 19  1  1  0  0  0
 25 27  1  0  0  0  0
 27 26  1  6  0  0  0
 27 28  1  0  0  0  0
 28 29  1  0  0  0  0
 29 30  1  0  0  0  0
 30 31  1  0  0  0  0
 30 32  1  0  0  0  0
 31 32  1  0  0  0  0
M  END
>  <MODEL>
5

>  <REMARK>
 VINA RESULT:      -7.1      3.401      5.297
  Name = 
  5 active torsions:
  status: ('A' for Active; 'I' for Inactive)
    1  A    between atoms: C_1  and  C_10
    2  A    between atoms: C_8  and  C_23
    3  A    between atoms: C_10  and  C_24
    4  A    between atoms: C_19  and  C_23
    5  A    between atoms: C_19  and  C_24
                            x       y       z     vdW  Elec       q    Type
                         _______ _______ _______ _____ _____    ______ ____

>  <TORSDO>
F 5

$$$$
=
 OpenBabel10262421233D

 32 37  0  0  1  0  0  0  0  0999 V2000
  185.9630  178.6280  138.5590 C   0  0  1  0  0  3  0  0  0  0  0  0
  182.7000  175.2060  137.0400 C   0  0  0  0  0  3  0  0  0  0  0  0
  183.7470  174.3150  136.8000 C   0  0  0  0  0  3  0  0  0  0  0  0
  188.4380  178.2600  138.2390 C   0  0  0  0  0  0  0  0  0  0  0  0
  189.4300  177.1990  138.0920 C   0  0  0  0  0  0  0  0  0  0  0  0
  184.8420  178.6210  140.7990 C   0  0  2  0  0  3  0  0  0  0  0  0
  183.5550  178.9740  138.7610 O   0  0  0  0  0  0  0  0  0  0  0  0
  190.1760  175.1170  137.6230 C   0  0  0  0  0  0  0  0  0  0  0  0
  182.3390  178.8750  140.8070 C   0  0  0  0  0  1  0  0  0  0  0  0
  182.9740  176.5220  137.4160 C   0  0  0  0  0  3  0  0  0  0  0  0
  184.5690  178.4010  137.9510 C   0  0  2  0  0  3  0  0  0  0  0  0
  184.2980  176.9580  137.5690 C   0  0  0  0  0  0  0  0  0  0  0  0
  186.7740  176.5340  137.3820 C   0  0  0  0  0  0  0  0  0  0  0  0
  190.9300  175.6160  138.7190 N   0  0  0  0  0  2  0  0  0  0  0  0
  183.5370  178.3520  140.0320 C   0  0  2  0  0  3  0  0  0  0  0  0
  190.3770  176.9020  138.9760 C   0  0  0  0  0  3  0  0  0  0  0  0
  185.0690  174.7450  136.9230 C   0  0  0  0  0  3  0  0  0  0  0  0
  185.3640  176.0690  137.2960 C   0  0  0  0  0  0  0  0  0  0  0  0
  187.7830  175.6690  137.1500 C   0  0  0  0  0  3  0  0  0  0  0  0
  186.0040  178.0750  139.9810 C   0  0  0  0  0  2  0  0  0  0  0  0
  188.7270  179.3400  138.8220 O   0  0  0  0  0  0  0  0  0  0  0  0
  190.3580  173.9730  137.1310 O   0  0  0  0  0  0  0  0  0  0  0  0
  187.0540  178.0150  137.6690 C   0  0  1  0  0  3  0  0  0  0  0  0
  189.2160  176.1180  137.0970 C   0  0  1  0  0  3  0  0  0  0  0  0
  184.8250  177.9310  142.1610 C   0  0  0  0  0  2  0  0  0  0  0  0
  183.6360  179.3770  144.1360 S   0  0  0  0  0  1  0  0  0  0  0  0
  185.1680  178.9040  143.2800 C   0  0  1  0  0  3  0  0  0  0  0  0
  186.1240  178.2520  144.2670 C   0  0  0  0  0  2  0  0  0  0  0  0
  186.9120  177.1450  143.5930 C   0  0  0  0  0  2  0  0  0  0  0  0
  188.3890  177.4730  143.6520 C   0  0  0  0  0  3  0  0  0  0  0  0
  189.1690  176.3760  142.9590 C   0  0  0  0  0  2  0  0  0  0  0  0
  188.9100  177.6860  142.2450 C   0  0  0  0  0  2  0  0  0  0  0  0
  1 20  1  1  0  0  0
  2 10  1  0  0  0  0
  3 17  1  0  0  0  0
  3  2  2  0  0  0  0
  4 21  2  0  0  0  0
  5  4  1  0  0  0  0
  5 16  2  0  0  0  0
  6 25  1  1  0  0  0
  7 15  1  0  0  0  0
  8 14  1  0  0  0  0
 10 12  2  0  0  0  0
 11 12  1  1  0  0  0
 11  1  1  0  0  0  0
 11  7  1  0  0  0  0
 14 16  1  0  0  0  0
 15  6  1  0  0  0  0
 15  9  1  1  0  0  0
 17 18  2  0  0  0  0
 18 13  1  0  0  0  0
 18 12  1  0  0  0  0
 19 13  2  0  0  0  0
 20  6  1  0  0  0  0
 22  8  2  0  0  0  0
 23 13  1  1  0  0  0
 23  4  1  0  0  0  0
 23  1  1  0  0  0  0
 24 19  1  1  0  0  0
 24  8  1  0  0  0  0
 24  5  1  0  0  0  0
 25 27  1  0  0  0  0
 27 26  1  1  0  0  0
 27 28  1  0  0  0  0
 29 30  1  0  0  0  0
 29 28  1  0  0  0  0
 31 30  1  0  0  0  0
 32 31  1  0  0  0  0
 32 30  1  0  0  0  0
M  END
>  <MODEL>
6

>  <REMARK>
 VINA RESULT:      -6.9      2.847      4.468
  Name = 
  5 active torsions:
  status: ('A' for Active; 'I' for Inactive)
    1  A    between atoms: C_1  and  C_10
    2  A    between atoms: C_8  and  C_23
    3  A    between atoms: C_10  and  C_24
    4  A    between atoms: C_19  and  C_23
    5  A    between atoms: C_19  and  C_24
                            x       y       z     vdW  Elec       q    Type
                         _______ _______ _______ _____ _____    ______ ____

>  <TORSDO>
F 5

$$$$
=
 OpenBabel10262421233D

 32 37  0  0  1  0  0  0  0  0999 V2000
  189.1620  177.4460  137.5300 C   0  0  1  0  0  3  0  0  0  0  0  0
  191.1910  177.1190  142.0510 C   0  0  0  0  0  3  0  0  0  0  0  0
  189.9360  177.3200  142.6270 C   0  0  0  0  0  3  0  0  0  0  0  0
  186.7700  178.1990  137.2570 C   0  0  0  0  0  0  0  0  0  0  0  0
  185.4960  178.2520  137.9690 C   0  0  0  0  0  0  0  0  0  0  0  0
  189.9360  175.1070  137.0750 C   0  0  2  0  0  3  0  0  0  0  0  0
  191.4970  176.8110  137.8440 O   0  0  0  0  0  0  0  0  0  0  0  0
  184.1350  178.2520  139.7740 C   0  0  0  0  0  0  0  0  0  0  0  0
  192.3520  174.6050  137.5670 C   0  0  0  0  0  1  0  0  0  0  0  0
  191.3470  177.2150  140.6680 C   0  0  0  0  0  3  0  0  0  0  0  0
  190.4530  177.6280  138.3460 C   0  0  2  0  0  3  0  0  0  0  0  0
  190.2490  177.5010  139.8430 C   0  0  0  0  0  0  0  0  0  0  0  0
  187.8210  178.1140  139.5740 C   0  0  0  0  0  0  0  0  0  0  0  0
  183.4760  177.5500  138.7290 N   0  0  0  0  0  2  0  0  0  0  0  0
  191.1470  175.4450  137.9590 C   0  0  2  0  0  3  0  0  0  0  0  0
  184.4070  177.5590  137.6510 C   0  0  0  0  0  3  0  0  0  0  0  0
  188.8400  177.6320  141.8210 C   0  0  0  0  0  3  0  0  0  0  0  0
  188.9810  177.7380  140.4260 C   0  0  0  0  0  0  0  0  0  0  0  0
  186.6090  178.3080  140.1370 C   0  0  0  0  0  3  0  0  0  0  0  0
  188.7620  175.9730  137.5130 C   0  0  0  0  0  2  0  0  0  0  0  0
  186.8060  178.0370  136.0060 O   0  0  0  0  0  0  0  0  0  0  0  0
  183.6270  178.4170  140.9140 O   0  0  0  0  0  0  0  0  0  0  0  0
  188.0400  178.3420  138.0730 C   0  0  1  0  0  3  0  0  0  0  0  0
  185.4390  178.8130  139.3420 C   0  0  1  0  0  3  0  0  0  0  0  0
  189.5500  173.6370  137.2190 C   0  0  0  0  0  2  0  0  0  0  0  0
  189.9530  172.6900  134.6990 S   0  0  0  0  0  1  0  0  0  0  0  0
  188.7740  173.1460  136.0050 C   0  0  1  0  0  3  0  0  0  0  0  0
  187.9300  171.9370  136.3760 C   0  0  0  0  0  2  0  0  0  0  0  0
  186.4540  172.2770  136.3120 C   0  0  0  0  0  2  0  0  0  0  0  0
  186.0490  172.9990  137.5800 C   0  0  0  0  0  3  0  0  0  0  0  0
  185.4460  174.3390  137.2180 C   0  0  0  0  0  2  0  0  0  0  0  0
  184.5440  173.1810  137.5940 C   0  0  0  0  0  2  0  0  0  0  0  0
  1 20  1  1  0  0  0
  1 23  1  0  0  0  0
  1 11  1  0  0  0  0
  2  3  1  0  0  0  0
  4  5  1  0  0  0  0
  5 24  1  0  0  0  0
  6 25  1  1  0  0  0
  6 20  1  0  0  0  0
  6 15  1  0  0  0  0
  7 15  1  0  0  0  0
  8 22  2  0  0  0  0
 10  2  2  0  0  0  0
 11  7  1  6  0  0  0
 11 12  1  0  0  0  0
 12 18  2  0  0  0  0
 12 10  1  0  0  0  0
 13 19  2  0  0  0  0
 13 18  1  0  0  0  0
 14  8  1  0  0  0  0
 15  9  1  6  0  0  0
 16  5  2  0  0  0  0
 16 14  1  0  0  0  0
 17  3  2  0  0  0  0
 18 17  1  0  0  0  0
 21  4  2  0  0  0  0
 23  4  1  6  0  0  0
 23 13  1  0  0  0  0
 24  8  1  0  0  0  0
 24 19  1  1  0  0  0
 27 26  1  6  0  0  0
 27 28  1  0  0  0  0
 27 25  1  0  0  0  0
 29 28  1  0  0  0  0
 29 30  1  0  0  0  0
 30 32  1  0  0  0  0
 31 30  1  0  0  0  0
 31 32  1  0  0  0  0
M  END
>  <MODEL>
7

>  <REMARK>
 VINA RESULT:      -6.7      3.515      7.575
  Name = 
  5 active torsions:
  status: ('A' for Active; 'I' for Inactive)
    1  A    between atoms: C_1  and  C_10
    2  A    between atoms: C_8  and  C_23
    3  A    between atoms: C_10  and  C_24
    4  A    between atoms: C_19  and  C_23
    5  A    between atoms: C_19  and  C_24
                            x       y       z     vdW  Elec       q    Type
                         _______ _______ _______ _____ _____    ______ ____

>  <TORSDO>
F 5

$$$$
=
 OpenBabel10262421233D

 32 37  0  0  1  0  0  0  0  0999 V2000
  185.0650  177.3790  136.8350 C   0  0  1  0  0  3  0  0  0  0  0  0
  184.0570  172.5300  136.4550 C   0  0  0  0  0  3  0  0  0  0  0  0
  185.3720  172.2300  136.8130 C   0  0  0  0  0  3  0  0  0  0  0  0
  187.4430  178.1670  137.1340 C   0  0  0  0  0  0  0  0  0  0  0  0
  188.7410  177.7300  137.6390 C   0  0  0  0  0  0  0  0  0  0  0  0
  183.3190  177.5440  138.6240 C   0  0  2  0  0  3  0  0  0  0  0  0
  182.7950  176.5670  136.4550 O   0  0  0  0  0  0  0  0  0  0  0  0
  190.3180  176.2390  138.2690 C   0  0  0  0  0  0  0  0  0  0  0  0
  181.0690  176.5500  138.0970 C   0  0  0  0  0  1  0  0  0  0  0  0
  183.6740  173.8570  136.2520 C   0  0  0  0  0  3  0  0  0  0  0  0
  184.1620  176.3300  136.1640 C   0  0  2  0  0  3  0  0  0  0  0  0
  184.5980  174.9000  136.4190 C   0  0  0  0  0  0  0  0  0  0  0  0
  186.9510  175.6840  136.8580 C   0  0  0  0  0  0  0  0  0  0  0  0
  190.3990  177.3560  139.1430 N   0  0  0  0  0  2  0  0  0  0  0  0
  182.5650  176.4530  137.8470 C   0  0  2  0  0  3  0  0  0  0  0  0
  189.3560  178.2230  138.7090 C   0  0  0  0  0  3  0  0  0  0  0  0
  186.3070  173.2560  136.9550 C   0  0  0  0  0  3  0  0  0  0  0  0
  185.9400  174.5980  136.7490 C   0  0  0  0  0  0  0  0  0  0  0  0
  188.2210  175.3880  137.2050 C   0  0  0  0  0  3  0  0  0  0  0  0
  184.8080  177.3970  138.3400 C   0  0  0  0  0  2  0  0  0  0  0  0
  187.0870  179.3740  137.2200 O   0  0  0  0  0  0  0  0  0  0  0  0
  191.0710  175.2350  138.3700 O   0  0  0  0  0  0  0  0  0  0  0  0
  186.5420  177.1210  136.5060 C   0  0  1  0  0  3  0  0  0  0  0  0
  189.3050  176.4280  137.2030 C   0  0  1  0  0  3  0  0  0  0  0  0
  183.0840  177.4030  140.1260 C   0  0  0  0  0  2  0  0  0  0  0  0
  181.6090  179.0030  141.7610 S   0  0  0  0  0  1  0  0  0  0  0  0
  183.1480  178.7520  140.8270 C   0  0  1  0  0  3  0  0  0  0  0  0
  184.3340  178.7940  141.7770 C   0  0  0  0  0  2  0  0  0  0  0  0
  183.8730  178.6270  143.2120 C   0  0  0  0  0  2  0  0  0  0  0  0
  184.8610  179.3050  144.1390 C   0  0  0  0  0  3  0  0  0  0  0  0
  184.5690  178.8900  145.5650 C   0  0  0  0  0  2  0  0  0  0  0  0
  185.7180  178.2530  144.8120 C   0  0  0  0  0  2  0  0  0  0  0  0
  1 20  1  1  0  0  0
  2  3  1  0  0  0  0
  3 17  2  0  0  0  0
  4 21  2  0  0  0  0
  4  5  1  0  0  0  0
  5 16  2  0  0  0  0
  6 25  1  1  0  0  0
  7 15  1  0  0  0  0
  8 22  2  0  0  0  0
  8 14  1  0  0  0  0
 10 12  1  0  0  0  0
 10  2  2  0  0  0  0
 11 12  1  1  0  0  0
 11  7  1  0  0  0  0
 11  1  1  0  0  0  0
 12 18  2  0  0  0  0
 13 19  2  0  0  0  0
 15  9  1  6  0  0  0
 15  6  1  0  0  0  0
 16 14  1  0  0  0  0
 18 13  1  0  0  0  0
 18 17  1  0  0  0  0
 20  6  1  0  0  0  0
 23  1  1  0  0  0  0
 23 13  1  1  0  0  0
 23  4  1  0  0  0  0
 24 19  1  1  0  0  0
 24  5  1  0  0  0  0
 24  8  1  0  0  0  0
 25 27  1  0  0  0  0
 27 26  1  1  0  0  0
 27 28  1  0  0  0  0
 28 29  1  0  0  0  0
 29 30  1  0  0  0  0
 30 32  1  0  0  0  0
 30 31  1  0  0  0  0
 32 31  1  0  0  0  0
M  END
>  <MODEL>
8

>  <REMARK>
 VINA RESULT:      -6.7      3.479      5.527
  Name = 
  5 active torsions:
  status: ('A' for Active; 'I' for Inactive)
    1  A    between atoms: C_1  and  C_10
    2  A    between atoms: C_8  and  C_23
    3  A    between atoms: C_10  and  C_24
    4  A    between atoms: C_19  and  C_23
    5  A    between atoms: C_19  and  C_24
                            x       y       z     vdW  Elec       q    Type
                         _______ _______ _______ _____ _____    ______ ____

>  <TORSDO>
F 5

$$$$
=
 OpenBabel10262421233D

 32 37  0  0  1  0  0  0  0  0999 V2000
  183.7280  178.9990  138.7800 C   0  0  1  0  0  3  0  0  0  0  0  0
  187.3120  178.1270  142.1060 C   0  0  0  0  0  3  0  0  0  0  0  0
  186.3460  177.9040  143.0870 C   0  0  0  0  0  3  0  0  0  0  0  0
  181.3290  179.2340  139.5240 C   0  0  0  0  0  0  0  0  0  0  0  0
  180.4150  178.8370  140.5900 C   0  0  0  0  0  0  0  0  0  0  0  0
  184.5770  177.0610  137.4400 C   0  0  2  0  0  3  0  0  0  0  0  0
  186.0750  178.8540  138.1270 O   0  0  0  0  0  0  0  0  0  0  0  0
  179.8320  178.1220  142.6540 C   0  0  0  0  0  0  0  0  0  0  0  0
  187.0460  177.0180  136.9600 C   0  0  0  0  0  1  0  0  0  0  0  0
  186.9300  178.5650  140.8370 C   0  0  0  0  0  3  0  0  0  0  0  0
  185.1940  179.2790  139.1530 C   0  0  2  0  0  3  0  0  0  0  0  0
  185.5770  178.7740  140.5310 C   0  0  0  0  0  0  0  0  0  0  0  0
  183.1650  178.8680  141.2490 C   0  0  0  0  0  0  0  0  0  0  0  0
  178.9310  177.5440  141.7210 N   0  0  0  0  0  2  0  0  0  0  0  0
  185.9740  177.4540  137.9460 C   0  0  2  0  0  3  0  0  0  0  0  0
  179.3860  178.0060  140.4530 C   0  0  0  0  0  3  0  0  0  0  0  0
  184.9980  178.1340  142.8040 C   0  0  0  0  0  3  0  0  0  0  0  0
  184.5970  178.5820  141.5330 C   0  0  0  0  0  0  0  0  0  0  0  0
  182.2340  178.6510  142.2010 C   0  0  0  0  0  3  0  0  0  0  0  0
  183.5470  177.5170  138.4650 C   0  0  0  0  0  2  0  0  0  0  0  0
  180.9200  179.3720  138.3380 O   0  0  0  0  0  0  0  0  0  0  0  0
  179.7660  177.9060  143.8930 O   0  0  0  0  0  0  0  0  0  0  0  0
  182.7800  179.4730  139.8920 C   0  0  1  0  0  3  0  0  0  0  0  0
  180.7970  179.0450  142.0100 C   0  0  1  0  0  3  0  0  0  0  0  0
  184.4680  175.5480  137.2660 C   0  0  0  0  0  2  0  0  0  0  0  0
  184.8410  173.6890  135.3140 S   0  0  0  0  0  1  0  0  0  0  0  0
  183.9720  175.1840  135.8740 C   0  0  1  0  0  3  0  0  0  0  0  0
  182.4740  174.9250  135.9010 C   0  0  0  0  0  2  0  0  0  0  0  0
  182.0580  174.3470  137.2400 C   0  0  0  0  0  2  0  0  0  0  0  0
  180.7560  174.9830  137.6780 C   0  0  0  0  0  3  0  0  0  0  0  0
  179.9380  173.9640  138.4420 C   0  0  0  0  0  2  0  0  0  0  0  0
  180.7070  175.0310  139.1920 C   0  0  0  0  0  2  0  0  0  0  0  0
  1 20  1  1  0  0  0
  1 11  1  0  0  0  0
  1 23  1  0  0  0  0
  2  3  1  0  0  0  0
  4  5  1  0  0  0  0
  5 24  1  0  0  0  0
  6 25  1  1  0  0  0
  6 15  1  0  0  0  0
  6 20  1  0  0  0  0
  8 22  2  0  0  0  0
 10  2  2  0  0  0  0
 11  7  1  6  0  0  0
 11 12  1  0  0  0  0
 12 10  1  0  0  0  0
 12 18  2  0  0  0  0
 13 18  1  0  0  0  0
 13 19  2  0  0  0  0
 14  8  1  0  0  0  0
 15  9  1  6  0  0  0
 15  7  1  0  0  0  0
 16  5  2  0  0  0  0
 16 14  1  0  0  0  0
 17  3  2  0  0  0  0
 18 17  1  0  0  0  0
 21  4  2  0  0  0  0
 23  4  1  6  0  0  0
 23 13  1  0  0  0  0
 24 19  1  6  0  0  0
 24  8  1  0  0  0  0
 27 26  1  1  0  0  0
 27 28  1  0  0  0  0
 27 25  1  0  0  0  0
 28 29  1  0  0  0  0
 29 30  1  0  0  0  0
 30 31  1  0  0  0  0
 30 32  1  0  0  0  0
 31 32  1  0  0  0  0
M  END
>  <MODEL>
9

>  <REMARK>
 VINA RESULT:      -6.5      5.908     10.149
  Name = 
  5 active torsions:
  status: ('A' for Active; 'I' for Inactive)
    1  A    between atoms: C_1  and  C_10
    2  A    between atoms: C_8  and  C_23
    3  A    between atoms: C_10  and  C_24
    4  A    between atoms: C_19  and  C_23
    5  A    between atoms: C_19  and  C_24
                            x       y       z     vdW  Elec       q    Type
                         _______ _______ _______ _____ _____    ______ ____

>  <TORSDO>
F 5

$$$$
