=
 OpenBabel10262421423D

 32 37  0  0  1  0  0  0  0  0999 V2000
  183.8790  179.1380  144.5060 C   0  0  2  0  0  3  0  0  0  0  0  0
  182.3500  179.3040  140.3570 C   0  0  1  0  0  3  0  0  0  0  0  0
  178.9690  177.4790  139.4760 C   0  0  0  0  0  2  0  0  0  0  0  0
  184.4670  179.2430  138.9220 C   0  0  1  0  0  3  0  0  0  0  0  0
  185.1500  178.5230  137.7980 C   0  0  0  0  0  0  0  0  0  0  0  0
  183.7060  177.6550  141.7760 C   0  0  0  0  0  2  0  0  0  0  0  0
  180.5000  178.5340  142.2360 S   0  0  0  0  0  0  0  0  0  0  0  0
  186.5940  177.8930  136.3650 C   0  0  0  0  0  0  0  0  0  0  0  0
  182.4610  178.7180  144.1450 C   0  0  0  0  0  2  0  0  0  0  0  0
  179.6320  178.3030  138.3830 C   0  0  0  0  0  2  0  0  0  0  0  0
  180.8650  178.9430  140.4980 C   0  0  2  0  0  3  0  0  0  0  0  0
  180.4430  177.8100  139.5600 C   0  0  0  0  0  0  0  0  0  0  0  0
  182.8510  177.2440  138.9050 C   0  0  1  0  0  3  0  0  0  0  0  0
  187.8290  177.8660  135.5380 C   0  0  0  0  0  1  0  0  0  0  0  0
  184.9210  178.2090  143.9330 C   0  0  0  0  0  3  0  0  0  0  0  0
  182.0620  179.2790  142.7800 C   0  0  1  0  0  3  0  0  0  0  0  0
  186.3540  178.8430  137.2930 N   0  0  0  0  0  2  0  0  0  0  0  0
  184.8660  177.6030  142.7330 C   0  0  0  0  0  3  0  0  0  0  0  0
  181.4340  176.7120  139.1710 C   0  0  1  0  0  3  0  0  0  0  0  0
  183.3340  176.7740  137.5290 C   0  0  0  0  0  2  0  0  0  0  0  0
  183.0940  179.0550  141.6750 C   0  0  2  0  0  3  0  0  0  0  0  0
  184.5050  180.6190  138.6950 O   0  0  0  0  0  1  0  0  0  0  0  0
  185.5740  176.9570  136.2710 C   0  0  0  0  0  3  0  0  0  0  0  0
  183.0040  178.7800  139.0630 C   0  0  1  0  0  3  0  0  0  0  0  0
  184.6680  177.3730  137.2210 C   0  0  0  0  0  0  0  0  0  0  0  0
  180.6900  174.6950  139.7030 C   0  0  0  0  0  1  0  0  0  0  0  0
  181.4840  175.7420  140.1760 O   0  0  0  0  0  0  0  0  0  0  0  0
  184.0170  179.1890  145.9510 N   0  0  0  0  0  2  0  0  0  0  0  0
  185.0380  178.2220  146.3170 C   0  0  0  0  0  2  0  0  0  0  0  0
  186.0520  178.8630  147.2030 C   0  0  0  0  0  0  0  0  0  0  0  0
  185.8680  179.9920  147.6300 O   0  0  0  0  0  0  0  0  0  0  0  0
  187.2820  178.1160  147.5840 C   0  0  0  0  0  1  0  0  0  0  0  0
  1 28  1  1  0  0  0
  2 11  1  0  0  0  0
  2 21  1  0  0  0  0
  3 12  1  0  0  0  0
  4 24  1  0  0  0  0
  5  4  1  0  0  0  0
  6 18  1  0  0  0  0
  7 16  1  0  0  0  0
  8 17  1  0  0  0  0
  9  1  1  0  0  0  0
 10  3  1  0  0  0  0
 10 12  1  0  0  0  0
 11  7  1  0  0  0  0
 12 11  1  0  0  0  0
 13 24  1  0  0  0  0
 13 19  1  0  0  0  0
 14  8  1  0  0  0  0
 15  1  1  0  0  0  0
 16  9  1  0  0  0  0
 17  5  1  0  0  0  0
 18 15  2  0  0  0  0
 19 12  1  0  0  0  0
 19 27  1  0  0  0  0
 20 13  1  0  0  0  0
 21  6  1  0  0  0  0
 21 16  1  0  0  0  0
 22  4  1  0  0  0  0
 23  8  2  0  0  0  0
 23 25  1  0  0  0  0
 24  2  1  0  0  0  0
 25 20  1  0  0  0  0
 25  5  2  0  0  0  0
 26 27  1  0  0  0  0
 28 29  1  0  0  0  0
 29 30  1  0  0  0  0
 30 32  1  0  0  0  0
 30 31  2  0  0  0  0
M  END
>  <MODEL>
1

>  <REMARK>
 VINA RESULT:      -6.5      0.000      0.000
  Name = 
  4 active torsions:
  status: ('A' for Active; 'I' for Inactive)
    1  A    between atoms: C_1  and  C_10
    2  A    between atoms: C_2  and  N_24
    3  A    between atoms: C_10  and  N_24
    4  A    between atoms: O_25  and  C_26
                            x       y       z     vdW  Elec       q    Type
                         _______ _______ _______ _____ _____    ______ ____

>  <TORSDO>
F 4

$$$$
=
 OpenBabel10262421423D

 32 37  0  0  1  0  0  0  0  0999 V2000
  189.2840  177.7900  143.4570 C   0  0  2  0  0  3  0  0  0  0  0  0
  190.5220  177.9450  139.2120 C   0  0  1  0  0  3  0  0  0  0  0  0
  187.7810  177.6490  136.3950 C   0  0  0  0  0  2  0  0  0  0  0  0
  192.7840  176.7490  139.1910 C   0  0  1  0  0  3  0  0  0  0  0  0
  193.5620  175.6370  138.5520 C   0  0  0  0  0  0  0  0  0  0  0  0
  189.9860  176.1180  140.9290 C   0  0  0  0  0  2  0  0  0  0  0  0
  187.8410  178.3580  139.6460 S   0  0  0  0  0  0  0  0  0  0  0  0
  195.0910  174.2280  138.0910 C   0  0  0  0  0  0  0  0  0  0  0  0
  188.2830  177.9730  142.3250 C   0  0  0  0  0  2  0  0  0  0  0  0
  189.2140  177.9220  135.9610 C   0  0  0  0  0  2  0  0  0  0  0  0
  189.2280  178.2890  138.4640 C   0  0  2  0  0  3  0  0  0  0  0  0
  188.9330  177.3190  137.3180 C   0  0  0  0  0  0  0  0  0  0  0  0
  190.7540  175.6710  138.0380 C   0  0  1  0  0  3  0  0  0  0  0  0
  196.4080  173.5390  138.0870 C   0  0  0  0  0  1  0  0  0  0  0  0
  189.9260  176.4240  143.4470 C   0  0  0  0  0  3  0  0  0  0  0  0
  188.9890  178.4290  141.0480 C   0  0  1  0  0  3  0  0  0  0  0  0
  194.8360  175.3210  138.8400 N   0  0  0  0  0  2  0  0  0  0  0  0
  190.2700  175.7210  142.3520 C   0  0  0  0  0  3  0  0  0  0  0  0
  189.3630  175.8530  137.4100 C   0  0  1  0  0  3  0  0  0  0  0  0
  191.6380  174.8280  137.1130 C   0  0  0  0  0  2  0  0  0  0  0  0
  190.2260  177.6100  140.6790 C   0  0  2  0  0  3  0  0  0  0  0  0
  193.5450  177.9180  139.1930 O   0  0  0  0  0  1  0  0  0  0  0  0
  193.9990  173.8240  137.3350 C   0  0  0  0  0  3  0  0  0  0  0  0
  191.4600  176.9930  138.4420 C   0  0  1  0  0  3  0  0  0  0  0  0
  193.0210  174.7350  137.6690 C   0  0  0  0  0  0  0  0  0  0  0  0
  187.8760  174.2220  137.2380 C   0  0  0  0  0  1  0  0  0  0  0  0
  188.4230  175.1290  138.1470 O   0  0  0  0  0  0  0  0  0  0  0  0
  188.6200  178.0030  144.7320 N   0  0  0  0  0  2  0  0  0  0  0  0
  187.2530  177.5320  144.5850 C   0  0  0  0  0  2  0  0  0  0  0  0
  186.4100  178.0690  145.6920 C   0  0  0  0  0  0  0  0  0  0  0  0
  186.7700  177.9490  146.8520 O   0  0  0  0  0  0  0  0  0  0  0  0
  185.1350  178.7710  145.3780 C   0  0  0  0  0  1  0  0  0  0  0  0
  1 28  1  1  0  0  0
  2 21  1  0  0  0  0
  3 12  1  0  0  0  0
  4 22  1  0  0  0  0
  5 17  1  0  0  0  0
  5  4  1  0  0  0  0
  6 18  1  0  0  0  0
  7 16  1  0  0  0  0
  8 17  1  0  0  0  0
  9  1  1  0  0  0  0
 10  3  1  0  0  0  0
 10 12  1  0  0  0  0
 11  2  1  0  0  0  0
 11  7  1  0  0  0  0
 12 19  1  0  0  0  0
 12 11  1  0  0  0  0
 13 24  1  0  0  0  0
 14  8  1  0  0  0  0
 15  1  1  0  0  0  0
 16  9  1  0  0  0  0
 18 15  2  0  0  0  0
 19 13  1  0  0  0  0
 19 27  1  0  0  0  0
 20 25  1  0  0  0  0
 20 13  1  0  0  0  0
 21  6  1  0  0  0  0
 21 16  1  0  0  0  0
 23 25  1  0  0  0  0
 23  8  2  0  0  0  0
 24  4  1  0  0  0  0
 24  2  1  0  0  0  0
 25  5  2  0  0  0  0
 26 27  1  0  0  0  0
 29 28  1  0  0  0  0
 29 30  1  0  0  0  0
 30 31  2  0  0  0  0
 32 30  1  0  0  0  0
M  END
>  <MODEL>
2

>  <REMARK>
 VINA RESULT:      -6.1      5.546      7.637
  Name = 
  4 active torsions:
  status: ('A' for Active; 'I' for Inactive)
    1  A    between atoms: C_1  and  C_10
    2  A    between atoms: C_2  and  N_24
    3  A    between atoms: C_10  and  N_24
    4  A    between atoms: O_25  and  C_26
                            x       y       z     vdW  Elec       q    Type
                         _______ _______ _______ _____ _____    ______ ____

>  <TORSDO>
F 4

$$$$
=
 OpenBabel10262421423D

 32 37  0  0  1  0  0  0  0  0999 V2000
  183.6170  178.3460  141.7050 C   0  0  2  0  0  3  0  0  0  0  0  0
  180.4190  178.4350  138.6480 C   0  0  1  0  0  3  0  0  0  0  0  0
  179.9350  175.3230  136.2770 C   0  0  0  0  0  2  0  0  0  0  0  0
  180.3630  180.8780  137.8920 C   0  0  1  0  0  3  0  0  0  0  0  0
  180.4370  181.7800  136.6960 C   0  0  0  0  0  0  0  0  0  0  0  0
  182.9390  178.8970  138.7180 C   0  0  0  0  0  2  0  0  0  0  0  0
  181.4290  175.9370  139.1870 S   0  0  0  0  0  0  0  0  0  0  0  0
  180.5370  183.5060  135.4530 C   0  0  0  0  0  0  0  0  0  0  0  0
  183.1760  177.0980  140.9540 C   0  0  0  0  0  2  0  0  0  0  0  0
  178.9320  176.4610  136.1630 C   0  0  0  0  0  2  0  0  0  0  0  0
  180.2160  176.9580  138.2850 C   0  0  2  0  0  3  0  0  0  0  0  0
  180.2910  176.7060  136.7780 C   0  0  0  0  0  0  0  0  0  0  0  0
  181.1710  179.0550  136.2710 C   0  0  1  0  0  3  0  0  0  0  0  0
  180.5040  184.9290  135.0240 C   0  0  0  0  0  1  0  0  0  0  0  0
  184.3050  179.3480  140.8090 C   0  0  0  0  0  3  0  0  0  0  0  0
  181.8040  177.3090  140.3120 C   0  0  1  0  0  3  0  0  0  0  0  0
  180.3440  183.1200  136.7310 N   0  0  0  0  0  2  0  0  0  0  0  0
  183.9820  179.6170  139.5310 C   0  0  0  0  0  3  0  0  0  0  0  0
  181.1910  177.5660  135.8890 C   0  0  1  0  0  3  0  0  0  0  0  0
  180.8430  179.9040  135.0390 C   0  0  0  0  0  2  0  0  0  0  0  0
  181.6670  178.6100  139.5220 C   0  0  2  0  0  3  0  0  0  0  0  0
  179.2690  181.2300  138.6830 O   0  0  0  0  0  1  0  0  0  0  0  0
  180.7670  182.4400  134.5940 C   0  0  0  0  0  3  0  0  0  0  0  0
  180.2400  179.4040  137.4620 C   0  0  1  0  0  3  0  0  0  0  0  0
  180.7200  181.3430  135.4250 C   0  0  0  0  0  0  0  0  0  0  0  0
  182.8690  176.8940  134.6100 C   0  0  0  0  0  1  0  0  0  0  0  0
  182.5040  177.0900  135.9430 O   0  0  0  0  0  0  0  0  0  0  0  0
  184.5100  177.9720  142.7880 N   0  0  0  0  0  2  0  0  0  0  0  0
  184.6220  179.1250  143.6660 C   0  0  0  0  0  2  0  0  0  0  0  0
  185.1170  178.6960  145.0060 C   0  0  0  0  0  0  0  0  0  0  0  0
  184.4750  178.9570  146.0100 O   0  0  0  0  0  0  0  0  0  0  0  0
  186.3890  177.9300  145.1150 C   0  0  0  0  0  1  0  0  0  0  0  0
  1 28  1  1  0  0  0
  2 21  1  0  0  0  0
  3 12  1  0  0  0  0
  4 22  1  0  0  0  0
  5 17  1  0  0  0  0
  5  4  1  0  0  0  0
  6 21  1  0  0  0  0
  6 18  1  0  0  0  0
  7 16  1  0  0  0  0
  8 17  1  0  0  0  0
  9  1  1  0  0  0  0
 10  3  1  0  0  0  0
 10 12  1  0  0  0  0
 11  2  1  0  0  0  0
 11  7  1  0  0  0  0
 12 11  1  0  0  0  0
 13 24  1  0  0  0  0
 14  8  1  0  0  0  0
 15  1  1  0  0  0  0
 16  9  1  0  0  0  0
 18 15  2  0  0  0  0
 19 27  1  0  0  0  0
 19 13  1  0  0  0  0
 19 12  1  0  0  0  0
 20 25  1  0  0  0  0
 20 13  1  0  0  0  0
 21 16  1  0  0  0  0
 23 25  1  0  0  0  0
 23  8  2  0  0  0  0
 24  4  1  0  0  0  0
 24  2  1  0  0  0  0
 25  5  2  0  0  0  0
 26 27  1  0  0  0  0
 28 29  1  0  0  0  0
 29 30  1  0  0  0  0
 30 32  1  0  0  0  0
 30 31  2  0  0  0  0
M  END
>  <MODEL>
3

>  <REMARK>
 VINA RESULT:      -5.7      3.494      4.664
  Name = 
  4 active torsions:
  status: ('A' for Active; 'I' for Inactive)
    1  A    between atoms: C_1  and  C_10
    2  A    between atoms: C_2  and  N_24
    3  A    between atoms: C_10  and  N_24
    4  A    between atoms: O_25  and  C_26
                            x       y       z     vdW  Elec       q    Type
                         _______ _______ _______ _____ _____    ______ ____

>  <TORSDO>
F 4

$$$$
=
 OpenBabel10262421423D

 32 37  0  0  1  0  0  0  0  0999 V2000
  179.9890  182.0440  136.2540 C   0  0  2  0  0  3  0  0  0  0  0  0
  182.3800  178.4450  137.2080 C   0  0  1  0  0  3  0  0  0  0  0  0
  180.7270  174.8840  136.8460 C   0  0  0  0  0  2  0  0  0  0  0  0
  183.8490  179.1880  139.1660 C   0  0  1  0  0  3  0  0  0  0  0  0
  184.2550  178.8570  140.5710 C   0  0  0  0  0  0  0  0  0  0  0  0
  180.6610  179.9120  138.4190 C   0  0  0  0  0  2  0  0  0  0  0  0
  180.1050  177.9620  135.7440 S   0  0  0  0  0  0  0  0  0  0  0  0
  185.1360  178.9460  142.5090 C   0  0  0  0  0  0  0  0  0  0  0  0
  179.5360  180.6430  135.8710 C   0  0  0  0  0  2  0  0  0  0  0  0
  182.2030  174.9440  137.2070 C   0  0  0  0  0  2  0  0  0  0  0  0
  181.6240  177.3060  136.5100 C   0  0  2  0  0  3  0  0  0  0  0  0
  181.3130  176.1410  137.4510 C   0  0  0  0  0  0  0  0  0  0  0  0
  181.9980  177.4440  139.5440 C   0  0  1  0  0  3  0  0  0  0  0  0
  185.9920  179.3870  143.6410 C   0  0  0  0  0  1  0  0  0  0  0  0
  179.9880  182.2650  137.7470 C   0  0  0  0  0  3  0  0  0  0  0  0
  180.7100  179.6640  135.9120 C   0  0  1  0  0  3  0  0  0  0  0  0
  185.1410  179.5540  141.3040 N   0  0  0  0  0  0  0  0  0  0  0  0
  180.3230  181.3550  138.6810 C   0  0  0  0  0  3  0  0  0  0  0  0
  181.0580  176.3900  138.9390 C   0  0  1  0  0  3  0  0  0  0  0  0
  182.6900  176.8750  140.7860 C   0  0  0  0  0  2  0  0  0  0  0  0
  181.5520  179.7360  137.1850 C   0  0  2  0  0  3  0  0  0  0  0  0
  184.9830  179.4250  138.3890 O   0  0  0  0  0  1  0  0  0  0  0  0
  184.2520  177.8780  142.5720 C   0  0  0  0  0  3  0  0  0  0  0  0
  183.0280  178.0400  138.5480 C   0  0  1  0  0  3  0  0  0  0  0  0
  183.6820  177.8580  141.3180 C   0  0  1  0  0  3  0  0  0  0  0  0
  179.2270  175.8920  140.0800 C   0  0  0  0  0  1  0  0  0  0  0  0
  179.7320  176.7840  139.1330 O   0  0  0  0  0  0  0  0  0  0  0  0
  179.1260  183.0250  135.6190 N   0  0  0  0  0  2  0  0  0  0  0  0
  179.9860  184.0720  135.0930 C   0  0  0  0  0  2  0  0  0  0  0  0
  180.3780  185.0060  136.1880 C   0  0  0  0  0  0  0  0  0  0  0  0
  181.5550  185.1650  136.4680 O   0  0  0  0  0  0  0  0  0  0  0  0
  179.3290  185.7620  136.9270 C   0  0  0  0  0  1  0  0  0  0  0  0
  1 28  1  6  0  0  0
  1 15  1  0  0  0  0
  2 24  1  0  0  0  0
  3 10  1  0  0  0  0
  3 12  1  0  0  0  0
  4  5  1  0  0  0  0
  5 17  2  0  0  0  0
  5 25  1  0  0  0  0
  6 18  1  0  0  0  0
  7 16  1  0  0  0  0
  7 11  1  0  0  0  0
  8 23  2  0  0  0  0
  8 14  1  0  0  0  0
  9 16  1  0  0  0  0
  9  1  1  0  0  0  0
 10 12  1  0  0  0  0
 11  2  1  0  0  0  0
 11 12  1  0  0  0  0
 12 19  1  0  0  0  0
 13 20  1  0  0  0  0
 15 18  2  0  0  0  0
 16 21  1  0  0  0  0
 17  8  1  0  0  0  0
 19 27  1  0  0  0  0
 19 13  1  0  0  0  0
 20 25  1  0  0  0  0
 21  2  1  0  0  0  0
 21  6  1  0  0  0  0
 22  4  1  0  0  0  0
 24  4  1  0  0  0  0
 24 13  1  0  0  0  0
 25 23  1  0  0  0  0
 27 26  1  0  0  0  0
 29 28  1  0  0  0  0
 29 30  1  0  0  0  0
 30 31  2  0  0  0  0
 30 32  1  0  0  0  0
M  END
>  <MODEL>
4

>  <REMARK>
 VINA RESULT:      -5.0      3.719      7.220
  Name = 
  4 active torsions:
  status: ('A' for Active; 'I' for Inactive)
    1  A    between atoms: C_1  and  C_10
    2  A    between atoms: C_2  and  N_24
    3  A    between atoms: C_10  and  N_24
    4  A    between atoms: O_25  and  C_26
                            x       y       z     vdW  Elec       q    Type
                         _______ _______ _______ _____ _____    ______ ____

>  <TORSDO>
F 4

$$$$
=
 OpenBabel10262421423D

 32 37  0  0  1  0  0  0  0  0999 V2000
  182.8430  175.3210  135.5430 C   0  0  2  0  0  3  0  0  0  0  0  0
  185.7060  178.3120  137.1040 C   0  0  1  0  0  3  0  0  0  0  0  0
  189.4760  178.1460  135.9650 C   0  0  0  0  0  2  0  0  0  0  0  0
  184.9140  178.7240  139.5010 C   0  0  1  0  0  3  0  0  0  0  0  0
  185.3470  178.7320  140.9370 C   0  0  0  0  0  0  0  0  0  0  0  0
  185.0250  175.9090  137.6820 C   0  0  0  0  0  2  0  0  0  0  0  0
  186.5680  176.9400  134.8850 S   0  0  0  0  0  0  0  0  0  0  0  0
  185.3380  178.8450  143.0640 C   0  0  0  0  0  0  0  0  0  0  0  0
  184.2290  175.5090  134.9440 C   0  0  0  0  0  2  0  0  0  0  0  0
  189.0540  179.3140  136.8440 C   0  0  0  0  0  2  0  0  0  0  0  0
  186.8780  178.2500  136.1150 C   0  0  2  0  0  3  0  0  0  0  0  0
  188.2260  178.0500  136.8110 C   0  0  0  0  0  0  0  0  0  0  0  0
  187.1550  177.5380  139.0790 C   0  0  1  0  0  3  0  0  0  0  0  0
  184.8680  179.0850  144.4530 C   0  0  0  0  0  1  0  0  0  0  0  0
  182.8890  174.7570  136.9420 C   0  0  0  0  0  3  0  0  0  0  0  0
  184.8190  176.8580  135.3570 C   0  0  1  0  0  3  0  0  0  0  0  0
  184.5590  179.0440  141.9800 N   0  0  0  0  0  2  0  0  0  0  0  0
  183.8080  175.0470  137.8810 C   0  0  0  0  0  3  0  0  0  0  0  0
  188.3180  177.2540  138.1140 C   0  0  1  0  0  3  0  0  0  0  0  0
  187.7040  177.9310  140.4540 C   0  0  0  0  0  2  0  0  0  0  0  0
  184.7250  177.1610  136.8510 C   0  0  2  0  0  3  0  0  0  0  0  0
  184.2300  179.9040  139.2070 O   0  0  0  0  0  1  0  0  0  0  0  0
  186.6110  178.3960  142.7400 C   0  0  0  0  0  3  0  0  0  0  0  0
  186.1270  178.5800  138.5630 C   0  0  1  0  0  3  0  0  0  0  0  0
  186.5810  178.3090  141.3660 C   0  0  0  0  0  0  0  0  0  0  0  0
  189.7050  175.5330  137.9800 C   0  0  0  0  0  1  0  0  0  0  0  0
  188.3620  175.8860  137.8320 O   0  0  0  0  0  0  0  0  0  0  0  0
  182.0600  174.4420  134.6920 N   0  0  0  0  0  2  0  0  0  0  0  0
  181.5010  173.4070  135.5470 C   0  0  0  0  0  2  0  0  0  0  0  0
  181.7290  172.0660  134.9350 C   0  0  0  0  0  0  0  0  0  0  0  0
  180.7800  171.3770  134.5960 O   0  0  0  0  0  0  0  0  0  0  0  0
  183.1180  171.5760  134.7200 C   0  0  0  0  0  1  0  0  0  0  0  0
  1 28  1  6  0  0  0
  1 15  1  0  0  0  0
  2 24  1  0  0  0  0
  3 12  1  0  0  0  0
  3 10  1  0  0  0  0
  4  5  1  0  0  0  0
  5 25  2  0  0  0  0
  5 17  1  0  0  0  0
  6 18  1  0  0  0  0
  7 16  1  0  0  0  0
  7 11  1  0  0  0  0
  8 14  1  0  0  0  0
  9 16  1  0  0  0  0
  9  1  1  0  0  0  0
 11 12  1  0  0  0  0
 11  2  1  0  0  0  0
 12 10  1  0  0  0  0
 12 19  1  0  0  0  0
 13 20  1  0  0  0  0
 15 18  2  0  0  0  0
 16 21  1  0  0  0  0
 17  8  1  0  0  0  0
 19 13  1  0  0  0  0
 20 25  1  0  0  0  0
 21  2  1  0  0  0  0
 21  6  1  0  0  0  0
 22  4  1  0  0  0  0
 23  8  2  0  0  0  0
 24 13  1  0  0  0  0
 24  4  1  0  0  0  0
 25 23  1  0  0  0  0
 27 26  1  0  0  0  0
 27 19  1  0  0  0  0
 28 29  1  0  0  0  0
 30 29  1  0  0  0  0
 31 30  2  0  0  0  0
 32 30  1  0  0  0  0
M  END
>  <MODEL>
5

>  <REMARK>
 VINA RESULT:      -4.8      3.693      8.599
  Name = 
  4 active torsions:
  status: ('A' for Active; 'I' for Inactive)
    1  A    between atoms: C_1  and  C_10
    2  A    between atoms: C_2  and  N_24
    3  A    between atoms: C_10  and  N_24
    4  A    between atoms: O_25  and  C_26
                            x       y       z     vdW  Elec       q    Type
                         _______ _______ _______ _____ _____    ______ ____

>  <TORSDO>
F 4

$$$$
=
 OpenBabel10262421423D

 32 37  0  0  1  0  0  0  0  0999 V2000
  186.1100  177.2670  137.6280 C   0  0  2  0  0  3  0  0  0  0  0  0
  181.6860  177.1690  137.5860 C   0  0  1  0  0  3  0  0  0  0  0  0
  179.7500  178.8650  134.6000 C   0  0  0  0  0  2  0  0  0  0  0  0
  181.0460  177.3740  140.0540 C   0  0  1  0  0  3  0  0  0  0  0  0
  180.2280  178.1620  141.0340 C   0  0  0  0  0  0  0  0  0  0  0  0
  183.5040  178.8300  138.2980 C   0  0  0  0  0  2  0  0  0  0  0  0
  182.8470  177.7900  135.1750 S   0  0  0  0  0  0  0  0  0  0  0  0
  179.3730  178.9040  142.8380 C   0  0  0  0  0  0  0  0  0  0  0  0
  185.3000  177.6330  136.3920 C   0  0  0  0  0  2  0  0  0  0  0  0
  178.9310  178.1090  135.6340 C   0  0  0  0  0  2  0  0  0  0  0  0
  181.3250  177.4560  136.1220 C   0  0  2  0  0  3  0  0  0  0  0  0
  180.3190  178.5990  135.9770 C   0  0  0  0  0  0  0  0  0  0  0  0
  180.5190  179.2960  138.4310 C   0  0  1  0  0  3  0  0  0  0  0  0
  179.0090  179.0150  144.2740 C   0  0  0  0  0  1  0  0  0  0  0  0
  185.9350  178.2610  138.7500 C   0  0  0  0  0  3  0  0  0  0  0  0
  183.8710  177.1000  136.5030 C   0  0  1  0  0  3  0  0  0  0  0  0
  180.1520  177.9140  142.3520 N   0  0  0  0  0  2  0  0  0  0  0  0
  184.7960  178.9030  139.0670 C   0  0  0  0  0  3  0  0  0  0  0  0
  180.3030  179.7540  136.9800 C   0  0  1  0  0  3  0  0  0  0  0  0
  179.3930  179.8340  139.3200 C   0  0  0  0  0  2  0  0  0  0  0  0
  183.1810  177.4070  137.8310 C   0  0  2  0  0  3  0  0  0  0  0  0
  180.8230  176.0100  140.2410 O   0  0  0  0  0  1  0  0  0  0  0  0
  178.9570  179.7950  141.8590 C   0  0  0  0  0  3  0  0  0  0  0  0
  180.6950  177.7650  138.6060 C   0  0  1  0  0  3  0  0  0  0  0  0
  179.5410  179.3060  140.7110 C   0  0  0  0  0  0  0  0  0  0  0  0
  180.5700  181.8410  136.2880 C   0  0  0  0  0  1  0  0  0  0  0  0
  181.2810  180.6920  136.6380 O   0  0  0  0  0  0  0  0  0  0  0  0
  187.5160  177.1740  137.2780 N   0  0  0  0  0  2  0  0  0  0  0  0
  188.2380  176.8480  138.4970 C   0  0  0  0  0  2  0  0  0  0  0  0
  189.4580  177.6990  138.6070 C   0  0  0  0  0  0  0  0  0  0  0  0
  189.4080  178.8840  138.3210 O   0  0  0  0  0  0  0  0  0  0  0  0
  190.7360  177.1030  139.0860 C   0  0  0  0  0  1  0  0  0  0  0  0
  1 28  1  6  0  0  0
  1 15  1  0  0  0  0
  2 21  1  0  0  0  0
  2 24  1  0  0  0  0
  3 10  1  0  0  0  0
  3 12  1  0  0  0  0
  4 22  1  0  0  0  0
  4  5  1  0  0  0  0
  5 17  1  0  0  0  0
  6 18  1  0  0  0  0
  7 11  1  0  0  0  0
  7 16  1  0  0  0  0
  8 14  1  0  0  0  0
  9 16  1  0  0  0  0
  9  1  1  0  0  0  0
 10 12  1  0  0  0  0
 11  2  1  0  0  0  0
 12 11  1  0  0  0  0
 12 19  1  0  0  0  0
 13 24  1  0  0  0  0
 13 20  1  0  0  0  0
 15 18  2  0  0  0  0
 16 21  1  0  0  0  0
 17  8  1  0  0  0  0
 19 13  1  0  0  0  0
 20 25  1  0  0  0  0
 21  6  1  0  0  0  0
 23  8  2  0  0  0  0
 24  4  1  0  0  0  0
 25  5  2  0  0  0  0
 25 23  1  0  0  0  0
 26 27  1  0  0  0  0
 27 19  1  0  0  0  0
 28 29  1  0  0  0  0
 29 30  1  0  0  0  0
 30 32  1  0  0  0  0
 31 30  2  0  0  0  0
M  END
>  <MODEL>
6

>  <REMARK>
 VINA RESULT:      -4.8      4.019      6.871
  Name = 
  4 active torsions:
  status: ('A' for Active; 'I' for Inactive)
    1  A    between atoms: C_1  and  C_10
    2  A    between atoms: C_2  and  N_24
    3  A    between atoms: C_10  and  N_24
    4  A    between atoms: O_25  and  C_26
                            x       y       z     vdW  Elec       q    Type
                         _______ _______ _______ _____ _____    ______ ____

>  <TORSDO>
F 4

$$$$
=
 OpenBabel10262421423D

 32 37  0  0  1  0  0  0  0  0999 V2000
  187.4000  176.0010  136.5120 C   0  0  2  0  0  3  0  0  0  0  0  0
  183.4160  176.3110  138.4120 C   0  0  1  0  0  3  0  0  0  0  0  0
  180.7060  173.5470  137.6660 C   0  0  0  0  0  2  0  0  0  0  0  0
  182.9640  178.8280  138.4780 C   0  0  1  0  0  3  0  0  0  0  0  0
  181.9830  179.8950  138.0910 C   0  0  0  0  0  0  0  0  0  0  0  0
  184.4520  176.9280  136.1500 C   0  0  0  0  0  2  0  0  0  0  0  0
  184.0090  173.8360  137.3780 S   0  0  0  0  0  0  0  0  0  0  0  0
  181.0600  181.7850  137.7580 C   0  0  0  0  0  0  0  0  0  0  0  0
  186.4080  174.8470  136.5130 C   0  0  0  0  0  2  0  0  0  0  0  0
  180.3590  174.6180  138.6890 C   0  0  0  0  0  2  0  0  0  0  0  0
  182.8440  174.8910  138.3020 C   0  0  2  0  0  3  0  0  0  0  0  0
  181.4510  174.8640  137.6720 C   0  0  0  0  0  0  0  0  0  0  0  0
  181.5600  177.3150  136.9450 C   0  0  1  0  0  3  0  0  0  0  0  0
  180.8080  183.2490  137.8000 C   0  0  0  0  0  1  0  0  0  0  0  0
  186.9330  177.1650  135.6730 C   0  0  0  0  0  3  0  0  0  0  0  0
  185.3360  175.0550  137.5840 C   0  0  1  0  0  3  0  0  0  0  0  0
  182.1300  181.2070  138.3440 N   0  0  0  0  0  2  0  0  0  0  0  0
  185.6630  177.5930  135.5520 C   0  0  0  0  0  3  0  0  0  0  0  0
  181.0520  175.9020  136.6210 C   0  0  1  0  0  3  0  0  0  0  0  0
  180.3950  178.3090  136.9130 C   0  0  0  0  0  2  0  0  0  0  0  0
  184.6980  176.4430  137.5820 C   0  0  2  0  0  3  0  0  0  0  0  0
  183.3340  178.9880  139.8140 O   0  0  0  0  0  1  0  0  0  0  0  0
  180.2340  180.8720  137.1180 C   0  0  0  0  0  3  0  0  0  0  0  0
  182.3600  177.4260  138.2710 C   0  0  1  0  0  3  0  0  0  0  0  0
  180.8650  179.6650  137.3290 C   0  0  0  0  0  0  0  0  0  0  0  0
  180.3840  175.3140  134.5940 C   0  0  0  0  0  1  0  0  0  0  0  0
  181.5290  175.5130  135.3670 O   0  0  0  0  0  0  0  0  0  0  0  0
  188.6860  175.5360  136.0230 N   0  0  0  0  0  2  0  0  0  0  0  0
  189.6870  176.4820  136.4890 C   0  0  0  0  0  2  0  0  0  0  0  0
  190.0710  176.1620  137.8950 C   0  0  0  0  0  0  0  0  0  0  0  0
  190.5800  175.0850  138.1630 O   0  0  0  0  0  0  0  0  0  0  0  0
  189.8520  177.1690  138.9690 C   0  0  0  0  0  1  0  0  0  0  0  0
  1 28  1  6  0  0  0
  1  9  1  0  0  0  0
  3 12  1  0  0  0  0
  3 10  1  0  0  0  0
  4 22  1  0  0  0  0
  5 17  1  0  0  0  0
  5  4  1  0  0  0  0
  6 21  1  0  0  0  0
  7 16  1  0  0  0  0
  7 11  1  0  0  0  0
  8 14  1  0  0  0  0
  8 17  1  0  0  0  0
  9 16  1  0  0  0  0
 11  2  1  0  0  0  0
 12 11  1  0  0  0  0
 12 10  1  0  0  0  0
 13 24  1  0  0  0  0
 15  1  1  0  0  0  0
 18 15  2  0  0  0  0
 18  6  1  0  0  0  0
 19 13  1  0  0  0  0
 19 12  1  0  0  0  0
 20 13  1  0  0  0  0
 20 25  1  0  0  0  0
 21 16  1  0  0  0  0
 21  2  1  0  0  0  0
 23 25  1  0  0  0  0
 23  8  2  0  0  0  0
 24  2  1  0  0  0  0
 24  4  1  0  0  0  0
 25  5  2  0  0  0  0
 26 27  1  0  0  0  0
 27 19  1  0  0  0  0
 28 29  1  0  0  0  0
 29 30  1  0  0  0  0
 30 31  2  0  0  0  0
 30 32  1  0  0  0  0
M  END
>  <MODEL>
7

>  <REMARK>
 VINA RESULT:      -4.7      4.601      6.756
  Name = 
  4 active torsions:
  status: ('A' for Active; 'I' for Inactive)
    1  A    between atoms: C_1  and  C_10
    2  A    between atoms: C_2  and  N_24
    3  A    between atoms: C_10  and  N_24
    4  A    between atoms: O_25  and  C_26
                            x       y       z     vdW  Elec       q    Type
                         _______ _______ _______ _____ _____    ______ ____

>  <TORSDO>
F 4

$$$$
=
 OpenBabel10262421423D

 32 37  0  0  1  0  0  0  0  0999 V2000
  189.4520  177.5430  141.4240 C   0  0  2  0  0  3  0  0  0  0  0  0
  189.2420  175.1750  137.6920 C   0  0  1  0  0  3  0  0  0  0  0  0
  191.7660  175.9620  134.7680 C   0  0  0  0  0  2  0  0  0  0  0  0
  186.7410  174.7280  137.3920 C   0  0  1  0  0  3  0  0  0  0  0  0
  185.5920  174.8560  136.4360 C   0  0  0  0  0  0  0  0  0  0  0  0
  188.3640  177.4400  138.5100 C   0  0  0  0  0  2  0  0  0  0  0  0
  191.5750  176.5860  138.0310 S   0  0  0  0  0  0  0  0  0  0  0  0
  183.6380  174.8300  135.5890 C   0  0  0  0  0  0  0  0  0  0  0  0
  190.5540  177.5800  140.3750 C   0  0  0  0  0  2  0  0  0  0  0  0
  190.8300  174.7740  134.5940 C   0  0  0  0  0  2  0  0  0  0  0  0
  190.6090  175.4040  137.0340 C   0  0  2  0  0  3  0  0  0  0  0  0
  190.4930  175.8680  135.5810 C   0  0  0  0  0  0  0  0  0  0  0  0
  187.9720  176.2740  135.7480 C   0  0  1  0  0  3  0  0  0  0  0  0
  182.1850  174.5670  135.4250 C   0  0  0  0  0  1  0  0  0  0  0  0
  188.1660  178.1630  140.9340 C   0  0  0  0  0  3  0  0  0  0  0  0
  190.4510  176.3750  139.4390 C   0  0  1  0  0  3  0  0  0  0  0  0
  184.3350  174.4510  136.6820 N   0  0  0  0  0  2  0  0  0  0  0  0
  187.6740  178.0800  139.6850 C   0  0  0  0  0  3  0  0  0  0  0  0
  189.3050  176.7210  135.1290 C   0  0  1  0  0  3  0  0  0  0  0  0
  186.9360  176.0420  134.6430 C   0  0  0  0  0  2  0  0  0  0  0  0
  189.0500  176.1220  138.8830 C   0  0  2  0  0  3  0  0  0  0  0  0
  186.7810  173.4330  137.9120 O   0  0  0  0  0  1  0  0  0  0  0  0
  184.4210  175.4850  134.6490 C   0  0  0  0  0  3  0  0  0  0  0  0
  188.0760  175.0460  136.6910 C   0  0  1  0  0  3  0  0  0  0  0  0
  185.6700  175.5080  135.2300 C   0  0  0  0  0  0  0  0  0  0  0  0
  188.2870  178.5670  135.8040 C   0  0  0  0  0  1  0  0  0  0  0  0
  189.5380  178.0620  135.4450 O   0  0  0  0  0  0  0  0  0  0  0  0
  189.8970  178.2330  142.6220 N   0  0  0  0  0  2  0  0  0  0  0  0
  191.2590  177.7970  142.8840 C   0  0  0  0  0  2  0  0  0  0  0  0
  191.2680  176.8010  143.9940 C   0  0  0  0  0  0  0  0  0  0  0  0
  191.6690  175.6650  143.7960 O   0  0  0  0  0  0  0  0  0  0  0  0
  190.8050  177.2000  145.3510 C   0  0  0  0  0  1  0  0  0  0  0  0
  1 28  1  1  0  0  0
  2 21  1  0  0  0  0
  3 12  1  0  0  0  0
  4 22  1  0  0  0  0
  5 17  1  0  0  0  0
  5  4  1  0  0  0  0
  6 21  1  0  0  0  0
  6 18  1  0  0  0  0
  7 16  1  0  0  0  0
  8 17  1  0  0  0  0
  9  1  1  0  0  0  0
 10  3  1  0  0  0  0
 10 12  1  0  0  0  0
 11  2  1  0  0  0  0
 11  7  1  0  0  0  0
 12 11  1  0  0  0  0
 13 24  1  0  0  0  0
 14  8  1  0  0  0  0
 15  1  1  0  0  0  0
 16  9  1  0  0  0  0
 18 15  2  0  0  0  0
 19 27  1  0  0  0  0
 19 12  1  0  0  0  0
 19 13  1  0  0  0  0
 20 25  1  0  0  0  0
 20 13  1  0  0  0  0
 21 16  1  0  0  0  0
 23 25  1  0  0  0  0
 23  8  2  0  0  0  0
 24  4  1  0  0  0  0
 24  2  1  0  0  0  0
 25  5  2  0  0  0  0
 27 26  1  0  0  0  0
 28 29  1  0  0  0  0
 29 30  1  0  0  0  0
 30 32  1  0  0  0  0
 31 30  2  0  0  0  0
M  END
>  <MODEL>
8

>  <REMARK>
 VINA RESULT:      -4.6      5.418      7.745
  Name = 
  4 active torsions:
  status: ('A' for Active; 'I' for Inactive)
    1  A    between atoms: C_1  and  C_10
    2  A    between atoms: C_2  and  N_24
    3  A    between atoms: C_10  and  N_24
    4  A    between atoms: O_25  and  C_26
                            x       y       z     vdW  Elec       q    Type
                         _______ _______ _______ _____ _____    ______ ____

>  <TORSDO>
F 4

$$$$
=
 OpenBabel10262421423D

 32 37  0  0  1  0  0  0  0  0999 V2000
  187.6700  176.5150  137.2800 C   0  0  2  0  0  3  0  0  0  0  0  0
  183.4180  175.3730  137.7190 C   0  0  1  0  0  3  0  0  0  0  0  0
  181.4690  173.9670  134.5940 C   0  0  0  0  0  2  0  0  0  0  0  0
  182.4920  177.0880  139.3750 C   0  0  1  0  0  3  0  0  0  0  0  0
  181.4150  178.1100  139.5880 C   0  0  0  0  0  0  0  0  0  0  0  0
  184.7180  177.4200  136.8910 C   0  0  0  0  0  2  0  0  0  0  0  0
  184.6520  174.3780  135.4750 S   0  0  0  0  0  0  0  0  0  0  0  0
  180.2270  179.6710  140.4180 C   0  0  0  0  0  0  0  0  0  0  0  0
  186.9330  175.7050  136.2230 C   0  0  0  0  0  2  0  0  0  0  0  0
  180.7410  173.9870  135.9300 C   0  0  0  0  0  2  0  0  0  0  0  0
  183.1570  174.4560  136.5160 C   0  0  2  0  0  3  0  0  0  0  0  0
  181.9360  174.8860  135.7020 C   0  0  0  0  0  0  0  0  0  0  0  0
  181.7100  177.1210  136.9270 C   0  0  1  0  0  3  0  0  0  0  0  0
  179.6980  180.6660  141.3870 C   0  0  0  0  0  1  0  0  0  0  0  0
  187.1540  177.9290  137.3900 C   0  0  0  0  0  3  0  0  0  0  0  0
  185.6620  175.0860  136.8050 C   0  0  1  0  0  3  0  0  0  0  0  0
  181.2600  178.8490  140.7000 N   0  0  0  0  0  2  0  0  0  0  0  0
  185.8700  178.3140  137.2660 C   0  0  0  0  0  3  0  0  0  0  0  0
  181.5480  176.3630  135.6000 C   0  0  1  0  0  3  0  0  0  0  0  0
  180.4030  177.8390  137.2790 C   0  0  0  0  0  2  0  0  0  0  0  0
  184.7830  176.0590  137.5900 C   0  0  2  0  0  3  0  0  0  0  0  0
  182.5700  176.2460  140.4860 O   0  0  0  0  0  1  0  0  0  0  0  0
  179.7230  179.4870  139.1380 C   0  0  0  0  0  3  0  0  0  0  0  0
  182.2140  176.2540  138.1100 C   0  0  1  0  0  3  0  0  0  0  0  0
  180.5210  178.4930  138.6180 C   0  0  0  0  0  0  0  0  0  0  0  0
  181.8980  178.3180  134.6230 C   0  0  0  0  0  1  0  0  0  0  0  0
  182.3140  176.9860  134.6120 O   0  0  0  0  0  0  0  0  0  0  0  0
  189.0890  176.5400  136.9710 N   0  0  0  0  0  2  0  0  0  0  0  0
  189.6210  175.2280  137.3010 C   0  0  0  0  0  2  0  0  0  0  0  0
  190.9010  175.3730  138.0520 C   0  0  0  0  0  0  0  0  0  0  0  0
  191.7650  174.5150  137.9650 O   0  0  0  0  0  0  0  0  0  0  0  0
  191.1340  176.5790  138.8930 C   0  0  0  0  0  1  0  0  0  0  0  0
  1 28  1  6  0  0  0
  1 15  1  0  0  0  0
  2 24  1  0  0  0  0
  3 12  1  0  0  0  0
  3 10  1  0  0  0  0
  4  5  1  0  0  0  0
  4 22  1  0  0  0  0
  5 17  1  0  0  0  0
  6 18  1  0  0  0  0
  6 21  1  0  0  0  0
  7 11  1  0  0  0  0
  7 16  1  0  0  0  0
  8 17  1  0  0  0  0
  8 14  1  0  0  0  0
  9 16  1  0  0  0  0
  9  1  1  0  0  0  0
 11  2  1  0  0  0  0
 12 10  1  0  0  0  0
 12 11  1  0  0  0  0
 13 20  1  0  0  0  0
 13 24  1  0  0  0  0
 16 21  1  0  0  0  0
 18 15  2  0  0  0  0
 19 12  1  0  0  0  0
 19 13  1  0  0  0  0
 20 25  1  0  0  0  0
 21  2  1  0  0  0  0
 23  8  2  0  0  0  0
 24  4  1  0  0  0  0
 25 23  1  0  0  0  0
 25  5  2  0  0  0  0
 27 26  1  0  0  0  0
 27 19  1  0  0  0  0
 28 29  1  0  0  0  0
 29 30  1  0  0  0  0
 30 32  1  0  0  0  0
 31 30  2  0  0  0  0
M  END
>  <MODEL>
9

>  <REMARK>
 VINA RESULT:      -4.1      4.373      7.148
  Name = 
  4 active torsions:
  status: ('A' for Active; 'I' for Inactive)
    1  A    between atoms: C_1  and  C_10
    2  A    between atoms: C_2  and  N_24
    3  A    between atoms: C_10  and  N_24
    4  A    between atoms: O_25  and  C_26
                            x       y       z     vdW  Elec       q    Type
                         _______ _______ _______ _____ _____    ______ ____

>  <TORSDO>
F 4

$$$$
