=
 OpenBabel10262420073D

 27 31  0  0  1  0  0  0  0  0999 V2000
  189.0720  176.0360  143.2060 N   0  0  0  0  0  2  0  0  0  0  0  0
  188.1030  177.6260  141.6270 C   0  0  0  0  0  0  0  0  0  0  0  0
  190.3150  177.0250  140.7260 N   0  0  0  0  0  2  0  0  0  0  0  0
  186.7560  178.5530  137.6910 C   0  0  0  0  0  3  0  0  0  0  0  0
  187.5670  178.2540  136.5930 C   0  0  0  0  0  0  0  0  0  0  0  0
  186.6300  177.9130  141.3960 C   0  0  0  0  0  2  0  0  0  0  0  0
  189.2610  177.3710  138.0800 C   0  0  0  0  0  3  0  0  0  0  0  0
  191.6710  178.3850  143.9780 C   0  0  0  0  0  0  0  0  0  0  0  0
  188.8160  177.6600  136.7860 C   0  0  0  0  0  3  0  0  0  0  0  0
  192.0860  179.4510  144.5020 O   0  0  0  0  0  0  0  0  0  0  0  0
  188.4520  177.6630  139.1880 C   0  0  0  0  0  0  0  0  0  0  0  0
  188.5810  177.4000  143.0430 C   0  0  1  0  0  3  0  0  0  0  0  0
  187.1290  178.5480  135.3080 O   0  0  0  0  0  1  0  0  0  0  0  0
  187.1950  178.2480  138.9840 C   0  0  0  0  0  0  0  0  0  0  0  0
  190.5190  175.9480  142.9610 C   0  0  2  0  0  3  0  0  0  0  0  0
  188.9400  177.4350  140.5700 C   0  0  0  0  0  0  0  0  0  0  0  0
  191.3330  178.3740  142.5180 C   0  0  0  0  0  2  0  0  0  0  0  0
  186.3780  178.5510  140.1090 N   0  0  0  0  0  2  0  0  0  0  0  0
  191.4330  177.2720  144.7900 O   0  0  0  0  0  0  0  0  0  0  0  0
  191.3100  175.9560  144.2620 C   0  0  0  0  0  2  0  0  0  0  0  0
  191.1000  176.9650  141.9560 C   0  0  2  0  0  3  0  0  0  0  0  0
  185.8170  178.4480  146.1680 C   0  0  0  0  0  3  0  0  0  0  0  0
  187.6010  177.7570  144.1220 C   0  0  0  0  0  0  0  0  0  0  0  0
  188.0050  177.6910  145.4590 C   0  0  0  0  0  3  0  0  0  0  0  0
  187.1140  178.0330  146.4810 C   0  0  0  0  0  3  0  0  0  0  0  0
  185.4090  178.5220  144.8330 C   0  0  0  0  0  3  0  0  0  0  0  0
  186.2990  178.1800  143.8100 C   0  0  0  0  0  3  0  0  0  0  0  0
  2 12  1  0  0  0  0
  3 21  1  0  0  0  0
  4 14  1  0  0  0  0
  5  9  1  0  0  0  0
  5  4  2  0  0  0  0
  6  2  1  0  0  0  0
  7 11  1  0  0  0  0
  8 10  2  0  0  0  0
  8 19  1  0  0  0  0
  9  7  2  0  0  0  0
 11 16  1  0  0  0  0
 12  1  1  0  0  0  0
 12 23  1  1  0  0  0
 13  5  1  0  0  0  0
 14 11  2  0  0  0  0
 14 18  1  0  0  0  0
 15  1  1  0  0  0  0
 15 20  1  1  0  0  0
 16  3  1  0  0  0  0
 16  2  2  0  0  0  0
 17  8  1  0  0  0  0
 18  6  1  0  0  0  0
 20 19  1  0  0  0  0
 21 17  1  1  0  0  0
 21 15  1  0  0  0  0
 22 25  1  0  0  0  0
 23 24  1  0  0  0  0
 24 25  2  0  0  0  0
 26 22  2  0  0  0  0
 27 23  2  0  0  0  0
 27 26  1  0  0  0  0
M  END
>  <MODEL>
1

>  <REMARK>
 VINA RESULT:      -9.2      0.000      0.000
  Name = 
  1 active torsions:
  status: ('A' for Active; 'I' for Inactive)
    1  A    between atoms: C_9  and  C_15
                            x       y       z     vdW  Elec       q    Type
                         _______ _______ _______ _____ _____    ______ ____

>  <TORSDO>
F 1

$$$$
=
 OpenBabel10262420073D

 27 31  0  0  1  0  0  0  0  0999 V2000
  188.7830  176.1650  143.8590 N   0  0  0  0  0  2  0  0  0  0  0  0
  187.1740  177.9060  143.2760 C   0  0  0  0  0  0  0  0  0  0  0  0
  188.6120  177.6080  141.2970 N   0  0  0  0  0  2  0  0  0  0  0  0
  184.0320  179.3300  140.7740 C   0  0  0  0  0  3  0  0  0  0  0  0
  184.1670  179.2620  139.3840 C   0  0  0  0  0  0  0  0  0  0  0  0
  185.7940  178.1210  143.8700 C   0  0  0  0  0  2  0  0  0  0  0  0
  186.3660  178.2820  139.6430 C   0  0  0  0  0  3  0  0  0  0  0  0
  191.4560  178.5430  143.6000 C   0  0  0  0  0  0  0  0  0  0  0  0
  185.3310  178.7350  138.8190 C   0  0  0  0  0  3  0  0  0  0  0  0
  192.0980  179.5430  144.0150 O   0  0  0  0  0  0  0  0  0  0  0  0
  186.2370  178.3420  141.0390 C   0  0  0  0  0  0  0  0  0  0  0  0
  188.3020  177.4990  144.1970 C   0  0  1  0  0  3  0  0  0  0  0  0
  183.1430  179.7180  138.5660 O   0  0  0  0  0  1  0  0  0  0  0  0
  185.0610  178.8620  141.5970 C   0  0  0  0  0  0  0  0  0  0  0  0
  189.9030  176.2170  142.9090 C   0  0  2  0  0  3  0  0  0  0  0  0
  187.3550  177.9390  141.9270 C   0  0  0  0  0  0  0  0  0  0  0  0
  190.4220  178.7340  142.5310 C   0  0  0  0  0  2  0  0  0  0  0  0
  184.9350  178.9290  143.0130 N   0  0  0  0  0  2  0  0  0  0  0  0
  191.6430  177.3060  144.2210 O   0  0  0  0  0  0  0  0  0  0  0  0
  191.2450  176.0800  143.6140 C   0  0  0  0  0  2  0  0  0  0  0  0
  189.9110  177.4150  141.9350 C   0  0  2  0  0  3  0  0  0  0  0  0
  187.5300  177.8450  148.4150 C   0  0  0  0  0  3  0  0  0  0  0  0
  188.0120  177.6160  145.6650 C   0  0  0  0  0  0  0  0  0  0  0  0
  188.9510  177.1390  146.5860 C   0  0  0  0  0  3  0  0  0  0  0  0
  188.7100  177.2510  147.9590 C   0  0  0  0  0  3  0  0  0  0  0  0
  186.5910  178.3290  147.5000 C   0  0  0  0  0  3  0  0  0  0  0  0
  186.8300  178.2180  146.1270 C   0  0  0  0  0  3  0  0  0  0  0  0
  1 12  1  0  0  0  0
  2  6  1  0  0  0  0
  2 12  1  0  0  0  0
  3 16  1  0  0  0  0
  3 21  1  0  0  0  0
  4 14  1  0  0  0  0
  5  4  2  0  0  0  0
  7 11  1  0  0  0  0
  8 10  2  0  0  0  0
  8 19  1  0  0  0  0
  9  5  1  0  0  0  0
  9  7  2  0  0  0  0
 11 14  2  0  0  0  0
 11 16  1  0  0  0  0
 12 23  1  1  0  0  0
 13  5  1  0  0  0  0
 14 18  1  0  0  0  0
 15 20  1  1  0  0  0
 15  1  1  0  0  0  0
 16  2  2  0  0  0  0
 17  8  1  0  0  0  0
 18  6  1  0  0  0  0
 20 19  1  0  0  0  0
 21 17  1  1  0  0  0
 21 15  1  0  0  0  0
 23 27  2  0  0  0  0
 23 24  1  0  0  0  0
 24 25  2  0  0  0  0
 25 22  1  0  0  0  0
 26 22  2  0  0  0  0
 27 26  1  0  0  0  0
M  END
>  <MODEL>
2

>  <REMARK>
 VINA RESULT:      -9.1      1.907      2.610
  Name = 
  1 active torsions:
  status: ('A' for Active; 'I' for Inactive)
    1  A    between atoms: C_9  and  C_15
                            x       y       z     vdW  Elec       q    Type
                         _______ _______ _______ _____ _____    ______ ____

>  <TORSDO>
F 1

$$$$
=
 OpenBabel10262420073D

 27 31  0  0  1  0  0  0  0  0999 V2000
  188.0520  176.1690  144.4950 N   0  0  0  0  0  2  0  0  0  0  0  0
  186.3620  177.9290  144.5710 C   0  0  0  0  0  0  0  0  0  0  0  0
  186.8040  177.5030  142.1850 N   0  0  0  0  0  2  0  0  0  0  0  0
  182.4590  179.3340  143.5940 C   0  0  0  0  0  3  0  0  0  0  0  0
  181.9810  179.2010  142.2870 C   0  0  0  0  0  0  0  0  0  0  0  0
  185.3750  178.2100  145.6890 C   0  0  0  0  0  2  0  0  0  0  0  0
  184.0700  178.1690  141.6250 C   0  0  0  0  0  3  0  0  0  0  0  0
  190.3700  178.4550  142.9890 C   0  0  0  0  0  0  0  0  0  0  0  0
  182.7840  178.6150  141.3040 C   0  0  0  0  0  3  0  0  0  0  0  0
  191.1360  179.4530  143.0340 O   0  0  0  0  0  0  0  0  0  0  0  0
  184.5560  178.2940  142.9350 C   0  0  0  0  0  0  0  0  0  0  0  0
  187.7740  177.5300  144.9380 C   0  0  1  0  0  3  0  0  0  0  0  0
  180.7080  179.6500  141.9650 O   0  0  0  0  0  1  0  0  0  0  0  0
  183.7390  178.8720  143.9180 C   0  0  0  0  0  0  0  0  0  0  0  0
  188.6540  176.1470  143.1550 C   0  0  2  0  0  3  0  0  0  0  0  0
  185.9440  177.8980  143.2760 C   0  0  0  0  0  0  0  0  0  0  0  0
  188.9780  178.6280  142.4600 C   0  0  0  0  0  2  0  0  0  0  0  0
  184.2360  179.0050  145.2440 N   0  0  0  0  0  2  0  0  0  0  0  0
  190.7970  177.2410  143.5320 O   0  0  0  0  0  0  0  0  0  0  0  0
  190.1680  176.0020  143.2200 C   0  0  0  0  0  2  0  0  0  0  0  0
  188.2500  177.3000  142.2110 C   0  0  2  0  0  3  0  0  0  0  0  0
  188.8930  178.1000  149.0530 C   0  0  0  0  0  3  0  0  0  0  0  0
  188.1450  177.7200  146.3800 C   0  0  0  0  0  0  0  0  0  0  0  0
  189.4830  177.5740  146.7640 C   0  0  0  0  0  3  0  0  0  0  0  0
  189.8560  177.7610  148.0980 C   0  0  0  0  0  3  0  0  0  0  0  0
  187.5550  178.2520  148.6740 C   0  0  0  0  0  3  0  0  0  0  0  0
  187.1810  178.0660  147.3400 C   0  0  0  0  0  3  0  0  0  0  0  0
  1 12  1  0  0  0  0
  2 12  1  0  0  0  0
  2  6  1  0  0  0  0
  3 21  1  0  0  0  0
  3 16  1  0  0  0  0
  4 14  1  0  0  0  0
  5  4  2  0  0  0  0
  7 11  1  0  0  0  0
  8 10  2  0  0  0  0
  8 19  1  0  0  0  0
  9  7  2  0  0  0  0
  9  5  1  0  0  0  0
 11 16  1  0  0  0  0
 11 14  2  0  0  0  0
 12 23  1  1  0  0  0
 13  5  1  0  0  0  0
 14 18  1  0  0  0  0
 15 20  1  1  0  0  0
 15  1  1  0  0  0  0
 16  2  2  0  0  0  0
 17  8  1  0  0  0  0
 18  6  1  0  0  0  0
 20 19  1  0  0  0  0
 21 17  1  1  0  0  0
 21 15  1  0  0  0  0
 23 24  2  0  0  0  0
 23 27  1  0  0  0  0
 24 25  1  0  0  0  0
 25 22  2  0  0  0  0
 26 22  1  0  0  0  0
 27 26  2  0  0  0  0
M  END
>  <MODEL>
3

>  <REMARK>
 VINA RESULT:      -8.9      3.053      4.588
  Name = 
  1 active torsions:
  status: ('A' for Active; 'I' for Inactive)
    1  A    between atoms: C_9  and  C_15
                            x       y       z     vdW  Elec       q    Type
                         _______ _______ _______ _____ _____    ______ ____

>  <TORSDO>
F 1

$$$$
=
 OpenBabel10262420073D

 27 31  0  0  1  0  0  0  0  0999 V2000
  189.5730  178.9810  142.0780 N   0  0  0  0  0  2  0  0  0  0  0  0
  187.2840  178.2250  141.6880 C   0  0  0  0  0  0  0  0  0  0  0  0
  187.6430  178.1070  144.1230 N   0  0  0  0  0  2  0  0  0  0  0  0
  183.0960  178.6780  142.3300 C   0  0  0  0  0  3  0  0  0  0  0  0
  182.6090  178.8580  143.6280 C   0  0  0  0  0  0  0  0  0  0  0  0
  186.3880  178.5710  140.5130 C   0  0  0  0  0  2  0  0  0  0  0  0
  184.8640  178.7180  144.4970 C   0  0  0  0  0  3  0  0  0  0  0  0
  190.4470  175.7190  143.2870 C   0  0  0  0  0  0  0  0  0  0  0  0
  183.4920  178.8820  144.7100 C   0  0  0  0  0  3  0  0  0  0  0  0
  190.6780  174.4940  143.1130 O   0  0  0  0  0  0  0  0  0  0  0  0
  185.3630  178.5430  143.1980 C   0  0  0  0  0  0  0  0  0  0  0  0
  188.7510  177.9680  141.4270 C   0  0  1  0  0  3  0  0  0  0  0  0
  181.2460  179.0130  143.8410 O   0  0  0  0  0  1  0  0  0  0  0  0
  184.4700  178.5320  142.1160 C   0  0  0  0  0  0  0  0  0  0  0  0
  189.9890  178.5600  143.4230 C   0  0  2  0  0  3  0  0  0  0  0  0
  186.8050  178.2890  142.9610 C   0  0  0  0  0  0  0  0  0  0  0  0
  189.0850  176.1460  143.7440 C   0  0  0  0  0  2  0  0  0  0  0  0
  184.9770  178.3450  140.8000 N   0  0  0  0  0  2  0  0  0  0  0  0
  191.4280  176.6540  142.9460 O   0  0  0  0  0  0  0  0  0  0  0  0
  191.4020  177.9950  143.4230 C   0  0  0  0  0  2  0  0  0  0  0  0
  189.0180  177.6200  144.1700 C   0  0  2  0  0  3  0  0  0  0  0  0
  189.8290  177.4370  137.2960 C   0  0  0  0  0  3  0  0  0  0  0  0
  189.1320  177.8030  139.9840 C   0  0  0  0  0  0  0  0  0  0  0  0
  189.7650  176.6250  139.5760 C   0  0  0  0  0  3  0  0  0  0  0  0
  190.1150  176.4420  138.2350 C   0  0  0  0  0  3  0  0  0  0  0  0
  189.1910  178.6150  137.6960 C   0  0  0  0  0  3  0  0  0  0  0  0
  188.8400  178.7980  139.0370 C   0  0  0  0  0  3  0  0  0  0  0  0
  1 15  1  0  0  0  0
  2 16  2  0  0  0  0
  3 21  1  0  0  0  0
  4  5  1  0  0  0  0
  5 13  1  0  0  0  0
  5  9  2  0  0  0  0
  6 18  1  0  0  0  0
  6  2  1  0  0  0  0
  7  9  1  0  0  0  0
  8 17  1  0  0  0  0
 10  8  2  0  0  0  0
 11  7  2  0  0  0  0
 12 23  1  6  0  0  0
 12  2  1  0  0  0  0
 12  1  1  0  0  0  0
 14  4  2  0  0  0  0
 14 11  1  0  0  0  0
 15 20  1  6  0  0  0
 15 21  1  0  0  0  0
 16 11  1  0  0  0  0
 16  3  1  0  0  0  0
 18 14  1  0  0  0  0
 19  8  1  0  0  0  0
 19 20  1  0  0  0  0
 21 17  1  6  0  0  0
 22 26  2  0  0  0  0
 22 25  1  0  0  0  0
 24 23  1  0  0  0  0
 25 24  2  0  0  0  0
 26 27  1  0  0  0  0
 27 23  2  0  0  0  0
M  END
>  <MODEL>
4

>  <REMARK>
 VINA RESULT:      -8.8      2.651      5.669
  Name = 
  1 active torsions:
  status: ('A' for Active; 'I' for Inactive)
    1  A    between atoms: C_9  and  C_15
                            x       y       z     vdW  Elec       q    Type
                         _______ _______ _______ _____ _____    ______ ____

>  <TORSDO>
F 1

$$$$
=
 OpenBabel10262420073D

 27 31  0  0  1  0  0  0  0  0999 V2000
  184.8860  179.7670  140.2210 N   0  0  0  0  0  2  0  0  0  0  0  0
  186.7620  178.2140  140.3790 C   0  0  0  0  0  0  0  0  0  0  0  0
  185.9920  178.1240  138.0410 N   0  0  0  0  0  2  0  0  0  0  0  0
  190.6550  177.0000  139.1400 C   0  0  0  0  0  3  0  0  0  0  0  0
  190.9540  176.9170  137.7770 C   0  0  0  0  0  0  0  0  0  0  0  0
  187.9030  178.2460  141.3810 C   0  0  0  0  0  2  0  0  0  0  0  0
  188.6970  177.6090  137.2360 C   0  0  0  0  0  3  0  0  0  0  0  0
  182.6810  177.0330  139.4940 C   0  0  0  0  0  0  0  0  0  0  0  0
  189.9780  177.2250  136.8260 C   0  0  0  0  0  3  0  0  0  0  0  0
  182.0450  175.9980  139.8260 O   0  0  0  0  0  0  0  0  0  0  0  0
  188.3900  177.7000  138.6020 C   0  0  0  0  0  0  0  0  0  0  0  0
  185.3690  178.5490  140.8600 C   0  0  1  0  0  3  0  0  0  0  0  0
  192.2230  176.5300  137.3680 O   0  0  0  0  0  1  0  0  0  0  0  0
  189.3790  177.4000  139.5490 C   0  0  0  0  0  0  0  0  0  0  0  0
  184.1290  179.4730  138.9950 C   0  0  2  0  0  3  0  0  0  0  0  0
  187.0160  178.0280  139.0540 C   0  0  0  0  0  0  0  0  0  0  0  0
  184.0100  176.8840  138.8160 C   0  0  0  0  0  2  0  0  0  0  0  0
  189.0630  177.4850  140.9340 N   0  0  0  0  0  2  0  0  0  0  0  0
  182.1850  178.2870  139.8610 O   0  0  0  0  0  0  0  0  0  0  0  0
  182.6270  179.4910  139.2440 C   0  0  0  0  0  2  0  0  0  0  0  0
  184.5460  178.1980  138.2300 C   0  0  2  0  0  3  0  0  0  0  0  0
  184.8140  178.7300  145.1230 C   0  0  0  0  0  3  0  0  0  0  0  0
  185.1970  178.6120  142.3500 C   0  0  0  0  0  0  0  0  0  0  0  0
  184.1270  179.3400  142.8820 C   0  0  0  0  0  3  0  0  0  0  0  0
  183.9370  179.4020  144.2660 C   0  0  0  0  0  3  0  0  0  0  0  0
  185.8820  177.9960  144.5960 C   0  0  0  0  0  3  0  0  0  0  0  0
  186.0730  177.9340  143.2130 C   0  0  0  0  0  3  0  0  0  0  0  0
  1 12  1  0  0  0  0
  2 12  1  0  0  0  0
  2  6  1  0  0  0  0
  3 21  1  0  0  0  0
  3 16  1  0  0  0  0
  4 14  1  0  0  0  0
  5  4  2  0  0  0  0
  7 11  1  0  0  0  0
  8 10  2  0  0  0  0
  8 19  1  0  0  0  0
  9  7  2  0  0  0  0
  9  5  1  0  0  0  0
 11 16  1  0  0  0  0
 11 14  2  0  0  0  0
 12 23  1  1  0  0  0
 13  5  1  0  0  0  0
 14 18  1  0  0  0  0
 15 20  1  1  0  0  0
 15  1  1  0  0  0  0
 16  2  2  0  0  0  0
 17  8  1  0  0  0  0
 18  6  1  0  0  0  0
 20 19  1  0  0  0  0
 21 17  1  1  0  0  0
 21 15  1  0  0  0  0
 23 24  2  0  0  0  0
 23 27  1  0  0  0  0
 24 25  1  0  0  0  0
 25 22  2  0  0  0  0
 26 22  1  0  0  0  0
 27 26  2  0  0  0  0
M  END
>  <MODEL>
5

>  <REMARK>
 VINA RESULT:      -8.5      3.187      5.755
  Name = 
  1 active torsions:
  status: ('A' for Active; 'I' for Inactive)
    1  A    between atoms: C_9  and  C_15
                            x       y       z     vdW  Elec       q    Type
                         _______ _______ _______ _____ _____    ______ ____

>  <TORSDO>
F 1

$$$$
=
 OpenBabel10262420073D

 27 31  0  0  1  0  0  0  0  0999 V2000
  188.9210  176.2500  142.8310 N   0  0  0  0  0  2  0  0  0  0  0  0
  188.8900  177.2890  140.6220 C   0  0  0  0  0  0  0  0  0  0  0  0
  191.2350  176.6750  141.0600 N   0  0  0  0  0  2  0  0  0  0  0  0
  189.6140  177.0510  136.4290 C   0  0  0  0  0  3  0  0  0  0  0  0
  190.8350  176.5540  135.9630 C   0  0  0  0  0  0  0  0  0  0  0  0
  187.7170  177.3750  139.6620 C   0  0  0  0  0  2  0  0  0  0  0  0
  191.5790  176.2360  138.2450 C   0  0  0  0  0  3  0  0  0  0  0  0
  190.9460  178.9390  144.0690 C   0  0  0  0  0  0  0  0  0  0  0  0
  191.8150  176.1430  136.8700 C   0  0  0  0  0  3  0  0  0  0  0  0
  191.1110  180.1370  144.4190 O   0  0  0  0  0  0  0  0  0  0  0  0
  190.3560  176.7290  138.7220 C   0  0  0  0  0  0  0  0  0  0  0  0
  188.6290  177.4770  142.0990 C   0  0  1  0  0  3  0  0  0  0  0  0
  191.0720  176.4680  134.5980 O   0  0  0  0  0  1  0  0  0  0  0  0
  189.3730  177.1280  137.8040 C   0  0  0  0  0  0  0  0  0  0  0  0
  190.3050  176.2310  143.3260 C   0  0  2  0  0  3  0  0  0  0  0  0
  190.1180  176.9080  140.1750 C   0  0  0  0  0  0  0  0  0  0  0  0
  191.3410  178.5240  142.6840 C   0  0  0  0  0  2  0  0  0  0  0  0
  188.1350  177.6360  138.2890 N   0  0  0  0  0  2  0  0  0  0  0  0
  190.3020  178.0560  144.9390 O   0  0  0  0  0  0  0  0  0  0  0  0
  190.3840  176.6420  144.7900 C   0  0  0  0  0  2  0  0  0  0  0  0
  191.3400  177.0030  142.4790 C   0  0  2  0  0  3  0  0  0  0  0  0
  184.7560  179.0110  143.1720 C   0  0  0  0  0  3  0  0  0  0  0  0
  187.2710  178.0100  142.4530 C   0  0  0  0  0  0  0  0  0  0  0  0
  186.7150  177.6890  143.6960 C   0  0  0  0  0  3  0  0  0  0  0  0
  185.4590  178.1860  144.0550 C   0  0  0  0  0  3  0  0  0  0  0  0
  185.3080  179.3400  141.9310 C   0  0  0  0  0  3  0  0  0  0  0  0
  186.5650  178.8430  141.5710 C   0  0  0  0  0  3  0  0  0  0  0  0
  1 15  1  0  0  0  0
  2 12  1  0  0  0  0
  3 21  1  0  0  0  0
  4 14  1  0  0  0  0
  5  4  2  0  0  0  0
  5  9  1  0  0  0  0
  6  2  1  0  0  0  0
  7 11  1  0  0  0  0
  8 10  2  0  0  0  0
  8 19  1  0  0  0  0
  9  7  2  0  0  0  0
 11 16  1  0  0  0  0
 12 23  1  6  0  0  0
 12  1  1  0  0  0  0
 13  5  1  0  0  0  0
 14 18  1  0  0  0  0
 14 11  2  0  0  0  0
 15 20  1  1  0  0  0
 16  2  2  0  0  0  0
 16  3  1  0  0  0  0
 17  8  1  0  0  0  0
 18  6  1  0  0  0  0
 20 19  1  0  0  0  0
 21 17  1  6  0  0  0
 21 15  1  0  0  0  0
 22 25  1  0  0  0  0
 23 24  1  0  0  0  0
 24 25  2  0  0  0  0
 26 22  2  0  0  0  0
 27 26  1  0  0  0  0
 27 23  2  0  0  0  0
M  END
>  <MODEL>
6

>  <REMARK>
 VINA RESULT:      -8.4      1.667      2.291
  Name = 
  1 active torsions:
  status: ('A' for Active; 'I' for Inactive)
    1  A    between atoms: C_9  and  C_15
                            x       y       z     vdW  Elec       q    Type
                         _______ _______ _______ _____ _____    ______ ____

>  <TORSDO>
F 1

$$$$
=
 OpenBabel10262420073D

 27 31  0  0  1  0  0  0  0  0999 V2000
  188.3030  179.0030  138.2050 N   0  0  0  0  0  2  0  0  0  0  0  0
  188.0750  177.9450  140.3940 C   0  0  0  0  0  0  0  0  0  0  0  0
  190.3270  177.3650  139.5820 N   0  0  0  0  0  2  0  0  0  0  0  0
  189.4070  177.4750  144.4150 C   0  0  0  0  0  3  0  0  0  0  0  0
  190.7650  177.2740  144.6760 C   0  0  0  0  0  0  0  0  0  0  0  0
  187.1630  178.3700  141.5310 C   0  0  0  0  0  2  0  0  0  0  0  0
  191.2380  177.3620  142.3030 C   0  0  0  0  0  3  0  0  0  0  0  0
  188.5330  175.7710  136.6660 C   0  0  0  0  0  0  0  0  0  0  0  0
  191.6810  177.2220  143.6220 C   0  0  0  0  0  3  0  0  0  0  0  0
  188.0310  174.6770  136.2980 O   0  0  0  0  0  0  0  0  0  0  0  0
  189.8770  177.5690  142.0310 C   0  0  0  0  0  0  0  0  0  0  0  0
  187.5480  178.0230  138.9790 C   0  0  1  0  0  3  0  0  0  0  0  0
  191.2050  177.1280  145.9850 O   0  0  0  0  0  1  0  0  0  0  0  0
  188.9670  177.6320  143.0960 C   0  0  0  0  0  0  0  0  0  0  0  0
  189.4290  178.3810  137.4940 C   0  0  2  0  0  3  0  0  0  0  0  0
  189.3790  177.6410  140.6360 C   0  0  0  0  0  0  0  0  0  0  0  0
  189.2730  175.8320  137.9680 C   0  0  0  0  0  2  0  0  0  0  0  0
  187.5860  177.8330  142.8190 N   0  0  0  0  0  2  0  0  0  0  0  0
  188.2940  176.9210  135.9080 O   0  0  0  0  0  0  0  0  0  0  0  0
  189.0850  178.0970  136.0380 C   0  0  0  0  0  2  0  0  0  0  0  0
  190.0530  177.1390  138.1660 C   0  0  2  0  0  3  0  0  0  0  0  0
  183.3060  178.6180  138.5870 C   0  0  0  0  0  3  0  0  0  0  0  0
  186.0700  178.2510  138.8500 C   0  0  0  0  0  0  0  0  0  0  0  0
  185.3840  177.6790  137.7740 C   0  0  0  0  0  3  0  0  0  0  0  0
  184.0050  177.8640  137.6400 C   0  0  0  0  0  3  0  0  0  0  0  0
  183.9850  179.1870  139.6690 C   0  0  0  0  0  3  0  0  0  0  0  0
  185.3650  179.0030  139.8020 C   0  0  0  0  0  3  0  0  0  0  0  0
  1 12  1  0  0  0  0
  2 16  2  0  0  0  0
  2  6  1  0  0  0  0
  3 16  1  0  0  0  0
  4  5  1  0  0  0  0
  5 13  1  0  0  0  0
  6 18  1  0  0  0  0
  7  9  1  0  0  0  0
  8 17  1  0  0  0  0
  9  5  2  0  0  0  0
 10  8  2  0  0  0  0
 11  7  2  0  0  0  0
 11 14  1  0  0  0  0
 12 23  1  1  0  0  0
 12  2  1  0  0  0  0
 14  4  2  0  0  0  0
 15 20  1  6  0  0  0
 15 21  1  0  0  0  0
 15  1  1  0  0  0  0
 16 11  1  0  0  0  0
 18 14  1  0  0  0  0
 19 20  1  0  0  0  0
 19  8  1  0  0  0  0
 21 17  1  1  0  0  0
 21  3  1  0  0  0  0
 22 26  1  0  0  0  0
 23 27  1  0  0  0  0
 24 23  2  0  0  0  0
 25 24  1  0  0  0  0
 25 22  2  0  0  0  0
 26 27  2  0  0  0  0
M  END
>  <MODEL>
7

>  <REMARK>
 VINA RESULT:      -8.2      1.916      6.546
  Name = 
  1 active torsions:
  status: ('A' for Active; 'I' for Inactive)
    1  A    between atoms: C_9  and  C_15
                            x       y       z     vdW  Elec       q    Type
                         _______ _______ _______ _____ _____    ______ ____

>  <TORSDO>
F 1

$$$$
=
 OpenBabel10262420073D

 27 31  0  0  1  0  0  0  0  0999 V2000
  186.7060  178.9940  137.4320 N   0  0  0  0  0  2  0  0  0  0  0  0
  187.0770  178.1230  139.6820 C   0  0  0  0  0  0  0  0  0  0  0  0
  188.9820  177.3510  138.3250 N   0  0  0  0  0  2  0  0  0  0  0  0
  189.4840  177.8850  143.1900 C   0  0  0  0  0  3  0  0  0  0  0  0
  190.8530  177.6260  143.0760 C   0  0  0  0  0  0  0  0  0  0  0  0
  186.5430  178.6860  140.9870 C   0  0  0  0  0  2  0  0  0  0  0  0
  190.6310  177.5030  140.6680 C   0  0  0  0  0  3  0  0  0  0  0  0
  186.3750  175.6450  136.1880 C   0  0  0  0  0  0  0  0  0  0  0  0
  191.4270  177.4390  141.8160 C   0  0  0  0  0  3  0  0  0  0  0  0
  185.7520  174.5570  136.0770 O   0  0  0  0  0  0  0  0  0  0  0  0
  189.2580  177.7680  140.7730 C   0  0  0  0  0  0  0  0  0  0  0  0
  186.1710  178.1230  138.4720 C   0  0  1  0  0  3  0  0  0  0  0  0
  191.6430  177.5540  144.2150 O   0  0  0  0  0  1  0  0  0  0  0  0
  188.6920  177.9660  142.0410 C   0  0  0  0  0  0  0  0  0  0  0  0
  187.5600  178.2540  136.4910 C   0  0  2  0  0  3  0  0  0  0  0  0
  188.3850  177.7620  139.5730 C   0  0  0  0  0  0  0  0  0  0  0  0
  187.4580  175.7620  137.2180 C   0  0  0  0  0  2  0  0  0  0  0  0
  187.2980  178.2260  142.1460 N   0  0  0  0  0  2  0  0  0  0  0  0
  185.9700  176.7460  135.4280 O   0  0  0  0  0  0  0  0  0  0  0  0
  186.8050  177.8800  135.2230 C   0  0  0  0  0  2  0  0  0  0  0  0
  188.3070  177.0320  137.0690 C   0  0  2  0  0  3  0  0  0  0  0  0
  182.0290  178.9440  139.2920 C   0  0  0  0  0  3  0  0  0  0  0  0
  184.7260  178.4260  138.7440 C   0  0  0  0  0  0  0  0  0  0  0  0
  183.8350  177.3680  138.9490 C   0  0  0  0  0  3  0  0  0  0  0  0
  182.4880  177.6260  139.2200 C   0  0  0  0  0  3  0  0  0  0  0  0
  182.9160  180.0060  139.0930 C   0  0  0  0  0  3  0  0  0  0  0  0
  184.2640  179.7490  138.8220 C   0  0  0  0  0  3  0  0  0  0  0  0
  1 12  1  0  0  0  0
  2  6  1  0  0  0  0
  3 16  1  0  0  0  0
  5  4  1  0  0  0  0
  5 13  1  0  0  0  0
  6 18  1  0  0  0  0
  7 11  2  0  0  0  0
  7  9  1  0  0  0  0
  8 17  1  0  0  0  0
  9  5  2  0  0  0  0
 10  8  2  0  0  0  0
 11 14  1  0  0  0  0
 12 23  1  1  0  0  0
 12  2  1  0  0  0  0
 14 18  1  0  0  0  0
 14  4  2  0  0  0  0
 15 20  1  6  0  0  0
 15 21  1  0  0  0  0
 15  1  1  0  0  0  0
 16  2  2  0  0  0  0
 16 11  1  0  0  0  0
 19  8  1  0  0  0  0
 20 19  1  0  0  0  0
 21 17  1  1  0  0  0
 21  3  1  0  0  0  0
 23 27  2  0  0  0  0
 23 24  1  0  0  0  0
 24 25  2  0  0  0  0
 25 22  1  0  0  0  0
 26 22  2  0  0  0  0
 27 26  1  0  0  0  0
M  END
>  <MODEL>
8

>  <REMARK>
 VINA RESULT:      -8.1      2.436      6.781
  Name = 
  1 active torsions:
  status: ('A' for Active; 'I' for Inactive)
    1  A    between atoms: C_9  and  C_15
                            x       y       z     vdW  Elec       q    Type
                         _______ _______ _______ _____ _____    ______ ____

>  <TORSDO>
F 1

$$$$
=
 OpenBabel10262420073D

 27 31  0  0  1  0  0  0  0  0999 V2000
  189.9730  177.2100  136.1540 N   0  0  0  0  0  2  0  0  0  0  0  0
  188.9870  177.1340  138.3860 C   0  0  0  0  0  0  0  0  0  0  0  0
  191.2530  176.1930  138.6040 N   0  0  0  0  0  2  0  0  0  0  0  0
  189.0700  178.2760  142.4910 C   0  0  0  0  0  3  0  0  0  0  0  0
  190.2550  178.1470  143.2230 C   0  0  0  0  0  0  0  0  0  0  0  0
  187.8780  178.0150  138.9330 C   0  0  0  0  0  2  0  0  0  0  0  0
  191.3690  177.2530  141.2670 C   0  0  0  0  0  3  0  0  0  0  0  0
  190.0980  173.6260  136.0850 C   0  0  0  0  0  0  0  0  0  0  0  0
  191.4040  177.6400  142.6110 C   0  0  0  0  0  3  0  0  0  0  0  0
  189.5490  172.4960  136.0130 O   0  0  0  0  0  0  0  0  0  0  0  0
  190.1860  177.3830  140.5240 C   0  0  0  0  0  0  0  0  0  0  0  0
  188.8890  176.6550  136.9560 C   0  0  1  0  0  3  0  0  0  0  0  0
  190.2880  178.5240  144.5580 O   0  0  0  0  0  1  0  0  0  0  0  0
  189.0410  177.9040  141.1430 C   0  0  0  0  0  0  0  0  0  0  0  0
  191.1370  176.3130  136.1200 C   0  0  2  0  0  3  0  0  0  0  0  0
  190.1090  176.9050  139.1220 C   0  0  0  0  0  0  0  0  0  0  0  0
  190.4520  174.1790  137.4320 C   0  0  0  0  0  2  0  0  0  0  0  0
  187.8400  178.0280  140.3900 N   0  0  0  0  0  2  0  0  0  0  0  0
  190.2640  174.3810  134.9200 O   0  0  0  0  0  0  0  0  0  0  0  0
  191.1660  175.4800  134.8460 C   0  0  0  0  0  2  0  0  0  0  0  0
  191.3460  175.4250  137.3650 C   0  0  2  0  0  3  0  0  0  0  0  0
  185.1070  177.2670  135.0000 C   0  0  0  0  0  3  0  0  0  0  0  0
  187.5590  176.8660  136.2920 C   0  0  0  0  0  0  0  0  0  0  0  0
  187.4610  177.7790  135.2370 C   0  0  0  0  0  3  0  0  0  0  0  0
  186.2370  177.9820  134.5940 C   0  0  0  0  0  3  0  0  0  0  0  0
  185.2000  176.3490  136.0500 C   0  0  0  0  0  3  0  0  0  0  0  0
  186.4240  176.1450  136.6950 C   0  0  0  0  0  3  0  0  0  0  0  0
  1 12  1  0  0  0  0
  2  6  1  0  0  0  0
  2 16  2  0  0  0  0
  3 16  1  0  0  0  0
  4  5  1  0  0  0  0
  5 13  1  0  0  0  0
  6 18  1  0  0  0  0
  7  9  1  0  0  0  0
  8 17  1  0  0  0  0
  9  5  2  0  0  0  0
 10  8  2  0  0  0  0
 11 14  1  0  0  0  0
 11  7  2  0  0  0  0
 12 23  1  6  0  0  0
 12  2  1  0  0  0  0
 14  4  2  0  0  0  0
 15 20  1  6  0  0  0
 15  1  1  0  0  0  0
 15 21  1  0  0  0  0
 16 11  1  0  0  0  0
 18 14  1  0  0  0  0
 19  8  1  0  0  0  0
 20 19  1  0  0  0  0
 21 17  1  1  0  0  0
 21  3  1  0  0  0  0
 22 26  1  0  0  0  0
 23 27  1  0  0  0  0
 24 23  2  0  0  0  0
 25 22  2  0  0  0  0
 25 24  1  0  0  0  0
 26 27  2  0  0  0  0
M  END
>  <MODEL>
9

>  <REMARK>
 VINA RESULT:      -7.5      2.779      7.359
  Name = 
  1 active torsions:
  status: ('A' for Active; 'I' for Inactive)
    1  A    between atoms: C_9  and  C_15
                            x       y       z     vdW  Elec       q    Type
                         _______ _______ _______ _____ _____    ______ ____

>  <TORSDO>
F 1

$$$$
