=
 OpenBabel10262423063D

 37 41  0  0  1  0  0  0  0  0999 V2000
  189.7960  175.3310  142.8100 O   0  0  0  0  0  1  0  0  0  0  0  0
  189.2050  176.6070  142.7630 C   0  0  1  0  0  0  0  0  0  0  0  0
  190.9420  179.4740  143.5280 O   0  0  0  0  0  1  0  0  0  0  0  0
  191.0990  178.0880  143.5650 C   0  0  2  0  0  3  0  0  0  0  0  0
  191.2360  177.1240  145.5580 C   0  0  1  0  0  3  0  0  0  0  0  0
  189.7870  177.4330  143.9210 C   0  0  2  0  0  3  0  0  0  0  0  0
  192.0090  177.7460  144.5630 O   0  0  0  0  0  0  0  0  0  0  0  0
  190.0420  176.6180  145.0240 O   0  0  0  0  0  0  0  0  0  0  0  0
  192.0310  176.0130  146.2340 C   0  0  0  0  0  2  0  0  0  0  0  0
  192.0000  176.1460  147.7490 C   0  0  0  0  0  1  0  0  0  0  0  0
  189.5530  177.2950  141.4080 C   0  0  2  0  0  3  0  0  0  0  0  0
  188.3840  177.9430  140.6420 C   0  0  1  0  0  3  0  0  0  0  0  0
  188.3330  179.3240  140.8470 O   0  0  0  0  0  1  0  0  0  0  0  0
  188.3940  177.6210  139.1580 C   0  0  0  0  0  2  0  0  0  0  0  0
  188.6440  178.7790  138.4230 O   0  0  0  0  0  1  0  0  0  0  0  0
  190.2400  176.4220  140.5570 O   0  0  0  0  0  0  0  0  0  0  0  0
  191.4020  177.1060  140.1980 C   0  0  0  0  0  2  0  0  0  0  0  0
  193.0180  176.1360  138.6120 C   0  0  2  0  0  0  0  0  0  0  0  0
  191.7060  176.8540  138.7350 C   0  0  1  0  0  3  0  0  0  0  0  0
  191.7440  175.5000  138.5000 O   0  0  0  0  0  0  0  0  0  0  0  0
  193.8070  175.4880  137.4790 C   0  0  2  0  0  3  0  0  0  0  0  0
  193.4850  176.8230  137.4530 O   0  0  0  0  0  0  0  0  0  0  0  0
  193.8230  173.7420  136.1220 C   0  0  0  0  0  1  0  0  0  0  0  0
  193.0310  174.8160  136.5270 O   0  0  0  0  0  0  0  0  0  0  0  0
  187.8020  176.5130  142.9610 O   0  0  0  0  0  0  0  0  0  0  0  0
  187.3210  177.6920  143.5570 C   0  0  0  0  0  2  0  0  0  0  0  0
  186.5280  177.3430  144.8100 C   0  0  1  0  0  3  0  0  0  0  0  0
  186.4230  178.5860  145.7070 C   0  0  0  0  0  0  0  0  0  0  0  0
  185.7140  178.6190  147.0680 C   0  0  0  0  0  2  0  0  0  0  0  0
  185.2200  178.0490  144.9200 C   0  0  1  0  0  3  0  0  0  0  0  0
  187.0040  177.9240  146.9640 C   0  0  0  0  0  2  0  0  0  0  0  0
  184.9560  178.9010  143.8280 O   0  0  0  0  0  0  0  0  0  0  0  0
  183.7620  178.4860  143.1900 C   0  0  1  0  0  3  0  0  0  0  0  0
  182.5020  178.9090  143.9420 C   0  0  0  0  0  2  0  0  0  0  0  0
  181.3650  179.1440  142.9690 C   0  0  0  0  0  1  0  0  0  0  0  0
  183.6980  178.8790  141.7160 C   0  0  0  0  0  2  0  0  0  0  0  0
  184.9790  178.8510  141.1640 O   0  0  0  0  0  1  0  0  0  0  0  0
  2  1  1  1  0  0  0
  2 25  1  0  0  0  0
  4  3  1  1  0  0  0
  4  6  1  0  0  0  0
  4  7  1  0  0  0  0
  5  9  1  6  0  0  0
  6  2  1  6  0  0  0
  6  8  1  0  0  0  0
  7  5  1  0  0  0  0
  8  5  1  0  0  0  0
  9 10  1  0  0  0  0
 11 16  1  6  0  0  0
 11  2  1  0  0  0  0
 12 13  1  6  0  0  0
 12 11  1  0  0  0  0
 14 12  1  0  0  0  0
 15 14  1  0  0  0  0
 17 16  1  0  0  0  0
 18 22  1  6  0  0  0
 18 19  1  0  0  0  0
 19 17  1  1  0  0  0
 20 18  1  0  0  0  0
 20 19  1  0  0  0  0
 21 24  1  6  0  0  0
 21 18  1  0  0  0  0
 22 21  1  0  0  0  0
 23 24  1  0  0  0  0
 25 26  1  0  0  0  0
 27 26  1  6  0  0  0
 27 30  1  0  0  0  0
 27 28  1  0  0  0  0
 28 31  1  0  0  0  0
 28 29  1  0  0  0  0
 30 32  1  6  0  0  0
 30 28  1  0  0  0  0
 31 29  1  0  0  0  0
 33 36  1  6  0  0  0
 33 32  1  0  0  0  0
 33 34  1  0  0  0  0
 35 34  1  0  0  0  0
 37 36  1  0  0  0  0
M  END
>  <MODEL>
1

>  <REMARK>
 VINA RESULT:      -7.3      0.000      0.000
  Name = 
  16 active torsions:
  status: ('A' for Active; 'I' for Inactive)
    1  A    between atoms: C_1  and  C_36
    2  A    between atoms: C_3  and  C_21
    3  A    between atoms: C_4  and  C_10
    4  A    between atoms: C_4  and  C_22
    5  A    between atoms: C_6  and  C_31
    6  A    between atoms: C_7  and  C_33
    7  A    between atoms: C_10  and  O_14
    8  A    between atoms: C_10  and  C_20
    9  A    between atoms: C_11  and  C_33
   10  A    between atoms: O_14  and  C_31
   11  A    between atoms: C_17  and  O_26
   12  A    between atoms: C_18  and  O_19
   13  A    between atoms: C_20  and  C_24
   14  A    between atoms: C_20  and  O_29
   15  A    between atoms: O_26  and  C_33
   16  A    between atoms: O_29  and  C_36
                            x       y       z     vdW  Elec       q    Type
                         _______ _______ _______ _____ _____    ______ ____

>  <TORSDO>
F 16

$$$$
=
 OpenBabel10262423063D

 37 41  0  0  1  0  0  0  0  0999 V2000
  188.6370  176.5780  141.7430 O   0  0  0  0  0  1  0  0  0  0  0  0
  189.0990  177.8480  141.3500 C   0  0  1  0  0  0  0  0  0  0  0  0
  192.4800  177.2620  141.5760 O   0  0  0  0  0  1  0  0  0  0  0  0
  191.2990  176.9820  142.2650 C   0  0  2  0  0  3  0  0  0  0  0  0
  191.0300  177.9110  144.2610 C   0  0  1  0  0  3  0  0  0  0  0  0
  190.3600  178.1600  142.1720 C   0  0  2  0  0  3  0  0  0  0  0  0
  191.5790  176.7900  143.6150 O   0  0  0  0  0  0  0  0  0  0  0  0
  190.0200  178.4940  143.4820 O   0  0  0  0  0  0  0  0  0  0  0  0
  190.4900  177.5250  145.6330 C   0  0  0  0  0  2  0  0  0  0  0  0
  188.9700  177.5770  145.6700 C   0  0  0  0  0  1  0  0  0  0  0  0
  189.4610  177.8260  139.8330 C   0  0  2  0  0  3  0  0  0  0  0  0
  188.4910  178.5510  138.8810 C   0  0  1  0  0  3  0  0  0  0  0  0
  189.1640  179.4120  138.0120 O   0  0  0  0  0  1  0  0  0  0  0  0
  187.5950  177.6000  138.1070 C   0  0  0  0  0  2  0  0  0  0  0  0
  187.9500  177.6070  136.7580 O   0  0  0  0  0  1  0  0  0  0  0  0
  189.6680  176.5180  139.3800 O   0  0  0  0  0  0  0  0  0  0  0  0
  190.8840  176.5600  138.6950 C   0  0  0  0  0  2  0  0  0  0  0  0
  192.2150  175.0480  137.2800 C   0  0  2  0  0  0  0  0  0  0  0  0
  190.8410  175.5960  137.5280 C   0  0  1  0  0  3  0  0  0  0  0  0
  191.1800  174.3360  137.9600 O   0  0  0  0  0  0  0  0  0  0  0  0
  192.8170  173.9720  136.3820 C   0  0  2  0  0  3  0  0  0  0  0  0
  192.1500  175.0500  135.8550 O   0  0  0  0  0  0  0  0  0  0  0  0
  192.6570  172.1040  135.2070 C   0  0  0  0  0  1  0  0  0  0  0  0
  192.0270  172.8270  136.2210 O   0  0  0  0  0  0  0  0  0  0  0  0
  188.1320  178.8440  141.6460 O   0  0  0  0  0  0  0  0  0  0  0  0
  186.8940  178.2410  141.9310 C   0  0  0  0  0  2  0  0  0  0  0  0
  185.7650  179.1700  141.5040 C   0  0  1  0  0  3  0  0  0  0  0  0
  184.6230  178.3370  140.9030 C   0  0  0  0  0  0  0  0  0  0  0  0
  183.3200  178.9240  140.3410 C   0  0  0  0  0  2  0  0  0  0  0  0
  184.5060  178.9990  142.2830 C   0  0  1  0  0  3  0  0  0  0  0  0
  184.5580  179.0940  139.5690 C   0  0  0  0  0  2  0  0  0  0  0  0
  184.6050  178.0110  143.2850 O   0  0  0  0  0  0  0  0  0  0  0  0
  184.0500  178.5110  144.4880 C   0  0  1  0  0  3  0  0  0  0  0  0
  185.0840  179.1740  145.3950 C   0  0  0  0  0  2  0  0  0  0  0  0
  185.2230  178.3940  146.6870 C   0  0  0  0  0  1  0  0  0  0  0  0
  182.8360  179.4090  144.2640 C   0  0  0  0  0  2  0  0  0  0  0  0
  181.6740  178.6390  144.2490 O   0  0  0  0  0  1  0  0  0  0  0  0
  2 25  1  0  0  0  0
  2  1  1  1  0  0  0
  4  3  1  6  0  0  0
  4  7  1  0  0  0  0
  5  9  1  1  0  0  0
  6  2  1  6  0  0  0
  6  4  1  0  0  0  0
  6  8  1  0  0  0  0
  7  5  1  0  0  0  0
  8  5  1  0  0  0  0
  9 10  1  0  0  0  0
 11 16  1  6  0  0  0
 11  2  1  0  0  0  0
 12 13  1  6  0  0  0
 12 11  1  0  0  0  0
 14 12  1  0  0  0  0
 15 14  1  0  0  0  0
 17 16  1  0  0  0  0
 18 22  1  6  0  0  0
 18 19  1  0  0  0  0
 18 20  1  0  0  0  0
 19 20  1  0  0  0  0
 19 17  1  1  0  0  0
 21 24  1  1  0  0  0
 21 18  1  0  0  0  0
 22 21  1  0  0  0  0
 23 24  1  0  0  0  0
 25 26  1  0  0  0  0
 27 26  1  1  0  0  0
 27 30  1  0  0  0  0
 28 27  1  0  0  0  0
 28 30  1  0  0  0  0
 29 28  1  0  0  0  0
 30 32  1  1  0  0  0
 31 29  1  0  0  0  0
 31 28  1  0  0  0  0
 32 33  1  0  0  0  0
 33 36  1  6  0  0  0
 33 34  1  0  0  0  0
 34 35  1  0  0  0  0
 37 36  1  0  0  0  0
M  END
>  <MODEL>
2

>  <REMARK>
 VINA RESULT:      -7.0      1.583      3.101
  Name = 
  16 active torsions:
  status: ('A' for Active; 'I' for Inactive)
    1  A    between atoms: C_1  and  C_36
    2  A    between atoms: C_3  and  C_21
    3  A    between atoms: C_4  and  C_10
    4  A    between atoms: C_4  and  C_22
    5  A    between atoms: C_6  and  C_31
    6  A    between atoms: C_7  and  C_33
    7  A    between atoms: C_10  and  O_14
    8  A    between atoms: C_10  and  C_20
    9  A    between atoms: C_11  and  C_33
   10  A    between atoms: O_14  and  C_31
   11  A    between atoms: C_17  and  O_26
   12  A    between atoms: C_18  and  O_19
   13  A    between atoms: C_20  and  C_24
   14  A    between atoms: C_20  and  O_29
   15  A    between atoms: O_26  and  C_33
   16  A    between atoms: O_29  and  C_36
                            x       y       z     vdW  Elec       q    Type
                         _______ _______ _______ _____ _____    ______ ____

>  <TORSDO>
F 16

$$$$
=
 OpenBabel10262423063D

 37 41  0  0  1  0  0  0  0  0999 V2000
  189.8250  175.4730  142.8970 O   0  0  0  0  0  1  0  0  0  0  0  0
  189.2300  176.7330  142.7040 C   0  0  1  0  0  0  0  0  0  0  0  0
  191.5880  179.1170  143.4660 O   0  0  0  0  0  1  0  0  0  0  0  0
  191.2400  177.8100  143.8100 C   0  0  2  0  0  3  0  0  0  0  0  0
  190.5100  177.4520  145.8740 C   0  0  1  0  0  3  0  0  0  0  0  0
  189.7390  177.6640  143.8160 C   0  0  2  0  0  3  0  0  0  0  0  0
  191.6820  177.5320  145.1020 O   0  0  0  0  0  0  0  0  0  0  0  0
  189.3990  177.1580  145.0710 O   0  0  0  0  0  0  0  0  0  0  0  0
  190.6660  176.4060  146.9720 C   0  0  0  0  0  2  0  0  0  0  0  0
  192.0710  175.8230  146.9920 C   0  0  0  0  0  1  0  0  0  0  0  0
  189.6540  177.3030  141.3150 C   0  0  2  0  0  3  0  0  0  0  0  0
  188.5170  177.7540  140.3780 C   0  0  1  0  0  3  0  0  0  0  0  0
  188.5710  179.1250  140.1190 O   0  0  0  0  0  1  0  0  0  0  0  0
  188.4680  176.9640  139.0820 C   0  0  0  0  0  2  0  0  0  0  0  0
  188.5270  177.8350  137.9940 O   0  0  0  0  0  1  0  0  0  0  0  0
  190.4930  176.4140  140.6370 O   0  0  0  0  0  0  0  0  0  0  0  0
  191.6130  177.1690  140.2850 C   0  0  0  0  0  2  0  0  0  0  0  0
  193.0920  176.1820  138.5810 C   0  0  2  0  0  0  0  0  0  0  0  0
  191.8720  177.0280  138.7990 C   0  0  1  0  0  3  0  0  0  0  0  0
  191.7530  175.7080  138.4350 O   0  0  0  0  0  0  0  0  0  0  0  0
  193.7920  175.5620  137.3760 C   0  0  2  0  0  3  0  0  0  0  0  0
  193.6240  176.9210  137.4840 O   0  0  0  0  0  0  0  0  0  0  0  0
  193.6820  174.1040  135.7170 C   0  0  0  0  0  1  0  0  0  0  0  0
  192.9350  175.0780  136.3800 O   0  0  0  0  0  0  0  0  0  0  0  0
  187.8190  176.6420  142.8270 O   0  0  0  0  0  0  0  0  0  0  0  0
  187.2970  177.8640  143.2860 C   0  0  0  0  0  2  0  0  0  0  0  0
  185.8460  177.6740  143.7080 C   0  0  1  0  0  3  0  0  0  0  0  0
  185.2150  179.0450  143.9910 C   0  0  0  0  0  0  0  0  0  0  0  0
  183.7690  179.2570  144.4610 C   0  0  0  0  0  2  0  0  0  0  0  0
  184.8520  178.2260  142.7450 C   0  0  1  0  0  3  0  0  0  0  0  0
  184.7450  178.7140  145.4150 C   0  0  0  0  0  2  0  0  0  0  0  0
  185.4490  178.8120  141.6090 O   0  0  0  0  0  0  0  0  0  0  0  0
  184.4840  178.9160  140.5780 C   0  0  1  0  0  3  0  0  0  0  0  0
  185.0620  178.6560  139.1880 C   0  0  0  0  0  2  0  0  0  0  0  0
  183.9990  178.0680  138.2810 C   0  0  0  0  0  1  0  0  0  0  0  0
  183.2340  178.0790  140.8350 C   0  0  0  0  0  2  0  0  0  0  0  0
  182.1240  178.9140  140.9580 O   0  0  0  0  0  1  0  0  0  0  0  0
  2 25  1  0  0  0  0
  2  1  1  1  0  0  0
  4  3  1  1  0  0  0
  4  6  1  0  0  0  0
  4  7  1  0  0  0  0
  5  9  1  1  0  0  0
  6  2  1  6  0  0  0
  6  8  1  0  0  0  0
  7  5  1  0  0  0  0
  8  5  1  0  0  0  0
  9 10  1  0  0  0  0
 11 16  1  6  0  0  0
 11  2  1  0  0  0  0
 12 13  1  6  0  0  0
 12 11  1  0  0  0  0
 14 12  1  0  0  0  0
 15 14  1  0  0  0  0
 17 16  1  0  0  0  0
 18 22  1  6  0  0  0
 18 19  1  0  0  0  0
 19 17  1  1  0  0  0
 20 18  1  0  0  0  0
 20 19  1  0  0  0  0
 21 24  1  6  0  0  0
 21 22  1  0  0  0  0
 21 18  1  0  0  0  0
 23 24  1  0  0  0  0
 25 26  1  0  0  0  0
 27 26  1  6  0  0  0
 27 28  1  0  0  0  0
 28 29  1  0  0  0  0
 28 31  1  0  0  0  0
 29 31  1  0  0  0  0
 30 32  1  6  0  0  0
 30 27  1  0  0  0  0
 30 28  1  0  0  0  0
 33 34  1  6  0  0  0
 33 36  1  0  0  0  0
 33 32  1  0  0  0  0
 35 34  1  0  0  0  0
 36 37  1  0  0  0  0
M  END
>  <MODEL>
3

>  <REMARK>
 VINA RESULT:      -6.9      1.162      1.811
  Name = 
  16 active torsions:
  status: ('A' for Active; 'I' for Inactive)
    1  A    between atoms: C_1  and  C_36
    2  A    between atoms: C_3  and  C_21
    3  A    between atoms: C_4  and  C_10
    4  A    between atoms: C_4  and  C_22
    5  A    between atoms: C_6  and  C_31
    6  A    between atoms: C_7  and  C_33
    7  A    between atoms: C_10  and  O_14
    8  A    between atoms: C_10  and  C_20
    9  A    between atoms: C_11  and  C_33
   10  A    between atoms: O_14  and  C_31
   11  A    between atoms: C_17  and  O_26
   12  A    between atoms: C_18  and  O_19
   13  A    between atoms: C_20  and  C_24
   14  A    between atoms: C_20  and  O_29
   15  A    between atoms: O_26  and  C_33
   16  A    between atoms: O_29  and  C_36
                            x       y       z     vdW  Elec       q    Type
                         _______ _______ _______ _____ _____    ______ ____

>  <TORSDO>
F 16

$$$$
=
 OpenBabel10262423063D

 37 41  0  0  1  0  0  0  0  0999 V2000
  183.7450  177.2350  140.6460 O   0  0  0  0  0  1  0  0  0  0  0  0
  183.6650  178.5230  140.0860 C   0  0  1  0  0  0  0  0  0  0  0  0
  182.7880  177.0030  137.1300 O   0  0  0  0  0  1  0  0  0  0  0  0
  183.8290  177.0110  138.0580 C   0  0  2  0  0  3  0  0  0  0  0  0
  185.7860  177.8230  137.4000 C   0  0  1  0  0  3  0  0  0  0  0  0
  184.0250  178.4080  138.5960 C   0  0  2  0  0  3  0  0  0  0  0  0
  185.0180  176.6460  137.4330 O   0  0  0  0  0  0  0  0  0  0  0  0
  185.3670  178.7220  138.3910 O   0  0  0  0  0  0  0  0  0  0  0  0
  187.2660  177.5000  137.5630 C   0  0  0  0  0  2  0  0  0  0  0  0
  187.8270  178.0830  138.8510 C   0  0  0  0  0  1  0  0  0  0  0  0
  182.2090  179.0640  140.2290 C   0  0  2  0  0  3  0  0  0  0  0  0
  181.2120  178.1720  140.9920 C   0  0  1  0  0  3  0  0  0  0  0  0
  180.5260  178.8850  141.9770 O   0  0  0  0  0  1  0  0  0  0  0  0
  180.2390  177.4500  140.0770 C   0  0  0  0  0  2  0  0  0  0  0  0
  180.7610  176.2070  139.7160 O   0  0  0  0  0  1  0  0  0  0  0  0
  181.6710  179.4050  138.9840 O   0  0  0  0  0  0  0  0  0  0  0  0
  181.1090  180.6700  139.1650 C   0  0  0  0  0  2  0  0  0  0  0  0
  180.3500  182.6960  137.9890 C   0  0  2  0  0  0  0  0  0  0  0  0
  181.1560  181.4370  137.8600 C   0  0  1  0  0  3  0  0  0  0  0  0
  181.7760  182.6480  138.0600 O   0  0  0  0  0  0  0  0  0  0  0  0
  180.1080  183.9320  137.1290 C   0  0  2  0  0  3  0  0  0  0  0  0
  179.7810  182.6760  136.6820 O   0  0  0  0  0  0  0  0  0  0  0  0
  180.7440  184.6670  135.1420 C   0  0  0  0  0  1  0  0  0  0  0  0
  181.2260  184.3880  136.4220 O   0  0  0  0  0  0  0  0  0  0  0  0
  184.6110  179.3900  140.6940 O   0  0  0  0  0  0  0  0  0  0  0  0
  185.3420  178.6940  141.6720 C   0  0  0  0  0  2  0  0  0  0  0  0
  185.1260  179.3460  143.0310 C   0  0  1  0  0  3  0  0  0  0  0  0
  184.2580  178.4260  143.9040 C   0  0  0  0  0  0  0  0  0  0  0  0
  183.8090  178.7540  145.3350 C   0  0  0  0  0  2  0  0  0  0  0  0
  185.7590  178.6170  144.1660 C   0  0  1  0  0  3  0  0  0  0  0  0
  183.1820  179.4750  144.2190 C   0  0  0  0  0  2  0  0  0  0  0  0
  186.4550  177.4590  143.7610 O   0  0  0  0  0  0  0  0  0  0  0  0
  187.5670  177.2610  144.6160 C   0  0  1  0  0  3  0  0  0  0  0  0
  188.9080  177.4230  143.9040 C   0  0  0  0  0  2  0  0  0  0  0  0
  189.8670  178.2160  144.7680 C   0  0  0  0  0  1  0  0  0  0  0  0
  187.5010  178.0960  145.8930 C   0  0  0  0  0  2  0  0  0  0  0  0
  187.3470  177.2580  146.9970 O   0  0  0  0  0  1  0  0  0  0  0  0
  2 11  1  0  0  0  0
  2  1  1  1  0  0  0
  2 25  1  0  0  0  0
  4  3  1  6  0  0  0
  4  6  1  0  0  0  0
  5  7  1  0  0  0  0
  5  9  1  1  0  0  0
  5  8  1  0  0  0  0
  6  2  1  1  0  0  0
  7  4  1  0  0  0  0
  8  6  1  0  0  0  0
  9 10  1  0  0  0  0
 11 16  1  6  0  0  0
 11 12  1  0  0  0  0
 12 13  1  1  0  0  0
 14 12  1  0  0  0  0
 15 14  1  0  0  0  0
 16 17  1  0  0  0  0
 18 22  1  6  0  0  0
 18 20  1  0  0  0  0
 19 18  1  0  0  0  0
 19 20  1  0  0  0  0
 19 17  1  1  0  0  0
 21 24  1  6  0  0  0
 21 18  1  0  0  0  0
 22 21  1  0  0  0  0
 23 24  1  0  0  0  0
 25 26  1  0  0  0  0
 27 26  1  6  0  0  0
 27 28  1  0  0  0  0
 27 30  1  0  0  0  0
 28 30  1  0  0  0  0
 28 31  1  0  0  0  0
 28 29  1  0  0  0  0
 30 32  1  6  0  0  0
 31 29  1  0  0  0  0
 32 33  1  0  0  0  0
 33 34  1  6  0  0  0
 33 36  1  0  0  0  0
 34 35  1  0  0  0  0
 36 37  1  0  0  0  0
M  END
>  <MODEL>
4

>  <REMARK>
 VINA RESULT:      -6.6      4.047      9.183
  Name = 
  16 active torsions:
  status: ('A' for Active; 'I' for Inactive)
    1  A    between atoms: C_1  and  C_36
    2  A    between atoms: C_3  and  C_21
    3  A    between atoms: C_4  and  C_10
    4  A    between atoms: C_4  and  C_22
    5  A    between atoms: C_6  and  C_31
    6  A    between atoms: C_7  and  C_33
    7  A    between atoms: C_10  and  O_14
    8  A    between atoms: C_10  and  C_20
    9  A    between atoms: C_11  and  C_33
   10  A    between atoms: O_14  and  C_31
   11  A    between atoms: C_17  and  O_26
   12  A    between atoms: C_18  and  O_19
   13  A    between atoms: C_20  and  C_24
   14  A    between atoms: C_20  and  O_29
   15  A    between atoms: O_26  and  C_33
   16  A    between atoms: O_29  and  C_36
                            x       y       z     vdW  Elec       q    Type
                         _______ _______ _______ _____ _____    ______ ____

>  <TORSDO>
F 16

$$$$
=
 OpenBabel10262423063D

 37 41  0  0  1  0  0  0  0  0999 V2000
  189.0780  179.1700  139.9640 O   0  0  0  0  0  1  0  0  0  0  0  0
  188.8300  177.7950  139.8010 C   0  0  1  0  0  0  0  0  0  0  0  0
  187.2670  179.1840  137.0720 O   0  0  0  0  0  1  0  0  0  0  0  0
  187.1130  178.1240  137.9650 C   0  0  2  0  0  3  0  0  0  0  0  0
  187.3260  176.0660  137.1640 C   0  0  1  0  0  3  0  0  0  0  0  0
  188.4650  177.5580  138.3270 C   0  0  2  0  0  3  0  0  0  0  0  0
  186.3920  177.0990  137.3570 O   0  0  0  0  0  0  0  0  0  0  0  0
  188.4040  176.1920  138.0510 O   0  0  0  0  0  0  0  0  0  0  0  0
  186.6580  174.7060  137.3260 C   0  0  0  0  0  2  0  0  0  0  0  0
  185.1670  174.7780  137.0330 C   0  0  0  0  0  1  0  0  0  0  0  0
  190.1160  176.9860  140.1540 C   0  0  2  0  0  3  0  0  0  0  0  0
  190.4630  176.8590  141.6500 C   0  0  1  0  0  3  0  0  0  0  0  0
  190.3390  175.5440  142.1010 O   0  0  0  0  0  1  0  0  0  0  0  0
  191.8340  177.4170  141.9910 C   0  0  0  0  0  2  0  0  0  0  0  0
  191.8060  178.0000  143.2580 O   0  0  0  0  0  1  0  0  0  0  0  0
  191.2280  177.4720  139.4570 O   0  0  0  0  0  0  0  0  0  0  0  0
  191.6560  176.4030  138.6690 C   0  0  0  0  0  2  0  0  0  0  0  0
  193.6490  175.2760  137.7640 C   0  0  2  0  0  0  0  0  0  0  0  0
  193.1420  176.5350  138.4020 C   0  0  1  0  0  3  0  0  0  0  0  0
  193.3720  176.4800  137.0480 O   0  0  0  0  0  0  0  0  0  0  0  0
  194.9640  174.8200  137.1390 C   0  0  2  0  0  3  0  0  0  0  0  0
  194.8980  175.2210  138.4510 O   0  0  0  0  0  0  0  0  0  0  0  0
  196.5830  175.0910  135.6560 C   0  0  0  0  0  1  0  0  0  0  0  0
  195.6380  175.7990  136.3990 O   0  0  0  0  0  0  0  0  0  0  0  0
  187.7210  177.3920  140.5920 O   0  0  0  0  0  0  0  0  0  0  0  0
  187.6490  178.1810  141.7540 C   0  0  0  0  0  2  0  0  0  0  0  0
  187.2470  177.3100  142.9370 C   0  0  1  0  0  3  0  0  0  0  0  0
  187.2710  178.1540  144.2200 C   0  0  0  0  0  0  0  0  0  0  0  0
  186.9440  177.6170  145.6210 C   0  0  0  0  0  2  0  0  0  0  0  0
  185.9560  177.6990  143.5710 C   0  0  1  0  0  3  0  0  0  0  0  0
  188.2180  177.2310  145.0000 C   0  0  0  0  0  2  0  0  0  0  0  0
  185.3390  178.8010  142.9420 O   0  0  0  0  0  0  0  0  0  0  0  0
  184.1080  178.3870  142.3790 C   0  0  1  0  0  3  0  0  0  0  0  0
  182.8940  178.9730  143.0960 C   0  0  0  0  0  2  0  0  0  0  0  0
  183.1060  178.9410  144.5960 C   0  0  0  0  0  1  0  0  0  0  0  0
  184.0320  178.6030  140.8700 C   0  0  0  0  0  2  0  0  0  0  0  0
  184.9560  179.5740  140.4850 O   0  0  0  0  0  1  0  0  0  0  0  0
  2  1  1  1  0  0  0
  2 11  1  0  0  0  0
  2 25  1  0  0  0  0
  4  3  1  6  0  0  0
  4  6  1  0  0  0  0
  5  9  1  1  0  0  0
  5  7  1  0  0  0  0
  5  8  1  0  0  0  0
  6  2  1  1  0  0  0
  7  4  1  0  0  0  0
  8  6  1  0  0  0  0
 10  9  1  0  0  0  0
 11 16  1  6  0  0  0
 11 12  1  0  0  0  0
 12 14  1  0  0  0  0
 12 13  1  6  0  0  0
 14 15  1  0  0  0  0
 17 16  1  0  0  0  0
 18 20  1  6  0  0  0
 18 19  1  0  0  0  0
 18 22  1  0  0  0  0
 19 17  1  6  0  0  0
 20 19  1  0  0  0  0
 21 24  1  6  0  0  0
 21 18  1  0  0  0  0
 21 22  1  0  0  0  0
 23 24  1  0  0  0  0
 25 26  1  0  0  0  0
 27 26  1  6  0  0  0
 27 30  1  0  0  0  0
 27 28  1  0  0  0  0
 28 31  1  0  0  0  0
 28 29  1  0  0  0  0
 30 32  1  6  0  0  0
 30 28  1  0  0  0  0
 31 29  1  0  0  0  0
 33 36  1  6  0  0  0
 33 32  1  0  0  0  0
 33 34  1  0  0  0  0
 34 35  1  0  0  0  0
 37 36  1  0  0  0  0
M  END
>  <MODEL>
5

>  <REMARK>
 VINA RESULT:      -6.6      1.848      4.731
  Name = 
  16 active torsions:
  status: ('A' for Active; 'I' for Inactive)
    1  A    between atoms: C_1  and  C_36
    2  A    between atoms: C_3  and  C_21
    3  A    between atoms: C_4  and  C_10
    4  A    between atoms: C_4  and  C_22
    5  A    between atoms: C_6  and  C_31
    6  A    between atoms: C_7  and  C_33
    7  A    between atoms: C_10  and  O_14
    8  A    between atoms: C_10  and  C_20
    9  A    between atoms: C_11  and  C_33
   10  A    between atoms: O_14  and  C_31
   11  A    between atoms: C_17  and  O_26
   12  A    between atoms: C_18  and  O_19
   13  A    between atoms: C_20  and  C_24
   14  A    between atoms: C_20  and  O_29
   15  A    between atoms: O_26  and  C_33
   16  A    between atoms: O_29  and  C_36
                            x       y       z     vdW  Elec       q    Type
                         _______ _______ _______ _____ _____    ______ ____

>  <TORSDO>
F 16

$$$$
=
 OpenBabel10262423063D

 37 41  0  0  1  0  0  0  0  0999 V2000
  189.5020  178.6660  138.5670 O   0  0  0  0  0  1  0  0  0  0  0  0
  189.0470  177.3360  138.5100 C   0  0  1  0  0  0  0  0  0  0  0  0
  187.6190  178.2000  135.5040 O   0  0  0  0  0  1  0  0  0  0  0  0
  187.5670  178.5550  136.8520 C   0  0  2  0  0  3  0  0  0  0  0  0
  185.6900  178.1280  137.9550 C   0  0  1  0  0  3  0  0  0  0  0  0
  187.7330  177.3260  137.7130 C   0  0  2  0  0  3  0  0  0  0  0  0
  186.3160  179.0930  137.1470 O   0  0  0  0  0  0  0  0  0  0  0  0
  186.6370  177.3010  138.5750 O   0  0  0  0  0  0  0  0  0  0  0  0
  184.8030  178.7990  138.9970 C   0  0  0  0  0  2  0  0  0  0  0  0
  183.3290  178.6610  138.6480 C   0  0  0  0  0  1  0  0  0  0  0  0
  190.1040  176.4530  137.7790 C   0  0  2  0  0  3  0  0  0  0  0  0
  189.5760  175.5110  136.6800 C   0  0  1  0  0  3  0  0  0  0  0  0
  190.1850  175.7600  135.4480 O   0  0  0  0  0  1  0  0  0  0  0  0
  189.6930  174.0430  137.0500 C   0  0  0  0  0  2  0  0  0  0  0  0
  189.9940  173.2910  135.9150 O   0  0  0  0  0  1  0  0  0  0  0  0
  190.8720  175.7210  138.6910 O   0  0  0  0  0  0  0  0  0  0  0  0
  192.1270  176.3330  138.6820 C   0  0  0  0  0  2  0  0  0  0  0  0
  193.6600  176.3490  136.7560 C   0  0  2  0  0  0  0  0  0  0  0  0
  193.0880  175.5040  137.8560 C   0  0  1  0  0  3  0  0  0  0  0  0
  194.3550  176.0280  137.9620 O   0  0  0  0  0  0  0  0  0  0  0  0
  194.7450  176.1780  135.6980 C   0  0  2  0  0  3  0  0  0  0  0  0
  193.6550  175.3440  135.7430 O   0  0  0  0  0  0  0  0  0  0  0  0
  196.9210  175.9810  135.3530 C   0  0  0  0  0  1  0  0  0  0  0  0
  195.8760  175.4680  136.1200 O   0  0  0  0  0  0  0  0  0  0  0  0
  188.7650  176.8490  139.8140 O   0  0  0  0  0  0  0  0  0  0  0  0
  189.0480  177.8420  140.7680 C   0  0  0  0  0  2  0  0  0  0  0  0
  189.5170  177.1880  142.0610 C   0  0  1  0  0  3  0  0  0  0  0  0
  189.8170  178.2780  143.1020 C   0  0  0  0  0  0  0  0  0  0  0  0
  190.3330  178.0060  144.5220 C   0  0  0  0  0  2  0  0  0  0  0  0
  188.5850  177.3680  143.2100 C   0  0  1  0  0  3  0  0  0  0  0  0
  191.2550  177.8280  143.3930 C   0  0  0  0  0  2  0  0  0  0  0  0
  187.4290  178.1040  142.8750 O   0  0  0  0  0  0  0  0  0  0  0  0
  186.3510  177.6720  143.6850 C   0  0  1  0  0  3  0  0  0  0  0  0
  186.7440  177.4610  145.1450 C   0  0  0  0  0  2  0  0  0  0  0  0
  185.9030  178.3430  146.0460 C   0  0  0  0  0  1  0  0  0  0  0  0
  185.1100  178.5520  143.5550 C   0  0  0  0  0  2  0  0  0  0  0  0
  184.3220  178.1040  142.4950 O   0  0  0  0  0  1  0  0  0  0  0  0
  2  1  1  1  0  0  0
  2 25  1  0  0  0  0
  4  3  1  6  0  0  0
  4  7  1  0  0  0  0
  4  6  1  0  0  0  0
  5  8  1  0  0  0  0
  5  9  1  1  0  0  0
  6  2  1  1  0  0  0
  6  8  1  0  0  0  0
  7  5  1  0  0  0  0
 10  9  1  0  0  0  0
 11  2  1  0  0  0  0
 11 16  1  1  0  0  0
 12 13  1  6  0  0  0
 12 14  1  0  0  0  0
 12 11  1  0  0  0  0
 15 14  1  0  0  0  0
 17 16  1  0  0  0  0
 18 22  1  6  0  0  0
 18 19  1  0  0  0  0
 18 20  1  0  0  0  0
 19 20  1  0  0  0  0
 19 17  1  1  0  0  0
 21 22  1  0  0  0  0
 21 24  1  1  0  0  0
 21 18  1  0  0  0  0
 23 24  1  0  0  0  0
 25 26  1  0  0  0  0
 27 26  1  6  0  0  0
 27 28  1  0  0  0  0
 27 30  1  0  0  0  0
 28 30  1  0  0  0  0
 28 31  1  0  0  0  0
 28 29  1  0  0  0  0
 30 32  1  6  0  0  0
 31 29  1  0  0  0  0
 32 33  1  0  0  0  0
 33 36  1  1  0  0  0
 33 34  1  0  0  0  0
 34 35  1  0  0  0  0
 37 36  1  0  0  0  0
M  END
>  <MODEL>
6

>  <REMARK>
 VINA RESULT:      -6.5      2.129      5.545
  Name = 
  16 active torsions:
  status: ('A' for Active; 'I' for Inactive)
    1  A    between atoms: C_1  and  C_36
    2  A    between atoms: C_3  and  C_21
    3  A    between atoms: C_4  and  C_10
    4  A    between atoms: C_4  and  C_22
    5  A    between atoms: C_6  and  C_31
    6  A    between atoms: C_7  and  C_33
    7  A    between atoms: C_10  and  O_14
    8  A    between atoms: C_10  and  C_20
    9  A    between atoms: C_11  and  C_33
   10  A    between atoms: O_14  and  C_31
   11  A    between atoms: C_17  and  O_26
   12  A    between atoms: C_18  and  O_19
   13  A    between atoms: C_20  and  C_24
   14  A    between atoms: C_20  and  O_29
   15  A    between atoms: O_26  and  C_33
   16  A    between atoms: O_29  and  C_36
                            x       y       z     vdW  Elec       q    Type
                         _______ _______ _______ _____ _____    ______ ____

>  <TORSDO>
F 16

$$$$
=
 OpenBabel10262423063D

 37 41  0  0  1  0  0  0  0  0999 V2000
  183.0120  179.6310  139.3610 O   0  0  0  0  0  1  0  0  0  0  0  0
  182.2250  178.5120  139.6910 C   0  0  1  0  0  0  0  0  0  0  0  0
  179.8420  180.7550  138.6360 O   0  0  0  0  0  1  0  0  0  0  0  0
  180.6500  180.4970  139.7440 C   0  0  2  0  0  3  0  0  0  0  0  0
  179.6490  179.8700  141.6210 C   0  0  1  0  0  3  0  0  0  0  0  0
  180.7910  179.0080  139.9400 C   0  0  2  0  0  3  0  0  0  0  0  0
  180.0460  181.0040  140.8920 O   0  0  0  0  0  0  0  0  0  0  0  0
  180.4050  178.7470  141.2540 O   0  0  0  0  0  0  0  0  0  0  0  0
  179.7700  180.1290  143.1180 C   0  0  0  0  0  2  0  0  0  0  0  0
  179.4370  178.8860  143.9290 C   0  0  0  0  0  1  0  0  0  0  0  0
  182.2260  177.5030  138.5020 C   0  0  2  0  0  3  0  0  0  0  0  0
  180.9510  176.6610  138.3100 C   0  0  1  0  0  3  0  0  0  0  0  0
  180.6100  176.5350  136.9620 O   0  0  0  0  0  1  0  0  0  0  0  0
  181.0360  175.2960  138.9710 C   0  0  0  0  0  2  0  0  0  0  0  0
  180.4290  175.3390  140.2270 O   0  0  0  0  0  1  0  0  0  0  0  0
  183.3400  176.6590  138.5540 O   0  0  0  0  0  0  0  0  0  0  0  0
  184.0530  176.9260  137.3840 C   0  0  0  0  0  2  0  0  0  0  0  0
  186.1880  177.9080  136.6490 C   0  0  2  0  0  0  0  0  0  0  0  0
  185.5230  177.0830  137.7110 C   0  0  1  0  0  3  0  0  0  0  0  0
  185.8060  178.4100  137.9310 O   0  0  0  0  0  0  0  0  0  0  0  0
  187.5660  178.5320  136.4510 C   0  0  2  0  0  3  0  0  0  0  0  0
  187.4090  177.1750  136.5950 O   0  0  0  0  0  0  0  0  0  0  0  0
  189.4090  178.4390  137.6700 C   0  0  0  0  0  1  0  0  0  0  0  0
  188.1540  179.0460  137.6130 O   0  0  0  0  0  0  0  0  0  0  0  0
  182.6900  177.9120  140.8910 O   0  0  0  0  0  0  0  0  0  0  0  0
  184.0550  178.1960  141.0720 C   0  0  0  0  0  2  0  0  0  0  0  0
  184.2310  179.1050  142.2810 C   0  0  1  0  0  3  0  0  0  0  0  0
  184.1930  178.2590  143.5620 C   0  0  0  0  0  0  0  0  0  0  0  0
  184.3170  178.8270  144.9840 C   0  0  0  0  0  2  0  0  0  0  0  0
  185.4960  178.8790  143.0360 C   0  0  1  0  0  3  0  0  0  0  0  0
  183.0680  179.0510  144.2430 C   0  0  0  0  0  2  0  0  0  0  0  0
  186.3020  177.8670  142.4750 O   0  0  0  0  0  0  0  0  0  0  0  0
  187.5690  177.8780  143.1070 C   0  0  1  0  0  3  0  0  0  0  0  0
  187.6920  176.8440  144.2240 C   0  0  0  0  0  2  0  0  0  0  0  0
  187.7960  177.5350  145.5680 C   0  0  0  0  0  1  0  0  0  0  0  0
  188.7330  177.7880  142.1240 C   0  0  0  0  0  2  0  0  0  0  0  0
  188.5080  178.6420  141.0450 O   0  0  0  0  0  1  0  0  0  0  0  0
  2  1  1  6  0  0  0
  2 25  1  0  0  0  0
  4  3  1  6  0  0  0
  4  6  1  0  0  0  0
  4  7  1  0  0  0  0
  5  9  1  1  0  0  0
  6  2  1  1  0  0  0
  6  8  1  0  0  0  0
  7  5  1  0  0  0  0
  8  5  1  0  0  0  0
  9 10  1  0  0  0  0
 11 16  1  1  0  0  0
 11  2  1  0  0  0  0
 12 13  1  6  0  0  0
 12 11  1  0  0  0  0
 12 14  1  0  0  0  0
 14 15  1  0  0  0  0
 17 16  1  0  0  0  0
 18 22  1  1  0  0  0
 18 19  1  0  0  0  0
 18 20  1  0  0  0  0
 19 17  1  6  0  0  0
 19 20  1  0  0  0  0
 21 22  1  0  0  0  0
 21 18  1  0  0  0  0
 21 24  1  1  0  0  0
 24 23  1  0  0  0  0
 25 26  1  0  0  0  0
 27 26  1  6  0  0  0
 27 30  1  0  0  0  0
 27 28  1  0  0  0  0
 28 31  1  0  0  0  0
 28 29  1  0  0  0  0
 30 32  1  6  0  0  0
 30 28  1  0  0  0  0
 31 29  1  0  0  0  0
 32 33  1  0  0  0  0
 33 36  1  6  0  0  0
 33 34  1  0  0  0  0
 34 35  1  0  0  0  0
 37 36  1  0  0  0  0
M  END
>  <MODEL>
7

>  <REMARK>
 VINA RESULT:      -6.3      3.313      7.939
  Name = 
  16 active torsions:
  status: ('A' for Active; 'I' for Inactive)
    1  A    between atoms: C_1  and  C_36
    2  A    between atoms: C_3  and  C_21
    3  A    between atoms: C_4  and  C_10
    4  A    between atoms: C_4  and  C_22
    5  A    between atoms: C_6  and  C_31
    6  A    between atoms: C_7  and  C_33
    7  A    between atoms: C_10  and  O_14
    8  A    between atoms: C_10  and  C_20
    9  A    between atoms: C_11  and  C_33
   10  A    between atoms: O_14  and  C_31
   11  A    between atoms: C_17  and  O_26
   12  A    between atoms: C_18  and  O_19
   13  A    between atoms: C_20  and  C_24
   14  A    between atoms: C_20  and  O_29
   15  A    between atoms: O_26  and  C_33
   16  A    between atoms: O_29  and  C_36
                            x       y       z     vdW  Elec       q    Type
                         _______ _______ _______ _____ _____    ______ ____

>  <TORSDO>
F 16

$$$$
=
 OpenBabel10262423063D

 37 41  0  0  1  0  0  0  0  0999 V2000
  189.0980  178.9100  140.9130 O   0  0  0  0  0  1  0  0  0  0  0  0
  188.9900  177.5360  140.6270 C   0  0  1  0  0  0  0  0  0  0  0  0
  189.5520  178.3480  137.3340 O   0  0  0  0  0  1  0  0  0  0  0  0
  188.6590  178.6340  138.3660 C   0  0  2  0  0  3  0  0  0  0  0  0
  186.5680  177.9290  138.1400 C   0  0  1  0  0  3  0  0  0  0  0  0
  188.4300  177.3990  139.2020 C   0  0  2  0  0  3  0  0  0  0  0  0
  187.4260  178.9990  137.8320 O   0  0  0  0  0  0  0  0  0  0  0  0
  187.0500  177.1990  139.2370 O   0  0  0  0  0  0  0  0  0  0  0  0
  185.1580  178.4370  138.4160 C   0  0  0  0  0  2  0  0  0  0  0  0
  185.0200  178.9570  139.8390 C   0  0  0  0  0  1  0  0  0  0  0  0
  190.4010  176.8760  140.6970 C   0  0  2  0  0  3  0  0  0  0  0  0
  191.1260  176.9360  142.0550 C   0  0  1  0  0  3  0  0  0  0  0  0
  190.8650  178.1310  142.7280 O   0  0  0  0  0  1  0  0  0  0  0  0
  190.8230  175.7420  142.9430 C   0  0  0  0  0  2  0  0  0  0  0  0
  191.7610  175.6670  143.9720 O   0  0  0  0  0  1  0  0  0  0  0  0
  191.2430  177.3720  139.6960 O   0  0  0  0  0  0  0  0  0  0  0  0
  191.6850  176.2450  139.0020 C   0  0  0  0  0  2  0  0  0  0  0  0
  193.4060  175.3800  137.4680 C   0  0  2  0  0  0  0  0  0  0  0  0
  192.9140  176.5990  138.1900 C   0  0  1  0  0  3  0  0  0  0  0  0
  192.6480  176.4220  136.8530 O   0  0  0  0  0  0  0  0  0  0  0  0
  194.4730  175.0880  136.4170 C   0  0  2  0  0  3  0  0  0  0  0  0
  194.8000  175.6280  137.6370 O   0  0  0  0  0  0  0  0  0  0  0  0
  195.9960  176.1900  135.2520 C   0  0  0  0  0  1  0  0  0  0  0  0
  194.6170  176.0730  135.4320 O   0  0  0  0  0  0  0  0  0  0  0  0
  188.0730  176.9140  141.5150 O   0  0  0  0  0  0  0  0  0  0  0  0
  187.6990  177.8150  142.5280 C   0  0  0  0  0  2  0  0  0  0  0  0
  187.6140  177.0800  143.8590 C   0  0  1  0  0  3  0  0  0  0  0  0
  188.0770  178.0150  144.9860 C   0  0  0  0  0  0  0  0  0  0  0  0
  188.1510  177.6210  146.4680 C   0  0  0  0  0  2  0  0  0  0  0  0
  186.6010  177.6350  144.8000 C   0  0  1  0  0  3  0  0  0  0  0  0
  189.1520  177.0720  145.5440 C   0  0  0  0  0  2  0  0  0  0  0  0
  185.8980  178.7370  144.2700 O   0  0  0  0  0  0  0  0  0  0  0  0
  184.8490  179.0890  145.1530 C   0  0  1  0  0  3  0  0  0  0  0  0
  183.4730  178.6530  144.6560 C   0  0  0  0  0  2  0  0  0  0  0  0
  183.4010  178.7680  143.1470 C   0  0  0  0  0  1  0  0  0  0  0  0
  185.0980  178.6430  146.5920 C   0  0  0  0  0  2  0  0  0  0  0  0
  185.6760  179.6850  147.3170 O   0  0  0  0  0  1  0  0  0  0  0  0
  2 11  1  0  0  0  0
  2  1  1  1  0  0  0
  2 25  1  0  0  0  0
  4  3  1  6  0  0  0
  4  6  1  0  0  0  0
  5  9  1  1  0  0  0
  5  8  1  0  0  0  0
  6  8  1  0  0  0  0
  6  2  1  1  0  0  0
  7  5  1  0  0  0  0
  7  4  1  0  0  0  0
  9 10  1  0  0  0  0
 11 16  1  6  0  0  0
 11 12  1  0  0  0  0
 12 13  1  1  0  0  0
 12 14  1  0  0  0  0
 14 15  1  0  0  0  0
 17 16  1  0  0  0  0
 18 20  1  6  0  0  0
 18 22  1  0  0  0  0
 18 19  1  0  0  0  0
 19 17  1  1  0  0  0
 20 19  1  0  0  0  0
 21 24  1  6  0  0  0
 21 18  1  0  0  0  0
 21 22  1  0  0  0  0
 23 24  1  0  0  0  0
 25 26  1  0  0  0  0
 27 26  1  6  0  0  0
 27 30  1  0  0  0  0
 27 28  1  0  0  0  0
 28 31  1  0  0  0  0
 28 29  1  0  0  0  0
 30 32  1  6  0  0  0
 30 28  1  0  0  0  0
 31 29  1  0  0  0  0
 32 33  1  0  0  0  0
 33 34  1  6  0  0  0
 33 36  1  0  0  0  0
 35 34  1  0  0  0  0
 36 37  1  0  0  0  0
M  END
>  <MODEL>
8

>  <REMARK>
 VINA RESULT:      -6.3      1.679      4.586
  Name = 
  16 active torsions:
  status: ('A' for Active; 'I' for Inactive)
    1  A    between atoms: C_1  and  C_36
    2  A    between atoms: C_3  and  C_21
    3  A    between atoms: C_4  and  C_10
    4  A    between atoms: C_4  and  C_22
    5  A    between atoms: C_6  and  C_31
    6  A    between atoms: C_7  and  C_33
    7  A    between atoms: C_10  and  O_14
    8  A    between atoms: C_10  and  C_20
    9  A    between atoms: C_11  and  C_33
   10  A    between atoms: O_14  and  C_31
   11  A    between atoms: C_17  and  O_26
   12  A    between atoms: C_18  and  O_19
   13  A    between atoms: C_20  and  C_24
   14  A    between atoms: C_20  and  O_29
   15  A    between atoms: O_26  and  C_33
   16  A    between atoms: O_29  and  C_36
                            x       y       z     vdW  Elec       q    Type
                         _______ _______ _______ _____ _____    ______ ____

>  <TORSDO>
F 16

$$$$
=
 OpenBabel10262423063D

 37 41  0  0  1  0  0  0  0  0999 V2000
  188.1450  179.8070  141.5720 O   0  0  0  0  0  1  0  0  0  0  0  0
  187.9460  178.5300  141.0170 C   0  0  1  0  0  0  0  0  0  0  0  0
  187.1420  178.6330  137.6750 O   0  0  0  0  0  1  0  0  0  0  0  0
  187.6990  177.7630  138.6130 C   0  0  2  0  0  3  0  0  0  0  0  0
  189.8420  177.2390  138.3820 C   0  0  1  0  0  3  0  0  0  0  0  0
  188.5380  178.5400  139.5980 C   0  0  2  0  0  3  0  0  0  0  0  0
  188.5500  176.8660  137.9730 O   0  0  0  0  0  0  0  0  0  0  0  0
  189.8000  177.9490  139.5910 O   0  0  0  0  0  0  0  0  0  0  0  0
  190.7350  176.0120  138.5140 C   0  0  0  0  0  2  0  0  0  0  0  0
  192.2080  176.3790  138.4220 C   0  0  0  0  0  1  0  0  0  0  0  0
  188.6870  177.4630  141.8810 C   0  0  2  0  0  3  0  0  0  0  0  0
  187.8600  176.7710  142.9820 C   0  0  1  0  0  3  0  0  0  0  0  0
  188.3010  175.4680  143.2190 O   0  0  0  0  0  1  0  0  0  0  0  0
  187.8120  177.5650  144.2760 C   0  0  0  0  0  2  0  0  0  0  0  0
  186.7430  177.1300  145.0590 O   0  0  0  0  0  1  0  0  0  0  0  0
  189.8590  177.9860  142.4370 O   0  0  0  0  0  0  0  0  0  0  0  0
  190.7980  176.9590  142.3340 C   0  0  0  0  0  2  0  0  0  0  0  0
  190.9530  176.7980  144.7860 C   0  0  2  0  0  0  0  0  0  0  0  0
  191.7350  177.0090  143.5230 C   0  0  1  0  0  3  0  0  0  0  0  0
  191.7400  175.7880  144.1550 O   0  0  0  0  0  0  0  0  0  0  0  0
  191.2890  176.6020  146.2610 C   0  0  2  0  0  3  0  0  0  0  0  0
  191.6590  177.7410  145.5890 O   0  0  0  0  0  0  0  0  0  0  0  0
  192.4330  175.6380  147.8900 C   0  0  0  0  0  1  0  0  0  0  0  0
  192.4310  175.8310  146.5090 O   0  0  0  0  0  0  0  0  0  0  0  0
  186.5590  178.2460  140.9050 O   0  0  0  0  0  0  0  0  0  0  0  0
  185.8210  179.1380  141.7020 C   0  0  0  0  0  2  0  0  0  0  0  0
  184.7170  178.3810  142.4290 C   0  0  1  0  0  3  0  0  0  0  0  0
  183.6050  179.3620  142.8270 C   0  0  0  0  0  0  0  0  0  0  0  0
  182.3340  178.9710  143.5960 C   0  0  0  0  0  2  0  0  0  0  0  0
  183.4200  178.3390  141.6970 C   0  0  1  0  0  3  0  0  0  0  0  0
  183.6110  179.0120  144.3210 C   0  0  0  0  0  2  0  0  0  0  0  0
  183.4650  179.0030  140.4530 O   0  0  0  0  0  0  0  0  0  0  0  0
  182.8060  178.2130  139.4800 C   0  0  1  0  0  3  0  0  0  0  0  0
  182.5540  176.7800  139.9410 C   0  0  0  0  0  2  0  0  0  0  0  0
  181.1270  176.3740  139.6310 C   0  0  0  0  0  1  0  0  0  0  0  0
  181.5370  178.8630  138.9340 C   0  0  0  0  0  2  0  0  0  0  0  0
  181.5950  180.2430  139.1230 O   0  0  0  0  0  1  0  0  0  0  0  0
  2  1  1  1  0  0  0
  2 11  1  0  0  0  0
  4  3  1  6  0  0  0
  4  6  1  0  0  0  0
  5  9  1  1  0  0  0
  5  8  1  0  0  0  0
  6  2  1  1  0  0  0
  7  5  1  0  0  0  0
  7  4  1  0  0  0  0
  8  6  1  0  0  0  0
 10  9  1  0  0  0  0
 11 16  1  1  0  0  0
 11 12  1  0  0  0  0
 12 13  1  1  0  0  0
 12 14  1  0  0  0  0
 14 15  1  0  0  0  0
 17 16  1  0  0  0  0
 18 20  1  1  0  0  0
 18 22  1  0  0  0  0
 18 21  1  0  0  0  0
 19 17  1  6  0  0  0
 19 20  1  0  0  0  0
 19 18  1  0  0  0  0
 21 24  1  6  0  0  0
 22 21  1  0  0  0  0
 24 23  1  0  0  0  0
 25  2  1  0  0  0  0
 25 26  1  0  0  0  0
 27 26  1  6  0  0  0
 27 28  1  0  0  0  0
 28 29  1  0  0  0  0
 28 31  1  0  0  0  0
 29 31  1  0  0  0  0
 30 32  1  6  0  0  0
 30 27  1  0  0  0  0
 30 28  1  0  0  0  0
 33 36  1  1  0  0  0
 33 34  1  0  0  0  0
 33 32  1  0  0  0  0
 35 34  1  0  0  0  0
 36 37  1  0  0  0  0
M  END
>  <MODEL>
9

>  <REMARK>
 VINA RESULT:      -6.3      2.067      5.793
  Name = 
  16 active torsions:
  status: ('A' for Active; 'I' for Inactive)
    1  A    between atoms: C_1  and  C_36
    2  A    between atoms: C_3  and  C_21
    3  A    between atoms: C_4  and  C_10
    4  A    between atoms: C_4  and  C_22
    5  A    between atoms: C_6  and  C_31
    6  A    between atoms: C_7  and  C_33
    7  A    between atoms: C_10  and  O_14
    8  A    between atoms: C_10  and  C_20
    9  A    between atoms: C_11  and  C_33
   10  A    between atoms: O_14  and  C_31
   11  A    between atoms: C_17  and  O_26
   12  A    between atoms: C_18  and  O_19
   13  A    between atoms: C_20  and  C_24
   14  A    between atoms: C_20  and  O_29
   15  A    between atoms: O_26  and  C_33
   16  A    between atoms: O_29  and  C_36
                            x       y       z     vdW  Elec       q    Type
                         _______ _______ _______ _____ _____    ______ ____

>  <TORSDO>
F 16

$$$$
