=
 OpenBabel10262419383D

 31 35  0  0  1  0  0  0  0  0999 V2000
  184.0900  179.4360  144.0690 C   0  0  0  0  0  2  0  0  0  0  0  0
  186.6100  177.6930  142.0110 O   0  0  0  0  0  0  0  0  0  0  0  0
  186.1200  178.1790  143.2360 C   0  0  1  0  0  3  0  0  0  0  0  0
  185.6310  179.0800  145.9810 C   0  0  0  0  0  2  0  0  0  0  0  0
  188.6930  176.9880  143.2470 C   0  0  1  0  0  3  0  0  0  0  0  0
  184.1910  178.9650  145.5100 C   0  0  0  0  0  2  0  0  0  0  0  0
  188.6550  177.6310  140.6960 C   0  0  1  0  0  3  0  0  0  0  0  0
  187.6590  176.3340  144.1740 C   0  0  0  0  0  2  0  0  0  0  0  0
  188.0120  177.7310  142.0790 C   0  0  1  0  0  0  0  0  0  0  0  0
  184.6190  178.3940  143.0930 C   0  0  0  0  0  2  0  0  0  0  0  0
  186.3870  177.1730  144.3810 C   0  0  1  0  0  3  0  0  0  0  0  0
  186.4040  177.7760  145.7920 C   0  0  0  0  0  2  0  0  0  0  0  0
  188.6630  178.9530  141.4580 C   0  0  0  0  0  2  0  0  0  0  0  0
  189.6540  177.8240  143.9740 N   0  0  0  0  0  0  0  0  0  0  0  0
  191.7410  176.0950  147.2450 C   0  0  0  0  0  0  0  0  0  0  0  0
  190.0030  177.5330  146.3790 C   0  0  0  0  0  3  0  0  0  0  0  0
  191.9530  175.8160  143.2450 Cl  0  0  0  0  0  0  0  0  0  0  0  0
  192.5830  175.3840  148.6040 Cl  0  0  0  0  0  0  0  0  0  0  0  0
  190.6770  176.9690  147.4640 C   0  0  0  0  0  3  0  0  0  0  0  0
  191.4590  176.3370  144.8490 C   0  0  0  0  0  0  0  0  0  0  0  0
  190.3870  177.2350  145.0630 C   0  0  0  0  0  0  0  0  0  0  0  0
  192.1250  175.7750  145.9430 C   0  0  0  0  0  3  0  0  0  0  0  0
  189.9080  179.2010  143.5520 C   0  0  0  0  0  2  0  0  0  0  0  0
  191.3160  179.6190  143.9320 C   0  0  0  0  0  1  0  0  0  0  0  0
  190.0500  177.0110  140.7180 C   0  0  0  0  0  2  0  0  0  0  0  0
  190.5410  176.7560  139.3350 C   0  0  0  0  0  0  0  0  0  0  0  0
  190.0830  176.3780  136.9850 C   0  0  0  0  0  3  0  0  0  0  0  0
  189.6270  176.6260  138.2840 C   0  0  0  0  0  3  0  0  0  0  0  0
  191.4530  176.2600  136.7370 C   0  0  0  0  0  3  0  0  0  0  0  0
  192.3690  176.3870  137.7860 C   0  0  0  0  0  3  0  0  0  0  0  0
  191.9120  176.6350  139.0850 C   0  0  0  0  0  3  0  0  0  0  0  0
  1  6  1  0  0  0  0
  2  9  1  0  0  0  0
  2  3  1  0  0  0  0
  3 10  1  6  0  0  0
  3 11  1  0  0  0  0
  5 14  1  1  0  0  0
  5  8  1  0  0  0  0
  6  4  1  0  0  0  0
  7 25  1  1  0  0  0
  7 13  1  0  0  0  0
  7  9  1  0  0  0  0
  9 13  1  1  0  0  0
  9  5  1  0  0  0  0
 10  1  1  0  0  0  0
 11  8  1  6  0  0  0
 11 12  1  0  0  0  0
 12  4  1  0  0  0  0
 14 21  1  0  0  0  0
 15 19  1  0  0  0  0
 15 18  1  0  0  0  0
 16 19  2  0  0  0  0
 17 20  1  0  0  0  0
 20 21  2  0  0  0  0
 20 22  1  0  0  0  0
 21 16  1  0  0  0  0
 22 15  2  0  0  0  0
 23 24  1  0  0  0  0
 23 14  1  0  0  0  0
 26 25  1  0  0  0  0
 27 28  1  0  0  0  0
 28 26  2  0  0  0  0
 29 27  2  0  0  0  0
 29 30  1  0  0  0  0
 30 31  2  0  0  0  0
 31 26  1  0  0  0  0
M  END
>  <MODEL>
1

>  <REMARK>
 VINA RESULT:      -8.9      0.000      0.000
  Name = 
  5 active torsions:
  status: ('A' for Active; 'I' for Inactive)
    1  A    between atoms: C_5  and  C_30
    2  A    between atoms: C_7  and  N_9
    3  A    between atoms: N_9  and  C_15
    4  A    between atoms: N_9  and  C_22
    5  A    between atoms: C_17  and  C_30
                            x       y       z     vdW  Elec       q    Type
                         _______ _______ _______ _____ _____    ______ ____

>  <TORSDO>
F 5

$$$$
=
 OpenBabel10262419383D

 31 35  0  0  1  0  0  0  0  0999 V2000
  186.7250  178.7190  147.5910 C   0  0  0  0  0  2  0  0  0  0  0  0
  185.4950  178.0840  144.1690 O   0  0  0  0  0  0  0  0  0  0  0  0
  186.5040  178.1020  145.1480 C   0  0  1  0  0  3  0  0  0  0  0  0
  188.9620  178.0610  146.7420 C   0  0  0  0  0  2  0  0  0  0  0  0
  187.2640  177.3830  142.5120 C   0  0  1  0  0  3  0  0  0  0  0  0
  187.9530  177.8640  147.8590 C   0  0  0  0  0  2  0  0  0  0  0  0
  185.1050  178.7390  141.8590 C   0  0  1  0  0  3  0  0  0  0  0  0
  187.5470  176.3290  143.5920 C   0  0  0  0  0  2  0  0  0  0  0  0
  186.1120  178.3220  142.9310 C   0  0  1  0  0  0  0  0  0  0  0  0
  185.8340  178.1090  146.5160 C   0  0  0  0  0  2  0  0  0  0  0  0
  187.4160  176.8570  145.0300 C   0  0  1  0  0  3  0  0  0  0  0  0
  188.8160  177.0110  145.6420 C   0  0  0  0  0  2  0  0  0  0  0  0
  186.0740  179.7590  142.4470 C   0  0  0  0  0  2  0  0  0  0  0  0
  188.4700  178.1080  142.1000 N   0  0  0  0  0  0  0  0  0  0  0  0
  190.3000  177.1140  138.3970 C   0  0  0  0  0  0  0  0  0  0  0  0
  188.7390  178.4310  139.6880 C   0  0  0  0  0  3  0  0  0  0  0  0
  190.6810  175.8830  142.2000 Cl  0  0  0  0  0  0  0  0  0  0  0  0
  191.0510  176.7240  136.8650 Cl  0  0  0  0  0  0  0  0  0  0  0  0
  189.3340  178.1180  138.4650 C   0  0  0  0  0  3  0  0  0  0  0  0
  190.0860  176.7340  140.7830 C   0  0  0  0  0  0  0  0  0  0  0  0
  189.0970  177.7410  140.8570 C   0  0  0  0  0  0  0  0  0  0  0  0
  190.6790  176.4300  139.5530 C   0  0  0  0  0  3  0  0  0  0  0  0
  188.9770  179.2210  142.9000 C   0  0  0  0  0  2  0  0  0  0  0  0
  190.3840  178.9250  143.3860 C   0  0  0  0  0  1  0  0  0  0  0  0
  185.5370  178.3680  140.4430 C   0  0  0  0  0  2  0  0  0  0  0  0
  184.3980  178.4930  139.4890 C   0  0  0  0  0  0  0  0  0  0  0  0
  182.2890  179.5110  138.8680 C   0  0  0  0  0  3  0  0  0  0  0  0
  183.3640  179.3960  139.7550 C   0  0  0  0  0  3  0  0  0  0  0  0
  182.2480  178.7210  137.7150 C   0  0  0  0  0  3  0  0  0  0  0  0
  183.2790  177.8150  137.4490 C   0  0  0  0  0  3  0  0  0  0  0  0
  184.3530  177.7000  138.3370 C   0  0  0  0  0  3  0  0  0  0  0  0
  1  6  1  0  0  0  0
  2  3  1  0  0  0  0
  3 10  1  1  0  0  0
  4  6  1  0  0  0  0
  5 14  1  1  0  0  0
  5  9  1  0  0  0  0
  5  8  1  0  0  0  0
  7 25  1  6  0  0  0
  7 13  1  0  0  0  0
  7  9  1  0  0  0  0
  9 13  1  1  0  0  0
  9  2  1  0  0  0  0
 10  1  1  0  0  0  0
 11  8  1  6  0  0  0
 11  3  1  0  0  0  0
 11 12  1  0  0  0  0
 12  4  1  0  0  0  0
 14 23  1  0  0  0  0
 15 19  2  0  0  0  0
 15 22  1  0  0  0  0
 16 21  2  0  0  0  0
 18 15  1  0  0  0  0
 19 16  1  0  0  0  0
 20 21  1  0  0  0  0
 20 17  1  0  0  0  0
 21 14  1  0  0  0  0
 22 20  2  0  0  0  0
 23 24  1  0  0  0  0
 26 28  1  0  0  0  0
 26 25  1  0  0  0  0
 27 28  2  0  0  0  0
 29 27  1  0  0  0  0
 30 29  2  0  0  0  0
 30 31  1  0  0  0  0
 31 26  2  0  0  0  0
M  END
>  <MODEL>
2

>  <REMARK>
 VINA RESULT:      -7.8      2.764      5.635
  Name = 
  5 active torsions:
  status: ('A' for Active; 'I' for Inactive)
    1  A    between atoms: C_5  and  C_30
    2  A    between atoms: C_7  and  N_9
    3  A    between atoms: N_9  and  C_15
    4  A    between atoms: N_9  and  C_22
    5  A    between atoms: C_17  and  C_30
                            x       y       z     vdW  Elec       q    Type
                         _______ _______ _______ _____ _____    ______ ____

>  <TORSDO>
F 5

$$$$
=
 OpenBabel10262419383D

 31 35  0  0  1  0  0  0  0  0999 V2000
  192.6940  175.9190  135.6930 C   0  0  0  0  0  2  0  0  0  0  0  0
  191.0600  175.6290  138.9900 O   0  0  0  0  0  0  0  0  0  0  0  0
  191.0540  175.9400  137.6180 C   0  0  1  0  0  3  0  0  0  0  0  0
  190.5360  176.8350  134.8770 C   0  0  0  0  0  2  0  0  0  0  0  0
  188.6810  176.4650  139.0790 C   0  0  1  0  0  3  0  0  0  0  0  0
  191.6460  175.8380  134.5940 C   0  0  0  0  0  2  0  0  0  0  0  0
  190.3320  176.5370  141.1260 C   0  0  1  0  0  3  0  0  0  0  0  0
  188.5280  175.5000  137.8950 C   0  0  0  0  0  2  0  0  0  0  0  0
  190.1290  176.4770  139.6120 C   0  0  1  0  0  0  0  0  0  0  0  0
  192.2320  175.2260  136.9680 C   0  0  0  0  0  2  0  0  0  0  0  0
  189.7390  175.4760  136.9480 C   0  0  1  0  0  3  0  0  0  0  0  0
  189.3770  176.2030  135.6450 C   0  0  0  0  0  2  0  0  0  0  0  0
  190.7070  177.7270  140.2480 C   0  0  0  0  0  2  0  0  0  0  0  0
  188.1700  177.8080  138.7820 N   0  0  0  0  0  0  0  0  0  0  0  0
  184.1610  178.7540  139.8210 C   0  0  0  0  0  0  0  0  0  0  0  0
  186.5080  178.6270  140.3810 C   0  0  0  0  0  3  0  0  0  0  0  0
  186.0200  177.3820  136.5370 Cl  0  0  0  0  0  0  0  0  0  0  0  0
  182.5170  179.1590  140.2610 Cl  0  0  0  0  0  0  0  0  0  0  0  0
  185.1960  178.9470  140.7360 C   0  0  0  0  0  3  0  0  0  0  0  0
  185.7490  177.9270  138.1840 C   0  0  0  0  0  0  0  0  0  0  0  0
  186.8020  178.1070  139.1110 C   0  0  0  0  0  0  0  0  0  0  0  0
  184.4380  178.2540  138.5480 C   0  0  0  0  0  3  0  0  0  0  0  0
  189.0550  178.8330  138.2320 C   0  0  0  0  0  2  0  0  0  0  0  0
  188.5760  179.2630  136.8580 C   0  0  0  0  0  1  0  0  0  0  0  0
  189.0520  176.8450  141.8990 C   0  0  0  0  0  2  0  0  0  0  0  0
  189.3340  177.0060  143.3530 C   0  0  0  0  0  0  0  0  0  0  0  0
  188.5590  177.5130  145.5920 C   0  0  0  0  0  3  0  0  0  0  0  0
  188.2990  177.3520  144.2280 C   0  0  0  0  0  3  0  0  0  0  0  0
  189.8560  177.3300  146.0820 C   0  0  0  0  0  3  0  0  0  0  0  0
  190.8930  176.9870  145.2090 C   0  0  0  0  0  3  0  0  0  0  0  0
  190.6310  176.8270  143.8440 C   0  0  0  0  0  3  0  0  0  0  0  0
  1 10  1  0  0  0  0
  2  9  1  0  0  0  0
  3 10  1  6  0  0  0
  3  2  1  0  0  0  0
  4 12  1  0  0  0  0
  5 14  1  6  0  0  0
  5  9  1  0  0  0  0
  6  4  1  0  0  0  0
  6  1  1  0  0  0  0
  7 25  1  1  0  0  0
  8  5  1  0  0  0  0
  9 13  1  6  0  0  0
  9  7  1  0  0  0  0
 11 12  1  6  0  0  0
 11  3  1  0  0  0  0
 11  8  1  0  0  0  0
 13  7  1  0  0  0  0
 14 21  1  0  0  0  0
 15 18  1  0  0  0  0
 15 19  1  0  0  0  0
 16 19  2  0  0  0  0
 17 20  1  0  0  0  0
 20 22  1  0  0  0  0
 20 21  2  0  0  0  0
 21 16  1  0  0  0  0
 22 15  2  0  0  0  0
 23 14  1  0  0  0  0
 24 23  1  0  0  0  0
 25 26  1  0  0  0  0
 26 31  2  0  0  0  0
 26 28  1  0  0  0  0
 27 29  1  0  0  0  0
 28 27  2  0  0  0  0
 30 29  2  0  0  0  0
 31 30  1  0  0  0  0
M  END
>  <MODEL>
3

>  <REMARK>
 VINA RESULT:      -7.3      3.782      8.324
  Name = 
  5 active torsions:
  status: ('A' for Active; 'I' for Inactive)
    1  A    between atoms: C_5  and  C_30
    2  A    between atoms: C_7  and  N_9
    3  A    between atoms: N_9  and  C_15
    4  A    between atoms: N_9  and  C_22
    5  A    between atoms: C_17  and  C_30
                            x       y       z     vdW  Elec       q    Type
                         _______ _______ _______ _____ _____    ______ ____

>  <TORSDO>
F 5

$$$$
=
 OpenBabel10262419383D

 31 35  0  0  1  0  0  0  0  0999 V2000
  192.7210  176.0010  135.9540 C   0  0  0  0  0  2  0  0  0  0  0  0
  190.5060  176.4510  138.8720 O   0  0  0  0  0  0  0  0  0  0  0  0
  190.7340  176.2280  137.5020 C   0  0  1  0  0  3  0  0  0  0  0  0
  190.6480  175.8750  134.5950 C   0  0  0  0  0  2  0  0  0  0  0  0
  188.0400  176.5150  138.3390 C   0  0  1  0  0  3  0  0  0  0  0  0
  191.9910  175.2200  134.8730 C   0  0  0  0  0  2  0  0  0  0  0  0
  189.1340  177.8100  140.3510 C   0  0  1  0  0  3  0  0  0  0  0  0
  188.3780  175.1890  137.6440 C   0  0  0  0  0  2  0  0  0  0  0  0
  189.2920  177.1480  138.9830 C   0  0  1  0  0  0  0  0  0  0  0  0
  192.1580  175.7120  137.3390 C   0  0  0  0  0  2  0  0  0  0  0  0
  189.7420  175.1850  136.9350 C   0  0  1  0  0  3  0  0  0  0  0  0
  189.5220  175.2490  135.4170 C   0  0  0  0  0  2  0  0  0  0  0  0
  189.4140  178.6550  139.1130 C   0  0  0  0  0  2  0  0  0  0  0  0
  187.3160  177.4430  137.4630 N   0  0  0  0  0  0  0  0  0  0  0  0
  183.1200  177.8920  137.9540 C   0  0  0  0  0  0  0  0  0  0  0  0
  185.3820  178.6230  138.3890 C   0  0  0  0  0  3  0  0  0  0  0  0
  185.5140  175.3710  135.9440 Cl  0  0  0  0  0  0  0  0  0  0  0  0
  181.3950  178.0980  138.1590 Cl  0  0  0  0  0  0  0  0  0  0  0  0
  184.0060  178.7860  138.5560 C   0  0  0  0  0  3  0  0  0  0  0  0
  184.9870  176.6680  137.0060 C   0  0  0  0  0  0  0  0  0  0  0  0
  185.8910  177.5630  137.6240 C   0  0  0  0  0  0  0  0  0  0  0  0
  183.6100  176.8420  137.1760 C   0  0  0  0  0  3  0  0  0  0  0  0
  188.0400  178.2740  136.5030 C   0  0  0  0  0  2  0  0  0  0  0  0
  187.3430  178.2530  135.1550 C   0  0  0  0  0  1  0  0  0  0  0  0
  187.6790  177.9810  140.7800 C   0  0  0  0  0  2  0  0  0  0  0  0
  187.5360  177.8210  142.2540 C   0  0  0  0  0  0  0  0  0  0  0  0
  188.5080  177.2750  144.4060 C   0  0  0  0  0  3  0  0  0  0  0  0
  188.6390  177.4350  143.0230 C   0  0  0  0  0  3  0  0  0  0  0  0
  187.2730  177.5000  145.0210 C   0  0  0  0  0  3  0  0  0  0  0  0
  186.1680  177.8820  144.2540 C   0  0  0  0  0  3  0  0  0  0  0  0
  186.3000  178.0410  142.8710 C   0  0  0  0  0  3  0  0  0  0  0  0
  1 10  1  0  0  0  0
  2  9  1  0  0  0  0
  3 10  1  1  0  0  0
  3  2  1  0  0  0  0
  4  6  1  0  0  0  0
  4 12  1  0  0  0  0
  5 14  1  6  0  0  0
  5  9  1  0  0  0  0
  6  1  1  0  0  0  0
  7 25  1  6  0  0  0
  8  5  1  0  0  0  0
  9 13  1  6  0  0  0
  9  7  1  0  0  0  0
 11 12  1  6  0  0  0
 11  3  1  0  0  0  0
 11  8  1  0  0  0  0
 13  7  1  0  0  0  0
 14 21  1  0  0  0  0
 15 18  1  0  0  0  0
 15 19  1  0  0  0  0
 16 19  2  0  0  0  0
 17 20  1  0  0  0  0
 20 22  1  0  0  0  0
 20 21  2  0  0  0  0
 21 16  1  0  0  0  0
 22 15  2  0  0  0  0
 23 14  1  0  0  0  0
 24 23  1  0  0  0  0
 25 26  1  0  0  0  0
 26 31  2  0  0  0  0
 26 28  1  0  0  0  0
 27 29  1  0  0  0  0
 28 27  2  0  0  0  0
 30 29  2  0  0  0  0
 31 30  1  0  0  0  0
M  END
>  <MODEL>
4

>  <REMARK>
 VINA RESULT:      -7.3      4.072      9.042
  Name = 
  5 active torsions:
  status: ('A' for Active; 'I' for Inactive)
    1  A    between atoms: C_5  and  C_30
    2  A    between atoms: C_7  and  N_9
    3  A    between atoms: N_9  and  C_15
    4  A    between atoms: N_9  and  C_22
    5  A    between atoms: C_17  and  C_30
                            x       y       z     vdW  Elec       q    Type
                         _______ _______ _______ _____ _____    ______ ____

>  <TORSDO>
F 5

$$$$
=
 OpenBabel10262419383D

 31 35  0  0  1  0  0  0  0  0999 V2000
  185.7430  179.1430  145.7460 C   0  0  0  0  0  2  0  0  0  0  0  0
  186.5270  177.9960  142.3260 O   0  0  0  0  0  0  0  0  0  0  0  0
  186.8060  178.1020  143.7000 C   0  0  1  0  0  3  0  0  0  0  0  0
  187.9090  178.1310  146.4140 C   0  0  0  0  0  2  0  0  0  0  0  0
  188.7530  176.8340  142.0740 C   0  0  1  0  0  3  0  0  0  0  0  0
  186.4330  178.2430  146.7570 C   0  0  0  0  0  2  0  0  0  0  0  0
  187.6140  178.2400  140.1630 C   0  0  1  0  0  3  0  0  0  0  0  0
  188.1900  175.9800  143.2180 C   0  0  0  0  0  2  0  0  0  0  0  0
  187.7590  177.9390  141.6550 C   0  0  1  0  0  0  0  0  0  0  0  0
  185.5050  178.4290  144.4220 C   0  0  0  0  0  2  0  0  0  0  0  0
  187.3820  176.7780  144.2550 C   0  0  1  0  0  3  0  0  0  0  0  0
  188.2060  176.9120  145.5440 C   0  0  0  0  0  2  0  0  0  0  0  0
  188.2620  179.2570  141.0970 C   0  0  0  0  0  2  0  0  0  0  0  0
  190.0940  177.3530  142.3640 N   0  0  0  0  0  0  0  0  0  0  0  0
  191.9880  176.1420  145.9690 C   0  0  0  0  0  0  0  0  0  0  0  0
  191.0550  175.6200  143.8020 C   0  0  0  0  0  3  0  0  0  0  0  0
  190.7750  179.6360  144.4060 Cl  0  0  0  0  0  0  0  0  0  0  0  0
  192.7770  175.6280  147.4430 Cl  0  0  0  0  0  0  0  0  0  0  0  0
  191.6810  175.2080  144.9800 C   0  0  0  0  0  3  0  0  0  0  0  0
  191.0500  177.9120  144.6020 C   0  0  0  0  0  0  0  0  0  0  0  0
  190.7230  176.9690  143.6000 C   0  0  0  0  0  0  0  0  0  0  0  0
  191.6810  177.4900  145.7760 C   0  0  0  0  0  3  0  0  0  0  0  0
  190.7980  178.1800  141.3840 C   0  0  0  0  0  2  0  0  0  0  0  0
  192.0640  177.4850  140.9190 C   0  0  0  0  0  1  0  0  0  0  0  0
  188.6820  177.5710  139.3010 C   0  0  0  0  0  2  0  0  0  0  0  0
  188.3330  177.6610  137.8560 C   0  0  0  0  0  0  0  0  0  0  0  0
  186.6610  177.6650  136.1010 C   0  0  0  0  0  3  0  0  0  0  0  0
  186.9930  177.5900  137.4580 C   0  0  0  0  0  3  0  0  0  0  0  0
  187.6680  177.8090  135.1420 C   0  0  0  0  0  3  0  0  0  0  0  0
  189.0070  177.8760  135.5380 C   0  0  0  0  0  3  0  0  0  0  0  0
  189.3390  177.8010  136.8950 C   0  0  0  0  0  3  0  0  0  0  0  0
  1  6  1  0  0  0  0
  2  3  1  0  0  0  0
  3 11  1  0  0  0  0
  3 10  1  1  0  0  0
  4  6  1  0  0  0  0
  5 14  1  1  0  0  0
  5  8  1  0  0  0  0
  7 25  1  6  0  0  0
  7 13  1  0  0  0  0
  7  9  1  0  0  0  0
  9 13  1  1  0  0  0
  9  5  1  0  0  0  0
  9  2  1  0  0  0  0
 10  1  1  0  0  0  0
 11  8  1  6  0  0  0
 11 12  1  0  0  0  0
 12  4  1  0  0  0  0
 14 21  1  0  0  0  0
 15 18  1  0  0  0  0
 16 19  1  0  0  0  0
 17 20  1  0  0  0  0
 19 15  2  0  0  0  0
 20 22  2  0  0  0  0
 21 16  2  0  0  0  0
 21 20  1  0  0  0  0
 22 15  1  0  0  0  0
 23 14  1  0  0  0  0
 24 23  1  0  0  0  0
 26 25  1  0  0  0  0
 27 28  2  0  0  0  0
 28 26  1  0  0  0  0
 29 30  2  0  0  0  0
 29 27  1  0  0  0  0
 30 31  1  0  0  0  0
 31 26  2  0  0  0  0
M  END
>  <MODEL>
5

>  <REMARK>
 VINA RESULT:      -7.0      1.784      2.491
  Name = 
  5 active torsions:
  status: ('A' for Active; 'I' for Inactive)
    1  A    between atoms: C_5  and  C_30
    2  A    between atoms: C_7  and  N_9
    3  A    between atoms: N_9  and  C_15
    4  A    between atoms: N_9  and  C_22
    5  A    between atoms: C_17  and  C_30
                            x       y       z     vdW  Elec       q    Type
                         _______ _______ _______ _____ _____    ______ ____

>  <TORSDO>
F 5

$$$$
=
 OpenBabel10262419383D

 31 35  0  0  1  0  0  0  0  0999 V2000
  193.9230  176.4830  136.0470 C   0  0  0  0  0  2  0  0  0  0  0  0
  191.4440  176.6010  138.7790 O   0  0  0  0  0  0  0  0  0  0  0  0
  191.8260  176.3310  137.4530 C   0  0  1  0  0  3  0  0  0  0  0  0
  192.0570  175.7280  134.5950 C   0  0  0  0  0  2  0  0  0  0  0  0
  189.0870  175.9990  138.1080 C   0  0  1  0  0  3  0  0  0  0  0  0
  193.4930  175.4580  135.0110 C   0  0  0  0  0  2  0  0  0  0  0  0
  189.6700  177.6890  140.0390 C   0  0  1  0  0  3  0  0  0  0  0  0
  189.7930  174.7470  137.5680 C   0  0  0  0  0  2  0  0  0  0  0  0
  190.0910  176.9780  138.7530 C   0  0  1  0  0  0  0  0  0  0  0  0
  193.3410  176.1770  137.4210 C   0  0  0  0  0  2  0  0  0  0  0  0
  191.1680  175.0280  136.9380 C   0  0  1  0  0  3  0  0  0  0  0  0
  191.0580  174.9090  135.4120 C   0  0  0  0  0  2  0  0  0  0  0  0
  189.8290  178.4720  138.7390 C   0  0  0  0  0  2  0  0  0  0  0  0
  188.2280  176.6390  137.1060 N   0  0  0  0  0  0  0  0  0  0  0  0
  184.1680  175.4040  136.9340 C   0  0  0  0  0  0  0  0  0  0  0  0
  186.5220  174.9480  136.6390 C   0  0  0  0  0  3  0  0  0  0  0  0
  186.0980  178.7490  138.0330 Cl  0  0  0  0  0  0  0  0  0  0  0  0
  182.5010  174.8750  136.8670 Cl  0  0  0  0  0  0  0  0  0  0  0  0
  185.1920  174.5260  136.5810 C   0  0  0  0  0  3  0  0  0  0  0  0
  185.8000  177.1320  137.4130 C   0  0  0  0  0  0  0  0  0  0  0  0
  186.8440  176.2520  137.0440 C   0  0  0  0  0  0  0  0  0  0  0  0
  184.4720  176.6990  137.3550 C   0  0  0  0  0  3  0  0  0  0  0  0
  188.7560  177.6950  136.2430 C   0  0  0  0  0  2  0  0  0  0  0  0
  188.4890  177.3680  134.7850 C   0  0  0  0  0  1  0  0  0  0  0  0
  188.1880  177.5230  140.3670 C   0  0  0  0  0  2  0  0  0  0  0  0
  187.9780  177.4170  141.8390 C   0  0  0  0  0  0  0  0  0  0  0  0
  188.7350  176.6640  144.0140 C   0  0  0  0  0  3  0  0  0  0  0  0
  188.9320  176.7750  142.6340 C   0  0  0  0  0  3  0  0  0  0  0  0
  187.5820  177.1960  144.5990 C   0  0  0  0  0  3  0  0  0  0  0  0
  186.6250  177.8360  143.8060 C   0  0  0  0  0  3  0  0  0  0  0  0
  186.8230  177.9450  142.4250 C   0  0  0  0  0  3  0  0  0  0  0  0
  1 10  1  0  0  0  0
  3 10  1  1  0  0  0
  3  2  1  0  0  0  0
  4  6  1  0  0  0  0
  4 12  1  0  0  0  0
  5 14  1  6  0  0  0
  5  9  1  0  0  0  0
  6  1  1  0  0  0  0
  7 25  1  6  0  0  0
  8  5  1  0  0  0  0
  9 13  1  6  0  0  0
  9  2  1  0  0  0  0
  9  7  1  0  0  0  0
 11 12  1  6  0  0  0
 11  3  1  0  0  0  0
 11  8  1  0  0  0  0
 13  7  1  0  0  0  0
 15 22  1  0  0  0  0
 16 21  2  0  0  0  0
 18 15  1  0  0  0  0
 19 16  1  0  0  0  0
 19 15  2  0  0  0  0
 20 17  1  0  0  0  0
 21 14  1  0  0  0  0
 21 20  1  0  0  0  0
 22 20  2  0  0  0  0
 23 14  1  0  0  0  0
 24 23  1  0  0  0  0
 25 26  1  0  0  0  0
 26 31  2  0  0  0  0
 26 28  1  0  0  0  0
 27 29  1  0  0  0  0
 28 27  2  0  0  0  0
 30 29  2  0  0  0  0
 31 30  1  0  0  0  0
M  END
>  <MODEL>
6

>  <REMARK>
 VINA RESULT:      -6.8      3.875      9.201
  Name = 
  5 active torsions:
  status: ('A' for Active; 'I' for Inactive)
    1  A    between atoms: C_5  and  C_30
    2  A    between atoms: C_7  and  N_9
    3  A    between atoms: N_9  and  C_15
    4  A    between atoms: N_9  and  C_22
    5  A    between atoms: C_17  and  C_30
                            x       y       z     vdW  Elec       q    Type
                         _______ _______ _______ _____ _____    ______ ____

>  <TORSDO>
F 5

$$$$
=
 OpenBabel10262419383D

 31 35  0  0  1  0  0  0  0  0999 V2000
  190.0550  177.3430  147.7130 C   0  0  0  0  0  2  0  0  0  0  0  0
  187.2600  177.0690  145.3180 O   0  0  0  0  0  0  0  0  0  0  0  0
  188.6290  177.1370  145.6350 C   0  0  1  0  0  3  0  0  0  0  0  0
  191.5480  177.3630  145.7310 C   0  0  0  0  0  2  0  0  0  0  0  0
  187.9330  177.0850  142.8870 C   0  0  1  0  0  3  0  0  0  0  0  0
  191.3140  176.7500  147.1010 C   0  0  0  0  0  2  0  0  0  0  0  0
  185.6390  178.0190  143.7740 C   0  0  1  0  0  3  0  0  0  0  0  0
  188.8490  175.9470  143.3580 C   0  0  0  0  0  2  0  0  0  0  0  0
  187.0970  177.6540  144.0530 C   0  0  1  0  0  0  0  0  0  0  0  0
  188.7930  176.7510  147.1000 C   0  0  0  0  0  2  0  0  0  0  0  0
  189.4530  176.1680  144.7540 C   0  0  1  0  0  3  0  0  0  0  0  0
  190.9410  176.5190  144.6110 C   0  0  0  0  0  2  0  0  0  0  0  0
  186.6680  179.1090  144.0560 C   0  0  0  0  0  2  0  0  0  0  0  0
  188.6580  178.1230  142.1440 N   0  0  0  0  0  0  0  0  0  0  0  0
  189.2160  177.6260  137.9620 C   0  0  0  0  0  0  0  0  0  0  0  0
  187.8360  178.2570  139.8430 C   0  0  0  0  0  3  0  0  0  0  0  0
  191.4910  177.1250  141.2330 Cl  0  0  0  0  0  0  0  0  0  0  0  0
  189.4320  177.4370  136.2360 Cl  0  0  0  0  0  0  0  0  0  0  0  0
  188.0060  178.1030  138.4660 C   0  0  0  0  0  3  0  0  0  0  0  0
  190.0990  177.4610  140.2150 C   0  0  0  0  0  0  0  0  0  0  0  0
  188.8700  177.9320  140.7340 C   0  0  0  0  0  0  0  0  0  0  0  0
  190.2610  177.3140  138.8340 C   0  0  0  0  0  3  0  0  0  0  0  0
  189.0890  179.3500  142.8130 C   0  0  0  0  0  2  0  0  0  0  0  0
  190.5540  179.2570  143.1960 C   0  0  0  0  0  1  0  0  0  0  0  0
  185.2840  178.0120  142.2900 C   0  0  0  0  0  2  0  0  0  0  0  0
  183.8270  178.2530  142.0900 C   0  0  0  0  0  0  0  0  0  0  0  0
  181.6920  179.0130  142.9490 C   0  0  0  0  0  3  0  0  0  0  0  0
  183.0620  178.7930  143.1290 C   0  0  0  0  0  3  0  0  0  0  0  0
  181.0880  178.6920  141.7300 C   0  0  0  0  0  3  0  0  0  0  0  0
  181.8500  178.1490  140.6920 C   0  0  0  0  0  3  0  0  0  0  0  0
  183.2190  177.9290  140.8720 C   0  0  0  0  0  3  0  0  0  0  0  0
  2  3  1  0  0  0  0
  3 10  1  1  0  0  0
  4  6  1  0  0  0  0
  5 14  1  1  0  0  0
  5  8  1  0  0  0  0
  5  9  1  0  0  0  0
  6  1  1  0  0  0  0
  7 25  1  6  0  0  0
  7  9  1  0  0  0  0
  7 13  1  0  0  0  0
  9 13  1  1  0  0  0
  9  2  1  0  0  0  0
 10  1  1  0  0  0  0
 11  8  1  6  0  0  0
 11  3  1  0  0  0  0
 12 11  1  0  0  0  0
 12  4  1  0  0  0  0
 14 23  1  0  0  0  0
 15 19  2  0  0  0  0
 15 22  1  0  0  0  0
 16 21  2  0  0  0  0
 18 15  1  0  0  0  0
 19 16  1  0  0  0  0
 20 21  1  0  0  0  0
 20 17  1  0  0  0  0
 21 14  1  0  0  0  0
 22 20  2  0  0  0  0
 23 24  1  0  0  0  0
 26 25  1  0  0  0  0
 26 28  1  0  0  0  0
 27 28  2  0  0  0  0
 29 27  1  0  0  0  0
 30 31  1  0  0  0  0
 30 29  2  0  0  0  0
 31 26  2  0  0  0  0
M  END
>  <MODEL>
7

>  <REMARK>
 VINA RESULT:      -6.8      2.231      6.727
  Name = 
  5 active torsions:
  status: ('A' for Active; 'I' for Inactive)
    1  A    between atoms: C_5  and  C_30
    2  A    between atoms: C_7  and  N_9
    3  A    between atoms: N_9  and  C_15
    4  A    between atoms: N_9  and  C_22
    5  A    between atoms: C_17  and  C_30
                            x       y       z     vdW  Elec       q    Type
                         _______ _______ _______ _____ _____    ______ ____

>  <TORSDO>
F 5

$$$$
=
 OpenBabel10262419383D

 31 35  0  0  1  0  0  0  0  0999 V2000
  189.5280  176.6100  137.1160 C   0  0  0  0  0  2  0  0  0  0  0  0
  187.7100  178.6880  139.5660 O   0  0  0  0  0  0  0  0  0  0  0  0
  188.7560  177.8240  139.1960 C   0  0  1  0  0  3  0  0  0  0  0  0
  191.0250  175.9820  138.9930 C   0  0  0  0  0  2  0  0  0  0  0  0
  188.5960  178.5760  141.9260 C   0  0  1  0  0  3  0  0  0  0  0  0
  190.9760  176.4570  137.5510 C   0  0  0  0  0  2  0  0  0  0  0  0
  186.0680  179.0030  141.3330 C   0  0  1  0  0  3  0  0  0  0  0  0
  189.9090  178.9360  141.2170 C   0  0  0  0  0  2  0  0  0  0  0  0
  187.4310  178.4470  140.9210 C   0  0  1  0  0  0  0  0  0  0  0  0
  188.8980  177.8770  137.6800 C   0  0  0  0  0  2  0  0  0  0  0  0
  190.0900  178.2530  139.8520 C   0  0  1  0  0  3  0  0  0  0  0  0
  191.1440  177.1440  139.9770 C   0  0  0  0  0  2  0  0  0  0  0  0
  186.2790  177.4980  141.1930 C   0  0  0  0  0  2  0  0  0  0  0  0
  188.7280  177.4050  142.7990 N   0  0  0  0  0  0  0  0  0  0  0  0
  188.1730  177.8750  146.9850 C   0  0  0  0  0  0  0  0  0  0  0  0
  187.3520  177.2040  144.8130 C   0  0  0  0  0  3  0  0  0  0  0  0
  191.1820  178.5200  144.4060 Cl  0  0  0  0  0  0  0  0  0  0  0  0
  187.9310  178.0520  148.7080 Cl  0  0  0  0  0  0  0  0  0  0  0  0
  187.1560  177.3490  146.1880 C   0  0  0  0  0  3  0  0  0  0  0  0
  189.5940  178.1070  145.0330 C   0  0  0  0  0  0  0  0  0  0  0  0
  188.5630  177.5870  144.2170 C   0  0  0  0  0  0  0  0  0  0  0  0
  189.3890  178.2450  146.4100 C   0  0  0  0  0  3  0  0  0  0  0  0
  188.9520  176.0760  142.2310 C   0  0  0  0  0  2  0  0  0  0  0  0
  190.1800  175.4360  142.8500 C   0  0  0  0  0  1  0  0  0  0  0  0
  185.9870  179.3810  142.8090 C   0  0  0  0  0  2  0  0  0  0  0  0
  184.6070  179.1810  143.3350 C   0  0  0  0  0  0  0  0  0  0  0  0
  182.2440  178.8240  142.9340 C   0  0  0  0  0  3  0  0  0  0  0  0
  183.5420  179.0040  142.4460 C   0  0  0  0  0  3  0  0  0  0  0  0
  182.0110  178.8230  144.3120 C   0  0  0  0  0  3  0  0  0  0  0  0
  183.0730  179.0030  145.2030 C   0  0  0  0  0  3  0  0  0  0  0  0
  184.3710  179.1830  144.7140 C   0  0  0  0  0  3  0  0  0  0  0  0
  1  6  1  0  0  0  0
  1 10  1  0  0  0  0
  2  9  1  0  0  0  0
  3 10  1  6  0  0  0
  3  2  1  0  0  0  0
  3 11  1  0  0  0  0
  4 12  1  0  0  0  0
  5 14  1  6  0  0  0
  6  4  1  0  0  0  0
  7 25  1  1  0  0  0
  8  5  1  0  0  0  0
  9 13  1  1  0  0  0
  9  7  1  0  0  0  0
  9  5  1  0  0  0  0
 11 12  1  1  0  0  0
 11  8  1  0  0  0  0
 13  7  1  0  0  0  0
 14 21  1  0  0  0  0
 15 18  1  0  0  0  0
 16 19  1  0  0  0  0
 17 20  1  0  0  0  0
 19 15  2  0  0  0  0
 20 22  2  0  0  0  0
 21 16  2  0  0  0  0
 21 20  1  0  0  0  0
 22 15  1  0  0  0  0
 23 14  1  0  0  0  0
 23 24  1  0  0  0  0
 25 26  1  0  0  0  0
 26 31  1  0  0  0  0
 27 29  2  0  0  0  0
 28 27  1  0  0  0  0
 28 26  2  0  0  0  0
 29 30  1  0  0  0  0
 31 30  2  0  0  0  0
M  END
>  <MODEL>
8

>  <REMARK>
 VINA RESULT:      -6.6      1.958      6.437
  Name = 
  5 active torsions:
  status: ('A' for Active; 'I' for Inactive)
    1  A    between atoms: C_5  and  C_30
    2  A    between atoms: C_7  and  N_9
    3  A    between atoms: N_9  and  C_15
    4  A    between atoms: N_9  and  C_22
    5  A    between atoms: C_17  and  C_30
                            x       y       z     vdW  Elec       q    Type
                         _______ _______ _______ _____ _____    ______ ____

>  <TORSDO>
F 5

$$$$
=
 OpenBabel10262419383D

 31 35  0  0  1  0  0  0  0  0999 V2000
  191.5810  176.0380  146.8840 C   0  0  0  0  0  2  0  0  0  0  0  0
  191.5520  177.3390  143.4300 O   0  0  0  0  0  0  0  0  0  0  0  0
  190.9500  177.1020  144.6780 C   0  0  1  0  0  3  0  0  0  0  0  0
  189.2080  176.7530  147.0080 C   0  0  0  0  0  2  0  0  0  0  0  0
  189.3350  178.2640  142.6570 C   0  0  1  0  0  3  0  0  0  0  0  0
  190.5500  176.7800  147.7180 C   0  0  0  0  0  2  0  0  0  0  0  0
  191.0890  177.1370  141.0510 C   0  0  1  0  0  3  0  0  0  0  0  0
  189.4780  179.0890  143.9430 C   0  0  0  0  0  2  0  0  0  0  0  0
  190.5330  177.3100  142.4640 C   0  0  1  0  0  0  0  0  0  0  0  0
  192.0560  176.8690  145.6990 C   0  0  0  0  0  2  0  0  0  0  0  0
  190.0900  178.3110  145.1200 C   0  0  1  0  0  3  0  0  0  0  0  0
  188.9900  177.9920  146.1420 C   0  0  0  0  0  2  0  0  0  0  0  0
  190.3590  175.9880  141.7390 C   0  0  0  0  0  2  0  0  0  0  0  0
  188.0400  177.5800  142.5640 N   0  0  0  0  0  0  0  0  0  0  0  0
  185.0150  179.2830  140.1160 C   0  0  0  0  0  0  0  0  0  0  0  0
  187.0940  178.0760  140.3620 C   0  0  0  0  0  3  0  0  0  0  0  0
  185.6360  178.9240  144.0670 Cl  0  0  0  0  0  0  0  0  0  0  0  0
  183.7720  179.9700  139.0930 Cl  0  0  0  0  0  0  0  0  0  0  0  0
  186.1050  178.6280  139.5450 C   0  0  0  0  0  3  0  0  0  0  0  0
  185.8930  178.8320  142.3320 C   0  0  0  0  0  0  0  0  0  0  0  0
  187.0080  178.1780  141.7600 C   0  0  0  0  0  0  0  0  0  0  0  0
  184.9060  179.3780  141.5040 C   0  0  0  0  0  3  0  0  0  0  0  0
  187.8350  176.2890  143.2180 C   0  0  0  0  0  2  0  0  0  0  0  0
  186.8230  176.4210  144.3420 C   0  0  0  0  0  1  0  0  0  0  0  0
  190.1990  177.7450  139.9690 C   0  0  0  0  0  2  0  0  0  0  0  0
  190.4840  177.1350  138.6400 C   0  0  0  0  0  0  0  0  0  0  0  0
  191.9590  175.8770  137.1860 C   0  0  0  0  0  3  0  0  0  0  0  0
  191.6830  176.4430  138.4340 C   0  0  0  0  0  3  0  0  0  0  0  0
  191.0380  176.0030  136.1420 C   0  0  0  0  0  3  0  0  0  0  0  0
  189.8410  176.6970  136.3450 C   0  0  0  0  0  3  0  0  0  0  0  0
  189.5650  177.2640  137.5940 C   0  0  0  0  0  3  0  0  0  0  0  0
  1  6  1  0  0  0  0
  2  3  1  0  0  0  0
  3 11  1  0  0  0  0
  3 10  1  1  0  0  0
  4  6  1  0  0  0  0
  5 14  1  1  0  0  0
  5  8  1  0  0  0  0
  7 25  1  6  0  0  0
  7 13  1  0  0  0  0
  7  9  1  0  0  0  0
  9 13  1  1  0  0  0
  9  5  1  0  0  0  0
  9  2  1  0  0  0  0
 10  1  1  0  0  0  0
 11  8  1  6  0  0  0
 11 12  1  0  0  0  0
 12  4  1  0  0  0  0
 14 23  1  0  0  0  0
 15 22  1  0  0  0  0
 16 21  2  0  0  0  0
 18 15  1  0  0  0  0
 19 15  2  0  0  0  0
 19 16  1  0  0  0  0
 20 17  1  0  0  0  0
 21 20  1  0  0  0  0
 21 14  1  0  0  0  0
 22 20  2  0  0  0  0
 23 24  1  0  0  0  0
 26 25  1  0  0  0  0
 27 28  2  0  0  0  0
 28 26  1  0  0  0  0
 29 30  2  0  0  0  0
 29 27  1  0  0  0  0
 30 31  1  0  0  0  0
 31 26  2  0  0  0  0
M  END
>  <MODEL>
9

>  <REMARK>
 VINA RESULT:      -6.3      2.738      5.755
  Name = 
  5 active torsions:
  status: ('A' for Active; 'I' for Inactive)
    1  A    between atoms: C_5  and  C_30
    2  A    between atoms: C_7  and  N_9
    3  A    between atoms: N_9  and  C_15
    4  A    between atoms: N_9  and  C_22
    5  A    between atoms: C_17  and  C_30
                            x       y       z     vdW  Elec       q    Type
                         _______ _______ _______ _____ _____    ______ ____

>  <TORSDO>
F 5

$$$$
