=
 OpenBabel10262422123D

 43 47  0  0  1  0  0  0  0  0999 V2000
  191.2410  176.7140  138.2640 C   0  0  0  0  0  0  0  0  0  0  0  0
  187.3330  178.4860  140.7890 C   0  0  0  0  0  0  0  0  0  0  0  0
  185.5340  178.8420  139.7040 C   0  0  0  0  0  0  0  0  0  0  0  0
  189.7980  177.5240  139.9670 C   0  0  0  0  0  0  0  0  0  0  0  0
  190.2310  176.8510  137.3050 C   0  0  0  0  0  3  0  0  0  0  0  0
  192.5200  176.2260  137.8790 N   0  0  0  0  0  1  0  0  0  0  0  0
  188.7510  177.6760  139.0210 C   0  0  0  0  0  0  0  0  0  0  0  0
  191.0060  177.0510  139.5620 N   0  0  0  0  0  0  0  0  0  0  0  0
  188.9770  177.3360  137.6870 C   0  0  0  0  0  3  0  0  0  0  0  0
  186.4030  178.3810  138.7650 N   0  0  0  0  0  0  0  0  0  0  0  0
  187.5270  178.1660  139.4760 C   0  0  0  0  0  0  0  0  0  0  0  0
  188.3350  178.3460  141.7510 C   0  0  0  0  0  3  0  0  0  0  0  0
  186.0710  178.9080  140.9480 N   0  0  0  0  0  0  0  0  0  0  0  0
  189.5840  177.8590  141.3220 C   0  0  0  0  0  3  0  0  0  0  0  0
  184.1240  179.2290  139.3890 C   0  0  1  0  0  3  0  0  0  0  0  0
  184.0880  180.5580  138.9620 O   0  0  0  0  0  1  0  0  0  0  0  0
  183.5540  178.3140  138.3140 C   0  0  0  0  0  2  0  0  0  0  0  0
  182.1470  178.6140  138.1000 N   0  0  0  0  0  2  0  0  0  0  0  0
  181.4420  178.3590  139.3520 C   0  0  0  0  0  2  0  0  0  0  0  0
  179.9250  178.5010  139.1850 C   0  0  0  0  0  0  0  0  0  0  0  0
  179.2160  177.4700  140.0540 C   0  0  0  0  0  1  0  0  0  0  0  0
  179.5440  178.2670  137.7300 C   0  0  0  0  0  1  0  0  0  0  0  0
  179.4940  179.9090  139.6300 C   0  0  1  0  0  3  0  0  0  0  0  0
  180.3830  180.4350  140.5740 O   0  0  0  0  0  0  0  0  0  0  0  0
  179.6190  180.6110  141.7290 C   0  0  0  0  0  1  0  0  0  0  0  0
  179.4100  180.7780  138.5330 O   0  0  0  0  0  0  0  0  0  0  0  0
  180.4920  181.6500  138.6830 C   0  0  0  0  0  2  0  0  0  0  0  0
  180.6110  182.5110  137.4760 C   0  0  0  0  0  0  0  0  0  0  0  0
  180.5950  182.7610  135.0670 C   0  0  0  0  0  3  0  0  0  0  0  0
  181.0310  184.6790  136.4800 C   0  0  0  0  0  3  0  0  0  0  0  0
  180.8770  184.1230  135.2060 C   0  0  0  0  0  3  0  0  0  0  0  0
  180.9000  183.8740  137.6160 C   0  0  0  0  0  3  0  0  0  0  0  0
  180.4640  181.9540  136.2020 C   0  0  0  0  0  3  0  0  0  0  0  0
  185.4000  179.3020  142.1840 C   0  0  0  0  0  2  0  0  0  0  0  0
  185.0080  178.0790  143.0090 C   0  0  0  0  0  2  0  0  0  0  0  0
  185.5520  178.8870  146.6710 C   0  0  0  0  0  3  0  0  0  0  0  0
  186.7750  178.2440  146.9230 C   0  0  0  0  0  0  0  0  0  0  0  0
  186.8310  177.4790  144.6210 C   0  0  0  0  0  3  0  0  0  0  0  0
  184.9740  178.8240  145.4000 C   0  0  0  0  0  3  0  0  0  0  0  0
  185.6130  178.1200  144.3730 C   0  0  0  0  0  0  0  0  0  0  0  0
  187.4050  177.5380  145.8930 C   0  0  0  0  0  3  0  0  0  0  0  0
  188.7160  177.8530  148.4070 C   0  0  0  0  0  1  0  0  0  0  0  0
  187.3830  178.2930  148.1800 O   0  0  0  0  0  0  0  0  0  0  0  0
  1  8  1  0  0  0  0
  2 13  1  0  0  0  0
  2 12  1  0  0  0  0
  3 13  1  0  0  0  0
  4 14  1  0  0  0  0
  5  9  1  0  0  0  0
  5  1  2  0  0  0  0
  6  1  1  0  0  0  0
  7 11  1  0  0  0  0
  7  4  1  0  0  0  0
  8  4  2  0  0  0  0
  9  7  2  0  0  0  0
 10 11  1  0  0  0  0
 10  3  2  0  0  0  0
 11  2  2  0  0  0  0
 13 34  1  0  0  0  0
 14 12  2  0  0  0  0
 15 16  1  6  0  0  0
 15  3  1  0  0  0  0
 17 15  1  0  0  0  0
 18 17  1  0  0  0  0
 18 19  1  0  0  0  0
 20 19  1  0  0  0  0
 20 23  1  0  0  0  0
 20 21  1  0  0  0  0
 22 20  1  0  0  0  0
 23 26  1  6  0  0  0
 23 24  1  0  0  0  0
 24 25  1  0  0  0  0
 26 27  1  0  0  0  0
 28 32  1  0  0  0  0
 28 27  1  0  0  0  0
 29 31  2  0  0  0  0
 29 33  1  0  0  0  0
 30 32  2  0  0  0  0
 31 30  1  0  0  0  0
 33 28  2  0  0  0  0
 34 35  1  0  0  0  0
 35 40  1  0  0  0  0
 36 37  1  0  0  0  0
 37 43  1  0  0  0  0
 38 41  1  0  0  0  0
 39 36  2  0  0  0  0
 40 38  2  0  0  0  0
 40 39  1  0  0  0  0
 41 37  2  0  0  0  0
 43 42  1  0  0  0  0
M  END
>  <MODEL>
1

>  <REMARK>
 VINA RESULT:      -8.7      0.000      0.000
  Name = 
  14 active torsions:
  status: ('A' for Active; 'I' for Inactive)
    1  A    between atoms: C_1  and  C_35
    2  A    between atoms: C_1  and  C_38
    3  A    between atoms: C_2  and  C_6
    4  A    between atoms: C_2  and  C_13
    5  A    between atoms: C_3  and  C_4
    6  A    between atoms: C_3  and  N_17
    7  A    between atoms: C_4  and  C_22
    8  A    between atoms: C_6  and  N_17
    9  A    between atoms: O_10  and  C_22
   10  A    between atoms: C_11  and  C_41
   11  A    between atoms: O_14  and  C_22
   12  A    between atoms: O_14  and  C_41
   13  A    between atoms: C_19  and  O_37
   14  A    between atoms: N_34  and  C_38
                            x       y       z     vdW  Elec       q    Type
                         _______ _______ _______ _____ _____    ______ ____

>  <TORSDO>
F 14

$$$$
=
 OpenBabel10262422123D

 43 47  0  0  1  0  0  0  0  0999 V2000
  194.3570  175.3320  136.4700 C   0  0  0  0  0  0  0  0  0  0  0  0
  190.7010  177.4460  139.1060 C   0  0  0  0  0  0  0  0  0  0  0  0
  188.8320  177.7570  138.1320 C   0  0  0  0  0  0  0  0  0  0  0  0
  193.0710  176.3380  138.1950 C   0  0  0  0  0  0  0  0  0  0  0  0
  193.2790  175.4110  135.5820 C   0  0  0  0  0  3  0  0  0  0  0  0
  195.5910  174.7710  136.0380 N   0  0  0  0  0  1  0  0  0  0  0  0
  191.9580  176.4350  137.3200 C   0  0  0  0  0  0  0  0  0  0  0  0
  194.2330  175.7930  137.7450 N   0  0  0  0  0  0  0  0  0  0  0  0
  192.0710  175.9660  136.0100 C   0  0  0  0  0  3  0  0  0  0  0  0
  189.6140  177.1840  137.1780 N   0  0  0  0  0  0  0  0  0  0  0  0
  190.7850  177.0010  137.8180 C   0  0  0  0  0  0  0  0  0  0  0  0
  191.7720  177.3650  139.9980 C   0  0  0  0  0  3  0  0  0  0  0  0
  189.4650  177.9190  139.3200 N   0  0  0  0  0  0  0  0  0  0  0  0
  192.9710  176.8020  139.5250 C   0  0  0  0  0  3  0  0  0  0  0  0
  187.4110  178.1560  137.8890 C   0  0  1  0  0  3  0  0  0  0  0  0
  187.3720  179.2210  136.9870 O   0  0  0  0  0  1  0  0  0  0  0  0
  186.6170  176.9760  137.3460 C   0  0  0  0  0  2  0  0  0  0  0  0
  185.1920  177.2510  137.4370 N   0  0  0  0  0  2  0  0  0  0  0  0
  184.9480  177.9230  138.7090 C   0  0  0  0  0  2  0  0  0  0  0  0
  183.4620  177.9020  139.0840 C   0  0  0  0  0  0  0  0  0  0  0  0
  183.0440  176.4820  139.4420 C   0  0  0  0  0  1  0  0  0  0  0  0
  182.6280  178.3800  137.9030 C   0  0  0  0  0  1  0  0  0  0  0  0
  183.2330  178.8130  140.3030 C   0  0  1  0  0  3  0  0  0  0  0  0
  181.8840  179.1680  140.4200 O   0  0  0  0  0  0  0  0  0  0  0  0
  181.5290  178.8070  141.7200 C   0  0  0  0  0  1  0  0  0  0  0  0
  183.6540  178.1860  141.4830 O   0  0  0  0  0  0  0  0  0  0  0  0
  184.6490  179.0210  141.9980 C   0  0  0  0  0  2  0  0  0  0  0  0
  184.8800  178.7010  143.4320 C   0  0  0  0  0  0  0  0  0  0  0  0
  184.2330  178.9050  145.7570 C   0  0  0  0  0  3  0  0  0  0  0  0
  186.2160  177.6490  145.1570 C   0  0  0  0  0  3  0  0  0  0  0  0
  185.3370  178.1340  146.1320 C   0  0  0  0  0  3  0  0  0  0  0  0
  185.9890  177.9350  143.8070 C   0  0  0  0  0  3  0  0  0  0  0  0
  184.0050  179.1910  144.4070 C   0  0  0  0  0  3  0  0  0  0  0  0
  188.9020  178.4450  140.5610 C   0  0  0  0  0  2  0  0  0  0  0  0
  188.5000  177.3140  141.5030 C   0  0  0  0  0  2  0  0  0  0  0  0
  191.0090  175.9470  143.9920 C   0  0  0  0  0  3  0  0  0  0  0  0
  191.1170  177.0140  144.8990 C   0  0  0  0  0  0  0  0  0  0  0  0
  189.5280  178.2820  143.5730 C   0  0  0  0  0  3  0  0  0  0  0  0
  190.1640  176.0500  142.8830 C   0  0  0  0  0  3  0  0  0  0  0  0
  189.4230  177.2190  142.6720 C   0  0  0  0  0  0  0  0  0  0  0  0
  190.3760  178.1800  144.6790 C   0  0  0  0  0  3  0  0  0  0  0  0
  191.4620  176.6000  147.3140 C   0  0  0  0  0  1  0  0  0  0  0  0
  191.9460  176.9400  146.0210 O   0  0  0  0  0  0  0  0  0  0  0  0
  1  8  1  0  0  0  0
  2 13  1  0  0  0  0
  2 12  1  0  0  0  0
  3 13  1  0  0  0  0
  4 14  1  0  0  0  0
  5  9  1  0  0  0  0
  5  1  2  0  0  0  0
  6  1  1  0  0  0  0
  7 11  1  0  0  0  0
  7  4  1  0  0  0  0
  8  4  2  0  0  0  0
  9  7  2  0  0  0  0
 10 11  1  0  0  0  0
 10  3  2  0  0  0  0
 11  2  2  0  0  0  0
 13 34  1  0  0  0  0
 14 12  2  0  0  0  0
 15 16  1  6  0  0  0
 15  3  1  0  0  0  0
 17 18  1  0  0  0  0
 17 15  1  0  0  0  0
 18 19  1  0  0  0  0
 19 20  1  0  0  0  0
 20 21  1  0  0  0  0
 20 23  1  0  0  0  0
 22 20  1  0  0  0  0
 23 24  1  1  0  0  0
 23 26  1  0  0  0  0
 24 25  1  0  0  0  0
 26 27  1  0  0  0  0
 27 28  1  0  0  0  0
 28 32  2  0  0  0  0
 28 33  1  0  0  0  0
 29 31  1  0  0  0  0
 30 31  2  0  0  0  0
 32 30  1  0  0  0  0
 33 29  2  0  0  0  0
 34 35  1  0  0  0  0
 35 40  1  0  0  0  0
 36 37  1  0  0  0  0
 37 43  1  0  0  0  0
 38 41  1  0  0  0  0
 39 36  2  0  0  0  0
 40 39  1  0  0  0  0
 40 38  2  0  0  0  0
 41 37  2  0  0  0  0
 43 42  1  0  0  0  0
M  END
>  <MODEL>
2

>  <REMARK>
 VINA RESULT:      -8.6      2.986      5.606
  Name = 
  14 active torsions:
  status: ('A' for Active; 'I' for Inactive)
    1  A    between atoms: C_1  and  C_35
    2  A    between atoms: C_1  and  C_38
    3  A    between atoms: C_2  and  C_6
    4  A    between atoms: C_2  and  C_13
    5  A    between atoms: C_3  and  C_4
    6  A    between atoms: C_3  and  N_17
    7  A    between atoms: C_4  and  C_22
    8  A    between atoms: C_6  and  N_17
    9  A    between atoms: O_10  and  C_22
   10  A    between atoms: C_11  and  C_41
   11  A    between atoms: O_14  and  C_22
   12  A    between atoms: O_14  and  C_41
   13  A    between atoms: C_19  and  O_37
   14  A    between atoms: N_34  and  C_38
                            x       y       z     vdW  Elec       q    Type
                         _______ _______ _______ _____ _____    ______ ____

>  <TORSDO>
F 14

$$$$
=
 OpenBabel10262422123D

 43 47  0  0  1  0  0  0  0  0999 V2000
  180.8280  178.7510  138.7300 C   0  0  0  0  0  0  0  0  0  0  0  0
  185.4430  177.5500  137.2980 C   0  0  0  0  0  0  0  0  0  0  0  0
  187.0460  178.0440  138.6120 C   0  0  0  0  0  0  0  0  0  0  0  0
  182.7100  177.9470  137.5250 C   0  0  0  0  0  0  0  0  0  0  0  0
  181.6500  179.1970  139.7710 C   0  0  0  0  0  3  0  0  0  0  0  0
  179.4200  178.9390  138.8110 N   0  0  0  0  0  1  0  0  0  0  0  0
  183.5730  178.3880  138.5610 C   0  0  0  0  0  0  0  0  0  0  0  0
  181.3690  178.1420  137.6400 N   0  0  0  0  0  0  0  0  0  0  0  0
  183.0330  179.0140  139.6860 C   0  0  0  0  0  3  0  0  0  0  0  0
  185.9360  178.4940  139.2570 N   0  0  0  0  0  0  0  0  0  0  0  0
  184.9420  178.1710  138.4060 C   0  0  0  0  0  0  0  0  0  0  0  0
  184.6260  177.0990  136.2590 C   0  0  0  0  0  3  0  0  0  0  0  0
  186.7740  177.4570  137.4200 N   0  0  0  0  0  0  0  0  0  0  0  0
  183.2400  177.3070  136.3840 C   0  0  0  0  0  3  0  0  0  0  0  0
  188.4250  178.1810  139.1730 C   0  0  1  0  0  3  0  0  0  0  0  0
  189.0570  179.2850  138.5980 O   0  0  0  0  0  1  0  0  0  0  0  0
  188.3660  178.3360  140.6860 C   0  0  0  0  0  2  0  0  0  0  0  0
  189.5720  177.7920  141.2900 N   0  0  0  0  0  2  0  0  0  0  0  0
  189.1700  176.9800  142.4330 C   0  0  0  0  0  2  0  0  0  0  0  0
  190.0450  177.2590  143.6600 C   0  0  0  0  0  0  0  0  0  0  0  0
  190.3780  178.7440  143.7250 C   0  0  0  0  0  1  0  0  0  0  0  0
  191.3410  176.4670  143.5580 C   0  0  0  0  0  1  0  0  0  0  0  0
  189.2770  176.8640  144.9330 C   0  0  1  0  0  3  0  0  0  0  0  0
  189.4960  177.7870  145.9620 O   0  0  0  0  0  0  0  0  0  0  0  0
  190.2150  177.0840  146.9300 C   0  0  0  0  0  1  0  0  0  0  0  0
  187.9030  176.7650  144.6800 O   0  0  0  0  0  0  0  0  0  0  0  0
  187.3210  177.7740  145.4530 C   0  0  0  0  0  2  0  0  0  0  0  0
  186.0360  178.1990  144.8370 C   0  0  0  0  0  0  0  0  0  0  0  0
  183.7590  178.9920  145.0700 C   0  0  0  0  0  3  0  0  0  0  0  0
  184.6630  178.5350  142.8700 C   0  0  0  0  0  3  0  0  0  0  0  0
  183.6040  178.9550  143.6820 C   0  0  0  0  0  3  0  0  0  0  0  0
  185.8780  178.1540  143.4470 C   0  0  0  0  0  3  0  0  0  0  0  0
  184.9740  178.6120  145.6490 C   0  0  0  0  0  3  0  0  0  0  0  0
  187.7210  176.8210  136.5080 C   0  0  0  0  0  2  0  0  0  0  0  0
  188.0690  175.4100  136.9730 C   0  0  0  0  0  2  0  0  0  0  0  0
  191.8040  176.0290  136.8240 C   0  0  0  0  0  3  0  0  0  0  0  0
  192.3080  174.7180  136.8270 C   0  0  0  0  0  0  0  0  0  0  0  0
  190.0400  173.8630  136.9460 C   0  0  0  0  0  3  0  0  0  0  0  0
  190.4260  176.2530  136.8810 C   0  0  0  0  0  3  0  0  0  0  0  0
  189.5420  175.1690  136.9420 C   0  0  0  0  0  0  0  0  0  0  0  0
  191.4180  173.6410  136.8940 C   0  0  0  0  0  3  0  0  0  0  0  0
  194.5420  174.6030  137.8850 C   0  0  0  0  0  1  0  0  0  0  0  0
  193.6800  174.4600  136.7640 O   0  0  0  0  0  0  0  0  0  0  0  0
  1  6  1  0  0  0  0
  1  5  1  0  0  0  0
  2 13  1  0  0  0  0
  2 11  1  0  0  0  0
  3 15  1  0  0  0  0
  3 10  2  0  0  0  0
  4  8  1  0  0  0  0
  4  7  1  0  0  0  0
  7  9  1  0  0  0  0
  8  1  2  0  0  0  0
  9  5  2  0  0  0  0
 11  7  2  0  0  0  0
 11 10  1  0  0  0  0
 12 14  1  0  0  0  0
 12  2  2  0  0  0  0
 13  3  1  0  0  0  0
 14  4  2  0  0  0  0
 15 16  1  6  0  0  0
 15 17  1  0  0  0  0
 17 18  1  0  0  0  0
 18 19  1  0  0  0  0
 19 20  1  0  0  0  0
 20 21  1  0  0  0  0
 20 23  1  0  0  0  0
 22 20  1  0  0  0  0
 23 26  1  6  0  0  0
 23 24  1  0  0  0  0
 24 25  1  0  0  0  0
 26 27  1  0  0  0  0
 28 27  1  0  0  0  0
 28 33  1  0  0  0  0
 29 33  2  0  0  0  0
 30 32  1  0  0  0  0
 30 31  2  0  0  0  0
 31 29  1  0  0  0  0
 32 28  2  0  0  0  0
 34 35  1  0  0  0  0
 34 13  1  0  0  0  0
 36 37  2  0  0  0  0
 36 39  1  0  0  0  0
 37 41  1  0  0  0  0
 39 40  2  0  0  0  0
 40 38  1  0  0  0  0
 40 35  1  0  0  0  0
 41 38  2  0  0  0  0
 43 37  1  0  0  0  0
 43 42  1  0  0  0  0
M  END
>  <MODEL>
3

>  <REMARK>
 VINA RESULT:      -8.4      3.344      9.389
  Name = 
  14 active torsions:
  status: ('A' for Active; 'I' for Inactive)
    1  A    between atoms: C_1  and  C_35
    2  A    between atoms: C_1  and  C_38
    3  A    between atoms: C_2  and  C_6
    4  A    between atoms: C_2  and  C_13
    5  A    between atoms: C_3  and  C_4
    6  A    between atoms: C_3  and  N_17
    7  A    between atoms: C_4  and  C_22
    8  A    between atoms: C_6  and  N_17
    9  A    between atoms: O_10  and  C_22
   10  A    between atoms: C_11  and  C_41
   11  A    between atoms: O_14  and  C_22
   12  A    between atoms: O_14  and  C_41
   13  A    between atoms: C_19  and  O_37
   14  A    between atoms: N_34  and  C_38
                            x       y       z     vdW  Elec       q    Type
                         _______ _______ _______ _____ _____    ______ ____

>  <TORSDO>
F 14

$$$$
=
 OpenBabel10262422123D

 43 47  0  0  1  0  0  0  0  0999 V2000
  191.4240  176.6900  138.5120 C   0  0  0  0  0  0  0  0  0  0  0  0
  187.4370  178.4480  140.9220 C   0  0  0  0  0  0  0  0  0  0  0  0
  185.6670  178.7900  139.7860 C   0  0  0  0  0  0  0  0  0  0  0  0
  189.9290  177.4970  140.1720 C   0  0  0  0  0  0  0  0  0  0  0  0
  190.4400  176.8180  137.5260 C   0  0  0  0  0  3  0  0  0  0  0  0
  192.7160  176.2080  138.1650 N   0  0  0  0  0  1  0  0  0  0  0  0
  188.9090  177.6410  139.1970 C   0  0  0  0  0  0  0  0  0  0  0  0
  191.1510  177.0300  139.8020 N   0  0  0  0  0  0  0  0  0  0  0  0
  189.1730  177.2960  137.8700 C   0  0  0  0  0  3  0  0  0  0  0  0
  186.5650  178.3300  138.8740 N   0  0  0  0  0  0  0  0  0  0  0  0
  187.6700  178.1250  139.6160 C   0  0  0  0  0  0  0  0  0  0  0  0
  188.4130  178.3170  141.9110 C   0  0  0  0  0  3  0  0  0  0  0  0
  186.1690  178.8630  141.0440 N   0  0  0  0  0  0  0  0  0  0  0  0
  189.6760  177.8360  141.5200 C   0  0  0  0  0  3  0  0  0  0  0  0
  184.2640  179.1680  139.4300 C   0  0  1  0  0  3  0  0  0  0  0  0
  184.2410  180.4760  138.9430 O   0  0  0  0  0  1  0  0  0  0  0  0
  183.7080  178.2070  138.3890 C   0  0  0  0  0  2  0  0  0  0  0  0
  183.0070  177.1140  139.0450 N   0  0  0  0  0  2  0  0  0  0  0  0
  182.6270  176.1490  138.0190 C   0  0  0  0  0  2  0  0  0  0  0  0
  181.2260  175.5790  138.2700 C   0  0  0  0  0  0  0  0  0  0  0  0
  180.1850  176.4720  137.6080 C   0  0  0  0  0  1  0  0  0  0  0  0
  180.9530  175.5280  139.7670 C   0  0  0  0  0  1  0  0  0  0  0  0
  181.1340  174.1690  137.6620 C   0  0  1  0  0  3  0  0  0  0  0  0
  179.9150  173.9840  137.0000 O   0  0  0  0  0  0  0  0  0  0  0  0
  179.2450  173.0130  137.7450 C   0  0  0  0  0  1  0  0  0  0  0  0
  182.1890  173.9380  136.7690 O   0  0  0  0  0  0  0  0  0  0  0  0
  182.5590  172.6080  136.9860 C   0  0  0  0  0  2  0  0  0  0  0  0
  184.0220  172.4530  136.7690 C   0  0  0  0  0  0  0  0  0  0  0  0
  186.3030  172.8810  137.4620 C   0  0  0  0  0  3  0  0  0  0  0  0
  185.8690  171.6470  135.4230 C   0  0  0  0  0  3  0  0  0  0  0  0
  186.7740  172.1980  136.3360 C   0  0  0  0  0  3  0  0  0  0  0  0
  184.4930  171.7760  135.6380 C   0  0  0  0  0  3  0  0  0  0  0  0
  184.9270  173.0110  137.6780 C   0  0  0  0  0  3  0  0  0  0  0  0
  185.4620  179.2570  142.2600 C   0  0  0  0  0  2  0  0  0  0  0  0
  185.1330  178.0420  143.1220 C   0  0  0  0  0  2  0  0  0  0  0  0
  187.5440  177.5950  146.0110 C   0  0  0  0  0  3  0  0  0  0  0  0
  186.8870  178.2930  147.0380 C   0  0  0  0  0  0  0  0  0  0  0  0
  185.0940  178.8420  145.4960 C   0  0  0  0  0  3  0  0  0  0  0  0
  186.9770  177.5220  144.7360 C   0  0  0  0  0  3  0  0  0  0  0  0
  185.7510  178.1460  144.4770 C   0  0  0  0  0  0  0  0  0  0  0  0
  185.6640  178.9180  146.7700 C   0  0  0  0  0  3  0  0  0  0  0  0
  188.7380  177.9410  148.6410 C   0  0  0  0  0  1  0  0  0  0  0  0
  187.4230  178.3790  148.3250 O   0  0  0  0  0  0  0  0  0  0  0  0
  1  8  1  0  0  0  0
  2 13  1  0  0  0  0
  2 12  1  0  0  0  0
  3 13  1  0  0  0  0
  4 14  1  0  0  0  0
  5  9  1  0  0  0  0
  5  1  2  0  0  0  0
  6  1  1  0  0  0  0
  7 11  1  0  0  0  0
  7  4  1  0  0  0  0
  8  4  2  0  0  0  0
  9  7  2  0  0  0  0
 10 11  1  0  0  0  0
 10  3  2  0  0  0  0
 11  2  2  0  0  0  0
 13 34  1  0  0  0  0
 14 12  2  0  0  0  0
 15 16  1  6  0  0  0
 15  3  1  0  0  0  0
 17 18  1  0  0  0  0
 17 15  1  0  0  0  0
 19 20  1  0  0  0  0
 19 18  1  0  0  0  0
 20 22  1  0  0  0  0
 21 20  1  0  0  0  0
 23 26  1  6  0  0  0
 23 20  1  0  0  0  0
 24 23  1  0  0  0  0
 24 25  1  0  0  0  0
 26 27  1  0  0  0  0
 28 27  1  0  0  0  0
 28 33  1  0  0  0  0
 29 33  2  0  0  0  0
 30 32  1  0  0  0  0
 30 31  2  0  0  0  0
 31 29  1  0  0  0  0
 32 28  2  0  0  0  0
 34 35  1  0  0  0  0
 35 40  1  0  0  0  0
 36 37  1  0  0  0  0
 37 43  1  0  0  0  0
 38 41  1  0  0  0  0
 39 36  2  0  0  0  0
 40 39  1  0  0  0  0
 40 38  2  0  0  0  0
 41 37  2  0  0  0  0
 43 42  1  0  0  0  0
M  END
>  <MODEL>
4

>  <REMARK>
 VINA RESULT:      -8.3      3.186      5.436
  Name = 
  14 active torsions:
  status: ('A' for Active; 'I' for Inactive)
    1  A    between atoms: C_1  and  C_35
    2  A    between atoms: C_1  and  C_38
    3  A    between atoms: C_2  and  C_6
    4  A    between atoms: C_2  and  C_13
    5  A    between atoms: C_3  and  C_4
    6  A    between atoms: C_3  and  N_17
    7  A    between atoms: C_4  and  C_22
    8  A    between atoms: C_6  and  N_17
    9  A    between atoms: O_10  and  C_22
   10  A    between atoms: C_11  and  C_41
   11  A    between atoms: O_14  and  C_22
   12  A    between atoms: O_14  and  C_41
   13  A    between atoms: C_19  and  O_37
   14  A    between atoms: N_34  and  C_38
                            x       y       z     vdW  Elec       q    Type
                         _______ _______ _______ _____ _____    ______ ____

>  <TORSDO>
F 14

$$$$
=
 OpenBabel10262422123D

 43 47  0  0  1  0  0  0  0  0999 V2000
  193.7980  175.9550  137.0050 C   0  0  0  0  0  0  0  0  0  0  0  0
  190.1160  177.5040  139.9780 C   0  0  0  0  0  0  0  0  0  0  0  0
  188.1530  177.5930  139.1550 C   0  0  0  0  0  0  0  0  0  0  0  0
  192.5310  176.7380  138.8550 C   0  0  0  0  0  0  0  0  0  0  0  0
  192.6530  175.9160  136.2020 C   0  0  0  0  0  3  0  0  0  0  0  0
  195.0560  175.5710  136.4630 N   0  0  0  0  0  1  0  0  0  0  0  0
  191.3500  176.7130  138.0690 C   0  0  0  0  0  0  0  0  0  0  0  0
  193.7150  176.3620  138.3010 N   0  0  0  0  0  0  0  0  0  0  0  0
  191.4200  176.2980  136.7370 C   0  0  0  0  0  3  0  0  0  0  0  0
  188.9260  177.1540  138.1260 N   0  0  0  0  0  0  0  0  0  0  0  0
  190.1560  177.1080  138.6710 C   0  0  0  0  0  0  0  0  0  0  0  0
  191.2550  177.5390  140.7850 C   0  0  0  0  0  3  0  0  0  0  0  0
  188.8510  177.8060  140.2980 N   0  0  0  0  0  0  0  0  0  0  0  0
  192.4760  177.1500  140.2040 C   0  0  0  0  0  3  0  0  0  0  0  0
  186.6780  177.8100  139.0320 C   0  0  1  0  0  3  0  0  0  0  0  0
  186.3250  179.0010  139.6690 O   0  0  0  0  0  1  0  0  0  0  0  0
  186.2730  177.8550  137.5650 C   0  0  0  0  0  2  0  0  0  0  0  0
  185.1230  176.9940  137.3400 N   0  0  0  0  0  2  0  0  0  0  0  0
  183.9250  177.7500  137.6850 C   0  0  0  0  0  2  0  0  0  0  0  0
  182.7100  176.8340  137.8680 C   0  0  0  0  0  0  0  0  0  0  0  0
  183.0610  175.7040  138.8270 C   0  0  0  0  0  1  0  0  0  0  0  0
  182.3110  176.2360  136.5260 C   0  0  0  0  0  1  0  0  0  0  0  0
  181.5440  177.6460  138.4590 C   0  0  1  0  0  3  0  0  0  0  0  0
  180.3430  177.3560  137.8010 O   0  0  0  0  0  0  0  0  0  0  0  0
  179.8080  178.6010  137.4660 C   0  0  0  0  0  1  0  0  0  0  0  0
  181.3980  177.3900  139.8290 O   0  0  0  0  0  0  0  0  0  0  0  0
  181.4080  178.6510  140.4330 C   0  0  0  0  0  2  0  0  0  0  0  0
  182.2990  178.6280  141.6230 C   0  0  0  0  0  0  0  0  0  0  0  0
  182.6440  178.9950  143.9930 C   0  0  0  0  0  3  0  0  0  0  0  0
  184.4860  178.2630  142.6000 C   0  0  0  0  0  3  0  0  0  0  0  0
  183.9860  178.6260  143.8550 C   0  0  0  0  0  3  0  0  0  0  0  0
  183.6440  178.2660  141.4830 C   0  0  0  0  0  3  0  0  0  0  0  0
  181.8010  178.9980  142.8770 C   0  0  0  0  0  3  0  0  0  0  0  0
  188.3230  178.2210  141.5960 C   0  0  0  0  0  2  0  0  0  0  0  0
  187.9860  177.0110  142.4630 C   0  0  0  0  0  2  0  0  0  0  0  0
  187.4580  177.5260  146.1800 C   0  0  0  0  0  3  0  0  0  0  0  0
  188.7600  177.8290  146.6110 C   0  0  0  0  0  0  0  0  0  0  0  0
  189.5560  177.5770  144.3320 C   0  0  0  0  0  3  0  0  0  0  0  0
  187.2090  177.2510  144.8320 C   0  0  0  0  0  3  0  0  0  0  0  0
  188.2590  177.2760  143.9060 C   0  0  0  0  0  0  0  0  0  0  0  0
  189.8040  177.8470  145.6800 C   0  0  0  0  0  3  0  0  0  0  0  0
  188.1110  177.8780  148.9970 C   0  0  0  0  0  1  0  0  0  0  0  0
  189.0400  178.1150  147.9490 O   0  0  0  0  0  0  0  0  0  0  0  0
  1  8  1  0  0  0  0
  2 13  1  0  0  0  0
  2 12  1  0  0  0  0
  3 13  1  0  0  0  0
  4 14  1  0  0  0  0
  5  9  1  0  0  0  0
  5  1  2  0  0  0  0
  6  1  1  0  0  0  0
  7 11  1  0  0  0  0
  7  4  1  0  0  0  0
  8  4  2  0  0  0  0
  9  7  2  0  0  0  0
 10 11  1  0  0  0  0
 10  3  2  0  0  0  0
 11  2  2  0  0  0  0
 13 34  1  0  0  0  0
 14 12  2  0  0  0  0
 15  3  1  0  0  0  0
 15 16  1  6  0  0  0
 17 15  1  0  0  0  0
 18 17  1  0  0  0  0
 18 19  1  0  0  0  0
 19 20  1  0  0  0  0
 20 23  1  0  0  0  0
 20 21  1  0  0  0  0
 22 20  1  0  0  0  0
 23 24  1  6  0  0  0
 23 26  1  0  0  0  0
 25 24  1  0  0  0  0
 26 27  1  0  0  0  0
 27 28  1  0  0  0  0
 28 33  1  0  0  0  0
 30 31  2  0  0  0  0
 31 29  1  0  0  0  0
 32 28  2  0  0  0  0
 32 30  1  0  0  0  0
 33 29  2  0  0  0  0
 34 35  1  0  0  0  0
 35 40  1  0  0  0  0
 36 37  1  0  0  0  0
 37 43  1  0  0  0  0
 38 41  1  0  0  0  0
 39 36  2  0  0  0  0
 40 38  2  0  0  0  0
 40 39  1  0  0  0  0
 41 37  2  0  0  0  0
 43 42  1  0  0  0  0
M  END
>  <MODEL>
5

>  <REMARK>
 VINA RESULT:      -8.2      2.638      4.332
  Name = 
  14 active torsions:
  status: ('A' for Active; 'I' for Inactive)
    1  A    between atoms: C_1  and  C_35
    2  A    between atoms: C_1  and  C_38
    3  A    between atoms: C_2  and  C_6
    4  A    between atoms: C_2  and  C_13
    5  A    between atoms: C_3  and  C_4
    6  A    between atoms: C_3  and  N_17
    7  A    between atoms: C_4  and  C_22
    8  A    between atoms: C_6  and  N_17
    9  A    between atoms: O_10  and  C_22
   10  A    between atoms: C_11  and  C_41
   11  A    between atoms: O_14  and  C_22
   12  A    between atoms: O_14  and  C_41
   13  A    between atoms: C_19  and  O_37
   14  A    between atoms: N_34  and  C_38
                            x       y       z     vdW  Elec       q    Type
                         _______ _______ _______ _____ _____    ______ ____

>  <TORSDO>
F 14

$$$$
=
 OpenBabel10262422123D

 43 47  0  0  1  0  0  0  0  0999 V2000
  190.1280  177.1440  146.0070 C   0  0  0  0  0  0  0  0  0  0  0  0
  190.0610  177.5040  141.0420 C   0  0  0  0  0  0  0  0  0  0  0  0
  188.2100  178.0060  140.1120 C   0  0  0  0  0  0  0  0  0  0  0  0
  190.7280  177.1630  143.7090 C   0  0  0  0  0  0  0  0  0  0  0  0
  188.8050  177.4710  145.6930 C   0  0  0  0  0  3  0  0  0  0  0  0
  190.5080  176.9590  147.3650 N   0  0  0  0  0  1  0  0  0  0  0  0
  189.3950  177.4940  143.3550 C   0  0  0  0  0  0  0  0  0  0  0  0
  191.0540  176.9970  145.0190 N   0  0  0  0  0  0  0  0  0  0  0  0
  188.4360  177.6480  144.3570 C   0  0  0  0  0  3  0  0  0  0  0  0
  187.9180  177.9750  141.4400 N   0  0  0  0  0  0  0  0  0  0  0  0
  189.1000  177.6540  142.0010 C   0  0  0  0  0  0  0  0  0  0  0  0
  191.3840  177.1830  141.3500 C   0  0  0  0  0  3  0  0  0  0  0  0
  189.5110  177.7330  139.8410 N   0  0  0  0  0  0  0  0  0  0  0  0
  191.7120  177.0100  142.7080 C   0  0  0  0  0  3  0  0  0  0  0  0
  187.1940  178.3220  139.0620 C   0  0  1  0  0  3  0  0  0  0  0  0
  187.0450  177.2260  138.2100 O   0  0  0  0  0  1  0  0  0  0  0  0
  185.8600  178.6730  139.7070 C   0  0  0  0  0  2  0  0  0  0  0  0
  184.9310  179.1570  138.6980 N   0  0  0  0  0  2  0  0  0  0  0  0
  183.8410  178.1930  138.5980 C   0  0  0  0  0  2  0  0  0  0  0  0
  182.4760  178.8890  138.5320 C   0  0  0  0  0  0  0  0  0  0  0  0
  181.8550  178.6660  137.1590 C   0  0  0  0  0  1  0  0  0  0  0  0
  182.6500  180.3840  138.7590 C   0  0  0  0  0  1  0  0  0  0  0  0
  181.5480  178.2910  139.6030 C   0  0  1  0  0  3  0  0  0  0  0  0
  180.8110  177.2170  139.0900 O   0  0  0  0  0  0  0  0  0  0  0  0
  181.3980  176.0790  139.6470 C   0  0  0  0  0  1  0  0  0  0  0  0
  182.2790  177.8630  140.7190 O   0  0  0  0  0  0  0  0  0  0  0  0
  181.8550  178.6890  141.7650 C   0  0  0  0  0  2  0  0  0  0  0  0
  182.8840  178.7040  142.8390 C   0  0  0  0  0  0  0  0  0  0  0  0
  185.1820  178.4160  143.5470 C   0  0  0  0  0  3  0  0  0  0  0  0
  183.4740  178.9660  145.1740 C   0  0  0  0  0  3  0  0  0  0  0  0
  184.8100  178.6900  144.8660 C   0  0  0  0  0  3  0  0  0  0  0  0
  182.5100  178.9710  144.1600 C   0  0  0  0  0  3  0  0  0  0  0  0
  184.2190  178.4200  142.5320 C   0  0  0  0  0  3  0  0  0  0  0  0
  190.1660  177.7400  138.5360 C   0  0  0  0  0  2  0  0  0  0  0  0
  190.0790  176.3690  137.8710 C   0  0  0  0  0  2  0  0  0  0  0  0
  193.8270  175.8340  138.0280 C   0  0  0  0  0  3  0  0  0  0  0  0
  193.9460  174.5220  137.5410 C   0  0  0  0  0  0  0  0  0  0  0  0
  191.5340  174.4140  137.2880 C   0  0  0  0  0  3  0  0  0  0  0  0
  192.5680  176.4300  138.1430 C   0  0  0  0  0  3  0  0  0  0  0  0
  191.4200  175.7200  137.7740 C   0  0  0  0  0  0  0  0  0  0  0  0
  192.7930  173.8180  137.1780 C   0  0  0  0  0  3  0  0  0  0  0  0
  195.8070  173.1790  138.4630 C   0  0  0  0  0  1  0  0  0  0  0  0
  195.1890  173.9000  137.4060 O   0  0  0  0  0  0  0  0  0  0  0  0
  1  6  1  0  0  0  0
  2 12  2  0  0  0  0
  2 11  1  0  0  0  0
  3 10  2  0  0  0  0
  4  8  1  0  0  0  0
  5  1  1  0  0  0  0
  7  4  1  0  0  0  0
  7  9  1  0  0  0  0
  8  1  2  0  0  0  0
  9  5  2  0  0  0  0
 10 11  1  0  0  0  0
 11  7  2  0  0  0  0
 12 14  1  0  0  0  0
 13  3  1  0  0  0  0
 13  2  1  0  0  0  0
 14  4  2  0  0  0  0
 15 16  1  6  0  0  0
 15 17  1  0  0  0  0
 15  3  1  0  0  0  0
 18 17  1  0  0  0  0
 19 18  1  0  0  0  0
 20 19  1  0  0  0  0
 20 22  1  0  0  0  0
 20 23  1  0  0  0  0
 21 20  1  0  0  0  0
 23 24  1  6  0  0  0
 23 26  1  0  0  0  0
 24 25  1  0  0  0  0
 26 27  1  0  0  0  0
 27 28  1  0  0  0  0
 28 32  1  0  0  0  0
 29 31  2  0  0  0  0
 31 30  1  0  0  0  0
 32 30  2  0  0  0  0
 33 28  2  0  0  0  0
 33 29  1  0  0  0  0
 34 13  1  0  0  0  0
 35 34  1  0  0  0  0
 36 39  1  0  0  0  0
 37 36  2  0  0  0  0
 38 40  1  0  0  0  0
 40 35  1  0  0  0  0
 40 39  2  0  0  0  0
 41 38  2  0  0  0  0
 41 37  1  0  0  0  0
 43 37  1  0  0  0  0
 43 42  1  0  0  0  0
M  END
>  <MODEL>
6

>  <REMARK>
 VINA RESULT:      -8.1      3.298      7.322
  Name = 
  14 active torsions:
  status: ('A' for Active; 'I' for Inactive)
    1  A    between atoms: C_1  and  C_35
    2  A    between atoms: C_1  and  C_38
    3  A    between atoms: C_2  and  C_6
    4  A    between atoms: C_2  and  C_13
    5  A    between atoms: C_3  and  C_4
    6  A    between atoms: C_3  and  N_17
    7  A    between atoms: C_4  and  C_22
    8  A    between atoms: C_6  and  N_17
    9  A    between atoms: O_10  and  C_22
   10  A    between atoms: C_11  and  C_41
   11  A    between atoms: O_14  and  C_22
   12  A    between atoms: O_14  and  C_41
   13  A    between atoms: C_19  and  O_37
   14  A    between atoms: N_34  and  C_38
                            x       y       z     vdW  Elec       q    Type
                         _______ _______ _______ _____ _____    ______ ____

>  <TORSDO>
F 14

$$$$
=
 OpenBabel10262422123D

 43 47  0  0  1  0  0  0  0  0999 V2000
  191.4490  176.4540  146.9650 C   0  0  0  0  0  0  0  0  0  0  0  0
  187.8810  177.6970  143.7220 C   0  0  0  0  0  0  0  0  0  0  0  0
  188.3750  177.6660  141.6500 C   0  0  0  0  0  0  0  0  0  0  0  0
  189.3990  177.1180  145.9670 C   0  0  0  0  0  0  0  0  0  0  0  0
  192.0580  176.3500  145.7100 C   0  0  0  0  0  3  0  0  0  0  0  0
  192.1970  176.1660  148.1400 N   0  0  0  0  0  1  0  0  0  0  0  0
  189.9850  177.0240  144.6780 C   0  0  0  0  0  0  0  0  0  0  0  0
  190.1450  176.8320  147.0670 N   0  0  0  0  0  0  0  0  0  0  0  0
  191.3210  176.6370  144.5580 C   0  0  0  0  0  3  0  0  0  0  0  0
  189.5270  177.2970  142.2720 N   0  0  0  0  0  0  0  0  0  0  0  0
  189.1880  177.3270  143.5750 C   0  0  0  0  0  0  0  0  0  0  0  0
  187.2670  177.7970  144.9720 C   0  0  0  0  0  3  0  0  0  0  0  0
  187.3530  177.9060  142.5080 N   0  0  0  0  0  0  0  0  0  0  0  0
  188.0470  177.5030  146.1050 C   0  0  0  0  0  3  0  0  0  0  0  0
  188.2530  177.7830  140.1640 C   0  0  1  0  0  3  0  0  0  0  0  0
  188.4430  179.1120  139.7820 O   0  0  0  0  0  1  0  0  0  0  0  0
  189.2750  176.8860  139.4790 C   0  0  0  0  0  2  0  0  0  0  0  0
  189.3030  177.1630  138.0510 N   0  0  0  0  0  2  0  0  0  0  0  0
  188.2020  176.4330  137.4330 C   0  0  0  0  0  2  0  0  0  0  0  0
  187.5480  177.2410  136.3080 C   0  0  0  0  0  0  0  0  0  0  0  0
  188.0380  176.7310  134.9590 C   0  0  0  0  0  1  0  0  0  0  0  0
  187.9220  178.7100  136.4460 C   0  0  0  0  0  1  0  0  0  0  0  0
  186.0200  177.0710  136.3810 C   0  0  1  0  0  3  0  0  0  0  0  0
  185.5800  176.0790  135.4970 O   0  0  0  0  0  0  0  0  0  0  0  0
  184.4780  176.6370  134.8490 C   0  0  0  0  0  1  0  0  0  0  0  0
  185.6130  176.7500  137.6820 O   0  0  0  0  0  0  0  0  0  0  0  0
  184.9030  177.8700  138.1240 C   0  0  0  0  0  2  0  0  0  0  0  0
  183.4600  177.5310  138.2480 C   0  0  0  0  0  0  0  0  0  0  0  0
  181.7190  175.9470  138.8170 C   0  0  0  0  0  3  0  0  0  0  0  0
  181.1320  178.1370  137.9650 C   0  0  0  0  0  3  0  0  0  0  0  0
  180.7470  176.8800  138.4420 C   0  0  0  0  0  3  0  0  0  0  0  0
  182.4890  178.4630  137.8660 C   0  0  0  0  0  3  0  0  0  0  0  0
  183.0760  176.2710  138.7180 C   0  0  0  0  0  3  0  0  0  0  0  0
  185.9770  178.2630  142.1730 C   0  0  0  0  0  2  0  0  0  0  0  0
  185.1670  178.5670  143.4300 C   0  0  0  0  0  2  0  0  0  0  0  0
  181.4340  179.0200  143.8900 C   0  0  0  0  0  3  0  0  0  0  0  0
  180.9660  178.8690  142.5740 C   0  0  0  0  0  0  0  0  0  0  0  0
  183.2490  178.5400  141.8180 C   0  0  0  0  0  3  0  0  0  0  0  0
  182.8010  178.9310  144.1650 C   0  0  0  0  0  3  0  0  0  0  0  0
  183.7100  178.6910  143.1290 C   0  0  0  0  0  0  0  0  0  0  0  0
  181.8820  178.6340  141.5430 C   0  0  0  0  0  3  0  0  0  0  0  0
  178.9780  178.0730  141.3360 C   0  0  0  0  0  1  0  0  0  0  0  0
  179.6060  178.9450  142.2660 O   0  0  0  0  0  0  0  0  0  0  0  0
  1  8  1  0  0  0  0
  1  6  1  0  0  0  0
  2 12  1  0  0  0  0
  3 10  2  0  0  0  0
  3 13  1  0  0  0  0
  4 14  1  0  0  0  0
  4  8  2  0  0  0  0
  5  1  2  0  0  0  0
  7  4  1  0  0  0  0
  9  7  2  0  0  0  0
  9  5  1  0  0  0  0
 10 11  1  0  0  0  0
 11  2  2  0  0  0  0
 11  7  1  0  0  0  0
 12 14  2  0  0  0  0
 13  2  1  0  0  0  0
 15 16  1  1  0  0  0
 15  3  1  0  0  0  0
 17 15  1  0  0  0  0
 18 17  1  0  0  0  0
 19 18  1  0  0  0  0
 20 23  1  0  0  0  0
 20 22  1  0  0  0  0
 20 19  1  0  0  0  0
 21 20  1  0  0  0  0
 23 24  1  6  0  0  0
 23 26  1  0  0  0  0
 25 24  1  0  0  0  0
 26 27  1  0  0  0  0
 27 28  1  0  0  0  0
 28 33  1  0  0  0  0
 30 31  2  0  0  0  0
 31 29  1  0  0  0  0
 32 30  1  0  0  0  0
 32 28  2  0  0  0  0
 33 29  2  0  0  0  0
 34 13  1  0  0  0  0
 34 35  1  0  0  0  0
 36 39  1  0  0  0  0
 37 36  2  0  0  0  0
 38 40  1  0  0  0  0
 40 35  1  0  0  0  0
 40 39  2  0  0  0  0
 41 38  2  0  0  0  0
 41 37  1  0  0  0  0
 42 43  1  0  0  0  0
 43 37  1  0  0  0  0
M  END
>  <MODEL>
7

>  <REMARK>
 VINA RESULT:      -8.0      3.279      6.764
  Name = 
  14 active torsions:
  status: ('A' for Active; 'I' for Inactive)
    1  A    between atoms: C_1  and  C_35
    2  A    between atoms: C_1  and  C_38
    3  A    between atoms: C_2  and  C_6
    4  A    between atoms: C_2  and  C_13
    5  A    between atoms: C_3  and  C_4
    6  A    between atoms: C_3  and  N_17
    7  A    between atoms: C_4  and  C_22
    8  A    between atoms: C_6  and  N_17
    9  A    between atoms: O_10  and  C_22
   10  A    between atoms: C_11  and  C_41
   11  A    between atoms: O_14  and  C_22
   12  A    between atoms: O_14  and  C_41
   13  A    between atoms: C_19  and  O_37
   14  A    between atoms: N_34  and  C_38
                            x       y       z     vdW  Elec       q    Type
                         _______ _______ _______ _____ _____    ______ ____

>  <TORSDO>
F 14

$$$$
=
 OpenBabel10262422123D

 43 47  0  0  1  0  0  0  0  0999 V2000
  187.3160  177.8640  147.4490 C   0  0  0  0  0  0  0  0  0  0  0  0
  184.4510  178.6860  143.4610 C   0  0  0  0  0  0  0  0  0  0  0  0
  185.3750  178.5870  141.5430 C   0  0  0  0  0  0  0  0  0  0  0  0
  185.4890  178.3290  146.0050 C   0  0  0  0  0  0  0  0  0  0  0  0
  188.1830  177.7420  146.3580 C   0  0  0  0  0  3  0  0  0  0  0  0
  187.8120  177.6900  148.7710 N   0  0  0  0  0  1  0  0  0  0  0  0
  186.3400  178.2140  144.8760 C   0  0  0  0  0  0  0  0  0  0  0  0
  186.0000  178.1530  147.2530 N   0  0  0  0  0  0  0  0  0  0  0  0
  187.6910  177.9180  145.0620 C   0  0  0  0  0  3  0  0  0  0  0  0
  186.3880  178.3330  142.4140 N   0  0  0  0  0  0  0  0  0  0  0  0
  185.7790  178.4030  143.6140 C   0  0  0  0  0  0  0  0  0  0  0  0
  183.5810  178.8040  144.5460 C   0  0  0  0  0  3  0  0  0  0  0  0
  184.1820  178.7960  142.1530 N   0  0  0  0  0  0  0  0  0  0  0  0
  184.1180  178.6230  145.8340 C   0  0  0  0  0  3  0  0  0  0  0  0
  185.5650  178.6210  140.0600 C   0  0  1  0  0  3  0  0  0  0  0  0
  184.9430  179.7550  139.5340 O   0  0  0  0  0  1  0  0  0  0  0  0
  187.0480  178.6260  139.7190 C   0  0  0  0  0  2  0  0  0  0  0  0
  187.2430  178.2080  138.3390 N   0  0  0  0  0  2  0  0  0  0  0  0
  188.6730  178.2530  138.0580 C   0  0  0  0  0  2  0  0  0  0  0  0
  189.2410  176.8560  137.7860 C   0  0  0  0  0  0  0  0  0  0  0  0
  190.1840  176.9100  136.5910 C   0  0  0  0  0  1  0  0  0  0  0  0
  188.1040  175.8920  137.4750 C   0  0  0  0  0  1  0  0  0  0  0  0
  190.0250  176.3760  139.0190 C   0  0  1  0  0  3  0  0  0  0  0  0
  191.2950  175.9100  138.6600 O   0  0  0  0  0  0  0  0  0  0  0  0
  192.1870  176.8060  139.2520 C   0  0  0  0  0  1  0  0  0  0  0  0
  190.1550  177.4040  139.9620 O   0  0  0  0  0  0  0  0  0  0  0  0
  189.3930  176.9850  141.0580 C   0  0  0  0  0  2  0  0  0  0  0  0
  190.1640  177.1940  142.3120 C   0  0  0  0  0  0  0  0  0  0  0  0
  191.3230  176.2890  144.2370 C   0  0  0  0  0  3  0  0  0  0  0  0
  191.1210  178.6870  143.9620 C   0  0  0  0  0  3  0  0  0  0  0  0
  191.5780  177.5850  144.6940 C   0  0  0  0  0  3  0  0  0  0  0  0
  190.4120  178.4920  142.7720 C   0  0  0  0  0  3  0  0  0  0  0  0
  190.6140  176.0920  143.0470 C   0  0  0  0  0  3  0  0  0  0  0  0
  182.8890  179.0360  141.5150 C   0  0  0  0  0  2  0  0  0  0  0  0
  182.1570  177.7240  141.2490 C   0  0  0  0  0  2  0  0  0  0  0  0
  182.0410  177.8500  137.4640 C   0  0  0  0  0  3  0  0  0  0  0  0
  182.4080  176.5370  137.1270 C   0  0  0  0  0  0  0  0  0  0  0  0
  182.6290  176.0080  139.4850 C   0  0  0  0  0  3  0  0  0  0  0  0
  181.9690  178.2370  138.8050 C   0  0  0  0  0  3  0  0  0  0  0  0
  182.2630  177.3160  139.8170 C   0  0  0  0  0  0  0  0  0  0  0  0
  182.7050  175.6240  138.1440 C   0  0  0  0  0  3  0  0  0  0  0  0
  183.6690  175.5810  135.2250 C   0  0  0  0  0  1  0  0  0  0  0  0
  182.4820  176.1150  135.7970 O   0  0  0  0  0  0  0  0  0  0  0  0
  1  6  1  0  0  0  0
  2 11  2  0  0  0  0
  2 12  1  0  0  0  0
  3 13  1  0  0  0  0
  3 10  2  0  0  0  0
  4  8  2  0  0  0  0
  5  1  2  0  0  0  0
  7  9  2  0  0  0  0
  7  4  1  0  0  0  0
  8  1  1  0  0  0  0
  9  5  1  0  0  0  0
 10 11  1  0  0  0  0
 11  7  1  0  0  0  0
 12 14  2  0  0  0  0
 13  2  1  0  0  0  0
 14  4  1  0  0  0  0
 15 16  1  1  0  0  0
 15  3  1  0  0  0  0
 17 15  1  0  0  0  0
 18 17  1  0  0  0  0
 19 18  1  0  0  0  0
 20 19  1  0  0  0  0
 20 23  1  0  0  0  0
 21 20  1  0  0  0  0
 22 20  1  0  0  0  0
 23 24  1  6  0  0  0
 23 26  1  0  0  0  0
 24 25  1  0  0  0  0
 26 27  1  0  0  0  0
 27 28  1  0  0  0  0
 28 32  2  0  0  0  0
 28 33  1  0  0  0  0
 29 31  1  0  0  0  0
 30 31  2  0  0  0  0
 32 30  1  0  0  0  0
 33 29  2  0  0  0  0
 34 13  1  0  0  0  0
 35 34  1  0  0  0  0
 36 39  1  0  0  0  0
 37 36  2  0  0  0  0
 37 41  1  0  0  0  0
 38 40  1  0  0  0  0
 39 40  2  0  0  0  0
 40 35  1  0  0  0  0
 41 38  2  0  0  0  0
 42 43  1  0  0  0  0
 43 37  1  0  0  0  0
M  END
>  <MODEL>
8

>  <REMARK>
 VINA RESULT:      -8.0      3.386      9.381
  Name = 
  14 active torsions:
  status: ('A' for Active; 'I' for Inactive)
    1  A    between atoms: C_1  and  C_35
    2  A    between atoms: C_1  and  C_38
    3  A    between atoms: C_2  and  C_6
    4  A    between atoms: C_2  and  C_13
    5  A    between atoms: C_3  and  C_4
    6  A    between atoms: C_3  and  N_17
    7  A    between atoms: C_4  and  C_22
    8  A    between atoms: C_6  and  N_17
    9  A    between atoms: O_10  and  C_22
   10  A    between atoms: C_11  and  C_41
   11  A    between atoms: O_14  and  C_22
   12  A    between atoms: O_14  and  C_41
   13  A    between atoms: C_19  and  O_37
   14  A    between atoms: N_34  and  C_38
                            x       y       z     vdW  Elec       q    Type
                         _______ _______ _______ _____ _____    ______ ____

>  <TORSDO>
F 14

$$$$
=
 OpenBabel10262422123D

 43 47  0  0  1  0  0  0  0  0999 V2000
  184.3380  178.8110  144.7680 C   0  0  0  0  0  0  0  0  0  0  0  0
  188.1550  177.4290  141.8850 C   0  0  0  0  0  0  0  0  0  0  0  0
  188.1660  178.1090  139.8660 C   0  0  0  0  0  0  0  0  0  0  0  0
  186.3480  177.8510  143.9420 C   0  0  0  0  0  0  0  0  0  0  0  0
  184.0710  179.3900  143.5230 C   0  0  0  0  0  3  0  0  0  0  0  0
  183.4330  179.0030  145.8480 N   0  0  0  0  0  1  0  0  0  0  0  0
  186.1070  178.4220  142.6660 C   0  0  0  0  0  0  0  0  0  0  0  0
  185.4590  178.0600  144.9510 N   0  0  0  0  0  0  0  0  0  0  0  0
  184.9620  179.1950  142.4650 C   0  0  0  0  0  3  0  0  0  0  0  0
  187.0220  178.6290  140.3870 N   0  0  0  0  0  0  0  0  0  0  0  0
  187.0400  178.1840  141.6580 C   0  0  0  0  0  0  0  0  0  0  0  0
  188.4290  176.8530  143.1270 C   0  0  0  0  0  3  0  0  0  0  0  0
  188.8810  177.3810  140.7590 N   0  0  0  0  0  0  0  0  0  0  0  0
  187.5040  177.0710  144.1640 C   0  0  0  0  0  3  0  0  0  0  0  0
  188.5900  178.3300  138.4490 C   0  0  1  0  0  3  0  0  0  0  0  0
  189.9680  178.5490  138.4020 O   0  0  0  0  0  1  0  0  0  0  0  0
  188.2160  177.1290  137.5930 C   0  0  0  0  0  2  0  0  0  0  0  0
  187.0250  177.4250  136.8130 N   0  0  0  0  0  2  0  0  0  0  0  0
  186.1120  176.2950  136.9470 C   0  0  0  0  0  2  0  0  0  0  0  0
  184.6530  176.7560  137.0440 C   0  0  0  0  0  0  0  0  0  0  0  0
  184.1410  177.1270  135.6580 C   0  0  0  0  0  1  0  0  0  0  0  0
  184.5590  177.9760  137.9490 C   0  0  0  0  0  1  0  0  0  0  0  0
  183.7940  175.6090  137.6030 C   0  0  1  0  0  3  0  0  0  0  0  0
  184.4990  174.4000  137.5970 O   0  0  0  0  0  0  0  0  0  0  0  0
  183.7630  173.5580  136.7620 C   0  0  0  0  0  1  0  0  0  0  0  0
  183.3660  175.8920  138.9070 O   0  0  0  0  0  0  0  0  0  0  0  0
  181.9780  175.7280  138.8730 C   0  0  0  0  0  2  0  0  0  0  0  0
  181.3230  176.8620  139.5780 C   0  0  0  0  0  0  0  0  0  0  0  0
  179.4180  178.3280  139.8750 C   0  0  0  0  0  3  0  0  0  0  0  0
  181.4070  178.6390  141.2220 C   0  0  0  0  0  3  0  0  0  0  0  0
  180.1070  179.0220  140.8740 C   0  0  0  0  0  3  0  0  0  0  0  0
  182.0160  177.5600  140.5730 C   0  0  0  0  0  3  0  0  0  0  0  0
  180.0260  177.2490  139.2240 C   0  0  0  0  0  3  0  0  0  0  0  0
  190.1750  176.7370  140.5470 C   0  0  0  0  0  2  0  0  0  0  0  0
  191.3090  177.5830  141.1180 C   0  0  0  0  0  2  0  0  0  0  0  0
  191.6820  175.9190  144.5010 C   0  0  0  0  0  3  0  0  0  0  0  0
  191.6550  177.0260  145.3660 C   0  0  0  0  0  0  0  0  0  0  0  0
  191.4210  178.4970  143.4490 C   0  0  0  0  0  3  0  0  0  0  0  0
  191.5790  176.1030  143.1200 C   0  0  0  0  0  3  0  0  0  0  0  0
  191.4480  177.3930  142.5920 C   0  0  0  0  0  0  0  0  0  0  0  0
  191.5290  178.3120  144.8290 C   0  0  0  0  0  3  0  0  0  0  0  0
  192.0590  175.6360  147.3720 C   0  0  0  0  0  1  0  0  0  0  0  0
  191.7480  176.8770  146.7510 O   0  0  0  0  0  0  0  0  0  0  0  0
  1  8  1  0  0  0  0
  1  6  1  0  0  0  0
  2 12  1  0  0  0  0
  3 10  2  0  0  0  0
  3 13  1  0  0  0  0
  4 14  1  0  0  0  0
  4  8  2  0  0  0  0
  5  1  2  0  0  0  0
  7  4  1  0  0  0  0
  9  7  2  0  0  0  0
  9  5  1  0  0  0  0
 10 11  1  0  0  0  0
 11  2  2  0  0  0  0
 11  7  1  0  0  0  0
 12 14  2  0  0  0  0
 13  2  1  0  0  0  0
 15 16  1  1  0  0  0
 15  3  1  0  0  0  0
 17 15  1  0  0  0  0
 18 19  1  0  0  0  0
 18 17  1  0  0  0  0
 19 20  1  0  0  0  0
 20 23  1  0  0  0  0
 20 22  1  0  0  0  0
 21 20  1  0  0  0  0
 23 24  1  1  0  0  0
 23 26  1  0  0  0  0
 25 24  1  0  0  0  0
 27 26  1  0  0  0  0
 27 28  1  0  0  0  0
 28 32  1  0  0  0  0
 29 31  2  0  0  0  0
 31 30  1  0  0  0  0
 32 30  2  0  0  0  0
 33 28  2  0  0  0  0
 33 29  1  0  0  0  0
 34 13  1  0  0  0  0
 34 35  1  0  0  0  0
 35 40  1  0  0  0  0
 36 37  1  0  0  0  0
 37 43  1  0  0  0  0
 38 41  1  0  0  0  0
 39 36  2  0  0  0  0
 40 39  1  0  0  0  0
 40 38  2  0  0  0  0
 41 37  2  0  0  0  0
 43 42  1  0  0  0  0
M  END
>  <MODEL>
9

>  <REMARK>
 VINA RESULT:      -7.9      3.442      6.202
  Name = 
  14 active torsions:
  status: ('A' for Active; 'I' for Inactive)
    1  A    between atoms: C_1  and  C_35
    2  A    between atoms: C_1  and  C_38
    3  A    between atoms: C_2  and  C_6
    4  A    between atoms: C_2  and  C_13
    5  A    between atoms: C_3  and  C_4
    6  A    between atoms: C_3  and  N_17
    7  A    between atoms: C_4  and  C_22
    8  A    between atoms: C_6  and  N_17
    9  A    between atoms: O_10  and  C_22
   10  A    between atoms: C_11  and  C_41
   11  A    between atoms: O_14  and  C_22
   12  A    between atoms: O_14  and  C_41
   13  A    between atoms: C_19  and  O_37
   14  A    between atoms: N_34  and  C_38
                            x       y       z     vdW  Elec       q    Type
                         _______ _______ _______ _____ _____    ______ ____

>  <TORSDO>
F 14

$$$$
