=
 OpenBabel10262419173D

 34 38  0  0  1  0  0  0  0  0999 V2000
  189.6260  177.2370  146.6490 C   0  0  0  0  0  0  0  0  0  0  0  0
  191.2040  176.2500  145.0840 C   0  0  0  0  0  0  0  0  0  0  0  0
  189.1040  177.3310  144.2600 C   0  0  0  0  0  0  0  0  0  0  0  0
  188.4920  177.4360  141.8490 C   0  0  0  0  0  0  0  0  0  0  0  0
  190.4970  176.9520  147.7010 C   0  0  0  0  0  3  0  0  0  0  0  0
  192.0590  175.9630  146.1520 C   0  0  0  0  0  3  0  0  0  0  0  0
  190.8170  177.9390  142.5220 C   0  0  0  0  0  2  0  0  0  0  0  0
  189.9930  176.9500  145.3070 C   0  0  0  0  0  0  0  0  0  0  0  0
  191.2640  177.4610  141.1440 C   0  0  0  0  0  2  0  0  0  0  0  0
  188.8620  177.1960  140.4200 C   0  0  0  0  0  2  0  0  0  0  0  0
  191.7200  176.3310  147.4520 C   0  0  0  0  0  3  0  0  0  0  0  0
  187.7960  177.7590  144.5820 C   0  0  0  0  0  0  0  0  0  0  0  0
  188.3760  177.7760  146.9400 C   0  0  0  0  0  3  0  0  0  0  0  0
  191.5230  175.7350  143.8710 F   0  0  0  0  0  0  0  0  0  0  0  0
  187.2290  177.7180  142.1600 C   0  0  0  0  0  3  0  0  0  0  0  0
  186.8330  177.9610  143.5180 N   0  0  0  0  0  0  0  0  0  0  0  0
  190.2120  177.8380  140.1030 C   0  0  2  0  0  3  0  0  0  0  0  0
  189.5060  177.3830  142.8710 N   0  0  0  0  0  0  0  0  0  0  0  0
  187.4620  178.0130  145.9190 C   0  0  0  0  0  3  0  0  0  0  0  0
  183.2030  178.6850  142.9190 C   0  0  0  0  0  0  0  0  0  0  0  0
  182.7590  178.9630  144.2140 C   0  0  0  0  0  3  0  0  0  0  0  0
  185.4570  178.3250  143.7580 C   0  0  0  0  0  0  0  0  0  0  0  0
  183.6560  178.9160  145.2840 C   0  0  0  0  0  3  0  0  0  0  0  0
  184.5440  178.3630  142.6930 C   0  0  0  0  0  3  0  0  0  0  0  0
  184.9970  178.5950  145.0580 C   0  0  0  0  0  3  0  0  0  0  0  0
  182.0790  178.7360  141.5790 Cl  0  0  0  0  0  0  0  0  0  0  0  0
  190.6750  177.4930  138.6910 C   0  0  0  0  0  2  0  0  0  0  0  0
  189.5250  177.0430  137.7980 C   0  0  0  0  0  2  0  0  0  0  0  0
  189.1400  179.4050  137.6010 O   0  0  0  0  0  1  0  0  0  0  0  0
  189.0610  178.1910  136.9140 C   0  0  2  0  0  3  0  0  0  0  0  0
  187.7160  177.9520  136.3600 N   0  0  0  0  0  2  0  0  0  0  0  0
  185.8120  178.1940  137.9770 C   0  0  0  0  0  1  0  0  0  0  0  0
  186.7660  177.2600  137.2470 C   0  0  0  0  0  3  0  0  0  0  0  0
  186.0280  176.1390  136.5360 C   0  0  0  0  0  1  0  0  0  0  0  0
  1 13  1  0  0  0  0
  1  5  2  0  0  0  0
  2  8  2  0  0  0  0
  2  6  1  0  0  0  0
  3 12  2  0  0  0  0
  3  8  1  0  0  0  0
  4 15  2  0  0  0  0
  4 18  1  0  0  0  0
  6 11  2  0  0  0  0
  7 18  1  0  0  0  0
  8  1  1  0  0  0  0
  9  7  1  0  0  0  0
 10  4  1  0  0  0  0
 11  5  1  0  0  0  0
 12 19  1  0  0  0  0
 14  2  1  0  0  0  0
 15 16  1  0  0  0  0
 16 22  1  0  0  0  0
 16 12  1  0  0  0  0
 17 27  1  6  0  0  0
 17 10  1  0  0  0  0
 17  9  1  0  0  0  0
 18  3  1  0  0  0  0
 19 13  2  0  0  0  0
 20 21  1  0  0  0  0
 21 23  2  0  0  0  0
 22 25  2  0  0  0  0
 24 20  2  0  0  0  0
 24 22  1  0  0  0  0
 25 23  1  0  0  0  0
 26 20  1  0  0  0  0
 28 27  1  0  0  0  0
 30 29  1  1  0  0  0
 30 28  1  0  0  0  0
 31 30  1  0  0  0  0
 31 33  1  0  0  0  0
 33 32  1  0  0  0  0
 34 33  1  0  0  0  0
M  END
>  <MODEL>
1

>  <REMARK>
 VINA RESULT:     -10.4      0.000      0.000
  Name = 
  6 active torsions:
  status: ('A' for Active; 'I' for Inactive)
    1  A    between atoms: C_3  and  C_13
    2  A    between atoms: C_3  and  C_29
    3  A    between atoms: C_12  and  N_28
    4  A    between atoms: C_13  and  C_33
    5  A    between atoms: C_20  and  N_22
    6  A    between atoms: N_22  and  C_33
                            x       y       z     vdW  Elec       q    Type
                         _______ _______ _______ _____ _____    ______ ____

>  <TORSDO>
F 6

$$$$
=
 OpenBabel10262419173D

 34 38  0  0  1  0  0  0  0  0999 V2000
  189.6520  177.2730  146.6410 C   0  0  0  0  0  0  0  0  0  0  0  0
  191.2770  176.2240  145.1670 C   0  0  0  0  0  0  0  0  0  0  0  0
  189.2170  177.2920  144.2320 C   0  0  0  0  0  0  0  0  0  0  0  0
  188.6920  177.3220  141.7990 C   0  0  0  0  0  0  0  0  0  0  0  0
  190.4830  177.0160  147.7330 C   0  0  0  0  0  3  0  0  0  0  0  0
  192.0920  175.9670  146.2730 C   0  0  0  0  0  3  0  0  0  0  0  0
  190.9960  177.8310  142.5390 C   0  0  0  0  0  2  0  0  0  0  0  0
  190.0640  176.9390  145.3230 C   0  0  0  0  0  0  0  0  0  0  0  0
  191.4880  177.3040  141.1940 C   0  0  0  0  0  2  0  0  0  0  0  0
  189.1110  177.0320  140.3930 C   0  0  0  0  0  2  0  0  0  0  0  0
  191.7090  176.3790  147.5480 C   0  0  0  0  0  3  0  0  0  0  0  0
  187.9020  177.7390  144.4930 C   0  0  0  0  0  0  0  0  0  0  0  0
  188.3970  177.8300  146.8680 C   0  0  0  0  0  3  0  0  0  0  0  0
  191.6360  175.6680  143.9840 F   0  0  0  0  0  0  0  0  0  0  0  0
  187.4220  177.6230  142.0550 C   0  0  0  0  0  3  0  0  0  0  0  0
  186.9790  177.9130  143.3890 N   0  0  0  0  0  0  0  0  0  0  0  0
  190.4770  177.6540  140.1050 C   0  0  2  0  0  3  0  0  0  0  0  0
  189.6680  177.2950  142.8590 N   0  0  0  0  0  0  0  0  0  0  0  0
  187.5220  178.0390  145.8080 C   0  0  0  0  0  3  0  0  0  0  0  0
  183.3780  178.6380  142.6370 C   0  0  0  0  0  0  0  0  0  0  0  0
  182.8910  178.9650  143.9050 C   0  0  0  0  0  3  0  0  0  0  0  0
  185.5990  178.2940  143.5680 C   0  0  0  0  0  0  0  0  0  0  0  0
  183.7500  178.9510  145.0070 C   0  0  0  0  0  3  0  0  0  0  0  0
  184.7240  178.3000  142.4700 C   0  0  0  0  0  3  0  0  0  0  0  0
  185.0950  178.6130  144.8400 C   0  0  0  0  0  3  0  0  0  0  0  0
  182.3020  178.6480  141.2570 Cl  0  0  0  0  0  0  0  0  0  0  0  0
  190.9880  177.2600  138.7220 C   0  0  0  0  0  2  0  0  0  0  0  0
  189.8600  176.8330  137.7890 C   0  0  0  0  0  2  0  0  0  0  0  0
  188.9400  174.7020  137.1760 O   0  0  0  0  0  1  0  0  0  0  0  0
  190.1250  175.4390  137.2420 C   0  0  2  0  0  3  0  0  0  0  0  0
  191.1740  174.7380  138.0040 N   0  0  0  0  0  2  0  0  0  0  0  0
  192.1410  174.3920  135.7140 C   0  0  0  0  0  1  0  0  0  0  0  0
  192.3030  174.2140  137.2160 C   0  0  0  0  0  3  0  0  0  0  0  0
  193.6400  174.7410  137.7080 C   0  0  0  0  0  1  0  0  0  0  0  0
  1 13  1  0  0  0  0
  1  5  2  0  0  0  0
  2  8  2  0  0  0  0
  2  6  1  0  0  0  0
  3 12  2  0  0  0  0
  3  8  1  0  0  0  0
  4 15  2  0  0  0  0
  4 18  1  0  0  0  0
  6 11  2  0  0  0  0
  7 18  1  0  0  0  0
  8  1  1  0  0  0  0
  9  7  1  0  0  0  0
 10  4  1  0  0  0  0
 11  5  1  0  0  0  0
 12 19  1  0  0  0  0
 14  2  1  0  0  0  0
 15 16  1  0  0  0  0
 16 22  1  0  0  0  0
 16 12  1  0  0  0  0
 17 27  1  6  0  0  0
 17 10  1  0  0  0  0
 17  9  1  0  0  0  0
 18  3  1  0  0  0  0
 19 13  2  0  0  0  0
 20 21  1  0  0  0  0
 21 23  2  0  0  0  0
 22 25  2  0  0  0  0
 24 20  2  0  0  0  0
 24 22  1  0  0  0  0
 25 23  1  0  0  0  0
 26 20  1  0  0  0  0
 28 27  1  0  0  0  0
 30 29  1  1  0  0  0
 30 28  1  0  0  0  0
 30 31  1  0  0  0  0
 32 33  1  0  0  0  0
 33 34  1  0  0  0  0
 33 31  1  0  0  0  0
M  END
>  <MODEL>
2

>  <REMARK>
 VINA RESULT:     -10.3      1.743      2.536
  Name = 
  6 active torsions:
  status: ('A' for Active; 'I' for Inactive)
    1  A    between atoms: C_3  and  C_13
    2  A    between atoms: C_3  and  C_29
    3  A    between atoms: C_12  and  N_28
    4  A    between atoms: C_13  and  C_33
    5  A    between atoms: C_20  and  N_22
    6  A    between atoms: N_22  and  C_33
                            x       y       z     vdW  Elec       q    Type
                         _______ _______ _______ _____ _____    ______ ____

>  <TORSDO>
F 6

$$$$
=
 OpenBabel10262419173D

 34 38  0  0  1  0  0  0  0  0999 V2000
  190.7480  176.5500  143.6590 C   0  0  0  0  0  0  0  0  0  0  0  0
  189.4420  177.6130  145.4140 C   0  0  0  0  0  0  0  0  0  0  0  0
  188.6160  177.5890  143.0530 C   0  0  0  0  0  0  0  0  0  0  0  0
  186.4760  178.6510  142.3560 C   0  0  0  0  0  0  0  0  0  0  0  0
  191.6770  176.1280  144.6120 C   0  0  0  0  0  3  0  0  0  0  0  0
  190.3880  177.1900  146.3520 C   0  0  0  0  0  3  0  0  0  0  0  0
  186.5290  177.2970  144.4240 C   0  0  0  0  0  2  0  0  0  0  0  0
  189.5740  177.2470  144.0520 C   0  0  0  0  0  0  0  0  0  0  0  0
  185.3820  178.1530  144.9520 C   0  0  0  0  0  2  0  0  0  0  0  0
  185.2040  179.3420  142.7340 C   0  0  0  0  0  2  0  0  0  0  0  0
  191.4890  176.4330  145.9590 C   0  0  0  0  0  3  0  0  0  0  0  0
  188.9570  177.4460  141.6890 C   0  0  0  0  0  0  0  0  0  0  0  0
  191.0080  176.3070  142.3140 C   0  0  0  0  0  3  0  0  0  0  0  0
  188.4800  178.4680  145.8380 F   0  0  0  0  0  0  0  0  0  0  0  0
  186.8530  178.6270  141.0810 C   0  0  0  0  0  3  0  0  0  0  0  0
  188.0640  177.9700  140.6750 N   0  0  0  0  0  0  0  0  0  0  0  0
  184.4570  178.5400  143.8000 C   0  0  2  0  0  3  0  0  0  0  0  0
  187.2660  178.0000  143.3690 N   0  0  0  0  0  0  0  0  0  0  0  0
  190.1340  176.7700  141.3380 C   0  0  0  0  0  3  0  0  0  0  0  0
  188.1810  176.8300  137.1050 C   0  0  0  0  0  0  0  0  0  0  0  0
  188.8780  177.8800  136.5020 C   0  0  0  0  0  3  0  0  0  0  0  0
  188.3640  177.9340  139.2640 C   0  0  0  0  0  0  0  0  0  0  0  0
  189.3150  178.9600  137.2730 C   0  0  0  0  0  3  0  0  0  0  0  0
  187.9210  176.8600  138.4770 C   0  0  0  0  0  3  0  0  0  0  0  0
  189.0550  178.9900  138.6460 C   0  0  0  0  0  3  0  0  0  0  0  0
  187.6280  175.4800  136.1400 Cl  0  0  0  0  0  0  0  0  0  0  0  0
  183.2260  179.2900  144.2990 C   0  0  0  0  0  2  0  0  0  0  0  0
  181.9260  178.6280  143.8570 C   0  0  0  0  0  2  0  0  0  0  0  0
  180.4380  180.2150  142.8430 O   0  0  0  0  0  1  0  0  0  0  0  0
  181.4210  179.2610  142.5700 C   0  0  2  0  0  3  0  0  0  0  0  0
  180.9610  178.2500  141.6000 N   0  0  0  0  0  2  0  0  0  0  0  0
  181.8320  179.5250  139.6210 C   0  0  0  0  0  1  0  0  0  0  0  0
  181.7080  178.1850  140.3320 C   0  0  0  0  0  3  0  0  0  0  0  0
  183.0540  177.5020  140.4930 C   0  0  0  0  0  1  0  0  0  0  0  0
  1  8  1  0  0  0  0
  1  5  2  0  0  0  0
  2 14  1  0  0  0  0
  2  6  1  0  0  0  0
  3 18  1  0  0  0  0
  3  8  1  0  0  0  0
  4 10  1  0  0  0  0
  4 18  1  0  0  0  0
  5 11  1  0  0  0  0
  7  9  1  0  0  0  0
  8  2  2  0  0  0  0
 10 17  1  0  0  0  0
 11  6  2  0  0  0  0
 12  3  2  0  0  0  0
 13  1  1  0  0  0  0
 15  4  2  0  0  0  0
 16 15  1  0  0  0  0
 16 12  1  0  0  0  0
 17 27  1  1  0  0  0
 17  9  1  0  0  0  0
 18  7  1  0  0  0  0
 19 12  1  0  0  0  0
 19 13  2  0  0  0  0
 20 24  1  0  0  0  0
 21 20  2  0  0  0  0
 21 23  1  0  0  0  0
 22 16  1  0  0  0  0
 23 25  2  0  0  0  0
 24 22  2  0  0  0  0
 25 22  1  0  0  0  0
 26 20  1  0  0  0  0
 28 27  1  0  0  0  0
 30 29  1  1  0  0  0
 30 28  1  0  0  0  0
 31 30  1  0  0  0  0
 32 33  1  0  0  0  0
 33 34  1  0  0  0  0
 33 31  1  0  0  0  0
M  END
>  <MODEL>
3

>  <REMARK>
 VINA RESULT:     -10.2      3.008      6.130
  Name = 
  6 active torsions:
  status: ('A' for Active; 'I' for Inactive)
    1  A    between atoms: C_3  and  C_13
    2  A    between atoms: C_3  and  C_29
    3  A    between atoms: C_12  and  N_28
    4  A    between atoms: C_13  and  C_33
    5  A    between atoms: C_20  and  N_22
    6  A    between atoms: N_22  and  C_33
                            x       y       z     vdW  Elec       q    Type
                         _______ _______ _______ _____ _____    ______ ____

>  <TORSDO>
F 6

$$$$
=
 OpenBabel10262419173D

 34 38  0  0  1  0  0  0  0  0999 V2000
  187.1460  178.2530  147.1520 C   0  0  0  0  0  0  0  0  0  0  0  0
  189.2350  177.1980  146.4940 C   0  0  0  0  0  0  0  0  0  0  0  0
  187.5760  177.9170  144.7660 C   0  0  0  0  0  0  0  0  0  0  0  0
  187.9300  177.5790  142.3250 C   0  0  0  0  0  0  0  0  0  0  0  0
  187.5570  178.2270  148.4850 C   0  0  0  0  0  3  0  0  0  0  0  0
  189.6260  177.1710  147.8360 C   0  0  0  0  0  3  0  0  0  0  0  0
  189.8020  178.4150  143.7070 C   0  0  0  0  0  2  0  0  0  0  0  0
  188.0080  177.7970  146.1190 C   0  0  0  0  0  0  0  0  0  0  0  0
  190.7580  177.7730  142.7070 C   0  0  0  0  0  2  0  0  0  0  0  0
  188.8270  177.1550  141.2060 C   0  0  0  0  0  2  0  0  0  0  0  0
  188.8030  177.7020  148.8260 C   0  0  0  0  0  3  0  0  0  0  0  0
  186.2300  178.2550  144.4950 C   0  0  0  0  0  0  0  0  0  0  0  0
  185.8630  178.7020  146.8530 C   0  0  0  0  0  3  0  0  0  0  0  0
  190.0120  176.5340  145.6030 F   0  0  0  0  0  0  0  0  0  0  0  0
  186.6360  177.7760  142.0880 C   0  0  0  0  0  3  0  0  0  0  0  0
  185.7420  178.1890  143.1330 N   0  0  0  0  0  0  0  0  0  0  0  0
  190.1730  177.8740  141.3000 C   0  0  2  0  0  3  0  0  0  0  0  0
  188.4760  177.7900  143.6410 N   0  0  0  0  0  0  0  0  0  0  0  0
  185.4020  178.6810  145.5420 C   0  0  0  0  0  3  0  0  0  0  0  0
  182.6160  178.5180  141.0880 C   0  0  0  0  0  0  0  0  0  0  0  0
  181.6820  178.8680  142.0660 C   0  0  0  0  0  3  0  0  0  0  0  0
  184.3680  178.4440  142.7740 C   0  0  0  0  0  0  0  0  0  0  0  0
  182.0820  179.0010  143.3980 C   0  0  0  0  0  3  0  0  0  0  0  0
  183.9510  178.3030  141.4410 C   0  0  0  0  0  3  0  0  0  0  0  0
  183.4170  178.7850  143.7510 C   0  0  0  0  0  3  0  0  0  0  0  0
  182.1140  178.3450  139.4210 Cl  0  0  0  0  0  0  0  0  0  0  0  0
  191.1530  177.3590  140.2490 C   0  0  0  0  0  2  0  0  0  0  0  0
  190.4990  177.1860  138.8840 C   0  0  0  0  0  2  0  0  0  0  0  0
  190.8950  174.8810  138.3410 O   0  0  0  0  0  1  0  0  0  0  0  0
  191.2840  176.1900  138.0440 C   0  0  2  0  0  3  0  0  0  0  0  0
  192.7400  176.3810  138.1780 N   0  0  0  0  0  2  0  0  0  0  0  0
  194.2860  174.6570  137.2100 C   0  0  0  0  0  1  0  0  0  0  0  0
  193.5530  175.9770  137.0180 C   0  0  0  0  0  3  0  0  0  0  0  0
  192.7610  176.0030  135.7240 C   0  0  0  0  0  1  0  0  0  0  0  0
  1  5  2  0  0  0  0
  2  6  1  0  0  0  0
  3  8  1  0  0  0  0
  4 18  1  0  0  0  0
  5 11  1  0  0  0  0
  6 11  2  0  0  0  0
  8  2  2  0  0  0  0
  8  1  1  0  0  0  0
  9  7  1  0  0  0  0
 10 17  1  0  0  0  0
 10  4  1  0  0  0  0
 12  3  2  0  0  0  0
 12 19  1  0  0  0  0
 13  1  1  0  0  0  0
 14  2  1  0  0  0  0
 15  4  2  0  0  0  0
 15 16  1  0  0  0  0
 16 12  1  0  0  0  0
 17 27  1  6  0  0  0
 17  9  1  0  0  0  0
 18  7  1  0  0  0  0
 18  3  1  0  0  0  0
 19 13  2  0  0  0  0
 20 24  2  0  0  0  0
 20 21  1  0  0  0  0
 21 23  2  0  0  0  0
 22 16  1  0  0  0  0
 22 25  2  0  0  0  0
 23 25  1  0  0  0  0
 24 22  1  0  0  0  0
 26 20  1  0  0  0  0
 28 27  1  0  0  0  0
 30 31  1  0  0  0  0
 30 29  1  1  0  0  0
 30 28  1  0  0  0  0
 33 32  1  0  0  0  0
 33 31  1  0  0  0  0
 34 33  1  0  0  0  0
M  END
>  <MODEL>
4

>  <REMARK>
 VINA RESULT:      -9.7      2.262      3.279
  Name = 
  6 active torsions:
  status: ('A' for Active; 'I' for Inactive)
    1  A    between atoms: C_3  and  C_13
    2  A    between atoms: C_3  and  C_29
    3  A    between atoms: C_12  and  N_28
    4  A    between atoms: C_13  and  C_33
    5  A    between atoms: C_20  and  N_22
    6  A    between atoms: N_22  and  C_33
                            x       y       z     vdW  Elec       q    Type
                         _______ _______ _______ _____ _____    ______ ____

>  <TORSDO>
F 6

$$$$
=
 OpenBabel10262419173D

 34 38  0  0  1  0  0  0  0  0999 V2000
  189.2670  177.2390  146.0830 C   0  0  0  0  0  0  0  0  0  0  0  0
  187.3660  178.4070  147.0510 C   0  0  0  0  0  0  0  0  0  0  0  0
  187.4680  177.9640  144.5910 C   0  0  0  0  0  0  0  0  0  0  0  0
  185.6930  178.7000  143.0090 C   0  0  0  0  0  0  0  0  0  0  0  0
  189.7960  177.0510  147.3610 C   0  0  0  0  0  3  0  0  0  0  0  0
  187.9170  178.2170  148.3220 C   0  0  0  0  0  3  0  0  0  0  0  0
  185.0360  177.6660  145.1570 C   0  0  0  0  0  2  0  0  0  0  0  0
  188.0040  177.8650  145.9080 C   0  0  0  0  0  0  0  0  0  0  0  0
  183.7420  178.4720  145.0880 C   0  0  0  0  0  2  0  0  0  0  0  0
  184.3450  179.3090  142.7860 C   0  0  0  0  0  2  0  0  0  0  0  0
  189.1150  177.5240  148.4810 C   0  0  0  0  0  3  0  0  0  0  0  0
  188.2920  177.6630  143.4830 C   0  0  0  0  0  0  0  0  0  0  0  0
  190.0130  176.8330  144.9810 C   0  0  0  0  0  3  0  0  0  0  0  0
  186.2820  179.2140  146.9530 F   0  0  0  0  0  0  0  0  0  0  0  0
  186.5130  178.5320  141.9760 C   0  0  0  0  0  3  0  0  0  0  0  0
  187.8130  177.9460  142.1440 N   0  0  0  0  0  0  0  0  0  0  0  0
  183.2910  178.5970  143.6350 C   0  0  2  0  0  3  0  0  0  0  0  0
  186.0810  178.2810  144.3310 N   0  0  0  0  0  0  0  0  0  0  0  0
  189.5410  177.0640  143.6940 C   0  0  0  0  0  3  0  0  0  0  0  0
  188.9480  178.0530  138.5730 C   0  0  0  0  0  0  0  0  0  0  0  0
  190.1860  177.4110  138.6560 C   0  0  0  0  0  3  0  0  0  0  0  0
  188.6130  177.7400  140.9610 C   0  0  0  0  0  0  0  0  0  0  0  0
  190.6440  176.9390  139.8880 C   0  0  0  0  0  3  0  0  0  0  0  0
  188.1680  178.2210  139.7200 C   0  0  0  0  0  3  0  0  0  0  0  0
  189.8640  177.1060  141.0350 C   0  0  0  0  0  3  0  0  0  0  0  0
  188.3760  178.6520  137.0310 Cl  0  0  0  0  0  0  0  0  0  0  0  0
  181.9330  179.2850  143.5290 C   0  0  0  0  0  2  0  0  0  0  0  0
  181.1850  178.8950  142.2590 C   0  0  0  0  0  2  0  0  0  0  0  0
  179.7540  178.0310  143.9820 O   0  0  0  0  0  1  0  0  0  0  0  0
  179.8460  178.2640  142.6070 C   0  0  2  0  0  3  0  0  0  0  0  0
  179.5880  177.0460  141.8180 N   0  0  0  0  0  2  0  0  0  0  0  0
  180.5090  175.7590  139.8700 C   0  0  0  0  0  1  0  0  0  0  0  0
  180.0050  177.0910  140.4060 C   0  0  0  0  0  3  0  0  0  0  0  0
  178.9370  177.6950  139.5110 C   0  0  0  0  0  1  0  0  0  0  0  0
  1  5  2  0  0  0  0
  2  6  1  0  0  0  0
  3  8  1  0  0  0  0
  4 18  1  0  0  0  0
  5 11  1  0  0  0  0
  6 11  2  0  0  0  0
  8  1  1  0  0  0  0
  8  2  2  0  0  0  0
  9  7  1  0  0  0  0
 10  4  1  0  0  0  0
 10 17  1  0  0  0  0
 12 19  1  0  0  0  0
 12  3  2  0  0  0  0
 13  1  1  0  0  0  0
 14  2  1  0  0  0  0
 15 16  1  0  0  0  0
 15  4  2  0  0  0  0
 16 12  1  0  0  0  0
 17 27  1  1  0  0  0
 17  9  1  0  0  0  0
 18  3  1  0  0  0  0
 18  7  1  0  0  0  0
 19 13  2  0  0  0  0
 20 21  2  0  0  0  0
 20 24  1  0  0  0  0
 21 23  1  0  0  0  0
 22 25  1  0  0  0  0
 22 16  1  0  0  0  0
 23 25  2  0  0  0  0
 24 22  2  0  0  0  0
 26 20  1  0  0  0  0
 28 30  1  0  0  0  0
 28 27  1  0  0  0  0
 30 29  1  1  0  0  0
 31 30  1  0  0  0  0
 32 33  1  0  0  0  0
 33 31  1  0  0  0  0
 34 33  1  0  0  0  0
M  END
>  <MODEL>
5

>  <REMARK>
 VINA RESULT:      -9.4      3.493      6.490
  Name = 
  6 active torsions:
  status: ('A' for Active; 'I' for Inactive)
    1  A    between atoms: C_3  and  C_13
    2  A    between atoms: C_3  and  C_29
    3  A    between atoms: C_12  and  N_28
    4  A    between atoms: C_13  and  C_33
    5  A    between atoms: C_20  and  N_22
    6  A    between atoms: N_22  and  C_33
                            x       y       z     vdW  Elec       q    Type
                         _______ _______ _______ _____ _____    ______ ____

>  <TORSDO>
F 6

$$$$
=
 OpenBabel10262419173D

 34 38  0  0  1  0  0  0  0  0999 V2000
  187.2150  178.1830  147.1500 C   0  0  0  0  0  0  0  0  0  0  0  0
  189.2820  177.1370  146.4100 C   0  0  0  0  0  0  0  0  0  0  0  0
  187.5800  177.9050  144.7460 C   0  0  0  0  0  0  0  0  0  0  0  0
  187.8670  177.6270  142.2890 C   0  0  0  0  0  0  0  0  0  0  0  0
  187.6620  178.1220  148.4710 C   0  0  0  0  0  3  0  0  0  0  0  0
  189.7090  177.0750  147.7400 C   0  0  0  0  0  3  0  0  0  0  0  0
  189.7790  178.4210  143.6410 C   0  0  0  0  0  2  0  0  0  0  0  0
  188.0480  177.7500  146.0830 C   0  0  0  0  0  0  0  0  0  0  0  0
  190.7060  177.8010  142.5990 C   0  0  0  0  0  2  0  0  0  0  0  0
  188.7320  177.2280  141.1360 C   0  0  0  0  0  2  0  0  0  0  0  0
  188.9140  177.5840  148.7650 C   0  0  0  0  0  3  0  0  0  0  0  0
  186.2290  178.2550  144.5200 C   0  0  0  0  0  0  0  0  0  0  0  0
  185.9270  178.6440  146.8980 C   0  0  0  0  0  3  0  0  0  0  0  0
  190.0320  176.4930  145.4830 F   0  0  0  0  0  0  0  0  0  0  0  0
  186.5690  177.8350  142.0910 C   0  0  0  0  0  3  0  0  0  0  0  0
  185.7040  178.2250  143.1700 N   0  0  0  0  0  0  0  0  0  0  0  0
  190.0830  177.9390  141.2110 C   0  0  2  0  0  3  0  0  0  0  0  0
  188.4500  177.8030  143.5950 N   0  0  0  0  0  0  0  0  0  0  0  0
  185.4310  178.6580  145.5990 C   0  0  0  0  0  3  0  0  0  0  0  0
  182.5330  178.6440  141.2140 C   0  0  0  0  0  0  0  0  0  0  0  0
  181.6200  178.9460  142.2280 C   0  0  0  0  0  3  0  0  0  0  0  0
  184.3220  178.4940  142.8550 C   0  0  0  0  0  0  0  0  0  0  0  0
  182.0510  179.0170  143.5550 C   0  0  0  0  0  3  0  0  0  0  0  0
  183.8750  178.4150  141.5260 C   0  0  0  0  0  3  0  0  0  0  0  0
  183.3940  178.7870  143.8670 C   0  0  0  0  0  3  0  0  0  0  0  0
  181.9940  178.5490  139.5520 Cl  0  0  0  0  0  0  0  0  0  0  0  0
  191.0330  177.4480  140.1220 C   0  0  0  0  0  2  0  0  0  0  0  0
  190.5260  176.1820  139.4410 C   0  0  0  0  0  2  0  0  0  0  0  0
  191.5200  176.7130  137.3210 O   0  0  0  0  0  1  0  0  0  0  0  0
  190.3080  176.4320  137.9560 C   0  0  2  0  0  3  0  0  0  0  0  0
  189.2980  177.4780  137.7150 N   0  0  0  0  0  2  0  0  0  0  0  0
  187.1920  177.9180  136.4220 C   0  0  0  0  0  1  0  0  0  0  0  0
  187.9450  177.0040  137.3780 C   0  0  0  0  0  3  0  0  0  0  0  0
  187.9440  175.5620  136.9020 C   0  0  0  0  0  1  0  0  0  0  0  0
  1  5  2  0  0  0  0
  2  6  1  0  0  0  0
  3  8  1  0  0  0  0
  4 18  1  0  0  0  0
  5 11  1  0  0  0  0
  6 11  2  0  0  0  0
  8  2  2  0  0  0  0
  8  1  1  0  0  0  0
  9  7  1  0  0  0  0
 10 17  1  0  0  0  0
 10  4  1  0  0  0  0
 12  3  2  0  0  0  0
 12 19  1  0  0  0  0
 13  1  1  0  0  0  0
 14  2  1  0  0  0  0
 15  4  2  0  0  0  0
 15 16  1  0  0  0  0
 16 12  1  0  0  0  0
 17 27  1  6  0  0  0
 17  9  1  0  0  0  0
 18  7  1  0  0  0  0
 18  3  1  0  0  0  0
 19 13  2  0  0  0  0
 20 24  2  0  0  0  0
 20 21  1  0  0  0  0
 21 23  2  0  0  0  0
 22 16  1  0  0  0  0
 22 25  2  0  0  0  0
 23 25  1  0  0  0  0
 24 22  1  0  0  0  0
 26 20  1  0  0  0  0
 28 27  1  0  0  0  0
 30 29  1  1  0  0  0
 30 28  1  0  0  0  0
 31 30  1  0  0  0  0
 32 33  1  0  0  0  0
 33 31  1  0  0  0  0
 34 33  1  0  0  0  0
M  END
>  <MODEL>
6

>  <REMARK>
 VINA RESULT:      -9.4      1.542      2.090
  Name = 
  6 active torsions:
  status: ('A' for Active; 'I' for Inactive)
    1  A    between atoms: C_3  and  C_13
    2  A    between atoms: C_3  and  C_29
    3  A    between atoms: C_12  and  N_28
    4  A    between atoms: C_13  and  C_33
    5  A    between atoms: C_20  and  N_22
    6  A    between atoms: N_22  and  C_33
                            x       y       z     vdW  Elec       q    Type
                         _______ _______ _______ _____ _____    ______ ____

>  <TORSDO>
F 6

$$$$
=
 OpenBabel10262419173D

 34 38  0  0  1  0  0  0  0  0999 V2000
  186.6100  178.2550  137.8760 C   0  0  0  0  0  0  0  0  0  0  0  0
  189.0120  178.3370  138.2430 C   0  0  0  0  0  0  0  0  0  0  0  0
  187.4390  178.1040  140.1740 C   0  0  0  0  0  0  0  0  0  0  0  0
  188.2070  177.9760  142.5380 C   0  0  0  0  0  0  0  0  0  0  0  0
  186.8240  178.2860  136.4970 C   0  0  0  0  0  3  0  0  0  0  0  0
  189.2070  178.3770  136.8590 C   0  0  0  0  0  3  0  0  0  0  0  0
  189.3980  176.6620  140.8140 C   0  0  0  0  0  2  0  0  0  0  0  0
  187.7070  178.2140  138.7780 C   0  0  0  0  0  0  0  0  0  0  0  0
  190.6500  176.7590  141.6810 C   0  0  0  0  0  2  0  0  0  0  0  0
  189.3340  177.8800  143.5170 C   0  0  0  0  0  2  0  0  0  0  0  0
  188.1210  178.3300  135.9880 C   0  0  0  0  0  3  0  0  0  0  0  0
  186.1170  178.2780  140.6420 C   0  0  0  0  0  0  0  0  0  0  0  0
  185.3040  178.3010  138.3540 C   0  0  0  0  0  3  0  0  0  0  0  0
  190.0960  178.5360  139.0320 F   0  0  0  0  0  0  0  0  0  0  0  0
  186.9830  178.2620  142.9740 C   0  0  0  0  0  3  0  0  0  0  0  0
  185.8730  178.3580  142.0680 N   0  0  0  0  0  0  0  0  0  0  0  0
  190.2580  176.7180  143.1560 C   0  0  2  0  0  3  0  0  0  0  0  0
  188.4510  177.7350  141.1390 N   0  0  0  0  0  0  0  0  0  0  0  0
  185.0610  178.3350  139.7220 C   0  0  0  0  0  3  0  0  0  0  0  0
  182.1640  178.8310  142.3450 C   0  0  0  0  0  0  0  0  0  0  0  0
  182.0120  179.0230  143.7210 C   0  0  0  0  0  3  0  0  0  0  0  0
  184.5690  178.6070  142.6320 C   0  0  0  0  0  0  0  0  0  0  0  0
  183.1310  179.0010  144.5560 C   0  0  0  0  0  3  0  0  0  0  0  0
  183.4360  178.6200  141.8050 C   0  0  0  0  0  3  0  0  0  0  0  0
  184.4030  178.7900  144.0150 C   0  0  0  0  0  3  0  0  0  0  0  0
  180.7620  178.8520  141.2990 Cl  0  0  0  0  0  0  0  0  0  0  0  0
  191.4870  176.6820  144.0600 C   0  0  0  0  0  2  0  0  0  0  0  0
  191.3340  177.5830  145.2800 C   0  0  0  0  0  2  0  0  0  0  0  0
  192.0540  175.5650  146.3630 O   0  0  0  0  0  1  0  0  0  0  0  0
  191.3440  176.7530  146.5540 C   0  0  2  0  0  3  0  0  0  0  0  0
  189.9830  176.5110  147.0660 N   0  0  0  0  0  2  0  0  0  0  0  0
  187.7200  177.4810  146.5780 C   0  0  0  0  0  1  0  0  0  0  0  0
  189.1090  177.6930  147.1610 C   0  0  0  0  0  3  0  0  0  0  0  0
  189.0520  178.2530  148.5710 C   0  0  0  0  0  1  0  0  0  0  0  0
  1 13  2  0  0  0  0
  1  8  1  0  0  0  0
  2  8  1  0  0  0  0
  2 14  1  0  0  0  0
  3 12  1  0  0  0  0
  3 18  1  0  0  0  0
  4 15  2  0  0  0  0
  4 10  1  0  0  0  0
  5  1  1  0  0  0  0
  6  2  2  0  0  0  0
  7 18  1  0  0  0  0
  7  9  1  0  0  0  0
  8  3  2  0  0  0  0
  9 17  1  0  0  0  0
 11  5  2  0  0  0  0
 11  6  1  0  0  0  0
 12 16  1  0  0  0  0
 13 19  1  0  0  0  0
 16 22  1  0  0  0  0
 16 15  1  0  0  0  0
 17 10  1  0  0  0  0
 17 27  1  1  0  0  0
 18  4  1  0  0  0  0
 19 12  2  0  0  0  0
 20 21  1  0  0  0  0
 21 23  2  0  0  0  0
 22 25  2  0  0  0  0
 24 20  2  0  0  0  0
 24 22  1  0  0  0  0
 25 23  1  0  0  0  0
 26 20  1  0  0  0  0
 27 28  1  0  0  0  0
 28 30  1  0  0  0  0
 30 29  1  6  0  0  0
 30 31  1  0  0  0  0
 31 33  1  0  0  0  0
 32 33  1  0  0  0  0
 33 34  1  0  0  0  0
M  END
>  <MODEL>
7

>  <REMARK>
 VINA RESULT:      -9.4      2.468      6.822
  Name = 
  6 active torsions:
  status: ('A' for Active; 'I' for Inactive)
    1  A    between atoms: C_3  and  C_13
    2  A    between atoms: C_3  and  C_29
    3  A    between atoms: C_12  and  N_28
    4  A    between atoms: C_13  and  C_33
    5  A    between atoms: C_20  and  N_22
    6  A    between atoms: N_22  and  C_33
                            x       y       z     vdW  Elec       q    Type
                         _______ _______ _______ _____ _____    ______ ____

>  <TORSDO>
F 6

$$$$
=
 OpenBabel10262419173D

 34 38  0  0  1  0  0  0  0  0999 V2000
  189.6260  177.1840  146.0450 C   0  0  0  0  0  0  0  0  0  0  0  0
  187.5240  178.3650  146.3670 C   0  0  0  0  0  0  0  0  0  0  0  0
  188.3010  177.7570  144.0680 C   0  0  0  0  0  0  0  0  0  0  0  0
  187.0240  178.3330  142.0110 C   0  0  0  0  0  0  0  0  0  0  0  0
  189.7840  177.0990  147.4290 C   0  0  0  0  0  3  0  0  0  0  0  0
  187.7050  178.2780  147.7500 C   0  0  0  0  0  3  0  0  0  0  0  0
  185.8090  177.4330  143.9670 C   0  0  0  0  0  2  0  0  0  0  0  0
  188.4550  177.7630  145.4850 C   0  0  0  0  0  0  0  0  0  0  0  0
  184.5780  178.1970  143.4880 C   0  0  0  0  0  2  0  0  0  0  0  0
  185.7850  178.8890  141.3840 C   0  0  0  0  0  2  0  0  0  0  0  0
  188.8180  177.6300  148.2810 C   0  0  0  0  0  3  0  0  0  0  0  0
  189.3990  177.4020  143.2530 C   0  0  0  0  0  0  0  0  0  0  0  0
  190.6490  176.7240  145.2220 C   0  0  0  0  0  3  0  0  0  0  0  0
  186.5020  179.1340  145.9170 F   0  0  0  0  0  0  0  0  0  0  0  0
  188.0980  178.1170  141.2570 C   0  0  0  0  0  3  0  0  0  0  0  0
  189.3060  177.5790  141.8180 N   0  0  0  0  0  0  0  0  0  0  0  0
  184.5430  178.2090  141.9610 C   0  0  2  0  0  3  0  0  0  0  0  0
  187.0360  178.0180  143.4160 N   0  0  0  0  0  0  0  0  0  0  0  0
  190.5470  176.8530  143.8410 C   0  0  0  0  0  3  0  0  0  0  0  0
  191.2040  176.5080  138.7670 C   0  0  0  0  0  0  0  0  0  0  0  0
  192.5110  176.8530  139.1190 C   0  0  0  0  0  3  0  0  0  0  0  0
  190.4010  177.3140  140.9170 C   0  0  0  0  0  0  0  0  0  0  0  0
  192.7680  177.4330  140.3640 C   0  0  0  0  0  3  0  0  0  0  0  0
  190.1540  176.7420  139.6590 C   0  0  0  0  0  3  0  0  0  0  0  0
  191.7180  177.6670  141.2560 C   0  0  0  0  0  3  0  0  0  0  0  0
  190.8800  175.7870  137.2060 Cl  0  0  0  0  0  0  0  0  0  0  0  0
  183.2620  178.8510  141.4370 C   0  0  0  0  0  2  0  0  0  0  0  0
  182.5410  177.9650  140.4290 C   0  0  0  0  0  2  0  0  0  0  0  0
  180.8510  178.3780  138.7750 O   0  0  0  0  0  1  0  0  0  0  0  0
  182.1140  178.7800  139.2180 C   0  0  2  0  0  3  0  0  0  0  0  0
  183.1200  178.7400  138.1420 N   0  0  0  0  0  2  0  0  0  0  0  0
  183.5290  176.4780  137.1330 C   0  0  0  0  0  1  0  0  0  0  0  0
  183.9870  177.5490  138.1120 C   0  0  0  0  0  3  0  0  0  0  0  0
  185.4490  177.9080  137.9170 C   0  0  0  0  0  1  0  0  0  0  0  0
  1  5  2  0  0  0  0
  2  6  1  0  0  0  0
  3  8  1  0  0  0  0
  4 18  1  0  0  0  0
  5 11  1  0  0  0  0
  6 11  2  0  0  0  0
  8  1  1  0  0  0  0
  8  2  2  0  0  0  0
  9  7  1  0  0  0  0
 10 17  1  0  0  0  0
 10  4  1  0  0  0  0
 12 19  1  0  0  0  0
 12  3  2  0  0  0  0
 13  1  1  0  0  0  0
 14  2  1  0  0  0  0
 15 16  1  0  0  0  0
 15  4  2  0  0  0  0
 16 12  1  0  0  0  0
 17 27  1  1  0  0  0
 17  9  1  0  0  0  0
 18  7  1  0  0  0  0
 18  3  1  0  0  0  0
 19 13  2  0  0  0  0
 20 21  2  0  0  0  0
 20 24  1  0  0  0  0
 21 23  1  0  0  0  0
 22 25  1  0  0  0  0
 22 16  1  0  0  0  0
 23 25  2  0  0  0  0
 24 22  2  0  0  0  0
 26 20  1  0  0  0  0
 28 27  1  0  0  0  0
 30 29  1  6  0  0  0
 30 28  1  0  0  0  0
 31 30  1  0  0  0  0
 32 33  1  0  0  0  0
 33 31  1  0  0  0  0
 34 33  1  0  0  0  0
M  END
>  <MODEL>
8

>  <REMARK>
 VINA RESULT:      -9.3      3.003      5.783
  Name = 
  6 active torsions:
  status: ('A' for Active; 'I' for Inactive)
    1  A    between atoms: C_3  and  C_13
    2  A    between atoms: C_3  and  C_29
    3  A    between atoms: C_12  and  N_28
    4  A    between atoms: C_13  and  C_33
    5  A    between atoms: C_20  and  N_22
    6  A    between atoms: N_22  and  C_33
                            x       y       z     vdW  Elec       q    Type
                         _______ _______ _______ _____ _____    ______ ____

>  <TORSDO>
F 6

$$$$
=
 OpenBabel10262419173D

 34 38  0  0  1  0  0  0  0  0999 V2000
  182.5070  179.3010  140.0660 C   0  0  0  0  0  0  0  0  0  0  0  0
  181.7200  178.6720  142.2800 C   0  0  0  0  0  0  0  0  0  0  0  0
  184.1680  178.7140  141.7650 C   0  0  0  0  0  0  0  0  0  0  0  0
  185.9120  178.1000  143.4320 C   0  0  0  0  0  0  0  0  0  0  0  0
  181.1930  179.5740  139.6820 C   0  0  0  0  0  3  0  0  0  0  0  0
  180.4100  178.9420  141.8740 C   0  0  0  0  0  3  0  0  0  0  0  0
  184.0350  179.5490  144.1340 C   0  0  0  0  0  2  0  0  0  0  0  0
  182.8040  178.9060  141.3980 C   0  0  0  0  0  0  0  0  0  0  0  0
  184.2110  179.0020  145.5480 C   0  0  0  0  0  2  0  0  0  0  0  0
  186.2710  177.7310  144.8360 C   0  0  0  0  0  2  0  0  0  0  0  0
  180.1470  179.4110  140.5890 C   0  0  0  0  0  3  0  0  0  0  0  0
  185.1590  178.6860  140.7590 C   0  0  0  0  0  0  0  0  0  0  0  0
  183.5170  179.3880  139.1140 C   0  0  0  0  0  3  0  0  0  0  0  0
  181.8910  178.0790  143.4870 F   0  0  0  0  0  0  0  0  0  0  0  0
  186.8140  177.9540  142.4660 C   0  0  0  0  0  3  0  0  0  0  0  0
  186.5130  178.3010  141.1050 N   0  0  0  0  0  0  0  0  0  0  0  0
  185.6920  178.7480  145.8200 C   0  0  2  0  0  3  0  0  0  0  0  0
  184.6040  178.6310  143.1420 N   0  0  0  0  0  0  0  0  0  0  0  0
  184.8260  179.0620  139.4500 C   0  0  0  0  0  3  0  0  0  0  0  0
  189.9160  177.7840  139.6180 C   0  0  0  0  0  0  0  0  0  0  0  0
  189.6330  177.8500  138.2520 C   0  0  0  0  0  3  0  0  0  0  0  0
  187.5700  178.1730  140.1320 C   0  0  0  0  0  0  0  0  0  0  0  0
  188.3230  178.0700  137.8210 C   0  0  0  0  0  3  0  0  0  0  0  0
  188.8890  177.9400  140.5540 C   0  0  0  0  0  3  0  0  0  0  0  0
  187.2960  178.2260  138.7560 C   0  0  0  0  0  3  0  0  0  0  0  0
  191.5550  177.5020  140.1600 Cl  0  0  0  0  0  0  0  0  0  0  0  0
  185.9290  178.3220  147.2650 C   0  0  0  0  0  2  0  0  0  0  0  0
  187.2320  178.8800  147.8270 C   0  0  0  0  0  2  0  0  0  0  0  0
  189.0940  178.2570  149.2080 O   0  0  0  0  0  1  0  0  0  0  0  0
  188.1020  177.7540  148.3640 C   0  0  2  0  0  3  0  0  0  0  0  0
  188.6610  176.9240  147.2810 N   0  0  0  0  0  2  0  0  0  0  0  0
  191.0950  176.3810  146.9930 C   0  0  0  0  0  1  0  0  0  0  0  0
  189.9580  177.3610  146.7380 C   0  0  0  0  0  3  0  0  0  0  0  0
  189.8660  177.7520  145.2730 C   0  0  0  0  0  1  0  0  0  0  0  0
  1  8  1  0  0  0  0
  2 14  1  0  0  0  0
  3 18  1  0  0  0  0
  4 10  1  0  0  0  0
  5  1  2  0  0  0  0
  5 11  1  0  0  0  0
  6  2  1  0  0  0  0
  7  9  1  0  0  0  0
  8  3  1  0  0  0  0
  8  2  2  0  0  0  0
  9 17  1  0  0  0  0
 10 17  1  0  0  0  0
 11  6  2  0  0  0  0
 12 16  1  0  0  0  0
 12  3  2  0  0  0  0
 13 19  2  0  0  0  0
 13  1  1  0  0  0  0
 15  4  2  0  0  0  0
 16 15  1  0  0  0  0
 17 27  1  1  0  0  0
 18  4  1  0  0  0  0
 18  7  1  0  0  0  0
 19 12  1  0  0  0  0
 20 26  1  0  0  0  0
 20 24  1  0  0  0  0
 21 20  2  0  0  0  0
 22 24  2  0  0  0  0
 22 16  1  0  0  0  0
 23 21  1  0  0  0  0
 23 25  2  0  0  0  0
 25 22  1  0  0  0  0
 27 28  1  0  0  0  0
 28 30  1  0  0  0  0
 30 29  1  6  0  0  0
 31 30  1  0  0  0  0
 33 32  1  0  0  0  0
 33 31  1  0  0  0  0
 34 33  1  0  0  0  0
M  END
>  <MODEL>
9

>  <REMARK>
 VINA RESULT:      -9.3      3.657      8.778
  Name = 
  6 active torsions:
  status: ('A' for Active; 'I' for Inactive)
    1  A    between atoms: C_3  and  C_13
    2  A    between atoms: C_3  and  C_29
    3  A    between atoms: C_12  and  N_28
    4  A    between atoms: C_13  and  C_33
    5  A    between atoms: C_20  and  N_22
    6  A    between atoms: N_22  and  C_33
                            x       y       z     vdW  Elec       q    Type
                         _______ _______ _______ _____ _____    ______ ____

>  <TORSDO>
F 6

$$$$
