=
 OpenBabel10262421183D

 32 35  0  0  1  0  0  0  0  0999 V2000
  189.0060  176.1890  143.5210 O   0  0  0  0  0  0  0  0  0  0  0  0
  190.3660  175.9430  143.2060 C   0  0  2  0  0  3  0  0  0  0  0  0
  188.8870  177.4500  144.1420 C   0  0  2  0  0  3  0  0  0  0  0  0
  189.5960  177.4610  145.4950 C   0  0  0  0  0  2  0  0  0  0  0  0
  191.3200  176.0090  144.4110 C   0  0  0  0  0  2  0  0  0  0  0  0
  191.0840  177.2660  145.2400 C   0  0  2  0  0  3  0  0  0  0  0  0
  187.4490  177.8190  144.2870 C   0  0  0  0  0  0  0  0  0  0  0  0
  186.9380  178.1120  145.5560 C   0  0  0  0  0  3  0  0  0  0  0  0
  183.0690  178.7160  142.4410 C   0  0  0  0  0  3  0  0  0  0  0  0
  186.6030  177.8970  143.1740 C   0  0  0  0  0  3  0  0  0  0  0  0
  183.4570  178.9190  144.8260 C   0  0  0  0  0  3  0  0  0  0  0  0
  184.7920  178.5490  144.6420 C   0  0  0  0  0  0  0  0  0  0  0  0
  185.6340  178.4680  145.7070 N   0  0  0  0  0  0  0  0  0  0  0  0
  185.2680  178.2620  143.3440 C   0  0  0  0  0  0  0  0  0  0  0  0
  182.5980  179.0050  143.7260 C   0  0  0  0  0  3  0  0  0  0  0  0
  184.4040  178.3430  142.2490 C   0  0  0  0  0  3  0  0  0  0  0  0
  190.8410  176.5800  141.8880 C   0  0  2  0  0  3  0  0  0  0  0  0
  191.7310  177.6270  142.1280 O   0  0  0  0  0  1  0  0  0  0  0  0
  189.7460  176.9800  140.8920 C   0  0  0  0  0  2  0  0  0  0  0  0
  190.2110  177.0350  139.4400 C   0  0  2  0  0  3  0  0  0  0  0  0
  189.0350  177.4120  138.5510 C   0  0  1  0  0  3  0  0  0  0  0  0
  188.0290  178.2240  139.3380 C   0  0  0  0  0  2  0  0  0  0  0  0
  188.9870  178.9180  138.3940 C   0  0  2  0  0  3  0  0  0  0  0  0
  188.3210  179.2290  137.2100 O   0  0  0  0  0  1  0  0  0  0  0  0
  190.7130  175.7920  139.0460 O   0  0  0  0  0  0  0  0  0  0  0  0
  191.3860  176.0390  137.8450 C   0  0  0  0  0  2  0  0  0  0  0  0
  193.6310  176.2830  136.8020 C   0  0  0  0  0  1  0  0  0  0  0  0
  192.8670  176.2310  138.1110 C   0  0  0  0  0  2  0  0  0  0  0  0
  191.8070  177.1690  146.4960 N   0  0  0  0  0  2  0  0  0  0  0  0
  192.1060  175.7620  146.7090 C   0  0  0  0  0  2  0  0  0  0  0  0
  192.8600  176.7950  148.7250 O   0  0  0  0  0  1  0  0  0  0  0  0
  192.7140  175.5640  148.0840 C   0  0  0  0  0  2  0  0  0  0  0  0
  1  3  1  0  0  0  0
  2 17  1  6  0  0  0
  2  1  1  0  0  0  0
  2  5  1  0  0  0  0
  3  7  1  1  0  0  0
  3  4  1  0  0  0  0
  5  6  1  0  0  0  0
  6  4  1  0  0  0  0
  6 29  1  1  0  0  0
  7  8  1  0  0  0  0
  8 13  2  0  0  0  0
  9 15  1  0  0  0  0
 10 14  1  0  0  0  0
 10  7  2  0  0  0  0
 12 11  1  0  0  0  0
 12 13  1  0  0  0  0
 14 12  2  0  0  0  0
 15 11  2  0  0  0  0
 16  9  2  0  0  0  0
 16 14  1  0  0  0  0
 17 18  1  1  0  0  0
 19 17  1  0  0  0  0
 20 19  1  1  0  0  0
 21 22  1  0  0  0  0
 21 20  1  1  0  0  0
 23 24  1  6  0  0  0
 23 21  1  0  0  0  0
 23 22  1  0  0  0  0
 25 20  1  0  0  0  0
 26 28  1  0  0  0  0
 26 25  1  0  0  0  0
 27 28  1  0  0  0  0
 29 30  1  0  0  0  0
 30 32  1  0  0  0  0
 32 31  1  0  0  0  0
M  END
>  <MODEL>
1

>  <REMARK>
 VINA RESULT:      -8.8      0.000      0.000
  Name = 
  11 active torsions:
  status: ('A' for Active; 'I' for Inactive)
    1  A    between atoms: C_2  and  C_5
    2  A    between atoms: C_3  and  C_20
    3  A    between atoms: C_4  and  C_24
    4  A    between atoms: C_13  and  N_18
    5  A    between atoms: C_13  and  C_29
    6  A    between atoms: O_15  and  C_20
    7  A    between atoms: O_15  and  C_26
    8  A    between atoms: C_16  and  C_20
    9  A    between atoms: C_16  and  C_24
   10  A    between atoms: N_18  and  C_30
   11  A    between atoms: C_19  and  C_26
                            x       y       z     vdW  Elec       q    Type
                         _______ _______ _______ _____ _____    ______ ____

>  <TORSDO>
F 11

$$$$
=
 OpenBabel10262421183D

 32 35  0  0  1  0  0  0  0  0999 V2000
  189.8340  178.3890  142.9260 O   0  0  0  0  0  0  0  0  0  0  0  0
  191.1400  177.8640  142.7620 C   0  0  2  0  0  3  0  0  0  0  0  0
  188.8950  177.5020  142.3610 C   0  0  2  0  0  3  0  0  0  0  0  0
  189.0760  177.4060  140.8470 C   0  0  0  0  0  2  0  0  0  0  0  0
  191.5290  177.5730  141.3010 C   0  0  0  0  0  2  0  0  0  0  0  0
  190.4400  176.7870  140.5810 C   0  0  2  0  0  3  0  0  0  0  0  0
  187.5080  177.9270  142.7090 C   0  0  0  0  0  0  0  0  0  0  0  0
  186.6430  178.3510  141.6950 C   0  0  0  0  0  3  0  0  0  0  0  0
  183.9430  178.6460  145.8980 C   0  0  0  0  0  3  0  0  0  0  0  0
  187.0480  177.8920  144.0310 C   0  0  0  0  0  3  0  0  0  0  0  0
  183.5860  179.0930  143.5410 C   0  0  0  0  0  3  0  0  0  0  0  0
  184.9000  178.7040  143.2670 C   0  0  0  0  0  0  0  0  0  0  0  0
  185.3690  178.7270  141.9910 N   0  0  0  0  0  0  0  0  0  0  0  0
  185.7400  178.2810  144.3190 C   0  0  0  0  0  0  0  0  0  0  0  0
  183.1080  179.0610  144.8550 C   0  0  0  0  0  3  0  0  0  0  0  0
  185.2600  178.2570  145.6310 C   0  0  0  0  0  3  0  0  0  0  0  0
  191.5520  176.8330  143.8260 C   0  0  2  0  0  3  0  0  0  0  0  0
  192.0290  175.6630  143.2340 O   0  0  0  0  0  1  0  0  0  0  0  0
  190.5210  176.5380  144.9220 C   0  0  0  0  0  2  0  0  0  0  0  0
  190.8430  177.1740  146.2710 C   0  0  2  0  0  3  0  0  0  0  0  0
  191.1970  176.0820  147.2690 C   0  0  1  0  0  3  0  0  0  0  0  0
  192.2140  175.1370  146.6650 C   0  0  0  0  0  2  0  0  0  0  0  0
  192.6610  176.2000  147.6440 C   0  0  2  0  0  3  0  0  0  0  0  0
  192.8560  175.6200  148.8960 O   0  0  0  0  0  1  0  0  0  0  0  0
  189.7410  177.8940  146.7410 O   0  0  0  0  0  0  0  0  0  0  0  0
  188.7890  176.9230  147.0680 C   0  0  0  0  0  2  0  0  0  0  0  0
  187.6500  178.7820  148.2650 C   0  0  0  0  0  1  0  0  0  0  0  0
  188.0550  177.3230  148.3340 C   0  0  0  0  0  2  0  0  0  0  0  0
  190.7170  176.7580  139.1550 N   0  0  0  0  0  2  0  0  0  0  0  0
  189.4530  176.9740  138.4700 C   0  0  0  0  0  2  0  0  0  0  0  0
  189.0120  179.2320  137.8320 O   0  0  0  0  0  1  0  0  0  0  0  0
  189.6140  178.0460  137.4100 C   0  0  0  0  0  2  0  0  0  0  0  0
  2  1  1  0  0  0  0
  2 17  1  1  0  0  0
  3  7  1  6  0  0  0
  3  1  1  0  0  0  0
  4  3  1  0  0  0  0
  5  2  1  0  0  0  0
  6 29  1  6  0  0  0
  6  4  1  0  0  0  0
  6  5  1  0  0  0  0
  7 10  1  0  0  0  0
  8 13  1  0  0  0  0
  8  7  2  0  0  0  0
 10 14  2  0  0  0  0
 11 15  2  0  0  0  0
 12 11  1  0  0  0  0
 12 14  1  0  0  0  0
 13 12  2  0  0  0  0
 14 16  1  0  0  0  0
 15  9  1  0  0  0  0
 16  9  2  0  0  0  0
 17 18  1  6  0  0  0
 17 19  1  0  0  0  0
 20 19  1  6  0  0  0
 20 25  1  0  0  0  0
 21 20  1  6  0  0  0
 21 23  1  0  0  0  0
 22 21  1  0  0  0  0
 22 23  1  0  0  0  0
 23 24  1  1  0  0  0
 25 26  1  0  0  0  0
 26 28  1  0  0  0  0
 27 28  1  0  0  0  0
 30 29  1  0  0  0  0
 32 31  1  0  0  0  0
 32 30  1  0  0  0  0
M  END
>  <MODEL>
2

>  <REMARK>
 VINA RESULT:      -8.0      2.275      6.863
  Name = 
  11 active torsions:
  status: ('A' for Active; 'I' for Inactive)
    1  A    between atoms: C_2  and  C_5
    2  A    between atoms: C_3  and  C_20
    3  A    between atoms: C_4  and  C_24
    4  A    between atoms: C_13  and  N_18
    5  A    between atoms: C_13  and  C_29
    6  A    between atoms: O_15  and  C_20
    7  A    between atoms: O_15  and  C_26
    8  A    between atoms: C_16  and  C_20
    9  A    between atoms: C_16  and  C_24
   10  A    between atoms: N_18  and  C_30
   11  A    between atoms: C_19  and  C_26
                            x       y       z     vdW  Elec       q    Type
                         _______ _______ _______ _____ _____    ______ ____

>  <TORSDO>
F 11

$$$$
=
 OpenBabel10262421183D

 32 35  0  0  1  0  0  0  0  0999 V2000
  189.0350  176.7450  141.6480 O   0  0  0  0  0  0  0  0  0  0  0  0
  189.0000  176.9470  140.2460 C   0  0  2  0  0  3  0  0  0  0  0  0
  189.9960  177.6010  142.2230 C   0  0  2  0  0  3  0  0  0  0  0  0
  191.4040  177.2360  141.7550 C   0  0  0  0  0  2  0  0  0  0  0  0
  190.3530  176.7410  139.5400 C   0  0  0  0  0  2  0  0  0  0  0  0
  191.4730  177.4870  140.2560 C   0  0  2  0  0  3  0  0  0  0  0  0
  189.8990  177.5600  143.7120 C   0  0  0  0  0  0  0  0  0  0  0  0
  191.0420  177.2840  144.4690 C   0  0  0  0  0  3  0  0  0  0  0  0
  187.4090  177.9930  147.8360 C   0  0  0  0  0  3  0  0  0  0  0  0
  188.6880  177.8100  144.3680 C   0  0  0  0  0  3  0  0  0  0  0  0
  189.7760  177.4670  147.8840 C   0  0  0  0  0  3  0  0  0  0  0  0
  189.8120  177.4970  146.4880 C   0  0  0  0  0  0  0  0  0  0  0  0
  190.9780  177.2590  145.8280 N   0  0  0  0  0  0  0  0  0  0  0  0
  188.6360  177.7800  145.7610 C   0  0  0  0  0  0  0  0  0  0  0  0
  188.5760  177.7170  148.5570 C   0  0  0  0  0  3  0  0  0  0  0  0
  187.4380  178.0240  146.4380 C   0  0  0  0  0  3  0  0  0  0  0  0
  188.1360  178.1360  139.7930 C   0  0  2  0  0  3  0  0  0  0  0  0
  188.8810  179.0370  139.0300 O   0  0  0  0  0  1  0  0  0  0  0  0
  187.3300  178.8470  140.8870 C   0  0  0  0  0  2  0  0  0  0  0  0
  185.9860  178.1940  141.1970 C   0  0  2  0  0  3  0  0  0  0  0  0
  184.8650  179.1120  140.7370 C   0  0  1  0  0  3  0  0  0  0  0  0
  184.7110  179.0290  139.2330 C   0  0  0  0  0  2  0  0  0  0  0  0
  183.7520  178.2800  140.1320 C   0  0  2  0  0  3  0  0  0  0  0  0
  182.5550  178.9900  140.2220 O   0  0  0  0  0  1  0  0  0  0  0  0
  185.8670  177.9650  142.5710 O   0  0  0  0  0  0  0  0  0  0  0  0
  185.1240  179.0480  143.0530 C   0  0  0  0  0  2  0  0  0  0  0  0
  183.0230  178.9750  144.3840 C   0  0  0  0  0  1  0  0  0  0  0  0
  184.5140  178.7000  144.3990 C   0  0  0  0  0  2  0  0  0  0  0  0
  192.7590  177.0660  139.7280 N   0  0  0  0  0  2  0  0  0  0  0  0
  192.5310  176.6020  138.3680 C   0  0  0  0  0  2  0  0  0  0  0  0
  194.6920  175.7060  138.8450 O   0  0  0  0  0  1  0  0  0  0  0  0
  193.6070  175.6090  137.9730 C   0  0  0  0  0  2  0  0  0  0  0  0
  1  3  1  0  0  0  0
  2 17  1  1  0  0  0
  2  1  1  0  0  0  0
  3  7  1  1  0  0  0
  4  3  1  0  0  0  0
  5  2  1  0  0  0  0
  5  6  1  0  0  0  0
  6 29  1  6  0  0  0
  6  4  1  0  0  0  0
  7 10  2  0  0  0  0
  7  8  1  0  0  0  0
  8 13  2  0  0  0  0
  9 15  1  0  0  0  0
 10 14  1  0  0  0  0
 11 15  2  0  0  0  0
 12 11  1  0  0  0  0
 13 12  1  0  0  0  0
 14 16  1  0  0  0  0
 14 12  2  0  0  0  0
 16  9  2  0  0  0  0
 17 18  1  1  0  0  0
 17 19  1  0  0  0  0
 20 19  1  1  0  0  0
 20 25  1  0  0  0  0
 21 20  1  6  0  0  0
 22 23  1  0  0  0  0
 22 21  1  0  0  0  0
 23 24  1  1  0  0  0
 23 21  1  0  0  0  0
 25 26  1  0  0  0  0
 26 28  1  0  0  0  0
 27 28  1  0  0  0  0
 30 29  1  0  0  0  0
 32 30  1  0  0  0  0
 32 31  1  0  0  0  0
M  END
>  <MODEL>
3

>  <REMARK>
 VINA RESULT:      -8.0      2.423      6.349
  Name = 
  11 active torsions:
  status: ('A' for Active; 'I' for Inactive)
    1  A    between atoms: C_2  and  C_5
    2  A    between atoms: C_3  and  C_20
    3  A    between atoms: C_4  and  C_24
    4  A    between atoms: C_13  and  N_18
    5  A    between atoms: C_13  and  C_29
    6  A    between atoms: O_15  and  C_20
    7  A    between atoms: O_15  and  C_26
    8  A    between atoms: C_16  and  C_20
    9  A    between atoms: C_16  and  C_24
   10  A    between atoms: N_18  and  C_30
   11  A    between atoms: C_19  and  C_26
                            x       y       z     vdW  Elec       q    Type
                         _______ _______ _______ _____ _____    ______ ____

>  <TORSDO>
F 11

$$$$
=
 OpenBabel10262421183D

 32 35  0  0  1  0  0  0  0  0999 V2000
  189.6110  176.8580  141.1960 O   0  0  0  0  0  0  0  0  0  0  0  0
  189.6960  177.1320  139.8090 C   0  0  2  0  0  3  0  0  0  0  0  0
  190.5900  177.6050  141.8840 C   0  0  2  0  0  3  0  0  0  0  0  0
  191.9960  177.1530  141.4960 C   0  0  0  0  0  2  0  0  0  0  0  0
  191.0780  176.8550  139.1890 C   0  0  0  0  0  2  0  0  0  0  0  0
  192.1950  177.4730  140.0220 C   0  0  2  0  0  3  0  0  0  0  0  0
  190.3790  177.4970  143.3580 C   0  0  0  0  0  0  0  0  0  0  0  0
  191.4670  177.2100  144.1890 C   0  0  0  0  0  3  0  0  0  0  0  0
  187.5710  177.7030  147.2910 C   0  0  0  0  0  3  0  0  0  0  0  0
  189.1160  177.6950  143.9280 C   0  0  0  0  0  3  0  0  0  0  0  0
  189.9390  177.2190  147.5010 C   0  0  0  0  0  3  0  0  0  0  0  0
  190.0810  177.3110  146.1140 C   0  0  0  0  0  0  0  0  0  0  0  0
  191.2990  177.1240  145.5370 N   0  0  0  0  0  0  0  0  0  0  0  0
  188.9580  177.6030  145.3100 C   0  0  0  0  0  0  0  0  0  0  0  0
  188.6850  177.4180  148.0880 C   0  0  0  0  0  3  0  0  0  0  0  0
  187.7070  177.7950  145.9020 C   0  0  0  0  0  3  0  0  0  0  0  0
  188.9600  178.4070  139.3640 C   0  0  2  0  0  3  0  0  0  0  0  0
  188.0230  178.8050  140.3170 O   0  0  0  0  0  1  0  0  0  0  0  0
  188.3650  178.3920  137.9510 C   0  0  0  0  0  2  0  0  0  0  0  0
  186.9750  177.7680  137.8650 C   0  0  2  0  0  3  0  0  0  0  0  0
  186.9010  176.8750  136.6370 C   0  0  1  0  0  3  0  0  0  0  0  0
  188.1490  176.0240  136.5380 C   0  0  0  0  0  2  0  0  0  0  0  0
  186.8670  175.4240  137.0720 C   0  0  2  0  0  3  0  0  0  0  0  0
  186.2630  174.6640  136.0710 O   0  0  0  0  0  1  0  0  0  0  0  0
  186.0020  178.7670  137.7740 O   0  0  0  0  0  0  0  0  0  0  0  0
  184.8830  178.2410  138.4280 C   0  0  0  0  0  2  0  0  0  0  0  0
  184.6330  178.9710  140.7930 C   0  0  0  0  0  1  0  0  0  0  0  0
  184.2840  179.2860  139.3520 C   0  0  0  0  0  2  0  0  0  0  0  0
  193.4810  176.9770  139.5620 N   0  0  0  0  0  2  0  0  0  0  0  0
  193.2630  176.3660  138.2610 C   0  0  0  0  0  2  0  0  0  0  0  0
  195.2220  175.2420  139.0350 O   0  0  0  0  0  1  0  0  0  0  0  0
  194.2140  175.2000  138.0700 C   0  0  0  0  0  2  0  0  0  0  0  0
  1  3  1  0  0  0  0
  2 17  1  1  0  0  0
  2  1  1  0  0  0  0
  3  7  1  1  0  0  0
  4  3  1  0  0  0  0
  5  2  1  0  0  0  0
  5  6  1  0  0  0  0
  6 29  1  6  0  0  0
  6  4  1  0  0  0  0
  7 10  2  0  0  0  0
  7  8  1  0  0  0  0
  8 13  2  0  0  0  0
  9 15  1  0  0  0  0
 10 14  1  0  0  0  0
 11 15  2  0  0  0  0
 12 11  1  0  0  0  0
 13 12  1  0  0  0  0
 14 16  1  0  0  0  0
 14 12  2  0  0  0  0
 16  9  2  0  0  0  0
 17 18  1  1  0  0  0
 19 17  1  0  0  0  0
 20 19  1  6  0  0  0
 21 23  1  0  0  0  0
 21 20  1  1  0  0  0
 22 21  1  0  0  0  0
 22 23  1  0  0  0  0
 23 24  1  6  0  0  0
 25 20  1  0  0  0  0
 25 26  1  0  0  0  0
 26 28  1  0  0  0  0
 28 27  1  0  0  0  0
 30 29  1  0  0  0  0
 32 30  1  0  0  0  0
 32 31  1  0  0  0  0
M  END
>  <MODEL>
4

>  <REMARK>
 VINA RESULT:      -7.9      2.673      5.943
  Name = 
  11 active torsions:
  status: ('A' for Active; 'I' for Inactive)
    1  A    between atoms: C_2  and  C_5
    2  A    between atoms: C_3  and  C_20
    3  A    between atoms: C_4  and  C_24
    4  A    between atoms: C_13  and  N_18
    5  A    between atoms: C_13  and  C_29
    6  A    between atoms: O_15  and  C_20
    7  A    between atoms: O_15  and  C_26
    8  A    between atoms: C_16  and  C_20
    9  A    between atoms: C_16  and  C_24
   10  A    between atoms: N_18  and  C_30
   11  A    between atoms: C_19  and  C_26
                            x       y       z     vdW  Elec       q    Type
                         _______ _______ _______ _____ _____    ______ ____

>  <TORSDO>
F 11

$$$$
=
 OpenBabel10262421183D

 32 35  0  0  1  0  0  0  0  0999 V2000
  184.7310  179.5750  140.7630 O   0  0  0  0  0  0  0  0  0  0  0  0
  184.4710  179.4000  139.3810 C   0  0  2  0  0  3  0  0  0  0  0  0
  184.1770  178.4980  141.4860 C   0  0  2  0  0  3  0  0  0  0  0  0
  182.6530  178.4990  141.3870 C   0  0  0  0  0  2  0  0  0  0  0  0
  182.9790  179.2630  139.0280 C   0  0  0  0  0  2  0  0  0  0  0  0
  182.2830  178.2520  139.9310 C   0  0  2  0  0  3  0  0  0  0  0  0
  184.6220  178.5500  142.9100 C   0  0  0  0  0  0  0  0  0  0  0  0
  183.7860  179.1270  143.8710 C   0  0  0  0  0  3  0  0  0  0  0  0
  187.8120  177.5970  146.4190 C   0  0  0  0  0  3  0  0  0  0  0  0
  185.8530  178.0150  143.3070 C   0  0  0  0  0  3  0  0  0  0  0  0
  185.7200  178.7120  146.9350 C   0  0  0  0  0  3  0  0  0  0  0  0
  185.3580  178.6580  145.5870 C   0  0  0  0  0  0  0  0  0  0  0  0
  184.1650  179.1690  145.1770 N   0  0  0  0  0  0  0  0  0  0  0  0
  186.2300  178.0660  144.6480 C   0  0  0  0  0  0  0  0  0  0  0  0
  186.9450  178.1800  147.3500 C   0  0  0  0  0  3  0  0  0  0  0  0
  187.4550  177.5410  145.0670 C   0  0  0  0  0  3  0  0  0  0  0  0
  185.4610  178.4710  138.6570 C   0  0  2  0  0  3  0  0  0  0  0  0
  184.8000  177.3890  138.0740 O   0  0  0  0  0  1  0  0  0  0  0  0
  186.6870  178.0250  139.4610 C   0  0  0  0  0  2  0  0  0  0  0  0
  187.9940  178.0470  138.6730 C   0  0  2  0  0  3  0  0  0  0  0  0
  189.1450  178.3550  139.6180 C   0  0  1  0  0  3  0  0  0  0  0  0
  189.0030  177.5440  140.8890 C   0  0  0  0  0  2  0  0  0  0  0  0
  189.9770  177.1050  139.8190 C   0  0  2  0  0  3  0  0  0  0  0  0
  191.2690  177.4750  140.1920 O   0  0  0  0  0  1  0  0  0  0  0  0
  187.9380  179.0230  137.6740 O   0  0  0  0  0  0  0  0  0  0  0  0
  188.7730  178.5460  136.6580 C   0  0  0  0  0  2  0  0  0  0  0  0
  186.8870  177.9670  135.1430 C   0  0  0  0  0  1  0  0  0  0  0  0
  188.0820  177.4260  135.9020 C   0  0  0  0  0  2  0  0  0  0  0  0
  180.8450  178.3390  139.7500 N   0  0  0  0  0  2  0  0  0  0  0  0
  180.3150  179.0800  140.8840 C   0  0  0  0  0  2  0  0  0  0  0  0
  179.2450  177.8760  142.6450 O   0  0  0  0  0  1  0  0  0  0  0  0
  179.0400  178.4270  141.3800 C   0  0  0  0  0  2  0  0  0  0  0  0
  1  3  1  0  0  0  0
  2 17  1  1  0  0  0
  2  1  1  0  0  0  0
  3  7  1  1  0  0  0
  4  3  1  0  0  0  0
  5  2  1  0  0  0  0
  5  6  1  0  0  0  0
  6 29  1  1  0  0  0
  6  4  1  0  0  0  0
  7 10  2  0  0  0  0
  7  8  1  0  0  0  0
  8 13  2  0  0  0  0
  9 15  1  0  0  0  0
 10 14  1  0  0  0  0
 11 15  2  0  0  0  0
 12 11  1  0  0  0  0
 13 12  1  0  0  0  0
 14 16  1  0  0  0  0
 14 12  2  0  0  0  0
 16  9  2  0  0  0  0
 17 18  1  1  0  0  0
 17 19  1  0  0  0  0
 20 19  1  1  0  0  0
 21 20  1  6  0  0  0
 21 23  1  0  0  0  0
 21 22  1  0  0  0  0
 23 24  1  1  0  0  0
 23 22  1  0  0  0  0
 25 20  1  0  0  0  0
 26 25  1  0  0  0  0
 27 28  1  0  0  0  0
 28 26  1  0  0  0  0
 29 30  1  0  0  0  0
 30 32  1  0  0  0  0
 32 31  1  0  0  0  0
M  END
>  <MODEL>
5

>  <REMARK>
 VINA RESULT:      -7.8      3.209      7.140
  Name = 
  11 active torsions:
  status: ('A' for Active; 'I' for Inactive)
    1  A    between atoms: C_2  and  C_5
    2  A    between atoms: C_3  and  C_20
    3  A    between atoms: C_4  and  C_24
    4  A    between atoms: C_13  and  N_18
    5  A    between atoms: C_13  and  C_29
    6  A    between atoms: O_15  and  C_20
    7  A    between atoms: O_15  and  C_26
    8  A    between atoms: C_16  and  C_20
    9  A    between atoms: C_16  and  C_24
   10  A    between atoms: N_18  and  C_30
   11  A    between atoms: C_19  and  C_26
                            x       y       z     vdW  Elec       q    Type
                         _______ _______ _______ _____ _____    ______ ____

>  <TORSDO>
F 11

$$$$
=
 OpenBabel10262421183D

 32 35  0  0  1  0  0  0  0  0999 V2000
  185.0650  179.4280  140.6180 O   0  0  0  0  0  0  0  0  0  0  0  0
  184.5790  179.3850  139.2880 C   0  0  2  0  0  3  0  0  0  0  0  0
  184.4690  178.3940  141.3710 C   0  0  2  0  0  3  0  0  0  0  0  0
  182.9640  178.6180  141.5110 C   0  0  0  0  0  2  0  0  0  0  0  0
  183.0480  179.4840  139.1660 C   0  0  0  0  0  2  0  0  0  0  0  0
  182.3510  178.5230  140.1220 C   0  0  2  0  0  3  0  0  0  0  0  0
  185.1220  178.2880  142.7080 C   0  0  0  0  0  0  0  0  0  0  0  0
  184.4080  178.6550  143.8540 C   0  0  0  0  0  3  0  0  0  0  0  0
  188.8650  177.1350  145.5470 C   0  0  0  0  0  3  0  0  0  0  0  0
  186.4310  177.8090  142.8420 C   0  0  0  0  0  3  0  0  0  0  0  0
  186.8110  177.9880  146.5150 C   0  0  0  0  0  3  0  0  0  0  0  0
  186.2510  178.0890  145.2390 C   0  0  0  0  0  0  0  0  0  0  0  0
  184.9800  178.5490  145.0840 N   0  0  0  0  0  0  0  0  0  0  0  0
  187.0050  177.7070  144.1090 C   0  0  0  0  0  0  0  0  0  0  0  0
  188.1170  177.5090  146.6680 C   0  0  0  0  0  3  0  0  0  0  0  0
  188.3100  177.2350  144.2670 C   0  0  0  0  0  3  0  0  0  0  0  0
  185.3010  178.3760  138.3780 C   0  0  2  0  0  3  0  0  0  0  0  0
  184.4560  177.3230  138.0260 O   0  0  0  0  0  1  0  0  0  0  0  0
  186.6650  177.8740  138.8650 C   0  0  0  0  0  2  0  0  0  0  0  0
  187.8510  178.4140  138.0710 C   0  0  2  0  0  3  0  0  0  0  0  0
  188.4660  177.2860  137.2580 C   0  0  1  0  0  3  0  0  0  0  0  0
  187.4910  176.8200  136.1980 C   0  0  0  0  0  2  0  0  0  0  0  0
  188.6340  177.7360  135.8210 C   0  0  2  0  0  3  0  0  0  0  0  0
  189.6490  176.9870  135.2270 O   0  0  0  0  0  1  0  0  0  0  0  0
  188.8120  178.9410  138.9380 O   0  0  0  0  0  0  0  0  0  0  0  0
  189.5540  177.8360  139.3680 C   0  0  0  0  0  2  0  0  0  0  0  0
  190.9020  177.1350  141.3380 C   0  0  0  0  0  1  0  0  0  0  0  0
  189.6260  177.8170  140.8840 C   0  0  0  0  0  2  0  0  0  0  0  0
  180.9300  178.8240  140.1710 N   0  0  0  0  0  2  0  0  0  0  0  0
  180.5240  178.7410  141.5650 C   0  0  0  0  0  2  0  0  0  0  0  0
  180.0420  180.8370  142.6010 O   0  0  0  0  0  1  0  0  0  0  0  0
  179.4770  179.7960  141.8640 C   0  0  0  0  0  2  0  0  0  0  0  0
  1  3  1  0  0  0  0
  2 17  1  1  0  0  0
  2  1  1  0  0  0  0
  3  4  1  0  0  0  0
  3  7  1  1  0  0  0
  5  2  1  0  0  0  0
  5  6  1  0  0  0  0
  6 29  1  1  0  0  0
  6  4  1  0  0  0  0
  7 10  2  0  0  0  0
  7  8  1  0  0  0  0
  8 13  2  0  0  0  0
  9 15  1  0  0  0  0
 10 14  1  0  0  0  0
 11 15  2  0  0  0  0
 12 11  1  0  0  0  0
 13 12  1  0  0  0  0
 14 16  1  0  0  0  0
 14 12  2  0  0  0  0
 16  9  2  0  0  0  0
 17 18  1  1  0  0  0
 17 19  1  0  0  0  0
 20 19  1  1  0  0  0
 20 25  1  0  0  0  0
 21 20  1  1  0  0  0
 22 21  1  0  0  0  0
 23 24  1  6  0  0  0
 23 22  1  0  0  0  0
 23 21  1  0  0  0  0
 25 26  1  0  0  0  0
 26 28  1  0  0  0  0
 28 27  1  0  0  0  0
 29 30  1  0  0  0  0
 30 32  1  0  0  0  0
 32 31  1  0  0  0  0
M  END
>  <MODEL>
6

>  <REMARK>
 VINA RESULT:      -7.6      3.340      7.004
  Name = 
  11 active torsions:
  status: ('A' for Active; 'I' for Inactive)
    1  A    between atoms: C_2  and  C_5
    2  A    between atoms: C_3  and  C_20
    3  A    between atoms: C_4  and  C_24
    4  A    between atoms: C_13  and  N_18
    5  A    between atoms: C_13  and  C_29
    6  A    between atoms: O_15  and  C_20
    7  A    between atoms: O_15  and  C_26
    8  A    between atoms: C_16  and  C_20
    9  A    between atoms: C_16  and  C_24
   10  A    between atoms: N_18  and  C_30
   11  A    between atoms: C_19  and  C_26
                            x       y       z     vdW  Elec       q    Type
                         _______ _______ _______ _____ _____    ______ ____

>  <TORSDO>
F 11

$$$$
=
 OpenBabel10262421183D

 32 35  0  0  1  0  0  0  0  0999 V2000
  186.1410  177.5010  142.7900 O   0  0  0  0  0  0  0  0  0  0  0  0
  187.5200  177.5270  143.1130 C   0  0  2  0  0  3  0  0  0  0  0  0
  185.4640  178.4930  143.5310 C   0  0  2  0  0  3  0  0  0  0  0  0
  185.5080  178.1830  145.0260 C   0  0  0  0  0  2  0  0  0  0  0  0
  187.8260  177.3420  144.6100 C   0  0  0  0  0  2  0  0  0  0  0  0
  186.9610  178.2540  145.4720 C   0  0  2  0  0  3  0  0  0  0  0  0
  184.0580  178.6260  143.0510 C   0  0  0  0  0  0  0  0  0  0  0  0
  183.7970  178.6340  141.6760 C   0  0  0  0  0  3  0  0  0  0  0  0
  179.3030  179.0340  143.8390 C   0  0  0  0  0  3  0  0  0  0  0  0
  182.9890  178.7250  143.9500 C   0  0  0  0  0  3  0  0  0  0  0  0
  180.1650  178.9380  141.5740 C   0  0  0  0  0  3  0  0  0  0  0  0
  181.4660  178.8360  142.0730 C   0  0  0  0  0  0  0  0  0  0  0  0
  182.5200  178.7370  141.2180 N   0  0  0  0  0  0  0  0  0  0  0  0
  181.6860  178.8310  143.4670 C   0  0  0  0  0  0  0  0  0  0  0  0
  179.0840  179.0340  142.4580 C   0  0  0  0  0  3  0  0  0  0  0  0
  180.6040  178.9330  144.3450 C   0  0  0  0  0  3  0  0  0  0  0  0
  188.3350  178.5830  142.3460 C   0  0  2  0  0  3  0  0  0  0  0  0
  187.9770  178.6130  140.9980 O   0  0  0  0  0  1  0  0  0  0  0  0
  189.8560  178.5330  142.5300 C   0  0  0  0  0  2  0  0  0  0  0  0
  190.5170  177.2890  141.9430 C   0  0  2  0  0  3  0  0  0  0  0  0
  191.6200  176.8180  142.8770 C   0  0  1  0  0  3  0  0  0  0  0  0
  191.2950  177.2100  144.3030 C   0  0  0  0  0  2  0  0  0  0  0  0
  191.0590  175.7900  143.8390 C   0  0  2  0  0  3  0  0  0  0  0  0
  192.0980  174.9790  144.2920 O   0  0  0  0  0  1  0  0  0  0  0  0
  191.0610  177.5780  140.6880 O   0  0  0  0  0  0  0  0  0  0  0  0
  190.5020  176.6300  139.8250 C   0  0  0  0  0  2  0  0  0  0  0  0
  189.4550  177.8380  137.9200 C   0  0  0  0  0  1  0  0  0  0  0  0
  190.6780  177.0720  138.3840 C   0  0  0  0  0  2  0  0  0  0  0  0
  187.0830  177.8710  146.8680 N   0  0  0  0  0  2  0  0  0  0  0  0
  188.4150  177.3110  147.0420 C   0  0  0  0  0  2  0  0  0  0  0  0
  188.0810  178.2460  149.2130 O   0  0  0  0  0  1  0  0  0  0  0  0
  189.0610  177.8900  148.2850 C   0  0  0  0  0  2  0  0  0  0  0  0
  1  2  1  0  0  0  0
  1  3  1  0  0  0  0
  2 17  1  1  0  0  0
  2  5  1  0  0  0  0
  3  7  1  6  0  0  0
  3  4  1  0  0  0  0
  4  6  1  0  0  0  0
  5  6  1  0  0  0  0
  6 29  1  1  0  0  0
  7 10  1  0  0  0  0
  8  7  2  0  0  0  0
  9 16  2  0  0  0  0
 11 12  1  0  0  0  0
 11 15  2  0  0  0  0
 12 14  1  0  0  0  0
 13  8  1  0  0  0  0
 13 12  2  0  0  0  0
 14 10  2  0  0  0  0
 14 16  1  0  0  0  0
 15  9  1  0  0  0  0
 17 18  1  6  0  0  0
 17 19  1  0  0  0  0
 20 19  1  1  0  0  0
 21 20  1  6  0  0  0
 21 23  1  0  0  0  0
 21 22  1  0  0  0  0
 23 24  1  1  0  0  0
 23 22  1  0  0  0  0
 25 20  1  0  0  0  0
 26 25  1  0  0  0  0
 27 28  1  0  0  0  0
 28 26  1  0  0  0  0
 29 30  1  0  0  0  0
 30 32  1  0  0  0  0
 32 31  1  0  0  0  0
M  END
>  <MODEL>
7

>  <REMARK>
 VINA RESULT:      -7.5      2.307      4.388
  Name = 
  11 active torsions:
  status: ('A' for Active; 'I' for Inactive)
    1  A    between atoms: C_2  and  C_5
    2  A    between atoms: C_3  and  C_20
    3  A    between atoms: C_4  and  C_24
    4  A    between atoms: C_13  and  N_18
    5  A    between atoms: C_13  and  C_29
    6  A    between atoms: O_15  and  C_20
    7  A    between atoms: O_15  and  C_26
    8  A    between atoms: C_16  and  C_20
    9  A    between atoms: C_16  and  C_24
   10  A    between atoms: N_18  and  C_30
   11  A    between atoms: C_19  and  C_26
                            x       y       z     vdW  Elec       q    Type
                         _______ _______ _______ _____ _____    ______ ____

>  <TORSDO>
F 11

$$$$
=
 OpenBabel10262421183D

 32 35  0  0  1  0  0  0  0  0999 V2000
  183.2880  177.2550  141.3440 O   0  0  0  0  0  0  0  0  0  0  0  0
  182.6390  177.2990  140.0850 C   0  0  2  0  0  3  0  0  0  0  0  0
  183.8400  178.5200  141.6340 C   0  0  2  0  0  3  0  0  0  0  0  0
  184.9520  178.8710  140.6480 C   0  0  0  0  0  2  0  0  0  0  0  0
  183.5420  177.7400  138.9200 C   0  0  0  0  0  2  0  0  0  0  0  0
  184.3240  179.0010  139.2680 C   0  0  2  0  0  3  0  0  0  0  0  0
  184.3380  178.5560  143.0400 C   0  0  0  0  0  0  0  0  0  0  0  0
  183.4840  178.9820  144.0630 C   0  0  0  0  0  3  0  0  0  0  0  0
  187.7700  177.8180  146.3690 C   0  0  0  0  0  3  0  0  0  0  0  0
  185.6400  178.1520  143.3600 C   0  0  0  0  0  3  0  0  0  0  0  0
  185.5880  178.6510  147.0230 C   0  0  0  0  0  3  0  0  0  0  0  0
  185.1740  178.6190  145.6890 C   0  0  0  0  0  0  0  0  0  0  0  0
  183.9140  179.0050  145.3540 N   0  0  0  0  0  0  0  0  0  0  0  0
  186.0670  178.1810  144.6870 C   0  0  0  0  0  0  0  0  0  0  0  0
  186.8840  178.2480  147.3620 C   0  0  0  0  0  3  0  0  0  0  0  0
  187.3620  177.7860  145.0300 C   0  0  0  0  0  3  0  0  0  0  0  0
  181.2060  177.8570  140.1250 C   0  0  2  0  0  3  0  0  0  0  0  0
  180.2790  176.8430  140.3720 O   0  0  0  0  0  1  0  0  0  0  0  0
  180.7860  178.7380  138.9430 C   0  0  0  0  0  2  0  0  0  0  0  0
  180.4640  180.1810  139.3220 C   0  0  2  0  0  3  0  0  0  0  0  0
  181.2830  181.1220  138.4540 C   0  0  1  0  0  3  0  0  0  0  0  0
  180.8040  181.0530  137.0180 C   0  0  0  0  0  2  0  0  0  0  0  0
  180.3820  182.2070  137.9000 C   0  0  2  0  0  3  0  0  0  0  0  0
  181.1540  183.3270  137.5950 O   0  0  0  0  0  1  0  0  0  0  0  0
  180.7670  180.4060  140.6680 O   0  0  0  0  0  0  0  0  0  0  0  0
  179.5300  180.6080  141.2870 C   0  0  0  0  0  2  0  0  0  0  0  0
  179.7480  179.0450  143.2100 C   0  0  0  0  0  1  0  0  0  0  0  0
  179.6810  180.5020  142.7940 C   0  0  0  0  0  2  0  0  0  0  0  0
  185.3470  179.2380  138.2640 N   0  0  0  0  0  2  0  0  0  0  0  0
  185.8090  177.9350  137.8100 C   0  0  0  0  0  2  0  0  0  0  0  0
  187.5990  179.3770  137.1640 O   0  0  0  0  0  1  0  0  0  0  0  0
  187.2370  178.0370  137.3110 C   0  0  0  0  0  2  0  0  0  0  0  0
  1  3  1  0  0  0  0
  2 17  1  1  0  0  0
  2  1  1  0  0  0  0
  3  7  1  1  0  0  0
  4  3  1  0  0  0  0
  5  6  1  0  0  0  0
  5  2  1  0  0  0  0
  6 29  1  6  0  0  0
  6  4  1  0  0  0  0
  7 10  2  0  0  0  0
  7  8  1  0  0  0  0
  8 13  2  0  0  0  0
  9 15  1  0  0  0  0
 10 14  1  0  0  0  0
 11 15  2  0  0  0  0
 12 11  1  0  0  0  0
 13 12  1  0  0  0  0
 14 16  1  0  0  0  0
 14 12  2  0  0  0  0
 16  9  2  0  0  0  0
 17 18  1  6  0  0  0
 19 17  1  0  0  0  0
 20 19  1  6  0  0  0
 20 25  1  0  0  0  0
 21 20  1  1  0  0  0
 22 23  1  0  0  0  0
 22 21  1  0  0  0  0
 23 24  1  6  0  0  0
 23 21  1  0  0  0  0
 25 26  1  0  0  0  0
 26 28  1  0  0  0  0
 28 27  1  0  0  0  0
 30 29  1  0  0  0  0
 31 32  1  0  0  0  0
 32 30  1  0  0  0  0
M  END
>  <MODEL>
8

>  <REMARK>
 VINA RESULT:      -7.5      4.396      8.884
  Name = 
  11 active torsions:
  status: ('A' for Active; 'I' for Inactive)
    1  A    between atoms: C_2  and  C_5
    2  A    between atoms: C_3  and  C_20
    3  A    between atoms: C_4  and  C_24
    4  A    between atoms: C_13  and  N_18
    5  A    between atoms: C_13  and  C_29
    6  A    between atoms: O_15  and  C_20
    7  A    between atoms: O_15  and  C_26
    8  A    between atoms: C_16  and  C_20
    9  A    between atoms: C_16  and  C_24
   10  A    between atoms: N_18  and  C_30
   11  A    between atoms: C_19  and  C_26
                            x       y       z     vdW  Elec       q    Type
                         _______ _______ _______ _____ _____    ______ ____

>  <TORSDO>
F 11

$$$$
=
 OpenBabel10262421183D

 32 35  0  0  1  0  0  0  0  0999 V2000
  185.2810  179.2740  141.0030 O   0  0  0  0  0  0  0  0  0  0  0  0
  184.4210  179.2980  139.8780 C   0  0  2  0  0  3  0  0  0  0  0  0
  184.8680  178.2570  141.8900 C   0  0  2  0  0  3  0  0  0  0  0  0
  183.4910  178.5680  142.4740 C   0  0  0  0  0  2  0  0  0  0  0  0
  182.9330  179.4930  140.2180 C   0  0  0  0  0  2  0  0  0  0  0  0
  182.4880  178.5490  141.3300 C   0  0  2  0  0  3  0  0  0  0  0  0
  185.8800  178.0730  142.9710 C   0  0  0  0  0  0  0  0  0  0  0  0
  187.1940  177.7340  142.6330 C   0  0  0  0  0  3  0  0  0  0  0  0
  187.2020  178.0970  147.6240 C   0  0  0  0  0  3  0  0  0  0  0  0
  185.5450  178.2530  144.3190 C   0  0  0  0  0  3  0  0  0  0  0  0
  188.8220  177.5820  145.8930 C   0  0  0  0  0  3  0  0  0  0  0  0
  187.8340  177.7460  144.9190 C   0  0  0  0  0  0  0  0  0  0  0  0
  188.1360  177.5790  143.6030 N   0  0  0  0  0  0  0  0  0  0  0  0
  186.5200  178.0900  145.3020 C   0  0  0  0  0  0  0  0  0  0  0  0
  188.5060  177.7610  147.2440 C   0  0  0  0  0  3  0  0  0  0  0  0
  186.2080  178.2610  146.6530 C   0  0  0  0  0  3  0  0  0  0  0  0
  184.7710  178.2730  138.7850 C   0  0  2  0  0  3  0  0  0  0  0  0
  185.9540  178.6220  138.1300 O   0  0  0  0  0  1  0  0  0  0  0  0
  183.6540  177.9250  137.7950 C   0  0  0  0  0  2  0  0  0  0  0  0
  183.4000  176.4280  137.6390 C   0  0  2  0  0  3  0  0  0  0  0  0
  182.3490  175.9910  138.6470 C   0  0  1  0  0  3  0  0  0  0  0  0
  181.0630  176.7580  138.4230 C   0  0  0  0  0  2  0  0  0  0  0  0
  181.1930  175.3380  137.9160 C   0  0  2  0  0  3  0  0  0  0  0  0
  180.5330  174.4760  138.7900 O   0  0  0  0  0  1  0  0  0  0  0  0
  184.5810  175.7130  137.8570 O   0  0  0  0  0  0  0  0  0  0  0  0
  184.6190  174.7600  136.8350 C   0  0  0  0  0  2  0  0  0  0  0  0
  186.0480  172.8700  137.5900 C   0  0  0  0  0  1  0  0  0  0  0  0
  184.6240  173.3630  137.4280 C   0  0  0  0  0  2  0  0  0  0  0  0
  181.1690  178.9350  141.8020 N   0  0  0  0  0  2  0  0  0  0  0  0
  180.5090  179.6270  140.7070 C   0  0  0  0  0  2  0  0  0  0  0  0
  179.8160  180.8770  142.6200 O   0  0  0  0  0  1  0  0  0  0  0  0
  179.5900  180.7030  141.2530 C   0  0  0  0  0  2  0  0  0  0  0  0
  1  3  1  0  0  0  0
  2 17  1  1  0  0  0
  2  5  1  0  0  0  0
  2  1  1  0  0  0  0
  3  4  1  0  0  0  0
  3  7  1  1  0  0  0
  5  6  1  0  0  0  0
  6 29  1  1  0  0  0
  6  4  1  0  0  0  0
  7 10  1  0  0  0  0
  8  7  2  0  0  0  0
  8 13  1  0  0  0  0
 10 14  2  0  0  0  0
 11 15  2  0  0  0  0
 12 14  1  0  0  0  0
 12 11  1  0  0  0  0
 13 12  2  0  0  0  0
 14 16  1  0  0  0  0
 15  9  1  0  0  0  0
 16  9  2  0  0  0  0
 17 18  1  6  0  0  0
 19 17  1  0  0  0  0
 20 19  1  1  0  0  0
 20 25  1  0  0  0  0
 21 20  1  6  0  0  0
 22 21  1  0  0  0  0
 23 22  1  0  0  0  0
 23 21  1  0  0  0  0
 23 24  1  1  0  0  0
 26 28  1  0  0  0  0
 26 25  1  0  0  0  0
 28 27  1  0  0  0  0
 30 32  1  0  0  0  0
 30 29  1  0  0  0  0
 32 31  1  0  0  0  0
M  END
>  <MODEL>
9

>  <REMARK>
 VINA RESULT:      -7.4      4.356      7.945
  Name = 
  11 active torsions:
  status: ('A' for Active; 'I' for Inactive)
    1  A    between atoms: C_2  and  C_5
    2  A    between atoms: C_3  and  C_20
    3  A    between atoms: C_4  and  C_24
    4  A    between atoms: C_13  and  N_18
    5  A    between atoms: C_13  and  C_29
    6  A    between atoms: O_15  and  C_20
    7  A    between atoms: O_15  and  C_26
    8  A    between atoms: C_16  and  C_20
    9  A    between atoms: C_16  and  C_24
   10  A    between atoms: N_18  and  C_30
   11  A    between atoms: C_19  and  C_26
                            x       y       z     vdW  Elec       q    Type
                         _______ _______ _______ _____ _____    ______ ____

>  <TORSDO>
F 11

$$$$
