=
 OpenBabel10262420563D

 28 32  0  0  1  0  0  0  0  0999 V2000
  188.4970  176.7600  143.1430 C   0  0  1  0  0  3  0  0  0  0  0  0
  192.7550  176.9520  138.5630 C   0  0  1  0  0  3  0  0  0  0  0  0
  187.4590  178.8320  138.7690 O   0  0  0  0  0  1  0  0  0  0  0  0
  191.1170  175.1900  138.2800 C   0  0  2  0  0  3  0  0  0  0  0  0
  190.6110  177.1400  139.9290 C   0  0  2  0  0  3  0  0  0  0  0  0
  193.3360  175.9340  137.5940 C   0  0  1  0  0  3  0  0  0  0  0  0
  191.6480  176.2180  139.2770 C   0  0  2  0  0  3  0  0  0  0  0  0
  188.8890  176.3950  138.2540 C   0  0  0  0  0  2  0  0  0  0  0  0
  192.3170  174.8650  137.3870 C   0  0  2  0  0  3  0  0  0  0  0  0
  187.9060  177.7810  140.8960 C   0  0  2  0  0  3  0  0  0  0  0  0
  189.9970  176.4480  141.1440 C   0  0  0  0  0  2  0  0  0  0  0  0
  189.9480  175.6950  137.4190 C   0  0  0  0  0  2  0  0  0  0  0  0
  186.3070  177.9550  142.7960 C   0  0  0  0  0  2  0  0  0  0  0  0
  188.4810  178.4780  139.6560 C   0  0  1  0  0  3  0  0  0  0  0  0
  186.8970  178.6850  141.5990 C   0  0  0  0  0  2  0  0  0  0  0  0
  192.5410  175.8840  136.4380 O   0  0  0  0  0  0  0  0  0  0  0  0
  193.7720  177.3560  139.5160 N   0  0  0  0  0  1  0  0  0  0  0  0
  189.5230  177.6010  138.9440 C   0  0  1  0  0  3  0  0  0  0  0  0
  187.4120  177.6220  143.7910 C   0  0  0  0  0  2  0  0  0  0  0  0
  189.0450  177.4030  141.8580 C   0  0  2  0  0  3  0  0  0  0  0  0
  189.6000  176.4380  144.1620 C   0  0  0  0  0  2  0  0  0  0  0  0
  189.7660  177.4940  145.1600 N   0  0  0  0  0  0  0  0  0  0  0  0
  188.5150  176.3250  146.7620 O   0  0  0  0  0  0  0  0  0  0  0  0
  189.1720  177.3580  146.4670 C   0  0  0  0  0  0  0  0  0  0  0  0
  189.2800  178.4480  147.4820 C   0  0  0  0  0  2  0  0  0  0  0  0
  188.3120  178.1940  148.6210 C   0  0  0  0  0  1  0  0  0  0  0  0
  190.2900  178.7790  144.7090 C   0  0  0  0  0  2  0  0  0  0  0  0
  191.6550  178.6000  144.0710 C   0  0  0  0  0  1  0  0  0  0  0  0
  1 19  1  0  0  0  0
  1 21  1  1  0  0  0
  2  7  1  0  0  0  0
  2 17  1  1  0  0  0
  3 14  1  0  0  0  0
  4 12  1  6  0  0  0
  4  7  1  0  0  0  0
  5 11  1  1  0  0  0
  6 16  1  6  0  0  0
  6  2  1  0  0  0  0
  7  5  1  0  0  0  0
  8 18  1  0  0  0  0
  9  6  1  0  0  0  0
  9  4  1  0  0  0  0
 10 15  1  0  0  0  0
 10 20  1  0  0  0  0
 11 20  1  0  0  0  0
 12  8  1  0  0  0  0
 13 19  1  0  0  0  0
 14 10  1  0  0  0  0
 15 13  1  0  0  0  0
 16  9  1  0  0  0  0
 18 14  1  0  0  0  0
 18  5  1  0  0  0  0
 20  1  1  0  0  0  0
 21 22  1  0  0  0  0
 22 24  1  0  0  0  0
 24 23  2  0  0  0  0
 24 25  1  0  0  0  0
 25 26  1  0  0  0  0
 27 22  1  0  0  0  0
 28 27  1  0  0  0  0
M  END
>  <MODEL>
1

>  <REMARK>
 VINA RESULT:      -7.4      0.000      0.000
  Name = 
  4 active torsions:
  status: ('A' for Active; 'I' for Inactive)
    1  A    between atoms: C_1  and  C_2
    2  A    between atoms: C_2  and  N_3
    3  A    between atoms: N_3  and  C_7
    4  A    between atoms: C_6  and  C_11
                            x       y       z     vdW  Elec       q    Type
                         _______ _______ _______ _____ _____    ______ ____

>  <TORSDO>
F 4

$$$$
=
 OpenBabel10262420563D

 28 32  0  0  1  0  0  0  0  0999 V2000
  188.5720  177.6790  142.6080 C   0  0  1  0  0  3  0  0  0  0  0  0
  187.2550  175.9970  136.7270 C   0  0  1  0  0  3  0  0  0  0  0  0
  192.1360  177.3020  139.1940 O   0  0  0  0  0  1  0  0  0  0  0  0
  187.5660  178.3840  136.9980 C   0  0  2  0  0  3  0  0  0  0  0  0
  188.4290  176.7730  138.8520 C   0  0  2  0  0  3  0  0  0  0  0  0
  186.6110  176.6840  135.5330 C   0  0  1  0  0  3  0  0  0  0  0  0
  187.3860  177.0780  137.7700 C   0  0  2  0  0  3  0  0  0  0  0  0
  189.8960  178.6130  137.9650 C   0  0  0  0  0  2  0  0  0  0  0  0
  186.8310  178.1520  135.6760 C   0  0  2  0  0  3  0  0  0  0  0  0
  190.4210  177.5530  140.8740 C   0  0  2  0  0  3  0  0  0  0  0  0
  188.0360  177.4650  140.1570 C   0  0  0  0  0  2  0  0  0  0  0  0
  189.0320  178.7550  136.7230 C   0  0  0  0  0  2  0  0  0  0  0  0
  190.9880  177.9520  143.2650 C   0  0  0  0  0  2  0  0  0  0  0  0
  190.8540  176.8830  139.5630 C   0  0  1  0  0  3  0  0  0  0  0  0
  191.4130  177.2390  141.9900 C   0  0  0  0  0  2  0  0  0  0  0  0
  187.5970  177.3590  134.7960 O   0  0  0  0  0  0  0  0  0  0  0  0
  186.3800  174.9460  137.2170 N   0  0  0  0  0  1  0  0  0  0  0  0
  189.8560  177.1580  138.4280 C   0  0  1  0  0  3  0  0  0  0  0  0
  189.6170  177.4510  143.7020 C   0  0  0  0  0  2  0  0  0  0  0  0
  189.0110  177.0760  141.2630 C   0  0  2  0  0  3  0  0  0  0  0  0
  187.1990  177.1660  143.0670 C   0  0  0  0  0  2  0  0  0  0  0  0
  186.2930  178.2510  143.4440 N   0  0  0  0  0  0  0  0  0  0  0  0
  186.1470  177.5040  145.6620 O   0  0  0  0  0  0  0  0  0  0  0  0
  185.7970  178.3470  144.7940 C   0  0  0  0  0  0  0  0  0  0  0  0
  184.8270  179.4130  145.1870 C   0  0  0  0  0  2  0  0  0  0  0  0
  183.4090  178.8840  145.0940 C   0  0  0  0  0  1  0  0  0  0  0  0
  185.6960  179.0400  142.3730 C   0  0  0  0  0  2  0  0  0  0  0  0
  184.5960  178.2530  141.6840 C   0  0  0  0  0  1  0  0  0  0  0  0
  1 21  1  1  0  0  0
  1 19  1  0  0  0  0
  2 17  1  1  0  0  0
  2  7  1  0  0  0  0
  3 14  1  0  0  0  0
  4 12  1  6  0  0  0
  4  7  1  0  0  0  0
  5 11  1  1  0  0  0
  6 16  1  6  0  0  0
  6  9  1  0  0  0  0
  6  2  1  0  0  0  0
  7  5  1  0  0  0  0
  8 18  1  0  0  0  0
  9  4  1  0  0  0  0
 10 20  1  0  0  0  0
 10 15  1  0  0  0  0
 11 20  1  0  0  0  0
 12  8  1  0  0  0  0
 13 19  1  0  0  0  0
 14 10  1  0  0  0  0
 15 13  1  0  0  0  0
 16  9  1  0  0  0  0
 18  5  1  0  0  0  0
 18 14  1  0  0  0  0
 20  1  1  0  0  0  0
 21 22  1  0  0  0  0
 22 24  1  0  0  0  0
 24 25  1  0  0  0  0
 24 23  2  0  0  0  0
 26 25  1  0  0  0  0
 27 22  1  0  0  0  0
 28 27  1  0  0  0  0
M  END
>  <MODEL>
2

>  <REMARK>
 VINA RESULT:      -7.2      2.766      4.552
  Name = 
  4 active torsions:
  status: ('A' for Active; 'I' for Inactive)
    1  A    between atoms: C_1  and  C_2
    2  A    between atoms: C_2  and  N_3
    3  A    between atoms: N_3  and  C_7
    4  A    between atoms: C_6  and  C_11
                            x       y       z     vdW  Elec       q    Type
                         _______ _______ _______ _____ _____    ______ ____

>  <TORSDO>
F 4

$$$$
=
 OpenBabel10262420563D

 28 32  0  0  1  0  0  0  0  0999 V2000
  184.9210  178.9990  142.2310 C   0  0  1  0  0  3  0  0  0  0  0  0
  190.1270  175.8660  143.7250 C   0  0  1  0  0  3  0  0  0  0  0  0
  185.8240  177.6130  146.8960 O   0  0  0  0  0  1  0  0  0  0  0  0
  190.2410  178.2280  144.2510 C   0  0  2  0  0  3  0  0  0  0  0  0
  187.9180  177.1370  143.8100 C   0  0  2  0  0  3  0  0  0  0  0  0
  191.5940  176.2330  143.8770 C   0  0  1  0  0  3  0  0  0  0  0  0
  189.4200  177.1790  143.5020 C   0  0  2  0  0  3  0  0  0  0  0  0
  188.2800  178.6260  145.8040 C   0  0  0  0  0  2  0  0  0  0  0  0
  191.6700  177.6790  144.2370 C   0  0  2  0  0  3  0  0  0  0  0  0
  185.3730  178.3570  144.6440 C   0  0  2  0  0  3  0  0  0  0  0  0
  187.1860  178.1620  142.9450 C   0  0  0  0  0  2  0  0  0  0  0  0
  189.7870  178.4640  145.7000 C   0  0  0  0  0  2  0  0  0  0  0  0
  183.1810  179.3550  144.0160 C   0  0  0  0  0  2  0  0  0  0  0  0
  186.0950  177.3500  145.5500 C   0  0  1  0  0  3  0  0  0  0  0  0
  183.8680  178.3160  144.8900 C   0  0  0  0  0  2  0  0  0  0  0  0
  191.8360  176.6560  145.1940 O   0  0  0  0  0  0  0  0  0  0  0  0
  189.9540  175.0120  142.5640 N   0  0  0  0  0  1  0  0  0  0  0  0
  187.6110  177.3480  145.3020 C   0  0  1  0  0  3  0  0  0  0  0  0
  183.4250  179.0330  142.5470 C   0  0  0  0  0  2  0  0  0  0  0  0
  185.6810  178.0460  143.1690 C   0  0  2  0  0  3  0  0  0  0  0  0
  185.1440  178.6710  140.7470 C   0  0  0  0  0  2  0  0  0  0  0  0
  183.8900  178.5660  140.0020 N   0  0  0  0  0  0  0  0  0  0  0  0
  184.2190  180.6340  138.9450 O   0  0  0  0  0  0  0  0  0  0  0  0
  183.4880  179.6200  139.1030 C   0  0  0  0  0  0  0  0  0  0  0  0
  182.1850  179.5600  138.3760 C   0  0  0  0  0  2  0  0  0  0  0  0
  181.6150  180.9560  138.2180 C   0  0  0  0  0  1  0  0  0  0  0  0
  182.9460  177.5290  140.4040 C   0  0  0  0  0  2  0  0  0  0  0  0
  182.9770  176.3740  139.4200 C   0  0  0  0  0  1  0  0  0  0  0  0
  1 21  1  6  0  0  0
  1 19  1  0  0  0  0
  1 20  1  0  0  0  0
  2 17  1  6  0  0  0
  2  6  1  0  0  0  0
  4 12  1  1  0  0  0
  5 11  1  6  0  0  0
  5 18  1  0  0  0  0
  6  9  1  0  0  0  0
  6 16  1  1  0  0  0
  7  2  1  0  0  0  0
  7  5  1  0  0  0  0
  7  4  1  0  0  0  0
  9  4  1  0  0  0  0
  9 16  1  0  0  0  0
 10 15  1  0  0  0  0
 10 14  1  0  0  0  0
 11 20  1  0  0  0  0
 12  8  1  0  0  0  0
 13 15  1  0  0  0  0
 14  3  1  0  0  0  0
 18 14  1  0  0  0  0
 18  8  1  0  0  0  0
 19 13  1  0  0  0  0
 20 10  1  0  0  0  0
 22 27  1  0  0  0  0
 22 21  1  0  0  0  0
 23 24  2  0  0  0  0
 24 22  1  0  0  0  0
 25 24  1  0  0  0  0
 26 25  1  0  0  0  0
 28 27  1  0  0  0  0
M  END
>  <MODEL>
3

>  <REMARK>
 VINA RESULT:      -7.2      4.048      7.333
  Name = 
  4 active torsions:
  status: ('A' for Active; 'I' for Inactive)
    1  A    between atoms: C_1  and  C_2
    2  A    between atoms: C_2  and  N_3
    3  A    between atoms: N_3  and  C_7
    4  A    between atoms: C_6  and  C_11
                            x       y       z     vdW  Elec       q    Type
                         _______ _______ _______ _____ _____    ______ ____

>  <TORSDO>
F 4

$$$$
=
 OpenBabel10262420563D

 28 32  0  0  1  0  0  0  0  0999 V2000
  189.1780  177.5340  140.6570 C   0  0  1  0  0  3  0  0  0  0  0  0
  193.3100  175.6360  136.3590 C   0  0  1  0  0  3  0  0  0  0  0  0
  187.8810  177.0270  135.9070 O   0  0  0  0  0  1  0  0  0  0  0  0
  191.8210  173.8760  137.1050 C   0  0  2  0  0  3  0  0  0  0  0  0
  191.1860  176.3590  137.5700 C   0  0  2  0  0  3  0  0  0  0  0  0
  193.9550  174.3050  136.0050 C   0  0  1  0  0  3  0  0  0  0  0  0
  192.2840  175.3000  137.4120 C   0  0  2  0  0  3  0  0  0  0  0  0
  189.4990  174.7600  136.6090 C   0  0  0  0  0  2  0  0  0  0  0  0
  193.0250  173.2180  136.4280 C   0  0  2  0  0  3  0  0  0  0  0  0
  188.4570  177.2330  138.2420 C   0  0  2  0  0  3  0  0  0  0  0  0
  190.6580  176.3430  139.0030 C   0  0  0  0  0  2  0  0  0  0  0  0
  190.5960  173.8010  136.1790 C   0  0  0  0  0  2  0  0  0  0  0  0
  186.8880  178.2480  139.8860 C   0  0  0  0  0  2  0  0  0  0  0  0
  188.9470  177.2360  136.7870 C   0  0  1  0  0  3  0  0  0  0  0  0
  187.3910  178.3030  138.4510 C   0  0  0  0  0  2  0  0  0  0  0  0
  193.1430  173.6240  135.0820 O   0  0  0  0  0  0  0  0  0  0  0  0
  194.3090  176.5300  136.9150 N   0  0  0  0  0  1  0  0  0  0  0  0
  190.0440  176.1860  136.5550 C   0  0  1  0  0  3  0  0  0  0  0  0
  188.0370  178.5370  140.8450 C   0  0  0  0  0  2  0  0  0  0  0  0
  189.6440  177.4680  139.1920 C   0  0  2  0  0  3  0  0  0  0  0  0
  190.3250  177.8440  141.6300 C   0  0  0  0  0  2  0  0  0  0  0  0
  190.0560  177.3610  142.9840 N   0  0  0  0  0  0  0  0  0  0  0  0
  191.5050  178.9320  143.9490 O   0  0  0  0  0  0  0  0  0  0  0  0
  190.7070  177.9720  144.1160 C   0  0  0  0  0  0  0  0  0  0  0  0
  190.4910  177.4580  145.5020 C   0  0  0  0  0  2  0  0  0  0  0  0
  191.6620  176.5930  145.9230 C   0  0  0  0  0  1  0  0  0  0  0  0
  189.3520  176.0910  143.1250 C   0  0  0  0  0  2  0  0  0  0  0  0
  187.9240  176.3240  143.5840 C   0  0  0  0  0  1  0  0  0  0  0  0
  1 19  1  0  0  0  0
  1 21  1  1  0  0  0
  2 17  1  1  0  0  0
  2  7  1  0  0  0  0
  3 14  1  0  0  0  0
  4 12  1  6  0  0  0
  4  7  1  0  0  0  0
  5 11  1  1  0  0  0
  6 16  1  6  0  0  0
  6  2  1  0  0  0  0
  6  9  1  0  0  0  0
  7  5  1  0  0  0  0
  9  4  1  0  0  0  0
 10 15  1  0  0  0  0
 10 20  1  0  0  0  0
 11 20  1  0  0  0  0
 12  8  1  0  0  0  0
 13 19  1  0  0  0  0
 14 10  1  0  0  0  0
 15 13  1  0  0  0  0
 16  9  1  0  0  0  0
 18  8  1  0  0  0  0
 18 14  1  0  0  0  0
 18  5  1  0  0  0  0
 20  1  1  0  0  0  0
 21 22  1  0  0  0  0
 22 27  1  0  0  0  0
 22 24  1  0  0  0  0
 23 24  2  0  0  0  0
 24 25  1  0  0  0  0
 25 26  1  0  0  0  0
 27 28  1  0  0  0  0
M  END
>  <MODEL>
4

>  <REMARK>
 VINA RESULT:      -7.1      1.992      2.969
  Name = 
  4 active torsions:
  status: ('A' for Active; 'I' for Inactive)
    1  A    between atoms: C_1  and  C_2
    2  A    between atoms: C_2  and  N_3
    3  A    between atoms: N_3  and  C_7
    4  A    between atoms: C_6  and  C_11
                            x       y       z     vdW  Elec       q    Type
                         _______ _______ _______ _____ _____    ______ ____

>  <TORSDO>
F 4

$$$$
=
 OpenBabel10262420563D

 28 32  0  0  1  0  0  0  0  0999 V2000
  187.1800  176.8070  144.0300 C   0  0  1  0  0  3  0  0  0  0  0  0
  183.7800  179.4810  139.5100 C   0  0  1  0  0  3  0  0  0  0  0  0
  183.6680  180.1290  145.0940 O   0  0  0  0  0  1  0  0  0  0  0  0
  182.6240  177.6800  140.6450 C   0  0  2  0  0  3  0  0  0  0  0  0
  184.7220  178.7440  141.7610 C   0  0  2  0  0  3  0  0  0  0  0  0
  182.6420  179.0250  138.6100 C   0  0  1  0  0  3  0  0  0  0  0  0
  183.9910  178.3420  140.4750 C   0  0  2  0  0  3  0  0  0  0  0  0
  182.6150  178.3710  143.0820 C   0  0  0  0  0  2  0  0  0  0  0  0
  181.9040  177.9410  139.3200 C   0  0  2  0  0  3  0  0  0  0  0  0
  185.3500  178.4630  144.6230 C   0  0  2  0  0  3  0  0  0  0  0  0
  185.4970  177.5470  142.3090 C   0  0  0  0  0  2  0  0  0  0  0  0
  181.7940  178.2430  141.8100 C   0  0  0  0  0  2  0  0  0  0  0  0
  186.8770  177.6150  146.3970 C   0  0  0  0  0  2  0  0  0  0  0  0
  184.5470  179.6660  144.1100 C   0  0  1  0  0  3  0  0  0  0  0  0
  186.1280  178.8350  145.8820 C   0  0  0  0  0  2  0  0  0  0  0  0
  181.4160  179.2630  139.2520 O   0  0  0  0  0  0  0  0  0  0  0  0
  184.9800  179.6820  138.7170 N   0  0  0  0  0  1  0  0  0  0  0  0
  183.7770  179.3280  142.8240 C   0  0  1  0  0  3  0  0  0  0  0  0
  187.8790  177.1470  145.3480 C   0  0  0  0  0  2  0  0  0  0  0  0
  186.3120  177.9730  143.5270 C   0  0  2  0  0  3  0  0  0  0  0  0
  188.2070  176.3390  142.9880 C   0  0  0  0  0  2  0  0  0  0  0  0
  189.2450  177.3390  142.7370 N   0  0  0  0  0  0  0  0  0  0  0  0
  190.7410  176.3160  144.2240 O   0  0  0  0  0  0  0  0  0  0  0  0
  190.5130  177.2550  143.4170 C   0  0  0  0  0  0  0  0  0  0  0  0
  191.5660  178.2970  143.2190 C   0  0  0  0  0  2  0  0  0  0  0  0
  191.5070  179.3130  144.3420 C   0  0  0  0  0  1  0  0  0  0  0  0
  188.8620  178.5500  142.0190 C   0  0  0  0  0  2  0  0  0  0  0  0
  188.6720  178.2530  140.5430 C   0  0  0  0  0  1  0  0  0  0  0  0
  1 21  1  6  0  0  0
  1 19  1  0  0  0  0
  2 17  1  6  0  0  0
  2  7  1  0  0  0  0
  4 12  1  1  0  0  0
  5 11  1  1  0  0  0
  5 18  1  0  0  0  0
  6 16  1  1  0  0  0
  6  9  1  0  0  0  0
  6  2  1  0  0  0  0
  7  4  1  0  0  0  0
  7  5  1  0  0  0  0
  9  4  1  0  0  0  0
 10 15  1  0  0  0  0
 11 20  1  0  0  0  0
 12  8  1  0  0  0  0
 14 10  1  0  0  0  0
 14  3  1  0  0  0  0
 15 13  1  0  0  0  0
 16  9  1  0  0  0  0
 18  8  1  0  0  0  0
 18 14  1  0  0  0  0
 19 13  1  0  0  0  0
 20  1  1  0  0  0  0
 20 10  1  0  0  0  0
 22 21  1  0  0  0  0
 22 24  1  0  0  0  0
 24 23  2  0  0  0  0
 25 24  1  0  0  0  0
 25 26  1  0  0  0  0
 27 22  1  0  0  0  0
 28 27  1  0  0  0  0
M  END
>  <MODEL>
5

>  <REMARK>
 VINA RESULT:      -7.1      3.533      6.710
  Name = 
  4 active torsions:
  status: ('A' for Active; 'I' for Inactive)
    1  A    between atoms: C_1  and  C_2
    2  A    between atoms: C_2  and  N_3
    3  A    between atoms: N_3  and  C_7
    4  A    between atoms: C_6  and  C_11
                            x       y       z     vdW  Elec       q    Type
                         _______ _______ _______ _____ _____    ______ ____

>  <TORSDO>
F 4

$$$$
=
 OpenBabel10262420563D

 28 32  0  0  1  0  0  0  0  0999 V2000
  184.5070  178.5080  142.0880 C   0  0  1  0  0  3  0  0  0  0  0  0
  187.8970  178.6500  136.8310 C   0  0  1  0  0  3  0  0  0  0  0  0
  182.3530  178.1800  137.6440 O   0  0  0  0  0  1  0  0  0  0  0  0
  187.2250  176.4150  137.4820 C   0  0  2  0  0  3  0  0  0  0  0  0
  185.9980  178.4630  138.5210 C   0  0  2  0  0  3  0  0  0  0  0  0
  188.8120  177.6670  136.1170 C   0  0  1  0  0  3  0  0  0  0  0  0
  187.2960  177.8620  137.9680 C   0  0  2  0  0  3  0  0  0  0  0  0
  184.6970  176.5210  137.5940 C   0  0  0  0  0  2  0  0  0  0  0  0
  188.3790  176.2880  136.4860 C   0  0  2  0  0  3  0  0  0  0  0  0
  183.3680  178.2800  139.8310 C   0  0  2  0  0  3  0  0  0  0  0  0
  185.8480  178.0960  139.9970 C   0  0  0  0  0  2  0  0  0  0  0  0
  185.9000  176.0460  136.7970 C   0  0  0  0  0  2  0  0  0  0  0  0
  181.9950  178.5000  141.8960 C   0  0  0  0  0  2  0  0  0  0  0  0
  183.4800  178.6260  138.3400 C   0  0  1  0  0  3  0  0  0  0  0  0
  182.1080  178.8960  140.4310 C   0  0  0  0  0  2  0  0  0  0  0  0
  188.0520  176.8720  135.2440 O   0  0  0  0  0  0  0  0  0  0  0  0
  188.6800  179.7530  137.3580 N   0  0  0  0  0  1  0  0  0  0  0  0
  184.7570  178.0430  137.7160 C   0  0  1  0  0  3  0  0  0  0  0  0
  183.1940  179.0380  142.6680 C   0  0  0  0  0  2  0  0  0  0  0  0
  184.6160  178.7820  140.5780 C   0  0  2  0  0  3  0  0  0  0  0  0
  185.7010  179.0640  142.8790 C   0  0  0  0  0  2  0  0  0  0  0  0
  186.2520  178.0880  143.8200 N   0  0  0  0  0  0  0  0  0  0  0  0
  185.4010  179.2390  145.6770 O   0  0  0  0  0  0  0  0  0  0  0  0
  186.0560  178.2560  145.2380 C   0  0  0  0  0  0  0  0  0  0  0  0
  186.6570  177.3050  146.2200 C   0  0  0  0  0  2  0  0  0  0  0  0
  187.9470  177.8780  146.7730 C   0  0  0  0  0  1  0  0  0  0  0  0
  187.2230  177.1270  143.3100 C   0  0  0  0  0  2  0  0  0  0  0  0
  188.4300  177.8470  142.7370 C   0  0  0  0  0  1  0  0  0  0  0  0
  1 19  1  0  0  0  0
  1 21  1  1  0  0  0
  2 17  1  1  0  0  0
  2  7  1  0  0  0  0
  3 14  1  0  0  0  0
  4 12  1  6  0  0  0
  4  7  1  0  0  0  0
  5 11  1  1  0  0  0
  6 16  1  6  0  0  0
  6  9  1  0  0  0  0
  6  2  1  0  0  0  0
  7  5  1  0  0  0  0
  8 18  1  0  0  0  0
  9  4  1  0  0  0  0
 10 15  1  0  0  0  0
 10 20  1  0  0  0  0
 11 20  1  0  0  0  0
 12  8  1  0  0  0  0
 13 19  1  0  0  0  0
 14 10  1  0  0  0  0
 15 13  1  0  0  0  0
 16  9  1  0  0  0  0
 18 14  1  0  0  0  0
 18  5  1  0  0  0  0
 20  1  1  0  0  0  0
 21 22  1  0  0  0  0
 22 24  1  0  0  0  0
 24 23  2  0  0  0  0
 24 25  1  0  0  0  0
 25 26  1  0  0  0  0
 27 22  1  0  0  0  0
 28 27  1  0  0  0  0
M  END
>  <MODEL>
6

>  <REMARK>
 VINA RESULT:      -7.1      3.369      4.525
  Name = 
  4 active torsions:
  status: ('A' for Active; 'I' for Inactive)
    1  A    between atoms: C_1  and  C_2
    2  A    between atoms: C_2  and  N_3
    3  A    between atoms: N_3  and  C_7
    4  A    between atoms: C_6  and  C_11
                            x       y       z     vdW  Elec       q    Type
                         _______ _______ _______ _____ _____    ______ ____

>  <TORSDO>
F 4

$$$$
=
 OpenBabel10262420563D

 28 32  0  0  1  0  0  0  0  0999 V2000
  184.2850  178.5440  141.7620 C   0  0  1  0  0  3  0  0  0  0  0  0
  188.0320  178.5450  136.7510 C   0  0  1  0  0  3  0  0  0  0  0  0
  182.5000  177.6590  137.2300 O   0  0  0  0  0  1  0  0  0  0  0  0
  187.4990  176.3220  137.5530 C   0  0  2  0  0  3  0  0  0  0  0  0
  186.0350  178.3330  138.3210 C   0  0  2  0  0  3  0  0  0  0  0  0
  189.0750  177.5910  136.1910 C   0  0  1  0  0  3  0  0  0  0  0  0
  187.4150  177.8050  137.9110 C   0  0  2  0  0  3  0  0  0  0  0  0
  184.9700  176.2140  137.4850 C   0  0  0  0  0  2  0  0  0  0  0  0
  188.7310  176.2140  136.6510 C   0  0  2  0  0  3  0  0  0  0  0  0
  183.3390  178.0290  139.4630 C   0  0  2  0  0  3  0  0  0  0  0  0
  185.8070  178.0780  139.8100 C   0  0  0  0  0  2  0  0  0  0  0  0
  186.2640  175.7820  136.8160 C   0  0  0  0  0  2  0  0  0  0  0  0
  181.8040  178.2990  141.4040 C   0  0  0  0  0  2  0  0  0  0  0  0
  183.5330  178.2580  137.9580 C   0  0  1  0  0  3  0  0  0  0  0  0
  181.9920  178.5800  139.9210 C   0  0  0  0  0  2  0  0  0  0  0  0
  188.4500  176.6620  135.3430 O   0  0  0  0  0  0  0  0  0  0  0  0
  188.6810  179.7530  137.2290 N   0  0  0  0  0  1  0  0  0  0  0  0
  184.8960  177.7400  137.4750 C   0  0  1  0  0  3  0  0  0  0  0  0
  182.8940  179.0030  142.2030 C   0  0  0  0  0  2  0  0  0  0  0  0
  184.4830  178.7000  140.2440 C   0  0  2  0  0  3  0  0  0  0  0  0
  185.3670  179.2660  142.5770 C   0  0  0  0  0  2  0  0  0  0  0  0
  185.9690  178.4050  143.5960 N   0  0  0  0  0  0  0  0  0  0  0  0
  187.8170  177.9100  142.2400 O   0  0  0  0  0  0  0  0  0  0  0  0
  187.2240  177.7440  143.3390 C   0  0  0  0  0  0  0  0  0  0  0  0
  187.8280  176.8150  144.3410 C   0  0  0  0  0  2  0  0  0  0  0  0
  188.8370  177.5590  145.1940 C   0  0  0  0  0  1  0  0  0  0  0  0
  185.1410  178.0170  144.7320 C   0  0  0  0  0  2  0  0  0  0  0  0
  185.3120  179.0030  145.8730 C   0  0  0  0  0  1  0  0  0  0  0  0
  1 19  1  0  0  0  0
  1 21  1  1  0  0  0
  2 17  1  1  0  0  0
  2  7  1  0  0  0  0
  3 14  1  0  0  0  0
  4 12  1  6  0  0  0
  4  7  1  0  0  0  0
  5 11  1  1  0  0  0
  6 16  1  6  0  0  0
  6  9  1  0  0  0  0
  6  2  1  0  0  0  0
  7  5  1  0  0  0  0
  9  4  1  0  0  0  0
 10 15  1  0  0  0  0
 10 20  1  0  0  0  0
 11 20  1  0  0  0  0
 12  8  1  0  0  0  0
 13 19  1  0  0  0  0
 14 10  1  0  0  0  0
 15 13  1  0  0  0  0
 16  9  1  0  0  0  0
 18  8  1  0  0  0  0
 18 14  1  0  0  0  0
 18  5  1  0  0  0  0
 20  1  1  0  0  0  0
 21 22  1  0  0  0  0
 22 27  1  0  0  0  0
 23 24  2  0  0  0  0
 24 22  1  0  0  0  0
 24 25  1  0  0  0  0
 25 26  1  0  0  0  0
 27 28  1  0  0  0  0
M  END
>  <MODEL>
7

>  <REMARK>
 VINA RESULT:      -6.8      3.440      4.785
  Name = 
  4 active torsions:
  status: ('A' for Active; 'I' for Inactive)
    1  A    between atoms: C_1  and  C_2
    2  A    between atoms: C_2  and  N_3
    3  A    between atoms: N_3  and  C_7
    4  A    between atoms: C_6  and  C_11
                            x       y       z     vdW  Elec       q    Type
                         _______ _______ _______ _____ _____    ______ ____

>  <TORSDO>
F 4

$$$$
=
 OpenBabel10262420563D

 28 32  0  0  1  0  0  0  0  0999 V2000
  186.3900  178.2890  142.8020 C   0  0  1  0  0  3  0  0  0  0  0  0
  180.9630  177.4140  139.8130 C   0  0  1  0  0  3  0  0  0  0  0  0
  186.0570  178.8220  137.8920 O   0  0  0  0  0  1  0  0  0  0  0  0
  181.4960  179.7500  140.1750 C   0  0  2  0  0  3  0  0  0  0  0  0
  183.3830  177.9690  140.3930 C   0  0  2  0  0  3  0  0  0  0  0  0
  179.6730  178.2070  139.6760 C   0  0  1  0  0  3  0  0  0  0  0  0
  181.9010  178.3280  140.5610 C   0  0  2  0  0  3  0  0  0  0  0  0
  183.7450  180.0670  139.0560 C   0  0  0  0  0  2  0  0  0  0  0  0
  180.0010  179.6510  139.8620 C   0  0  2  0  0  3  0  0  0  0  0  0
  186.2490  178.6280  140.2900 C   0  0  2  0  0  3  0  0  0  0  0  0
  184.1620  178.4050  141.6330 C   0  0  0  0  0  2  0  0  0  0  0  0
  182.2490  180.3100  138.9580 C   0  0  0  0  0  2  0  0  0  0  0  0
  188.4610  178.7070  141.4310 C   0  0  0  0  0  2  0  0  0  0  0  0
  185.4920  178.2190  139.0200 C   0  0  1  0  0  3  0  0  0  0  0  0
  187.7230  178.2490  140.1810 C   0  0  0  0  0  2  0  0  0  0  0  0
  179.7800  179.0880  138.5870 O   0  0  0  0  0  0  0  0  0  0  0  0
  180.7190  176.2150  140.5930 N   0  0  0  0  0  1  0  0  0  0  0  0
  183.9970  178.5620  139.1150 C   0  0  1  0  0  3  0  0  0  0  0  0
  187.8850  178.0040  142.6540 C   0  0  0  0  0  2  0  0  0  0  0  0
  185.6140  177.9510  141.5170 C   0  0  2  0  0  3  0  0  0  0  0  0
  185.8300  177.5710  144.0380 C   0  0  0  0  0  2  0  0  0  0  0  0
  186.0370  178.3320  145.2700 N   0  0  0  0  0  0  0  0  0  0  0  0
  187.6630  176.8340  146.0510 O   0  0  0  0  0  0  0  0  0  0  0  0
  186.9930  177.8820  146.2510 C   0  0  0  0  0  0  0  0  0  0  0  0
  187.1790  178.6120  147.5410 C   0  0  0  0  0  2  0  0  0  0  0  0
  188.1820  177.8800  148.4100 C   0  0  0  0  0  1  0  0  0  0  0  0
  185.0670  179.3720  145.5970 C   0  0  0  0  0  2  0  0  0  0  0  0
  183.6880  178.9880  145.0920 C   0  0  0  0  0  1  0  0  0  0  0  0
  1 21  1  1  0  0  0
  2  7  1  0  0  0  0
  2 17  1  1  0  0  0
  3 14  1  0  0  0  0
  4 12  1  6  0  0  0
  4  7  1  0  0  0  0
  5  7  1  0  0  0  0
  5 11  1  1  0  0  0
  6 16  1  6  0  0  0
  6  2  1  0  0  0  0
  6  9  1  0  0  0  0
  8 18  1  0  0  0  0
  9  4  1  0  0  0  0
 10 20  1  0  0  0  0
 12  8  1  0  0  0  0
 13 19  1  0  0  0  0
 14 18  1  0  0  0  0
 14 10  1  0  0  0  0
 15 10  1  0  0  0  0
 15 13  1  0  0  0  0
 16  9  1  0  0  0  0
 18  5  1  0  0  0  0
 19  1  1  0  0  0  0
 20 11  1  0  0  0  0
 20  1  1  0  0  0  0
 21 22  1  0  0  0  0
 22 27  1  0  0  0  0
 22 24  1  0  0  0  0
 23 24  2  0  0  0  0
 24 25  1  0  0  0  0
 25 26  1  0  0  0  0
 28 27  1  0  0  0  0
M  END
>  <MODEL>
8

>  <REMARK>
 VINA RESULT:      -6.8      4.301      7.353
  Name = 
  4 active torsions:
  status: ('A' for Active; 'I' for Inactive)
    1  A    between atoms: C_1  and  C_2
    2  A    between atoms: C_2  and  N_3
    3  A    between atoms: N_3  and  C_7
    4  A    between atoms: C_6  and  C_11
                            x       y       z     vdW  Elec       q    Type
                         _______ _______ _______ _____ _____    ______ ____

>  <TORSDO>
F 4

$$$$
=
 OpenBabel10262420563D

 28 32  0  0  1  0  0  0  0  0999 V2000
  186.5810  177.8940  144.2060 C   0  0  1  0  0  3  0  0  0  0  0  0
  183.4260  179.6760  139.1050 C   0  0  1  0  0  3  0  0  0  0  0  0
  181.7780  179.0650  144.4470 O   0  0  0  0  0  1  0  0  0  0  0  0
  183.0410  177.3630  139.7150 C   0  0  2  0  0  3  0  0  0  0  0  0
  184.0750  178.9840  141.4710 C   0  0  2  0  0  3  0  0  0  0  0  0
  182.8730  178.9630  137.8810 C   0  0  1  0  0  3  0  0  0  0  0  0
  183.9300  178.5730  140.0010 C   0  0  2  0  0  3  0  0  0  0  0  0
  182.1630  177.4720  142.0880 C   0  0  0  0  0  2  0  0  0  0  0  0
  182.6000  177.5460  138.2610 C   0  0  2  0  0  3  0  0  0  0  0  0
  184.1050  178.4310  144.3620 C   0  0  2  0  0  3  0  0  0  0  0  0
  185.1800  178.1600  142.1300 C   0  0  0  0  0  2  0  0  0  0  0  0
  181.8080  177.2600  140.6260 C   0  0  0  0  0  2  0  0  0  0  0  0
  185.4130  177.9930  146.4350 C   0  0  0  0  0  2  0  0  0  0  0  0
  182.9650  179.2410  143.7300 C   0  0  1  0  0  3  0  0  0  0  0  0
  184.3110  178.8410  145.8170 C   0  0  0  0  0  2  0  0  0  0  0  0
  181.5730  178.5070  138.1540 O   0  0  0  0  0  0  0  0  0  0  0  0
  184.5290  180.5340  138.7140 N   0  0  0  0  0  1  0  0  0  0  0  0
  182.7560  178.8690  142.2540 C   0  0  1  0  0  3  0  0  0  0  0  0
  186.7210  178.2300  145.6920 C   0  0  0  0  0  2  0  0  0  0  0  0
  185.4020  178.6420  143.5610 C   0  0  2  0  0  3  0  0  0  0  0  0
  187.9100  178.1420  143.4760 C   0  0  0  0  0  2  0  0  0  0  0  0
  188.9420  177.1740  143.8490 N   0  0  0  0  0  0  0  0  0  0  0  0
  189.8990  178.6350  145.4130 O   0  0  0  0  0  0  0  0  0  0  0  0
  189.9260  177.5100  144.8470 C   0  0  0  0  0  0  0  0  0  0  0  0
  191.0220  176.5590  145.2020 C   0  0  0  0  0  2  0  0  0  0  0  0
  191.3170  176.6380  146.6870 C   0  0  0  0  0  1  0  0  0  0  0  0
  189.1140  176.0040  142.9960 C   0  0  0  0  0  2  0  0  0  0  0  0
  189.8820  176.3710  141.7400 C   0  0  0  0  0  1  0  0  0  0  0  0
  1 21  1  6  0  0  0
  1 19  1  0  0  0  0
  2 17  1  6  0  0  0
  2  7  1  0  0  0  0
  4  7  1  0  0  0  0
  4 12  1  1  0  0  0
  5 11  1  1  0  0  0
  5 18  1  0  0  0  0
  6 16  1  1  0  0  0
  6  9  1  0  0  0  0
  6  2  1  0  0  0  0
  7  5  1  0  0  0  0
  8 18  1  0  0  0  0
  9  4  1  0  0  0  0
 10 15  1  0  0  0  0
 11 20  1  0  0  0  0
 12  8  1  0  0  0  0
 14 10  1  0  0  0  0
 14  3  1  0  0  0  0
 15 13  1  0  0  0  0
 16  9  1  0  0  0  0
 18 14  1  0  0  0  0
 19 13  1  0  0  0  0
 20  1  1  0  0  0  0
 20 10  1  0  0  0  0
 21 22  1  0  0  0  0
 22 24  1  0  0  0  0
 24 25  1  0  0  0  0
 24 23  2  0  0  0  0
 25 26  1  0  0  0  0
 27 22  1  0  0  0  0
 28 27  1  0  0  0  0
M  END
>  <MODEL>
9

>  <REMARK>
 VINA RESULT:      -6.8      3.905      6.637
  Name = 
  4 active torsions:
  status: ('A' for Active; 'I' for Inactive)
    1  A    between atoms: C_1  and  C_2
    2  A    between atoms: C_2  and  N_3
    3  A    between atoms: N_3  and  C_7
    4  A    between atoms: C_6  and  C_11
                            x       y       z     vdW  Elec       q    Type
                         _______ _______ _______ _____ _____    ______ ____

>  <TORSDO>
F 4

$$$$
