=
 OpenBabel10262419433D

 25 29  0  0  1  0  0  0  0  0999 V2000
  186.7810  177.7250  144.6200 C   0  0  0  0  0  0  0  0  0  0  0  0
  188.1470  177.3620  144.1540 C   0  0  0  0  0  0  0  0  0  0  0  0
  187.6370  177.7100  146.9720 C   0  0  0  0  0  3  0  0  0  0  0  0
  185.8210  178.2270  143.8280 C   0  0  0  0  0  0  0  0  0  0  0  0
  183.8390  179.2190  143.3860 C   0  0  0  0  0  3  0  0  0  0  0  0
  188.8810  177.6000  146.4950 C   0  0  0  0  0  3  0  0  0  0  0  0
  184.2920  178.7000  145.7900 C   0  0  0  0  0  3  0  0  0  0  0  0
  184.5630  178.6880  144.3520 C   0  0  2  0  0  3  0  0  0  0  0  0
  190.5600  176.9210  144.6440 C   0  0  2  0  0  3  0  0  0  0  0  0
  191.6190  177.7050  145.4000 C   0  0  0  0  0  1  0  0  0  0  0  0
  188.4150  177.0970  142.6930 C   0  0  0  0  0  2  0  0  0  0  0  0
  184.6290  179.0950  142.1480 C   0  0  0  0  0  3  0  0  0  0  0  0
  186.4520  177.4700  146.0870 C   0  0  0  0  0  0  0  0  0  0  0  0
  185.2040  178.1590  146.6090 C   0  0  0  0  0  3  0  0  0  0  0  0
  190.7810  177.0960  143.2090 N   0  0  0  0  0  2  0  0  0  0  0  0
  185.8070  178.5240  142.4030 C   0  0  0  0  0  3  0  0  0  0  0  0
  189.7380  176.3750  142.4910 C   0  0  2  0  0  3  0  0  0  0  0  0
  189.1560  177.3320  145.0590 C   0  0  0  0  0  0  0  0  0  0  0  0
  190.0660  176.3260  141.0080 C   0  0  0  0  0  2  0  0  0  0  0  0
  189.4400  177.4430  140.3130 N   0  0  0  0  0  2  0  0  0  0  0  0
  189.7320  177.7670  138.9500 C   0  0  0  0  0  0  0  0  0  0  0  0
  190.5080  177.0380  138.2750 O   0  0  0  0  0  0  0  0  0  0  0  0
  189.0780  178.9490  138.3140 C   0  0  2  0  0  3  0  0  0  0  0  0
  187.7330  178.5760  137.8470 N   0  0  0  0  0  2  0  0  0  0  0  0
  188.8450  178.6930  136.8950 C   0  0  0  0  0  2  0  0  0  0  0  0
  1 13  1  0  0  0  0
  2  1  2  0  0  0  0
  2 18  1  0  0  0  0
  4  8  1  0  0  0  0
  4  1  1  0  0  0  0
  6  3  1  0  0  0  0
  7 14  2  0  0  0  0
  8  5  1  1  0  0  0
  8  7  1  0  0  0  0
  9 18  1  0  0  0  0
  9 10  1  1  0  0  0
 11  2  1  0  0  0  0
 12 16  1  0  0  0  0
 12  5  2  0  0  0  0
 13 14  1  0  0  0  0
 13  3  2  0  0  0  0
 15  9  1  0  0  0  0
 16  4  2  0  0  0  0
 17 19  1  6  0  0  0
 17 11  1  0  0  0  0
 17 15  1  0  0  0  0
 18  6  2  0  0  0  0
 20 19  1  0  0  0  0
 21 20  1  0  0  0  0
 22 21  2  0  0  0  0
 23 21  1  1  0  0  0
 24 23  1  0  0  0  0
 25 24  1  0  0  0  0
 25 23  1  0  0  0  0
M  END
>  <MODEL>
1

>  <REMARK>
 VINA RESULT:     -10.2      0.000      0.000
  Name = 
  3 active torsions:
  status: ('A' for Active; 'I' for Inactive)
    1  A    between atoms: C_2  and  C_21
    2  A    between atoms: C_6  and  N_15
    3  A    between atoms: C_6  and  C_23
                            x       y       z     vdW  Elec       q    Type
                         _______ _______ _______ _____ _____    ______ ____

>  <TORSDO>
F 3

$$$$
=
 OpenBabel10262419433D

 25 29  0  0  1  0  0  0  0  0999 V2000
  186.8620  177.8380  144.5210 C   0  0  0  0  0  0  0  0  0  0  0  0
  188.1340  177.6470  143.7730 C   0  0  0  0  0  0  0  0  0  0  0  0
  188.1800  177.8500  146.6490 C   0  0  0  0  0  3  0  0  0  0  0  0
  185.7120  178.2510  143.9660 C   0  0  0  0  0  0  0  0  0  0  0  0
  183.5890  179.0250  143.9830 C   0  0  0  0  0  3  0  0  0  0  0  0
  189.3040  177.8960  145.9270 C   0  0  0  0  0  3  0  0  0  0  0  0
  184.5790  178.4890  146.2170 C   0  0  0  0  0  3  0  0  0  0  0  0
  184.5480  178.5510  144.7560 C   0  0  0  0  0  0  0  0  0  0  0  0
  190.6280  177.4680  143.7440 C   0  0  2  0  0  3  0  0  0  0  0  0
  191.7320  178.3450  144.3120 C   0  0  0  0  0  1  0  0  0  0  0  0
  188.1220  177.4580  142.2760 C   0  0  0  0  0  2  0  0  0  0  0  0
  184.1160  179.0280  142.6070 C   0  0  0  0  0  3  0  0  0  0  0  0
  186.8700  177.5030  146.0090 C   0  0  1  0  0  3  0  0  0  0  0  0
  185.6910  178.0310  146.8070 C   0  0  0  0  0  3  0  0  0  0  0  0
  190.5310  177.7100  142.3050 N   0  0  0  0  0  2  0  0  0  0  0  0
  185.3760  178.5880  142.5910 C   0  0  0  0  0  3  0  0  0  0  0  0
  189.4440  176.8970  141.7740 C   0  0  2  0  0  3  0  0  0  0  0  0
  189.3040  177.7040  144.4540 C   0  0  0  0  0  0  0  0  0  0  0  0
  189.4630  176.9300  140.2560 C   0  0  0  0  0  2  0  0  0  0  0  0
  190.6500  176.2540  139.7480 N   0  0  0  0  0  2  0  0  0  0  0  0
  191.0930  176.3850  138.3940 C   0  0  0  0  0  0  0  0  0  0  0  0
  190.4950  177.1590  137.5990 O   0  0  0  0  0  0  0  0  0  0  0  0
  192.2990  175.6330  137.9350 C   0  0  2  0  0  3  0  0  0  0  0  0
  193.4860  176.4980  138.0310 N   0  0  0  0  0  2  0  0  0  0  0  0
  192.8500  176.2490  136.7310 C   0  0  0  0  0  2  0  0  0  0  0  0
  1 13  1  0  0  0  0
  2 18  2  0  0  0  0
  2  1  1  0  0  0  0
  4  1  2  0  0  0  0
  4  8  1  0  0  0  0
  5  8  2  0  0  0  0
  6  3  2  0  0  0  0
  7 14  2  0  0  0  0
  8  7  1  0  0  0  0
  9 10  1  1  0  0  0
  9 18  1  0  0  0  0
 11  2  1  0  0  0  0
 12  5  1  0  0  0  0
 13  3  1  1  0  0  0
 13 14  1  0  0  0  0
 15  9  1  0  0  0  0
 16 12  2  0  0  0  0
 16  4  1  0  0  0  0
 17 19  1  6  0  0  0
 17 11  1  0  0  0  0
 17 15  1  0  0  0  0
 18  6  1  0  0  0  0
 20 19  1  0  0  0  0
 21 20  1  0  0  0  0
 22 21  2  0  0  0  0
 23 24  1  0  0  0  0
 23 21  1  1  0  0  0
 25 23  1  0  0  0  0
 25 24  1  0  0  0  0
M  END
>  <MODEL>
2

>  <REMARK>
 VINA RESULT:     -10.1      1.671      1.992
  Name = 
  3 active torsions:
  status: ('A' for Active; 'I' for Inactive)
    1  A    between atoms: C_2  and  C_21
    2  A    between atoms: C_6  and  N_15
    3  A    between atoms: C_6  and  C_23
                            x       y       z     vdW  Elec       q    Type
                         _______ _______ _______ _____ _____    ______ ____

>  <TORSDO>
F 3

$$$$
=
 OpenBabel10262419433D

 25 29  0  0  1  0  0  0  0  0999 V2000
  186.7630  178.1580  144.8590 C   0  0  0  0  0  0  0  0  0  0  0  0
  185.6540  178.4620  143.9160 C   0  0  0  0  0  0  0  0  0  0  0  0
  185.1900  178.5760  146.7600 C   0  0  0  0  0  3  0  0  0  0  0  0
  187.8920  177.5160  144.5180 C   0  0  0  0  0  0  0  0  0  0  0  0
  189.8330  176.4300  144.9170 C   0  0  0  0  0  3  0  0  0  0  0  0
  184.1810  178.6270  145.8850 C   0  0  0  0  0  3  0  0  0  0  0  0
  188.6580  177.3470  146.9250 C   0  0  0  0  0  3  0  0  0  0  0  0
  188.8730  177.1260  145.4950 C   0  0  0  0  0  0  0  0  0  0  0  0
  183.2520  179.0200  143.5000 C   0  0  2  0  0  3  0  0  0  0  0  0
  181.9510  178.3900  143.9680 C   0  0  0  0  0  1  0  0  0  0  0  0
  185.8980  178.4870  142.4270 C   0  0  0  0  0  2  0  0  0  0  0  0
  189.5020  176.3620  143.4830 C   0  0  0  0  0  3  0  0  0  0  0  0
  186.6130  178.6470  146.2960 C   0  0  1  0  0  3  0  0  0  0  0  0
  187.5690  178.0310  147.3020 C   0  0  0  0  0  3  0  0  0  0  0  0
  183.4990  178.6150  142.1170 N   0  0  0  0  0  2  0  0  0  0  0  0
  188.3480  176.9870  143.2420 C   0  0  0  0  0  3  0  0  0  0  0  0
  184.7680  179.1880  141.6880 C   0  0  2  0  0  3  0  0  0  0  0  0
  184.4100  178.6590  144.4170 C   0  0  0  0  0  0  0  0  0  0  0  0
  184.9470  178.9970  140.1920 C   0  0  0  0  0  2  0  0  0  0  0  0
  186.3230  178.6280  139.8890 N   0  0  0  0  0  2  0  0  0  0  0  0
  186.7510  178.2530  138.5760 C   0  0  0  0  0  0  0  0  0  0  0  0
  185.9460  178.2950  137.6070 O   0  0  0  0  0  0  0  0  0  0  0  0
  188.1710  177.8520  138.3470 C   0  0  2  0  0  3  0  0  0  0  0  0
  189.0550  179.0020  138.6010 N   0  0  0  0  0  2  0  0  0  0  0  0
  188.7320  178.6000  137.2260 C   0  0  0  0  0  2  0  0  0  0  0  0
  1 13  1  0  0  0  0
  2 18  2  0  0  0  0
  2  1  1  0  0  0  0
  4  1  2  0  0  0  0
  4  8  1  0  0  0  0
  5  8  2  0  0  0  0
  6  3  2  0  0  0  0
  7 14  2  0  0  0  0
  8  7  1  0  0  0  0
  9 10  1  1  0  0  0
  9 18  1  0  0  0  0
 11  2  1  0  0  0  0
 12  5  1  0  0  0  0
 13  3  1  1  0  0  0
 13 14  1  0  0  0  0
 15  9  1  0  0  0  0
 16 12  2  0  0  0  0
 16  4  1  0  0  0  0
 17 19  1  6  0  0  0
 17 15  1  0  0  0  0
 17 11  1  0  0  0  0
 18  6  1  0  0  0  0
 20 19  1  0  0  0  0
 21 20  1  0  0  0  0
 22 21  2  0  0  0  0
 23 21  1  1  0  0  0
 23 24  1  0  0  0  0
 25 23  1  0  0  0  0
 25 24  1  0  0  0  0
M  END
>  <MODEL>
3

>  <REMARK>
 VINA RESULT:      -9.9      1.900      4.664
  Name = 
  3 active torsions:
  status: ('A' for Active; 'I' for Inactive)
    1  A    between atoms: C_2  and  C_21
    2  A    between atoms: C_6  and  N_15
    3  A    between atoms: C_6  and  C_23
                            x       y       z     vdW  Elec       q    Type
                         _______ _______ _______ _____ _____    ______ ____

>  <TORSDO>
F 3

$$$$
=
 OpenBabel10262419433D

 25 29  0  0  1  0  0  0  0  0999 V2000
  185.6880  178.4020  144.0260 C   0  0  0  0  0  0  0  0  0  0  0  0
  184.7830  178.5640  142.8560 C   0  0  0  0  0  0  0  0  0  0  0  0
  183.7690  178.9840  145.5230 C   0  0  0  0  0  3  0  0  0  0  0  0
  186.8660  177.7590  143.9870 C   0  0  0  0  0  0  0  0  0  0  0  0
  188.6990  176.7840  144.8790 C   0  0  0  0  0  3  0  0  0  0  0  0
  182.9520  178.9060  144.4690 C   0  0  0  0  0  3  0  0  0  0  0  0
  187.1460  177.8860  146.5000 C   0  0  0  0  0  3  0  0  0  0  0  0
  187.6390  177.5110  145.1750 C   0  0  0  0  0  0  0  0  0  0  0  0
  182.5050  179.0000  141.9200 C   0  0  2  0  0  3  0  0  0  0  0  0
  181.1420  178.3880  142.1970 C   0  0  0  0  0  1  0  0  0  0  0  0
  185.3140  178.4290  141.4500 C   0  0  0  0  0  2  0  0  0  0  0  0
  188.6560  176.5440  143.4250 C   0  0  0  0  0  3  0  0  0  0  0  0
  185.2550  179.0440  145.3390 C   0  0  1  0  0  3  0  0  0  0  0  0
  186.0000  178.5750  146.5770 C   0  0  0  0  0  3  0  0  0  0  0  0
  183.0220  178.4490  140.6680 N   0  0  0  0  0  2  0  0  0  0  0  0
  187.5680  177.1040  142.8940 C   0  0  0  0  0  3  0  0  0  0  0  0
  184.3460  179.0080  140.4300 C   0  0  2  0  0  3  0  0  0  0  0  0
  183.4640  178.7800  143.0800 C   0  0  0  0  0  0  0  0  0  0  0  0
  184.8170  178.6550  139.0300 C   0  0  0  0  0  2  0  0  0  0  0  0
  186.2710  178.5870  138.9850 N   0  0  0  0  0  2  0  0  0  0  0  0
  186.9900  178.1840  137.8160 C   0  0  0  0  0  0  0  0  0  0  0  0
  186.3750  177.9320  136.7440 O   0  0  0  0  0  0  0  0  0  0  0  0
  188.4810  178.1030  137.8550 C   0  0  2  0  0  3  0  0  0  0  0  0
  189.0550  179.3880  137.4240 N   0  0  0  0  0  2  0  0  0  0  0  0
  189.0290  178.2400  136.5090 C   0  0  0  0  0  2  0  0  0  0  0  0
  1 13  1  0  0  0  0
  2 18  2  0  0  0  0
  2  1  1  0  0  0  0
  4  1  2  0  0  0  0
  4  8  1  0  0  0  0
  5  8  2  0  0  0  0
  6  3  2  0  0  0  0
  7 14  2  0  0  0  0
  8  7  1  0  0  0  0
  9 10  1  1  0  0  0
  9 18  1  0  0  0  0
 11  2  1  0  0  0  0
 12  5  1  0  0  0  0
 13  3  1  1  0  0  0
 13 14  1  0  0  0  0
 15  9  1  0  0  0  0
 16 12  2  0  0  0  0
 16  4  1  0  0  0  0
 17 19  1  6  0  0  0
 17 15  1  0  0  0  0
 17 11  1  0  0  0  0
 18  6  1  0  0  0  0
 20 19  1  0  0  0  0
 21 20  1  0  0  0  0
 22 21  2  0  0  0  0
 23 21  1  6  0  0  0
 24 23  1  0  0  0  0
 25 24  1  0  0  0  0
 25 23  1  0  0  0  0
M  END
>  <MODEL>
4

>  <REMARK>
 VINA RESULT:      -9.9      2.151      4.922
  Name = 
  3 active torsions:
  status: ('A' for Active; 'I' for Inactive)
    1  A    between atoms: C_2  and  C_21
    2  A    between atoms: C_6  and  N_15
    3  A    between atoms: C_6  and  C_23
                            x       y       z     vdW  Elec       q    Type
                         _______ _______ _______ _____ _____    ______ ____

>  <TORSDO>
F 3

$$$$
=
 OpenBabel10262419433D

 25 29  0  0  1  0  0  0  0  0999 V2000
  185.9410  178.0790  144.4490 C   0  0  0  0  0  0  0  0  0  0  0  0
  187.3080  177.6930  144.8930 C   0  0  0  0  0  0  0  0  0  0  0  0
  185.3200  178.4350  146.8470 C   0  0  0  0  0  3  0  0  0  0  0  0
  185.6250  178.4300  143.1920 C   0  0  0  0  0  0  0  0  0  0  0  0
  184.2990  179.2860  141.5750 C   0  0  0  0  0  3  0  0  0  0  0  0
  186.6070  178.2940  147.1780 C   0  0  0  0  0  3  0  0  0  0  0  0
  183.2880  179.1390  143.8570 C   0  0  0  0  0  3  0  0  0  0  0  0
  184.3210  178.9250  142.8440 C   0  0  2  0  0  3  0  0  0  0  0  0
  188.9940  177.4010  146.7170 C   0  0  2  0  0  3  0  0  0  0  0  0
  189.4870  178.3200  147.8230 C   0  0  0  0  0  1  0  0  0  0  0  0
  188.3360  177.2250  143.8930 C   0  0  0  0  0  2  0  0  0  0  0  0
  185.6410  179.0050  141.0320 C   0  0  0  0  0  3  0  0  0  0  0  0
  184.8280  178.0320  145.4900 C   0  0  0  0  0  0  0  0  0  0  0  0
  183.5460  178.7530  145.1140 C   0  0  0  0  0  3  0  0  0  0  0  0
  189.9950  177.3700  145.6520 N   0  0  0  0  0  2  0  0  0  0  0  0
  186.4340  178.5140  141.9860 C   0  0  0  0  0  3  0  0  0  0  0  0
  189.4990  176.5210  144.5770 C   0  0  2  0  0  3  0  0  0  0  0  0
  187.6270  177.8260  146.2040 C   0  0  0  0  0  0  0  0  0  0  0  0
  190.6010  176.2650  143.5640 C   0  0  0  0  0  2  0  0  0  0  0  0
  190.0990  176.4550  142.2090 N   0  0  0  0  0  2  0  0  0  0  0  0
  190.8590  177.1080  141.1890 C   0  0  0  0  0  0  0  0  0  0  0  0
  192.0390  177.4890  141.4170 O   0  0  0  0  0  0  0  0  0  0  0  0
  190.2660  177.2990  139.8320 C   0  0  2  0  0  3  0  0  0  0  0  0
  189.3380  178.4420  139.8560 N   0  0  0  0  0  2  0  0  0  0  0  0
  188.8250  177.0660  139.8740 C   0  0  0  0  0  2  0  0  0  0  0  0
  1  2  2  0  0  0  0
  1 13  1  0  0  0  0
  2 18  1  0  0  0  0
  3  6  1  0  0  0  0
  4  1  1  0  0  0  0
  7 14  2  0  0  0  0
  8  5  1  1  0  0  0
  8  4  1  0  0  0  0
  8  7  1  0  0  0  0
  9 10  1  1  0  0  0
 11 17  1  0  0  0  0
 11  2  1  0  0  0  0
 12  5  2  0  0  0  0
 12 16  1  0  0  0  0
 13  3  2  0  0  0  0
 14 13  1  0  0  0  0
 15  9  1  0  0  0  0
 16  4  2  0  0  0  0
 17 19  1  6  0  0  0
 17 15  1  0  0  0  0
 18  9  1  0  0  0  0
 18  6  2  0  0  0  0
 20 19  1  0  0  0  0
 21 22  2  0  0  0  0
 21 20  1  0  0  0  0
 23 24  1  0  0  0  0
 23 25  1  0  0  0  0
 23 21  1  1  0  0  0
 24 25  1  0  0  0  0
M  END
>  <MODEL>
5

>  <REMARK>
 VINA RESULT:      -9.9      1.571      2.252
  Name = 
  3 active torsions:
  status: ('A' for Active; 'I' for Inactive)
    1  A    between atoms: C_2  and  C_21
    2  A    between atoms: C_6  and  N_15
    3  A    between atoms: C_6  and  C_23
                            x       y       z     vdW  Elec       q    Type
                         _______ _______ _______ _____ _____    ______ ____

>  <TORSDO>
F 3

$$$$
=
 OpenBabel10262419433D

 25 29  0  0  1  0  0  0  0  0999 V2000
  186.9330  177.8770  144.7420 C   0  0  0  0  0  0  0  0  0  0  0  0
  188.0700  177.8070  143.7850 C   0  0  0  0  0  0  0  0  0  0  0  0
  188.5750  177.7140  146.6240 C   0  0  0  0  0  3  0  0  0  0  0  0
  185.7010  178.3070  144.4230 C   0  0  0  0  0  0  0  0  0  0  0  0
  183.5960  179.0030  144.8590 C   0  0  0  0  0  3  0  0  0  0  0  0
  189.5670  177.8710  145.7420 C   0  0  0  0  0  3  0  0  0  0  0  0
  184.9410  178.2730  146.8380 C   0  0  0  0  0  3  0  0  0  0  0  0
  184.6750  178.4840  145.4150 C   0  0  0  0  0  0  0  0  0  0  0  0
  190.5300  177.7140  143.3440 C   0  0  2  0  0  3  0  0  0  0  0  0
  191.6960  178.5640  143.8200 C   0  0  0  0  0  1  0  0  0  0  0  0
  187.8200  177.7720  142.2980 C   0  0  0  0  0  2  0  0  0  0  0  0
  183.8950  179.1660  143.4250 C   0  0  0  0  0  3  0  0  0  0  0  0
  187.1850  177.3910  146.1660 C   0  0  1  0  0  3  0  0  0  0  0  0
  186.1410  177.7950  147.1920 C   0  0  0  0  0  3  0  0  0  0  0  0
  190.1980  178.1000  141.9720 N   0  0  0  0  0  2  0  0  0  0  0  0
  185.1420  178.7720  143.1630 C   0  0  0  0  0  3  0  0  0  0  0  0
  189.0540  177.3110  141.5360 C   0  0  2  0  0  3  0  0  0  0  0  0
  189.3340  177.8320  144.2750 C   0  0  0  0  0  0  0  0  0  0  0  0
  188.8270  177.5000  140.0460 C   0  0  0  0  0  2  0  0  0  0  0  0
  187.4030  177.6070  139.7580 N   0  0  0  0  0  2  0  0  0  0  0  0
  186.8990  178.2500  138.5840 C   0  0  0  0  0  0  0  0  0  0  0  0
  187.6910  178.6940  137.7100 O   0  0  0  0  0  0  0  0  0  0  0  0
  185.4240  178.3530  138.3730 C   0  0  2  0  0  3  0  0  0  0  0  0
  184.9340  179.6240  138.9320 N   0  0  0  0  0  2  0  0  0  0  0  0
  184.7300  178.3640  139.6580 C   0  0  0  0  0  2  0  0  0  0  0  0
  1 13  1  0  0  0  0
  2 18  2  0  0  0  0
  2  1  1  0  0  0  0
  4  1  2  0  0  0  0
  4  8  1  0  0  0  0
  5  8  2  0  0  0  0
  6  3  2  0  0  0  0
  7 14  2  0  0  0  0
  8  7  1  0  0  0  0
  9 10  1  1  0  0  0
  9 18  1  0  0  0  0
 11  2  1  0  0  0  0
 12  5  1  0  0  0  0
 13  3  1  1  0  0  0
 13 14  1  0  0  0  0
 15  9  1  0  0  0  0
 16 12  2  0  0  0  0
 16  4  1  0  0  0  0
 17 19  1  6  0  0  0
 17 15  1  0  0  0  0
 17 11  1  0  0  0  0
 18  6  1  0  0  0  0
 20 19  1  0  0  0  0
 21 20  1  0  0  0  0
 22 21  2  0  0  0  0
 23 21  1  1  0  0  0
 23 24  1  0  0  0  0
 23 25  1  0  0  0  0
 24 25  1  0  0  0  0
M  END
>  <MODEL>
6

>  <REMARK>
 VINA RESULT:      -9.7      1.698      2.020
  Name = 
  3 active torsions:
  status: ('A' for Active; 'I' for Inactive)
    1  A    between atoms: C_2  and  C_21
    2  A    between atoms: C_6  and  N_15
    3  A    between atoms: C_6  and  C_23
                            x       y       z     vdW  Elec       q    Type
                         _______ _______ _______ _____ _____    ______ ____

>  <TORSDO>
F 3

$$$$
=
 OpenBabel10262419433D

 25 29  0  0  1  0  0  0  0  0999 V2000
  186.8180  178.1160  144.7650 C   0  0  0  0  0  0  0  0  0  0  0  0
  185.6770  178.4420  143.8670 C   0  0  0  0  0  0  0  0  0  0  0  0
  185.3340  178.5740  146.7280 C   0  0  0  0  0  3  0  0  0  0  0  0
  187.9170  177.4480  144.3810 C   0  0  0  0  0  0  0  0  0  0  0  0
  189.8490  176.3210  144.7030 C   0  0  0  0  0  3  0  0  0  0  0  0
  184.2910  178.6450  145.8950 C   0  0  0  0  0  3  0  0  0  0  0  0
  188.7780  177.2700  146.7550 C   0  0  0  0  0  3  0  0  0  0  0  0
  188.9290  177.0390  145.3180 C   0  0  0  0  0  0  0  0  0  0  0  0
  183.2730  179.0520  143.5490 C   0  0  2  0  0  3  0  0  0  0  0  0
  181.9790  178.4510  144.0720 C   0  0  0  0  0  1  0  0  0  0  0  0
  185.8600  178.4570  142.3700 C   0  0  0  0  0  2  0  0  0  0  0  0
  189.4570  176.2560  143.2840 C   0  0  0  0  0  3  0  0  0  0  0  0
  186.7370  178.6120  146.2050 C   0  0  1  0  0  3  0  0  0  0  0  0
  187.7210  177.9780  147.1740 C   0  0  0  0  0  3  0  0  0  0  0  0
  183.4540  178.6360  142.1590 N   0  0  0  0  0  2  0  0  0  0  0  0
  188.3090  176.9050  143.0880 C   0  0  0  0  0  3  0  0  0  0  0  0
  184.7160  179.1810  141.6760 C   0  0  2  0  0  3  0  0  0  0  0  0
  184.4600  178.6680  144.4190 C   0  0  0  0  0  0  0  0  0  0  0  0
  184.8290  178.9810  140.1740 C   0  0  0  0  0  2  0  0  0  0  0  0
  183.9730  179.9270  139.4700 N   0  0  0  0  0  2  0  0  0  0  0  0
  182.7470  179.5410  138.8430 C   0  0  0  0  0  0  0  0  0  0  0  0
  182.3270  178.3560  138.9390 O   0  0  0  0  0  0  0  0  0  0  0  0
  181.9390  180.5600  138.1080 C   0  0  2  0  0  3  0  0  0  0  0  0
  181.0760  181.2820  139.0570 N   0  0  0  0  0  2  0  0  0  0  0  0
  180.5180  180.2330  138.1930 C   0  0  0  0  0  2  0  0  0  0  0  0
  1 13  1  0  0  0  0
  2 18  2  0  0  0  0
  2  1  1  0  0  0  0
  4  1  2  0  0  0  0
  4  8  1  0  0  0  0
  5  8  2  0  0  0  0
  6  3  2  0  0  0  0
  7 14  2  0  0  0  0
  8  7  1  0  0  0  0
  9 10  1  1  0  0  0
  9 18  1  0  0  0  0
 11  2  1  0  0  0  0
 12  5  1  0  0  0  0
 13  3  1  1  0  0  0
 13 14  1  0  0  0  0
 15  9  1  0  0  0  0
 16 12  2  0  0  0  0
 16  4  1  0  0  0  0
 17 19  1  6  0  0  0
 17 15  1  0  0  0  0
 17 11  1  0  0  0  0
 18  6  1  0  0  0  0
 20 19  1  0  0  0  0
 21 22  2  0  0  0  0
 21 20  1  0  0  0  0
 23 25  1  0  0  0  0
 23 21  1  1  0  0  0
 23 24  1  0  0  0  0
 25 24  1  0  0  0  0
M  END
>  <MODEL>
7

>  <REMARK>
 VINA RESULT:      -9.2      3.262      5.777
  Name = 
  3 active torsions:
  status: ('A' for Active; 'I' for Inactive)
    1  A    between atoms: C_2  and  C_21
    2  A    between atoms: C_6  and  N_15
    3  A    between atoms: C_6  and  C_23
                            x       y       z     vdW  Elec       q    Type
                         _______ _______ _______ _____ _____    ______ ____

>  <TORSDO>
F 3

$$$$
=
 OpenBabel10262419433D

 25 29  0  0  1  0  0  0  0  0999 V2000
  186.2140  178.4220  144.5270 C   0  0  0  0  0  0  0  0  0  0  0  0
  186.0560  178.4120  143.0480 C   0  0  0  0  0  0  0  0  0  0  0  0
  183.7640  178.8920  144.7320 C   0  0  0  0  0  3  0  0  0  0  0  0
  187.2680  177.9070  145.1780 C   0  0  0  0  0  0  0  0  0  0  0  0
  188.4060  177.1910  146.9950 C   0  0  0  0  0  3  0  0  0  0  0  0
  183.6330  178.6600  143.4220 C   0  0  0  0  0  3  0  0  0  0  0  0
  186.1710  178.2240  147.4380 C   0  0  0  0  0  3  0  0  0  0  0  0
  187.3100  177.8190  146.6140 C   0  0  0  0  0  0  0  0  0  0  0  0
  184.5950  178.5430  141.0210 C   0  0  2  0  0  3  0  0  0  0  0  0
  183.3290  177.8080  140.6130 C   0  0  0  0  0  1  0  0  0  0  0  0
  187.2560  178.2440  142.1490 C   0  0  0  0  0  2  0  0  0  0  0  0
  189.1510  176.8560  145.7690 C   0  0  0  0  0  3  0  0  0  0  0  0
  185.1160  179.0980  145.3430 C   0  0  1  0  0  3  0  0  0  0  0  0
  185.1200  178.7900  146.8300 C   0  0  0  0  0  3  0  0  0  0  0  0
  185.7260  177.9700  140.2910 N   0  0  0  0  0  2  0  0  0  0  0  0
  188.4770  177.2610  144.6900 C   0  0  0  0  0  3  0  0  0  0  0  0
  186.9420  178.6510  140.7170 C   0  0  2  0  0  3  0  0  0  0  0  0
  184.8070  178.5000  142.5260 C   0  0  0  0  0  0  0  0  0  0  0  0
  188.1000  178.2610  139.8150 C   0  0  0  0  0  2  0  0  0  0  0  0
  189.3390  178.1980  140.5790 N   0  0  0  0  0  2  0  0  0  0  0  0
  190.3010  177.1530  140.4060 C   0  0  0  0  0  0  0  0  0  0  0  0
  190.1330  176.2720  139.5200 O   0  0  0  0  0  0  0  0  0  0  0  0
  191.5320  177.1340  141.2500 C   0  0  2  0  0  3  0  0  0  0  0  0
  191.2610  176.4050  142.5010 N   0  0  0  0  0  2  0  0  0  0  0  0
  191.3060  177.8730  142.4890 C   0  0  0  0  0  2  0  0  0  0  0  0
  1  4  2  0  0  0  0
  1 13  1  0  0  0  0
  2  1  1  0  0  0  0
  4  8  1  0  0  0  0
  6  3  2  0  0  0  0
  8  5  2  0  0  0  0
  8  7  1  0  0  0  0
  9 10  1  1  0  0  0
  9 18  1  0  0  0  0
 11  2  1  0  0  0  0
 12  5  1  0  0  0  0
 13  3  1  6  0  0  0
 13 14  1  0  0  0  0
 14  7  2  0  0  0  0
 15 17  1  0  0  0  0
 15  9  1  0  0  0  0
 16  4  1  0  0  0  0
 16 12  2  0  0  0  0
 17 19  1  6  0  0  0
 17 11  1  0  0  0  0
 18  2  2  0  0  0  0
 18  6  1  0  0  0  0
 19 20  1  0  0  0  0
 21 20  1  0  0  0  0
 22 21  2  0  0  0  0
 23 21  1  6  0  0  0
 23 25  1  0  0  0  0
 23 24  1  0  0  0  0
 25 24  1  0  0  0  0
M  END
>  <MODEL>
8

>  <REMARK>
 VINA RESULT:      -9.2      1.511      4.561
  Name = 
  3 active torsions:
  status: ('A' for Active; 'I' for Inactive)
    1  A    between atoms: C_2  and  C_21
    2  A    between atoms: C_6  and  N_15
    3  A    between atoms: C_6  and  C_23
                            x       y       z     vdW  Elec       q    Type
                         _______ _______ _______ _____ _____    ______ ____

>  <TORSDO>
F 3

$$$$
=
 OpenBabel10262419433D

 25 29  0  0  1  0  0  0  0  0999 V2000
  187.3140  178.1760  145.5380 C   0  0  0  0  0  0  0  0  0  0  0  0
  186.4680  178.3770  144.3310 C   0  0  0  0  0  0  0  0  0  0  0  0
  185.3130  178.6740  146.9580 C   0  0  0  0  0  3  0  0  0  0  0  0
  188.5010  177.5490  145.5340 C   0  0  0  0  0  0  0  0  0  0  0  0
  190.2990  176.5580  146.4780 C   0  0  0  0  0  3  0  0  0  0  0  0
  184.5520  178.6310  145.8600 C   0  0  0  0  0  3  0  0  0  0  0  0
  188.6510  177.5740  148.0610 C   0  0  0  0  0  3  0  0  0  0  0  0
  189.2150  177.2600  146.7480 C   0  0  0  0  0  0  0  0  0  0  0  0
  184.2350  178.8260  143.2980 C   0  0  2  0  0  3  0  0  0  0  0  0
  182.8670  178.1870  143.4790 C   0  0  0  0  0  1  0  0  0  0  0  0
  187.0710  178.3060  142.9500 C   0  0  0  0  0  2  0  0  0  0  0  0
  190.3340  176.3790  145.0150 C   0  0  0  0  0  3  0  0  0  0  0  0
  186.8060  178.7580  146.8530 C   0  0  1  0  0  3  0  0  0  0  0  0
  187.4930  178.2460  148.1070 C   0  0  0  0  0  3  0  0  0  0  0  0
  184.8220  178.3330  142.0530 N   0  0  0  0  0  2  0  0  0  0  0  0
  189.2660  176.9470  144.4520 C   0  0  0  0  0  3  0  0  0  0  0  0
  186.1480  178.9170  141.9060 C   0  0  2  0  0  3  0  0  0  0  0  0
  185.1350  178.5680  144.4950 C   0  0  0  0  0  0  0  0  0  0  0  0
  186.6950  178.6280  140.5180 C   0  0  0  0  0  2  0  0  0  0  0  0
  187.9930  177.9740  140.6100 N   0  0  0  0  0  2  0  0  0  0  0  0
  189.0320  178.1810  139.6480 C   0  0  0  0  0  0  0  0  0  0  0  0
  188.8750  179.0050  138.7070 O   0  0  0  0  0  0  0  0  0  0  0  0
  190.3250  177.4480  139.7870 C   0  0  2  0  0  3  0  0  0  0  0  0
  190.1810  176.3780  140.7890 N   0  0  0  0  0  2  0  0  0  0  0  0
  190.8670  177.6310  141.1310 C   0  0  0  0  0  2  0  0  0  0  0  0
  1 13  1  0  0  0  0
  2 18  2  0  0  0  0
  2  1  1  0  0  0  0
  4  1  2  0  0  0  0
  4  8  1  0  0  0  0
  5  8  2  0  0  0  0
  6  3  2  0  0  0  0
  7 14  2  0  0  0  0
  8  7  1  0  0  0  0
  9 10  1  1  0  0  0
  9 18  1  0  0  0  0
 11  2  1  0  0  0  0
 12  5  1  0  0  0  0
 13  3  1  1  0  0  0
 13 14  1  0  0  0  0
 15  9  1  0  0  0  0
 16 12  2  0  0  0  0
 16  4  1  0  0  0  0
 17 19  1  6  0  0  0
 17 15  1  0  0  0  0
 17 11  1  0  0  0  0
 18  6  1  0  0  0  0
 19 20  1  0  0  0  0
 21 20  1  0  0  0  0
 22 21  2  0  0  0  0
 23 21  1  1  0  0  0
 23 24  1  0  0  0  0
 23 25  1  0  0  0  0
 24 25  1  0  0  0  0
M  END
>  <MODEL>
9

>  <REMARK>
 VINA RESULT:      -9.1      1.594      4.532
  Name = 
  3 active torsions:
  status: ('A' for Active; 'I' for Inactive)
    1  A    between atoms: C_2  and  C_21
    2  A    between atoms: C_6  and  N_15
    3  A    between atoms: C_6  and  C_23
                            x       y       z     vdW  Elec       q    Type
                         _______ _______ _______ _____ _____    ______ ____

>  <TORSDO>
F 3

$$$$
