=
 OpenBabel10252415043D

 34 39  0  0  1  0  0  0  0  0999 V2000
  184.9250  178.6510  141.5180 C   0  0  1  0  0  3  0  0  0  0  0  0
  186.6440  177.8640  143.2640 C   0  0  0  0  0  0  0  0  0  0  0  0
  187.2210  178.1840  140.8370 C   0  0  0  0  0  0  0  0  0  0  0  0
  189.5530  177.9880  140.0100 C   0  0  0  0  0  0  0  0  0  0  0  0
  184.4260  178.7360  143.8730 N   0  0  0  0  0  0  0  0  0  0  0  0
  185.5980  178.3160  144.2470 C   0  0  0  0  0  3  0  0  0  0  0  0
  189.3680  177.5450  142.1720 C   0  0  0  0  0  3  0  0  0  0  0  0
  186.3150  178.2530  141.8410 C   0  0  0  0  0  0  0  0  0  0  0  0
  190.8070  177.7190  140.5070 C   0  0  0  0  0  3  0  0  0  0  0  0
  184.0480  178.8690  142.4960 C   0  0  0  0  0  3  0  0  0  0  0  0
  186.8040  178.4380  139.4680 N   0  0  0  0  0  0  0  0  0  0  0  0
  184.5330  178.8860  140.1260 C   0  0  0  0  0  3  0  0  0  0  0  0
  186.7610  176.4880  143.3440 F   0  0  0  0  0  0  0  0  0  0  0  0
  189.1870  178.4650  138.6420 C   0  0  0  0  0  2  0  0  0  0  0  0
  187.7050  178.1700  138.3310 C   0  0  1  0  0  3  0  0  0  0  0  0
  190.6650  177.4310  141.8180 N   0  0  0  0  0  0  0  0  0  0  0  0
  188.6550  177.8950  141.0410 C   0  0  0  0  0  0  0  0  0  0  0  0
  185.4430  178.7780  139.1620 C   0  0  0  0  0  3  0  0  0  0  0  0
  188.4080  174.6130  137.1550 C   0  0  0  0  0  0  0  0  0  0  0  0
  187.1220  174.1890  136.8070 C   0  0  0  0  0  3  0  0  0  0  0  0
  187.5190  176.7760  137.8060 C   0  0  0  0  0  0  0  0  0  0  0  0
  186.0360  175.0560  136.9550 C   0  0  0  0  0  3  0  0  0  0  0  0
  188.6070  175.9040  137.6530 C   0  0  0  0  0  3  0  0  0  0  0  0
  186.2340  176.3470  137.4530 C   0  0  0  0  0  3  0  0  0  0  0  0
  189.5640  173.6940  136.9970 C   0  0  0  0  0  1  0  0  0  0  0  0
  191.7540  177.1180  142.7260 C   0  0  0  0  0  2  0  0  0  0  0  0
  191.3000  176.0910  143.7500 C   0  0  0  0  0  2  0  0  0  0  0  0
  189.9610  178.3850  145.3450 F   0  0  0  0  0  0  0  0  0  0  0  0
  191.5370  176.6010  145.1610 C   0  0  1  0  0  3  0  0  0  0  0  0
  190.2290  177.1050  145.7930 C   0  0  1  0  0  3  0  0  0  0  0  0
  191.6390  177.0840  147.7620 O   0  0  0  0  0  0  0  0  0  0  0  0
  192.1030  175.7820  147.5040 C   0  0  0  0  0  2  0  0  0  0  0  0
  192.1940  175.4980  145.9950 C   0  0  0  0  0  2  0  0  0  0  0  0
  190.3040  177.1080  147.3250 C   0  0  0  0  0  2  0  0  0  0  0  0
  1 12  1  1  0  0  0
  1  8  1  0  0  0  0
  1 10  1  0  0  0  0
  2 13  1  0  0  0  0
  2  6  2  0  0  0  0
  3 17  1  0  0  0  0
  3  8  2  0  0  0  0
  4  9  2  0  0  0  0
  4 17  1  0  0  0  0
  5  6  1  0  0  0  0
  8  2  1  0  0  0  0
  9 16  1  0  0  0  0
 10  5  2  0  0  0  0
 11  3  1  0  0  0  0
 14  4  1  0  0  0  0
 15 21  1  1  0  0  0
 15 14  1  0  0  0  0
 15 11  1  0  0  0  0
 16  7  1  0  0  0  0
 16 26  1  0  0  0  0
 17  7  2  0  0  0  0
 18 11  1  0  0  0  0
 18 12  2  0  0  0  0
 19 23  1  0  0  0  0
 20 22  1  0  0  0  0
 20 19  2  0  0  0  0
 22 24  2  0  0  0  0
 23 21  2  0  0  0  0
 24 21  1  0  0  0  0
 25 19  1  0  0  0  0
 26 27  1  0  0  0  0
 29 27  1  6  0  0  0
 29 30  1  0  0  0  0
 29 33  1  0  0  0  0
 30 28  1  6  0  0  0
 30 34  1  0  0  0  0
 32 31  1  0  0  0  0
 33 32  1  0  0  0  0
 34 31  1  0  0  0  0
M  END
>  <MODEL>
1

>  <REMARK>
 VINA RESULT:      -9.2      0.000      0.000
  Name = 
  4 active torsions:
  status: ('A' for Active; 'I' for Inactive)
    1  A    between atoms: C_3  and  C_13
    2  A    between atoms: C_3  and  C_17
    3  A    between atoms: C_12  and  C_28
    4  A    between atoms: C_17  and  N_29
                            x       y       z     vdW  Elec       q    Type
                         _______ _______ _______ _____ _____    ______ ____

>  <TORSDO>
F 4

$$$$
=
 OpenBabel10252415043D

 34 39  0  0  1  0  0  0  0  0999 V2000
  185.4830  178.6860  139.7580 C   0  0  1  0  0  3  0  0  0  0  0  0
  186.7790  178.3430  141.9540 C   0  0  0  0  0  0  0  0  0  0  0  0
  187.8060  177.9440  139.6930 C   0  0  0  0  0  0  0  0  0  0  0  0
  190.2170  177.4190  139.4260 C   0  0  0  0  0  0  0  0  0  0  0  0
  184.5840  179.4500  141.8580 N   0  0  0  0  0  0  0  0  0  0  0  0
  185.6250  179.1000  142.5550 C   0  0  0  0  0  3  0  0  0  0  0  0
  189.6090  177.6090  141.5470 C   0  0  0  0  0  3  0  0  0  0  0  0
  186.7470  178.3330  140.4430 C   0  0  0  0  0  0  0  0  0  0  0  0
  191.3310  177.2440  140.2150 C   0  0  0  0  0  3  0  0  0  0  0  0
  184.4710  179.2090  140.4490 C   0  0  0  0  0  3  0  0  0  0  0  0
  187.6660  177.8230  138.2520 N   0  0  0  0  0  0  0  0  0  0  0  0
  185.3690  178.5390  138.3050 C   0  0  0  0  0  3  0  0  0  0  0  0
  186.7450  177.0420  142.4200 F   0  0  0  0  0  0  0  0  0  0  0  0
  190.1480  177.5100  137.9370 C   0  0  0  0  0  2  0  0  0  0  0  0
  188.7230  177.2060  137.4290 C   0  0  1  0  0  3  0  0  0  0  0  0
  190.9310  177.3410  141.5000 N   0  0  0  0  0  0  0  0  0  0  0  0
  189.1460  177.6590  140.2460 C   0  0  0  0  0  0  0  0  0  0  0  0
  186.4200  178.1240  137.6040 C   0  0  0  0  0  3  0  0  0  0  0  0
  187.0220  173.8060  137.1530 C   0  0  0  0  0  0  0  0  0  0  0  0
  188.1280  172.9690  136.9790 C   0  0  0  0  0  3  0  0  0  0  0  0
  188.4980  175.7310  137.2680 C   0  0  0  0  0  0  0  0  0  0  0  0
  189.4170  173.5080  136.9520 C   0  0  0  0  0  3  0  0  0  0  0  0
  187.2060  175.1840  137.2980 C   0  0  0  0  0  3  0  0  0  0  0  0
  189.6010  174.8870  137.0970 C   0  0  0  0  0  3  0  0  0  0  0  0
  185.6520  173.2340  137.1830 C   0  0  0  0  0  1  0  0  0  0  0  0
  191.8060  177.2470  142.6560 C   0  0  0  0  0  2  0  0  0  0  0  0
  191.3160  178.1740  143.7550 C   0  0  0  0  0  2  0  0  0  0  0  0
  192.2520  175.9650  145.7160 F   0  0  0  0  0  0  0  0  0  0  0  0
  190.5610  177.3930  144.8170 C   0  0  1  0  0  3  0  0  0  0  0  0
  191.4710  177.0670  146.0130 C   0  0  1  0  0  3  0  0  0  0  0  0
  189.3290  176.4600  146.9670 O   0  0  0  0  0  0  0  0  0  0  0  0
  188.7270  177.6640  146.5610 C   0  0  0  0  0  2  0  0  0  0  0  0
  189.3150  178.1780  145.2360 C   0  0  0  0  0  2  0  0  0  0  0  0
  190.6590  176.7860  147.2840 C   0  0  0  0  0  2  0  0  0  0  0  0
  1 12  1  6  0  0  0
  1  8  1  0  0  0  0
  1 10  1  0  0  0  0
  2 13  1  0  0  0  0
  2  6  2  0  0  0  0
  3 17  1  0  0  0  0
  3  8  2  0  0  0  0
  4  9  2  0  0  0  0
  4 17  1  0  0  0  0
  5  6  1  0  0  0  0
  8  2  1  0  0  0  0
  9 16  1  0  0  0  0
 10  5  2  0  0  0  0
 11  3  1  0  0  0  0
 14  4  1  0  0  0  0
 15 21  1  1  0  0  0
 15 14  1  0  0  0  0
 15 11  1  0  0  0  0
 16  7  1  0  0  0  0
 16 26  1  0  0  0  0
 17  7  2  0  0  0  0
 18 11  1  0  0  0  0
 18 12  2  0  0  0  0
 19 25  1  0  0  0  0
 19 23  1  0  0  0  0
 20 19  2  0  0  0  0
 21 23  2  0  0  0  0
 22 20  1  0  0  0  0
 22 24  2  0  0  0  0
 24 21  1  0  0  0  0
 26 27  1  0  0  0  0
 29 27  1  6  0  0  0
 29 33  1  0  0  0  0
 29 30  1  0  0  0  0
 30 28  1  6  0  0  0
 30 34  1  0  0  0  0
 31 34  1  0  0  0  0
 32 31  1  0  0  0  0
 33 32  1  0  0  0  0
M  END
>  <MODEL>
2

>  <REMARK>
 VINA RESULT:      -9.2      1.353      2.116
  Name = 
  4 active torsions:
  status: ('A' for Active; 'I' for Inactive)
    1  A    between atoms: C_3  and  C_13
    2  A    between atoms: C_3  and  C_17
    3  A    between atoms: C_12  and  C_28
    4  A    between atoms: C_17  and  N_29
                            x       y       z     vdW  Elec       q    Type
                         _______ _______ _______ _____ _____    ______ ____

>  <TORSDO>
F 4

$$$$
=
 OpenBabel10252415043D

 34 39  0  0  1  0  0  0  0  0999 V2000
  185.1460  178.6870  140.8580 C   0  0  1  0  0  3  0  0  0  0  0  0
  186.7060  178.0750  142.8120 C   0  0  0  0  0  0  0  0  0  0  0  0
  187.4750  178.1060  140.4170 C   0  0  0  0  0  0  0  0  0  0  0  0
  189.8570  177.7780  139.8040 C   0  0  0  0  0  0  0  0  0  0  0  0
  184.4710  179.0470  143.1420 N   0  0  0  0  0  0  0  0  0  0  0  0
  185.6000  178.6530  143.6520 C   0  0  0  0  0  3  0  0  0  0  0  0
  189.4970  177.5880  141.9810 C   0  0  0  0  0  3  0  0  0  0  0  0
  186.4970  178.3050  141.3330 C   0  0  0  0  0  0  0  0  0  0  0  0
  191.0630  177.5470  140.4260 C   0  0  0  0  0  3  0  0  0  0  0  0
  184.2030  179.0290  141.7330 C   0  0  0  0  0  3  0  0  0  0  0  0
  187.1710  178.2100  139.0000 N   0  0  0  0  0  0  0  0  0  0  0  0
  184.8690  178.7680  139.4230 C   0  0  0  0  0  3  0  0  0  0  0  0
  186.7810  176.7150  143.0550 F   0  0  0  0  0  0  0  0  0  0  0  0
  189.6100  178.1030  138.3670 C   0  0  0  0  0  2  0  0  0  0  0  0
  188.1490  177.7980  137.9750 C   0  0  1  0  0  3  0  0  0  0  0  0
  190.8130  177.4120  141.7460 N   0  0  0  0  0  0  0  0  0  0  0  0
  188.8820  177.8180  140.7650 C   0  0  0  0  0  0  0  0  0  0  0  0
  185.8460  178.5350  138.5510 C   0  0  0  0  0  3  0  0  0  0  0  0
  186.5490  174.4340  137.1680 C   0  0  0  0  0  0  0  0  0  0  0  0
  187.6810  173.6580  136.9010 C   0  0  0  0  0  3  0  0  0  0  0  0
  187.9680  176.3570  137.5970 C   0  0  0  0  0  0  0  0  0  0  0  0
  188.9550  174.2280  136.9840 C   0  0  0  0  0  3  0  0  0  0  0  0
  186.6920  175.7800  137.5160 C   0  0  0  0  0  3  0  0  0  0  0  0
  189.0980  175.5750  137.3320 C   0  0  0  0  0  3  0  0  0  0  0  0
  185.1950  173.8300  137.0820 C   0  0  0  0  0  1  0  0  0  0  0  0
  191.8220  177.1870  142.7660 C   0  0  0  0  0  2  0  0  0  0  0  0
  191.3310  176.1500  143.7620 C   0  0  0  0  0  2  0  0  0  0  0  0
  189.8980  178.3870  145.3570 F   0  0  0  0  0  0  0  0  0  0  0  0
  191.5220  176.6430  145.1860 C   0  0  1  0  0  3  0  0  0  0  0  0
  190.1870  177.1070  145.7930 C   0  0  1  0  0  3  0  0  0  0  0  0
  191.5480  177.0890  147.7960 O   0  0  0  0  0  0  0  0  0  0  0  0
  192.0490  175.8020  147.5300 C   0  0  0  0  0  2  0  0  0  0  0  0
  192.1840  175.5440  146.0210 C   0  0  0  0  0  2  0  0  0  0  0  0
  190.2230  177.0880  147.3270 C   0  0  0  0  0  2  0  0  0  0  0  0
  1 12  1  6  0  0  0
  1  8  1  0  0  0  0
  1 10  1  0  0  0  0
  2 13  1  0  0  0  0
  2  6  2  0  0  0  0
  3 17  1  0  0  0  0
  3  8  2  0  0  0  0
  4  9  2  0  0  0  0
  4 17  1  0  0  0  0
  5  6  1  0  0  0  0
  8  2  1  0  0  0  0
  9 16  1  0  0  0  0
 10  5  2  0  0  0  0
 11  3  1  0  0  0  0
 14  4  1  0  0  0  0
 15 21  1  1  0  0  0
 15 14  1  0  0  0  0
 15 11  1  0  0  0  0
 16  7  1  0  0  0  0
 16 26  1  0  0  0  0
 17  7  2  0  0  0  0
 18 11  1  0  0  0  0
 18 12  2  0  0  0  0
 19 23  1  0  0  0  0
 20 22  1  0  0  0  0
 20 19  2  0  0  0  0
 22 24  2  0  0  0  0
 23 21  2  0  0  0  0
 24 21  1  0  0  0  0
 25 19  1  0  0  0  0
 26 27  1  0  0  0  0
 29 27  1  6  0  0  0
 29 30  1  0  0  0  0
 29 33  1  0  0  0  0
 30 28  1  1  0  0  0
 30 34  1  0  0  0  0
 32 31  1  0  0  0  0
 33 32  1  0  0  0  0
 34 31  1  0  0  0  0
M  END
>  <MODEL>
3

>  <REMARK>
 VINA RESULT:      -9.1      0.573      1.231
  Name = 
  4 active torsions:
  status: ('A' for Active; 'I' for Inactive)
    1  A    between atoms: C_3  and  C_13
    2  A    between atoms: C_3  and  C_17
    3  A    between atoms: C_12  and  C_28
    4  A    between atoms: C_17  and  N_29
                            x       y       z     vdW  Elec       q    Type
                         _______ _______ _______ _____ _____    ______ ____

>  <TORSDO>
F 4

$$$$
=
 OpenBabel10252415043D

 34 39  0  0  1  0  0  0  0  0999 V2000
  183.3770  178.9080  144.1420 C   0  0  0  0  0  0  0  0  0  0  0  0
  185.8650  178.2530  144.0890 C   0  0  2  0  0  3  0  0  0  0  0  0
  184.5340  178.7060  142.0040 C   0  0  0  0  0  0  0  0  0  0  0  0
  185.5980  178.7810  139.7630 C   0  0  0  0  0  0  0  0  0  0  0  0
  184.6900  178.8680  146.1610 N   0  0  0  0  0  0  0  0  0  0  0  0
  185.8020  178.5630  145.5610 C   0  0  0  0  0  3  0  0  0  0  0  0
  187.0240  178.2550  141.3740 C   0  0  0  0  0  3  0  0  0  0  0  0
  184.6040  178.6490  143.3550 C   0  0  0  0  0  0  0  0  0  0  0  0
  186.8480  178.6300  139.2060 C   0  0  0  0  0  3  0  0  0  0  0  0
  183.4410  179.0030  145.4690 C   0  0  0  0  0  3  0  0  0  0  0  0
  183.2580  178.9560  141.3560 N   0  0  0  0  0  0  0  0  0  0  0  0
  182.1030  179.1430  143.4590 C   0  0  0  0  0  3  0  0  0  0  0  0
  186.0770  176.8950  143.9320 F   0  0  0  0  0  0  0  0  0  0  0  0
  184.3470  179.2580  139.1020 C   0  0  0  0  0  2  0  0  0  0  0  0
  183.1000  178.8180  139.8960 C   0  0  1  0  0  3  0  0  0  0  0  0
  187.6920  178.2880  140.2020 N   0  0  0  0  0  0  0  0  0  0  0  0
  185.7030  178.5620  141.1120 C   0  0  0  0  0  0  0  0  0  0  0  0
  182.0650  179.1600  142.1300 C   0  0  0  0  0  3  0  0  0  0  0  0
  183.0430  175.3260  138.3710 C   0  0  0  0  0  0  0  0  0  0  0  0
  181.8170  174.8490  138.8430 C   0  0  0  0  0  3  0  0  0  0  0  0
  182.6700  177.4300  139.5230 C   0  0  0  0  0  0  0  0  0  0  0  0
  181.0150  175.6600  139.6520 C   0  0  0  0  0  3  0  0  0  0  0  0
  183.4690  176.6130  138.7090 C   0  0  0  0  0  3  0  0  0  0  0  0
  181.4410  176.9480  139.9900 C   0  0  0  0  0  3  0  0  0  0  0  0
  183.8950  174.4660  137.5090 C   0  0  0  0  0  1  0  0  0  0  0  0
  189.1180  178.0650  140.0470 C   0  0  0  0  0  2  0  0  0  0  0  0
  189.4530  176.6150  140.3530 C   0  0  0  0  0  2  0  0  0  0  0  0
  192.3600  177.5030  140.9590 F   0  0  0  0  0  0  0  0  0  0  0  0
  190.2880  176.5140  141.6180 C   0  0  1  0  0  3  0  0  0  0  0  0
  191.2430  177.7130  141.7460 C   0  0  1  0  0  3  0  0  0  0  0  0
  191.4810  176.7780  143.9680 O   0  0  0  0  0  0  0  0  0  0  0  0
  190.0900  176.6760  144.1510 C   0  0  0  0  0  2  0  0  0  0  0  0
  189.3600  176.3840  142.8300 C   0  0  0  0  0  2  0  0  0  0  0  0
  191.6810  177.9380  143.1990 C   0  0  0  0  0  2  0  0  0  0  0  0
  1 10  2  0  0  0  0
  2 13  1  1  0  0  0
  2  6  1  0  0  0  0
  3  8  2  0  0  0  0
  4 17  1  0  0  0  0
  6  5  2  0  0  0  0
  8  2  1  0  0  0  0
  8  1  1  0  0  0  0
  9  4  2  0  0  0  0
  9 16  1  0  0  0  0
 10  5  1  0  0  0  0
 11  3  1  0  0  0  0
 11 18  1  0  0  0  0
 12  1  1  0  0  0  0
 14  4  1  0  0  0  0
 14 15  1  0  0  0  0
 15 21  1  1  0  0  0
 15 11  1  0  0  0  0
 16  7  1  0  0  0  0
 17  7  2  0  0  0  0
 17  3  1  0  0  0  0
 18 12  2  0  0  0  0
 19 23  2  0  0  0  0
 19 20  1  0  0  0  0
 20 22  2  0  0  0  0
 21 24  2  0  0  0  0
 22 24  1  0  0  0  0
 23 21  1  0  0  0  0
 25 19  1  0  0  0  0
 26 16  1  0  0  0  0
 26 27  1  0  0  0  0
 29 27  1  6  0  0  0
 29 30  1  0  0  0  0
 29 33  1  0  0  0  0
 30 28  1  6  0  0  0
 30 34  1  0  0  0  0
 31 32  1  0  0  0  0
 33 32  1  0  0  0  0
 34 31  1  0  0  0  0
M  END
>  <MODEL>
4

>  <REMARK>
 VINA RESULT:      -8.2      2.342      4.123
  Name = 
  4 active torsions:
  status: ('A' for Active; 'I' for Inactive)
    1  A    between atoms: C_3  and  C_13
    2  A    between atoms: C_3  and  C_17
    3  A    between atoms: C_12  and  C_28
    4  A    between atoms: C_17  and  N_29
                            x       y       z     vdW  Elec       q    Type
                         _______ _______ _______ _____ _____    ______ ____

>  <TORSDO>
F 4

$$$$
=
 OpenBabel10252415043D

 34 39  0  0  1  0  0  0  0  0999 V2000
  183.3690  178.8790  144.1500 C   0  0  0  0  0  0  0  0  0  0  0  0
  185.8650  178.2530  144.0840 C   0  0  2  0  0  3  0  0  0  0  0  0
  184.5160  178.6840  142.0050 C   0  0  0  0  0  0  0  0  0  0  0  0
  185.5670  178.7660  139.7580 C   0  0  0  0  0  0  0  0  0  0  0  0
  184.6940  178.8600  146.1610 N   0  0  0  0  0  0  0  0  0  0  0  0
  185.8070  178.5660  145.5550 C   0  0  0  0  0  3  0  0  0  0  0  0
  187.0080  178.2610  141.3630 C   0  0  0  0  0  3  0  0  0  0  0  0
  184.5950  178.6320  143.3560 C   0  0  0  0  0  0  0  0  0  0  0  0
  186.8150  178.6280  139.1950 C   0  0  0  0  0  3  0  0  0  0  0  0
  183.4400  178.9780  145.4760 C   0  0  0  0  0  3  0  0  0  0  0  0
  183.2330  178.9180  141.3640 N   0  0  0  0  0  0  0  0  0  0  0  0
  182.0880  179.0970  143.4740 C   0  0  0  0  0  3  0  0  0  0  0  0
  186.0910  176.8970  143.9290 F   0  0  0  0  0  0  0  0  0  0  0  0
  184.3060  179.2270  139.1030 C   0  0  0  0  0  2  0  0  0  0  0  0
  183.0690  178.7740  139.9050 C   0  0  1  0  0  3  0  0  0  0  0  0
  187.6680  178.2990  140.1870 N   0  0  0  0  0  0  0  0  0  0  0  0
  185.6820  178.5520  141.1070 C   0  0  0  0  0  0  0  0  0  0  0  0
  182.0430  179.1100  142.1440 C   0  0  0  0  0  3  0  0  0  0  0  0
  183.0380  175.2820  138.3800 C   0  0  0  0  0  0  0  0  0  0  0  0
  181.8260  174.7870  138.8710 C   0  0  0  0  0  3  0  0  0  0  0  0
  182.6530  177.3800  139.5390 C   0  0  0  0  0  0  0  0  0  0  0  0
  181.0260  175.5860  139.6930 C   0  0  0  0  0  3  0  0  0  0  0  0
  183.4510  176.5750  138.7120 C   0  0  0  0  0  3  0  0  0  0  0  0
  181.4390  176.8800  140.0250 C   0  0  0  0  0  3  0  0  0  0  0  0
  183.8880  174.4350  137.5040 C   0  0  0  0  0  1  0  0  0  0  0  0
  189.0970  178.0920  140.0240 C   0  0  0  0  0  2  0  0  0  0  0  0
  189.4140  177.7850  138.5700 C   0  0  0  0  0  2  0  0  0  0  0  0
  187.4890  175.5570  137.6050 F   0  0  0  0  0  0  0  0  0  0  0  0
  189.6270  176.2940  138.3720 C   0  0  1  0  0  3  0  0  0  0  0  0
  188.7910  175.7690  137.1930 C   0  0  1  0  0  3  0  0  0  0  0  0
  190.2090  173.8400  137.5630 O   0  0  0  0  0  0  0  0  0  0  0  0
  191.3810  174.6190  137.5970 C   0  0  0  0  0  2  0  0  0  0  0  0
  191.1220  176.0130  138.1910 C   0  0  0  0  0  2  0  0  0  0  0  0
  189.3640  174.4620  136.6280 C   0  0  0  0  0  2  0  0  0  0  0  0
  1 10  2  0  0  0  0
  2 13  1  1  0  0  0
  2  6  1  0  0  0  0
  3  8  2  0  0  0  0
  4 17  1  0  0  0  0
  6  5  2  0  0  0  0
  8  2  1  0  0  0  0
  8  1  1  0  0  0  0
  9  4  2  0  0  0  0
  9 16  1  0  0  0  0
 10  5  1  0  0  0  0
 11  3  1  0  0  0  0
 11 18  1  0  0  0  0
 12  1  1  0  0  0  0
 14  4  1  0  0  0  0
 14 15  1  0  0  0  0
 15 21  1  1  0  0  0
 15 11  1  0  0  0  0
 16  7  1  0  0  0  0
 17  7  2  0  0  0  0
 17  3  1  0  0  0  0
 18 12  2  0  0  0  0
 19 23  2  0  0  0  0
 19 20  1  0  0  0  0
 20 22  2  0  0  0  0
 21 24  2  0  0  0  0
 22 24  1  0  0  0  0
 23 21  1  0  0  0  0
 25 19  1  0  0  0  0
 26 16  1  0  0  0  0
 27 26  1  0  0  0  0
 29 27  1  6  0  0  0
 30 28  1  1  0  0  0
 30 29  1  0  0  0  0
 31 32  1  0  0  0  0
 32 33  1  0  0  0  0
 33 29  1  0  0  0  0
 34 30  1  0  0  0  0
 34 31  1  0  0  0  0
M  END
>  <MODEL>
5

>  <REMARK>
 VINA RESULT:      -8.0      3.502      5.624
  Name = 
  4 active torsions:
  status: ('A' for Active; 'I' for Inactive)
    1  A    between atoms: C_3  and  C_13
    2  A    between atoms: C_3  and  C_17
    3  A    between atoms: C_12  and  C_28
    4  A    between atoms: C_17  and  N_29
                            x       y       z     vdW  Elec       q    Type
                         _______ _______ _______ _____ _____    ______ ____

>  <TORSDO>
F 4

$$$$
=
 OpenBabel10252415043D

 34 39  0  0  1  0  0  0  0  0999 V2000
  184.9750  177.0030  135.8380 C   0  0  1  0  0  3  0  0  0  0  0  0
  186.5350  177.6780  137.7700 C   0  0  0  0  0  0  0  0  0  0  0  0
  184.0290  177.8230  137.9320 C   0  0  0  0  0  0  0  0  0  0  0  0
  182.8870  178.4040  140.0580 C   0  0  0  0  0  0  0  0  0  0  0  0
  187.3250  176.4820  135.7710 N   0  0  0  0  0  0  0  0  0  0  0  0
  187.5760  176.9610  136.9540 C   0  0  0  0  0  3  0  0  0  0  0  0
  185.0950  178.4660  140.2240 C   0  0  0  0  0  3  0  0  0  0  0  0
  185.1370  177.4920  137.2270 C   0  0  0  0  0  0  0  0  0  0  0  0
  183.2170  178.7240  141.3550 C   0  0  0  0  0  3  0  0  0  0  0  0
  186.0260  176.5340  135.1670 C   0  0  0  0  0  3  0  0  0  0  0  0
  182.7220  177.7510  137.3020 N   0  0  0  0  0  0  0  0  0  0  0  0
  183.6450  176.9560  135.2260 C   0  0  0  0  0  3  0  0  0  0  0  0
  186.8400  179.0270  137.7890 F   0  0  0  0  0  0  0  0  0  0  0  0
  181.5330  178.1190  139.4950 C   0  0  0  0  0  2  0  0  0  0  0  0
  181.5220  178.2970  137.9630 C   0  0  1  0  0  3  0  0  0  0  0  0
  184.5640  178.7780  141.4240 N   0  0  0  0  0  0  0  0  0  0  0  0
  184.0490  178.2300  139.3520 C   0  0  0  0  0  0  0  0  0  0  0  0
  182.5820  177.3190  135.9390 C   0  0  0  0  0  3  0  0  0  0  0  0
  180.6380  181.4140  135.9560 C   0  0  0  0  0  0  0  0  0  0  0  0
  180.8910  182.4170  136.8960 C   0  0  0  0  0  3  0  0  0  0  0  0
  181.2910  179.7290  137.5760 C   0  0  0  0  0  0  0  0  0  0  0  0
  181.3450  182.0790  138.1740 C   0  0  0  0  0  3  0  0  0  0  0  0
  180.8390  180.0740  136.2940 C   0  0  0  0  0  3  0  0  0  0  0  0
  181.5460  180.7380  138.5130 C   0  0  0  0  0  3  0  0  0  0  0  0
  180.1570  181.7720  134.5970 C   0  0  0  0  0  1  0  0  0  0  0  0
  185.3270  179.0550  142.6290 C   0  0  0  0  0  2  0  0  0  0  0  0
  186.3750  177.9760  142.8400 C   0  0  0  0  0  2  0  0  0  0  0  0
  188.5700  176.4390  144.3970 F   0  0  0  0  0  0  0  0  0  0  0  0
  186.5050  177.6370  144.3150 C   0  0  1  0  0  3  0  0  0  0  0  0
  187.9790  177.6370  144.7530 C   0  0  1  0  0  3  0  0  0  0  0  0
  186.9190  177.5420  146.9290 O   0  0  0  0  0  0  0  0  0  0  0  0
  186.0400  178.5990  146.6260 C   0  0  0  0  0  2  0  0  0  0  0  0
  185.6580  178.6130  145.1370 C   0  0  0  0  0  2  0  0  0  0  0  0
  188.1210  177.8430  146.2670 C   0  0  0  0  0  2  0  0  0  0  0  0
  1 10  1  1  0  0  0
  1  8  1  0  0  0  0
  2 13  1  0  0  0  0
  3 17  1  0  0  0  0
  4  9  2  0  0  0  0
  5  6  1  0  0  0  0
  6  2  2  0  0  0  0
  7 16  1  0  0  0  0
  8  2  1  0  0  0  0
  8  3  2  0  0  0  0
  9 16  1  0  0  0  0
 10  5  2  0  0  0  0
 11  3  1  0  0  0  0
 11 15  1  0  0  0  0
 12  1  1  0  0  0  0
 12 18  2  0  0  0  0
 14  4  1  0  0  0  0
 15 21  1  1  0  0  0
 15 14  1  0  0  0  0
 16 26  1  0  0  0  0
 17  4  1  0  0  0  0
 17  7  2  0  0  0  0
 18 11  1  0  0  0  0
 19 23  2  0  0  0  0
 19 20  1  0  0  0  0
 20 22  2  0  0  0  0
 21 24  2  0  0  0  0
 22 24  1  0  0  0  0
 23 21  1  0  0  0  0
 25 19  1  0  0  0  0
 26 27  1  0  0  0  0
 29 27  1  6  0  0  0
 29 30  1  0  0  0  0
 29 33  1  0  0  0  0
 30 28  1  1  0  0  0
 30 34  1  0  0  0  0
 32 31  1  0  0  0  0
 33 32  1  0  0  0  0
 34 31  1  0  0  0  0
M  END
>  <MODEL>
6

>  <REMARK>
 VINA RESULT:      -7.8      3.548      6.781
  Name = 
  4 active torsions:
  status: ('A' for Active; 'I' for Inactive)
    1  A    between atoms: C_3  and  C_13
    2  A    between atoms: C_3  and  C_17
    3  A    between atoms: C_12  and  C_28
    4  A    between atoms: C_17  and  N_29
                            x       y       z     vdW  Elec       q    Type
                         _______ _______ _______ _____ _____    ______ ____

>  <TORSDO>
F 4

$$$$
=
 OpenBabel10252415043D

 34 39  0  0  1  0  0  0  0  0999 V2000
  182.9040  178.2370  138.3970 C   0  0  1  0  0  3  0  0  0  0  0  0
  183.9470  178.5600  140.7280 C   0  0  0  0  0  0  0  0  0  0  0  0
  185.3150  178.0020  138.6930 C   0  0  0  0  0  0  0  0  0  0  0  0
  187.7950  177.9600  138.7560 C   0  0  0  0  0  0  0  0  0  0  0  0
  181.6130  179.1450  140.2170 N   0  0  0  0  0  0  0  0  0  0  0  0
  182.6010  179.1470  141.0610 C   0  0  0  0  0  3  0  0  0  0  0  0
  186.8930  178.3800  140.7340 C   0  0  0  0  0  3  0  0  0  0  0  0
  184.1130  178.2820  139.2520 C   0  0  0  0  0  0  0  0  0  0  0  0
  188.8100  178.1620  139.6630 C   0  0  0  0  0  3  0  0  0  0  0  0
  181.7310  178.6450  138.8780 C   0  0  0  0  0  3  0  0  0  0  0  0
  185.3880  177.6070  137.2970 N   0  0  0  0  0  0  0  0  0  0  0  0
  183.0100  177.8210  136.9970 C   0  0  0  0  0  3  0  0  0  0  0  0
  184.1000  177.3800  141.4340 F   0  0  0  0  0  0  0  0  0  0  0  0
  187.9040  177.7750  137.2770 C   0  0  0  0  0  2  0  0  0  0  0  0
  186.6410  177.0950  136.7100 C   0  0  1  0  0  3  0  0  0  0  0  0
  188.2360  178.3930  140.8620 N   0  0  0  0  0  0  0  0  0  0  0  0
  186.6010  178.1060  139.4120 C   0  0  0  0  0  0  0  0  0  0  0  0
  184.2020  177.5220  136.4900 C   0  0  0  0  0  3  0  0  0  0  0  0
  185.6930  173.4390  137.2250 C   0  0  0  0  0  0  0  0  0  0  0  0
  186.9280  172.8140  137.0310 C   0  0  0  0  0  3  0  0  0  0  0  0
  186.7230  175.6000  136.8210 C   0  0  0  0  0  0  0  0  0  0  0  0
  188.0610  173.5790  136.7350 C   0  0  0  0  0  3  0  0  0  0  0  0
  185.5900  174.8290  137.1210 C   0  0  0  0  0  3  0  0  0  0  0  0
  187.9580  174.9690  136.6310 C   0  0  0  0  0  3  0  0  0  0  0  0
  184.4900  172.6280  137.5410 C   0  0  0  0  0  1  0  0  0  0  0  0
  188.9560  178.6870  142.0890 C   0  0  0  0  0  2  0  0  0  0  0  0
  188.8750  177.5010  143.0350 C   0  0  0  0  0  2  0  0  0  0  0  0
  186.0690  178.5140  143.8740 F   0  0  0  0  0  0  0  0  0  0  0  0
  188.3280  177.9310  144.3850 C   0  0  1  0  0  3  0  0  0  0  0  0
  186.8410  177.5660  144.5200 C   0  0  1  0  0  3  0  0  0  0  0  0
  187.3120  178.1600  146.8200 O   0  0  0  0  0  0  0  0  0  0  0  0
  188.4710  177.3640  146.8630 C   0  0  0  0  0  2  0  0  0  0  0  0
  189.1780  177.3110  145.4980 C   0  0  0  0  0  2  0  0  0  0  0  0
  186.4090  177.4760  145.9900 C   0  0  0  0  0  2  0  0  0  0  0  0
  1 12  1  6  0  0  0
  1 10  1  0  0  0  0
  1  8  1  0  0  0  0
  2  6  2  0  0  0  0
  2 13  1  0  0  0  0
  3  8  2  0  0  0  0
  3 17  1  0  0  0  0
  4 17  1  0  0  0  0
  4  9  2  0  0  0  0
  5  6  1  0  0  0  0
  7 16  1  0  0  0  0
  8  2  1  0  0  0  0
  9 16  1  0  0  0  0
 10  5  2  0  0  0  0
 11  3  1  0  0  0  0
 14  4  1  0  0  0  0
 15 21  1  1  0  0  0
 15 14  1  0  0  0  0
 15 11  1  0  0  0  0
 16 26  1  0  0  0  0
 17  7  2  0  0  0  0
 18 12  2  0  0  0  0
 18 11  1  0  0  0  0
 19 25  1  0  0  0  0
 20 19  2  0  0  0  0
 21 23  2  0  0  0  0
 22 20  1  0  0  0  0
 23 19  1  0  0  0  0
 24 22  2  0  0  0  0
 24 21  1  0  0  0  0
 26 27  1  0  0  0  0
 29 27  1  6  0  0  0
 29 30  1  0  0  0  0
 29 33  1  0  0  0  0
 30 28  1  6  0  0  0
 30 34  1  0  0  0  0
 31 32  1  0  0  0  0
 33 32  1  0  0  0  0
 34 31  1  0  0  0  0
M  END
>  <MODEL>
7

>  <REMARK>
 VINA RESULT:      -7.8      2.190      3.363
  Name = 
  4 active torsions:
  status: ('A' for Active; 'I' for Inactive)
    1  A    between atoms: C_3  and  C_13
    2  A    between atoms: C_3  and  C_17
    3  A    between atoms: C_12  and  C_28
    4  A    between atoms: C_17  and  N_29
                            x       y       z     vdW  Elec       q    Type
                         _______ _______ _______ _____ _____    ______ ____

>  <TORSDO>
F 4

$$$$
=
 OpenBabel10252415043D

 34 39  0  0  1  0  0  0  0  0999 V2000
  181.1930  178.2680  136.8020 C   0  0  1  0  0  3  0  0  0  0  0  0
  181.3050  178.8720  139.3020 C   0  0  0  0  0  0  0  0  0  0  0  0
  183.3280  178.1740  137.9800 C   0  0  0  0  0  0  0  0  0  0  0  0
  185.6120  178.2510  138.9470 C   0  0  0  0  0  0  0  0  0  0  0  0
  179.3190  179.2950  137.9130 N   0  0  0  0  0  0  0  0  0  0  0  0
  179.9280  179.4280  139.0540 C   0  0  0  0  0  3  0  0  0  0  0  0
  184.0440  178.8280  140.4010 C   0  0  0  0  0  3  0  0  0  0  0  0
  182.0040  178.4540  138.0280 C   0  0  0  0  0  0  0  0  0  0  0  0
  186.2220  178.5910  140.1330 C   0  0  0  0  0  3  0  0  0  0  0  0
  179.9230  178.6690  136.7740 C   0  0  0  0  0  3  0  0  0  0  0  0
  183.9110  177.6440  136.7600 N   0  0  0  0  0  0  0  0  0  0  0  0
  181.8070  177.7180  135.5920 C   0  0  0  0  0  3  0  0  0  0  0  0
  181.1950  177.7780  140.1410 F   0  0  0  0  0  0  0  0  0  0  0  0
  186.2570  177.9240  137.6400 C   0  0  0  0  0  2  0  0  0  0  0  0
  185.2940  177.1330  136.7310 C   0  0  1  0  0  3  0  0  0  0  0  0
  185.2460  178.9150  141.0070 N   0  0  0  0  0  0  0  0  0  0  0  0
  184.2600  178.4090  139.1020 C   0  0  0  0  0  0  0  0  0  0  0  0
  183.1050  177.4240  135.5910 C   0  0  0  0  0  3  0  0  0  0  0  0
  186.5200  173.5440  137.1090 C   0  0  0  0  0  0  0  0  0  0  0  0
  185.3650  172.9160  137.5830 C   0  0  0  0  0  3  0  0  0  0  0  0
  185.3380  175.6620  137.0280 C   0  0  0  0  0  0  0  0  0  0  0  0
  184.1960  173.6580  137.7780 C   0  0  0  0  0  3  0  0  0  0  0  0
  186.5070  174.9130  136.8310 C   0  0  0  0  0  3  0  0  0  0  0  0
  184.1820  175.0280  137.5000 C   0  0  0  0  0  3  0  0  0  0  0  0
  187.7630  172.7570  136.8990 C   0  0  0  0  0  1  0  0  0  0  0  0
  185.4640  179.3640  142.3710 C   0  0  0  0  0  2  0  0  0  0  0  0
  184.5160  178.6400  143.3130 C   0  0  0  0  0  2  0  0  0  0  0  0
  186.9320  176.7060  143.4530 F   0  0  0  0  0  0  0  0  0  0  0  0
  185.2730  178.0690  144.4990 C   0  0  1  0  0  3  0  0  0  0  0  0
  186.7620  177.8790  144.1640 C   0  0  1  0  0  3  0  0  0  0  0  0
  186.8500  177.5380  146.5600 O   0  0  0  0  0  0  0  0  0  0  0  0
  186.0980  178.6980  146.8250 C   0  0  0  0  0  2  0  0  0  0  0  0
  185.0670  178.9730  145.7180 C   0  0  0  0  0  2  0  0  0  0  0  0
  187.6290  177.8370  145.4290 C   0  0  0  0  0  2  0  0  0  0  0  0
  1 12  1  6  0  0  0
  1  8  1  0  0  0  0
  2 13  1  0  0  0  0
  3  8  2  0  0  0  0
  3 17  1  0  0  0  0
  4 17  1  0  0  0  0
  4  9  2  0  0  0  0
  5  6  1  0  0  0  0
  6  2  2  0  0  0  0
  7 16  1  0  0  0  0
  8  2  1  0  0  0  0
  9 16  1  0  0  0  0
 10  1  1  0  0  0  0
 10  5  2  0  0  0  0
 11  3  1  0  0  0  0
 14  4  1  0  0  0  0
 15 11  1  0  0  0  0
 15 21  1  1  0  0  0
 15 14  1  0  0  0  0
 16 26  1  0  0  0  0
 17  7  2  0  0  0  0
 18 12  2  0  0  0  0
 18 11  1  0  0  0  0
 19 20  1  0  0  0  0
 20 22  2  0  0  0  0
 21 24  2  0  0  0  0
 23 21  1  0  0  0  0
 23 19  2  0  0  0  0
 24 22  1  0  0  0  0
 25 19  1  0  0  0  0
 26 27  1  0  0  0  0
 29 27  1  6  0  0  0
 29 33  1  0  0  0  0
 30 28  1  1  0  0  0
 30 29  1  0  0  0  0
 30 34  1  0  0  0  0
 31 32  1  0  0  0  0
 33 32  1  0  0  0  0
 34 31  1  0  0  0  0
M  END
>  <MODEL>
8

>  <REMARK>
 VINA RESULT:      -7.7      3.164      5.197
  Name = 
  4 active torsions:
  status: ('A' for Active; 'I' for Inactive)
    1  A    between atoms: C_3  and  C_13
    2  A    between atoms: C_3  and  C_17
    3  A    between atoms: C_12  and  C_28
    4  A    between atoms: C_17  and  N_29
                            x       y       z     vdW  Elec       q    Type
                         _______ _______ _______ _____ _____    ______ ____

>  <TORSDO>
F 4

$$$$
=
 OpenBabel10252415043D

 34 39  0  0  1  0  0  0  0  0999 V2000
  191.2600  174.5380  137.1750 C   0  0  0  0  0  0  0  0  0  0  0  0
  188.8930  174.0090  136.3130 C   0  0  2  0  0  3  0  0  0  0  0  0
  189.4070  176.0290  137.7200 C   0  0  0  0  0  0  0  0  0  0  0  0
  187.7040  177.7770  138.1720 C   0  0  0  0  0  0  0  0  0  0  0  0
  190.8980  172.8210  135.5240 N   0  0  0  0  0  0  0  0  0  0  0  0
  189.6190  173.0340  135.4250 C   0  0  0  0  0  3  0  0  0  0  0  0
  186.9040  176.0810  136.9930 C   0  0  0  0  0  3  0  0  0  0  0  0
  189.8320  174.9190  137.0720 C   0  0  0  0  0  0  0  0  0  0  0  0
  186.3870  178.0390  137.8710 C   0  0  0  0  0  3  0  0  0  0  0  0
  191.7400  173.5380  136.4370 C   0  0  0  0  0  3  0  0  0  0  0  0
  190.3350  176.7840  138.5450 N   0  0  0  0  0  0  0  0  0  0  0  0
  192.1660  175.3100  138.0270 C   0  0  0  0  0  3  0  0  0  0  0  0
  188.1220  173.2960  137.2150 F   0  0  0  0  0  0  0  0  0  0  0  0
  188.6950  178.6770  138.8340 C   0  0  0  0  0  2  0  0  0  0  0  0
  189.8670  177.8690  139.4280 C   0  0  1  0  0  3  0  0  0  0  0  0
  185.9170  176.9830  137.1740 N   0  0  0  0  0  0  0  0  0  0  0  0
  188.0360  176.5680  137.6180 C   0  0  0  0  0  0  0  0  0  0  0  0
  191.7070  176.3780  138.6750 C   0  0  0  0  0  3  0  0  0  0  0  0
  188.0720  177.2180  142.7270 C   0  0  0  0  0  0  0  0  0  0  0  0
  188.9870  176.3780  143.3670 C   0  0  0  0  0  3  0  0  0  0  0  0
  189.5420  177.3540  140.8000 C   0  0  0  0  0  0  0  0  0  0  0  0
  190.1800  176.0260  142.7270 C   0  0  0  0  0  3  0  0  0  0  0  0
  188.3480  177.7060  141.4470 C   0  0  0  0  0  3  0  0  0  0  0  0
  190.4570  176.5140  141.4470 C   0  0  0  0  0  3  0  0  0  0  0  0
  186.8050  177.5950  143.4060 C   0  0  0  0  0  1  0  0  0  0  0  0
  184.5730  176.8710  136.6350 C   0  0  0  0  0  2  0  0  0  0  0  0
  183.6780  176.1390  137.6210 C   0  0  0  0  0  2  0  0  0  0  0  0
  183.0550  176.7530  140.5940 F   0  0  0  0  0  0  0  0  0  0  0  0
  182.6880  177.0990  138.2590 C   0  0  1  0  0  3  0  0  0  0  0  0
  183.2430  177.6690  139.5750 C   0  0  1  0  0  3  0  0  0  0  0  0
  181.3380  179.1360  139.2800 O   0  0  0  0  0  0  0  0  0  0  0  0
  181.6660  179.4080  137.9390 C   0  0  0  0  0  2  0  0  0  0  0  0
  182.3310  178.2010  137.2580 C   0  0  0  0  0  2  0  0  0  0  0  0
  182.5640  178.9920  139.9510 C   0  0  0  0  0  2  0  0  0  0  0  0
  1 12  1  0  0  0  0
  2  8  1  0  0  0  0
  2 13  1  1  0  0  0
  3 11  1  0  0  0  0
  4 14  1  0  0  0  0
  5 10  1  0  0  0  0
  6  5  2  0  0  0  0
  6  2  1  0  0  0  0
  7 16  1  0  0  0  0
  7 17  2  0  0  0  0
  8  1  1  0  0  0  0
  8  3  2  0  0  0  0
  9  4  2  0  0  0  0
 10  1  2  0  0  0  0
 11 18  1  0  0  0  0
 11 15  1  0  0  0  0
 12 18  2  0  0  0  0
 14 15  1  0  0  0  0
 15 21  1  1  0  0  0
 16  9  1  0  0  0  0
 17  3  1  0  0  0  0
 17  4  1  0  0  0  0
 19 20  1  0  0  0  0
 19 25  1  0  0  0  0
 21 23  1  0  0  0  0
 21 24  2  0  0  0  0
 22 20  2  0  0  0  0
 23 19  2  0  0  0  0
 24 22  1  0  0  0  0
 26 16  1  0  0  0  0
 26 27  1  0  0  0  0
 29 27  1  6  0  0  0
 29 30  1  0  0  0  0
 30 34  1  0  0  0  0
 30 28  1  1  0  0  0
 31 34  1  0  0  0  0
 32 31  1  0  0  0  0
 33 32  1  0  0  0  0
 33 29  1  0  0  0  0
M  END
>  <MODEL>
9

>  <REMARK>
 VINA RESULT:      -7.7      3.727      8.326
  Name = 
  4 active torsions:
  status: ('A' for Active; 'I' for Inactive)
    1  A    between atoms: C_3  and  C_13
    2  A    between atoms: C_3  and  C_17
    3  A    between atoms: C_12  and  C_28
    4  A    between atoms: C_17  and  N_29
                            x       y       z     vdW  Elec       q    Type
                         _______ _______ _______ _____ _____    ______ ____

>  <TORSDO>
F 4

$$$$
