=
 OpenBabel10262421223D

 32 36  0  0  0  0  0  0  0  0999 V2000
  187.8680  177.9930  142.3800 C   0  0  0  0  0  0  0  0  0  0  0  0
  183.1950  179.0520  143.3710 C   0  0  0  0  0  3  0  0  0  0  0  0
  183.4530  178.9210  144.7350 C   0  0  0  0  0  3  0  0  0  0  0  0
  189.4240  177.5180  144.3180 C   0  0  0  0  0  0  0  0  0  0  0  0
  189.5380  177.4210  145.6670 N   0  0  0  0  0  0  0  0  0  0  0  0
  188.6030  177.9550  140.0440 C   0  0  0  0  0  0  0  0  0  0  0  0
  186.3010  178.4500  140.5620 C   0  0  0  0  0  3  0  0  0  0  0  0
  188.9430  177.4530  147.7880 C   0  0  0  0  0  0  0  0  0  0  0  0
  184.2220  178.8550  142.4470 C   0  0  0  0  0  3  0  0  0  0  0  0
  186.5570  178.3250  141.9380 C   0  0  0  0  0  0  0  0  0  0  0  0
  185.5230  178.5240  142.8710 C   0  0  0  0  0  0  0  0  0  0  0  0
  187.0680  178.0600  144.7060 C   0  0  0  0  0  0  0  0  0  0  0  0
  190.2920  177.1350  147.6780 C   0  0  0  0  0  3  0  0  0  0  0  0
  187.3000  178.2490  139.6120 C   0  0  0  0  0  0  0  0  0  0  0  0
  190.6260  177.1230  146.3620 N   0  0  0  0  0  0  0  0  0  0  0  0
  189.6480  177.8270  139.1390 O   0  0  0  0  0  1  0  0  0  0  0  0
  184.7370  178.5930  145.1720 C   0  0  0  0  0  3  0  0  0  0  0  0
  185.7810  178.3910  144.2530 C   0  0  0  0  0  0  0  0  0  0  0  0
  187.2870  177.9390  146.0490 N   0  0  0  0  0  0  0  0  0  0  0  0
  188.8670  177.8230  141.4070 C   0  0  0  0  0  3  0  0  0  0  0  0
  190.6450  177.2640  143.4890 C   0  0  0  0  0  1  0  0  0  0  0  0
  188.1440  177.5790  149.0370 C   0  0  0  0  0  1  0  0  0  0  0  0
  188.1400  177.8530  143.7740 C   0  0  0  0  0  0  0  0  0  0  0  0
  188.5190  177.6210  146.4970 C   0  0  0  0  0  0  0  0  0  0  0  0
  186.9710  178.3890  138.2580 O   0  0  0  0  0  0  0  0  0  0  0  0
  186.2740  176.4870  137.1860 O   0  0  0  0  0  0  0  0  0  0  0  0
  185.9860  177.6370  137.6110 C   0  0  0  0  0  0  0  0  0  0  0  0
  184.7140  178.1730  137.3960 O   0  0  0  0  0  0  0  0  0  0  0  0
  183.6610  178.0110  138.3360 C   0  0  0  0  0  2  0  0  0  0  0  0
  183.1860  179.3470  138.7830 C   0  0  0  0  0  0  0  0  0  0  0  0
  184.0970  180.3760  138.9820 O   0  0  0  0  0  1  0  0  0  0  0  0
  181.9560  179.5560  138.9420 O   0  0  0  0  0  0  0  0  0  0  0  0
  1 23  1  0  0  0  0
  2  3  1  0  0  0  0
  3 17  2  0  0  0  0
  4  5  1  0  0  0  0
  5 15  1  0  0  0  0
  5 24  1  0  0  0  0
  6 20  1  0  0  0  0
  7 10  2  0  0  0  0
  8 22  1  0  0  0  0
  9 11  1  0  0  0  0
  9  2  2  0  0  0  0
 10  1  1  0  0  0  0
 10 11  1  0  0  0  0
 11 18  2  0  0  0  0
 12 19  2  0  0  0  0
 13  8  1  0  0  0  0
 14  6  2  0  0  0  0
 14  7  1  0  0  0  0
 15 13  2  0  0  0  0
 16  6  1  0  0  0  0
 18 12  1  0  0  0  0
 18 17  1  0  0  0  0
 19 24  1  0  0  0  0
 20  1  2  0  0  0  0
 21  4  1  0  0  0  0
 23  4  2  0  0  0  0
 23 12  1  0  0  0  0
 24  8  2  0  0  0  0
 25 14  1  0  0  0  0
 26 27  2  0  0  0  0
 27 25  1  0  0  0  0
 28 27  1  0  0  0  0
 28 29  1  0  0  0  0
 29 30  1  0  0  0  0
 30 32  2  0  0  0  0
 30 31  1  0  0  0  0
M  END
>  <MODEL>
1

>  <REMARK>
 VINA RESULT:      -9.9      0.000      0.000
  Name = 
  5 active torsions:
  status: ('A' for Active; 'I' for Inactive)
    1  A    between atoms: C_1  and  C_10
    2  A    between atoms: C_10  and  O_24
    3  A    between atoms: O_12  and  C_19
    4  A    between atoms: O_12  and  C_21
    5  A    between atoms: C_19  and  O_24
                            x       y       z     vdW  Elec       q    Type
                         _______ _______ _______ _____ _____    ______ ____

>  <TORSDO>
F 5

$$$$
=
 OpenBabel10262421223D

 32 36  0  0  0  0  0  0  0  0999 V2000
  188.7110  177.7100  141.5260 C   0  0  0  0  0  0  0  0  0  0  0  0
  191.7600  176.4240  145.1310 C   0  0  0  0  0  3  0  0  0  0  0  0
  190.7530  176.6560  146.0670 C   0  0  0  0  0  3  0  0  0  0  0  0
  186.3560  178.4020  142.1400 C   0  0  0  0  0  0  0  0  0  0  0  0
  185.4700  178.5900  143.1510 N   0  0  0  0  0  0  0  0  0  0  0  0
  189.5180  177.6470  139.2150 C   0  0  0  0  0  0  0  0  0  0  0  0
  191.0050  177.0420  141.0140 C   0  0  0  0  0  3  0  0  0  0  0  0
  184.6800  178.6540  145.2070 C   0  0  0  0  0  0  0  0  0  0  0  0
  191.5080  176.6260  143.7730 C   0  0  0  0  0  3  0  0  0  0  0  0
  189.9920  177.2690  141.9610 C   0  0  0  0  0  0  0  0  0  0  0  0
  190.2450  177.0640  143.3300 C   0  0  0  0  0  0  0  0  0  0  0  0
  187.9580  177.7380  143.8690 C   0  0  0  0  0  0  0  0  0  0  0  0
  183.6960  179.0490  144.3070 C   0  0  0  0  0  3  0  0  0  0  0  0
  190.7900  177.2450  139.6520 C   0  0  0  0  0  0  0  0  0  0  0  0
  184.2140  178.9990  143.0530 N   0  0  0  0  0  0  0  0  0  0  0  0
  189.2340  177.7840  137.8620 O   0  0  0  0  0  1  0  0  0  0  0  0
  189.4970  177.0910  145.6440 C   0  0  0  0  0  3  0  0  0  0  0  0
  189.2280  177.2990  144.2810 C   0  0  0  0  0  0  0  0  0  0  0  0
  186.9950  177.9570  144.8120 N   0  0  0  0  0  0  0  0  0  0  0  0
  188.5080  177.8810  140.1470 C   0  0  0  0  0  3  0  0  0  0  0  0
  185.8970  178.6800  140.7420 C   0  0  0  0  0  1  0  0  0  0  0  0
  184.5640  178.5570  146.6870 C   0  0  0  0  0  1  0  0  0  0  0  0
  187.6760  177.9530  142.4780 C   0  0  0  0  0  0  0  0  0  0  0  0
  185.7730  178.3790  144.4290 C   0  0  0  0  0  0  0  0  0  0  0  0
  191.8470  177.0000  138.7660 O   0  0  0  0  0  0  0  0  0  0  0  0
  191.2250  174.8620  138.2210 O   0  0  0  0  0  0  0  0  0  0  0  0
  192.1170  175.7520  138.1980 C   0  0  0  0  0  0  0  0  0  0  0  0
  193.3760  175.4780  137.6560 O   0  0  0  0  0  0  0  0  0  0  0  0
  193.8870  174.1560  137.5750 C   0  0  0  0  0  2  0  0  0  0  0  0
  194.9970  173.9940  138.5520 C   0  0  0  0  0  0  0  0  0  0  0  0
  195.5950  175.1130  139.1140 O   0  0  0  0  0  1  0  0  0  0  0  0
  195.3670  172.8420  138.8980 O   0  0  0  0  0  0  0  0  0  0  0  0
  1 10  1  0  0  0  0
  1 23  1  0  0  0  0
  2  3  1  0  0  0  0
  4 23  2  0  0  0  0
  4  5  1  0  0  0  0
  5 24  1  0  0  0  0
  6 14  2  0  0  0  0
  6 20  1  0  0  0  0
  7 10  2  0  0  0  0
  8 22  1  0  0  0  0
  9  2  2  0  0  0  0
 10 11  1  0  0  0  0
 11  9  1  0  0  0  0
 11 18  2  0  0  0  0
 12 18  1  0  0  0  0
 12 19  2  0  0  0  0
 13  8  1  0  0  0  0
 14  7  1  0  0  0  0
 15  5  1  0  0  0  0
 15 13  2  0  0  0  0
 16  6  1  0  0  0  0
 17  3  2  0  0  0  0
 18 17  1  0  0  0  0
 20  1  2  0  0  0  0
 21  4  1  0  0  0  0
 23 12  1  0  0  0  0
 24 19  1  0  0  0  0
 24  8  2  0  0  0  0
 25 14  1  0  0  0  0
 27 26  2  0  0  0  0
 27 25  1  0  0  0  0
 28 27  1  0  0  0  0
 29 28  1  0  0  0  0
 29 30  1  0  0  0  0
 30 32  2  0  0  0  0
 30 31  1  0  0  0  0
M  END
>  <MODEL>
2

>  <REMARK>
 VINA RESULT:      -9.9      3.194      6.668
  Name = 
  5 active torsions:
  status: ('A' for Active; 'I' for Inactive)
    1  A    between atoms: C_1  and  C_10
    2  A    between atoms: C_10  and  O_24
    3  A    between atoms: O_12  and  C_19
    4  A    between atoms: O_12  and  C_21
    5  A    between atoms: C_19  and  O_24
                            x       y       z     vdW  Elec       q    Type
                         _______ _______ _______ _____ _____    ______ ____

>  <TORSDO>
F 5

$$$$
=
 OpenBabel10262421223D

 32 36  0  0  0  0  0  0  0  0999 V2000
  186.6470  178.2540  142.1760 C   0  0  0  0  0  0  0  0  0  0  0  0
  186.3060  178.0470  147.0530 C   0  0  0  0  0  3  0  0  0  0  0  0
  184.9310  178.2560  146.9670 C   0  0  0  0  0  3  0  0  0  0  0  0
  184.5310  178.6450  140.8450 C   0  0  0  0  0  0  0  0  0  0  0  0
  183.1890  178.8430  140.9030 N   0  0  0  0  0  0  0  0  0  0  0  0
  188.8420  177.9650  141.1300 C   0  0  0  0  0  0  0  0  0  0  0  0
  188.6470  177.8920  143.5320 C   0  0  0  0  0  3  0  0  0  0  0  0
  181.1850  179.0960  141.7830 C   0  0  0  0  0  0  0  0  0  0  0  0
  187.0760  177.9940  145.8900 C   0  0  0  0  0  3  0  0  0  0  0  0
  187.2590  178.0970  143.4510 C   0  0  0  0  0  0  0  0  0  0  0  0
  186.4820  178.1500  144.6230 C   0  0  0  0  0  0  0  0  0  0  0  0
  184.4680  178.5230  143.2890 C   0  0  0  0  0  0  0  0  0  0  0  0
  181.1100  179.1830  140.3970 C   0  0  0  0  0  3  0  0  0  0  0  0
  189.4460  177.8460  142.3910 C   0  0  0  0  0  0  0  0  0  0  0  0
  182.3580  179.0240  139.8870 N   0  0  0  0  0  0  0  0  0  0  0  0
  189.5850  177.8440  139.9630 O   0  0  0  0  0  1  0  0  0  0  0  0
  184.3270  178.4130  145.7190 C   0  0  0  0  0  3  0  0  0  0  0  0
  185.0890  178.3620  144.5390 C   0  0  0  0  0  0  0  0  0  0  0  0
  183.1180  178.7270  143.2410 N   0  0  0  0  0  0  0  0  0  0  0  0
  187.4660  178.1750  141.0380 C   0  0  0  0  0  3  0  0  0  0  0  0
  185.1800  178.6270  139.4960 C   0  0  0  0  0  1  0  0  0  0  0  0
  180.0660  179.2110  142.7570 C   0  0  0  0  0  1  0  0  0  0  0  0
  185.2390  178.4720  142.0800 C   0  0  0  0  0  0  0  0  0  0  0  0
  182.5110  178.8830  142.0470 C   0  0  0  0  0  0  0  0  0  0  0  0
  190.8220  177.6400  142.5490 O   0  0  0  0  0  0  0  0  0  0  0  0
  192.0190  178.9890  143.9640 O   0  0  0  0  0  0  0  0  0  0  0  0
  191.5130  177.8560  143.7450 C   0  0  0  0  0  0  0  0  0  0  0  0
  191.6820  176.8160  144.6620 O   0  0  0  0  0  0  0  0  0  0  0  0
  190.9630  176.7690  145.8860 C   0  0  0  0  0  2  0  0  0  0  0  0
  191.8690  176.3200  146.9760 C   0  0  0  0  0  0  0  0  0  0  0  0
  192.0550  177.1180  148.0970 O   0  0  0  0  0  1  0  0  0  0  0  0
  192.4360  175.2000  146.9010 O   0  0  0  0  0  0  0  0  0  0  0  0
  1 10  1  0  0  0  0
  3  2  1  0  0  0  0
  4  5  1  0  0  0  0
  4 23  2  0  0  0  0
  5 24  1  0  0  0  0
  6 14  2  0  0  0  0
  8 24  2  0  0  0  0
  8 22  1  0  0  0  0
  9  2  2  0  0  0  0
 10  7  2  0  0  0  0
 10 11  1  0  0  0  0
 11  9  1  0  0  0  0
 12 18  1  0  0  0  0
 13  8  1  0  0  0  0
 14 25  1  0  0  0  0
 14  7  1  0  0  0  0
 15 13  2  0  0  0  0
 15  5  1  0  0  0  0
 16  6  1  0  0  0  0
 17  3  2  0  0  0  0
 18 11  2  0  0  0  0
 18 17  1  0  0  0  0
 19 12  2  0  0  0  0
 20  6  1  0  0  0  0
 20  1  2  0  0  0  0
 21  4  1  0  0  0  0
 23  1  1  0  0  0  0
 23 12  1  0  0  0  0
 24 19  1  0  0  0  0
 25 27  1  0  0  0  0
 27 26  2  0  0  0  0
 27 28  1  0  0  0  0
 28 29  1  0  0  0  0
 29 30  1  0  0  0  0
 30 31  1  0  0  0  0
 32 30  2  0  0  0  0
M  END
>  <MODEL>
3

>  <REMARK>
 VINA RESULT:      -9.9      3.673      7.315
  Name = 
  5 active torsions:
  status: ('A' for Active; 'I' for Inactive)
    1  A    between atoms: C_1  and  C_10
    2  A    between atoms: C_10  and  O_24
    3  A    between atoms: O_12  and  C_19
    4  A    between atoms: O_12  and  C_21
    5  A    between atoms: C_19  and  O_24
                            x       y       z     vdW  Elec       q    Type
                         _______ _______ _______ _____ _____    ______ ____

>  <TORSDO>
F 5

$$$$
=
 OpenBabel10262421223D

 32 36  0  0  0  0  0  0  0  0999 V2000
  185.4250  178.5330  141.8400 C   0  0  0  0  0  0  0  0  0  0  0  0
  186.5190  178.1190  146.5920 C   0  0  0  0  0  3  0  0  0  0  0  0
  185.1720  178.2790  146.9170 C   0  0  0  0  0  3  0  0  0  0  0  0
  183.0050  178.8950  141.1960 C   0  0  0  0  0  0  0  0  0  0  0  0
  181.7330  179.0380  141.6490 N   0  0  0  0  0  0  0  0  0  0  0  0
  187.2290  178.3700  140.1920 C   0  0  0  0  0  0  0  0  0  0  0  0
  187.7410  178.1950  142.5420 C   0  0  0  0  0  3  0  0  0  0  0  0
  180.0650  179.1790  143.0810 C   0  0  0  0  0  0  0  0  0  0  0  0
  186.9190  178.1420  145.2550 C   0  0  0  0  0  3  0  0  0  0  0  0
  186.3840  178.3490  142.8750 C   0  0  0  0  0  0  0  0  0  0  0  0
  185.9800  178.3250  144.2220 C   0  0  0  0  0  0  0  0  0  0  0  0
  183.6570  178.6730  143.5460 C   0  0  0  0  0  0  0  0  0  0  0  0
  179.5890  179.3180  141.7810 C   0  0  0  0  0  3  0  0  0  0  0  0
  188.1760  178.2240  141.2180 C   0  0  0  0  0  0  0  0  0  0  0  0
  180.6400  179.2270  140.9260 N   0  0  0  0  0  0  0  0  0  0  0  0
  187.6060  178.3250  138.8560 O   0  0  0  0  0  1  0  0  0  0  0  0
  184.2290  178.4620  145.9050 C   0  0  0  0  0  3  0  0  0  0  0  0
  184.6170  178.4870  144.5550 C   0  0  0  0  0  0  0  0  0  0  0  0
  182.3460  178.8270  143.8990 N   0  0  0  0  0  0  0  0  0  0  0  0
  185.8810  178.5300  140.5120 C   0  0  0  0  0  3  0  0  0  0  0  0
  183.2360  178.9550  139.7180 C   0  0  0  0  0  1  0  0  0  0  0  0
  179.2730  179.2120  144.3410 C   0  0  0  0  0  1  0  0  0  0  0  0
  184.0460  178.7000  142.1650 C   0  0  0  0  0  0  0  0  0  0  0  0
  181.4160  179.0060  142.9400 C   0  0  0  0  0  0  0  0  0  0  0  0
  189.5440  178.0650  140.9620 O   0  0  0  0  0  0  0  0  0  0  0  0
  190.4930  176.2030  140.0210 O   0  0  0  0  0  0  0  0  0  0  0  0
  190.2230  176.8480  141.0690 C   0  0  0  0  0  0  0  0  0  0  0  0
  190.5530  176.3300  142.3240 O   0  0  0  0  0  0  0  0  0  0  0  0
  191.6430  176.8340  143.0820 C   0  0  0  0  0  2  0  0  0  0  0  0
  191.1530  177.8770  144.0220 C   0  0  0  0  0  0  0  0  0  0  0  0
  190.5530  177.5060  145.2180 O   0  0  0  0  0  1  0  0  0  0  0  0
  191.3170  179.0940  143.7510 O   0  0  0  0  0  0  0  0  0  0  0  0
  1 23  1  0  0  0  0
  1 10  1  0  0  0  0
  2  3  1  0  0  0  0
  4  5  1  0  0  0  0
  4 23  2  0  0  0  0
  5 24  1  0  0  0  0
  6 20  1  0  0  0  0
  6 14  2  0  0  0  0
  7 10  2  0  0  0  0
  8 22  1  0  0  0  0
  9  2  2  0  0  0  0
 10 11  1  0  0  0  0
 11 18  2  0  0  0  0
 11  9  1  0  0  0  0
 12 19  2  0  0  0  0
 12 18  1  0  0  0  0
 13  8  1  0  0  0  0
 14  7  1  0  0  0  0
 15  5  1  0  0  0  0
 15 13  2  0  0  0  0
 16  6  1  0  0  0  0
 17  3  2  0  0  0  0
 18 17  1  0  0  0  0
 20  1  2  0  0  0  0
 21  4  1  0  0  0  0
 23 12  1  0  0  0  0
 24  8  2  0  0  0  0
 24 19  1  0  0  0  0
 25 27  1  0  0  0  0
 25 14  1  0  0  0  0
 26 27  2  0  0  0  0
 27 28  1  0  0  0  0
 28 29  1  0  0  0  0
 29 30  1  0  0  0  0
 30 31  1  0  0  0  0
 32 30  2  0  0  0  0
M  END
>  <MODEL>
4

>  <REMARK>
 VINA RESULT:      -9.8      3.089      6.673
  Name = 
  5 active torsions:
  status: ('A' for Active; 'I' for Inactive)
    1  A    between atoms: C_1  and  C_10
    2  A    between atoms: C_10  and  O_24
    3  A    between atoms: O_12  and  C_19
    4  A    between atoms: O_12  and  C_21
    5  A    between atoms: C_19  and  O_24
                            x       y       z     vdW  Elec       q    Type
                         _______ _______ _______ _____ _____    ______ ____

>  <TORSDO>
F 5

$$$$
=
 OpenBabel10262421223D

 32 36  0  0  0  0  0  0  0  0999 V2000
  187.0730  178.1310  141.8630 C   0  0  0  0  0  0  0  0  0  0  0  0
  183.5250  178.9200  145.1400 C   0  0  0  0  0  3  0  0  0  0  0  0
  184.4050  178.5940  146.1720 C   0  0  0  0  0  3  0  0  0  0  0  0
  189.3460  177.4130  142.7100 C   0  0  0  0  0  0  0  0  0  0  0  0
  190.0950  177.1200  143.8050 N   0  0  0  0  0  0  0  0  0  0  0  0
  186.5820  178.4570  139.4860 C   0  0  0  0  0  0  0  0  0  0  0  0
  184.8470  178.8150  141.1220 C   0  0  0  0  0  3  0  0  0  0  0  0
  190.6030  176.8240  145.9280 C   0  0  0  0  0  0  0  0  0  0  0  0
  183.9650  178.8860  143.8150 C   0  0  0  0  0  3  0  0  0  0  0  0
  185.7310  178.4930  142.1670 C   0  0  0  0  0  0  0  0  0  0  0  0
  185.2890  178.5280  143.5010 C   0  0  0  0  0  0  0  0  0  0  0  0
  187.5050  177.8350  144.2670 C   0  0  0  0  0  0  0  0  0  0  0  0
  191.7120  176.5580  145.1320 C   0  0  0  0  0  3  0  0  0  0  0  0
  185.2500  178.7800  139.7880 C   0  0  0  0  0  0  0  0  0  0  0  0
  191.3660  176.7490  143.8330 N   0  0  0  0  0  0  0  0  0  0  0  0
  187.0500  178.4890  138.1780 O   0  0  0  0  0  1  0  0  0  0  0  0
  185.7210  178.2360  145.8780 C   0  0  0  0  0  3  0  0  0  0  0  0
  186.1780  178.1980  144.5490 C   0  0  0  0  0  0  0  0  0  0  0  0
  188.3400  177.5220  145.3020 N   0  0  0  0  0  0  0  0  0  0  0  0
  187.4660  178.1310  140.5140 C   0  0  0  0  0  3  0  0  0  0  0  0
  189.9980  177.3130  141.3660 C   0  0  0  0  0  1  0  0  0  0  0  0
  190.5160  176.7450  147.4110 C   0  0  0  0  0  1  0  0  0  0  0  0
  187.9780  177.7940  142.9130 C   0  0  0  0  0  0  0  0  0  0  0  0
  189.6160  177.1710  145.0440 C   0  0  0  0  0  0  0  0  0  0  0  0
  184.3140  179.1110  138.8000 O   0  0  0  0  0  0  0  0  0  0  0  0
  183.0480  181.0220  138.8420 O   0  0  0  0  0  0  0  0  0  0  0  0
  183.1140  179.7810  139.0540 C   0  0  0  0  0  0  0  0  0  0  0  0
  182.0170  179.0950  139.5820 O   0  0  0  0  0  0  0  0  0  0  0  0
  180.8360  179.7680  139.9930 C   0  0  0  0  0  2  0  0  0  0  0  0
  180.6180  179.5420  141.4470 C   0  0  0  0  0  0  0  0  0  0  0  0
  180.1040  180.5600  142.2380 O   0  0  0  0  0  1  0  0  0  0  0  0
  180.8620  178.4160  141.9510 O   0  0  0  0  0  0  0  0  0  0  0  0
  1 10  1  0  0  0  0
  1 23  1  0  0  0  0
  2  3  1  0  0  0  0
  4 23  2  0  0  0  0
  4  5  1  0  0  0  0
  5 15  1  0  0  0  0
  5 24  1  0  0  0  0
  6 14  2  0  0  0  0
  6 20  1  0  0  0  0
  7 10  2  0  0  0  0
  8 22  1  0  0  0  0
  9  2  2  0  0  0  0
 10 11  1  0  0  0  0
 11  9  1  0  0  0  0
 11 18  2  0  0  0  0
 12 18  1  0  0  0  0
 12 19  2  0  0  0  0
 13  8  1  0  0  0  0
 14  7  1  0  0  0  0
 15 13  2  0  0  0  0
 16  6  1  0  0  0  0
 17  3  2  0  0  0  0
 18 17  1  0  0  0  0
 20  1  2  0  0  0  0
 21  4  1  0  0  0  0
 23 12  1  0  0  0  0
 24 19  1  0  0  0  0
 24  8  2  0  0  0  0
 25 27  1  0  0  0  0
 25 14  1  0  0  0  0
 26 27  2  0  0  0  0
 27 28  1  0  0  0  0
 28 29  1  0  0  0  0
 29 30  1  0  0  0  0
 30 32  2  0  0  0  0
 30 31  1  0  0  0  0
M  END
>  <MODEL>
5

>  <REMARK>
 VINA RESULT:      -9.8      1.629      2.619
  Name = 
  5 active torsions:
  status: ('A' for Active; 'I' for Inactive)
    1  A    between atoms: C_1  and  C_10
    2  A    between atoms: C_10  and  O_24
    3  A    between atoms: O_12  and  C_19
    4  A    between atoms: O_12  and  C_21
    5  A    between atoms: C_19  and  O_24
                            x       y       z     vdW  Elec       q    Type
                         _______ _______ _______ _____ _____    ______ ____

>  <TORSDO>
F 5

$$$$
=
 OpenBabel10262421223D

 32 36  0  0  0  0  0  0  0  0999 V2000
  187.8940  177.9920  142.2930 C   0  0  0  0  0  0  0  0  0  0  0  0
  183.1780  179.0030  143.1180 C   0  0  0  0  0  3  0  0  0  0  0  0
  183.3880  178.8660  144.4900 C   0  0  0  0  0  3  0  0  0  0  0  0
  189.3830  177.5210  144.2840 C   0  0  0  0  0  0  0  0  0  0  0  0
  189.4490  177.4180  145.6360 N   0  0  0  0  0  0  0  0  0  0  0  0
  188.7140  177.9740  139.9850 C   0  0  0  0  0  0  0  0  0  0  0  0
  186.3900  178.4450  140.4210 C   0  0  0  0  0  3  0  0  0  0  0  0
  188.7760  177.4330  147.7330 C   0  0  0  0  0  0  0  0  0  0  0  0
  184.2400  178.8200  142.2310 C   0  0  0  0  0  3  0  0  0  0  0  0
  186.5970  178.3140  141.8050 C   0  0  0  0  0  0  0  0  0  0  0  0
  185.5280  178.4990  142.7000 C   0  0  0  0  0  0  0  0  0  0  0  0
  187.0100  178.0400  144.5890 C   0  0  0  0  0  0  0  0  0  0  0  0
  190.1310  177.1280  147.6710 C   0  0  0  0  0  3  0  0  0  0  0  0
  187.4260  178.2580  139.5070 C   0  0  0  0  0  0  0  0  0  0  0  0
  190.5130  177.1270  146.3680 N   0  0  0  0  0  0  0  0  0  0  0  0
  189.7930  177.8600  139.1180 O   0  0  0  0  0  1  0  0  0  0  0  0
  184.6570  178.5480  144.9710 C   0  0  0  0  0  3  0  0  0  0  0  0
  185.7360  178.3610  144.0900 C   0  0  0  0  0  0  0  0  0  0  0  0
  187.1800  177.9130  145.9380 N   0  0  0  0  0  0  0  0  0  0  0  0
  188.9290  177.8370  141.3560 C   0  0  0  0  0  3  0  0  0  0  0  0
  190.6360  177.2830  143.4990 C   0  0  0  0  0  1  0  0  0  0  0  0
  187.9300  177.5450  148.9530 C   0  0  0  0  0  1  0  0  0  0  0  0
  188.1160  177.8480  143.6950 C   0  0  0  0  0  0  0  0  0  0  0  0
  188.3980  177.6040  146.4290 C   0  0  0  0  0  0  0  0  0  0  0  0
  187.1450  178.4020  138.1430 O   0  0  0  0  0  0  0  0  0  0  0  0
  185.5330  177.0780  137.1920 O   0  0  0  0  0  0  0  0  0  0  0  0
  186.7580  177.3490  137.3090 C   0  0  0  0  0  0  0  0  0  0  0  0
  187.7200  176.5760  136.6530 O   0  0  0  0  0  0  0  0  0  0  0  0
  188.0850  175.2830  137.1110 C   0  0  0  0  0  2  0  0  0  0  0  0
  189.5570  175.1120  136.9910 C   0  0  0  0  0  0  0  0  0  0  0  0
  190.1810  174.0280  137.5930 O   0  0  0  0  0  1  0  0  0  0  0  0
  190.2310  175.9280  136.3120 O   0  0  0  0  0  0  0  0  0  0  0  0
  1 23  1  0  0  0  0
  2  3  1  0  0  0  0
  3 17  2  0  0  0  0
  4  5  1  0  0  0  0
  5 15  1  0  0  0  0
  5 24  1  0  0  0  0
  6 20  1  0  0  0  0
  7 10  2  0  0  0  0
  8 22  1  0  0  0  0
  9 11  1  0  0  0  0
  9  2  2  0  0  0  0
 10  1  1  0  0  0  0
 10 11  1  0  0  0  0
 11 18  2  0  0  0  0
 12 19  2  0  0  0  0
 13  8  1  0  0  0  0
 14  6  2  0  0  0  0
 14  7  1  0  0  0  0
 15 13  2  0  0  0  0
 16  6  1  0  0  0  0
 18 12  1  0  0  0  0
 18 17  1  0  0  0  0
 19 24  1  0  0  0  0
 20  1  2  0  0  0  0
 21  4  1  0  0  0  0
 23  4  2  0  0  0  0
 23 12  1  0  0  0  0
 24  8  2  0  0  0  0
 25 14  1  0  0  0  0
 26 27  2  0  0  0  0
 27 25  1  0  0  0  0
 28 29  1  0  0  0  0
 28 27  1  0  0  0  0
 30 29  1  0  0  0  0
 30 31  1  0  0  0  0
 32 30  2  0  0  0  0
M  END
>  <MODEL>
6

>  <REMARK>
 VINA RESULT:      -9.8      1.420      2.918
  Name = 
  5 active torsions:
  status: ('A' for Active; 'I' for Inactive)
    1  A    between atoms: C_1  and  C_10
    2  A    between atoms: C_10  and  O_24
    3  A    between atoms: O_12  and  C_19
    4  A    between atoms: O_12  and  C_21
    5  A    between atoms: C_19  and  O_24
                            x       y       z     vdW  Elec       q    Type
                         _______ _______ _______ _____ _____    ______ ____

>  <TORSDO>
F 5

$$$$
=
 OpenBabel10262421223D

 32 36  0  0  0  0  0  0  0  0999 V2000
  189.1010  177.5470  142.2120 C   0  0  0  0  0  0  0  0  0  0  0  0
  184.3760  178.8170  142.2620 C   0  0  0  0  0  3  0  0  0  0  0  0
  184.3850  178.7980  143.6560 C   0  0  0  0  0  3  0  0  0  0  0  0
  190.2710  177.2010  144.4290 C   0  0  0  0  0  0  0  0  0  0  0  0
  190.1420  177.2190  145.7800 N   0  0  0  0  0  0  0  0  0  0  0  0
  190.2340  177.2860  140.0560 C   0  0  0  0  0  0  0  0  0  0  0  0
  187.9000  177.8870  140.1120 C   0  0  0  0  0  3  0  0  0  0  0  0
  189.1840  177.4520  147.7500 C   0  0  0  0  0  0  0  0  0  0  0  0
  185.5400  178.5120  141.5550 C   0  0  0  0  0  3  0  0  0  0  0  0
  187.9040  177.8760  141.5170 C   0  0  0  0  0  0  0  0  0  0  0  0
  186.7310  178.1840  142.2300 C   0  0  0  0  0  0  0  0  0  0  0  0
  187.9090  177.8400  144.3440 C   0  0  0  0  0  0  0  0  0  0  0  0
  190.5170  177.0890  147.9100 C   0  0  0  0  0  3  0  0  0  0  0  0
  189.0410  177.5770  139.3760 C   0  0  0  0  0  0  0  0  0  0  0  0
  191.0770  176.9530  146.6800 N   0  0  0  0  0  0  0  0  0  0  0  0
  191.4160  177.0500  139.3660 O   0  0  0  0  0  1  0  0  0  0  0  0
  185.5560  178.4740  144.3410 C   0  0  0  0  0  3  0  0  0  0  0  0
  186.7360  178.1650  143.6430 C   0  0  0  0  0  0  0  0  0  0  0  0
  187.8820  177.8300  145.7100 N   0  0  0  0  0  0  0  0  0  0  0  0
  190.2480  177.2660  141.4510 C   0  0  0  0  0  3  0  0  0  0  0  0
  191.6070  176.8410  143.8550 C   0  0  0  0  0  1  0  0  0  0  0  0
  188.1840  177.7090  148.8220 C   0  0  0  0  0  1  0  0  0  0  0  0
  189.1170  177.5230  143.6390 C   0  0  0  0  0  0  0  0  0  0  0  0
  189.0020  177.5190  146.3950 C   0  0  0  0  0  0  0  0  0  0  0  0
  188.9620  177.6070  137.9780 O   0  0  0  0  0  0  0  0  0  0  0  0
  189.0090  179.7950  137.2970 O   0  0  0  0  0  0  0  0  0  0  0  0
  188.4330  178.6760  137.2480 C   0  0  0  0  0  0  0  0  0  0  0  0
  187.2550  178.5170  136.5140 O   0  0  0  0  0  0  0  0  0  0  0  0
  186.4230  177.3760  136.6650 C   0  0  0  0  0  2  0  0  0  0  0  0
  185.2560  177.7240  137.5180 C   0  0  0  0  0  0  0  0  0  0  0  0
  185.2370  178.9270  138.2120 O   0  0  0  0  0  1  0  0  0  0  0  0
  184.2700  176.9470  137.5810 O   0  0  0  0  0  0  0  0  0  0  0  0
  1 23  1  0  0  0  0
  2  3  1  0  0  0  0
  3 17  2  0  0  0  0
  4  5  1  0  0  0  0
  5 24  1  0  0  0  0
  5 15  1  0  0  0  0
  6 20  1  0  0  0  0
  7 10  2  0  0  0  0
  8 13  1  0  0  0  0
  8 22  1  0  0  0  0
  9 11  1  0  0  0  0
  9  2  2  0  0  0  0
 10  1  1  0  0  0  0
 10 11  1  0  0  0  0
 11 18  2  0  0  0  0
 12 19  2  0  0  0  0
 14  6  2  0  0  0  0
 14  7  1  0  0  0  0
 15 13  2  0  0  0  0
 16  6  1  0  0  0  0
 18 17  1  0  0  0  0
 18 12  1  0  0  0  0
 19 24  1  0  0  0  0
 20  1  2  0  0  0  0
 21  4  1  0  0  0  0
 23 12  1  0  0  0  0
 23  4  2  0  0  0  0
 24  8  2  0  0  0  0
 25 14  1  0  0  0  0
 27 26  2  0  0  0  0
 27 25  1  0  0  0  0
 28 29  1  0  0  0  0
 28 27  1  0  0  0  0
 29 30  1  0  0  0  0
 30 32  2  0  0  0  0
 30 31  1  0  0  0  0
M  END
>  <MODEL>
7

>  <REMARK>
 VINA RESULT:      -9.8      1.309      1.875
  Name = 
  5 active torsions:
  status: ('A' for Active; 'I' for Inactive)
    1  A    between atoms: C_1  and  C_10
    2  A    between atoms: C_10  and  O_24
    3  A    between atoms: O_12  and  C_19
    4  A    between atoms: O_12  and  C_21
    5  A    between atoms: C_19  and  O_24
                            x       y       z     vdW  Elec       q    Type
                         _______ _______ _______ _____ _____    ______ ____

>  <TORSDO>
F 5

$$$$
=
 OpenBabel10262421223D

 32 36  0  0  0  0  0  0  0  0999 V2000
  185.9900  178.2930  143.5780 C   0  0  0  0  0  0  0  0  0  0  0  0
  189.5010  177.6410  140.2320 C   0  0  0  0  0  3  0  0  0  0  0  0
  190.4270  177.4080  141.2490 C   0  0  0  0  0  3  0  0  0  0  0  0
  186.6120  178.0870  146.0220 C   0  0  0  0  0  0  0  0  0  0  0  0
  187.6110  177.8440  146.9080 N   0  0  0  0  0  0  0  0  0  0  0  0
  183.7140  178.7910  142.8230 C   0  0  0  0  0  0  0  0  0  0  0  0
  185.4700  178.4890  141.1980 C   0  0  0  0  0  3  0  0  0  0  0  0
  189.6340  177.3840  147.6500 C   0  0  0  0  0  0  0  0  0  0  0  0
  188.1710  177.9180  140.5540 C   0  0  0  0  0  3  0  0  0  0  0  0
  186.4070  178.2480  142.2190 C   0  0  0  0  0  0  0  0  0  0  0  0
  187.7470  177.9680  141.8950 C   0  0  0  0  0  0  0  0  0  0  0  0
  188.2940  177.7760  144.2700 C   0  0  0  0  0  0  0  0  0  0  0  0
  188.7600  177.5420  148.7200 C   0  0  0  0  0  3  0  0  0  0  0  0
  184.1380  178.7800  141.4850 C   0  0  0  0  0  0  0  0  0  0  0  0
  187.5250  177.8240  148.2300 N   0  0  0  0  0  0  0  0  0  0  0  0
  182.3800  178.9960  143.1530 O   0  0  0  0  0  1  0  0  0  0  0  0
  190.0230  177.4540  142.5830 C   0  0  0  0  0  3  0  0  0  0  0  0
  188.6880  177.7320  142.9220 C   0  0  0  0  0  0  0  0  0  0  0  0
  189.2270  177.5440  145.2400 N   0  0  0  0  0  0  0  0  0  0  0  0
  184.6370  178.5600  143.8430 C   0  0  0  0  0  3  0  0  0  0  0  0
  185.2460  178.3720  146.5640 C   0  0  0  0  0  1  0  0  0  0  0  0
  191.0870  177.0680  147.7100 C   0  0  0  0  0  1  0  0  0  0  0  0
  186.9330  178.0600  144.6240 C   0  0  0  0  0  0  0  0  0  0  0  0
  188.8620  177.5840  146.5380 C   0  0  0  0  0  0  0  0  0  0  0  0
  183.2610  179.0110  140.4170 O   0  0  0  0  0  0  0  0  0  0  0  0
  184.0750  180.5370  138.9130 O   0  0  0  0  0  0  0  0  0  0  0  0
  183.6740  179.3620  139.1290 C   0  0  0  0  0  0  0  0  0  0  0  0
  183.5970  178.4370  138.0840 O   0  0  0  0  0  0  0  0  0  0  0  0
  184.5460  177.3910  137.9360 C   0  0  0  0  0  2  0  0  0  0  0  0
  185.6820  177.8670  137.1020 C   0  0  0  0  0  0  0  0  0  0  0  0
  185.7610  177.5030  135.7650 O   0  0  0  0  0  0  0  0  0  0  0  0
  186.5490  178.6300  137.5990 O   0  0  0  0  0  1  0  0  0  0  0  0
  1 20  1  0  0  0  0
  1 23  1  0  0  0  0
  2  9  2  0  0  0  0
  2  3  1  0  0  0  0
  3 17  2  0  0  0  0
  4 21  1  0  0  0  0
  4  5  1  0  0  0  0
  5 15  1  0  0  0  0
  6 16  1  0  0  0  0
  6 20  2  0  0  0  0
  7 14  2  0  0  0  0
  7 10  1  0  0  0  0
  8 22  1  0  0  0  0
  8 13  1  0  0  0  0
  9 11  1  0  0  0  0
 10  1  2  0  0  0  0
 11 10  1  0  0  0  0
 11 18  2  0  0  0  0
 12 23  1  0  0  0  0
 12 19  2  0  0  0  0
 14  6  1  0  0  0  0
 15 13  2  0  0  0  0
 17 18  1  0  0  0  0
 18 12  1  0  0  0  0
 19 24  1  0  0  0  0
 23  4  2  0  0  0  0
 24  5  1  0  0  0  0
 24  8  2  0  0  0  0
 25 14  1  0  0  0  0
 26 27  2  0  0  0  0
 27 25  1  0  0  0  0
 28 27  1  0  0  0  0
 29 28  1  0  0  0  0
 30 32  1  0  0  0  0
 30 29  1  0  0  0  0
 31 30  2  0  0  0  0
M  END
>  <MODEL>
8

>  <REMARK>
 VINA RESULT:      -9.7      1.294      4.113
  Name = 
  5 active torsions:
  status: ('A' for Active; 'I' for Inactive)
    1  A    between atoms: C_1  and  C_10
    2  A    between atoms: C_10  and  O_24
    3  A    between atoms: O_12  and  C_19
    4  A    between atoms: O_12  and  C_21
    5  A    between atoms: C_19  and  O_24
                            x       y       z     vdW  Elec       q    Type
                         _______ _______ _______ _____ _____    ______ ____

>  <TORSDO>
F 5

$$$$
=
 OpenBabel10262421223D

 32 36  0  0  0  0  0  0  0  0999 V2000
  188.5020  177.7490  141.4470 C   0  0  0  0  0  0  0  0  0  0  0  0
  191.7620  176.3670  144.8240 C   0  0  0  0  0  3  0  0  0  0  0  0
  190.8180  176.5860  145.8270 C   0  0  0  0  0  3  0  0  0  0  0  0
  186.1960  178.4440  142.2240 C   0  0  0  0  0  0  0  0  0  0  0  0
  185.3770  178.6170  143.2930 N   0  0  0  0  0  0  0  0  0  0  0  0
  189.1600  177.7300  139.0890 C   0  0  0  0  0  0  0  0  0  0  0  0
  190.7530  177.0770  140.7770 C   0  0  0  0  0  3  0  0  0  0  0  0
  184.7190  178.6420  145.3950 C   0  0  0  0  0  0  0  0  0  0  0  0
  191.4260  176.6000  143.4900 C   0  0  0  0  0  3  0  0  0  0  0  0
  189.8030  177.2910  141.7910 C   0  0  0  0  0  0  0  0  0  0  0  0
  190.1410  177.0550  143.1360 C   0  0  0  0  0  0  0  0  0  0  0  0
  187.8990  177.7330  143.8330 C   0  0  0  0  0  0  0  0  0  0  0  0
  183.6830  179.0620  144.5680 C   0  0  0  0  0  3  0  0  0  0  0  0
  190.4540  177.3110  139.4360 C   0  0  0  0  0  0  0  0  0  0  0  0
  184.1200  179.0350  143.2830 N   0  0  0  0  0  0  0  0  0  0  0  0
  188.7920  177.8970  137.7600 O   0  0  0  0  0  1  0  0  0  0  0  0
  189.5410  177.0380  145.4940 C   0  0  0  0  0  3  0  0  0  0  0  0
  189.1880  177.2770  144.1550 C   0  0  0  0  0  0  0  0  0  0  0  0
  186.9980  177.9380  144.8400 N   0  0  0  0  0  0  0  0  0  0  0  0
  188.2130  177.9500  140.0880 C   0  0  0  0  0  3  0  0  0  0  0  0
  185.6510  178.7540  140.8640 C   0  0  0  0  0  1  0  0  0  0  0  0
  184.6960  178.5140  146.8780 C   0  0  0  0  0  1  0  0  0  0  0  0
  187.5310  177.9790  142.4680 C   0  0  0  0  0  0  0  0  0  0  0  0
  185.7580  178.3760  144.5440 C   0  0  0  0  0  0  0  0  0  0  0  0
  191.4510  177.0770  138.4800 O   0  0  0  0  0  0  0  0  0  0  0  0
  192.9380  175.6590  137.4650 O   0  0  0  0  0  0  0  0  0  0  0  0
  191.8230  175.8060  138.0340 C   0  0  0  0  0  0  0  0  0  0  0  0
  190.9500  174.7240  138.1720 O   0  0  0  0  0  0  0  0  0  0  0  0
  190.4790  173.9910  137.0500 C   0  0  0  0  0  2  0  0  0  0  0  0
  189.3480  174.7230  136.4200 C   0  0  0  0  0  0  0  0  0  0  0  0
  188.0960  174.7140  137.0190 O   0  0  0  0  0  1  0  0  0  0  0  0
  189.5370  175.3810  135.3660 O   0  0  0  0  0  0  0  0  0  0  0  0
  1 10  1  0  0  0  0
  1 23  1  0  0  0  0
  2  3  1  0  0  0  0
  4 23  2  0  0  0  0
  4  5  1  0  0  0  0
  5 24  1  0  0  0  0
  6 14  2  0  0  0  0
  6 20  1  0  0  0  0
  7 10  2  0  0  0  0
  8 22  1  0  0  0  0
  9  2  2  0  0  0  0
 10 11  1  0  0  0  0
 11  9  1  0  0  0  0
 11 18  2  0  0  0  0
 12 18  1  0  0  0  0
 12 19  2  0  0  0  0
 13  8  1  0  0  0  0
 14  7  1  0  0  0  0
 15  5  1  0  0  0  0
 15 13  2  0  0  0  0
 16  6  1  0  0  0  0
 17  3  2  0  0  0  0
 18 17  1  0  0  0  0
 20  1  2  0  0  0  0
 21  4  1  0  0  0  0
 23 12  1  0  0  0  0
 24 19  1  0  0  0  0
 24  8  2  0  0  0  0
 25 14  1  0  0  0  0
 26 27  2  0  0  0  0
 27 28  1  0  0  0  0
 27 25  1  0  0  0  0
 29 28  1  0  0  0  0
 30 31  1  0  0  0  0
 30 29  1  0  0  0  0
 32 30  2  0  0  0  0
M  END
>  <MODEL>
9

>  <REMARK>
 VINA RESULT:      -9.4      2.542      5.552
  Name = 
  5 active torsions:
  status: ('A' for Active; 'I' for Inactive)
    1  A    between atoms: C_1  and  C_10
    2  A    between atoms: C_10  and  O_24
    3  A    between atoms: O_12  and  C_19
    4  A    between atoms: O_12  and  C_21
    5  A    between atoms: C_19  and  O_24
                            x       y       z     vdW  Elec       q    Type
                         _______ _______ _______ _____ _____    ______ ____

>  <TORSDO>
F 5

$$$$
