=
 OpenBabel10252414533D

 34 38  0  0  1  0  0  0  0  0999 V2000
  182.6500  178.9150  140.2580 C   0  0  0  0  0  0  0  0  0  0  0  0
  184.4790  178.7250  141.9860 C   0  0  0  0  0  0  0  0  0  0  0  0
  185.0080  178.4150  139.6220 C   0  0  0  0  0  0  0  0  0  0  0  0
  187.1750  178.8840  137.8190 O   0  0  0  0  0  0  0  0  0  0  0  0
  182.4280  180.7900  138.6710 C   0  0  0  0  0  1  0  0  0  0  0  0
  183.5800  178.9580  143.0200 O   0  0  0  0  0  1  0  0  0  0  0  0
  186.7270  178.3530  141.2990 N   0  0  0  0  0  0  0  0  0  0  0  0
  184.0610  178.6740  140.6430 C   0  0  0  0  0  0  0  0  0  0  0  0
  187.4600  178.1100  138.9460 C   0  0  2  0  0  3  0  0  0  0  0  0
  181.7190  178.8600  141.1040 O   0  0  0  0  0  0  0  0  0  0  0  0
  184.5160  178.2510  138.2100 C   0  0  0  0  0  0  0  0  0  0  0  0
  182.3320  179.2850  138.8430 C   0  0  1  0  0  3  0  0  0  0  0  0
  185.8230  178.5500  142.2890 C   0  0  0  0  0  3  0  0  0  0  0  0
  186.7100  177.9760  136.8610 C   0  0  0  0  0  2  0  0  0  0  0  0
  185.2780  177.4990  137.1460 C   0  0  1  0  0  3  0  0  0  0  0  0
  186.3780  178.3050  139.9830 C   0  0  0  0  0  0  0  0  0  0  0  0
  183.2660  178.6060  137.8860 C   0  0  0  0  0  3  0  0  0  0  0  0
  186.2000  173.8120  137.3490 C   0  0  0  0  0  0  0  0  0  0  0  0
  184.9520  173.2670  137.6580 C   0  0  0  0  0  3  0  0  0  0  0  0
  185.1920  176.0130  137.3150 C   0  0  0  0  0  0  0  0  0  0  0  0
  183.8680  174.0790  137.7890 N   0  0  0  0  0  0  0  0  0  0  0  0
  186.3180  175.1910  137.1780 C   0  0  0  0  0  3  0  0  0  0  0  0
  183.9620  175.4260  137.6250 C   0  0  0  0  0  3  0  0  0  0  0  0
  187.2830  173.0110  137.2180 F   0  0  0  0  0  0  0  0  0  0  0  0
  188.8480  178.4690  139.4590 C   0  0  0  0  0  2  0  0  0  0  0  0
  189.6820  177.2110  139.6280 C   0  0  0  0  0  2  0  0  0  0  0  0
  190.7040  177.3980  140.7370 C   0  0  0  0  0  2  0  0  0  0  0  0
  190.2890  175.3290  142.8020 O   0  0  0  0  0  1  0  0  0  0  0  0
  190.0190  177.6160  142.0810 C   0  0  1  0  0  3  0  0  0  0  0  0
  189.3440  176.3390  142.6040 C   0  0  2  0  0  3  0  0  0  0  0  0
  189.0790  177.8240  144.6880 C   0  0  0  0  0  2  0  0  0  0  0  0
  190.5910  177.9820  144.5540 C   0  0  0  0  0  2  0  0  0  0  0  0
  191.0090  178.2080  143.0950 C   0  0  0  0  0  2  0  0  0  0  0  0
  188.5840  176.5940  143.9150 C   0  0  0  0  0  2  0  0  0  0  0  0
  1  8  1  0  0  0  0
  1 10  2  0  0  0  0
  2 13  1  0  0  0  0
  2  6  1  0  0  0  0
  3 16  2  0  0  0  0
  3  8  1  0  0  0  0
  4  9  1  0  0  0  0
  7 13  2  0  0  0  0
  8  2  2  0  0  0  0
  9 25  1  1  0  0  0
  9 16  1  0  0  0  0
 11  3  1  0  0  0  0
 12  5  1  1  0  0  0
 12  1  1  0  0  0  0
 14 15  1  0  0  0  0
 14  4  1  0  0  0  0
 15 20  1  1  0  0  0
 15 11  1  0  0  0  0
 16  7  1  0  0  0  0
 17 11  2  0  0  0  0
 17 12  1  0  0  0  0
 18 19  1  0  0  0  0
 19 21  2  0  0  0  0
 20 23  2  0  0  0  0
 22 20  1  0  0  0  0
 22 18  2  0  0  0  0
 23 21  1  0  0  0  0
 24 18  1  0  0  0  0
 25 26  1  0  0  0  0
 26 27  1  0  0  0  0
 29 27  1  6  0  0  0
 29 30  1  0  0  0  0
 29 33  1  0  0  0  0
 30 28  1  1  0  0  0
 30 34  1  0  0  0  0
 32 31  1  0  0  0  0
 33 32  1  0  0  0  0
 34 31  1  0  0  0  0
M  END
>  <MODEL>
1

>  <REMARK>
 VINA RESULT:      -8.2      0.000      0.000
  Name = 
  5 active torsions:
  status: ('A' for Active; 'I' for Inactive)
    1  A    between atoms: C_3  and  C_13
    2  A    between atoms: C_3  and  C_17
    3  A    between atoms: C_12  and  C_28
    4  A    between atoms: C_17  and  C_29
    5  A    between atoms: C_18  and  C_29
                            x       y       z     vdW  Elec       q    Type
                         _______ _______ _______ _____ _____    ______ ____

>  <TORSDO>
F 5

$$$$
=
 OpenBabel10252414533D

 34 38  0  0  1  0  0  0  0  0999 V2000
  183.8840  176.2100  136.2570 C   0  0  0  0  0  0  0  0  0  0  0  0
  185.9920  177.5020  136.7610 C   0  0  0  0  0  0  0  0  0  0  0  0
  184.1360  177.5470  138.3460 C   0  0  0  0  0  0  0  0  0  0  0  0
  183.7140  177.7220  141.1670 O   0  0  0  0  0  0  0  0  0  0  0  0
  183.1970  174.1560  137.4380 C   0  0  0  0  0  1  0  0  0  0  0  0
  186.5670  177.1080  135.5580 O   0  0  0  0  0  1  0  0  0  0  0  0
  186.2060  178.6680  138.8230 N   0  0  0  0  0  0  0  0  0  0  0  0
  184.6900  177.1070  137.1190 C   0  0  0  0  0  0  0  0  0  0  0  0
  184.4670  178.7450  140.5860 C   0  0  2  0  0  3  0  0  0  0  0  0
  184.1800  176.0200  135.0480 O   0  0  0  0  0  0  0  0  0  0  0  0
  182.7020  177.2060  138.6510 C   0  0  0  0  0  0  0  0  0  0  0  0
  182.7240  175.4740  136.8510 C   0  0  1  0  0  3  0  0  0  0  0  0
  186.7290  178.2950  137.6310 C   0  0  0  0  0  3  0  0  0  0  0  0
  182.3830  178.1360  141.0470 C   0  0  0  0  0  2  0  0  0  0  0  0
  181.8480  177.9930  139.6140 C   0  0  1  0  0  3  0  0  0  0  0  0
  184.9550  178.3050  139.2240 C   0  0  0  0  0  0  0  0  0  0  0  0
  182.0570  176.2910  137.9170 C   0  0  0  0  0  3  0  0  0  0  0  0
  181.0270  180.8000  137.1790 C   0  0  0  0  0  0  0  0  0  0  0  0
  180.4810  181.7340  138.0600 C   0  0  0  0  0  3  0  0  0  0  0  0
  181.3820  179.2980  139.0430 C   0  0  0  0  0  0  0  0  0  0  0  0
  180.3930  181.4480  139.3880 N   0  0  0  0  0  0  0  0  0  0  0  0
  181.4780  179.5760  137.6740 C   0  0  0  0  0  3  0  0  0  0  0  0
  180.8280  180.2600  139.8910 C   0  0  0  0  0  3  0  0  0  0  0  0
  181.1170  181.0770  135.8570 F   0  0  0  0  0  0  0  0  0  0  0  0
  185.6000  179.1270  141.5300 C   0  0  0  0  0  2  0  0  0  0  0  0
  185.5300  178.2870  142.7930 C   0  0  0  0  0  2  0  0  0  0  0  0
  186.8270  177.5190  142.9910 C   0  0  0  0  0  2  0  0  0  0  0  0
  189.1820  178.5390  144.4490 O   0  0  0  0  0  1  0  0  0  0  0  0
  187.1110  177.3010  144.4720 C   0  0  1  0  0  3  0  0  0  0  0  0
  188.6160  177.3060  144.7830 C   0  0  2  0  0  3  0  0  0  0  0  0
  187.7020  177.2910  147.1870 C   0  0  0  0  0  2  0  0  0  0  0  0
  186.9350  178.5250  146.7190 C   0  0  0  0  0  2  0  0  0  0  0  0
  186.3390  178.3220  145.3200 C   0  0  0  0  0  2  0  0  0  0  0  0
  188.8910  176.9990  146.2630 C   0  0  0  0  0  2  0  0  0  0  0  0
  1 12  1  0  0  0  0
  1  8  1  0  0  0  0
  2  8  2  0  0  0  0
  2 13  1  0  0  0  0
  3 11  1  0  0  0  0
  3 16  2  0  0  0  0
  6  2  1  0  0  0  0
  7 16  1  0  0  0  0
  8  3  1  0  0  0  0
  9  4  1  0  0  0  0
  9 25  1  1  0  0  0
 10  1  2  0  0  0  0
 11 15  1  0  0  0  0
 12  5  1  1  0  0  0
 12 17  1  0  0  0  0
 13  7  2  0  0  0  0
 14  4  1  0  0  0  0
 15 20  1  6  0  0  0
 15 14  1  0  0  0  0
 16  9  1  0  0  0  0
 17 11  2  0  0  0  0
 18 22  2  0  0  0  0
 18 19  1  0  0  0  0
 19 21  2  0  0  0  0
 20 23  2  0  0  0  0
 21 23  1  0  0  0  0
 22 20  1  0  0  0  0
 24 18  1  0  0  0  0
 25 26  1  0  0  0  0
 26 27  1  0  0  0  0
 29 27  1  6  0  0  0
 29 30  1  0  0  0  0
 29 33  1  0  0  0  0
 30 28  1  1  0  0  0
 30 34  1  0  0  0  0
 32 31  1  0  0  0  0
 33 32  1  0  0  0  0
 34 31  1  0  0  0  0
M  END
>  <MODEL>
2

>  <REMARK>
 VINA RESULT:      -7.7      2.925      5.425
  Name = 
  5 active torsions:
  status: ('A' for Active; 'I' for Inactive)
    1  A    between atoms: C_3  and  C_13
    2  A    between atoms: C_3  and  C_17
    3  A    between atoms: C_12  and  C_28
    4  A    between atoms: C_17  and  C_29
    5  A    between atoms: C_18  and  C_29
                            x       y       z     vdW  Elec       q    Type
                         _______ _______ _______ _____ _____    ______ ____

>  <TORSDO>
F 5

$$$$
=
 OpenBabel10252414533D

 34 38  0  0  1  0  0  0  0  0999 V2000
  184.3750  176.2210  136.1240 C   0  0  0  0  0  0  0  0  0  0  0  0
  186.3510  177.4960  137.0380 C   0  0  0  0  0  0  0  0  0  0  0  0
  184.2180  177.5550  138.2240 C   0  0  0  0  0  0  0  0  0  0  0  0
  183.2480  177.7320  140.9060 O   0  0  0  0  0  0  0  0  0  0  0  0
  183.4530  174.1720  137.1410 C   0  0  0  0  0  1  0  0  0  0  0  0
  187.1500  177.0980  135.9720 O   0  0  0  0  0  1  0  0  0  0  0  0
  186.1610  178.6590  139.1040 N   0  0  0  0  0  0  0  0  0  0  0  0
  185.0010  177.1110  137.1310 C   0  0  0  0  0  0  0  0  0  0  0  0
  184.1080  178.7490  140.4880 C   0  0  2  0  0  3  0  0  0  0  0  0
  184.9030  176.0290  134.9970 O   0  0  0  0  0  0  0  0  0  0  0  0
  182.7500  177.2250  138.2380 C   0  0  0  0  0  0  0  0  0  0  0  0
  183.1150  175.4930  136.4750 C   0  0  1  0  0  3  0  0  0  0  0  0
  186.9070  178.2840  138.0380 C   0  0  0  0  0  3  0  0  0  0  0  0
  181.9700  178.1560  140.5250 C   0  0  0  0  0  2  0  0  0  0  0  0
  181.7270  178.0180  139.0150 C   0  0  1  0  0  3  0  0  0  0  0  0
  184.8530  178.3060  139.2490 C   0  0  0  0  0  0  0  0  0  0  0  0
  182.2560  176.3160  137.3890 C   0  0  0  0  0  3  0  0  0  0  0  0
  180.9020  180.6700  136.4140 C   0  0  0  0  0  0  0  0  0  0  0  0
  180.7610  181.7860  137.2410 C   0  0  0  0  0  3  0  0  0  0  0  0
  181.3940  179.3260  138.3660 C   0  0  0  0  0  0  0  0  0  0  0  0
  180.9340  181.6630  138.5850 N   0  0  0  0  0  0  0  0  0  0  0  0
  181.2190  179.4350  136.9810 C   0  0  0  0  0  3  0  0  0  0  0  0
  181.2440  180.4680  139.1580 C   0  0  0  0  0  3  0  0  0  0  0  0
  180.7300  180.7840  135.0760 F   0  0  0  0  0  0  0  0  0  0  0  0
  185.0340  179.1220  141.6380 C   0  0  0  0  0  2  0  0  0  0  0  0
  184.6100  178.3960  142.9030 C   0  0  0  0  0  2  0  0  0  0  0  0
  184.6920  179.3280  144.1010 C   0  0  0  0  0  2  0  0  0  0  0  0
  184.4760  178.2450  146.8390 O   0  0  0  0  0  1  0  0  0  0  0  0
  185.8660  178.9600  145.0010 C   0  0  1  0  0  3  0  0  0  0  0  0
  185.5240  179.1010  146.4920 C   0  0  2  0  0  3  0  0  0  0  0  0
  187.8140  177.9480  146.7050 C   0  0  0  0  0  2  0  0  0  0  0  0
  187.1790  176.9040  145.7920 C   0  0  0  0  0  2  0  0  0  0  0  0
  186.3840  177.5560  144.6530 C   0  0  0  0  0  2  0  0  0  0  0  0
  186.7410  178.8110  147.3830 C   0  0  0  0  0  2  0  0  0  0  0  0
  1 12  1  0  0  0  0
  1  8  1  0  0  0  0
  2  8  2  0  0  0  0
  2 13  1  0  0  0  0
  3 11  1  0  0  0  0
  3 16  2  0  0  0  0
  6  2  1  0  0  0  0
  7 16  1  0  0  0  0
  8  3  1  0  0  0  0
  9  4  1  0  0  0  0
  9 25  1  1  0  0  0
 10  1  2  0  0  0  0
 11 15  1  0  0  0  0
 12  5  1  1  0  0  0
 12 17  1  0  0  0  0
 13  7  2  0  0  0  0
 14  4  1  0  0  0  0
 15 20  1  6  0  0  0
 15 14  1  0  0  0  0
 16  9  1  0  0  0  0
 17 11  2  0  0  0  0
 18 22  2  0  0  0  0
 18 19  1  0  0  0  0
 19 21  2  0  0  0  0
 20 23  2  0  0  0  0
 21 23  1  0  0  0  0
 22 20  1  0  0  0  0
 24 18  1  0  0  0  0
 25 26  1  0  0  0  0
 26 27  1  0  0  0  0
 29 27  1  6  0  0  0
 29 30  1  0  0  0  0
 30 28  1  1  0  0  0
 30 34  1  0  0  0  0
 31 34  1  0  0  0  0
 32 31  1  0  0  0  0
 33 29  1  0  0  0  0
 33 32  1  0  0  0  0
M  END
>  <MODEL>
3

>  <REMARK>
 VINA RESULT:      -7.6      3.299      5.788
  Name = 
  5 active torsions:
  status: ('A' for Active; 'I' for Inactive)
    1  A    between atoms: C_3  and  C_13
    2  A    between atoms: C_3  and  C_17
    3  A    between atoms: C_12  and  C_28
    4  A    between atoms: C_17  and  C_29
    5  A    between atoms: C_18  and  C_29
                            x       y       z     vdW  Elec       q    Type
                         _______ _______ _______ _____ _____    ______ ____

>  <TORSDO>
F 5

$$$$
=
 OpenBabel10252414533D

 34 38  0  0  1  0  0  0  0  0999 V2000
  191.1020  174.3700  137.1740 C   0  0  0  0  0  0  0  0  0  0  0  0
  188.6860  173.8900  136.6270 C   0  0  0  0  0  0  0  0  0  0  0  0
  189.2890  175.9940  137.7100 C   0  0  0  0  0  0  0  0  0  0  0  0
  188.4220  178.7170  137.7620 O   0  0  0  0  0  0  0  0  0  0  0  0
  192.4900  176.0320  135.9940 C   0  0  0  0  0  1  0  0  0  0  0  0
  189.0110  172.6440  136.1060 O   0  0  0  0  0  1  0  0  0  0  0  0
  187.0210  175.5310  137.0690 N   0  0  0  0  0  0  0  0  0  0  0  0
  189.6660  174.7400  137.1730 C   0  0  0  0  0  0  0  0  0  0  0  0
  187.4610  177.7520  138.0730 C   0  0  2  0  0  3  0  0  0  0  0  0
  191.4750  173.1820  136.9910 O   0  0  0  0  0  0  0  0  0  0  0  0
  190.3380  176.8310  138.3910 C   0  0  0  0  0  0  0  0  0  0  0  0
  192.1330  175.4420  137.3460 C   0  0  1  0  0  3  0  0  0  0  0  0
  187.3620  174.3080  136.5970 C   0  0  0  0  0  3  0  0  0  0  0  0
  189.0560  179.0030  138.9770 C   0  0  0  0  0  2  0  0  0  0  0  0
  190.0190  177.8910  139.4170 C   0  0  1  0  0  3  0  0  0  0  0  0
  187.9310  176.3960  137.5970 C   0  0  0  0  0  0  0  0  0  0  0  0
  191.6340  176.5270  138.2540 C   0  0  0  0  0  3  0  0  0  0  0  0
  190.1850  176.0020  142.7160 C   0  0  0  0  0  0  0  0  0  0  0  0
  188.9210  176.2990  143.2290 C   0  0  0  0  0  3  0  0  0  0  0  0
  189.6590  177.3150  140.7520 C   0  0  0  0  0  0  0  0  0  0  0  0
  188.0630  177.0790  142.5170 N   0  0  0  0  0  0  0  0  0  0  0  0
  190.5540  176.5150  141.4720 C   0  0  0  0  0  3  0  0  0  0  0  0
  188.4040  177.5880  141.3020 C   0  0  0  0  0  3  0  0  0  0  0  0
  191.0450  175.2280  143.4190 F   0  0  0  0  0  0  0  0  0  0  0  0
  186.1260  178.1660  137.4660 C   0  0  0  0  0  2  0  0  0  0  0  0
  184.9970  177.8510  138.4320 C   0  0  0  0  0  2  0  0  0  0  0  0
  184.1790  179.1000  138.7160 C   0  0  0  0  0  2  0  0  0  0  0  0
  182.5840  177.1220  140.2190 O   0  0  0  0  0  1  0  0  0  0  0  0
  183.8210  179.1930  140.1950 C   0  0  1  0  0  3  0  0  0  0  0  0
  182.4980  178.4830  140.5200 C   0  0  2  0  0  3  0  0  0  0  0  0
  183.2900  178.9870  142.9150 C   0  0  0  0  0  2  0  0  0  0  0  0
  184.5510  178.2530  142.4670 C   0  0  0  0  0  2  0  0  0  0  0  0
  184.9830  178.6800  141.0580 C   0  0  0  0  0  2  0  0  0  0  0  0
  182.1060  178.6590  141.9950 C   0  0  0  0  0  2  0  0  0  0  0  0
  1 12  1  0  0  0  0
  2  8  1  0  0  0  0
  3 11  1  0  0  0  0
  4  9  1  0  0  0  0
  4 14  1  0  0  0  0
  6  2  1  0  0  0  0
  7 16  2  0  0  0  0
  8  1  1  0  0  0  0
  8  3  2  0  0  0  0
  9 25  1  6  0  0  0
 10  1  2  0  0  0  0
 11 15  1  0  0  0  0
 12  5  1  6  0  0  0
 12 17  1  0  0  0  0
 13  2  2  0  0  0  0
 13  7  1  0  0  0  0
 14 15  1  0  0  0  0
 15 20  1  1  0  0  0
 16  3  1  0  0  0  0
 16  9  1  0  0  0  0
 17 11  2  0  0  0  0
 18 19  1  0  0  0  0
 18 24  1  0  0  0  0
 20 23  2  0  0  0  0
 20 22  1  0  0  0  0
 21 19  2  0  0  0  0
 22 18  2  0  0  0  0
 23 21  1  0  0  0  0
 25 26  1  0  0  0  0
 26 27  1  0  0  0  0
 29 27  1  6  0  0  0
 29 30  1  0  0  0  0
 29 33  1  0  0  0  0
 30 28  1  1  0  0  0
 30 34  1  0  0  0  0
 32 31  1  0  0  0  0
 33 32  1  0  0  0  0
 34 31  1  0  0  0  0
M  END
>  <MODEL>
4

>  <REMARK>
 VINA RESULT:      -7.5      2.852      7.177
  Name = 
  5 active torsions:
  status: ('A' for Active; 'I' for Inactive)
    1  A    between atoms: C_3  and  C_13
    2  A    between atoms: C_3  and  C_17
    3  A    between atoms: C_12  and  C_28
    4  A    between atoms: C_17  and  C_29
    5  A    between atoms: C_18  and  C_29
                            x       y       z     vdW  Elec       q    Type
                         _______ _______ _______ _____ _____    ______ ____

>  <TORSDO>
F 5

$$$$
=
 OpenBabel10252414533D

 34 38  0  0  1  0  0  0  0  0999 V2000
  180.0120  179.3620  141.0350 C   0  0  0  0  0  0  0  0  0  0  0  0
  181.4590  178.8080  143.0270 C   0  0  0  0  0  0  0  0  0  0  0  0
  182.4570  178.9400  140.8020 C   0  0  0  0  0  0  0  0  0  0  0  0
  184.9340  179.6940  139.5930 O   0  0  0  0  0  0  0  0  0  0  0  0
  180.0820  181.5080  139.8210 C   0  0  0  0  0  1  0  0  0  0  0  0
  180.3660  178.8610  143.8840 O   0  0  0  0  0  1  0  0  0  0  0  0
  183.8040  178.5240  142.7470 N   0  0  0  0  0  0  0  0  0  0  0  0
  181.3200  179.0210  141.6430 C   0  0  0  0  0  0  0  0  0  0  0  0
  185.0000  178.7140  140.5860 C   0  0  2  0  0  3  0  0  0  0  0  0
  178.9310  179.1680  141.6510 O   0  0  0  0  0  0  0  0  0  0  0  0
  182.2620  179.0570  139.3150 C   0  0  0  0  0  0  0  0  0  0  0  0
  179.9780  180.0000  139.6810 C   0  0  1  0  0  3  0  0  0  0  0  0
  182.7170  178.5490  143.5550 C   0  0  0  0  0  3  0  0  0  0  0  0
  184.6870  178.9940  138.4070 C   0  0  0  0  0  2  0  0  0  0  0  0
  183.2350  178.5030  138.3030 C   0  0  1  0  0  3  0  0  0  0  0  0
  183.7280  178.7340  141.4030 C   0  0  0  0  0  0  0  0  0  0  0  0
  181.0970  179.4940  138.8200 C   0  0  0  0  0  3  0  0  0  0  0  0
  181.9050  174.9380  138.2890 C   0  0  0  0  0  0  0  0  0  0  0  0
  183.0470  174.2540  137.8700 C   0  0  0  0  0  3  0  0  0  0  0  0
  183.1420  177.0140  138.1650 C   0  0  0  0  0  0  0  0  0  0  0  0
  184.1940  174.9390  137.6100 N   0  0  0  0  0  0  0  0  0  0  0  0
  181.9540  176.3240  138.4360 C   0  0  0  0  0  3  0  0  0  0  0  0
  184.2630  176.2910  137.7470 C   0  0  0  0  0  3  0  0  0  0  0  0
  180.7600  174.2630  138.5490 F   0  0  0  0  0  0  0  0  0  0  0  0
  186.2510  178.9400  141.4260 C   0  0  0  0  0  2  0  0  0  0  0  0
  187.4920  178.7040  140.5830 C   0  0  0  0  0  2  0  0  0  0  0  0
  188.4420  177.7540  141.2930 C   0  0  0  0  0  2  0  0  0  0  0  0
  188.1490  175.5970  143.2860 O   0  0  0  0  0  1  0  0  0  0  0  0
  188.3820  177.9490  142.8040 C   0  0  1  0  0  3  0  0  0  0  0  0
  187.5670  176.8490  143.5010 C   0  0  2  0  0  3  0  0  0  0  0  0
  188.5400  178.0150  145.5770 C   0  0  0  0  0  2  0  0  0  0  0  0
  189.8740  177.7600  144.8810 C   0  0  0  0  0  2  0  0  0  0  0  0
  189.7990  178.0780  143.3820 C   0  0  0  0  0  2  0  0  0  0  0  0
  187.4410  177.1050  145.0100 C   0  0  0  0  0  2  0  0  0  0  0  0
  1  8  1  0  0  0  0
  1 10  2  0  0  0  0
  2 13  1  0  0  0  0
  2  6  1  0  0  0  0
  3 16  2  0  0  0  0
  3  8  1  0  0  0  0
  4  9  1  0  0  0  0
  7 13  2  0  0  0  0
  8  2  2  0  0  0  0
  9 16  1  0  0  0  0
  9 25  1  1  0  0  0
 11  3  1  0  0  0  0
 12  5  1  1  0  0  0
 12  1  1  0  0  0  0
 14  4  1  0  0  0  0
 15 20  1  1  0  0  0
 15 14  1  0  0  0  0
 15 11  1  0  0  0  0
 16  7  1  0  0  0  0
 17 11  2  0  0  0  0
 17 12  1  0  0  0  0
 18 22  1  0  0  0  0
 18 24  1  0  0  0  0
 19 18  2  0  0  0  0
 20 22  2  0  0  0  0
 21 23  2  0  0  0  0
 21 19  1  0  0  0  0
 23 20  1  0  0  0  0
 26 27  1  0  0  0  0
 26 25  1  0  0  0  0
 29 27  1  6  0  0  0
 29 33  1  0  0  0  0
 29 30  1  0  0  0  0
 30 28  1  1  0  0  0
 30 34  1  0  0  0  0
 32 31  1  0  0  0  0
 33 32  1  0  0  0  0
 34 31  1  0  0  0  0
M  END
>  <MODEL>
5

>  <REMARK>
 VINA RESULT:      -7.2      2.212      2.911
  Name = 
  5 active torsions:
  status: ('A' for Active; 'I' for Inactive)
    1  A    between atoms: C_3  and  C_13
    2  A    between atoms: C_3  and  C_17
    3  A    between atoms: C_12  and  C_28
    4  A    between atoms: C_17  and  C_29
    5  A    between atoms: C_18  and  C_29
                            x       y       z     vdW  Elec       q    Type
                         _______ _______ _______ _____ _____    ______ ____

>  <TORSDO>
F 5

$$$$
=
 OpenBabel10252414533D

 34 38  0  0  1  0  0  0  0  0999 V2000
  182.9130  178.6410  140.2810 C   0  0  0  0  0  0  0  0  0  0  0  0
  185.0220  178.7570  141.6630 C   0  0  0  0  0  0  0  0  0  0  0  0
  185.1670  178.3320  139.2630 C   0  0  0  0  0  0  0  0  0  0  0  0
  186.9280  178.8820  137.0800 O   0  0  0  0  0  0  0  0  0  0  0  0
  182.2180  180.3650  138.6610 C   0  0  0  0  0  1  0  0  0  0  0  0
  184.2930  178.9740  142.8270 O   0  0  0  0  0  1  0  0  0  0  0  0
  187.1450  178.5610  140.6070 N   0  0  0  0  0  0  0  0  0  0  0  0
  184.3880  178.5680  140.4210 C   0  0  0  0  0  0  0  0  0  0  0  0
  187.4850  178.2220  138.1770 C   0  0  2  0  0  3  0  0  0  0  0  0
  182.1530  178.5550  141.2810 O   0  0  0  0  0  0  0  0  0  0  0  0
  184.4610  178.0190  137.9710 C   0  0  0  0  0  0  0  0  0  0  0  0
  182.3180  178.8750  138.9280 C   0  0  1  0  0  3  0  0  0  0  0  0
  186.4090  178.7380  141.7310 C   0  0  0  0  0  3  0  0  0  0  0  0
  186.4080  177.8650  136.2700 C   0  0  0  0  0  2  0  0  0  0  0  0
  185.1080  177.2710  136.8310 C   0  0  1  0  0  3  0  0  0  0  0  0
  186.5820  178.3840  139.3790 C   0  0  0  0  0  0  0  0  0  0  0  0
  183.1430  178.2240  137.8570 C   0  0  0  0  0  3  0  0  0  0  0  0
  186.4920  173.7460  137.2090 C   0  0  0  0  0  0  0  0  0  0  0  0
  185.3360  173.0730  137.6090 C   0  0  0  0  0  3  0  0  0  0  0  0
  185.2160  175.7990  137.0910 C   0  0  0  0  0  0  0  0  0  0  0  0
  184.1640  173.7520  137.7410 N   0  0  0  0  0  0  0  0  0  0  0  0
  186.4300  175.1150  136.9510 C   0  0  0  0  0  3  0  0  0  0  0  0
  184.0820  175.0880  137.4930 C   0  0  0  0  0  3  0  0  0  0  0  0
  187.6620  173.0780  137.0760 F   0  0  0  0  0  0  0  0  0  0  0  0
  188.8930  178.7530  138.4140 C   0  0  0  0  0  2  0  0  0  0  0  0
  189.9140  177.8100  137.8020 C   0  0  0  0  0  2  0  0  0  0  0  0
  189.6730  176.3860  138.2770 C   0  0  0  0  0  2  0  0  0  0  0  0
  190.4610  175.2580  135.6660 O   0  0  0  0  0  1  0  0  0  0  0  0
  190.8960  175.5120  138.0260 C   0  0  1  0  0  3  0  0  0  0  0  0
  190.6890  174.5480  136.8470 C   0  0  2  0  0  3  0  0  0  0  0  0
  193.1980  174.1570  137.2610 C   0  0  0  0  0  2  0  0  0  0  0  0
  193.2830  175.6730  137.1030 C   0  0  0  0  0  2  0  0  0  0  0  0
  192.1480  176.3830  137.8520 C   0  0  0  0  0  2  0  0  0  0  0  0
  191.8950  173.6140  136.6600 C   0  0  0  0  0  2  0  0  0  0  0  0
  1  8  1  0  0  0  0
  1 10  2  0  0  0  0
  2 13  1  0  0  0  0
  2  6  1  0  0  0  0
  3 16  2  0  0  0  0
  3  8  1  0  0  0  0
  4  9  1  0  0  0  0
  7 13  2  0  0  0  0
  8  2  2  0  0  0  0
  9 25  1  1  0  0  0
  9 16  1  0  0  0  0
 11  3  1  0  0  0  0
 12  5  1  6  0  0  0
 12  1  1  0  0  0  0
 14 15  1  0  0  0  0
 14  4  1  0  0  0  0
 15 20  1  1  0  0  0
 15 11  1  0  0  0  0
 16  7  1  0  0  0  0
 17 11  2  0  0  0  0
 17 12  1  0  0  0  0
 18 19  1  0  0  0  0
 19 21  2  0  0  0  0
 20 23  2  0  0  0  0
 22 20  1  0  0  0  0
 22 18  2  0  0  0  0
 23 21  1  0  0  0  0
 24 18  1  0  0  0  0
 26 27  1  0  0  0  0
 26 25  1  0  0  0  0
 29 27  1  6  0  0  0
 30 28  1  6  0  0  0
 30 29  1  0  0  0  0
 32 31  1  0  0  0  0
 32 33  1  0  0  0  0
 33 29  1  0  0  0  0
 34 30  1  0  0  0  0
 34 31  1  0  0  0  0
M  END
>  <MODEL>
6

>  <REMARK>
 VINA RESULT:      -7.0      2.287      3.383
  Name = 
  5 active torsions:
  status: ('A' for Active; 'I' for Inactive)
    1  A    between atoms: C_3  and  C_13
    2  A    between atoms: C_3  and  C_17
    3  A    between atoms: C_12  and  C_28
    4  A    between atoms: C_17  and  C_29
    5  A    between atoms: C_18  and  C_29
                            x       y       z     vdW  Elec       q    Type
                         _______ _______ _______ _____ _____    ______ ____

>  <TORSDO>
F 5

$$$$
=
 OpenBabel10252414533D

 34 38  0  0  1  0  0  0  0  0999 V2000
  181.8310  177.8670  138.0410 C   0  0  0  0  0  0  0  0  0  0  0  0
  183.5290  178.6570  139.7320 C   0  0  0  0  0  0  0  0  0  0  0  0
  184.2810  177.7000  137.6150 C   0  0  0  0  0  0  0  0  0  0  0  0
  186.4360  177.9960  135.7620 O   0  0  0  0  0  0  0  0  0  0  0  0
  181.3540  179.0140  135.9110 C   0  0  0  0  0  1  0  0  0  0  0  0
  182.5280  179.0220  140.6250 O   0  0  0  0  0  1  0  0  0  0  0  0
  185.8490  178.5680  139.2140 N   0  0  0  0  0  0  0  0  0  0  0  0
  183.2300  178.0740  138.4870 C   0  0  0  0  0  0  0  0  0  0  0  0
  186.7870  177.7190  137.0850 C   0  0  2  0  0  3  0  0  0  0  0  0
  180.8700  177.8970  138.8550 O   0  0  0  0  0  0  0  0  0  0  0  0
  183.9370  176.9750  136.3420 C   0  0  0  0  0  0  0  0  0  0  0  0
  181.5490  177.6680  136.5850 C   0  0  1  0  0  3  0  0  0  0  0  0
  184.8550  178.8840  140.0780 C   0  0  0  0  0  3  0  0  0  0  0  0
  186.2350  176.7440  135.1690 C   0  0  0  0  0  2  0  0  0  0  0  0
  184.9110  176.0940  135.5990 C   0  0  1  0  0  3  0  0  0  0  0  0
  185.6150  178.0120  137.9930 C   0  0  0  0  0  0  0  0  0  0  0  0
  182.6690  176.9260  135.9170 C   0  0  0  0  0  3  0  0  0  0  0  0
  184.3210  172.5800  136.9370 C   0  0  0  0  0  0  0  0  0  0  0  0
  185.5740  172.3210  137.4970 C   0  0  0  0  0  3  0  0  0  0  0  0
  185.1130  174.7660  136.2630 C   0  0  0  0  0  0  0  0  0  0  0  0
  186.5550  173.2610  137.4350 N   0  0  0  0  0  0  0  0  0  0  0  0
  184.0930  173.8090  136.3170 C   0  0  0  0  0  3  0  0  0  0  0  0
  186.3520  174.4650  136.8350 C   0  0  0  0  0  3  0  0  0  0  0  0
  183.3400  171.6500  136.9940 F   0  0  0  0  0  0  0  0  0  0  0  0
  188.0340  178.5170  137.4460 C   0  0  0  0  0  2  0  0  0  0  0  0
  189.0060  177.6410  138.2160 C   0  0  0  0  0  2  0  0  0  0  0  0
  189.4740  178.3500  139.4770 C   0  0  0  0  0  2  0  0  0  0  0  0
  191.2790  177.7110  141.7240 O   0  0  0  0  0  1  0  0  0  0  0  0
  189.0890  177.5600  140.7230 C   0  0  1  0  0  3  0  0  0  0  0  0
  190.2850  176.8110  141.3300 C   0  0  2  0  0  3  0  0  0  0  0  0
  188.5600  176.4110  143.1970 C   0  0  0  0  0  2  0  0  0  0  0  0
  188.4430  177.9330  143.1760 C   0  0  0  0  0  2  0  0  0  0  0  0
  188.3970  178.4770  141.7420 C   0  0  0  0  0  2  0  0  0  0  0  0
  189.8650  175.9520  142.5320 C   0  0  0  0  0  2  0  0  0  0  0  0
  1  8  1  0  0  0  0
  1 10  2  0  0  0  0
  2 13  1  0  0  0  0
  2  6  1  0  0  0  0
  3 16  2  0  0  0  0
  3  8  1  0  0  0  0
  4  9  1  0  0  0  0
  7 13  2  0  0  0  0
  8  2  2  0  0  0  0
  9 25  1  1  0  0  0
  9 16  1  0  0  0  0
 11  3  1  0  0  0  0
 12  5  1  6  0  0  0
 12  1  1  0  0  0  0
 14 15  1  0  0  0  0
 14  4  1  0  0  0  0
 15 20  1  1  0  0  0
 15 11  1  0  0  0  0
 16  7  1  0  0  0  0
 17 11  2  0  0  0  0
 17 12  1  0  0  0  0
 18 24  1  0  0  0  0
 18 19  1  0  0  0  0
 20 22  1  0  0  0  0
 20 23  2  0  0  0  0
 21 19  2  0  0  0  0
 22 18  2  0  0  0  0
 23 21  1  0  0  0  0
 25 26  1  0  0  0  0
 26 27  1  0  0  0  0
 29 27  1  6  0  0  0
 29 30  1  0  0  0  0
 29 33  1  0  0  0  0
 30 28  1  1  0  0  0
 30 34  1  0  0  0  0
 32 31  1  0  0  0  0
 33 32  1  0  0  0  0
 34 31  1  0  0  0  0
M  END
>  <MODEL>
7

>  <REMARK>
 VINA RESULT:      -6.6      1.814      2.438
  Name = 
  5 active torsions:
  status: ('A' for Active; 'I' for Inactive)
    1  A    between atoms: C_3  and  C_13
    2  A    between atoms: C_3  and  C_17
    3  A    between atoms: C_12  and  C_28
    4  A    between atoms: C_17  and  C_29
    5  A    between atoms: C_18  and  C_29
                            x       y       z     vdW  Elec       q    Type
                         _______ _______ _______ _____ _____    ______ ____

>  <TORSDO>
F 5

$$$$
=
 OpenBabel10252414533D

 34 38  0  0  1  0  0  0  0  0999 V2000
  192.2560  174.7910  137.6620 C   0  0  0  0  0  0  0  0  0  0  0  0
  190.0960  173.8430  136.7660 C   0  0  0  0  0  0  0  0  0  0  0  0
  190.0870  175.9900  137.9290 C   0  0  0  0  0  0  0  0  0  0  0  0
  188.6750  178.4740  137.8580 O   0  0  0  0  0  0  0  0  0  0  0  0
  193.4230  176.7400  136.7010 C   0  0  0  0  0  1  0  0  0  0  0  0
  190.7440  172.7070  136.2960 O   0  0  0  0  0  1  0  0  0  0  0  0
  188.0800  175.0920  136.9600 N   0  0  0  0  0  0  0  0  0  0  0  0
  190.7900  174.8580  137.4510 C   0  0  0  0  0  0  0  0  0  0  0  0
  187.9010  177.3230  138.0220 C   0  0  2  0  0  3  0  0  0  0  0  0
  192.8900  173.7110  137.5330 O   0  0  0  0  0  0  0  0  0  0  0  0
  190.8310  177.0020  138.7570 C   0  0  0  0  0  0  0  0  0  0  0  0
  193.0050  176.0460  137.9850 C   0  0  1  0  0  3  0  0  0  0  0  0
  188.7320  173.9810  136.5420 C   0  0  0  0  0  3  0  0  0  0  0  0
  189.0550  178.8450  139.1530 C   0  0  0  0  0  2  0  0  0  0  0  0
  190.1550  177.9410  139.7270 C   0  0  1  0  0  3  0  0  0  0  0  0
  188.7050  176.1080  137.6180 C   0  0  0  0  0  0  0  0  0  0  0  0
  192.1680  176.9750  138.8120 C   0  0  0  0  0  3  0  0  0  0  0  0
  190.1240  175.6990  142.8020 C   0  0  0  0  0  0  0  0  0  0  0  0
  188.8910  176.0560  143.3500 C   0  0  0  0  0  3  0  0  0  0  0  0
  189.7350  177.2600  140.9940 C   0  0  0  0  0  0  0  0  0  0  0  0
  188.1150  176.9870  142.7320 N   0  0  0  0  0  0  0  0  0  0  0  0
  190.5470  176.3060  141.6190 C   0  0  0  0  0  3  0  0  0  0  0  0
  188.5080  177.5900  141.5770 C   0  0  0  0  0  3  0  0  0  0  0  0
  190.9030  174.7750  143.4120 F   0  0  0  0  0  0  0  0  0  0  0  0
  186.6100  177.4740  137.2270 C   0  0  0  0  0  2  0  0  0  0  0  0
  185.4610  177.8110  138.1610 C   0  0  0  0  0  2  0  0  0  0  0  0
  184.1670  177.1960  137.6530 C   0  0  0  0  0  2  0  0  0  0  0  0
  181.3350  177.6380  136.9500 O   0  0  0  0  0  1  0  0  0  0  0  0
  183.0330  177.4120  138.6490 C   0  0  1  0  0  3  0  0  0  0  0  0
  181.8990  178.2670  138.0620 C   0  0  2  0  0  3  0  0  0  0  0  0
  180.7680  177.5330  140.2530 C   0  0  0  0  0  2  0  0  0  0  0  0
  181.1070  176.1310  139.7560 C   0  0  0  0  0  2  0  0  0  0  0  0
  182.5280  176.0630  139.1820 C   0  0  0  0  0  2  0  0  0  0  0  0
  180.8040  178.5480  139.1030 C   0  0  0  0  0  2  0  0  0  0  0  0
  1 12  1  0  0  0  0
  2  8  1  0  0  0  0
  3 11  1  0  0  0  0
  4  9  1  0  0  0  0
  4 14  1  0  0  0  0
  6  2  1  0  0  0  0
  7 16  2  0  0  0  0
  8  1  1  0  0  0  0
  8  3  2  0  0  0  0
  9 25  1  6  0  0  0
 10  1  2  0  0  0  0
 11 17  2  0  0  0  0
 11 15  1  0  0  0  0
 12  5  1  6  0  0  0
 12 17  1  0  0  0  0
 13  2  2  0  0  0  0
 13  7  1  0  0  0  0
 14 15  1  0  0  0  0
 15 20  1  1  0  0  0
 16  3  1  0  0  0  0
 16  9  1  0  0  0  0
 18 19  1  0  0  0  0
 18 24  1  0  0  0  0
 20 23  2  0  0  0  0
 20 22  1  0  0  0  0
 21 19  2  0  0  0  0
 22 18  2  0  0  0  0
 23 21  1  0  0  0  0
 25 26  1  0  0  0  0
 27 26  1  0  0  0  0
 29 27  1  6  0  0  0
 29 33  1  0  0  0  0
 30 28  1  6  0  0  0
 30 29  1  0  0  0  0
 30 34  1  0  0  0  0
 32 31  1  0  0  0  0
 33 32  1  0  0  0  0
 34 31  1  0  0  0  0
M  END
>  <MODEL>
8

>  <REMARK>
 VINA RESULT:      -6.3      3.140      8.050
  Name = 
  5 active torsions:
  status: ('A' for Active; 'I' for Inactive)
    1  A    between atoms: C_3  and  C_13
    2  A    between atoms: C_3  and  C_17
    3  A    between atoms: C_12  and  C_28
    4  A    between atoms: C_17  and  C_29
    5  A    between atoms: C_18  and  C_29
                            x       y       z     vdW  Elec       q    Type
                         _______ _______ _______ _____ _____    ______ ____

>  <TORSDO>
F 5

$$$$
=
 OpenBabel10252414533D

 34 38  0  0  1  0  0  0  0  0999 V2000
  190.8350  174.1580  136.4360 C   0  0  0  0  0  0  0  0  0  0  0  0
  188.4450  173.3490  136.3830 C   0  0  0  0  0  0  0  0  0  0  0  0
  188.9280  175.6650  136.9860 C   0  0  0  0  0  0  0  0  0  0  0  0
  187.7400  178.2510  136.7270 O   0  0  0  0  0  0  0  0  0  0  0  0
  191.8160  175.7030  134.7830 C   0  0  0  0  0  1  0  0  0  0  0  0
  188.8470  172.0660  136.0300 O   0  0  0  0  0  1  0  0  0  0  0  0
  186.6680  174.8700  136.8140 N   0  0  0  0  0  0  0  0  0  0  0  0
  189.3790  174.3770  136.6110 C   0  0  0  0  0  0  0  0  0  0  0  0
  186.9640  177.2700  137.3480 C   0  0  2  0  0  3  0  0  0  0  0  0
  191.3250  172.9980  136.3940 O   0  0  0  0  0  0  0  0  0  0  0  0
  189.9500  176.7130  137.3350 C   0  0  0  0  0  0  0  0  0  0  0  0
  191.7350  175.3400  136.2540 C   0  0  1  0  0  3  0  0  0  0  0  0
  187.0890  173.6200  136.5030 C   0  0  0  0  0  3  0  0  0  0  0  0
  188.5020  178.8180  137.7560 C   0  0  0  0  0  2  0  0  0  0  0  0
  189.6510  177.9070  138.2090 C   0  0  1  0  0  3  0  0  0  0  0  0
  187.5280  175.9030  137.0340 C   0  0  0  0  0  0  0  0  0  0  0  0
  191.2410  176.5180  137.0400 C   0  0  0  0  0  3  0  0  0  0  0  0
  188.4520  177.6350  141.8100 C   0  0  0  0  0  0  0  0  0  0  0  0
  189.4680  176.8420  142.3450 C   0  0  0  0  0  3  0  0  0  0  0  0
  189.5650  177.5540  139.6620 C   0  0  0  0  0  0  0  0  0  0  0  0
  190.4940  176.4240  141.5550 N   0  0  0  0  0  0  0  0  0  0  0  0
  188.5010  177.9900  140.4620 C   0  0  0  0  0  3  0  0  0  0  0  0
  190.5610  176.7610  140.2380 C   0  0  0  0  0  3  0  0  0  0  0  0
  187.4270  178.0540  142.5900 F   0  0  0  0  0  0  0  0  0  0  0  0
  185.5140  177.4320  136.9100 C   0  0  0  0  0  2  0  0  0  0  0  0
  184.7470  178.2420  137.9400 C   0  0  0  0  0  2  0  0  0  0  0  0
  184.0740  177.3210  138.9450 C   0  0  0  0  0  2  0  0  0  0  0  0
  183.7800  178.9720  141.3750 O   0  0  0  0  0  1  0  0  0  0  0  0
  182.7690  177.9240  139.4510 C   0  0  1  0  0  3  0  0  0  0  0  0
  182.7620  178.1010  140.9770 C   0  0  2  0  0  3  0  0  0  0  0  0
  180.5920  179.3610  140.4090 C   0  0  0  0  0  2  0  0  0  0  0  0
  181.5020  180.1530  139.4740 C   0  0  0  0  0  2  0  0  0  0  0  0
  182.4660  179.2350  138.7110 C   0  0  0  0  0  2  0  0  0  0  0  0
  181.4100  178.6280  141.4810 C   0  0  0  0  0  2  0  0  0  0  0  0
  1  8  1  0  0  0  0
  2 13  2  0  0  0  0
  2  8  1  0  0  0  0
  3 16  1  0  0  0  0
  3 11  1  0  0  0  0
  4  9  1  0  0  0  0
  4 14  1  0  0  0  0
  6  2  1  0  0  0  0
  7 16  2  0  0  0  0
  8  3  2  0  0  0  0
  9 25  1  6  0  0  0
 10  1  2  0  0  0  0
 11 15  1  0  0  0  0
 12  5  1  6  0  0  0
 12  1  1  0  0  0  0
 12 17  1  0  0  0  0
 13  7  1  0  0  0  0
 14 15  1  0  0  0  0
 15 20  1  1  0  0  0
 16  9  1  0  0  0  0
 17 11  2  0  0  0  0
 18 19  1  0  0  0  0
 18 24  1  0  0  0  0
 20 23  2  0  0  0  0
 20 22  1  0  0  0  0
 21 19  2  0  0  0  0
 22 18  2  0  0  0  0
 23 21  1  0  0  0  0
 25 26  1  0  0  0  0
 26 27  1  0  0  0  0
 29 27  1  6  0  0  0
 29 30  1  0  0  0  0
 30 28  1  6  0  0  0
 30 34  1  0  0  0  0
 31 34  1  0  0  0  0
 32 31  1  0  0  0  0
 33 29  1  0  0  0  0
 33 32  1  0  0  0  0
M  END
>  <MODEL>
9

>  <REMARK>
 VINA RESULT:      -6.1      3.089      7.595
  Name = 
  5 active torsions:
  status: ('A' for Active; 'I' for Inactive)
    1  A    between atoms: C_3  and  C_13
    2  A    between atoms: C_3  and  C_17
    3  A    between atoms: C_12  and  C_28
    4  A    between atoms: C_17  and  C_29
    5  A    between atoms: C_18  and  C_29
                            x       y       z     vdW  Elec       q    Type
                         _______ _______ _______ _____ _____    ______ ____

>  <TORSDO>
F 5

$$$$
