=
 OpenBabel10262422483D

 37 44  0  0  1  0  0  0  0  0999 V2000
  184.0180  175.6720  137.5770 C   0  0  0  0  0  2  0  0  0  0  0  0
  181.6020  178.1750  141.0850 C   0  0  0  0  0  0  0  0  0  0  0  0
  184.2340  176.4280  136.2790 C   0  0  1  0  0  3  0  0  0  0  0  0
  184.5900  179.3990  140.4660 C   0  0  0  0  0  2  0  0  0  0  0  0
  180.3120  176.7370  139.5840 C   0  0  0  0  0  2  0  0  0  0  0  0
  182.8390  177.4670  140.6460 C   0  0  2  0  0  3  0  0  0  0  0  0
  185.3750  174.7140  135.0960 C   0  0  0  0  0  1  0  0  0  0  0  0
  180.4530  177.8460  140.5700 C   0  0  0  0  0  0  0  0  0  0  0  0
  184.1450  178.1070  141.1670 C   0  0  2  0  0  3  0  0  0  0  0  0
  179.4290  178.7010  141.0410 N   0  0  0  0  0  0  0  0  0  0  0  0
  185.6890  176.5780  136.4820 C   0  0  1  0  0  3  0  0  0  0  0  0
  181.5940  176.5410  138.7220 C   0  0  2  0  0  3  0  0  0  0  0  0
  181.8420  179.0260  143.6490 S   0  0  0  0  0  0  0  0  0  0  0  0
  185.1840  176.1520  135.1840 N   0  0  0  0  0  0  0  0  0  0  0  0
  179.9500  179.5680  141.8120 N   0  0  0  0  0  0  0  0  0  0  0  0
  185.6480  178.0020  136.9820 C   0  0  1  0  0  3  0  0  0  0  0  0
  184.6780  179.2760  138.9400 C   0  0  0  0  0  2  0  0  0  0  0  0
  181.3970  179.3860  141.9260 C   0  0  2  0  0  3  0  0  0  0  0  0
  182.7920  177.3120  139.1720 N   0  0  2  0  0  0  0  0  0  0  0  0
  184.2670  178.1270  142.6980 C   0  0  2  0  0  3  0  0  0  0  0  0
  185.1610  177.9000  138.4570 C   0  0  1  0  0  3  0  0  0  0  0  0
  184.0880  176.7490  138.7140 C   0  0  2  0  0  3  0  0  0  0  0  0
  183.6080  179.3390  143.3510 C   0  0  0  0  0  2  0  0  0  0  0  0
  185.9740  177.8600  144.5000 C   0  0  0  0  0  3  0  0  0  0  0  0
  185.6910  177.9750  143.1340 C   0  0  0  0  0  0  0  0  0  0  0  0
  186.7400  177.9200  142.2040 C   0  0  0  0  0  3  0  0  0  0  0  0
  189.0680  177.7080  141.7380 F   0  0  0  0  0  0  0  0  0  0  0  0
  188.3350  177.6480  144.0050 C   0  0  0  0  0  3  0  0  0  0  0  0
  188.0590  177.7590  142.6390 C   0  0  0  0  0  0  0  0  0  0  0  0
  187.2930  177.6980  144.9360 C   0  0  0  0  0  3  0  0  0  0  0  0
  187.0400  178.6090  136.9360 C   0  0  0  0  0  2  0  0  0  0  0  0
  187.6750  178.4390  138.1660 O   0  0  0  0  0  1  0  0  0  0  0  0
  181.2460  176.9450  137.2920 C   0  0  0  0  0  2  0  0  0  0  0  0
  181.1550  178.7560  135.7880 C   0  0  0  0  0  0  0  0  0  0  0  0
  181.3290  178.4510  137.1190 C   0  0  1  0  0  3  0  0  0  0  0  0
  180.0910  178.9550  136.8220 O   0  0  0  0  0  0  0  0  0  0  0  0
  181.5650  178.8140  134.5990 O   0  0  0  0  0  0  0  0  0  0  0  0
  1 22  1  0  0  0  0
  3 11  1  0  0  0  0
  3  1  1  1  0  0  0
  5  8  1  0  0  0  0
  6  2  1  6  0  0  0
  6  9  1  0  0  0  0
  7 14  1  0  0  0  0
  8 10  1  0  0  0  0
  8  2  2  0  0  0  0
  9  4  1  1  0  0  0
  9 20  1  0  0  0  0
 10 15  2  0  0  0  0
 11 14  1  6  0  0  0
 11 16  1  0  0  0  0
 12 33  1  6  0  0  0
 12 19  1  0  0  0  0
 12  5  1  0  0  0  0
 14  3  1  0  0  0  0
 15 18  1  0  0  0  0
 16 31  1  1  0  0  0
 16 21  1  0  0  0  0
 17  4  1  0  0  0  0
 18  2  1  6  0  0  0
 18 13  1  0  0  0  0
 19  6  1  0  0  0  0
 20 25  1  0  0  0  0
 20 23  1  0  0  0  0
 21 22  1  0  0  0  0
 21 17  1  0  0  0  0
 22 19  1  0  0  0  0
 23 13  1  0  0  0  0
 24 30  1  0  0  0  0
 25 24  2  0  0  0  0
 26 29  2  0  0  0  0
 26 25  1  0  0  0  0
 27 29  1  0  0  0  0
 28 30  2  0  0  0  0
 29 28  1  0  0  0  0
 31 32  1  0  0  0  0
 34 36  1  0  0  0  0
 34 35  1  0  0  0  0
 35 33  1  0  0  0  0
 36 35  1  0  0  0  0
 37 34  2  0  0  0  0
M  END
>  <MODEL>
1

>  <REMARK>
 VINA RESULT:      -7.0      0.000      0.000
  Name = 
  4 active torsions:
  status: ('A' for Active; 'I' for Inactive)
    1  A    between atoms: C_6  and  C_31
    2  A    between atoms: C_11  and  C_26
    3  A    between atoms: C_20  and  C_25
    4  A    between atoms: C_21  and  C_25
                            x       y       z     vdW  Elec       q    Type
                         _______ _______ _______ _____ _____    ______ ____

>  <TORSDO>
F 4

$$$$
=
 OpenBabel10262422483D

 37 44  0  0  1  0  0  0  0  0999 V2000
  187.8280  178.4520  136.9690 C   0  0  0  0  0  2  0  0  0  0  0  0
  185.1010  178.5640  141.0870 C   0  0  0  0  0  0  0  0  0  0  0  0
  188.2490  177.0680  136.5130 C   0  0  1  0  0  3  0  0  0  0  0  0
  183.5220  177.2080  138.5420 C   0  0  0  0  0  2  0  0  0  0  0  0
  187.5270  178.8130  141.2910 C   0  0  0  0  0  2  0  0  0  0  0  0
  185.2260  178.8640  139.6310 C   0  0  2  0  0  3  0  0  0  0  0  0
  189.4840  177.7250  134.5940 C   0  0  0  0  0  1  0  0  0  0  0  0
  186.1680  178.5190  141.8310 C   0  0  0  0  0  0  0  0  0  0  0  0
  183.9160  178.6630  138.8360 C   0  0  2  0  0  3  0  0  0  0  0  0
  185.8450  178.1210  143.1480 N   0  0  0  0  0  0  0  0  0  0  0  0
  187.3590  177.0670  135.3340 C   0  0  1  0  0  3  0  0  0  0  0  0
  187.6580  178.4490  139.7820 C   0  0  2  0  0  3  0  0  0  0  0  0
  182.7130  179.4240  142.0430 S   0  0  0  0  0  0  0  0  0  0  0  0
  188.7420  176.6280  135.1930 N   0  0  0  0  0  0  0  0  0  0  0  0
  184.5950  177.8900  143.2060 N   0  0  0  0  0  0  0  0  0  0  0  0
  186.2630  176.2300  135.9450 C   0  0  1  0  0  3  0  0  0  0  0  0
  184.6330  176.3890  137.8730 C   0  0  0  0  0  2  0  0  0  0  0  0
  183.9500  178.1020  141.9100 C   0  0  2  0  0  3  0  0  0  0  0  0
  186.3790  178.1020  139.0930 N   0  0  2  0  0  0  0  0  0  0  0  0
  182.7610  179.5670  139.2910 C   0  0  2  0  0  3  0  0  0  0  0  0
  185.4910  177.1980  136.8880 C   0  0  1  0  0  3  0  0  0  0  0  0
  186.4120  178.2750  137.6180 C   0  0  2  0  0  3  0  0  0  0  0  0
  181.9510  178.9920  140.4510 C   0  0  0  0  0  2  0  0  0  0  0  0
  181.3920  178.9450  137.2980 C   0  0  0  0  0  3  0  0  0  0  0  0
  181.8810  179.9490  138.1420 C   0  0  0  0  0  0  0  0  0  0  0  0
  181.5200  181.2850  137.9100 C   0  0  0  0  0  3  0  0  0  0  0  0
  180.3360  182.9010  136.6190 F   0  0  0  0  0  0  0  0  0  0  0  0
  180.2000  180.6040  135.9990 C   0  0  0  0  0  3  0  0  0  0  0  0
  180.6820  181.6110  136.8390 C   0  0  0  0  0  0  0  0  0  0  0  0
  180.5540  179.2710  136.2270 C   0  0  0  0  0  3  0  0  0  0  0  0
  185.3350  175.7140  134.8580 C   0  0  0  0  0  2  0  0  0  0  0  0
  185.0680  174.3600  135.0610 O   0  0  0  0  0  1  0  0  0  0  0  0
  188.6190  177.2680  139.6820 C   0  0  0  0  0  2  0  0  0  0  0  0
  190.4800  176.7630  141.0350 C   0  0  0  0  0  0  0  0  0  0  0  0
  190.0190  177.6700  140.1080 C   0  0  1  0  0  3  0  0  0  0  0  0
  190.9330  176.7820  139.6080 O   0  0  0  0  0  0  0  0  0  0  0  0
  190.5020  176.2740  142.1940 O   0  0  0  0  0  0  0  0  0  0  0  0
  1 22  1  0  0  0  0
  2  8  2  0  0  0  0
  3  1  1  6  0  0  0
  5  8  1  0  0  0  0
  6  2  1  1  0  0  0
  7 14  1  0  0  0  0
  8 10  1  0  0  0  0
  9  4  1  1  0  0  0
  9 20  1  0  0  0  0
  9  6  1  0  0  0  0
 10 15  2  0  0  0  0
 11 14  1  6  0  0  0
 11 16  1  0  0  0  0
 11  3  1  0  0  0  0
 12 33  1  1  0  0  0
 12  5  1  0  0  0  0
 14  3  1  0  0  0  0
 16 31  1  6  0  0  0
 16 21  1  0  0  0  0
 17  4  1  0  0  0  0
 18  2  1  6  0  0  0
 18 13  1  0  0  0  0
 18 15  1  0  0  0  0
 19  6  1  0  0  0  0
 19 12  1  0  0  0  0
 20 23  1  0  0  0  0
 21 22  1  0  0  0  0
 21 17  1  0  0  0  0
 22 19  1  0  0  0  0
 23 13  1  0  0  0  0
 24 25  1  0  0  0  0
 25 20  1  0  0  0  0
 26 25  2  0  0  0  0
 27 29  1  0  0  0  0
 28 30  1  0  0  0  0
 28 29  2  0  0  0  0
 29 26  1  0  0  0  0
 30 24  2  0  0  0  0
 31 32  1  0  0  0  0
 33 35  1  0  0  0  0
 34 37  2  0  0  0  0
 35 34  1  0  0  0  0
 36 35  1  0  0  0  0
 36 34  1  0  0  0  0
M  END
>  <MODEL>
2

>  <REMARK>
 VINA RESULT:      -6.3      3.264      6.701
  Name = 
  4 active torsions:
  status: ('A' for Active; 'I' for Inactive)
    1  A    between atoms: C_6  and  C_31
    2  A    between atoms: C_11  and  C_26
    3  A    between atoms: C_20  and  C_25
    4  A    between atoms: C_21  and  C_25
                            x       y       z     vdW  Elec       q    Type
                         _______ _______ _______ _____ _____    ______ ____

>  <TORSDO>
F 4

$$$$
=
 OpenBabel10262422483D

 37 44  0  0  1  0  0  0  0  0999 V2000
  186.6390  178.7690  138.3030 C   0  0  0  0  0  2  0  0  0  0  0  0
  182.9050  178.9950  141.5290 C   0  0  0  0  0  0  0  0  0  0  0  0
  187.2340  177.3880  138.1020 C   0  0  1  0  0  3  0  0  0  0  0  0
  182.1350  177.3430  138.7930 C   0  0  0  0  0  2  0  0  0  0  0  0
  185.1710  179.4320  142.3400 C   0  0  0  0  0  2  0  0  0  0  0  0
  183.4010  179.1930  140.1370 C   0  0  2  0  0  3  0  0  0  0  0  0
  188.9050  177.9860  136.5240 C   0  0  0  0  0  1  0  0  0  0  0  0
  183.7340  179.0830  142.5280 C   0  0  0  0  0  0  0  0  0  0  0  0
  182.3640  178.8410  139.0470 C   0  0  2  0  0  3  0  0  0  0  0  0
  183.0880  178.7630  143.7450 N   0  0  0  0  0  0  0  0  0  0  0  0
  186.6940  177.2350  136.7360 C   0  0  1  0  0  3  0  0  0  0  0  0
  185.7210  178.9660  140.9600 C   0  0  2  0  0  3  0  0  0  0  0  0
  180.3080  179.7530  141.7400 S   0  0  0  0  0  0  0  0  0  0  0  0
  188.0830  176.8870  137.0040 N   0  0  0  0  0  0  0  0  0  0  0  0
  181.8820  178.4490  143.4930 N   0  0  0  0  0  0  0  0  0  0  0  0
  185.5160  176.3700  137.1100 C   0  0  1  0  0  3  0  0  0  0  0  0
  183.4230  176.5580  138.5180 C   0  0  0  0  0  2  0  0  0  0  0  0
  181.5990  178.5160  142.0590 C   0  0  2  0  0  3  0  0  0  0  0  0
  184.6910  178.4770  139.9930 N   0  0  2  0  0  0  0  0  0  0  0  0
  181.0860  179.6910  139.0970 C   0  0  2  0  0  3  0  0  0  0  0  0
  184.4730  177.3500  137.7240 C   0  0  1  0  0  3  0  0  0  0  0  0
  185.1110  178.5410  138.5700 C   0  0  2  0  0  3  0  0  0  0  0  0
  180.0230  179.1490  140.0490 C   0  0  0  0  0  2  0  0  0  0  0  0
  179.4820  179.1120  137.2730 C   0  0  0  0  0  3  0  0  0  0  0  0
  180.5300  179.9220  137.7260 C   0  0  0  0  0  0  0  0  0  0  0  0
  181.0190  180.9460  136.9010 C   0  0  0  0  0  3  0  0  0  0  0  0
  180.9440  182.1390  134.8390 F   0  0  0  0  0  0  0  0  0  0  0  0
  179.4250  180.3360  135.1850 C   0  0  0  0  0  3  0  0  0  0  0  0
  180.4680  181.1510  135.6320 C   0  0  0  0  0  0  0  0  0  0  0  0
  178.9310  179.3170  136.0040 C   0  0  0  0  0  3  0  0  0  0  0  0
  184.9400  175.7100  135.8690 C   0  0  0  0  0  2  0  0  0  0  0  0
  185.0990  176.5480  134.7650 O   0  0  0  0  0  1  0  0  0  0  0  0
  186.7290  177.8520  141.2240 C   0  0  0  0  0  2  0  0  0  0  0  0
  188.1370  176.9020  142.8580 C   0  0  0  0  0  0  0  0  0  0  0  0
  187.3690  178.0140  142.5910 C   0  0  1  0  0  3  0  0  0  0  0  0
  188.7150  178.2240  142.4550 O   0  0  0  0  0  0  0  0  0  0  0  0
  188.2660  175.6930  143.1800 O   0  0  0  0  0  0  0  0  0  0  0  0
  1 22  1  0  0  0  0
  2  8  2  0  0  0  0
  3  1  1  6  0  0  0
  5  8  1  0  0  0  0
  6  2  1  1  0  0  0
  7 14  1  0  0  0  0
  8 10  1  0  0  0  0
  9  4  1  1  0  0  0
  9 20  1  0  0  0  0
  9  6  1  0  0  0  0
 11 14  1  6  0  0  0
 11 16  1  0  0  0  0
 11  3  1  0  0  0  0
 12 33  1  1  0  0  0
 12  5  1  0  0  0  0
 13 18  1  0  0  0  0
 14  3  1  0  0  0  0
 15 10  2  0  0  0  0
 16 31  1  6  0  0  0
 16 21  1  0  0  0  0
 17  4  1  0  0  0  0
 18  2  1  6  0  0  0
 18 15  1  0  0  0  0
 19  6  1  0  0  0  0
 19 12  1  0  0  0  0
 20 23  1  0  0  0  0
 21 17  1  0  0  0  0
 21 22  1  0  0  0  0
 22 19  1  0  0  0  0
 23 13  1  0  0  0  0
 24 25  1  0  0  0  0
 25 20  1  0  0  0  0
 26 25  2  0  0  0  0
 27 29  1  0  0  0  0
 28 29  2  0  0  0  0
 28 30  1  0  0  0  0
 29 26  1  0  0  0  0
 30 24  2  0  0  0  0
 32 31  1  0  0  0  0
 33 35  1  0  0  0  0
 34 37  2  0  0  0  0
 35 34  1  0  0  0  0
 36 35  1  0  0  0  0
 36 34  1  0  0  0  0
M  END
>  <MODEL>
3

>  <REMARK>
 VINA RESULT:      -6.1      2.942      6.508
  Name = 
  4 active torsions:
  status: ('A' for Active; 'I' for Inactive)
    1  A    between atoms: C_6  and  C_31
    2  A    between atoms: C_11  and  C_26
    3  A    between atoms: C_20  and  C_25
    4  A    between atoms: C_21  and  C_25
                            x       y       z     vdW  Elec       q    Type
                         _______ _______ _______ _____ _____    ______ ____

>  <TORSDO>
F 4

$$$$
=
 OpenBabel10262422483D

 37 44  0  0  1  0  0  0  0  0999 V2000
  184.4740  175.3560  137.4450 C   0  0  0  0  0  2  0  0  0  0  0  0
  180.9930  178.0130  139.7320 C   0  0  0  0  0  0  0  0  0  0  0  0
  185.0660  176.0020  136.2070 C   0  0  1  0  0  3  0  0  0  0  0  0
  183.9820  179.3630  139.9500 C   0  0  0  0  0  2  0  0  0  0  0  0
  180.2910  176.3640  138.0670 C   0  0  0  0  0  2  0  0  0  0  0  0
  182.3260  177.3480  139.7800 C   0  0  2  0  0  3  0  0  0  0  0  0
  186.5770  174.2620  135.6310 C   0  0  0  0  0  1  0  0  0  0  0  0
  180.0770  177.5660  138.9230 C   0  0  0  0  0  0  0  0  0  0  0  0
  183.3790  178.1150  140.6120 C   0  0  2  0  0  3  0  0  0  0  0  0
  178.9310  178.3940  138.9560 N   0  0  0  0  0  0  0  0  0  0  0  0
  186.3770  176.2620  136.8370 C   0  0  1  0  0  3  0  0  0  0  0  0
  181.7860  176.1720  137.6750 C   0  0  2  0  0  3  0  0  0  0  0  0
  180.3790  179.1100  142.1360 S   0  0  0  0  0  0  0  0  0  0  0  0
  186.3230  175.6870  135.4990 N   0  0  0  0  0  0  0  0  0  0  0  0
  179.1520  179.3600  139.7530 N   0  0  0  0  0  0  0  0  0  0  0  0
  186.1350  177.7200  137.1430 C   0  0  1  0  0  3  0  0  0  0  0  0
  184.5550  179.1050  138.5510 C   0  0  0  0  0  2  0  0  0  0  0  0
  180.4930  179.2810  140.3320 C   0  0  2  0  0  3  0  0  0  0  0  0
  182.7550  177.0550  138.3920 N   0  0  2  0  0  0  0  0  0  0  0  0
  183.0080  178.2840  142.0930 C   0  0  2  0  0  3  0  0  0  0  0  0
  185.2080  177.7240  138.3940 C   0  0  1  0  0  3  0  0  0  0  0  0
  184.1460  176.5350  138.4250 C   0  0  2  0  0  3  0  0  0  0  0  0
  182.1380  179.5060  142.3740 C   0  0  0  0  0  2  0  0  0  0  0  0
  185.4490  177.8680  142.4160 C   0  0  0  0  0  3  0  0  0  0  0  0
  184.2240  178.2620  142.9660 C   0  0  0  0  0  0  0  0  0  0  0  0
  184.1640  178.6510  144.3140 C   0  0  0  0  0  3  0  0  0  0  0  0
  185.2560  179.0140  146.4000 F   0  0  0  0  0  0  0  0  0  0  0  0
  186.5380  178.2400  144.5460 C   0  0  0  0  0  3  0  0  0  0  0  0
  185.3190  178.6390  145.1010 C   0  0  0  0  0  0  0  0  0  0  0  0
  186.6040  177.8550  143.2040 C   0  0  0  0  0  3  0  0  0  0  0  0
  187.4500  178.4080  137.4690 C   0  0  0  0  0  2  0  0  0  0  0  0
  187.5070  179.6520  136.8400 O   0  0  0  0  0  1  0  0  0  0  0  0
  181.8970  176.4190  136.1730 C   0  0  0  0  0  2  0  0  0  0  0  0
  181.9700  174.2570  135.2400 C   0  0  0  0  0  0  0  0  0  0  0  0
  181.1510  175.3530  135.3910 C   0  0  1  0  0  3  0  0  0  0  0  0
  180.8350  174.3060  136.2140 O   0  0  0  0  0  0  0  0  0  0  0  0
  182.9420  173.6620  134.7050 O   0  0  0  0  0  0  0  0  0  0  0  0
  1 22  1  0  0  0  0
  3 11  1  0  0  0  0
  3  1  1  1  0  0  0
  5  8  1  0  0  0  0
  6  2  1  6  0  0  0
  6  9  1  0  0  0  0
  8 10  1  0  0  0  0
  8  2  2  0  0  0  0
  9  4  1  6  0  0  0
  9 20  1  0  0  0  0
 10 15  2  0  0  0  0
 11 14  1  6  0  0  0
 11 16  1  0  0  0  0
 12 33  1  6  0  0  0
 12  5  1  0  0  0  0
 12 19  1  0  0  0  0
 13 23  1  0  0  0  0
 14  7  1  0  0  0  0
 14  3  1  0  0  0  0
 15 18  1  0  0  0  0
 16 31  1  1  0  0  0
 16 21  1  0  0  0  0
 17  4  1  0  0  0  0
 18  2  1  6  0  0  0
 18 13  1  0  0  0  0
 19 22  1  0  0  0  0
 19  6  1  0  0  0  0
 20 23  1  0  0  0  0
 20 25  1  0  0  0  0
 21 22  1  0  0  0  0
 21 17  1  0  0  0  0
 24 25  2  0  0  0  0
 24 30  1  0  0  0  0
 25 26  1  0  0  0  0
 26 29  2  0  0  0  0
 28 29  1  0  0  0  0
 29 27  1  0  0  0  0
 30 28  2  0  0  0  0
 32 31  1  0  0  0  0
 34 35  1  0  0  0  0
 34 36  1  0  0  0  0
 35 33  1  0  0  0  0
 35 36  1  0  0  0  0
 37 34  2  0  0  0  0
M  END
>  <MODEL>
4

>  <REMARK>
 VINA RESULT:      -6.1      1.995      2.379
  Name = 
  4 active torsions:
  status: ('A' for Active; 'I' for Inactive)
    1  A    between atoms: C_6  and  C_31
    2  A    between atoms: C_11  and  C_26
    3  A    between atoms: C_20  and  C_25
    4  A    between atoms: C_21  and  C_25
                            x       y       z     vdW  Elec       q    Type
                         _______ _______ _______ _____ _____    ______ ____

>  <TORSDO>
F 4

$$$$
=
 OpenBabel10262422483D

 37 44  0  0  1  0  0  0  0  0999 V2000
  188.1450  176.6390  143.4780 C   0  0  0  0  0  2  0  0  0  0  0  0
  191.6200  176.9300  139.9790 C   0  0  0  0  0  0  0  0  0  0  0  0
  187.7140  177.9680  144.0700 C   0  0  1  0  0  3  0  0  0  0  0  0
  188.7420  178.2060  139.0330 C   0  0  0  0  0  2  0  0  0  0  0  0
  192.3270  176.5660  142.2930 C   0  0  0  0  0  2  0  0  0  0  0  0
  190.2380  176.5340  140.3740 C   0  0  2  0  0  3  0  0  0  0  0  0
  186.1230  177.1280  145.6190 C   0  0  0  0  0  1  0  0  0  0  0  0
  192.5630  176.9650  140.8760 C   0  0  0  0  0  0  0  0  0  0  0  0
  189.1840  176.7530  139.2650 C   0  0  2  0  0  3  0  0  0  0  0  0
  193.7650  177.4610  140.3210 N   0  0  0  0  0  0  0  0  0  0  0  0
  186.3800  177.9430  143.4360 C   0  0  1  0  0  3  0  0  0  0  0  0
  190.8600  176.8270  142.7480 C   0  0  2  0  0  3  0  0  0  0  0  0
  192.1120  176.2590  137.3970 S   0  0  0  0  0  0  0  0  0  0  0  0
  186.5020  178.2980  144.8440 N   0  0  0  0  0  0  0  0  0  0  0  0
  193.5550  177.7610  139.1030 N   0  0  0  0  0  0  0  0  0  0  0  0
  186.7120  178.8730  142.2960 C   0  0  1  0  0  3  0  0  0  0  0  0
  188.2730  178.9210  140.3060 C   0  0  0  0  0  2  0  0  0  0  0  0
  192.1680  177.5030  138.7190 C   0  0  2  0  0  3  0  0  0  0  0  0
  189.9080  177.1980  141.6570 N   0  0  2  0  0  0  0  0  0  0  0  0
  189.4390  175.9420  137.9860 C   0  0  2  0  0  3  0  0  0  0  0  0
  187.5260  178.0080  141.2890 C   0  0  1  0  0  3  0  0  0  0  0  0
  188.4820  176.9320  141.9750 C   0  0  2  0  0  3  0  0  0  0  0  0
  190.3780  176.6300  136.9990 C   0  0  0  0  0  2  0  0  0  0  0  0
  188.0240  174.2300  136.8460 C   0  0  0  0  0  3  0  0  0  0  0  0
  188.1550  175.5360  137.3320 C   0  0  0  0  0  0  0  0  0  0  0  0
  187.0770  176.4280  137.2190 C   0  0  0  0  0  3  0  0  0  0  0  0
  184.8470  176.8790  136.5100 F   0  0  0  0  0  0  0  0  0  0  0  0
  185.7610  174.7110  136.1320 C   0  0  0  0  0  3  0  0  0  0  0  0
  185.8830  176.0160  136.6190 C   0  0  0  0  0  0  0  0  0  0  0  0
  186.8300  173.8180  136.2460 C   0  0  0  0  0  3  0  0  0  0  0  0
  185.4350  179.3680  141.6400 C   0  0  0  0  0  2  0  0  0  0  0  0
  184.3960  178.4680  141.8790 O   0  0  0  0  0  1  0  0  0  0  0  0
  190.8980  177.9470  143.7830 C   0  0  0  0  0  2  0  0  0  0  0  0
  190.7070  177.1280  145.9840 C   0  0  0  0  0  0  0  0  0  0  0  0
  191.6320  177.5030  145.0360 C   0  0  1  0  0  3  0  0  0  0  0  0
  191.5150  176.1480  145.1900 O   0  0  0  0  0  0  0  0  0  0  0  0
  189.8350  177.3940  146.8510 O   0  0  0  0  0  0  0  0  0  0  0  0
  2  8  2  0  0  0  0
  3  1  1  1  0  0  0
  3 14  1  0  0  0  0
  4 17  1  0  0  0  0
  5 12  1  0  0  0  0
  6  2  1  6  0  0  0
  6 19  1  0  0  0  0
  8  5  1  0  0  0  0
  9  4  1  6  0  0  0
  9  6  1  0  0  0  0
 10  8  1  0  0  0  0
 11  3  1  0  0  0  0
 11 14  1  1  0  0  0
 12 33  1  1  0  0  0
 14  7  1  0  0  0  0
 15 10  2  0  0  0  0
 16 31  1  6  0  0  0
 16 11  1  0  0  0  0
 17 21  1  0  0  0  0
 18 13  1  6  0  0  0
 18 15  1  0  0  0  0
 18  2  1  0  0  0  0
 19 22  1  0  0  0  0
 19 12  1  0  0  0  0
 20  9  1  0  0  0  0
 21 22  1  0  0  0  0
 21 16  1  0  0  0  0
 22  1  1  0  0  0  0
 23 13  1  0  0  0  0
 23 20  1  0  0  0  0
 24 25  1  0  0  0  0
 25 20  1  0  0  0  0
 26 25  2  0  0  0  0
 27 29  1  0  0  0  0
 28 30  1  0  0  0  0
 28 29  2  0  0  0  0
 29 26  1  0  0  0  0
 30 24  2  0  0  0  0
 31 32  1  0  0  0  0
 33 35  1  0  0  0  0
 34 37  2  0  0  0  0
 35 36  1  0  0  0  0
 35 34  1  0  0  0  0
 36 34  1  0  0  0  0
M  END
>  <MODEL>
5

>  <REMARK>
 VINA RESULT:      -5.8      4.941      9.550
  Name = 
  4 active torsions:
  status: ('A' for Active; 'I' for Inactive)
    1  A    between atoms: C_6  and  C_31
    2  A    between atoms: C_11  and  C_26
    3  A    between atoms: C_20  and  C_25
    4  A    between atoms: C_21  and  C_25
                            x       y       z     vdW  Elec       q    Type
                         _______ _______ _______ _____ _____    ______ ____

>  <TORSDO>
F 4

$$$$
=
 OpenBabel10262422483D

 37 44  0  0  1  0  0  0  0  0999 V2000
  187.5480  176.8560  143.9890 C   0  0  0  0  0  2  0  0  0  0  0  0
  187.6580  178.0990  139.2090 C   0  0  0  0  0  0  0  0  0  0  0  0
  187.7790  178.0010  144.9570 C   0  0  1  0  0  3  0  0  0  0  0  0
  185.0670  179.3520  140.7970 C   0  0  0  0  0  2  0  0  0  0  0  0
  189.7240  177.3070  140.2530 C   0  0  0  0  0  2  0  0  0  0  0  0
  186.8990  177.5390  140.3640 C   0  0  2  0  0  3  0  0  0  0  0  0
  187.6220  176.7530  146.9710 C   0  0  0  0  0  1  0  0  0  0  0  0
  188.9560  178.0080  139.1840 C   0  0  0  0  0  0  0  0  0  0  0  0
  185.4000  177.9150  140.3690 C   0  0  2  0  0  3  0  0  0  0  0  0
  189.4860  178.6870  138.0630 N   0  0  0  0  0  0  0  0  0  0  0  0
  186.3820  178.0200  145.4380 C   0  0  1  0  0  3  0  0  0  0  0  0
  189.0110  177.3710  141.6360 C   0  0  2  0  0  3  0  0  0  0  0  0
  186.1650  178.0150  136.9460 S   0  0  0  0  0  0  0  0  0  0  0  0
  187.4750  178.0810  146.4000 N   0  0  0  0  0  0  0  0  0  0  0  0
  188.5250  179.2200  137.4220 N   0  0  0  0  0  0  0  0  0  0  0  0
  185.9260  179.1880  144.5980 C   0  0  1  0  0  3  0  0  0  0  0  0
  185.6790  179.7530  142.1450 C   0  0  0  0  0  2  0  0  0  0  0  0
  187.2380  178.9570  138.0670 C   0  0  2  0  0  3  0  0  0  0  0  0
  187.6130  177.8980  141.6120 N   0  0  2  0  0  0  0  0  0  0  0  0
  184.6210  177.4070  139.1470 C   0  0  2  0  0  3  0  0  0  0  0  0
  185.7300  178.6070  143.1670 C   0  0  1  0  0  3  0  0  0  0  0  0
  186.7820  177.4770  142.7690 C   0  0  2  0  0  3  0  0  0  0  0  0
  184.6820  178.3470  137.9450 C   0  0  0  0  0  2  0  0  0  0  0  0
  182.6850  175.8320  139.0930 C   0  0  0  0  0  3  0  0  0  0  0  0
  183.2090  177.0630  139.5030 C   0  0  0  0  0  0  0  0  0  0  0  0
  182.4110  177.9360  140.2590 C   0  0  0  0  0  3  0  0  0  0  0  0
  180.3340  178.4270  141.3210 F   0  0  0  0  0  0  0  0  0  0  0  0
  180.5830  176.3510  140.1770 C   0  0  0  0  0  3  0  0  0  0  0  0
  181.1010  177.5810  140.5930 C   0  0  0  0  0  0  0  0  0  0  0  0
  181.3750  175.4760  139.4270 C   0  0  0  0  0  3  0  0  0  0  0  0
  184.6060  179.7240  145.1260 C   0  0  0  0  0  2  0  0  0  0  0  0
  184.1840  178.9630  146.2170 O   0  0  0  0  0  1  0  0  0  0  0  0
  189.8630  178.2500  142.5470 C   0  0  0  0  0  2  0  0  0  0  0  0
  191.3730  177.4380  144.1630 C   0  0  0  0  0  0  0  0  0  0  0  0
  191.2160  177.6120  142.8060 C   0  0  1  0  0  3  0  0  0  0  0  0
  191.0490  176.3180  143.2220 O   0  0  0  0  0  0  0  0  0  0  0  0
  191.6000  177.8770  145.3200 O   0  0  0  0  0  0  0  0  0  0  0  0
  3  1  1  1  0  0  0
  3 11  1  0  0  0  0
  3 14  1  0  0  0  0
  4 17  1  0  0  0  0
  5 12  1  0  0  0  0
  6  2  1  6  0  0  0
  6  9  1  0  0  0  0
  6 19  1  0  0  0  0
  8  2  2  0  0  0  0
  8  5  1  0  0  0  0
  9  4  1  6  0  0  0
 10  8  1  0  0  0  0
 11 14  1  1  0  0  0
 12 33  1  1  0  0  0
 13 23  1  0  0  0  0
 14  7  1  0  0  0  0
 15 10  2  0  0  0  0
 15 18  1  0  0  0  0
 16 31  1  1  0  0  0
 16 11  1  0  0  0  0
 17 21  1  0  0  0  0
 18 13  1  6  0  0  0
 18  2  1  0  0  0  0
 19 12  1  0  0  0  0
 19 22  1  0  0  0  0
 20 25  1  0  0  0  0
 20  9  1  0  0  0  0
 21 16  1  0  0  0  0
 22 21  1  0  0  0  0
 22  1  1  0  0  0  0
 23 20  1  0  0  0  0
 24 30  2  0  0  0  0
 24 25  1  0  0  0  0
 25 26  2  0  0  0  0
 26 29  1  0  0  0  0
 28 29  2  0  0  0  0
 29 27  1  0  0  0  0
 30 28  1  0  0  0  0
 31 32  1  0  0  0  0
 33 35  1  0  0  0  0
 34 37  2  0  0  0  0
 35 36  1  0  0  0  0
 35 34  1  0  0  0  0
 36 34  1  0  0  0  0
M  END
>  <MODEL>
6

>  <REMARK>
 VINA RESULT:      -5.5      4.409      8.414
  Name = 
  4 active torsions:
  status: ('A' for Active; 'I' for Inactive)
    1  A    between atoms: C_6  and  C_31
    2  A    between atoms: C_11  and  C_26
    3  A    between atoms: C_20  and  C_25
    4  A    between atoms: C_21  and  C_25
                            x       y       z     vdW  Elec       q    Type
                         _______ _______ _______ _____ _____    ______ ____

>  <TORSDO>
F 4

$$$$
=
 OpenBabel10262422483D

 37 44  0  0  1  0  0  0  0  0999 V2000
  190.2010  173.9630  137.0970 C   0  0  0  0  0  2  0  0  0  0  0  0
  186.8850  177.2730  138.6630 C   0  0  0  0  0  0  0  0  0  0  0  0
  191.0370  174.4020  135.9100 C   0  0  1  0  0  3  0  0  0  0  0  0
  189.9870  178.2170  139.2000 C   0  0  0  0  0  2  0  0  0  0  0  0
  186.1680  175.5850  137.0440 C   0  0  0  0  0  2  0  0  0  0  0  0
  188.0880  176.4390  138.9490 C   0  0  2  0  0  3  0  0  0  0  0  0
  192.3360  172.4260  135.6850 C   0  0  0  0  0  1  0  0  0  0  0  0
  186.0250  176.8800  137.7680 C   0  0  0  0  0  0  0  0  0  0  0  0
  189.1260  177.1310  139.8620 C   0  0  2  0  0  3  0  0  0  0  0  0
  185.0190  177.8560  137.5760 N   0  0  0  0  0  0  0  0  0  0  0  0
  192.2790  174.5400  136.6970 C   0  0  1  0  0  3  0  0  0  0  0  0
  187.6560  175.1550  136.8820 C   0  0  2  0  0  3  0  0  0  0  0  0
  186.1350  178.6650  140.8670 S   0  0  0  0  0  0  0  0  0  0  0  0
  192.3150  173.8540  135.4120 N   0  0  0  0  0  0  0  0  0  0  0  0
  185.2760  178.8530  138.3220 N   0  0  0  0  0  0  0  0  0  0  0  0
  192.2180  176.0400  136.8560 C   0  0  1  0  0  3  0  0  0  0  0  0
  190.6910  177.7530  137.9180 C   0  0  0  0  0  2  0  0  0  0  0  0
  186.5050  178.6480  139.0900 C   0  0  2  0  0  3  0  0  0  0  0  0
  188.6440  175.9620  137.6610 N   0  0  2  0  0  0  0  0  0  0  0  0
  188.5960  177.4880  141.2580 C   0  0  2  0  0  3  0  0  0  0  0  0
  191.1480  176.2870  137.9600 C   0  0  1  0  0  3  0  0  0  0  0  0
  189.9270  175.2630  137.9290 C   0  0  2  0  0  3  0  0  0  0  0  0
  187.8870  178.8390  141.3200 C   0  0  0  0  0  2  0  0  0  0  0  0
  190.0880  178.5420  142.9590 C   0  0  0  0  0  3  0  0  0  0  0  0
  189.6720  177.3840  142.2930 C   0  0  0  0  0  0  0  0  0  0  0  0
  190.2510  176.1490  142.6250 C   0  0  0  0  0  3  0  0  0  0  0  0
  191.7990  174.8870  143.9260 F   0  0  0  0  0  0  0  0  0  0  0  0
  191.6550  177.2410  144.2680 C   0  0  0  0  0  3  0  0  0  0  0  0
  191.2420  176.0790  143.6100 C   0  0  0  0  0  0  0  0  0  0  0  0
  191.0790  178.4720  143.9440 C   0  0  0  0  0  3  0  0  0  0  0  0
  193.5670  176.5700  137.3120 C   0  0  0  0  0  2  0  0  0  0  0  0
  193.7190  176.3680  138.6850 O   0  0  0  0  0  1  0  0  0  0  0  0
  187.9960  175.2420  135.3970 C   0  0  0  0  0  2  0  0  0  0  0  0
  187.7690  172.9750  134.7940 C   0  0  0  0  0  0  0  0  0  0  0  0
  187.2080  174.2170  134.6000 C   0  0  1  0  0  3  0  0  0  0  0  0
  186.4950  173.4140  135.4480 O   0  0  0  0  0  0  0  0  0  0  0  0
  188.6690  172.1200  134.5940 O   0  0  0  0  0  0  0  0  0  0  0  0
  1 22  1  0  0  0  0
  2 18  1  0  0  0  0
  3 11  1  0  0  0  0
  3  1  1  1  0  0  0
  5  8  1  0  0  0  0
  6  2  1  6  0  0  0
  6  9  1  0  0  0  0
  8  2  2  0  0  0  0
  9  4  1  6  0  0  0
  9 20  1  0  0  0  0
 10  8  1  0  0  0  0
 10 15  2  0  0  0  0
 11 14  1  6  0  0  0
 11 16  1  0  0  0  0
 12 33  1  6  0  0  0
 12  5  1  0  0  0  0
 12 19  1  0  0  0  0
 13 23  1  0  0  0  0
 14  7  1  0  0  0  0
 14  3  1  0  0  0  0
 16 31  1  1  0  0  0
 16 21  1  0  0  0  0
 17 21  1  0  0  0  0
 17  4  1  0  0  0  0
 18 15  1  6  0  0  0
 18 13  1  0  0  0  0
 19 22  1  0  0  0  0
 19  6  1  0  0  0  0
 20 23  1  0  0  0  0
 20 25  1  0  0  0  0
 22 21  1  0  0  0  0
 24 30  1  0  0  0  0
 25 26  1  0  0  0  0
 25 24  2  0  0  0  0
 26 29  2  0  0  0  0
 29 27  1  0  0  0  0
 29 28  1  0  0  0  0
 30 28  2  0  0  0  0
 31 32  1  0  0  0  0
 34 36  1  0  0  0  0
 35 34  1  0  0  0  0
 35 33  1  0  0  0  0
 35 36  1  0  0  0  0
 37 34  2  0  0  0  0
M  END
>  <MODEL>
7

>  <REMARK>
 VINA RESULT:      -5.3      4.337      6.258
  Name = 
  4 active torsions:
  status: ('A' for Active; 'I' for Inactive)
    1  A    between atoms: C_6  and  C_31
    2  A    between atoms: C_11  and  C_26
    3  A    between atoms: C_20  and  C_25
    4  A    between atoms: C_21  and  C_25
                            x       y       z     vdW  Elec       q    Type
                         _______ _______ _______ _____ _____    ______ ____

>  <TORSDO>
F 4

$$$$
=
 OpenBabel10262422483D

 37 44  0  0  1  0  0  0  0  0999 V2000
  185.8910  174.3840  137.0070 C   0  0  0  0  0  2  0  0  0  0  0  0
  181.2170  175.7280  137.8760 C   0  0  0  0  0  0  0  0  0  0  0  0
  186.4960  174.9450  135.7340 C   0  0  1  0  0  3  0  0  0  0  0  0
  183.3350  178.2300  138.1210 C   0  0  0  0  0  2  0  0  0  0  0  0
  181.6220  173.6280  136.6860 C   0  0  0  0  0  2  0  0  0  0  0  0
  182.6430  175.7160  138.3120 C   0  0  2  0  0  3  0  0  0  0  0  0
  188.6350  173.9310  135.9230 C   0  0  0  0  0  1  0  0  0  0  0  0
  180.7690  174.7760  137.1090 C   0  0  0  0  0  0  0  0  0  0  0  0
  183.0890  177.0130  139.0260 C   0  0  2  0  0  3  0  0  0  0  0  0
  179.4300  175.0260  136.7290 N   0  0  0  0  0  0  0  0  0  0  0  0
  187.4110  175.8610  136.4440 C   0  0  1  0  0  3  0  0  0  0  0  0
  183.1290  174.0110  136.5910 C   0  0  2  0  0  3  0  0  0  0  0  0
  179.6530  176.9370  139.7340 S   0  0  0  0  0  0  0  0  0  0  0  0
  187.9150  175.0520  135.3420 N   0  0  0  0  0  0  0  0  0  0  0  0
  179.0680  176.1380  137.2300 N   0  0  0  0  0  0  0  0  0  0  0  0
  186.5780  177.1070  136.2680 C   0  0  1  0  0  3  0  0  0  0  0  0
  184.2970  177.9530  136.9590 C   0  0  0  0  0  2  0  0  0  0  0  0
  180.1500  176.7580  137.9960 C   0  0  2  0  0  3  0  0  0  0  0  0
  183.4860  175.3500  137.1500 N   0  0  2  0  0  0  0  0  0  0  0  0
  182.3200  177.3140  140.3200 C   0  0  2  0  0  3  0  0  0  0  0  0
  185.4310  176.9800  137.3130 C   0  0  1  0  0  3  0  0  0  0  0  0
  184.9130  175.4890  137.5380 C   0  0  2  0  0  3  0  0  0  0  0  0
  181.0190  178.0810  140.0980 C   0  0  0  0  0  2  0  0  0  0  0  0
  184.5250  178.2670  141.0000 C   0  0  0  0  0  3  0  0  0  0  0  0
  183.1920  177.9930  141.3290 C   0  0  0  0  0  0  0  0  0  0  0  0
  182.6960  178.3810  142.5830 C   0  0  0  0  0  3  0  0  0  0  0  0
  183.0470  179.4010  144.7080 F   0  0  0  0  0  0  0  0  0  0  0  0
  184.8600  179.2970  143.1650 C   0  0  0  0  0  3  0  0  0  0  0  0
  183.5300  179.0300  143.4990 C   0  0  0  0  0  0  0  0  0  0  0  0
  185.3580  178.9160  141.9160 C   0  0  0  0  0  3  0  0  0  0  0  0
  187.4160  178.3390  136.5660 C   0  0  0  0  0  2  0  0  0  0  0  0
  187.4390  178.5800  137.9400 O   0  0  0  0  0  1  0  0  0  0  0  0
  183.5170  173.9620  135.1160 C   0  0  0  0  0  2  0  0  0  0  0  0
  184.7710  171.9790  134.9000 C   0  0  0  0  0  0  0  0  0  0  0  0
  183.5440  172.5310  134.6100 C   0  0  1  0  0  3  0  0  0  0  0  0
  183.5250  171.6610  135.6670 O   0  0  0  0  0  0  0  0  0  0  0  0
  186.0050  171.8460  134.6940 O   0  0  0  0  0  0  0  0  0  0  0  0
  1 22  1  0  0  0  0
  2 18  1  0  0  0  0
  3 11  1  0  0  0  0
  3  1  1  1  0  0  0
  5  8  1  0  0  0  0
  6  2  1  6  0  0  0
  6  9  1  0  0  0  0
  8  2  2  0  0  0  0
  9  4  1  6  0  0  0
  9 20  1  0  0  0  0
 10  8  1  0  0  0  0
 10 15  2  0  0  0  0
 11 14  1  6  0  0  0
 12 33  1  6  0  0  0
 12  5  1  0  0  0  0
 12 19  1  0  0  0  0
 13 23  1  0  0  0  0
 14  3  1  0  0  0  0
 14  7  1  0  0  0  0
 16 11  1  0  0  0  0
 16 31  1  1  0  0  0
 16 21  1  0  0  0  0
 17 21  1  0  0  0  0
 17  4  1  0  0  0  0
 18 15  1  6  0  0  0
 18 13  1  0  0  0  0
 19 22  1  0  0  0  0
 19  6  1  0  0  0  0
 20 25  1  0  0  0  0
 21 22  1  0  0  0  0
 23 20  1  0  0  0  0
 24 25  2  0  0  0  0
 24 30  1  0  0  0  0
 25 26  1  0  0  0  0
 26 29  2  0  0  0  0
 28 29  1  0  0  0  0
 29 27  1  0  0  0  0
 30 28  2  0  0  0  0
 31 32  1  0  0  0  0
 34 36  1  0  0  0  0
 35 34  1  0  0  0  0
 35 33  1  0  0  0  0
 35 36  1  0  0  0  0
 37 34  2  0  0  0  0
M  END
>  <MODEL>
8

>  <REMARK>
 VINA RESULT:      -5.3      3.009      4.346
  Name = 
  4 active torsions:
  status: ('A' for Active; 'I' for Inactive)
    1  A    between atoms: C_6  and  C_31
    2  A    between atoms: C_11  and  C_26
    3  A    between atoms: C_20  and  C_25
    4  A    between atoms: C_21  and  C_25
                            x       y       z     vdW  Elec       q    Type
                         _______ _______ _______ _____ _____    ______ ____

>  <TORSDO>
F 4

$$$$
=
 OpenBabel10262422483D

 37 44  0  0  1  0  0  0  0  0999 V2000
  181.5750  178.2320  142.4760 C   0  0  0  0  0  2  0  0  0  0  0  0
  185.3010  177.9870  139.2410 C   0  0  0  0  0  0  0  0  0  0  0  0
  181.0830  179.6330  142.7870 C   0  0  1  0  0  3  0  0  0  0  0  0
  182.4850  178.9970  137.8770 C   0  0  0  0  0  2  0  0  0  0  0  0
  185.8350  178.0600  141.6280 C   0  0  0  0  0  2  0  0  0  0  0  0
  183.8980  177.6310  139.6000 C   0  0  2  0  0  3  0  0  0  0  0  0
  179.3910  179.0400  144.3440 C   0  0  0  0  0  1  0  0  0  0  0  0
  186.1720  178.2060  140.1820 C   0  0  0  0  0  0  0  0  0  0  0  0
  182.9270  177.6210  138.3970 C   0  0  2  0  0  3  0  0  0  0  0  0
  187.4060  178.6280  139.6360 N   0  0  0  0  0  0  0  0  0  0  0  0
  179.8010  179.4600  142.0740 C   0  0  1  0  0  3  0  0  0  0  0  0
  184.3350  178.3590  141.9210 C   0  0  2  0  0  3  0  0  0  0  0  0
  185.9950  176.8800  136.8640 S   0  0  0  0  0  0  0  0  0  0  0  0
  179.8110  180.0630  143.4000 N   0  0  0  0  0  0  0  0  0  0  0  0
  187.2850  178.7000  138.3720 N   0  0  0  0  0  0  0  0  0  0  0  0
  180.2060  180.1810  140.8120 C   0  0  1  0  0  3  0  0  0  0  0  0
  181.9120  179.9150  138.9640 C   0  0  0  0  0  2  0  0  0  0  0  0
  185.9340  178.3410  137.9410 C   0  0  2  0  0  3  0  0  0  0  0  0
  183.4630  178.5040  140.7160 N   0  0  2  0  0  0  0  0  0  0  0  0
  183.2890  176.6020  137.3060 C   0  0  2  0  0  3  0  0  0  0  0  0
  181.1050  179.1710  140.0380 C   0  0  1  0  0  3  0  0  0  0  0  0
  182.0200  178.2600  140.9730 C   0  0  2  0  0  3  0  0  0  0  0  0
  184.2910  177.1280  136.2820 C   0  0  0  0  0  2  0  0  0  0  0  0
  181.8740  176.2730  135.2760 C   0  0  0  0  0  3  0  0  0  0  0  0
  182.0640  176.0520  136.6450 C   0  0  0  0  0  0  0  0  0  0  0  0
  181.1190  175.3020  137.3630 C   0  0  0  0  0  3  0  0  0  0  0  0
  179.0840  174.0630  137.4110 F   0  0  0  0  0  0  0  0  0  0  0  0
  179.8080  175.0120  135.3490 C   0  0  0  0  0  3  0  0  0  0  0  0
  179.9930  174.7850  136.7150 C   0  0  0  0  0  0  0  0  0  0  0  0
  180.7480  175.7550  134.6290 C   0  0  0  0  0  3  0  0  0  0  0  0
  178.9750  180.5160  139.9870 C   0  0  0  0  0  2  0  0  0  0  0  0
  178.9800  181.8710  139.6520 O   0  0  0  0  0  1  0  0  0  0  0  0
  184.2790  179.6460  142.7380 C   0  0  0  0  0  2  0  0  0  0  0  0
  184.3100  178.9480  144.9890 C   0  0  0  0  0  0  0  0  0  0  0  0
  185.0960  179.5160  144.0110 C   0  0  1  0  0  3  0  0  0  0  0  0
  185.3770  178.1980  144.2530 O   0  0  0  0  0  0  0  0  0  0  0  0
  183.3880  179.0030  145.8430 O   0  0  0  0  0  0  0  0  0  0  0  0
  2  8  2  0  0  0  0
  3  1  1  1  0  0  0
  3 14  1  0  0  0  0
  4 17  1  0  0  0  0
  5 12  1  0  0  0  0
  6  2  1  6  0  0  0
  6 19  1  0  0  0  0
  8  5  1  0  0  0  0
  9  4  1  6  0  0  0
  9  6  1  0  0  0  0
 10  8  1  0  0  0  0
 11  3  1  0  0  0  0
 11 14  1  1  0  0  0
 12 33  1  6  0  0  0
 14  7  1  0  0  0  0
 15 10  2  0  0  0  0
 16 31  1  6  0  0  0
 16 11  1  0  0  0  0
 17 21  1  0  0  0  0
 18 13  1  6  0  0  0
 18 15  1  0  0  0  0
 18  2  1  0  0  0  0
 19 22  1  0  0  0  0
 19 12  1  0  0  0  0
 20  9  1  0  0  0  0
 21 16  1  0  0  0  0
 21 22  1  0  0  0  0
 22  1  1  0  0  0  0
 23 13  1  0  0  0  0
 23 20  1  0  0  0  0
 24 25  1  0  0  0  0
 25 20  1  0  0  0  0
 25 26  2  0  0  0  0
 28 29  2  0  0  0  0
 29 26  1  0  0  0  0
 29 27  1  0  0  0  0
 30 24  2  0  0  0  0
 30 28  1  0  0  0  0
 32 31  1  0  0  0  0
 33 35  1  0  0  0  0
 34 37  2  0  0  0  0
 35 36  1  0  0  0  0
 35 34  1  0  0  0  0
 36 34  1  0  0  0  0
M  END
>  <MODEL>
9

>  <REMARK>
 VINA RESULT:      -5.1      3.609      7.940
  Name = 
  4 active torsions:
  status: ('A' for Active; 'I' for Inactive)
    1  A    between atoms: C_6  and  C_31
    2  A    between atoms: C_11  and  C_26
    3  A    between atoms: C_20  and  C_25
    4  A    between atoms: C_21  and  C_25
                            x       y       z     vdW  Elec       q    Type
                         _______ _______ _______ _____ _____    ______ ____

>  <TORSDO>
F 4

$$$$
