=
 OpenBabel10262420013D

 27 31  0  0  1  0  0  0  0  0999 V2000
  189.0580  177.6930  137.7900 C   0  0  1  0  0  3  0  0  0  0  0  0
  190.6480  177.4430  139.5100 N   0  0  0  0  0  0  0  0  0  0  0  0
  188.2880  177.3870  139.0790 C   0  0  1  0  0  3  0  0  0  0  0  0
  190.2720  177.2040  143.6310 C   0  0  0  0  0  3  0  0  0  0  0  0
  188.8920  177.0110  145.6350 N   0  0  0  0  0  1  0  0  0  0  0  0
  191.8810  177.4960  140.2860 C   0  0  0  0  0  2  0  0  0  0  0  0
  187.9730  177.2430  142.0390 C   0  0  0  0  0  3  0  0  0  0  0  0
  185.1900  179.3030  138.7970 O   0  0  0  0  0  0  0  0  0  0  0  0
  187.8620  177.1370  143.4270 C   0  0  0  0  0  3  0  0  0  0  0  0
  185.6640  177.2010  137.7680 C   0  0  0  0  0  2  0  0  0  0  0  0
  189.3660  177.4310  140.1060 C   0  0  0  0  0  0  0  0  0  0  0  0
  190.5500  177.4020  138.0630 C   0  0  1  0  0  3  0  0  0  0  0  0
  189.0090  177.1190  144.2220 C   0  0  0  0  0  0  0  0  0  0  0  0
  190.4010  177.3120  142.2420 C   0  0  0  0  0  0  0  0  0  0  0  0
  188.4390  177.0560  136.5510 C   0  0  0  0  0  2  0  0  0  0  0  0
  189.2360  177.3360  141.4340 C   0  0  0  0  0  0  0  0  0  0  0  0
  186.0150  178.3650  138.6420 C   0  0  0  0  0  0  0  0  0  0  0  0
  191.5970  177.3780  141.7220 N   0  0  0  0  0  0  0  0  0  0  0  0
  185.7630  177.5240  136.2780 C   0  0  0  0  0  2  0  0  0  0  0  0
  187.3480  178.2830  135.7620 S   0  0  0  0  0  0  0  0  0  0  0  0
  187.2820  178.4170  139.3030 N   0  0  0  0  0  2  0  0  0  0  0  0
  191.9050  173.6040  136.5500 C   0  0  0  0  0  3  0  0  0  0  0  0
  191.0090  176.0640  137.5460 C   0  0  0  0  0  0  0  0  0  0  0  0
  192.2970  175.9480  137.0120 C   0  0  0  0  0  3  0  0  0  0  0  0
  192.7450  174.7210  136.5150 C   0  0  0  0  0  3  0  0  0  0  0  0
  190.6160  173.7140  137.0800 C   0  0  0  0  0  3  0  0  0  0  0  0
  190.1670  174.9400  137.5770 C   0  0  0  0  0  3  0  0  0  0  0  0
  1 15  1  6  0  0  0
  1 12  1  0  0  0  0
  1  3  1  0  0  0  0
  2 11  1  0  0  0  0
  2  6  1  0  0  0  0
  3 21  1  1  0  0  0
  3 11  1  0  0  0  0
  4 13  2  0  0  0  0
  6 18  1  0  0  0  0
  7  9  2  0  0  0  0
  9 13  1  0  0  0  0
 10 17  1  0  0  0  0
 11 16  2  0  0  0  0
 12 23  1  1  0  0  0
 12  2  1  0  0  0  0
 13  5  1  0  0  0  0
 14  4  1  0  0  0  0
 16  7  1  0  0  0  0
 16 14  1  0  0  0  0
 17  8  2  0  0  0  0
 17 21  1  0  0  0  0
 18 14  2  0  0  0  0
 19 10  1  0  0  0  0
 20 19  1  0  0  0  0
 20 15  1  0  0  0  0
 22 26  1  0  0  0  0
 23 27  1  0  0  0  0
 24 23  2  0  0  0  0
 25 22  2  0  0  0  0
 25 24  1  0  0  0  0
 26 27  2  0  0  0  0
M  END
>  <MODEL>
1

>  <REMARK>
 VINA RESULT:      -8.0      0.000      0.000
  Name = 
  1 active torsions:
  status: ('A' for Active; 'I' for Inactive)
    1  A    between atoms: C_9  and  C_15
                            x       y       z     vdW  Elec       q    Type
                         _______ _______ _______ _____ _____    ______ ____

>  <TORSDO>
F 1

$$$$
=
 OpenBabel10262420013D

 27 31  0  0  1  0  0  0  0  0999 V2000
  182.5200  179.1910  138.9440 C   0  0  1  0  0  3  0  0  0  0  0  0
  184.5020  178.7530  140.1400 N   0  0  0  0  0  0  0  0  0  0  0  0
  182.1300  178.9930  140.4140 C   0  0  1  0  0  3  0  0  0  0  0  0
  185.3240  178.5920  144.1990 C   0  0  0  0  0  3  0  0  0  0  0  0
  184.5790  178.5890  146.5230 N   0  0  0  0  0  1  0  0  0  0  0  0
  185.9060  178.6540  140.5220 C   0  0  0  0  0  2  0  0  0  0  0  0
  182.6820  178.9110  143.3410 C   0  0  0  0  0  3  0  0  0  0  0  0
  179.3380  181.2840  140.9580 O   0  0  0  0  0  0  0  0  0  0  0  0
  182.9700  178.8300  144.7050 C   0  0  0  0  0  3  0  0  0  0  0  0
  179.2350  179.1320  139.9280 C   0  0  0  0  0  2  0  0  0  0  0  0
  183.4600  178.9080  141.0810 C   0  0  0  0  0  0  0  0  0  0  0  0
  183.9810  178.7140  138.7860 C   0  0  1  0  0  3  0  0  0  0  0  0
  184.2890  178.6720  145.1340 C   0  0  0  0  0  0  0  0  0  0  0  0
  185.0520  178.6730  142.8300 C   0  0  0  0  0  0  0  0  0  0  0  0
  181.4940  178.6290  137.9680 C   0  0  0  0  0  2  0  0  0  0  0  0
  183.7130  178.8390  142.3930 C   0  0  0  0  0  0  0  0  0  0  0  0
  179.9620  180.2490  140.6120 C   0  0  0  0  0  0  0  0  0  0  0  0
  186.0430  178.5840  141.9830 N   0  0  0  0  0  0  0  0  0  0  0  0
  178.9310  179.4290  138.4610 C   0  0  0  0  0  2  0  0  0  0  0  0
  180.3740  179.9780  137.4750 S   0  0  0  0  0  0  0  0  0  0  0  0
  181.3640  180.1440  140.8740 N   0  0  0  0  0  2  0  0  0  0  0  0
  184.3610  174.7660  137.1080 C   0  0  0  0  0  3  0  0  0  0  0  0
  184.1050  177.3260  138.2180 C   0  0  0  0  0  0  0  0  0  0  0  0
  185.0110  177.0980  137.1760 C   0  0  0  0  0  3  0  0  0  0  0  0
  185.1400  175.8200  136.6230 C   0  0  0  0  0  3  0  0  0  0  0  0
  183.4520  174.9880  138.1470 C   0  0  0  0  0  3  0  0  0  0  0  0
  183.3230  176.2640  138.7010 C   0  0  0  0  0  3  0  0  0  0  0  0
  1 15  1  6  0  0  0
  1  3  1  0  0  0  0
  2  6  1  0  0  0  0
  2 11  1  0  0  0  0
  3 21  1  1  0  0  0
  3 11  1  0  0  0  0
  4 13  2  0  0  0  0
  6 18  1  0  0  0  0
  7  9  2  0  0  0  0
  9 13  1  0  0  0  0
 10 17  1  0  0  0  0
 11 16  2  0  0  0  0
 12 23  1  1  0  0  0
 12  1  1  0  0  0  0
 12  2  1  0  0  0  0
 13  5  1  0  0  0  0
 14  4  1  0  0  0  0
 16 14  1  0  0  0  0
 16  7  1  0  0  0  0
 17 21  1  0  0  0  0
 17  8  2  0  0  0  0
 18 14  2  0  0  0  0
 19 10  1  0  0  0  0
 20 15  1  0  0  0  0
 20 19  1  0  0  0  0
 22 26  1  0  0  0  0
 23 27  1  0  0  0  0
 24 23  2  0  0  0  0
 25 22  2  0  0  0  0
 25 24  1  0  0  0  0
 26 27  2  0  0  0  0
M  END
>  <MODEL>
2

>  <REMARK>
 VINA RESULT:      -7.2      4.982      6.515
  Name = 
  1 active torsions:
  status: ('A' for Active; 'I' for Inactive)
    1  A    between atoms: C_9  and  C_15
                            x       y       z     vdW  Elec       q    Type
                         _______ _______ _______ _____ _____    ______ ____

>  <TORSDO>
F 1

$$$$
=
 OpenBabel10262420013D

 27 31  0  0  1  0  0  0  0  0999 V2000
  186.2760  178.6570  139.0680 C   0  0  1  0  0  3  0  0  0  0  0  0
  188.5560  178.0720  138.9640 N   0  0  0  0  0  0  0  0  0  0  0  0
  186.6340  177.9830  140.3970 C   0  0  1  0  0  3  0  0  0  0  0  0
  191.2260  176.7600  141.8500 C   0  0  0  0  0  3  0  0  0  0  0  0
  191.6980  175.9730  144.1120 N   0  0  0  0  0  1  0  0  0  0  0  0
  189.9600  178.0000  138.5760 C   0  0  0  0  0  2  0  0  0  0  0  0
  188.5250  177.0640  142.5090 C   0  0  0  0  0  3  0  0  0  0  0  0
  184.6090  179.7120  142.8990 O   0  0  0  0  0  0  0  0  0  0  0  0
  189.4310  176.5990  143.4650 C   0  0  0  0  0  3  0  0  0  0  0  0
  183.8810  177.9790  141.4260 C   0  0  0  0  0  2  0  0  0  0  0  0
  188.1110  177.8290  140.2830 C   0  0  0  0  0  0  0  0  0  0  0  0
  187.4440  178.3980  138.0910 C   0  0  1  0  0  3  0  0  0  0  0  0
  190.7790  176.4480  143.1360 C   0  0  0  0  0  0  0  0  0  0  0  0
  190.3310  177.2280  140.8820 C   0  0  0  0  0  0  0  0  0  0  0  0
  184.8720  178.3230  138.5810 C   0  0  0  0  0  2  0  0  0  0  0  0
  188.9620  177.3870  141.2160 C   0  0  0  0  0  0  0  0  0  0  0  0
  184.9190  178.8990  141.9910 C   0  0  0  0  0  0  0  0  0  0  0  0
  190.7810  177.5000  139.6860 N   0  0  0  0  0  0  0  0  0  0  0  0
  182.9250  178.6790  140.4620 C   0  0  0  0  0  2  0  0  0  0  0  0
  183.7450  179.6410  139.1360 S   0  0  0  0  0  0  0  0  0  0  0  0
  186.2630  178.8560  141.5030 N   0  0  0  0  0  2  0  0  0  0  0  0
  186.6750  175.2060  135.3030 C   0  0  0  0  0  3  0  0  0  0  0  0
  187.1870  177.2690  137.1280 C   0  0  0  0  0  0  0  0  0  0  0  0
  186.8070  177.5700  135.8160 C   0  0  0  0  0  3  0  0  0  0  0  0
  186.5530  176.5410  134.9040 C   0  0  0  0  0  3  0  0  0  0  0  0
  187.0520  174.9000  136.6130 C   0  0  0  0  0  3  0  0  0  0  0  0
  187.3070  175.9280  137.5260 C   0  0  0  0  0  3  0  0  0  0  0  0
  1 15  1  6  0  0  0
  1  3  1  0  0  0  0
  2 11  1  0  0  0  0
  3 11  1  6  0  0  0
  3 21  1  0  0  0  0
  4 13  2  0  0  0  0
  6  2  1  0  0  0  0
  6 18  1  0  0  0  0
  7  9  2  0  0  0  0
 10 17  1  0  0  0  0
 11 16  2  0  0  0  0
 12 23  1  6  0  0  0
 12  2  1  0  0  0  0
 12  1  1  0  0  0  0
 13  9  1  0  0  0  0
 13  5  1  0  0  0  0
 14 16  1  0  0  0  0
 14  4  1  0  0  0  0
 15 20  1  0  0  0  0
 16  7  1  0  0  0  0
 17  8  2  0  0  0  0
 18 14  2  0  0  0  0
 19 10  1  0  0  0  0
 20 19  1  0  0  0  0
 21 17  1  0  0  0  0
 22 26  1  0  0  0  0
 23 27  1  0  0  0  0
 24 23  2  0  0  0  0
 25 22  2  0  0  0  0
 25 24  1  0  0  0  0
 26 27  2  0  0  0  0
M  END
>  <MODEL>
3

>  <REMARK>
 VINA RESULT:      -7.0      2.515      3.571
  Name = 
  1 active torsions:
  status: ('A' for Active; 'I' for Inactive)
    1  A    between atoms: C_9  and  C_15
                            x       y       z     vdW  Elec       q    Type
                         _______ _______ _______ _____ _____    ______ ____

>  <TORSDO>
F 1

$$$$
=
 OpenBabel10262420013D

 27 31  0  0  1  0  0  0  0  0999 V2000
  184.8030  176.9480  136.6650 C   0  0  1  0  0  3  0  0  0  0  0  0
  186.9830  176.1310  136.3090 N   0  0  0  0  0  0  0  0  0  0  0  0
  185.6190  177.2690  137.9220 C   0  0  1  0  0  3  0  0  0  0  0  0
  190.5320  176.6790  138.3800 C   0  0  0  0  0  3  0  0  0  0  0  0
  191.7570  177.5100  140.3200 N   0  0  0  0  0  1  0  0  0  0  0  0
  188.1980  175.6290  135.6760 C   0  0  0  0  0  2  0  0  0  0  0  0
  188.1520  177.7090  139.4280 C   0  0  0  0  0  3  0  0  0  0  0  0
  184.3110  180.4710  139.0970 O   0  0  0  0  0  0  0  0  0  0  0  0
  189.3510  177.8640  140.1280 C   0  0  0  0  0  3  0  0  0  0  0  0
  183.3360  178.3190  139.4450 C   0  0  0  0  0  2  0  0  0  0  0  0
  186.9960  176.8750  137.5100 C   0  0  0  0  0  0  0  0  0  0  0  0
  185.6290  175.9550  135.8190 C   0  0  1  0  0  3  0  0  0  0  0  0
  190.5390  177.3510  139.6050 C   0  0  0  0  0  0  0  0  0  0  0  0
  189.3400  176.5160  137.6670 C   0  0  0  0  0  0  0  0  0  0  0  0
  183.3560  176.5740  136.9640 C   0  0  0  0  0  2  0  0  0  0  0  0
  188.1340  177.0420  138.1950 C   0  0  0  0  0  0  0  0  0  0  0  0
  184.4020  179.2290  138.9190 C   0  0  0  0  0  0  0  0  0  0  0  0
  189.3680  175.8720  136.5300 N   0  0  0  0  0  0  0  0  0  0  0  0
  182.0640  178.3390  138.5980 C   0  0  0  0  0  2  0  0  0  0  0  0
  182.3340  178.0720  136.8060 S   0  0  0  0  0  0  0  0  0  0  0  0
  185.5260  178.6930  138.2150 N   0  0  0  0  0  2  0  0  0  0  0  0
  184.3580  171.8600  136.2300 C   0  0  0  0  0  3  0  0  0  0  0  0
  185.1990  174.5210  135.9790 C   0  0  0  0  0  0  0  0  0  0  0  0
  184.5960  173.8680  134.8980 C   0  0  0  0  0  3  0  0  0  0  0  0
  184.1770  172.5400  135.0230 C   0  0  0  0  0  3  0  0  0  0  0  0
  184.9570  172.5070  137.3150 C   0  0  0  0  0  3  0  0  0  0  0  0
  185.3760  173.8350  137.1920 C   0  0  0  0  0  3  0  0  0  0  0  0
  1 15  1  1  0  0  0
  1  3  1  0  0  0  0
  2 11  1  0  0  0  0
  3 11  1  6  0  0  0
  3 21  1  0  0  0  0
  4 13  2  0  0  0  0
  6  2  1  0  0  0  0
  6 18  1  0  0  0  0
  7  9  2  0  0  0  0
 11 16  2  0  0  0  0
 12 23  1  1  0  0  0
 12  2  1  0  0  0  0
 12  1  1  0  0  0  0
 13  9  1  0  0  0  0
 13  5  1  0  0  0  0
 14 16  1  0  0  0  0
 14  4  1  0  0  0  0
 16  7  1  0  0  0  0
 17  8  2  0  0  0  0
 17 10  1  0  0  0  0
 18 14  2  0  0  0  0
 19 10  1  0  0  0  0
 20 15  1  0  0  0  0
 20 19  1  0  0  0  0
 21 17  1  0  0  0  0
 22 26  1  0  0  0  0
 23 27  1  0  0  0  0
 24 25  1  0  0  0  0
 24 23  2  0  0  0  0
 25 22  2  0  0  0  0
 27 26  2  0  0  0  0
M  END
>  <MODEL>
4

>  <REMARK>
 VINA RESULT:      -6.9      2.923      5.130
  Name = 
  1 active torsions:
  status: ('A' for Active; 'I' for Inactive)
    1  A    between atoms: C_9  and  C_15
                            x       y       z     vdW  Elec       q    Type
                         _______ _______ _______ _____ _____    ______ ____

>  <TORSDO>
F 1

$$$$
=
 OpenBabel10262420013D

 27 31  0  0  1  0  0  0  0  0999 V2000
  181.2550  178.3030  138.2500 C   0  0  1  0  0  3  0  0  0  0  0  0
  180.8370  179.2100  140.3830 N   0  0  0  0  0  0  0  0  0  0  0  0
  182.5570  178.1970  139.0520 C   0  0  1  0  0  3  0  0  0  0  0  0
  183.0230  179.1590  143.9050 C   0  0  0  0  0  3  0  0  0  0  0  0
  185.0740  178.6590  145.1290 N   0  0  0  0  0  1  0  0  0  0  0  0
  180.1660  179.7050  141.5810 C   0  0  0  0  0  2  0  0  0  0  0  0
  184.1510  178.1160  141.5680 C   0  0  0  0  0  3  0  0  0  0  0  0
  184.1060  175.0910  137.9160 O   0  0  0  0  0  0  0  0  0  0  0  0
  184.8860  178.1280  142.7550 C   0  0  0  0  0  3  0  0  0  0  0  0
  184.1600  177.2010  136.8000 C   0  0  0  0  0  2  0  0  0  0  0  0
  182.1220  178.6250  140.4110 C   0  0  0  0  0  0  0  0  0  0  0  0
  180.3050  179.2350  139.0340 C   0  0  1  0  0  3  0  0  0  0  0  0
  184.3230  178.6480  143.9220 C   0  0  0  0  0  0  0  0  0  0  0  0
  182.2730  179.1530  142.7240 C   0  0  0  0  0  0  0  0  0  0  0  0
  181.4790  178.6170  136.7750 C   0  0  0  0  0  2  0  0  0  0  0  0
  182.8430  178.6200  141.5390 C   0  0  0  0  0  0  0  0  0  0  0  0
  183.7730  176.3030  137.9340 C   0  0  0  0  0  0  0  0  0  0  0  0
  181.0650  179.6490  142.7410 N   0  0  0  0  0  0  0  0  0  0  0  0
  183.3010  176.9920  135.5540 C   0  0  0  0  0  2  0  0  0  0  0  0
  181.4940  177.0480  135.8530 S   0  0  0  0  0  0  0  0  0  0  0  0
  183.0270  176.8190  139.0400 N   0  0  0  0  0  2  0  0  0  0  0  0
  180.1650  183.2590  137.5050 C   0  0  0  0  0  3  0  0  0  0  0  0
  180.2730  180.6460  138.5110 C   0  0  0  0  0  0  0  0  0  0  0  0
  179.0710  181.1580  138.0100 C   0  0  0  0  0  3  0  0  0  0  0  0
  179.0170  182.4620  137.5090 C   0  0  0  0  0  3  0  0  0  0  0  0
  181.3690  182.7520  138.0010 C   0  0  0  0  0  3  0  0  0  0  0  0
  181.4260  181.4490  138.5030 C   0  0  0  0  0  3  0  0  0  0  0  0
  1 15  1  6  0  0  0
  1 12  1  0  0  0  0
  1  3  1  0  0  0  0
  2 11  1  0  0  0  0
  2  6  1  0  0  0  0
  3 21  1  1  0  0  0
  3 11  1  0  0  0  0
  4 13  2  0  0  0  0
  6 18  1  0  0  0  0
  7  9  2  0  0  0  0
  8 17  2  0  0  0  0
  9 13  1  0  0  0  0
 10 17  1  0  0  0  0
 11 16  2  0  0  0  0
 12 23  1  6  0  0  0
 12  2  1  0  0  0  0
 13  5  1  0  0  0  0
 14 18  2  0  0  0  0
 14  4  1  0  0  0  0
 16  7  1  0  0  0  0
 16 14  1  0  0  0  0
 17 21  1  0  0  0  0
 19 20  1  0  0  0  0
 19 10  1  0  0  0  0
 20 15  1  0  0  0  0
 22 25  2  0  0  0  0
 22 26  1  0  0  0  0
 24 23  2  0  0  0  0
 25 24  1  0  0  0  0
 26 27  2  0  0  0  0
 27 23  1  0  0  0  0
M  END
>  <MODEL>
5

>  <REMARK>
 VINA RESULT:      -6.9      5.785      8.844
  Name = 
  1 active torsions:
  status: ('A' for Active; 'I' for Inactive)
    1  A    between atoms: C_9  and  C_15
                            x       y       z     vdW  Elec       q    Type
                         _______ _______ _______ _____ _____    ______ ____

>  <TORSDO>
F 1

$$$$
=
 OpenBabel10262420013D

 27 31  0  0  1  0  0  0  0  0999 V2000
  182.5000  179.0480  140.0480 C   0  0  1  0  0  3  0  0  0  0  0  0
  184.7720  178.6530  140.5290 N   0  0  0  0  0  0  0  0  0  0  0  0
  182.5930  178.6810  141.5330 C   0  0  1  0  0  3  0  0  0  0  0  0
  186.8160  178.1690  144.1020 C   0  0  0  0  0  3  0  0  0  0  0  0
  186.8260  177.8860  146.5270 N   0  0  0  0  0  1  0  0  0  0  0  0
  186.2290  178.6280  140.4550 C   0  0  0  0  0  2  0  0  0  0  0  0
  184.0260  178.3630  144.1270 C   0  0  0  0  0  3  0  0  0  0  0  0
  180.0070  180.6860  143.1560 O   0  0  0  0  0  0  0  0  0  0  0  0
  184.7250  178.1740  145.3210 C   0  0  0  0  0  3  0  0  0  0  0  0
  179.6870  178.6410  141.9650 C   0  0  0  0  0  2  0  0  0  0  0  0
  184.0660  178.6360  141.7530 C   0  0  0  0  0  0  0  0  0  0  0  0
  183.8600  178.7030  139.4020 C   0  0  1  0  0  3  0  0  0  0  0  0
  186.1180  178.0790  145.3090 C   0  0  0  0  0  0  0  0  0  0  0  0
  186.1300  178.3590  142.8980 C   0  0  0  0  0  0  0  0  0  0  0  0
  181.2490  178.5040  139.3690 C   0  0  0  0  0  2  0  0  0  0  0  0
  184.7160  178.4620  142.9100 C   0  0  0  0  0  0  0  0  0  0  0  0
  180.5390  179.7400  142.5210 C   0  0  0  0  0  0  0  0  0  0  0  0
  186.8140  178.4280  141.7870 N   0  0  0  0  0  0  0  0  0  0  0  0
  178.9310  179.0520  140.7030 C   0  0  0  0  0  2  0  0  0  0  0  0
  179.9730  179.8030  139.3970 S   0  0  0  0  0  0  0  0  0  0  0  0
  181.9570  179.7190  142.3330 N   0  0  0  0  0  2  0  0  0  0  0  0
  183.8940  174.9730  137.2490 C   0  0  0  0  0  3  0  0  0  0  0  0
  183.8650  177.3900  138.6660 C   0  0  0  0  0  0  0  0  0  0  0  0
  184.6700  177.2500  137.5310 C   0  0  0  0  0  3  0  0  0  0  0  0
  184.6850  176.0440  136.8230 C   0  0  0  0  0  3  0  0  0  0  0  0
  183.0850  175.1080  138.3810 C   0  0  0  0  0  3  0  0  0  0  0  0
  183.0690  176.3120  139.0890 C   0  0  0  0  0  3  0  0  0  0  0  0
  1 15  1  6  0  0  0
  1  3  1  0  0  0  0
  2 11  1  0  0  0  0
  3 11  1  1  0  0  0
  3 21  1  0  0  0  0
  4 13  2  0  0  0  0
  6  2  1  0  0  0  0
  6 18  1  0  0  0  0
  7  9  2  0  0  0  0
 10 17  1  0  0  0  0
 11 16  2  0  0  0  0
 12 23  1  1  0  0  0
 12  1  1  0  0  0  0
 12  2  1  0  0  0  0
 13  9  1  0  0  0  0
 13  5  1  0  0  0  0
 14 16  1  0  0  0  0
 14  4  1  0  0  0  0
 15 20  1  0  0  0  0
 16  7  1  0  0  0  0
 17  8  2  0  0  0  0
 18 14  2  0  0  0  0
 19 10  1  0  0  0  0
 20 19  1  0  0  0  0
 21 17  1  0  0  0  0
 22 26  1  0  0  0  0
 23 27  1  0  0  0  0
 24 23  2  0  0  0  0
 25 22  2  0  0  0  0
 25 24  1  0  0  0  0
 26 27  2  0  0  0  0
M  END
>  <MODEL>
6

>  <REMARK>
 VINA RESULT:      -6.8      4.862      6.457
  Name = 
  1 active torsions:
  status: ('A' for Active; 'I' for Inactive)
    1  A    between atoms: C_9  and  C_15
                            x       y       z     vdW  Elec       q    Type
                         _______ _______ _______ _____ _____    ______ ____

>  <TORSDO>
F 1

$$$$
=
 OpenBabel10262420013D

 27 31  0  0  1  0  0  0  0  0999 V2000
  188.9890  177.6850  138.9220 C   0  0  1  0  0  3  0  0  0  0  0  0
  189.6270  177.1380  136.7210 N   0  0  0  0  0  0  0  0  0  0  0  0
  190.1350  176.6720  139.0190 C   0  0  1  0  0  3  0  0  0  0  0  0
  192.8830  175.0730  135.2000 C   0  0  0  0  0  3  0  0  0  0  0  0
  194.8720  173.6970  135.5270 N   0  0  0  0  0  1  0  0  0  0  0  0
  189.8050  177.1660  135.2730 C   0  0  0  0  0  2  0  0  0  0  0  0
  192.5050  175.2020  137.9680 C   0  0  0  0  0  3  0  0  0  0  0  0
  192.0130  177.6640  141.9920 O   0  0  0  0  0  0  0  0  0  0  0  0
  193.5830  174.4880  137.4420 C   0  0  0  0  0  3  0  0  0  0  0  0
  189.9860  176.4020  141.9420 C   0  0  0  0  0  2  0  0  0  0  0  0
  190.5640  176.5470  137.5980 C   0  0  0  0  0  0  0  0  0  0  0  0
  188.5060  177.6960  137.4550 C   0  0  1  0  0  3  0  0  0  0  0  0
  193.7730  174.4250  136.0600 C   0  0  0  0  0  0  0  0  0  0  0  0
  191.7990  175.7930  135.7120 C   0  0  0  0  0  0  0  0  0  0  0  0
  187.9300  177.5050  140.0030 C   0  0  0  0  0  2  0  0  0  0  0  0
  191.6080  175.8630  137.1160 C   0  0  0  0  0  0  0  0  0  0  0  0
  191.1200  177.1280  141.2860 C   0  0  0  0  0  0  0  0  0  0  0  0
  190.9800  176.3780  134.8790 N   0  0  0  0  0  0  0  0  0  0  0  0
  188.9390  177.3450  142.5350 C   0  0  0  0  0  2  0  0  0  0  0  0
  188.3230  178.6280  141.3810 S   0  0  0  0  0  0  0  0  0  0  0  0
  191.1950  177.2130  139.8600 N   0  0  0  0  0  2  0  0  0  0  0  0
  184.9260  175.3920  136.8030 C   0  0  0  0  0  3  0  0  0  0  0  0
  187.2670  176.8740  137.2210 C   0  0  0  0  0  0  0  0  0  0  0  0
  186.0430  177.5280  137.0390 C   0  0  0  0  0  3  0  0  0  0  0  0
  184.8750  176.7880  136.8300 C   0  0  0  0  0  3  0  0  0  0  0  0
  186.1460  174.7330  136.9860 C   0  0  0  0  0  3  0  0  0  0  0  0
  187.3140  175.4710  137.1950 C   0  0  0  0  0  3  0  0  0  0  0  0
  1  3  1  0  0  0  0
  1 15  1  1  0  0  0
  2 12  1  0  0  0  0
  2 11  1  0  0  0  0
  3 11  1  6  0  0  0
  3 21  1  0  0  0  0
  4 14  1  0  0  0  0
  4 13  2  0  0  0  0
  5 13  1  0  0  0  0
  6  2  1  0  0  0  0
  9  7  2  0  0  0  0
 10 19  1  0  0  0  0
 12 23  1  1  0  0  0
 12  1  1  0  0  0  0
 13  9  1  0  0  0  0
 14 16  1  0  0  0  0
 15 20  1  0  0  0  0
 16 11  2  0  0  0  0
 16  7  1  0  0  0  0
 17 10  1  0  0  0  0
 17  8  2  0  0  0  0
 18  6  1  0  0  0  0
 18 14  2  0  0  0  0
 20 19  1  0  0  0  0
 21 17  1  0  0  0  0
 22 25  2  0  0  0  0
 22 26  1  0  0  0  0
 24 23  2  0  0  0  0
 25 24  1  0  0  0  0
 26 27  2  0  0  0  0
 27 23  1  0  0  0  0
M  END
>  <MODEL>
7

>  <REMARK>
 VINA RESULT:      -6.6      2.802      6.294
  Name = 
  1 active torsions:
  status: ('A' for Active; 'I' for Inactive)
    1  A    between atoms: C_9  and  C_15
                            x       y       z     vdW  Elec       q    Type
                         _______ _______ _______ _____ _____    ______ ____

>  <TORSDO>
F 1

$$$$
=
 OpenBabel10262420013D

 27 31  0  0  1  0  0  0  0  0999 V2000
  185.7020  178.7430  138.5790 C   0  0  1  0  0  3  0  0  0  0  0  0
  187.9530  178.1920  138.1570 N   0  0  0  0  0  0  0  0  0  0  0  0
  186.2700  178.1340  139.8660 C   0  0  1  0  0  3  0  0  0  0  0  0
  191.0550  177.0530  140.6600 C   0  0  0  0  0  3  0  0  0  0  0  0
  191.8790  176.3750  142.8550 N   0  0  0  0  0  1  0  0  0  0  0  0
  189.2850  178.1260  137.5650 C   0  0  0  0  0  2  0  0  0  0  0  0
  188.4770  177.3410  141.7050 C   0  0  0  0  0  3  0  0  0  0  0  0
  184.6030  179.9370  142.5710 O   0  0  0  0  0  0  0  0  0  0  0  0
  189.5260  176.9330  142.5320 C   0  0  0  0  0  3  0  0  0  0  0  0
  183.7030  178.1290  141.2970 C   0  0  0  0  0  2  0  0  0  0  0  0
  187.7170  178.0000  139.5370 C   0  0  0  0  0  0  0  0  0  0  0  0
  186.7160  178.4610  137.4490 C   0  0  1  0  0  3  0  0  0  0  0  0
  190.8130  176.7910  142.0110 C   0  0  0  0  0  0  0  0  0  0  0  0
  190.0150  177.4630  139.8190 C   0  0  0  0  0  0  0  0  0  0  0  0
  184.2480  178.3640  138.3230 C   0  0  0  0  0  2  0  0  0  0  0  0
  188.7080  177.6140  140.3490 C   0  0  0  0  0  0  0  0  0  0  0  0
  184.7930  179.0900  141.6600 C   0  0  0  0  0  0  0  0  0  0  0  0
  190.2740  177.6890  138.5590 N   0  0  0  0  0  0  0  0  0  0  0  0
  182.5980  178.7700  140.4590 C   0  0  0  0  0  2  0  0  0  0  0  0
  183.1870  179.6870  138.9870 S   0  0  0  0  0  0  0  0  0  0  0  0
  186.0490  179.0490  140.9780 N   0  0  0  0  0  2  0  0  0  0  0  0
  185.6970  175.0700  134.9960 C   0  0  0  0  0  3  0  0  0  0  0  0
  186.3440  177.2860  136.5830 C   0  0  0  0  0  0  0  0  0  0  0  0
  186.7510  176.0040  136.9670 C   0  0  0  0  0  3  0  0  0  0  0  0
  186.4270  174.8970  136.1760 C   0  0  0  0  0  3  0  0  0  0  0  0
  185.2900  176.3490  134.6070 C   0  0  0  0  0  3  0  0  0  0  0  0
  185.6120  177.4560  135.3960 C   0  0  0  0  0  3  0  0  0  0  0  0
  1 15  1  6  0  0  0
  1  3  1  0  0  0  0
  2 11  1  0  0  0  0
  3 11  1  6  0  0  0
  3 21  1  0  0  0  0
  4 13  2  0  0  0  0
  6  2  1  0  0  0  0
  6 18  1  0  0  0  0
  7  9  2  0  0  0  0
 10 17  1  0  0  0  0
 11 16  2  0  0  0  0
 12 23  1  1  0  0  0
 12  2  1  0  0  0  0
 12  1  1  0  0  0  0
 13  9  1  0  0  0  0
 13  5  1  0  0  0  0
 14 16  1  0  0  0  0
 14  4  1  0  0  0  0
 15 20  1  0  0  0  0
 16  7  1  0  0  0  0
 17  8  2  0  0  0  0
 18 14  2  0  0  0  0
 19 10  1  0  0  0  0
 20 19  1  0  0  0  0
 21 17  1  0  0  0  0
 22 25  1  0  0  0  0
 23 24  1  0  0  0  0
 25 24  2  0  0  0  0
 26 22  2  0  0  0  0
 26 27  1  0  0  0  0
 27 23  2  0  0  0  0
M  END
>  <MODEL>
8

>  <REMARK>
 VINA RESULT:      -6.5      2.670      4.131
  Name = 
  1 active torsions:
  status: ('A' for Active; 'I' for Inactive)
    1  A    between atoms: C_9  and  C_15
                            x       y       z     vdW  Elec       q    Type
                         _______ _______ _______ _____ _____    ______ ____

>  <TORSDO>
F 1

$$$$
=
 OpenBabel10262420013D

 27 31  0  0  1  0  0  0  0  0999 V2000
  185.2260  178.3510  138.2860 C   0  0  1  0  0  3  0  0  0  0  0  0
  187.2860  177.9360  137.2220 N   0  0  0  0  0  0  0  0  0  0  0  0
  186.2300  177.9600  139.3760 C   0  0  1  0  0  3  0  0  0  0  0  0
  191.1190  177.3830  138.6990 C   0  0  0  0  0  3  0  0  0  0  0  0
  192.6530  177.0600  140.5700 N   0  0  0  0  0  1  0  0  0  0  0  0
  188.3690  177.9040  136.2440 C   0  0  0  0  0  2  0  0  0  0  0  0
  188.9730  177.5910  140.4810 C   0  0  0  0  0  3  0  0  0  0  0  0
  185.2770  179.9510  142.2870 O   0  0  0  0  0  0  0  0  0  0  0  0
  190.2660  177.3790  140.9640 C   0  0  0  0  0  3  0  0  0  0  0  0
  184.2480  177.9280  141.5460 C   0  0  0  0  0  2  0  0  0  0  0  0
  187.5100  177.9030  138.6160 C   0  0  0  0  0  0  0  0  0  0  0  0
  185.8680  178.0100  136.9240 C   0  0  1  0  0  3  0  0  0  0  0  0
  191.3370  177.2760  140.0750 C   0  0  0  0  0  0  0  0  0  0  0  0
  189.8300  177.5960  138.2000 C   0  0  0  0  0  0  0  0  0  0  0  0
  183.8190  177.8250  138.5450 C   0  0  0  0  0  2  0  0  0  0  0  0
  188.7420  177.7070  139.1020 C   0  0  0  0  0  0  0  0  0  0  0  0
  185.2750  179.0130  141.4490 C   0  0  0  0  0  0  0  0  0  0  0  0
  189.6600  177.6800  136.9070 N   0  0  0  0  0  0  0  0  0  0  0  0
  182.8710  178.3640  141.0480 C   0  0  0  0  0  2  0  0  0  0  0  0
  182.8660  179.1310  139.3840 S   0  0  0  0  0  0  0  0  0  0  0  0
  186.2560  178.9880  140.4080 N   0  0  0  0  0  2  0  0  0  0  0  0
  184.5440  174.2590  135.2730 C   0  0  0  0  0  3  0  0  0  0  0  0
  185.3880  176.7090  136.3380 C   0  0  0  0  0  0  0  0  0  0  0  0
  185.8380  175.5070  136.8960 C   0  0  0  0  0  3  0  0  0  0  0  0
  185.4160  174.2840  136.3650 C   0  0  0  0  0  3  0  0  0  0  0  0
  184.0930  175.4560  134.7100 C   0  0  0  0  0  3  0  0  0  0  0  0
  184.5140  176.6790  135.2400 C   0  0  0  0  0  3  0  0  0  0  0  0
  1 15  1  1  0  0  0
  1  3  1  0  0  0  0
  2 11  1  0  0  0  0
  3 11  1  6  0  0  0
  3 21  1  0  0  0  0
  4 13  2  0  0  0  0
  6 18  1  0  0  0  0
  6  2  1  0  0  0  0
  7  9  2  0  0  0  0
 11 16  2  0  0  0  0
 12 23  1  1  0  0  0
 12  2  1  0  0  0  0
 12  1  1  0  0  0  0
 13  5  1  0  0  0  0
 13  9  1  0  0  0  0
 14  4  1  0  0  0  0
 14 16  1  0  0  0  0
 15 20  1  0  0  0  0
 16  7  1  0  0  0  0
 17 10  1  0  0  0  0
 17  8  2  0  0  0  0
 18 14  2  0  0  0  0
 19 10  1  0  0  0  0
 20 19  1  0  0  0  0
 21 17  1  0  0  0  0
 22 25  1  0  0  0  0
 23 24  1  0  0  0  0
 25 24  2  0  0  0  0
 26 27  1  0  0  0  0
 26 22  2  0  0  0  0
 27 23  2  0  0  0  0
M  END
>  <MODEL>
9

>  <REMARK>
 VINA RESULT:      -6.3      2.750      4.934
  Name = 
  1 active torsions:
  status: ('A' for Active; 'I' for Inactive)
    1  A    between atoms: C_9  and  C_15
                            x       y       z     vdW  Elec       q    Type
                         _______ _______ _______ _____ _____    ______ ____

>  <TORSDO>
F 1

$$$$
