=
 OpenBabel10262422223D

 43 48  0  0  1  0  0  0  0  0999 V2000
  184.6780  178.2740  144.0580 C   0  0  0  0  0  3  0  0  0  0  0  0
  191.2910  176.1840  146.9070 C   0  0  1  0  0  3  0  0  0  0  0  0
  186.9910  177.7550  144.6490 C   0  0  0  0  0  0  0  0  0  0  0  0
  187.7100  178.0620  141.9120 C   0  0  0  0  0  0  0  0  0  0  0  0
  188.9760  177.0630  146.4670 C   0  0  0  0  0  0  0  0  0  0  0  0
  191.7480  177.0460  145.7390 C   0  0  0  0  0  2  0  0  0  0  0  0
  192.3750  176.1410  147.9620 C   0  0  0  0  0  1  0  0  0  0  0  0
  189.3150  177.2430  145.1080 C   0  0  0  0  0  0  0  0  0  0  0  0
  190.0190  176.7710  147.5110 C   0  0  0  0  0  2  0  0  0  0  0  0
  190.7160  176.9740  144.6180 C   0  0  0  0  0  2  0  0  0  0  0  0
  188.6120  177.7410  142.7930 N   0  0  0  0  0  0  0  0  0  0  0  0
  188.3070  177.5800  144.1890 C   0  0  0  0  0  0  0  0  0  0  0  0
  186.7000  177.5950  145.9690 N   0  0  0  0  0  0  0  0  0  0  0  0
  185.9500  178.1070  143.6690 C   0  0  0  0  0  0  0  0  0  0  0  0
  186.3450  178.2540  142.3020 N   0  0  0  0  0  2  0  0  0  0  0  0
  187.6570  177.2620  146.8750 C   0  0  0  0  0  3  0  0  0  0  0  0
  181.2220  179.3880  143.0760 C   0  0  0  0  0  3  0  0  0  0  0  0
  181.2530  179.2710  141.6840 C   0  0  0  0  0  0  0  0  0  0  0  0
  183.5470  178.5060  141.8060 C   0  0  0  0  0  3  0  0  0  0  0  0
  182.3510  179.0570  143.8320 C   0  0  0  0  0  3  0  0  0  0  0  0
  183.5200  178.6140  143.2050 C   0  0  0  0  0  0  0  0  0  0  0  0
  182.4200  178.8360  141.0470 C   0  0  0  0  0  3  0  0  0  0  0  0
  179.8810  181.0270  140.9110 O   0  0  0  0  0  1  0  0  0  0  0  0
  180.0590  179.6440  140.8780 C   0  0  0  0  0  2  0  0  0  0  0  0
  188.0890  178.1930  140.4810 C   0  0  0  0  0  2  0  0  0  0  0  0
  189.2650  177.2770  140.1730 C   0  0  0  0  0  2  0  0  0  0  0  0
  189.1960  176.7100  138.7480 C   0  0  2  0  0  3  0  0  0  0  0  0
  190.4880  176.8490  138.0420 N   0  0  0  0  0  0  0  0  0  0  0  0
  192.4260  175.6130  137.3400 C   0  0  0  0  0  2  0  0  0  0  0  0
  191.5460  177.0770  139.0230 C   0  0  0  0  0  2  0  0  0  0  0  0
  190.9080  175.6310  137.3210 C   0  0  1  0  0  0  0  0  0  0  0  0
  190.4400  174.4710  137.9580 O   0  0  0  0  0  1  0  0  0  0  0  0
  192.8380  176.5840  138.4190 C   0  0  0  0  0  2  0  0  0  0  0  0
  190.4070  175.6910  135.8740 C   0  0  0  0  0  2  0  0  0  0  0  0
  189.5410  174.5290  135.5040 C   0  0  0  0  0  0  0  0  0  0  0  0
  188.9810  172.5920  134.7430 N   0  0  0  0  0  0  0  0  0  0  0  0
  187.8680  173.2390  135.1290 C   0  0  0  0  0  0  0  0  0  0  0  0
  186.5020  172.6630  135.0250 C   0  0  0  0  0  1  0  0  0  0  0  0
  188.1650  174.4930  135.6260 C   0  0  0  0  0  2  0  0  0  0  0  0
  190.0110  173.3870  134.9710 N   0  0  0  0  0  0  0  0  0  0  0  0
  188.0570  177.3890  137.9860 C   0  0  0  0  0  2  0  0  0  0  0  0
  187.7120  178.2410  135.9810 C   0  0  0  0  0  1  0  0  0  0  0  0
  188.5730  178.3100  137.0750 O   0  0  0  0  0  0  0  0  0  0  0  0
  2  9  1  0  0  0  0
  2  7  1  1  0  0  0
  3 13  1  0  0  0  0
  4 15  1  0  0  0  0
  4 11  2  0  0  0  0
  5 16  1  0  0  0  0
  5  9  1  0  0  0  0
  6  2  1  0  0  0  0
  8  5  2  0  0  0  0
 10  8  1  0  0  0  0
 10  6  1  0  0  0  0
 11 12  1  0  0  0  0
 12  3  2  0  0  0  0
 12  8  1  0  0  0  0
 13 16  2  0  0  0  0
 14  1  2  0  0  0  0
 14  3  1  0  0  0  0
 15 14  1  0  0  0  0
 17 20  1  0  0  0  0
 18 17  2  0  0  0  0
 19 21  1  0  0  0  0
 21 20  2  0  0  0  0
 21  1  1  0  0  0  0
 22 18  1  0  0  0  0
 22 19  2  0  0  0  0
 24 23  1  0  0  0  0
 24 18  1  0  0  0  0
 25  4  1  0  0  0  0
 26 25  1  0  0  0  0
 27 41  1  6  0  0  0
 27 26  1  0  0  0  0
 28 27  1  0  0  0  0
 28 30  1  0  0  0  0
 29 33  1  0  0  0  0
 31 29  1  0  0  0  0
 31 32  1  1  0  0  0
 31 28  1  0  0  0  0
 33 30  1  0  0  0  0
 34 31  1  0  0  0  0
 35 39  1  0  0  0  0
 35 34  1  0  0  0  0
 36 40  1  0  0  0  0
 36 37  2  0  0  0  0
 37 39  1  0  0  0  0
 38 37  1  0  0  0  0
 40 35  2  0  0  0  0
 42 43  1  0  0  0  0
 43 41  1  0  0  0  0
M  END
>  <MODEL>
1

>  <REMARK>
 VINA RESULT:      -9.4      0.000      0.000
  Name = 
  10 active torsions:
  status: ('A' for Active; 'I' for Inactive)
    1  A    between atoms: C_1  and  C_35
    2  A    between atoms: C_2  and  C_6
    3  A    between atoms: C_2  and  C_13
    4  A    between atoms: C_3  and  N_4
    5  A    between atoms: C_3  and  C_6
    6  A    between atoms: C_3  and  C_12
    7  A    between atoms: C_11  and  C_14
    8  A    between atoms: C_12  and  O_17
    9  A    between atoms: C_14  and  C_22
   10  A    between atoms: C_19  and  C_37
                            x       y       z     vdW  Elec       q    Type
                         _______ _______ _______ _____ _____    ______ ____

>  <TORSDO>
F 10

$$$$
=
 OpenBabel10262422223D

 43 48  0  0  1  0  0  0  0  0999 V2000
  186.8900  177.7620  144.4530 C   0  0  0  0  0  3  0  0  0  0  0  0
  181.8010  179.8020  139.3380 C   0  0  1  0  0  3  0  0  0  0  0  0
  185.5110  178.3130  142.5130 C   0  0  0  0  0  0  0  0  0  0  0  0
  187.8630  178.3640  140.9120 C   0  0  0  0  0  0  0  0  0  0  0  0
  183.0740  178.8760  141.2990 C   0  0  0  0  0  0  0  0  0  0  0  0
  182.8250  179.1060  138.4530 C   0  0  0  0  0  2  0  0  0  0  0  0
  180.4440  179.7700  138.6690 C   0  0  0  0  0  1  0  0  0  0  0  0
  184.2520  178.8730  140.5190 C   0  0  0  0  0  0  0  0  0  0  0  0
  181.7190  179.0900  140.6850 C   0  0  0  0  0  2  0  0  0  0  0  0
  184.2150  179.2620  139.0620 C   0  0  0  0  0  2  0  0  0  0  0  0
  186.7040  178.6190  140.3790 N   0  0  0  0  0  0  0  0  0  0  0  0
  185.4820  178.6010  141.1380 C   0  0  0  0  0  0  0  0  0  0  0  0
  184.3560  178.3020  143.2340 N   0  0  0  0  0  0  0  0  0  0  0  0
  186.8120  178.0320  143.1420 C   0  0  0  0  0  0  0  0  0  0  0  0
  187.9750  178.0650  142.3090 N   0  0  0  0  0  2  0  0  0  0  0  0
  183.1540  178.5700  142.6580 C   0  0  0  0  0  3  0  0  0  0  0  0
  189.1300  177.1860  147.4190 C   0  0  0  0  0  3  0  0  0  0  0  0
  190.3690  176.9490  146.8180 C   0  0  0  0  0  0  0  0  0  0  0  0
  189.3570  177.2260  144.6360 C   0  0  0  0  0  3  0  0  0  0  0  0
  188.0070  177.4490  146.6280 C   0  0  0  0  0  3  0  0  0  0  0  0
  188.1110  177.4710  145.2340 C   0  0  0  0  0  0  0  0  0  0  0  0
  190.4810  176.9620  145.4240 C   0  0  0  0  0  3  0  0  0  0  0  0
  192.2850  175.6000  147.0900 O   0  0  0  0  0  1  0  0  0  0  0  0
  191.5590  176.6470  147.6580 C   0  0  0  0  0  2  0  0  0  0  0  0
  189.0900  178.4200  140.0750 C   0  0  0  0  0  2  0  0  0  0  0  0
  188.7070  178.4810  138.6030 C   0  0  0  0  0  2  0  0  0  0  0  0
  189.1620  177.2300  137.8380 C   0  0  2  0  0  3  0  0  0  0  0  0
  188.0880  176.7030  136.9670 N   0  0  0  0  0  0  0  0  0  0  0  0
  187.1860  176.8430  134.7440 C   0  0  0  0  0  2  0  0  0  0  0  0
  186.9520  177.6200  137.0010 C   0  0  0  0  0  2  0  0  0  0  0  0
  188.4600  176.6250  135.5410 C   0  0  1  0  0  0  0  0  0  0  0  0
  189.3790  177.6270  135.1960 O   0  0  0  0  0  1  0  0  0  0  0  0
  186.1950  177.4520  135.7060 C   0  0  0  0  0  2  0  0  0  0  0  0
  189.0340  175.2380  135.2340 C   0  0  0  0  0  2  0  0  0  0  0  0
  188.2100  174.1240  135.7960 C   0  0  0  0  0  0  0  0  0  0  0  0
  187.6530  172.4580  137.0460 N   0  0  0  0  0  0  0  0  0  0  0  0
  186.6760  172.6640  136.1460 C   0  0  0  0  0  0  0  0  0  0  0  0
  185.4370  171.8470  136.0730 C   0  0  0  0  0  1  0  0  0  0  0  0
  186.9790  173.7230  135.3110 C   0  0  0  0  0  3  0  0  0  0  0  0
  188.5990  173.3550  136.8290 N   0  0  0  0  0  2  0  0  0  0  0  0
  189.6550  176.1780  138.8310 C   0  0  0  0  0  2  0  0  0  0  0  0
  191.5490  176.5520  137.7640 C   0  0  0  0  0  1  0  0  0  0  0  0
  190.7820  175.5310  138.3230 O   0  0  0  0  0  0  0  0  0  0  0  0
  1 21  1  0  0  0  0
  2  7  1  6  0  0  0
  2  9  1  0  0  0  0
  3 14  1  0  0  0  0
  3 13  1  0  0  0  0
  4 15  1  0  0  0  0
  5 16  1  0  0  0  0
  6 10  1  0  0  0  0
  6  2  1  0  0  0  0
  8 12  1  0  0  0  0
  8  5  2  0  0  0  0
  9  5  1  0  0  0  0
 10  8  1  0  0  0  0
 11  4  2  0  0  0  0
 11 12  1  0  0  0  0
 12  3  2  0  0  0  0
 14  1  2  0  0  0  0
 15 14  1  0  0  0  0
 16 13  2  0  0  0  0
 18 17  1  0  0  0  0
 18 24  1  0  0  0  0
 19 21  2  0  0  0  0
 19 22  1  0  0  0  0
 20 17  2  0  0  0  0
 21 20  1  0  0  0  0
 22 18  2  0  0  0  0
 23 24  1  0  0  0  0
 25  4  1  0  0  0  0
 26 25  1  0  0  0  0
 27 26  1  1  0  0  0
 27 41  1  0  0  0  0
 28 30  1  0  0  0  0
 28 27  1  0  0  0  0
 29 31  1  0  0  0  0
 29 33  1  0  0  0  0
 31 32  1  6  0  0  0
 31 28  1  0  0  0  0
 33 30  1  0  0  0  0
 34 31  1  0  0  0  0
 34 35  1  0  0  0  0
 35 40  1  0  0  0  0
 37 36  2  0  0  0  0
 38 37  1  0  0  0  0
 39 35  2  0  0  0  0
 39 37  1  0  0  0  0
 40 36  1  0  0  0  0
 42 43  1  0  0  0  0
 43 41  1  0  0  0  0
M  END
>  <MODEL>
2

>  <REMARK>
 VINA RESULT:      -9.3      2.255      6.789
  Name = 
  10 active torsions:
  status: ('A' for Active; 'I' for Inactive)
    1  A    between atoms: C_1  and  C_35
    2  A    between atoms: C_2  and  C_6
    3  A    between atoms: C_2  and  C_13
    4  A    between atoms: C_3  and  N_4
    5  A    between atoms: C_3  and  C_6
    6  A    between atoms: C_3  and  C_12
    7  A    between atoms: C_11  and  C_14
    8  A    between atoms: C_12  and  O_17
    9  A    between atoms: C_14  and  C_22
   10  A    between atoms: C_19  and  C_37
                            x       y       z     vdW  Elec       q    Type
                         _______ _______ _______ _____ _____    ______ ____

>  <TORSDO>
F 10

$$$$
=
 OpenBabel10262422223D

 43 48  0  0  1  0  0  0  0  0999 V2000
  184.6240  178.3030  143.8400 C   0  0  0  0  0  3  0  0  0  0  0  0
  191.1980  176.2710  146.8210 C   0  0  1  0  0  3  0  0  0  0  0  0
  186.9300  177.8070  144.4780 C   0  0  0  0  0  0  0  0  0  0  0  0
  187.7050  178.1400  141.7600 C   0  0  0  0  0  0  0  0  0  0  0  0
  188.8830  177.1260  146.3350 C   0  0  0  0  0  0  0  0  0  0  0  0
  191.6710  177.1450  145.6680 C   0  0  0  0  0  2  0  0  0  0  0  0
  192.2590  176.2340  147.8990 C   0  0  0  0  0  1  0  0  0  0  0  0
  189.2490  177.3190  144.9850 C   0  0  0  0  0  0  0  0  0  0  0  0
  189.9060  176.8400  147.4000 C   0  0  0  0  0  2  0  0  0  0  0  0
  190.6640  177.0690  144.5250 C   0  0  0  0  0  2  0  0  0  0  0  0
  188.5910  177.8240  142.6590 N   0  0  0  0  0  0  0  0  0  0  0  0
  188.2580  177.6500  144.0470 C   0  0  0  0  0  0  0  0  0  0  0  0
  186.6120  177.6360  145.7910 N   0  0  0  0  0  0  0  0  0  0  0  0
  185.9060  178.1530  143.4780 C   0  0  0  0  0  0  0  0  0  0  0  0
  186.3300  178.3140  142.1210 N   0  0  0  0  0  2  0  0  0  0  0  0
  187.5530  177.3080  146.7160 C   0  0  0  0  0  3  0  0  0  0  0  0
  181.1760  179.3770  142.7900 C   0  0  0  0  0  3  0  0  0  0  0  0
  181.2420  179.2760  141.3980 C   0  0  0  0  0  0  0  0  0  0  0  0
  183.5430  178.5440  141.5650 C   0  0  0  0  0  3  0  0  0  0  0  0
  182.2920  179.0550  143.5690 C   0  0  0  0  0  3  0  0  0  0  0  0
  183.4820  178.6360  142.9640 C   0  0  0  0  0  0  0  0  0  0  0  0
  182.4280  178.8660  140.7840 C   0  0  0  0  0  3  0  0  0  0  0  0
  180.3460  180.7790  139.8150 O   0  0  0  0  0  1  0  0  0  0  0  0
  180.0610  179.6400  140.5690 C   0  0  0  0  0  2  0  0  0  0  0  0
  188.1140  178.2840  140.3380 C   0  0  0  0  0  2  0  0  0  0  0  0
  186.8780  178.3610  139.4530 C   0  0  0  0  0  2  0  0  0  0  0  0
  187.1090  177.7040  138.0850 C   0  0  2  0  0  3  0  0  0  0  0  0
  185.8850  177.0400  137.5850 N   0  0  0  0  0  0  0  0  0  0  0  0
  184.3210  177.0380  135.7600 C   0  0  0  0  0  2  0  0  0  0  0  0
  184.7190  177.8200  137.9910 C   0  0  0  0  0  2  0  0  0  0  0  0
  185.7970  176.9820  136.1120 C   0  0  1  0  0  0  0  0  0  0  0  0
  186.4390  178.0780  135.5160 O   0  0  0  0  0  1  0  0  0  0  0  0
  183.6190  177.5430  136.9950 C   0  0  0  0  0  2  0  0  0  0  0  0
  186.4020  175.6660  135.6120 C   0  0  0  0  0  2  0  0  0  0  0  0
  185.8670  174.4660  136.3260 C   0  0  0  0  0  0  0  0  0  0  0  0
  185.7600  172.8360  137.7330 N   0  0  0  0  0  0  0  0  0  0  0  0
  184.6900  172.7720  136.9210 C   0  0  0  0  0  0  0  0  0  0  0  0
  183.6390  171.7270  137.0250 C   0  0  0  0  0  1  0  0  0  0  0  0
  184.7050  173.7940  135.9920 C   0  0  0  0  0  3  0  0  0  0  0  0
  186.4860  173.8770  137.3650 N   0  0  0  0  0  2  0  0  0  0  0  0
  188.2830  176.7290  138.1810 C   0  0  0  0  0  2  0  0  0  0  0  0
  189.9260  175.7990  137.0400 C   0  0  0  0  0  1  0  0  0  0  0  0
  189.2020  176.9840  137.1630 O   0  0  0  0  0  0  0  0  0  0  0  0
  2  9  1  0  0  0  0
  2  7  1  1  0  0  0
  3 13  1  0  0  0  0
  4 15  1  0  0  0  0
  4 11  2  0  0  0  0
  5 16  1  0  0  0  0
  5  9  1  0  0  0  0
  6  2  1  0  0  0  0
  8  5  2  0  0  0  0
 10  8  1  0  0  0  0
 10  6  1  0  0  0  0
 11 12  1  0  0  0  0
 12  3  2  0  0  0  0
 12  8  1  0  0  0  0
 13 16  2  0  0  0  0
 14  1  2  0  0  0  0
 14  3  1  0  0  0  0
 15 14  1  0  0  0  0
 17 20  1  0  0  0  0
 18 17  2  0  0  0  0
 19 21  1  0  0  0  0
 21 20  2  0  0  0  0
 21  1  1  0  0  0  0
 22 18  1  0  0  0  0
 22 19  2  0  0  0  0
 23 24  1  0  0  0  0
 24 18  1  0  0  0  0
 25  4  1  0  0  0  0
 26 25  1  0  0  0  0
 27 41  1  1  0  0  0
 27 26  1  0  0  0  0
 28 30  1  0  0  0  0
 28 27  1  0  0  0  0
 29 31  1  0  0  0  0
 29 33  1  0  0  0  0
 31 32  1  6  0  0  0
 31 28  1  0  0  0  0
 33 30  1  0  0  0  0
 34 31  1  0  0  0  0
 34 35  1  0  0  0  0
 35 40  1  0  0  0  0
 37 38  1  0  0  0  0
 37 36  2  0  0  0  0
 39 35  2  0  0  0  0
 39 37  1  0  0  0  0
 40 36  1  0  0  0  0
 42 43  1  0  0  0  0
 43 41  1  0  0  0  0
M  END
>  <MODEL>
3

>  <REMARK>
 VINA RESULT:      -9.3      1.902      3.162
  Name = 
  10 active torsions:
  status: ('A' for Active; 'I' for Inactive)
    1  A    between atoms: C_1  and  C_35
    2  A    between atoms: C_2  and  C_6
    3  A    between atoms: C_2  and  C_13
    4  A    between atoms: C_3  and  N_4
    5  A    between atoms: C_3  and  C_6
    6  A    between atoms: C_3  and  C_12
    7  A    between atoms: C_11  and  C_14
    8  A    between atoms: C_12  and  O_17
    9  A    between atoms: C_14  and  C_22
   10  A    between atoms: C_19  and  C_37
                            x       y       z     vdW  Elec       q    Type
                         _______ _______ _______ _____ _____    ______ ____

>  <TORSDO>
F 10

$$$$
=
 OpenBabel10262422223D

 43 48  0  0  1  0  0  0  0  0999 V2000
  186.4540  177.8860  144.3480 C   0  0  0  0  0  3  0  0  0  0  0  0
  181.3570  179.9000  139.2310 C   0  0  1  0  0  3  0  0  0  0  0  0
  185.0740  178.4340  142.4080 C   0  0  0  0  0  0  0  0  0  0  0  0
  187.4320  178.5290  140.8160 C   0  0  0  0  0  0  0  0  0  0  0  0
  182.6350  178.9750  141.1890 C   0  0  0  0  0  0  0  0  0  0  0  0
  182.3930  179.2250  138.3440 C   0  0  0  0  0  2  0  0  0  0  0  0
  180.0030  179.8560  138.5560 C   0  0  0  0  0  1  0  0  0  0  0  0
  183.8150  178.9940  140.4140 C   0  0  0  0  0  0  0  0  0  0  0  0
  181.2790  179.1760  140.5720 C   0  0  0  0  0  2  0  0  0  0  0  0
  183.7790  179.3940  138.9600 C   0  0  0  0  0  2  0  0  0  0  0  0
  186.2710  178.7730  140.2810 N   0  0  0  0  0  0  0  0  0  0  0  0
  185.0470  178.7330  141.0350 C   0  0  0  0  0  0  0  0  0  0  0  0
  183.9170  178.4030  143.1240 N   0  0  0  0  0  0  0  0  0  0  0  0
  186.3770  178.1650  143.0390 C   0  0  0  0  0  0  0  0  0  0  0  0
  187.5420  178.2200  142.2110 N   0  0  0  0  0  2  0  0  0  0  0  0
  182.7130  178.6590  142.5460 C   0  0  0  0  0  3  0  0  0  0  0  0
  188.7220  177.4500  147.3170 C   0  0  0  0  0  3  0  0  0  0  0  0
  189.9380  177.1110  146.7180 C   0  0  0  0  0  0  0  0  0  0  0  0
  188.8980  177.2570  144.5370 C   0  0  0  0  0  3  0  0  0  0  0  0
  187.5960  177.6990  146.5250 C   0  0  0  0  0  3  0  0  0  0  0  0
  187.6750  177.6050  145.1310 C   0  0  0  0  0  0  0  0  0  0  0  0
  190.0240  177.0080  145.3260 C   0  0  0  0  0  3  0  0  0  0  0  0
  192.2090  176.4730  146.7510 O   0  0  0  0  0  1  0  0  0  0  0  0
  191.1290  176.8250  147.5620 C   0  0  0  0  0  2  0  0  0  0  0  0
  188.6610  178.6070  139.9840 C   0  0  0  0  0  2  0  0  0  0  0  0
  188.6930  177.4460  139.0010 C   0  0  0  0  0  2  0  0  0  0  0  0
  190.0520  176.7310  138.9990 C   0  0  2  0  0  3  0  0  0  0  0  0
  190.0200  175.5000  138.1790 N   0  0  0  0  0  0  0  0  0  0  0  0
  190.5370  174.6450  135.9930 C   0  0  0  0  0  2  0  0  0  0  0  0
  188.7830  175.4760  137.4020 C   0  0  0  0  0  2  0  0  0  0  0  0
  191.0940  175.4280  137.1690 C   0  0  1  0  0  0  0  0  0  0  0  0
  191.4610  176.7060  136.7190 O   0  0  0  0  0  1  0  0  0  0  0  0
  189.0390  174.6430  136.1700 C   0  0  0  0  0  2  0  0  0  0  0  0
  192.3050  174.6950  137.7560 C   0  0  0  0  0  2  0  0  0  0  0  0
  193.5630  174.9290  136.9830 C   0  0  0  0  0  0  0  0  0  0  0  0
  195.3270  175.9320  136.2550 N   0  0  0  0  0  0  0  0  0  0  0  0
  195.2120  174.7540  135.6200 C   0  0  0  0  0  0  0  0  0  0  0  0
  196.1730  174.2730  134.5940 C   0  0  0  0  0  1  0  0  0  0  0  0
  194.0930  174.0630  136.0450 C   0  0  0  0  0  3  0  0  0  0  0  0
  194.3110  176.0420  137.0930 N   0  0  0  0  0  2  0  0  0  0  0  0
  190.4760  176.4420  140.4390 C   0  0  0  0  0  2  0  0  0  0  0  0
  191.6050  177.6390  141.9080 C   0  0  0  0  0  1  0  0  0  0  0  0
  191.7380  176.9820  140.6850 O   0  0  0  0  0  0  0  0  0  0  0  0
  1 21  1  0  0  0  0
  2  7  1  6  0  0  0
  2  9  1  0  0  0  0
  3 14  1  0  0  0  0
  3 13  1  0  0  0  0
  4 15  1  0  0  0  0
  5 16  1  0  0  0  0
  6 10  1  0  0  0  0
  6  2  1  0  0  0  0
  8 12  1  0  0  0  0
  8  5  2  0  0  0  0
  9  5  1  0  0  0  0
 10  8  1  0  0  0  0
 11  4  2  0  0  0  0
 11 12  1  0  0  0  0
 12  3  2  0  0  0  0
 14  1  2  0  0  0  0
 15 14  1  0  0  0  0
 16 13  2  0  0  0  0
 18 17  1  0  0  0  0
 18 24  1  0  0  0  0
 19 21  2  0  0  0  0
 19 22  1  0  0  0  0
 20 17  2  0  0  0  0
 21 20  1  0  0  0  0
 22 18  2  0  0  0  0
 23 24  1  0  0  0  0
 25  4  1  0  0  0  0
 26 25  1  0  0  0  0
 27 26  1  1  0  0  0
 27 41  1  0  0  0  0
 28 27  1  0  0  0  0
 29 33  1  0  0  0  0
 29 31  1  0  0  0  0
 30 28  1  0  0  0  0
 31 32  1  6  0  0  0
 31 34  1  0  0  0  0
 31 28  1  0  0  0  0
 33 30  1  0  0  0  0
 35 40  1  0  0  0  0
 35 34  1  0  0  0  0
 36 40  1  0  0  0  0
 37 39  1  0  0  0  0
 37 36  2  0  0  0  0
 38 37  1  0  0  0  0
 39 35  2  0  0  0  0
 41 43  1  0  0  0  0
 43 42  1  0  0  0  0
M  END
>  <MODEL>
4

>  <REMARK>
 VINA RESULT:      -9.2      2.643      7.174
  Name = 
  10 active torsions:
  status: ('A' for Active; 'I' for Inactive)
    1  A    between atoms: C_1  and  C_35
    2  A    between atoms: C_2  and  C_6
    3  A    between atoms: C_2  and  C_13
    4  A    between atoms: C_3  and  N_4
    5  A    between atoms: C_3  and  C_6
    6  A    between atoms: C_3  and  C_12
    7  A    between atoms: C_11  and  C_14
    8  A    between atoms: C_12  and  O_17
    9  A    between atoms: C_14  and  C_22
   10  A    between atoms: C_19  and  C_37
                            x       y       z     vdW  Elec       q    Type
                         _______ _______ _______ _____ _____    ______ ____

>  <TORSDO>
F 10

$$$$
=
 OpenBabel10262422223D

 43 48  0  0  1  0  0  0  0  0999 V2000
  186.2170  177.8920  144.2170 C   0  0  0  0  0  3  0  0  0  0  0  0
  181.1360  180.0620  139.1490 C   0  0  1  0  0  3  0  0  0  0  0  0
  184.8370  178.4840  142.2900 C   0  0  0  0  0  0  0  0  0  0  0  0
  187.1840  178.5210  140.6790 C   0  0  0  0  0  0  0  0  0  0  0  0
  182.4040  179.0960  141.0930 C   0  0  0  0  0  0  0  0  0  0  0  0
  182.1460  179.3620  138.2510 C   0  0  0  0  0  2  0  0  0  0  0  0
  179.7760  180.0570  138.4840 C   0  0  0  0  0  1  0  0  0  0  0  0
  183.5780  179.0850  140.3080 C   0  0  0  0  0  0  0  0  0  0  0  0
  181.0490  179.3360  140.4880 C   0  0  0  0  0  2  0  0  0  0  0  0
  183.5400  179.4910  138.8560 C   0  0  0  0  0  2  0  0  0  0  0  0
  186.0260  178.7990  140.1550 N   0  0  0  0  0  0  0  0  0  0  0  0
  184.8070  178.7890  140.9180 C   0  0  0  0  0  0  0  0  0  0  0  0
  183.6850  178.4820  143.0150 N   0  0  0  0  0  0  0  0  0  0  0  0
  186.1370  178.1780  142.9100 C   0  0  0  0  0  0  0  0  0  0  0  0
  187.2970  178.2040  142.0720 N   0  0  0  0  0  2  0  0  0  0  0  0
  182.4850  178.7730  142.4480 C   0  0  0  0  0  3  0  0  0  0  0  0
  188.4710  177.2930  147.1680 C   0  0  0  0  0  3  0  0  0  0  0  0
  189.6950  177.0060  146.5570 C   0  0  0  0  0  0  0  0  0  0  0  0
  188.6670  177.2790  144.3820 C   0  0  0  0  0  3  0  0  0  0  0  0
  187.3480  177.5800  146.3850 C   0  0  0  0  0  3  0  0  0  0  0  0
  187.4360  177.5750  144.9890 C   0  0  0  0  0  0  0  0  0  0  0  0
  189.7910  176.9920  145.1620 C   0  0  0  0  0  3  0  0  0  0  0  0
  192.0470  176.8550  146.6390 O   0  0  0  0  0  1  0  0  0  0  0  0
  190.8840  176.6800  147.3890 C   0  0  0  0  0  2  0  0  0  0  0  0
  188.4080  178.5690  139.8380 C   0  0  0  0  0  2  0  0  0  0  0  0
  189.1830  177.2680  139.9810 C   0  0  0  0  0  2  0  0  0  0  0  0
  189.8710  176.8610  138.6710 C   0  0  2  0  0  3  0  0  0  0  0  0
  191.3060  177.2220  138.6720 N   0  0  0  0  0  0  0  0  0  0  0  0
  193.5130  176.2880  138.8520 C   0  0  0  0  0  2  0  0  0  0  0  0
  191.7540  177.3910  140.0520 C   0  0  0  0  0  2  0  0  0  0  0  0
  192.1860  176.1720  138.1220 C   0  0  1  0  0  0  0  0  0  0  0  0
  191.6610  174.8910  138.3510 O   0  0  0  0  0  1  0  0  0  0  0  0
  193.2380  177.1140  140.0830 C   0  0  0  0  0  2  0  0  0  0  0  0
  192.3950  176.4090  136.6220 C   0  0  0  0  0  2  0  0  0  0  0  0
  193.7970  176.1440  136.1760 C   0  0  0  0  0  0  0  0  0  0  0  0
  195.8360  176.5300  135.5920 N   0  0  0  0  0  0  0  0  0  0  0  0
  195.5990  175.2120  135.4750 C   0  0  0  0  0  0  0  0  0  0  0  0
  196.6150  174.2300  135.0150 C   0  0  0  0  0  1  0  0  0  0  0  0
  194.3010  174.9030  135.8350 C   0  0  0  0  0  3  0  0  0  0  0  0
  194.7260  177.1040  136.0220 N   0  0  0  0  0  2  0  0  0  0  0  0
  189.1300  177.4890  137.4900 C   0  0  0  0  0  2  0  0  0  0  0  0
  187.4140  176.2610  136.8500 C   0  0  0  0  0  1  0  0  0  0  0  0
  188.7590  176.5020  136.5770 O   0  0  0  0  0  0  0  0  0  0  0  0
  1 21  1  0  0  0  0
  2  7  1  6  0  0  0
  2  9  1  0  0  0  0
  3 14  1  0  0  0  0
  3 13  1  0  0  0  0
  4 15  1  0  0  0  0
  5 16  1  0  0  0  0
  6 10  1  0  0  0  0
  6  2  1  0  0  0  0
  8 12  1  0  0  0  0
  8  5  2  0  0  0  0
  9  5  1  0  0  0  0
 10  8  1  0  0  0  0
 11  4  2  0  0  0  0
 11 12  1  0  0  0  0
 12  3  2  0  0  0  0
 14  1  2  0  0  0  0
 15 14  1  0  0  0  0
 16 13  2  0  0  0  0
 18 17  1  0  0  0  0
 18 24  1  0  0  0  0
 19 21  2  0  0  0  0
 19 22  1  0  0  0  0
 20 17  2  0  0  0  0
 21 20  1  0  0  0  0
 22 18  2  0  0  0  0
 23 24  1  0  0  0  0
 25 26  1  0  0  0  0
 25  4  1  0  0  0  0
 27 41  1  6  0  0  0
 27 28  1  0  0  0  0
 27 26  1  0  0  0  0
 28 30  1  0  0  0  0
 29 33  1  0  0  0  0
 30 33  1  0  0  0  0
 31 32  1  1  0  0  0
 31 28  1  0  0  0  0
 31 29  1  0  0  0  0
 34 31  1  0  0  0  0
 35 34  1  0  0  0  0
 36 40  1  0  0  0  0
 37 36  2  0  0  0  0
 37 39  1  0  0  0  0
 38 37  1  0  0  0  0
 39 35  2  0  0  0  0
 40 35  1  0  0  0  0
 43 42  1  0  0  0  0
 43 41  1  0  0  0  0
M  END
>  <MODEL>
5

>  <REMARK>
 VINA RESULT:      -9.1      2.661      7.059
  Name = 
  10 active torsions:
  status: ('A' for Active; 'I' for Inactive)
    1  A    between atoms: C_1  and  C_35
    2  A    between atoms: C_2  and  C_6
    3  A    between atoms: C_2  and  C_13
    4  A    between atoms: C_3  and  N_4
    5  A    between atoms: C_3  and  C_6
    6  A    between atoms: C_3  and  C_12
    7  A    between atoms: C_11  and  C_14
    8  A    between atoms: C_12  and  O_17
    9  A    between atoms: C_14  and  C_22
   10  A    between atoms: C_19  and  C_37
                            x       y       z     vdW  Elec       q    Type
                         _______ _______ _______ _____ _____    ______ ____

>  <TORSDO>
F 10

$$$$
=
 OpenBabel10262422223D

 43 48  0  0  1  0  0  0  0  0999 V2000
  184.5970  178.2790  143.8650 C   0  0  0  0  0  3  0  0  0  0  0  0
  191.2360  176.2810  146.7190 C   0  0  1  0  0  3  0  0  0  0  0  0
  186.9180  177.8200  144.4740 C   0  0  0  0  0  0  0  0  0  0  0  0
  187.6800  178.3530  141.7840 C   0  0  0  0  0  0  0  0  0  0  0  0
  188.8940  177.0870  146.2860 C   0  0  0  0  0  0  0  0  0  0  0  0
  191.6790  177.2420  145.6260 C   0  0  0  0  0  2  0  0  0  0  0  0
  192.2990  176.2090  147.7940 C   0  0  0  0  0  1  0  0  0  0  0  0
  189.2530  177.3790  144.9520 C   0  0  0  0  0  0  0  0  0  0  0  0
  189.9260  176.7670  147.3320 C   0  0  0  0  0  2  0  0  0  0  0  0
  190.6750  177.2060  144.4780 C   0  0  0  0  0  2  0  0  0  0  0  0
  188.5770  178.0100  142.6620 N   0  0  0  0  0  0  0  0  0  0  0  0
  188.2510  177.7360  144.0350 C   0  0  0  0  0  0  0  0  0  0  0  0
  186.6070  177.5540  145.7720 N   0  0  0  0  0  0  0  0  0  0  0  0
  185.8830  178.1960  143.4970 C   0  0  0  0  0  0  0  0  0  0  0  0
  186.3000  178.4570  142.1530 N   0  0  0  0  0  2  0  0  0  0  0  0
  187.5590  177.1990  146.6750 C   0  0  0  0  0  3  0  0  0  0  0  0
  181.1200  179.3250  142.8820 C   0  0  0  0  0  3  0  0  0  0  0  0
  181.1820  179.2950  141.4860 C   0  0  0  0  0  0  0  0  0  0  0  0
  183.5000  178.6080  141.6090 C   0  0  0  0  0  3  0  0  0  0  0  0
  182.2470  178.9900  143.6400 C   0  0  0  0  0  3  0  0  0  0  0  0
  183.4430  178.6290  143.0110 C   0  0  0  0  0  0  0  0  0  0  0  0
  182.3750  178.9430  140.8490 C   0  0  0  0  0  3  0  0  0  0  0  0
  180.1100  180.9950  140.2510 O   0  0  0  0  0  1  0  0  0  0  0  0
  179.9900  179.6730  140.6800 C   0  0  0  0  0  2  0  0  0  0  0  0
  188.0820  178.6020  140.3750 C   0  0  0  0  0  2  0  0  0  0  0  0
  188.0190  177.3030  139.5840 C   0  0  0  0  0  2  0  0  0  0  0  0
  189.2560  177.1100  138.6950 C   0  0  2  0  0  3  0  0  0  0  0  0
  188.9210  176.4010  137.4410 N   0  0  0  0  0  0  0  0  0  0  0  0
  188.2610  176.7590  135.1580 C   0  0  0  0  0  2  0  0  0  0  0  0
  187.4720  176.2310  137.3600 C   0  0  0  0  0  2  0  0  0  0  0  0
  189.2760  177.1480  136.2180 C   0  0  1  0  0  0  0  0  0  0  0  0
  189.1960  178.5340  136.4240 O   0  0  0  0  0  1  0  0  0  0  0  0
  187.1090  176.1260  135.8990 C   0  0  0  0  0  2  0  0  0  0  0  0
  190.6840  176.7510  135.7620 C   0  0  0  0  0  2  0  0  0  0  0  0
  190.9210  175.2760  135.8080 C   0  0  0  0  0  0  0  0  0  0  0  0
  191.7130  173.3780  136.4550 N   0  0  0  0  0  0  0  0  0  0  0  0
  190.9420  173.1740  135.3740 C   0  0  0  0  0  0  0  0  0  0  0  0
  190.7090  171.8370  134.7690 C   0  0  0  0  0  1  0  0  0  0  0  0
  190.4060  174.3600  134.9100 C   0  0  0  0  0  3  0  0  0  0  0  0
  191.7030  174.6730  136.7210 N   0  0  0  0  0  2  0  0  0  0  0  0
  190.3420  176.3810  139.4860 C   0  0  0  0  0  2  0  0  0  0  0  0
  191.7010  177.5020  140.8130 C   0  0  0  0  0  1  0  0  0  0  0  0
  191.5200  177.1280  139.4820 O   0  0  0  0  0  0  0  0  0  0  0  0
  2  9  1  0  0  0  0
  2  7  1  1  0  0  0
  3 13  1  0  0  0  0
  4 15  1  0  0  0  0
  4 11  2  0  0  0  0
  5 16  1  0  0  0  0
  5  9  1  0  0  0  0
  6  2  1  0  0  0  0
  8  5  2  0  0  0  0
 10  8  1  0  0  0  0
 10  6  1  0  0  0  0
 11 12  1  0  0  0  0
 12  3  2  0  0  0  0
 12  8  1  0  0  0  0
 13 16  2  0  0  0  0
 14  1  2  0  0  0  0
 14  3  1  0  0  0  0
 15 14  1  0  0  0  0
 17 20  1  0  0  0  0
 18 17  2  0  0  0  0
 19 21  1  0  0  0  0
 21 20  2  0  0  0  0
 21  1  1  0  0  0  0
 22 18  1  0  0  0  0
 22 19  2  0  0  0  0
 23 24  1  0  0  0  0
 24 18  1  0  0  0  0
 25  4  1  0  0  0  0
 26 25  1  0  0  0  0
 27 41  1  1  0  0  0
 27 26  1  0  0  0  0
 28 27  1  0  0  0  0
 29 33  1  0  0  0  0
 29 31  1  0  0  0  0
 30 28  1  0  0  0  0
 31 32  1  1  0  0  0
 31 28  1  0  0  0  0
 33 30  1  0  0  0  0
 34 35  1  0  0  0  0
 34 31  1  0  0  0  0
 35 40  1  0  0  0  0
 36 40  1  0  0  0  0
 37 36  2  0  0  0  0
 38 37  1  0  0  0  0
 39 37  1  0  0  0  0
 39 35  2  0  0  0  0
 43 41  1  0  0  0  0
 43 42  1  0  0  0  0
M  END
>  <MODEL>
6

>  <REMARK>
 VINA RESULT:      -8.9      1.387      2.345
  Name = 
  10 active torsions:
  status: ('A' for Active; 'I' for Inactive)
    1  A    between atoms: C_1  and  C_35
    2  A    between atoms: C_2  and  C_6
    3  A    between atoms: C_2  and  C_13
    4  A    between atoms: C_3  and  N_4
    5  A    between atoms: C_3  and  C_6
    6  A    between atoms: C_3  and  C_12
    7  A    between atoms: C_11  and  C_14
    8  A    between atoms: C_12  and  O_17
    9  A    between atoms: C_14  and  C_22
   10  A    between atoms: C_19  and  C_37
                            x       y       z     vdW  Elec       q    Type
                         _______ _______ _______ _____ _____    ______ ____

>  <TORSDO>
F 10

$$$$
=
 OpenBabel10262422223D

 43 48  0  0  1  0  0  0  0  0999 V2000
  184.5600  178.2730  143.9650 C   0  0  0  0  0  3  0  0  0  0  0  0
  191.2640  176.2740  146.6640 C   0  0  1  0  0  3  0  0  0  0  0  0
  186.8950  177.8160  144.5210 C   0  0  0  0  0  0  0  0  0  0  0  0
  187.5980  178.3680  141.8190 C   0  0  0  0  0  0  0  0  0  0  0  0
  188.9110  177.0770  146.2860 C   0  0  0  0  0  0  0  0  0  0  0  0
  191.6800  177.2430  145.5680 C   0  0  0  0  0  2  0  0  0  0  0  0
  192.3490  176.1980  147.7160 C   0  0  0  0  0  1  0  0  0  0  0  0
  189.2400  177.3780  144.9460 C   0  0  0  0  0  0  0  0  0  0  0  0
  189.9660  176.7530  147.3070 C   0  0  0  0  0  2  0  0  0  0  0  0
  190.6520  177.2120  144.4410 C   0  0  0  0  0  2  0  0  0  0  0  0
  188.5140  178.0220  142.6750 N   0  0  0  0  0  0  0  0  0  0  0  0
  188.2180  177.7380  144.0540 C   0  0  0  0  0  0  0  0  0  0  0  0
  186.6120  177.5410  145.8240 N   0  0  0  0  0  0  0  0  0  0  0  0
  185.8380  178.1950  143.5680 C   0  0  0  0  0  0  0  0  0  0  0  0
  186.2260  178.4670  142.2180 N   0  0  0  0  0  2  0  0  0  0  0  0
  187.5840  177.1820  146.7040 C   0  0  0  0  0  3  0  0  0  0  0  0
  181.0680  179.3410  143.0630 C   0  0  0  0  0  3  0  0  0  0  0  0
  181.0930  179.2980  141.6660 C   0  0  0  0  0  0  0  0  0  0  0  0
  183.4070  178.5910  141.7350 C   0  0  0  0  0  3  0  0  0  0  0  0
  182.2110  179.0030  143.7940 C   0  0  0  0  0  3  0  0  0  0  0  0
  183.3880  178.6260  143.1380 C   0  0  0  0  0  0  0  0  0  0  0  0
  182.2660  178.9290  141.0010 C   0  0  0  0  0  3  0  0  0  0  0  0
  179.7720  181.0690  140.8400 O   0  0  0  0  0  1  0  0  0  0  0  0
  179.8840  179.6800  140.8880 C   0  0  0  0  0  2  0  0  0  0  0  0
  187.9700  178.6280  140.4030 C   0  0  0  0  0  2  0  0  0  0  0  0
  188.6310  177.3920  139.8100 C   0  0  0  0  0  2  0  0  0  0  0  0
  190.0100  177.7080  139.2130 C   0  0  2  0  0  3  0  0  0  0  0  0
  190.0000  177.6120  137.7370 N   0  0  0  0  0  0  0  0  0  0  0  0
  189.1380  176.3100  135.9100 C   0  0  0  0  0  2  0  0  0  0  0  0
  191.0470  176.6850  137.3120 C   0  0  0  0  0  2  0  0  0  0  0  0
  188.7550  177.0440  137.1830 C   0  0  1  0  0  0  0  0  0  0  0  0
  188.1720  176.1260  138.0700 O   0  0  0  0  0  1  0  0  0  0  0  0
  190.6320  176.1150  135.9770 C   0  0  0  0  0  2  0  0  0  0  0  0
  187.7740  178.1750  136.8560 C   0  0  0  0  0  2  0  0  0  0  0  0
  186.3520  177.7170  136.7900 C   0  0  0  0  0  0  0  0  0  0  0  0
  184.5380  176.8780  135.9830 N   0  0  0  0  0  0  0  0  0  0  0  0
  184.2880  177.3230  137.2260 C   0  0  0  0  0  0  0  0  0  0  0  0
  182.9590  177.2240  137.8840 C   0  0  0  0  0  1  0  0  0  0  0  0
  185.4180  177.8770  137.7960 C   0  0  0  0  0  2  0  0  0  0  0  0
  185.8090  177.1220  135.7130 N   0  0  0  0  0  0  0  0  0  0  0  0
  191.0560  176.7830  139.8350 C   0  0  0  0  0  2  0  0  0  0  0  0
  193.1570  177.3330  140.2190 C   0  0  0  0  0  1  0  0  0  0  0  0
  191.8660  177.4990  140.7160 O   0  0  0  0  0  0  0  0  0  0  0  0
  2  9  1  0  0  0  0
  2  7  1  1  0  0  0
  3 13  1  0  0  0  0
  4 15  1  0  0  0  0
  4 11  2  0  0  0  0
  5 16  1  0  0  0  0
  5  9  1  0  0  0  0
  6  2  1  0  0  0  0
  8  5  2  0  0  0  0
 10  8  1  0  0  0  0
 10  6  1  0  0  0  0
 11 12  1  0  0  0  0
 12  3  2  0  0  0  0
 12  8  1  0  0  0  0
 13 16  2  0  0  0  0
 14  1  2  0  0  0  0
 14  3  1  0  0  0  0
 15 14  1  0  0  0  0
 17 20  1  0  0  0  0
 18 17  2  0  0  0  0
 19 21  1  0  0  0  0
 21 20  2  0  0  0  0
 21  1  1  0  0  0  0
 22 18  1  0  0  0  0
 22 19  2  0  0  0  0
 23 24  1  0  0  0  0
 24 18  1  0  0  0  0
 25  4  1  0  0  0  0
 26 25  1  0  0  0  0
 27 26  1  1  0  0  0
 27 41  1  0  0  0  0
 28 27  1  0  0  0  0
 29 33  1  0  0  0  0
 29 31  1  0  0  0  0
 30 28  1  0  0  0  0
 31 28  1  0  0  0  0
 31 32  1  1  0  0  0
 33 30  1  0  0  0  0
 34 31  1  0  0  0  0
 35 34  1  0  0  0  0
 35 39  1  0  0  0  0
 36 37  2  0  0  0  0
 37 39  1  0  0  0  0
 37 38  1  0  0  0  0
 40 36  1  0  0  0  0
 40 35  2  0  0  0  0
 41 43  1  0  0  0  0
 42 43  1  0  0  0  0
M  END
>  <MODEL>
7

>  <REMARK>
 VINA RESULT:      -8.7      1.827      2.811
  Name = 
  10 active torsions:
  status: ('A' for Active; 'I' for Inactive)
    1  A    between atoms: C_1  and  C_35
    2  A    between atoms: C_2  and  C_6
    3  A    between atoms: C_2  and  C_13
    4  A    between atoms: C_3  and  N_4
    5  A    between atoms: C_3  and  C_6
    6  A    between atoms: C_3  and  C_12
    7  A    between atoms: C_11  and  C_14
    8  A    between atoms: C_12  and  O_17
    9  A    between atoms: C_14  and  C_22
   10  A    between atoms: C_19  and  C_37
                            x       y       z     vdW  Elec       q    Type
                         _______ _______ _______ _____ _____    ______ ____

>  <TORSDO>
F 10

$$$$
=
 OpenBabel10262422223D

 43 48  0  0  1  0  0  0  0  0999 V2000
  186.6000  177.9550  144.7000 C   0  0  0  0  0  3  0  0  0  0  0  0
  181.7170  179.8370  139.3300 C   0  0  1  0  0  3  0  0  0  0  0  0
  185.2930  178.4330  142.6920 C   0  0  0  0  0  0  0  0  0  0  0  0
  187.6930  178.3430  141.1640 C   0  0  0  0  0  0  0  0  0  0  0  0
  182.9080  178.9880  141.3750 C   0  0  0  0  0  0  0  0  0  0  0  0
  182.7490  179.0710  138.5150 C   0  0  0  0  0  2  0  0  0  0  0  0
  180.3810  179.8020  138.6210 C   0  0  0  0  0  1  0  0  0  0  0  0
  184.1080  178.9150  140.6340 C   0  0  0  0  0  0  0  0  0  0  0  0
  181.5770  179.2010  140.7100 C   0  0  0  0  0  2  0  0  0  0  0  0
  184.1240  179.2270  139.1580 C   0  0  0  0  0  2  0  0  0  0  0  0
  186.5560  178.5970  140.5830 N   0  0  0  0  0  0  0  0  0  0  0  0
  185.3130  178.6480  141.3030 C   0  0  0  0  0  0  0  0  0  0  0  0
  184.1170  178.4890  143.3760 N   0  0  0  0  0  0  0  0  0  0  0  0
  186.5680  178.1560  143.3750 C   0  0  0  0  0  0  0  0  0  0  0  0
  187.7550  178.1170  142.5770 N   0  0  0  0  0  2  0  0  0  0  0  0
  182.9400  178.7530  142.7510 C   0  0  0  0  0  3  0  0  0  0  0  0
  190.1940  177.3510  145.6330 C   0  0  0  0  0  3  0  0  0  0  0  0
  190.1130  177.1390  147.0120 C   0  0  0  0  0  0  0  0  0  0  0  0
  187.7170  177.4690  146.9180 C   0  0  0  0  0  3  0  0  0  0  0  0
  189.0340  177.6160  144.8970 C   0  0  0  0  0  3  0  0  0  0  0  0
  187.7890  177.6780  145.5320 C   0  0  0  0  0  0  0  0  0  0  0  0
  188.8750  177.2050  147.6570 C   0  0  0  0  0  3  0  0  0  0  0  0
  192.2420  176.1220  147.0380 O   0  0  0  0  0  1  0  0  0  0  0  0
  191.3490  176.8780  147.7990 C   0  0  0  0  0  2  0  0  0  0  0  0
  188.9450  178.3260  140.3630 C   0  0  0  0  0  2  0  0  0  0  0  0
  189.1500  176.9440  139.7590 C   0  0  0  0  0  2  0  0  0  0  0  0
  189.7770  177.0160  138.3600 C   0  0  2  0  0  3  0  0  0  0  0  0
  188.7920  176.6980  137.3030 N   0  0  0  0  0  0  0  0  0  0  0  0
  187.2890  177.7100  135.7230 C   0  0  0  0  0  2  0  0  0  0  0  0
  187.4530  176.6870  137.8860 C   0  0  0  0  0  2  0  0  0  0  0  0
  188.7210  177.7100  136.2300 C   0  0  1  0  0  0  0  0  0  0  0  0
  189.0220  178.9920  136.7140 O   0  0  0  0  0  1  0  0  0  0  0  0
  186.4750  177.0080  136.7820 C   0  0  0  0  0  2  0  0  0  0  0  0
  189.6740  177.3240  135.0940 C   0  0  0  0  0  2  0  0  0  0  0  0
  189.7850  175.8460  134.8980 C   0  0  0  0  0  0  0  0  0  0  0  0
  189.1780  173.8000  134.5940 N   0  0  0  0  0  0  0  0  0  0  0  0
  190.5140  173.8340  134.7280 C   0  0  0  0  0  0  0  0  0  0  0  0
  191.3800  172.6280  134.6670 C   0  0  0  0  0  1  0  0  0  0  0  0
  190.9640  175.1250  134.9290 C   0  0  0  0  0  2  0  0  0  0  0  0
  188.7280  175.0380  134.7000 N   0  0  0  0  0  0  0  0  0  0  0  0
  190.9920  176.0890  138.2990 C   0  0  0  0  0  2  0  0  0  0  0  0
  193.1620  175.9130  137.9520 C   0  0  0  0  0  1  0  0  0  0  0  0
  192.0750  176.7540  137.7250 O   0  0  0  0  0  0  0  0  0  0  0  0
  1 21  1  0  0  0  0
  2  7  1  6  0  0  0
  2  9  1  0  0  0  0
  3 14  1  0  0  0  0
  3 13  1  0  0  0  0
  4 15  1  0  0  0  0
  5 16  1  0  0  0  0
  6 10  1  0  0  0  0
  6  2  1  0  0  0  0
  8 12  1  0  0  0  0
  8  5  2  0  0  0  0
  9  5  1  0  0  0  0
 10  8  1  0  0  0  0
 11  4  2  0  0  0  0
 11 12  1  0  0  0  0
 12  3  2  0  0  0  0
 14  1  2  0  0  0  0
 15 14  1  0  0  0  0
 16 13  2  0  0  0  0
 17 18  1  0  0  0  0
 18 22  2  0  0  0  0
 18 24  1  0  0  0  0
 19 22  1  0  0  0  0
 20 21  1  0  0  0  0
 20 17  2  0  0  0  0
 21 19  2  0  0  0  0
 23 24  1  0  0  0  0
 25  4  1  0  0  0  0
 26 25  1  0  0  0  0
 27 41  1  1  0  0  0
 27 26  1  0  0  0  0
 28 30  1  0  0  0  0
 28 27  1  0  0  0  0
 29 31  1  0  0  0  0
 29 33  1  0  0  0  0
 31 32  1  1  0  0  0
 31 28  1  0  0  0  0
 33 30  1  0  0  0  0
 34 31  1  0  0  0  0
 35 39  1  0  0  0  0
 35 34  1  0  0  0  0
 36 40  1  0  0  0  0
 36 37  2  0  0  0  0
 37 39  1  0  0  0  0
 38 37  1  0  0  0  0
 40 35  2  0  0  0  0
 43 42  1  0  0  0  0
 43 41  1  0  0  0  0
M  END
>  <MODEL>
8

>  <REMARK>
 VINA RESULT:      -8.5      2.163      6.849
  Name = 
  10 active torsions:
  status: ('A' for Active; 'I' for Inactive)
    1  A    between atoms: C_1  and  C_35
    2  A    between atoms: C_2  and  C_6
    3  A    between atoms: C_2  and  C_13
    4  A    between atoms: C_3  and  N_4
    5  A    between atoms: C_3  and  C_6
    6  A    between atoms: C_3  and  C_12
    7  A    between atoms: C_11  and  C_14
    8  A    between atoms: C_12  and  O_17
    9  A    between atoms: C_14  and  C_22
   10  A    between atoms: C_19  and  C_37
                            x       y       z     vdW  Elec       q    Type
                         _______ _______ _______ _____ _____    ______ ____

>  <TORSDO>
F 10

$$$$
=
 OpenBabel10262422223D

 43 48  0  0  1  0  0  0  0  0999 V2000
  186.9910  177.7950  144.4280 C   0  0  0  0  0  3  0  0  0  0  0  0
  181.8660  179.7790  139.3280 C   0  0  1  0  0  3  0  0  0  0  0  0
  185.5920  178.3130  142.4930 C   0  0  0  0  0  0  0  0  0  0  0  0
  187.9190  178.2560  140.8550 C   0  0  0  0  0  0  0  0  0  0  0  0
  183.1500  178.8900  141.2990 C   0  0  0  0  0  0  0  0  0  0  0  0
  182.8590  179.0310  138.4510 C   0  0  0  0  0  2  0  0  0  0  0  0
  180.4980  179.7560  138.6810 C   0  0  0  0  0  1  0  0  0  0  0  0
  184.3140  178.8340  140.5020 C   0  0  0  0  0  0  0  0  0  0  0  0
  181.7890  179.1150  140.7000 C   0  0  0  0  0  2  0  0  0  0  0  0
  184.2620  179.1750  139.0330 C   0  0  0  0  0  2  0  0  0  0  0  0
  186.7580  178.5200  140.3320 N   0  0  0  0  0  0  0  0  0  0  0  0
  185.5480  178.5560  141.1100 C   0  0  0  0  0  0  0  0  0  0  0  0
  184.4500  178.3530  143.2320 N   0  0  0  0  0  0  0  0  0  0  0  0
  186.8970  178.0230  143.1110 C   0  0  0  0  0  0  0  0  0  0  0  0
  188.0470  178.0020  142.2590 N   0  0  0  0  0  2  0  0  0  0  0  0
  183.2450  178.6280  142.6670 C   0  0  0  0  0  3  0  0  0  0  0  0
  189.2100  176.9500  147.3460 C   0  0  0  0  0  3  0  0  0  0  0  0
  190.4810  176.9530  146.7660 C   0  0  0  0  0  0  0  0  0  0  0  0
  189.4970  177.4970  144.6230 C   0  0  0  0  0  3  0  0  0  0  0  0
  188.0830  177.2280  146.5640 C   0  0  0  0  0  3  0  0  0  0  0  0
  188.2170  177.5030  145.1990 C   0  0  0  0  0  0  0  0  0  0  0  0
  190.6240  177.2200  145.4010 C   0  0  0  0  0  3  0  0  0  0  0  0
  192.3780  175.5740  147.0220 O   0  0  0  0  0  1  0  0  0  0  0  0
  191.6770  176.6360  147.5930 C   0  0  0  0  0  2  0  0  0  0  0  0
  189.1330  178.2560  139.9970 C   0  0  0  0  0  2  0  0  0  0  0  0
  188.7270  178.2940  138.5310 C   0  0  0  0  0  2  0  0  0  0  0  0
  188.6420  176.8880  137.9200 C   0  0  2  0  0  3  0  0  0  0  0  0
  189.7710  176.6220  137.0030 N   0  0  0  0  0  0  0  0  0  0  0  0
  191.4340  174.9790  136.4430 C   0  0  0  0  0  2  0  0  0  0  0  0
  191.0190  177.0050  137.6580 C   0  0  0  0  0  2  0  0  0  0  0  0
  189.9490  175.1940  136.6730 C   0  0  1  0  0  0  0  0  0  0  0  0
  189.5370  174.3690  137.7320 O   0  0  0  0  0  1  0  0  0  0  0  0
  192.1240  176.1770  137.0470 C   0  0  0  0  0  2  0  0  0  0  0  0
  189.1710  174.8600  135.3960 C   0  0  0  0  0  2  0  0  0  0  0  0
  188.4610  173.5450  135.4680 C   0  0  0  0  0  0  0  0  0  0  0  0
  186.8780  172.1230  135.8090 N   0  0  0  0  0  0  0  0  0  0  0  0
  187.9860  171.4520  135.4500 C   0  0  0  0  0  0  0  0  0  0  0  0
  188.0490  169.9730  135.3240 C   0  0  0  0  0  1  0  0  0  0  0  0
  189.0400  172.3150  135.2190 C   0  0  0  0  0  3  0  0  0  0  0  0
  187.1710  173.4120  135.8230 N   0  0  0  0  0  2  0  0  0  0  0  0
  187.2920  176.7180  137.2220 C   0  0  0  0  0  2  0  0  0  0  0  0
  186.7890  177.8870  135.4210 C   0  0  0  0  0  1  0  0  0  0  0  0
  186.8040  177.9590  136.8130 O   0  0  0  0  0  0  0  0  0  0  0  0
  1 21  1  0  0  0  0
  2  7  1  6  0  0  0
  2  9  1  0  0  0  0
  3 14  1  0  0  0  0
  3 13  1  0  0  0  0
  4 15  1  0  0  0  0
  5 16  1  0  0  0  0
  6 10  1  0  0  0  0
  6  2  1  0  0  0  0
  8 12  1  0  0  0  0
  8  5  2  0  0  0  0
  9  5  1  0  0  0  0
 10  8  1  0  0  0  0
 11  4  2  0  0  0  0
 11 12  1  0  0  0  0
 12  3  2  0  0  0  0
 14  1  2  0  0  0  0
 15 14  1  0  0  0  0
 16 13  2  0  0  0  0
 18 17  1  0  0  0  0
 18 24  1  0  0  0  0
 19 21  2  0  0  0  0
 19 22  1  0  0  0  0
 20 17  2  0  0  0  0
 21 20  1  0  0  0  0
 22 18  2  0  0  0  0
 23 24  1  0  0  0  0
 25  4  1  0  0  0  0
 26 25  1  0  0  0  0
 27 41  1  6  0  0  0
 27 26  1  0  0  0  0
 28 30  1  0  0  0  0
 28 27  1  0  0  0  0
 29 31  1  0  0  0  0
 29 33  1  0  0  0  0
 31 28  1  0  0  0  0
 31 32  1  1  0  0  0
 33 30  1  0  0  0  0
 34 35  1  0  0  0  0
 34 31  1  0  0  0  0
 35 40  1  0  0  0  0
 36 40  1  0  0  0  0
 37 36  2  0  0  0  0
 38 37  1  0  0  0  0
 39 37  1  0  0  0  0
 39 35  2  0  0  0  0
 42 43  1  0  0  0  0
 43 41  1  0  0  0  0
M  END
>  <MODEL>
9

>  <REMARK>
 VINA RESULT:      -8.4      2.047      6.517
  Name = 
  10 active torsions:
  status: ('A' for Active; 'I' for Inactive)
    1  A    between atoms: C_1  and  C_35
    2  A    between atoms: C_2  and  C_6
    3  A    between atoms: C_2  and  C_13
    4  A    between atoms: C_3  and  N_4
    5  A    between atoms: C_3  and  C_6
    6  A    between atoms: C_3  and  C_12
    7  A    between atoms: C_11  and  C_14
    8  A    between atoms: C_12  and  O_17
    9  A    between atoms: C_14  and  C_22
   10  A    between atoms: C_19  and  C_37
                            x       y       z     vdW  Elec       q    Type
                         _______ _______ _______ _____ _____    ______ ____

>  <TORSDO>
F 10

$$$$
