=
 OpenBabel10262419363D

 31 35  0  0  1  0  0  0  0  0999 V2000
  183.6380  179.0030  144.5470 C   0  0  0  0  0  0  0  0  0  0  0  0
  186.6750  178.6810  142.3510 N   0  0  0  0  0  0  0  0  0  0  0  0
  187.6960  177.9590  143.0760 C   0  0  0  0  0  0  0  0  0  0  0  0
  184.0670  177.3560  138.0010 O   0  0  0  0  0  0  0  0  0  0  0  0
  185.2340  177.7110  137.6770 C   0  0  0  0  0  0  0  0  0  0  0  0
  188.6880  177.1350  145.1360 C   0  0  0  0  0  0  0  0  0  0  0  0
  185.3100  178.7450  142.8090 C   0  0  0  0  0  0  0  0  0  0  0  0
  182.6230  178.8020  143.6060 C   0  0  0  0  0  3  0  0  0  0  0  0
  187.6850  177.8510  144.4750 C   0  0  0  0  0  3  0  0  0  0  0  0
  185.8370  178.4780  140.0360 C   0  0  0  0  0  0  0  0  0  0  0  0
  183.3210  179.2220  145.8470 F   0  0  0  0  0  0  0  0  0  0  0  0
  188.6940  177.4330  140.8680 C   0  0  0  0  0  2  0  0  0  0  0  0
  188.6680  177.0270  146.6180 C   0  0  0  0  0  1  0  0  0  0  0  0
  184.6250  178.3200  140.4900 N   0  0  0  0  0  0  0  0  0  0  0  0
  186.9020  179.0590  140.9390 C   0  0  2  0  0  3  0  0  0  0  0  0
  186.1330  178.2540  138.6500 N   0  0  0  0  0  2  0  0  0  0  0  0
  184.9780  178.9720  144.1520 C   0  0  0  0  0  3  0  0  0  0  0  0
  189.7050  176.5170  144.4030 C   0  0  0  0  0  3  0  0  0  0  0  0
  184.2860  178.5590  141.8640 C   0  0  0  0  0  0  0  0  0  0  0  0
  182.9470  178.5770  142.2650 C   0  0  0  0  0  3  0  0  0  0  0  0
  188.2680  178.7730  140.4700 N   0  0  0  0  0  2  0  0  0  0  0  0
  188.7260  177.3440  142.3540 C   0  0  0  0  0  0  0  0  0  0  0  0
  189.7220  176.6180  143.0090 C   0  0  0  0  0  3  0  0  0  0  0  0
  187.1770  175.0330  135.8430 C   0  0  1  0  0  3  0  0  0  0  0  0
  185.0610  176.3580  135.5660 C   0  0  0  0  0  2  0  0  0  0  0  0
  187.9220  178.6890  136.7950 C   0  0  0  0  0  1  0  0  0  0  0  0
  187.7500  173.7240  136.3450 C   0  0  0  0  0  1  0  0  0  0  0  0
  185.6640  175.0380  136.0500 C   0  0  0  0  0  2  0  0  0  0  0  0
  187.2410  177.5170  136.1100 C   0  0  2  0  0  3  0  0  0  0  0  0
  185.7080  177.5610  136.2580 C   0  0  2  0  0  3  0  0  0  0  0  0
  187.8200  176.1910  136.6000 C   0  0  0  0  0  2  0  0  0  0  0  0
  1 11  1  0  0  0  0
  2  7  1  0  0  0  0
  2  3  1  0  0  0  0
  3  9  1  0  0  0  0
  5  4  2  0  0  0  0
  5 16  1  0  0  0  0
  6 13  1  0  0  0  0
  7 17  2  0  0  0  0
  8  1  2  0  0  0  0
  9  6  2  0  0  0  0
 10 14  2  0  0  0  0
 12 22  1  0  0  0  0
 14 19  1  0  0  0  0
 15 10  1  6  0  0  0
 15  2  1  0  0  0  0
 16 10  1  0  0  0  0
 17  1  1  0  0  0  0
 18  6  1  0  0  0  0
 19 20  2  0  0  0  0
 19  7  1  0  0  0  0
 20  8  1  0  0  0  0
 21 12  1  0  0  0  0
 21 15  1  0  0  0  0
 22 23  1  0  0  0  0
 22  3  2  0  0  0  0
 23 18  2  0  0  0  0
 24 28  1  0  0  0  0
 24 27  1  1  0  0  0
 24 31  1  0  0  0  0
 25 28  1  0  0  0  0
 25 30  1  0  0  0  0
 29 30  1  0  0  0  0
 29 31  1  0  0  0  0
 29 26  1  1  0  0  0
 30  5  1  1  0  0  0
M  END
>  <MODEL>
1

>  <REMARK>
 VINA RESULT:      -9.5      0.000      0.000
  Name = 
  1 active torsions:
  status: ('A' for Active; 'I' for Inactive)
    1  A    between atoms: C_9  and  C_22
                            x       y       z     vdW  Elec       q    Type
                         _______ _______ _______ _____ _____    ______ ____

>  <TORSDO>
F 1

$$$$
=
 OpenBabel10262419363D

 31 35  0  0  1  0  0  0  0  0999 V2000
  180.6750  178.7220  143.2860 C   0  0  0  0  0  0  0  0  0  0  0  0
  184.2500  178.9660  142.1410 N   0  0  0  0  0  0  0  0  0  0  0  0
  185.1130  178.5780  143.2340 C   0  0  0  0  0  0  0  0  0  0  0  0
  183.4900  176.6840  137.4830 O   0  0  0  0  0  0  0  0  0  0  0  0
  184.6000  177.2840  137.4600 C   0  0  0  0  0  0  0  0  0  0  0  0
  185.5460  178.1970  145.5950 C   0  0  0  0  0  0  0  0  0  0  0  0
  182.8280  178.7330  142.1690 C   0  0  0  0  0  0  0  0  0  0  0  0
  180.0760  178.2010  142.1340 C   0  0  0  0  0  3  0  0  0  0  0  0
  184.6810  178.5890  144.5690 C   0  0  0  0  0  3  0  0  0  0  0  0
  184.2520  178.3700  139.7440 C   0  0  0  0  0  0  0  0  0  0  0  0
  179.9230  178.9660  144.3880 F   0  0  0  0  0  0  0  0  0  0  0  0
  186.8470  178.1270  141.5190 C   0  0  0  0  0  2  0  0  0  0  0  0
  185.0800  178.2130  147.0050 C   0  0  0  0  0  1  0  0  0  0  0  0
  183.0180  177.9610  139.8460 N   0  0  0  0  0  0  0  0  0  0  0  0
  184.8310  179.2670  140.8140 C   0  0  2  0  0  3  0  0  0  0  0  0
  185.0110  178.1090  138.5560 N   0  0  0  0  0  2  0  0  0  0  0  0
  182.0470  178.9850  143.3050 C   0  0  0  0  0  3  0  0  0  0  0  0
  186.8480  177.7860  145.2930 C   0  0  0  0  0  3  0  0  0  0  0  0
  182.2190  178.2240  141.0080 C   0  0  0  0  0  0  0  0  0  0  0  0
  180.8480  177.9500  140.9970 C   0  0  0  0  0  3  0  0  0  0  0  0
  186.3030  179.2840  140.8120 N   0  0  0  0  0  2  0  0  0  0  0  0
  186.4220  178.1740  142.9450 C   0  0  0  0  0  0  0  0  0  0  0  0
  187.2860  177.7700  143.9660 C   0  0  0  0  0  3  0  0  0  0  0  0
  186.5800  174.3890  136.0420 C   0  0  1  0  0  3  0  0  0  0  0  0
  184.9690  176.1460  135.2500 C   0  0  0  0  0  2  0  0  0  0  0  0
  187.5510  177.7310  137.6900 C   0  0  0  0  0  1  0  0  0  0  0  0
  186.6980  172.9580  136.5220 C   0  0  0  0  0  1  0  0  0  0  0  0
  185.1200  174.6980  135.7210 C   0  0  0  0  0  2  0  0  0  0  0  0
  186.9710  176.7800  136.6580 C   0  0  2  0  0  3  0  0  0  0  0  0
  185.5210  177.1350  136.2810 C   0  0  2  0  0  3  0  0  0  0  0  0
  187.0960  175.3310  137.1260 C   0  0  0  0  0  2  0  0  0  0  0  0
  1 17  1  0  0  0  0
  1 11  1  0  0  0  0
  2  7  1  0  0  0  0
  2  3  1  0  0  0  0
  3  9  1  0  0  0  0
  5  4  2  0  0  0  0
  5 16  1  0  0  0  0
  6 13  1  0  0  0  0
  7 17  2  0  0  0  0
  8  1  2  0  0  0  0
  9  6  2  0  0  0  0
 10 14  2  0  0  0  0
 12 22  1  0  0  0  0
 14 19  1  0  0  0  0
 15 10  1  6  0  0  0
 15  2  1  0  0  0  0
 16 10  1  0  0  0  0
 18  6  1  0  0  0  0
 19  7  1  0  0  0  0
 20 19  2  0  0  0  0
 20  8  1  0  0  0  0
 21 15  1  0  0  0  0
 21 12  1  0  0  0  0
 22  3  2  0  0  0  0
 22 23  1  0  0  0  0
 23 18  2  0  0  0  0
 24 27  1  1  0  0  0
 24 31  1  0  0  0  0
 25 28  1  0  0  0  0
 25 30  1  0  0  0  0
 28 24  1  0  0  0  0
 29 31  1  0  0  0  0
 29 26  1  1  0  0  0
 30 29  1  0  0  0  0
 30  5  1  1  0  0  0
M  END
>  <MODEL>
2

>  <REMARK>
 VINA RESULT:      -9.3      1.584      2.296
  Name = 
  1 active torsions:
  status: ('A' for Active; 'I' for Inactive)
    1  A    between atoms: C_9  and  C_22
                            x       y       z     vdW  Elec       q    Type
                         _______ _______ _______ _____ _____    ______ ____

>  <TORSDO>
F 1

$$$$
=
 OpenBabel10262419363D

 31 35  0  0  1  0  0  0  0  0999 V2000
  182.2040  178.8700  143.2320 C   0  0  0  0  0  0  0  0  0  0  0  0
  185.8050  178.8360  142.1450 N   0  0  0  0  0  0  0  0  0  0  0  0
  186.6000  178.2460  143.1980 C   0  0  0  0  0  0  0  0  0  0  0  0
  184.8900  177.1390  137.2700 O   0  0  0  0  0  0  0  0  0  0  0  0
  186.0580  177.6140  137.3170 C   0  0  0  0  0  0  0  0  0  0  0  0
  186.9460  177.5800  145.5100 C   0  0  0  0  0  0  0  0  0  0  0  0
  184.3660  178.7590  142.1380 C   0  0  0  0  0  0  0  0  0  0  0  0
  181.5740  178.5380  142.0280 C   0  0  0  0  0  3  0  0  0  0  0  0
  186.1470  178.1680  144.5240 C   0  0  0  0  0  3  0  0  0  0  0  0
  185.7870  178.4920  139.6990 C   0  0  0  0  0  0  0  0  0  0  0  0
  181.4630  179.0800  144.3470 F   0  0  0  0  0  0  0  0  0  0  0  0
  188.3070  177.7850  141.4580 C   0  0  0  0  0  2  0  0  0  0  0  0
  186.4580  177.5030  146.9110 C   0  0  0  0  0  1  0  0  0  0  0  0
  184.5140  178.2130  139.7490 N   0  0  0  0  0  0  0  0  0  0  0  0
  186.4400  179.2050  140.8610 C   0  0  2  0  0  3  0  0  0  0  0  0
  186.5360  178.2720  138.4950 N   0  0  0  0  0  2  0  0  0  0  0  0
  183.5960  178.9770  143.2880 C   0  0  0  0  0  3  0  0  0  0  0  0
  188.2010  177.0620  145.1760 C   0  0  0  0  0  3  0  0  0  0  0  0
  183.7270  178.4410  140.9260 C   0  0  0  0  0  0  0  0  0  0  0  0
  182.3350  178.3220  140.8760 C   0  0  0  0  0  3  0  0  0  0  0  0
  187.9050  179.0610  140.8710 N   0  0  0  0  0  2  0  0  0  0  0  0
  187.8630  177.7330  142.8780 C   0  0  0  0  0  0  0  0  0  0  0  0
  188.6590  177.1340  143.8580 C   0  0  0  0  0  3  0  0  0  0  0  0
  188.8670  175.2350  136.4400 C   0  0  1  0  0  3  0  0  0  0  0  0
  186.7760  176.1600  135.3970 C   0  0  0  0  0  2  0  0  0  0  0  0
  188.7080  179.0030  137.2180 C   0  0  0  0  0  1  0  0  0  0  0  0
  189.4390  174.0690  137.2180 C   0  0  0  0  0  1  0  0  0  0  0  0
  187.3850  174.9860  136.1680 C   0  0  0  0  0  2  0  0  0  0  0  0
  188.4670  177.7020  136.4720 C   0  0  2  0  0  3  0  0  0  0  0  0
  186.9790  177.4860  136.1360 C   0  0  2  0  0  3  0  0  0  0  0  0
  189.0510  176.5190  137.2430 C   0  0  0  0  0  2  0  0  0  0  0  0
  1 17  1  0  0  0  0
  1 11  1  0  0  0  0
  2  3  1  0  0  0  0
  3  9  1  0  0  0  0
  4  5  2  0  0  0  0
  5 16  1  0  0  0  0
  6 13  1  0  0  0  0
  7  2  1  0  0  0  0
  7 17  2  0  0  0  0
  8  1  2  0  0  0  0
  9  6  2  0  0  0  0
 10 14  2  0  0  0  0
 12 22  1  0  0  0  0
 14 19  1  0  0  0  0
 15 10  1  6  0  0  0
 15 21  1  0  0  0  0
 15  2  1  0  0  0  0
 16 10  1  0  0  0  0
 18  6  1  0  0  0  0
 19  7  1  0  0  0  0
 20 19  2  0  0  0  0
 20  8  1  0  0  0  0
 21 12  1  0  0  0  0
 22  3  2  0  0  0  0
 22 23  1  0  0  0  0
 23 18  2  0  0  0  0
 24 27  1  1  0  0  0
 24 31  1  0  0  0  0
 25 30  1  0  0  0  0
 25 28  1  0  0  0  0
 28 24  1  0  0  0  0
 29 26  1  1  0  0  0
 29 31  1  0  0  0  0
 30 29  1  0  0  0  0
 30  5  1  1  0  0  0
M  END
>  <MODEL>
3

>  <REMARK>
 VINA RESULT:      -9.2      1.165      1.434
  Name = 
  1 active torsions:
  status: ('A' for Active; 'I' for Inactive)
    1  A    between atoms: C_9  and  C_22
                            x       y       z     vdW  Elec       q    Type
                         _______ _______ _______ _____ _____    ______ ____

>  <TORSDO>
F 1

$$$$
=
 OpenBabel10262419363D

 31 35  0  0  1  0  0  0  0  0999 V2000
  185.1040  178.7770  145.9640 C   0  0  0  0  0  0  0  0  0  0  0  0
  187.0770  178.6170  142.7650 N   0  0  0  0  0  0  0  0  0  0  0  0
  188.2840  177.8580  143.0040 C   0  0  0  0  0  0  0  0  0  0  0  0
  182.9940  177.5480  139.6560 O   0  0  0  0  0  0  0  0  0  0  0  0
  183.9570  177.9320  138.9370 C   0  0  0  0  0  0  0  0  0  0  0  0
  189.9680  176.9140  144.4800 C   0  0  0  0  0  0  0  0  0  0  0  0
  185.9890  178.6410  143.7090 C   0  0  0  0  0  0  0  0  0  0  0  0
  183.8050  178.6280  145.4660 C   0  0  0  0  0  3  0  0  0  0  0  0
  188.8020  177.6630  144.2930 C   0  0  0  0  0  3  0  0  0  0  0  0
  185.4220  178.5530  140.9330 C   0  0  0  0  0  0  0  0  0  0  0  0
  185.3060  178.9110  147.2970 F   0  0  0  0  0  0  0  0  0  0  0  0
  188.3630  177.4790  140.5540 C   0  0  0  0  0  2  0  0  0  0  0  0
  190.5090  176.7130  145.8490 C   0  0  0  0  0  1  0  0  0  0  0  0
  184.4690  178.3580  141.8020 N   0  0  0  0  0  0  0  0  0  0  0  0
  186.7580  179.0840  141.3980 C   0  0  2  0  0  3  0  0  0  0  0  0
  185.1660  178.4190  139.5270 N   0  0  0  0  0  2  0  0  0  0  0  0
  186.1930  178.7810  145.0890 C   0  0  0  0  0  3  0  0  0  0  0  0
  190.6210  176.3510  143.3790 C   0  0  0  0  0  3  0  0  0  0  0  0
  184.6800  178.5070  143.2130 C   0  0  0  0  0  0  0  0  0  0  0  0
  183.5930  178.4900  144.0920 C   0  0  0  0  0  3  0  0  0  0  0  0
  187.8400  178.8390  140.4300 N   0  0  0  0  0  2  0  0  0  0  0  0
  188.9530  177.2980  141.9090 C   0  0  0  0  0  0  0  0  0  0  0  0
  190.1110  176.5390  142.0920 C   0  0  0  0  0  3  0  0  0  0  0  0
  182.6600  175.3420  136.5020 C   0  0  1  0  0  3  0  0  0  0  0  0
  182.4000  177.7970  136.9670 C   0  0  0  0  0  2  0  0  0  0  0  0
  186.1480  176.7930  137.2450 C   0  0  0  0  0  1  0  0  0  0  0  0
  182.0630  173.9740  136.7570 C   0  0  0  0  0  1  0  0  0  0  0  0
  181.8090  176.4040  137.1940 C   0  0  0  0  0  2  0  0  0  0  0  0
  184.6990  176.7580  136.7930 C   0  0  2  0  0  3  0  0  0  0  0  0
  183.8560  177.8750  137.4370 C   0  0  2  0  0  3  0  0  0  0  0  0
  184.0900  175.3780  137.0340 C   0  0  0  0  0  2  0  0  0  0  0  0
  1 11  1  0  0  0  0
  2  3  1  0  0  0  0
  2  7  1  0  0  0  0
  3  9  1  0  0  0  0
  5 16  1  0  0  0  0
  5  4  2  0  0  0  0
  6 13  1  0  0  0  0
  7 17  1  0  0  0  0
  8  1  1  0  0  0  0
  9  6  2  0  0  0  0
 10 15  1  0  0  0  0
 10 14  2  0  0  0  0
 12 22  1  0  0  0  0
 14 19  1  0  0  0  0
 15 21  1  6  0  0  0
 15  2  1  0  0  0  0
 16 10  1  0  0  0  0
 17  1  2  0  0  0  0
 18  6  1  0  0  0  0
 19  7  2  0  0  0  0
 19 20  1  0  0  0  0
 20  8  2  0  0  0  0
 21 12  1  0  0  0  0
 22 23  1  0  0  0  0
 22  3  2  0  0  0  0
 23 18  2  0  0  0  0
 24 27  1  1  0  0  0
 24 31  1  0  0  0  0
 24 28  1  0  0  0  0
 25 28  1  0  0  0  0
 25 30  1  0  0  0  0
 29 31  1  0  0  0  0
 29 26  1  1  0  0  0
 29 30  1  0  0  0  0
 30  5  1  1  0  0  0
M  END
>  <MODEL>
4

>  <REMARK>
 VINA RESULT:      -9.0      1.677      2.308
  Name = 
  1 active torsions:
  status: ('A' for Active; 'I' for Inactive)
    1  A    between atoms: C_9  and  C_22
                            x       y       z     vdW  Elec       q    Type
                         _______ _______ _______ _____ _____    ______ ____

>  <TORSDO>
F 1

$$$$
=
 OpenBabel10262419363D

 31 35  0  0  1  0  0  0  0  0999 V2000
  189.4050  177.5510  141.7440 C   0  0  0  0  0  0  0  0  0  0  0  0
  185.8170  177.8140  142.8430 N   0  0  0  0  0  0  0  0  0  0  0  0
  185.7870  178.1410  144.2510 C   0  0  0  0  0  0  0  0  0  0  0  0
  184.1800  180.5970  138.7120 O   0  0  0  0  0  0  0  0  0  0  0  0
  183.1710  180.1180  139.2990 C   0  0  0  0  0  0  0  0  0  0  0  0
  186.8170  178.2530  146.4500 C   0  0  0  0  0  0  0  0  0  0  0  0
  187.0250  177.8990  142.0630 C   0  0  0  0  0  0  0  0  0  0  0  0
  189.3270  178.1560  140.4840 C   0  0  0  0  0  3  0  0  0  0  0  0
  186.8850  177.9130  145.0950 C   0  0  0  0  0  3  0  0  0  0  0  0
  184.5650  178.7150  140.9130 C   0  0  0  0  0  0  0  0  0  0  0  0
  190.5950  177.0930  142.2020 F   0  0  0  0  0  0  0  0  0  0  0  0
  183.4860  178.9820  143.8650 C   0  0  0  0  0  2  0  0  0  0  0  0
  187.9840  178.0070  147.3360 C   0  0  0  0  0  1  0  0  0  0  0  0
  185.6900  178.9820  140.3100 N   0  0  0  0  0  0  0  0  0  0  0  0
  184.5540  177.7480  142.0750 C   0  0  2  0  0  3  0  0  0  0  0  0
  183.3220  179.2020  140.3890 N   0  0  0  0  0  2  0  0  0  0  0  0
  188.2580  177.4260  142.5320 C   0  0  0  0  0  3  0  0  0  0  0  0
  185.6530  178.8270  146.9690 C   0  0  0  0  0  3  0  0  0  0  0  0
  186.9500  178.4920  140.7900 C   0  0  0  0  0  0  0  0  0  0  0  0
  188.1010  178.6280  140.0090 C   0  0  0  0  0  3  0  0  0  0  0  0
  183.3520  177.8780  142.9160 N   0  0  0  0  0  2  0  0  0  0  0  0
  184.6230  178.7070  144.7850 C   0  0  0  0  0  0  0  0  0  0  0  0
  184.5560  179.0590  146.1350 C   0  0  0  0  0  3  0  0  0  0  0  0
  179.7330  178.6690  139.9310 C   0  0  1  0  0  3  0  0  0  0  0  0
  180.9040  180.8880  140.0650 C   0  0  0  0  0  2  0  0  0  0  0  0
  181.9300  179.0530  136.7920 C   0  0  0  0  0  1  0  0  0  0  0  0
  179.3180  177.4500  140.7270 C   0  0  0  0  0  1  0  0  0  0  0  0
  180.4570  179.6520  140.8480 C   0  0  0  0  0  2  0  0  0  0  0  0
  181.0820  179.4640  137.9830 C   0  0  2  0  0  3  0  0  0  0  0  0
  181.7850  180.5100  138.8690 C   0  0  2  0  0  3  0  0  0  0  0  0
  180.6470  178.2400  138.7870 C   0  0  0  0  0  2  0  0  0  0  0  0
  1 11  1  0  0  0  0
  1 17  1  0  0  0  0
  2  3  1  0  0  0  0
  3 22  2  0  0  0  0
  3  9  1  0  0  0  0
  4  5  2  0  0  0  0
  5 16  1  0  0  0  0
  6 18  1  0  0  0  0
  6 13  1  0  0  0  0
  7 17  2  0  0  0  0
  7  2  1  0  0  0  0
  8  1  2  0  0  0  0
  9  6  2  0  0  0  0
 12 22  1  0  0  0  0
 14 19  1  0  0  0  0
 14 10  2  0  0  0  0
 15 10  1  6  0  0  0
 15  2  1  0  0  0  0
 15 21  1  0  0  0  0
 16 10  1  0  0  0  0
 19  7  1  0  0  0  0
 20  8  1  0  0  0  0
 20 19  2  0  0  0  0
 21 12  1  0  0  0  0
 22 23  1  0  0  0  0
 23 18  2  0  0  0  0
 24 27  1  1  0  0  0
 24 28  1  0  0  0  0
 25 28  1  0  0  0  0
 29 26  1  6  0  0  0
 29 31  1  0  0  0  0
 29 30  1  0  0  0  0
 30  5  1  1  0  0  0
 30 25  1  0  0  0  0
 31 24  1  0  0  0  0
M  END
>  <MODEL>
5

>  <REMARK>
 VINA RESULT:      -8.9      3.188      5.535
  Name = 
  1 active torsions:
  status: ('A' for Active; 'I' for Inactive)
    1  A    between atoms: C_9  and  C_22
                            x       y       z     vdW  Elec       q    Type
                         _______ _______ _______ _____ _____    ______ ____

>  <TORSDO>
F 1

$$$$
=
 OpenBabel10262419363D

 31 35  0  0  1  0  0  0  0  0999 V2000
  185.1630  178.6070  138.4780 C   0  0  0  0  0  0  0  0  0  0  0  0
  188.3460  177.8830  140.3490 N   0  0  0  0  0  0  0  0  0  0  0  0
  188.0260  177.6810  141.7440 C   0  0  0  0  0  0  0  0  0  0  0  0
  190.2990  174.5250  136.8280 O   0  0  0  0  0  0  0  0  0  0  0  0
  191.2310  174.8890  137.5960 C   0  0  0  0  0  0  0  0  0  0  0  0
  186.5600  177.9270  143.6670 C   0  0  0  0  0  0  0  0  0  0  0  0
  187.3290  177.9190  139.3280 C   0  0  0  0  0  0  0  0  0  0  0  0
  185.3950  177.8890  137.3000 C   0  0  0  0  0  3  0  0  0  0  0  0
  186.8330  178.1520  142.3140 C   0  0  0  0  0  3  0  0  0  0  0  0
  189.7960  176.6300  138.7900 C   0  0  0  0  0  0  0  0  0  0  0  0
  184.0010  179.2850  138.6400 F   0  0  0  0  0  0  0  0  0  0  0  0
  190.1780  176.4590  141.9160 C   0  0  0  0  0  2  0  0  0  0  0  0
  185.2950  178.4290  144.2610 C   0  0  0  0  0  1  0  0  0  0  0  0
  188.7920  176.4900  137.9700 N   0  0  0  0  0  0  0  0  0  0  0  0
  189.7320  177.6820  139.8740 C   0  0  2  0  0  3  0  0  0  0  0  0
  191.0180  175.9100  138.5770 N   0  0  0  0  0  2  0  0  0  0  0  0
  186.1260  178.6200  139.4910 C   0  0  0  0  0  3  0  0  0  0  0  0
  187.4750  177.2250  144.4580 C   0  0  0  0  0  3  0  0  0  0  0  0
  187.5630  177.2120  138.1350 C   0  0  0  0  0  0  0  0  0  0  0  0
  186.5930  177.1900  137.1300 C   0  0  0  0  0  3  0  0  0  0  0  0
  190.6930  177.4400  140.9630 N   0  0  0  0  0  2  0  0  0  0  0  0
  188.9390  176.9890  142.5490 C   0  0  0  0  0  0  0  0  0  0  0  0
  188.6640  176.7510  143.8980 C   0  0  0  0  0  3  0  0  0  0  0  0
  194.3520  175.6600  135.6000 C   0  0  1  0  0  3  0  0  0  0  0  0
  193.6970  175.1910  137.9790 C   0  0  0  0  0  2  0  0  0  0  0  0
  191.8350  172.7460  135.5950 C   0  0  0  0  0  1  0  0  0  0  0  0
  194.6220  176.7600  134.5940 C   0  0  0  0  0  1  0  0  0  0  0  0
  193.9920  176.2820  136.9470 C   0  0  0  0  0  2  0  0  0  0  0  0
  192.9180  173.6770  136.1100 C   0  0  2  0  0  3  0  0  0  0  0  0
  192.5880  174.2480  137.5020 C   0  0  2  0  0  3  0  0  0  0  0  0
  193.2080  174.7840  135.0970 C   0  0  0  0  0  2  0  0  0  0  0  0
  1 11  1  0  0  0  0
  1 17  1  0  0  0  0
  2  3  1  0  0  0  0
  3  9  2  0  0  0  0
  3 22  1  0  0  0  0
  4  5  2  0  0  0  0
  5 16  1  0  0  0  0
  6 13  1  0  0  0  0
  6 18  2  0  0  0  0
  7 17  2  0  0  0  0
  7  2  1  0  0  0  0
  8  1  2  0  0  0  0
  9  6  1  0  0  0  0
 12 22  1  0  0  0  0
 14 19  1  0  0  0  0
 14 10  2  0  0  0  0
 15 10  1  6  0  0  0
 15  2  1  0  0  0  0
 15 21  1  0  0  0  0
 16 10  1  0  0  0  0
 19  7  1  0  0  0  0
 20  8  1  0  0  0  0
 20 19  2  0  0  0  0
 21 12  1  0  0  0  0
 22 23  2  0  0  0  0
 23 18  1  0  0  0  0
 24 27  1  6  0  0  0
 24 28  1  0  0  0  0
 28 25  1  0  0  0  0
 29 26  1  6  0  0  0
 29 30  1  0  0  0  0
 30  5  1  6  0  0  0
 30 25  1  0  0  0  0
 31 24  1  0  0  0  0
 31 29  1  0  0  0  0
M  END
>  <MODEL>
6

>  <REMARK>
 VINA RESULT:      -8.8      3.821      5.525
  Name = 
  1 active torsions:
  status: ('A' for Active; 'I' for Inactive)
    1  A    between atoms: C_9  and  C_22
                            x       y       z     vdW  Elec       q    Type
                         _______ _______ _______ _____ _____    ______ ____

>  <TORSDO>
F 1

$$$$
=
 OpenBabel10262419363D

 31 35  0  0  1  0  0  0  0  0999 V2000
  186.3210  178.3170  146.8980 C   0  0  0  0  0  0  0  0  0  0  0  0
  187.5650  178.4440  143.3500 N   0  0  0  0  0  0  0  0  0  0  0  0
  188.7620  177.6390  143.2510 C   0  0  0  0  0  0  0  0  0  0  0  0
  182.8750  177.7830  141.1020 O   0  0  0  0  0  0  0  0  0  0  0  0
  183.6800  178.2180  140.2330 C   0  0  0  0  0  0  0  0  0  0  0  0
  190.6790  176.5140  144.2350 C   0  0  0  0  0  0  0  0  0  0  0  0
  186.7030  178.3940  144.5040 C   0  0  0  0  0  0  0  0  0  0  0  0
  184.9410  178.2470  146.6790 C   0  0  0  0  0  3  0  0  0  0  0  0
  189.5320  177.3030  144.3750 C   0  0  0  0  0  3  0  0  0  0  0  0
  185.5580  178.6010  141.9180 C   0  0  0  0  0  0  0  0  0  0  0  0
  186.8060  178.3110  148.1640 F   0  0  0  0  0  0  0  0  0  0  0  0
  188.3050  177.5110  140.8170 C   0  0  0  0  0  2  0  0  0  0  0  0
  191.4880  176.1640  145.4300 C   0  0  0  0  0  1  0  0  0  0  0  0
  184.8040  178.3390  142.9490 N   0  0  0  0  0  0  0  0  0  0  0  0
  186.9840  179.0540  142.1340 C   0  0  2  0  0  3  0  0  0  0  0  0
  185.0070  178.6170  140.5940 N   0  0  0  0  0  2  0  0  0  0  0  0
  187.2000  178.3880  145.8140 C   0  0  0  0  0  3  0  0  0  0  0  0
  191.0600  176.0530  142.9710 C   0  0  0  0  0  3  0  0  0  0  0  0
  185.3140  178.3380  144.2890 C   0  0  0  0  0  0  0  0  0  0  0  0
  184.4380  178.2550  145.3750 C   0  0  0  0  0  3  0  0  0  0  0  0
  187.8260  178.8860  140.9380 N   0  0  0  0  0  2  0  0  0  0  0  0
  189.1600  177.1800  141.9900 C   0  0  0  0  0  0  0  0  0  0  0  0
  190.2980  176.3820  141.8470 C   0  0  0  0  0  3  0  0  0  0  0  0
  180.3300  178.5060  138.4970 C   0  0  1  0  0  3  0  0  0  0  0  0
  182.5680  179.6480  138.4900 C   0  0  0  0  0  2  0  0  0  0  0  0
  183.0580  175.7900  138.5960 C   0  0  0  0  0  1  0  0  0  0  0  0
  178.9310  178.5490  139.0740 C   0  0  0  0  0  1  0  0  0  0  0  0
  181.1420  179.6770  139.0440 C   0  0  0  0  0  2  0  0  0  0  0  0
  182.4080  177.1310  138.3020 C   0  0  2  0  0  3  0  0  0  0  0  0
  183.2620  178.3160  138.7910 C   0  0  2  0  0  3  0  0  0  0  0  0
  180.9910  177.1820  138.8700 C   0  0  0  0  0  2  0  0  0  0  0  0
  1 11  1  0  0  0  0
  2  7  1  0  0  0  0
  3  2  1  0  0  0  0
  3  9  1  0  0  0  0
  5 16  1  0  0  0  0
  5  4  2  0  0  0  0
  6  9  2  0  0  0  0
  6 13  1  0  0  0  0
  7 17  1  0  0  0  0
  8  1  1  0  0  0  0
 10 15  1  0  0  0  0
 10 14  2  0  0  0  0
 12 21  1  0  0  0  0
 12 22  1  0  0  0  0
 14 19  1  0  0  0  0
 15 21  1  6  0  0  0
 15  2  1  0  0  0  0
 16 10  1  0  0  0  0
 17  1  2  0  0  0  0
 18  6  1  0  0  0  0
 19  7  2  0  0  0  0
 19 20  1  0  0  0  0
 20  8  2  0  0  0  0
 22  3  2  0  0  0  0
 23 22  1  0  0  0  0
 23 18  2  0  0  0  0
 24 31  1  0  0  0  0
 24 28  1  0  0  0  0
 24 27  1  1  0  0  0
 25 30  1  0  0  0  0
 25 28  1  0  0  0  0
 29 26  1  1  0  0  0
 29 30  1  0  0  0  0
 29 31  1  0  0  0  0
 30  5  1  1  0  0  0
M  END
>  <MODEL>
7

>  <REMARK>
 VINA RESULT:      -8.8      2.742      4.114
  Name = 
  1 active torsions:
  status: ('A' for Active; 'I' for Inactive)
    1  A    between atoms: C_9  and  C_22
                            x       y       z     vdW  Elec       q    Type
                         _______ _______ _______ _____ _____    ______ ____

>  <TORSDO>
F 1

$$$$
=
 OpenBabel10262419363D

 31 35  0  0  1  0  0  0  0  0999 V2000
  184.3190  178.6870  144.5170 C   0  0  0  0  0  0  0  0  0  0  0  0
  188.0030  178.5950  143.7630 N   0  0  0  0  0  0  0  0  0  0  0  0
  188.6790  177.9080  144.8410 C   0  0  0  0  0  0  0  0  0  0  0  0
  187.4980  177.2580  138.7190 O   0  0  0  0  0  0  0  0  0  0  0  0
  188.6700  177.6860  138.9060 C   0  0  0  0  0  0  0  0  0  0  0  0
  188.7860  177.0790  147.1230 C   0  0  0  0  0  0  0  0  0  0  0  0
  186.5700  178.5700  143.6200 C   0  0  0  0  0  0  0  0  0  0  0  0
  183.7950  178.4590  143.2400 C   0  0  0  0  0  3  0  0  0  0  0  0
  188.1020  177.7590  146.1110 C   0  0  0  0  0  3  0  0  0  0  0  0
  188.2040  178.4140  141.3080 C   0  0  0  0  0  0  0  0  0  0  0  0
  183.4840  178.8500  145.5710 F   0  0  0  0  0  0  0  0  0  0  0  0
  190.5260  177.5020  143.2370 C   0  0  0  0  0  2  0  0  0  0  0  0
  188.1670  176.9270  148.4650 C   0  0  0  0  0  1  0  0  0  0  0  0
  186.9240  178.1780  141.2220 N   0  0  0  0  0  0  0  0  0  0  0  0
  188.7660  179.0250  142.5710 C   0  0  2  0  0  3  0  0  0  0  0  0
  189.0560  178.2470  140.1650 N   0  0  0  0  0  2  0  0  0  0  0  0
  185.7020  178.7400  144.7070 C   0  0  0  0  0  3  0  0  0  0  0  0
  190.0510  176.5390  146.8710 C   0  0  0  0  0  3  0  0  0  0  0  0
  186.0380  178.3570  142.3350 C   0  0  0  0  0  0  0  0  0  0  0  0
  184.6540  178.2910  142.1500 C   0  0  0  0  0  3  0  0  0  0  0  0
  190.2190  178.8280  142.7050 N   0  0  0  0  0  2  0  0  0  0  0  0
  189.9500  177.3720  144.6040 C   0  0  0  0  0  0  0  0  0  0  0  0
  190.6320  176.6810  145.6080 C   0  0  0  0  0  3  0  0  0  0  0  0
  189.9970  174.8510  136.7800 C   0  0  1  0  0  3  0  0  0  0  0  0
  189.0690  177.1660  136.4790 C   0  0  0  0  0  2  0  0  0  0  0  0
  191.5560  177.1230  139.4700 C   0  0  0  0  0  1  0  0  0  0  0  0
  189.6470  173.3780  136.7850 C   0  0  0  0  0  1  0  0  0  0  0  0
  188.7460  175.6710  136.4740 C   0  0  0  0  0  2  0  0  0  0  0  0
  190.9150  176.7290  138.1510 C   0  0  2  0  0  3  0  0  0  0  0  0
  189.6940  177.6030  137.8070 C   0  0  2  0  0  3  0  0  0  0  0  0
  190.5670  175.2420  138.1400 C   0  0  0  0  0  2  0  0  0  0  0  0
  1 17  1  0  0  0  0
  1 11  1  0  0  0  0
  2  3  1  0  0  0  0
  3  9  1  0  0  0  0
  4  5  2  0  0  0  0
  5 16  1  0  0  0  0
  6 13  1  0  0  0  0
  7  2  1  0  0  0  0
  7 17  2  0  0  0  0
  8  1  2  0  0  0  0
  9  6  2  0  0  0  0
 12 22  1  0  0  0  0
 14 10  2  0  0  0  0
 14 19  1  0  0  0  0
 15 10  1  6  0  0  0
 15 21  1  0  0  0  0
 15  2  1  0  0  0  0
 16 10  1  0  0  0  0
 18  6  1  0  0  0  0
 19  7  1  0  0  0  0
 20 19  2  0  0  0  0
 20  8  1  0  0  0  0
 21 12  1  0  0  0  0
 22  3  2  0  0  0  0
 22 23  1  0  0  0  0
 23 18  2  0  0  0  0
 24 27  1  1  0  0  0
 24 31  1  0  0  0  0
 25 30  1  0  0  0  0
 28 25  1  0  0  0  0
 28 24  1  0  0  0  0
 29 26  1  1  0  0  0
 30 29  1  0  0  0  0
 30  5  1  1  0  0  0
 31 29  1  0  0  0  0
M  END
>  <MODEL>
8

>  <REMARK>
 VINA RESULT:      -8.8      1.944      2.751
  Name = 
  1 active torsions:
  status: ('A' for Active; 'I' for Inactive)
    1  A    between atoms: C_9  and  C_22
                            x       y       z     vdW  Elec       q    Type
                         _______ _______ _______ _____ _____    ______ ____

>  <TORSDO>
F 1

$$$$
=
 OpenBabel10262419363D

 31 35  0  0  1  0  0  0  0  0999 V2000
  190.9170  176.7810  142.7550 C   0  0  0  0  0  0  0  0  0  0  0  0
  189.7660  177.8390  139.3330 N   0  0  0  0  0  0  0  0  0  0  0  0
  190.4910  177.0740  138.3440 C   0  0  0  0  0  0  0  0  0  0  0  0
  184.6470  177.8780  140.4640 O   0  0  0  0  0  0  0  0  0  0  0  0
  184.8260  178.5190  139.3930 C   0  0  0  0  0  0  0  0  0  0  0  0
  192.3700  175.6980  137.6510 C   0  0  0  0  0  0  0  0  0  0  0  0
  189.7830  177.4930  140.7320 C   0  0  0  0  0  0  0  0  0  0  0  0
  189.7000  176.7920  143.4440 C   0  0  0  0  0  3  0  0  0  0  0  0
  191.7060  176.4360  138.6350 C   0  0  0  0  0  3  0  0  0  0  0  0
  187.3710  178.4060  139.5520 C   0  0  0  0  0  0  0  0  0  0  0  0
  192.0560  176.4270  143.3980 F   0  0  0  0  0  0  0  0  0  0  0  0
  188.6440  177.6120  136.7780 C   0  0  0  0  0  2  0  0  0  0  0  0
  193.6570  175.0260  137.9690 C   0  0  0  0  0  1  0  0  0  0  0  0
  187.3590  177.8880  140.7490 N   0  0  0  0  0  0  0  0  0  0  0  0
  188.6910  178.7630  138.9080 C   0  0  2  0  0  3  0  0  0  0  0  0
  186.1470  178.7860  138.9090 N   0  0  0  0  0  2  0  0  0  0  0  0
  190.9580  177.1280  141.4020 C   0  0  0  0  0  3  0  0  0  0  0  0
  191.8210  175.5880  136.3700 C   0  0  0  0  0  3  0  0  0  0  0  0
  188.5640  177.5180  141.4340 C   0  0  0  0  0  0  0  0  0  0  0  0
  188.5240  177.1580  142.7840 C   0  0  0  0  0  3  0  0  0  0  0  0
  188.5940  178.9110  137.4460 N   0  0  0  0  0  2  0  0  0  0  0  0
  189.9570  176.9650  137.0550 C   0  0  0  0  0  0  0  0  0  0  0  0
  190.6100  176.2190  136.0720 C   0  0  0  0  0  3  0  0  0  0  0  0
  181.1230  177.7430  139.4510 C   0  0  1  0  0  3  0  0  0  0  0  0
  182.6350  179.7490  139.4690 C   0  0  0  0  0  2  0  0  0  0  0  0
  183.9340  177.1440  136.8880 C   0  0  0  0  0  1  0  0  0  0  0  0
  180.3390  176.7890  140.3270 C   0  0  0  0  0  1  0  0  0  0  0  0
  181.8200  178.7810  140.3280 C   0  0  0  0  0  2  0  0  0  0  0  0
  182.9570  177.9120  137.7610 C   0  0  2  0  0  3  0  0  0  0  0  0
  183.6500  179.0080  138.5930 C   0  0  2  0  0  3  0  0  0  0  0  0
  182.1510  176.9580  138.6400 C   0  0  0  0  0  2  0  0  0  0  0  0
  1 11  1  0  0  0  0
  1  8  1  0  0  0  0
  2  7  1  0  0  0  0
  3  9  1  0  0  0  0
  3  2  1  0  0  0  0
  5  4  2  0  0  0  0
  6 13  1  0  0  0  0
  6  9  2  0  0  0  0
  7 17  1  0  0  0  0
  7 19  2  0  0  0  0
 10 14  2  0  0  0  0
 12 22  1  0  0  0  0
 12 21  1  0  0  0  0
 14 19  1  0  0  0  0
 15 21  1  6  0  0  0
 15  2  1  0  0  0  0
 15 10  1  0  0  0  0
 16  5  1  0  0  0  0
 16 10  1  0  0  0  0
 17  1  2  0  0  0  0
 18  6  1  0  0  0  0
 19 20  1  0  0  0  0
 20  8  2  0  0  0  0
 22  3  2  0  0  0  0
 23 18  2  0  0  0  0
 23 22  1  0  0  0  0
 24 27  1  1  0  0  0
 24 28  1  0  0  0  0
 25 28  1  0  0  0  0
 29 26  1  1  0  0  0
 29 30  1  0  0  0  0
 29 31  1  0  0  0  0
 30  5  1  1  0  0  0
 30 25  1  0  0  0  0
 31 24  1  0  0  0  0
M  END
>  <MODEL>
9

>  <REMARK>
 VINA RESULT:      -8.4      3.151      6.003
  Name = 
  1 active torsions:
  status: ('A' for Active; 'I' for Inactive)
    1  A    between atoms: C_9  and  C_22
                            x       y       z     vdW  Elec       q    Type
                         _______ _______ _______ _____ _____    ______ ____

>  <TORSDO>
F 1

$$$$
