=
 OpenBabel10262421273D

 32 37  0  0  1  0  0  0  0  0999 V2000
  183.6860  179.3020  144.8520 C   0  0  0  0  0  2  0  0  0  0  0  0
  188.3170  177.6120  143.4290 C   0  0  0  0  0  0  0  0  0  0  0  0
  190.5030  176.8340  147.6980 C   0  0  0  0  0  3  0  0  0  0  0  0
  191.6860  176.5290  147.0240 C   0  0  0  0  0  3  0  0  0  0  0  0
  189.4970  177.3700  141.2980 C   0  0  0  0  0  0  0  0  0  0  0  0
  188.3190  177.7270  140.6110 C   0  0  0  0  0  0  0  0  0  0  0  0
  185.9620  178.2620  143.4070 C   0  0  0  0  0  0  0  0  0  0  0  0
  187.0900  177.8780  145.4800 N   0  0  0  0  0  0  0  0  0  0  0  0
  190.6170  177.1480  139.1370 C   0  0  0  0  0  0  0  0  0  0  0  0
  184.7080  178.4680  145.6120 C   0  0  0  0  0  2  0  0  0  0  0  0
  189.3600  177.1830  146.9750 C   0  0  0  0  0  3  0  0  0  0  0  0
  188.2540  177.5780  144.8400 C   0  0  0  0  0  0  0  0  0  0  0  0
  189.3900  177.2300  145.5720 C   0  0  0  0  0  0  0  0  0  0  0  0
  190.6170  176.9680  143.4880 C   0  0  0  0  0  0  0  0  0  0  0  0
  189.4410  177.5030  138.4770 C   0  0  0  0  0  3  0  0  0  0  0  0
  185.9610  178.2300  144.8150 C   0  0  0  0  0  0  0  0  0  0  0  0
  188.2920  177.7920  139.2150 C   0  0  0  0  0  3  0  0  0  0  0  0
  184.7490  178.7060  142.6280 C   0  0  0  0  0  2  0  0  0  0  0  0
  183.4650  178.6920  143.4680 C   0  0  2  0  0  3  0  0  0  0  0  0
  191.7270  176.5720  145.6280 C   0  0  0  0  0  3  0  0  0  0  0  0
  190.5820  176.9220  144.8910 C   0  0  0  0  0  0  0  0  0  0  0  0
  191.7030  176.6870  142.9070 O   0  0  0  0  0  0  0  0  0  0  0  0
  187.1470  177.9630  142.7220 C   0  0  0  0  0  0  0  0  0  0  0  0
  187.1640  178.0180  141.3280 O   0  0  0  0  0  0  0  0  0  0  0  0
  191.8430  176.8390  138.3550 C   0  0  0  0  0  1  0  0  0  0  0  0
  189.4900  177.3120  142.7610 N   0  0  0  0  0  0  0  0  0  0  0  0
  190.6430  177.0830  140.5310 C   0  0  0  0  0  3  0  0  0  0  0  0
  182.3550  179.2380  142.7890 O   0  0  0  0  0  0  0  0  0  0  0  0
  181.1860  178.9710  143.5210 C   0  0  0  0  0  2  0  0  0  0  0  0
  180.0080  179.5280  142.8070 C   0  0  0  0  0  0  0  0  0  0  0  0
  178.9340  178.7070  142.4920 O   0  0  0  0  0  0  0  0  0  0  0  0
  179.9670  180.7530  142.5210 O   0  0  0  0  0  1  0  0  0  0  0  0
  1 10  1  0  0  0  0
  2 12  1  0  0  0  0
  4  3  1  0  0  0  0
  5 26  1  0  0  0  0
  6  5  1  0  0  0  0
  6 24  1  0  0  0  0
  7 16  2  0  0  0  0
  9 27  1  0  0  0  0
 11  3  2  0  0  0  0
 12  8  2  0  0  0  0
 12 13  1  0  0  0  0
 13 11  1  0  0  0  0
 14 21  1  0  0  0  0
 15  9  2  0  0  0  0
 15 17  1  0  0  0  0
 16  8  1  0  0  0  0
 16 10  1  0  0  0  0
 17  6  2  0  0  0  0
 18  7  1  0  0  0  0
 18 19  1  0  0  0  0
 19 28  1  6  0  0  0
 19  1  1  0  0  0  0
 20  4  2  0  0  0  0
 21 13  2  0  0  0  0
 21 20  1  0  0  0  0
 22 14  2  0  0  0  0
 23  7  1  0  0  0  0
 23  2  2  0  0  0  0
 24 23  1  0  0  0  0
 25  9  1  0  0  0  0
 26  2  1  0  0  0  0
 26 14  1  0  0  0  0
 27  5  2  0  0  0  0
 28 29  1  0  0  0  0
 30 29  1  0  0  0  0
 31 30  2  0  0  0  0
 32 30  1  0  0  0  0
M  END
>  <MODEL>
1

>  <REMARK>
 VINA RESULT:     -11.5      0.000      0.000
  Name = 
  3 active torsions:
  status: ('A' for Active; 'I' for Inactive)
    1  A    between atoms: C_1  and  C_10
    2  A    between atoms: C_10  and  O_19
    3  A    between atoms: O_19  and  C_24
                            x       y       z     vdW  Elec       q    Type
                         _______ _______ _______ _____ _____    ______ ____

>  <TORSDO>
F 3

$$$$
=
 OpenBabel10262421273D

 32 37  0  0  1  0  0  0  0  0999 V2000
  190.7900  176.9920  140.0980 C   0  0  0  0  0  2  0  0  0  0  0  0
  187.1680  177.9980  143.5910 C   0  0  0  0  0  0  0  0  0  0  0  0
  189.5880  177.5130  147.7760 C   0  0  0  0  0  3  0  0  0  0  0  0
  188.3970  177.7070  148.4750 C   0  0  0  0  0  3  0  0  0  0  0  0
  184.7560  178.4090  143.5210 C   0  0  0  0  0  0  0  0  0  0  0  0
  184.8040  178.4240  142.1130 C   0  0  0  0  0  0  0  0  0  0  0  0
  188.3980  177.8300  141.4870 C   0  0  0  0  0  0  0  0  0  0  0  0
  189.5370  177.5880  143.5760 N   0  0  0  0  0  0  0  0  0  0  0  0
  182.3500  178.8180  143.3820 C   0  0  0  0  0  0  0  0  0  0  0  0
  190.9140  177.4540  141.5440 C   0  0  0  0  0  2  0  0  0  0  0  0
  189.5880  177.5340  146.3800 C   0  0  0  0  0  3  0  0  0  0  0  0
  188.3840  177.7740  144.2750 C   0  0  0  0  0  0  0  0  0  0  0  0
  188.3960  177.7500  145.6700 C   0  0  0  0  0  0  0  0  0  0  0  0
  185.9980  178.1630  145.6670 C   0  0  0  0  0  0  0  0  0  0  0  0
  182.4200  178.8290  141.9890 C   0  0  0  0  0  3  0  0  0  0  0  0
  189.5780  177.5930  142.2200 C   0  0  0  0  0  0  0  0  0  0  0  0
  183.6480  178.6320  141.3550 C   0  0  0  0  0  3  0  0  0  0  0  0
  188.3840  177.7850  139.9790 C   0  0  0  0  0  2  0  0  0  0  0  0
  189.7880  177.8860  139.3690 C   0  0  2  0  0  3  0  0  0  0  0  0
  187.2050  177.9230  147.7790 C   0  0  0  0  0  3  0  0  0  0  0  0
  187.1930  177.9470  146.3740 C   0  0  0  0  0  0  0  0  0  0  0  0
  184.9360  178.3350  146.3300 O   0  0  0  0  0  0  0  0  0  0  0  0
  187.1950  178.0200  142.1800 C   0  0  0  0  0  0  0  0  0  0  0  0
  186.0170  178.2300  141.4630 O   0  0  0  0  0  0  0  0  0  0  0  0
  181.0450  179.0290  144.0620 C   0  0  0  0  0  1  0  0  0  0  0  0
  185.9860  178.1880  144.2840 N   0  0  0  0  0  0  0  0  0  0  0  0
  183.5050  178.6110  144.1380 C   0  0  0  0  0  3  0  0  0  0  0  0
  189.7950  177.7040  137.9680 O   0  0  0  0  0  0  0  0  0  0  0  0
  188.5140  177.3070  137.5470 C   0  0  0  0  0  2  0  0  0  0  0  0
  188.0160  178.2450  136.5070 C   0  0  0  0  0  0  0  0  0  0  0  0
  187.9660  177.8450  135.1780 O   0  0  0  0  0  0  0  0  0  0  0  0
  187.6040  179.3870  136.8360 O   0  0  0  0  0  1  0  0  0  0  0  0
  1 10  1  0  0  0  0
  2 12  1  0  0  0  0
  2 26  1  0  0  0  0
  3  4  1  0  0  0  0
  5 27  1  0  0  0  0
  5 26  1  0  0  0  0
  6  5  2  0  0  0  0
  7 23  1  0  0  0  0
  7 16  2  0  0  0  0
  8 12  2  0  0  0  0
  9 25  1  0  0  0  0
  9 27  2  0  0  0  0
 10 16  1  0  0  0  0
 11  3  2  0  0  0  0
 12 13  1  0  0  0  0
 13 21  2  0  0  0  0
 13 11  1  0  0  0  0
 14 22  2  0  0  0  0
 14 21  1  0  0  0  0
 15  9  1  0  0  0  0
 16  8  1  0  0  0  0
 17 15  2  0  0  0  0
 17  6  1  0  0  0  0
 18  7  1  0  0  0  0
 19 28  1  6  0  0  0
 19 18  1  0  0  0  0
 19  1  1  0  0  0  0
 20  4  2  0  0  0  0
 21 20  1  0  0  0  0
 23  2  2  0  0  0  0
 24  6  1  0  0  0  0
 24 23  1  0  0  0  0
 26 14  1  0  0  0  0
 29 28  1  0  0  0  0
 30 32  1  0  0  0  0
 30 29  1  0  0  0  0
 31 30  2  0  0  0  0
M  END
>  <MODEL>
2

>  <REMARK>
 VINA RESULT:     -11.4      2.405      6.540
  Name = 
  3 active torsions:
  status: ('A' for Active; 'I' for Inactive)
    1  A    between atoms: C_1  and  C_10
    2  A    between atoms: C_10  and  O_19
    3  A    between atoms: O_19  and  C_24
                            x       y       z     vdW  Elec       q    Type
                         _______ _______ _______ _____ _____    ______ ____

>  <TORSDO>
F 3

$$$$
=
 OpenBabel10262421273D

 32 37  0  0  1  0  0  0  0  0999 V2000
  188.2050  177.1160  147.8740 C   0  0  0  0  0  2  0  0  0  0  0  0
  186.5050  178.1610  143.1460 C   0  0  0  0  0  0  0  0  0  0  0  0
  181.7660  178.9320  143.8860 C   0  0  0  0  0  3  0  0  0  0  0  0
  181.5820  179.0540  142.5090 C   0  0  0  0  0  3  0  0  0  0  0  0
  187.4870  178.1340  140.9040 C   0  0  0  0  0  0  0  0  0  0  0  0
  188.7530  177.8780  141.4670 C   0  0  0  0  0  0  0  0  0  0  0  0
  187.9600  177.7930  145.0760 C   0  0  0  0  0  0  0  0  0  0  0  0
  185.6170  178.1650  145.3810 N   0  0  0  0  0  0  0  0  0  0  0  0
  188.5280  178.0930  138.6930 C   0  0  0  0  0  0  0  0  0  0  0  0
  186.9630  177.8690  147.4160 C   0  0  0  0  0  2  0  0  0  0  0  0
  183.0400  178.6770  144.3990 C   0  0  0  0  0  3  0  0  0  0  0  0
  185.4180  178.2870  144.0400 C   0  0  0  0  0  0  0  0  0  0  0  0
  184.1410  178.5420  143.5380 C   0  0  0  0  0  0  0  0  0  0  0  0
  185.0560  178.5320  141.2840 C   0  0  0  0  0  0  0  0  0  0  0  0
  189.7720  177.8400  139.2710 C   0  0  0  0  0  3  0  0  0  0  0  0
  186.8360  177.9090  145.9180 C   0  0  0  0  0  0  0  0  0  0  0  0
  189.8840  177.7330  140.6580 C   0  0  0  0  0  3  0  0  0  0  0  0
  189.3230  177.4490  145.6220 C   0  0  0  0  0  2  0  0  0  0  0  0
  189.4270  177.6640  147.1370 C   0  0  2  0  0  3  0  0  0  0  0  0
  182.6710  178.9230  141.6430 C   0  0  0  0  0  3  0  0  0  0  0  0
  183.9570  178.6660  142.1490 C   0  0  0  0  0  0  0  0  0  0  0  0
  184.8570  178.6480  140.0420 O   0  0  0  0  0  0  0  0  0  0  0  0
  187.7840  177.9080  143.6900 C   0  0  0  0  0  0  0  0  0  0  0  0
  188.8860  177.7680  142.8460 O   0  0  0  0  0  0  0  0  0  0  0  0
  188.4040  178.2090  137.2160 C   0  0  0  0  0  1  0  0  0  0  0  0
  186.3230  178.2810  141.7810 N   0  0  0  0  0  0  0  0  0  0  0  0
  187.4000  178.2380  139.5020 C   0  0  0  0  0  3  0  0  0  0  0  0
  190.6520  177.2130  147.6760 O   0  0  0  0  0  0  0  0  0  0  0  0
  191.4890  176.7900  146.6300 C   0  0  0  0  0  2  0  0  0  0  0  0
  192.3570  175.6790  147.1020 C   0  0  0  0  0  0  0  0  0  0  0  0
  192.8230  175.6690  148.4100 O   0  0  0  0  0  1  0  0  0  0  0  0
  192.6390  174.7280  146.3270 O   0  0  0  0  0  0  0  0  0  0  0  0
  2 23  2  0  0  0  0
  2 12  1  0  0  0  0
  3 11  1  0  0  0  0
  4  3  2  0  0  0  0
  5  6  1  0  0  0  0
  5 26  1  0  0  0  0
  6 24  1  0  0  0  0
  7 18  1  0  0  0  0
  7 16  2  0  0  0  0
  8 16  1  0  0  0  0
  9 15  2  0  0  0  0
  9 27  1  0  0  0  0
 10  1  1  0  0  0  0
 12  8  2  0  0  0  0
 13 12  1  0  0  0  0
 13 11  2  0  0  0  0
 14 26  1  0  0  0  0
 14 21  1  0  0  0  0
 15 17  1  0  0  0  0
 16 10  1  0  0  0  0
 17  6  2  0  0  0  0
 18 19  1  0  0  0  0
 19 28  1  1  0  0  0
 19  1  1  0  0  0  0
 20 21  2  0  0  0  0
 20  4  1  0  0  0  0
 21 13  1  0  0  0  0
 22 14  2  0  0  0  0
 23  7  1  0  0  0  0
 24 23  1  0  0  0  0
 25  9  1  0  0  0  0
 26  2  1  0  0  0  0
 27  5  2  0  0  0  0
 29 30  1  0  0  0  0
 29 28  1  0  0  0  0
 30 31  1  0  0  0  0
 32 30  2  0  0  0  0
M  END
>  <MODEL>
3

>  <REMARK>
 VINA RESULT:     -11.3      2.190      7.126
  Name = 
  3 active torsions:
  status: ('A' for Active; 'I' for Inactive)
    1  A    between atoms: C_1  and  C_10
    2  A    between atoms: C_10  and  O_19
    3  A    between atoms: O_19  and  C_24
                            x       y       z     vdW  Elec       q    Type
                         _______ _______ _______ _____ _____    ______ ____

>  <TORSDO>
F 3

$$$$
=
 OpenBabel10262421273D

 32 37  0  0  1  0  0  0  0  0999 V2000
  183.6380  179.2960  143.9620 C   0  0  0  0  0  2  0  0  0  0  0  0
  188.4140  177.6060  143.1420 C   0  0  0  0  0  0  0  0  0  0  0  0
  190.1110  177.0360  147.6590 C   0  0  0  0  0  3  0  0  0  0  0  0
  191.3640  176.7180  147.1360 C   0  0  0  0  0  3  0  0  0  0  0  0
  189.8270  177.2890  141.1690 C   0  0  0  0  0  0  0  0  0  0  0  0
  188.7320  177.6020  140.3400 C   0  0  0  0  0  0  0  0  0  0  0  0
  186.0700  178.2240  142.8280 C   0  0  0  0  0  0  0  0  0  0  0  0
  186.9610  177.9420  145.0290 N   0  0  0  0  0  0  0  0  0  0  0  0
  191.1860  176.9910  139.1590 C   0  0  0  0  0  0  0  0  0  0  0  0
  184.5750  178.5070  144.8680 C   0  0  0  0  0  2  0  0  0  0  0  0
  189.0530  177.3400  146.7990 C   0  0  0  0  0  3  0  0  0  0  0  0
  188.1920  177.6300  144.5370 C   0  0  0  0  0  0  0  0  0  0  0  0
  189.2410  177.3280  145.4070 C   0  0  0  0  0  0  0  0  0  0  0  0
  190.6970  176.9940  143.4860 C   0  0  0  0  0  0  0  0  0  0  0  0
  190.0890  177.3030  138.3570 C   0  0  0  0  0  3  0  0  0  0  0  0
  185.9120  178.2510  144.2280 C   0  0  0  0  0  0  0  0  0  0  0  0
  188.8620  177.6080  138.9480 C   0  0  0  0  0  3  0  0  0  0  0  0
  184.9490  178.6190  141.8990 C   0  0  0  0  0  2  0  0  0  0  0  0
  183.5800  178.6250  142.5900 C   0  0  2  0  0  3  0  0  0  0  0  0
  191.5620  176.7030  145.7530 C   0  0  0  0  0  3  0  0  0  0  0  0
  190.5040  177.0070  144.8780 C   0  0  0  0  0  0  0  0  0  0  0  0
  191.8440  176.7030  143.0440 O   0  0  0  0  0  0  0  0  0  0  0  0
  187.3280  177.9120  142.2940 C   0  0  0  0  0  0  0  0  0  0  0  0
  187.5010  177.9080  140.9090 O   0  0  0  0  0  0  0  0  0  0  0  0
  192.4950  176.6640  138.5350 C   0  0  0  0  0  1  0  0  0  0  0  0
  189.6570  177.2920  142.6240 N   0  0  0  0  0  0  0  0  0  0  0  0
  191.0550  176.9840  140.5490 C   0  0  0  0  0  3  0  0  0  0  0  0
  182.5480  179.1280  141.7670 O   0  0  0  0  0  0  0  0  0  0  0  0
  182.6240  178.5150  140.5050 C   0  0  0  0  0  2  0  0  0  0  0  0
  182.5250  179.5490  139.4410 C   0  0  0  0  0  0  0  0  0  0  0  0
  183.6520  180.2650  139.0610 O   0  0  0  0  0  1  0  0  0  0  0  0
  181.4280  179.7460  138.8560 O   0  0  0  0  0  0  0  0  0  0  0  0
  1 10  1  0  0  0  0
  2 12  1  0  0  0  0
  4  3  1  0  0  0  0
  5 26  1  0  0  0  0
  6 24  1  0  0  0  0
  6  5  2  0  0  0  0
  7 16  2  0  0  0  0
  9 27  2  0  0  0  0
 11  3  2  0  0  0  0
 12  8  2  0  0  0  0
 12 13  1  0  0  0  0
 13 11  1  0  0  0  0
 14 21  1  0  0  0  0
 15 17  2  0  0  0  0
 15  9  1  0  0  0  0
 16 10  1  0  0  0  0
 16  8  1  0  0  0  0
 17  6  1  0  0  0  0
 18 19  1  0  0  0  0
 18  7  1  0  0  0  0
 19 28  1  6  0  0  0
 19  1  1  0  0  0  0
 20  4  2  0  0  0  0
 21 13  2  0  0  0  0
 21 20  1  0  0  0  0
 22 14  2  0  0  0  0
 23  7  1  0  0  0  0
 23  2  2  0  0  0  0
 24 23  1  0  0  0  0
 25  9  1  0  0  0  0
 26  2  1  0  0  0  0
 26 14  1  0  0  0  0
 27  5  1  0  0  0  0
 29 28  1  0  0  0  0
 30 29  1  0  0  0  0
 31 30  1  0  0  0  0
 32 30  2  0  0  0  0
M  END
>  <MODEL>
4

>  <REMARK>
 VINA RESULT:     -11.2      1.441      1.682
  Name = 
  3 active torsions:
  status: ('A' for Active; 'I' for Inactive)
    1  A    between atoms: C_1  and  C_10
    2  A    between atoms: C_10  and  O_19
    3  A    between atoms: O_19  and  C_24
                            x       y       z     vdW  Elec       q    Type
                         _______ _______ _______ _____ _____    ______ ____

>  <TORSDO>
F 3

$$$$
=
 OpenBabel10262421273D

 32 37  0  0  1  0  0  0  0  0999 V2000
  191.2210  176.6790  138.6500 C   0  0  0  0  0  2  0  0  0  0  0  0
  188.6660  177.5470  143.0150 C   0  0  0  0  0  0  0  0  0  0  0  0
  191.9500  176.3770  146.3990 C   0  0  0  0  0  3  0  0  0  0  0  0
  190.9880  176.5810  147.3880 C   0  0  0  0  0  3  0  0  0  0  0  0
  186.3650  178.1540  143.5870 C   0  0  0  0  0  0  0  0  0  0  0  0
  186.0770  178.3320  142.2200 C   0  0  0  0  0  0  0  0  0  0  0  0
  189.3330  177.5340  140.6640 C   0  0  0  0  0  0  0  0  0  0  0  0
  190.9060  176.9540  142.3700 N   0  0  0  0  0  0  0  0  0  0  0  0
  184.0530  178.7670  144.0920 C   0  0  0  0  0  0  0  0  0  0  0  0
  191.7350  176.9540  140.0570 C   0  0  0  0  0  2  0  0  0  0  0  0
  191.6190  176.5650  145.0550 C   0  0  0  0  0  3  0  0  0  0  0  0
  189.9790  177.1480  143.3490 C   0  0  0  0  0  0  0  0  0  0  0  0
  190.3210  176.9570  144.6890 C   0  0  0  0  0  0  0  0  0  0  0  0
  188.0510  177.5570  145.3230 C   0  0  0  0  0  0  0  0  0  0  0  0
  183.7890  178.9370  142.7330 C   0  0  0  0  0  3  0  0  0  0  0  0
  190.6210  177.1180  141.0540 C   0  0  0  0  0  0  0  0  0  0  0  0
  184.8020  178.7200  141.7980 C   0  0  0  0  0  3  0  0  0  0  0  0
  188.9540  177.6690  139.2100 C   0  0  0  0  0  2  0  0  0  0  0  0
  190.1740  177.7300  138.2820 C   0  0  2  0  0  3  0  0  0  0  0  0
  189.6940  176.9720  147.0350 C   0  0  0  0  0  3  0  0  0  0  0  0
  189.3500  177.1640  145.6850 C   0  0  0  0  0  0  0  0  0  0  0  0
  187.2020  177.7330  146.2420 O   0  0  0  0  0  0  0  0  0  0  0  0
  188.3580  177.7340  141.6500 C   0  0  0  0  0  0  0  0  0  0  0  0
  187.0710  178.1210  141.2720 O   0  0  0  0  0  0  0  0  0  0  0  0
  182.9780  178.9980  145.0920 C   0  0  0  0  0  1  0  0  0  0  0  0
  187.7110  177.7470  143.9950 N   0  0  0  0  0  0  0  0  0  0  0  0
  185.3260  178.3800  144.5130 C   0  0  0  0  0  3  0  0  0  0  0  0
  189.8270  177.7150  136.9130 O   0  0  0  0  0  0  0  0  0  0  0  0
  188.6890  176.9110  136.7330 C   0  0  0  0  0  2  0  0  0  0  0  0
  187.7280  177.5970  135.8300 C   0  0  0  0  0  0  0  0  0  0  0  0
  187.4180  177.0440  134.5950 O   0  0  0  0  0  0  0  0  0  0  0  0
  187.1660  178.6610  136.2010 O   0  0  0  0  0  1  0  0  0  0  0  0
  1 10  1  0  0  0  0
  2 12  1  0  0  0  0
  2 26  1  0  0  0  0
  3  4  1  0  0  0  0
  5 26  1  0  0  0  0
  5 27  1  0  0  0  0
  6  5  2  0  0  0  0
  7 16  2  0  0  0  0
  7 23  1  0  0  0  0
  8 12  2  0  0  0  0
  9 27  2  0  0  0  0
  9 25  1  0  0  0  0
 10 16  1  0  0  0  0
 11  3  2  0  0  0  0
 12 13  1  0  0  0  0
 13 11  1  0  0  0  0
 13 21  2  0  0  0  0
 14 21  1  0  0  0  0
 14 22  2  0  0  0  0
 15  9  1  0  0  0  0
 16  8  1  0  0  0  0
 17  6  1  0  0  0  0
 17 15  2  0  0  0  0
 18  7  1  0  0  0  0
 19 28  1  6  0  0  0
 19  1  1  0  0  0  0
 19 18  1  0  0  0  0
 20  4  2  0  0  0  0
 21 20  1  0  0  0  0
 23  2  2  0  0  0  0
 24 23  1  0  0  0  0
 24  6  1  0  0  0  0
 26 14  1  0  0  0  0
 29 28  1  0  0  0  0
 30 32  1  0  0  0  0
 30 29  1  0  0  0  0
 31 30  2  0  0  0  0
M  END
>  <MODEL>
5

>  <REMARK>
 VINA RESULT:     -11.0      2.601      6.457
  Name = 
  3 active torsions:
  status: ('A' for Active; 'I' for Inactive)
    1  A    between atoms: C_1  and  C_10
    2  A    between atoms: C_10  and  O_19
    3  A    between atoms: O_19  and  C_24
                            x       y       z     vdW  Elec       q    Type
                         _______ _______ _______ _____ _____    ______ ____

>  <TORSDO>
F 3

$$$$
=
 OpenBabel10262421273D

 32 37  0  0  1  0  0  0  0  0999 V2000
  190.7400  177.0320  140.0500 C   0  0  0  0  0  2  0  0  0  0  0  0
  187.1020  178.0140  143.5320 C   0  0  0  0  0  0  0  0  0  0  0  0
  189.4980  177.4840  147.7250 C   0  0  0  0  0  3  0  0  0  0  0  0
  188.3030  177.6740  148.4200 C   0  0  0  0  0  3  0  0  0  0  0  0
  184.6910  178.4320  143.4520 C   0  0  0  0  0  0  0  0  0  0  0  0
  184.7470  178.4600  142.0450 C   0  0  0  0  0  0  0  0  0  0  0  0
  188.3430  177.8630  141.4320 C   0  0  0  0  0  0  0  0  0  0  0  0
  189.4700  177.5980  143.5250 N   0  0  0  0  0  0  0  0  0  0  0  0
  182.2870  178.8490  143.3040 C   0  0  0  0  0  0  0  0  0  0  0  0
  190.8580  177.4790  141.5010 C   0  0  0  0  0  2  0  0  0  0  0  0
  189.5060  177.5180  146.3290 C   0  0  0  0  0  3  0  0  0  0  0  0
  188.3140  177.7810  144.2200 C   0  0  0  0  0  0  0  0  0  0  0  0
  188.3180  177.7440  145.6150 C   0  0  0  0  0  0  0  0  0  0  0  0
  185.9210  178.1630  145.6030 C   0  0  0  0  0  0  0  0  0  0  0  0
  182.3650  178.8720  141.9120 C   0  0  0  0  0  3  0  0  0  0  0  0
  189.5180  177.6160  142.1700 C   0  0  0  0  0  0  0  0  0  0  0  0
  183.5960  178.6770  141.2830 C   0  0  0  0  0  3  0  0  0  0  0  0
  188.3370  177.8320  139.9240 C   0  0  0  0  0  2  0  0  0  0  0  0
  189.7440  177.9340  139.3230 C   0  0  2  0  0  3  0  0  0  0  0  0
  187.1160  177.9000  147.7190 C   0  0  0  0  0  3  0  0  0  0  0  0
  187.1120  177.9370  146.3140 C   0  0  0  0  0  0  0  0  0  0  0  0
  184.8560  178.3310  146.2610 O   0  0  0  0  0  0  0  0  0  0  0  0
  187.1370  178.0490  142.1210 C   0  0  0  0  0  0  0  0  0  0  0  0
  185.9630  178.2680  141.3990 O   0  0  0  0  0  0  0  0  0  0  0  0
  180.9790  179.0560  143.9790 C   0  0  0  0  0  1  0  0  0  0  0  0
  185.9170  178.2000  144.2200 N   0  0  0  0  0  0  0  0  0  0  0  0
  183.4380  178.6310  144.0640 C   0  0  0  0  0  3  0  0  0  0  0  0
  189.7580  177.7660  137.9210 O   0  0  0  0  0  0  0  0  0  0  0  0
  189.7240  176.3940  137.6190 C   0  0  0  0  0  2  0  0  0  0  0  0
  190.7610  176.0790  136.6020 C   0  0  0  0  0  0  0  0  0  0  0  0
  192.0940  176.3710  136.8550 O   0  0  0  0  0  1  0  0  0  0  0  0
  190.4350  175.5110  135.5270 O   0  0  0  0  0  0  0  0  0  0  0  0
  1 10  1  0  0  0  0
  2 12  1  0  0  0  0
  2 26  1  0  0  0  0
  3  4  1  0  0  0  0
  5 27  1  0  0  0  0
  5 26  1  0  0  0  0
  6  5  2  0  0  0  0
  7 23  1  0  0  0  0
  7 16  2  0  0  0  0
  8 12  2  0  0  0  0
  9 25  1  0  0  0  0
  9 27  2  0  0  0  0
 10 16  1  0  0  0  0
 11  3  2  0  0  0  0
 12 13  1  0  0  0  0
 13 21  2  0  0  0  0
 13 11  1  0  0  0  0
 14 22  2  0  0  0  0
 14 21  1  0  0  0  0
 15  9  1  0  0  0  0
 16  8  1  0  0  0  0
 17 15  2  0  0  0  0
 17  6  1  0  0  0  0
 18  7  1  0  0  0  0
 19 28  1  6  0  0  0
 19 18  1  0  0  0  0
 19  1  1  0  0  0  0
 20  4  2  0  0  0  0
 21 20  1  0  0  0  0
 23  2  2  0  0  0  0
 24  6  1  0  0  0  0
 24 23  1  0  0  0  0
 26 14  1  0  0  0  0
 29 28  1  0  0  0  0
 30 31  1  0  0  0  0
 30 29  1  0  0  0  0
 32 30  2  0  0  0  0
M  END
>  <MODEL>
6

>  <REMARK>
 VINA RESULT:     -10.9      2.395      7.123
  Name = 
  3 active torsions:
  status: ('A' for Active; 'I' for Inactive)
    1  A    between atoms: C_1  and  C_10
    2  A    between atoms: C_10  and  O_19
    3  A    between atoms: O_19  and  C_24
                            x       y       z     vdW  Elec       q    Type
                         _______ _______ _______ _____ _____    ______ ____

>  <TORSDO>
F 3

$$$$
=
 OpenBabel10262421273D

 32 37  0  0  1  0  0  0  0  0999 V2000
  183.1520  178.6260  141.8740 C   0  0  0  0  0  2  0  0  0  0  0  0
  188.1040  177.7470  142.8910 C   0  0  0  0  0  0  0  0  0  0  0  0
  190.0780  177.6310  138.4520 C   0  0  0  0  0  3  0  0  0  0  0  0
  191.3030  177.2770  139.0180 C   0  0  0  0  0  3  0  0  0  0  0  0
  189.4000  177.2460  144.9060 C   0  0  0  0  0  0  0  0  0  0  0  0
  188.2520  177.4660  145.6930 C   0  0  0  0  0  0  0  0  0  0  0  0
  185.7420  178.3290  143.1210 C   0  0  0  0  0  0  0  0  0  0  0  0
  186.7620  178.2450  140.9590 N   0  0  0  0  0  0  0  0  0  0  0  0
  190.6370  176.7540  146.9570 C   0  0  0  0  0  0  0  0  0  0  0  0
  184.3950  178.9020  141.0390 C   0  0  0  0  0  2  0  0  0  0  0  0
  188.9660  177.8390  139.2720 C   0  0  0  0  0  3  0  0  0  0  0  0
  187.9650  177.8980  141.4930 C   0  0  0  0  0  0  0  0  0  0  0  0
  189.0700  177.6930  140.6650 C   0  0  0  0  0  0  0  0  0  0  0  0
  190.4120  177.1890  142.6300 C   0  0  0  0  0  0  0  0  0  0  0  0
  189.4890  176.9770  147.7160 C   0  0  0  0  0  3  0  0  0  0  0  0
  185.6570  178.4470  141.7190 C   0  0  0  0  0  0  0  0  0  0  0  0
  188.2960  177.3330  147.0840 C   0  0  0  0  0  3  0  0  0  0  0  0
  184.5270  178.4850  144.0010 C   0  0  0  0  0  2  0  0  0  0  0  0
  183.3600  179.1760  143.2850 C   0  0  2  0  0  3  0  0  0  0  0  0
  191.4170  177.1300  140.4030 C   0  0  0  0  0  3  0  0  0  0  0  0
  190.3040  177.3360  141.2370 C   0  0  0  0  0  0  0  0  0  0  0  0
  191.5350  176.8670  143.1110 O   0  0  0  0  0  0  0  0  0  0  0  0
  186.9670  177.9670  143.6970 C   0  0  0  0  0  0  0  0  0  0  0  0
  187.0550  177.8220  145.0820 O   0  0  0  0  0  0  0  0  0  0  0  0
  191.9090  176.3760  147.6260 C   0  0  0  0  0  1  0  0  0  0  0  0
  189.3180  177.3930  143.4520 N   0  0  0  0  0  0  0  0  0  0  0  0
  190.5910  176.8880  145.5680 C   0  0  0  0  0  3  0  0  0  0  0  0
  182.1760  179.1990  144.0550 O   0  0  0  0  0  0  0  0  0  0  0  0
  181.0670  179.0730  143.2020 C   0  0  0  0  0  2  0  0  0  0  0  0
  179.8680  178.6920  143.9940 C   0  0  0  0  0  0  0  0  0  0  0  0
  178.9310  179.6560  144.3420 O   0  0  0  0  0  1  0  0  0  0  0  0
  179.6820  177.4890  144.3140 O   0  0  0  0  0  0  0  0  0  0  0  0
  1 19  1  0  0  0  0
  2 26  1  0  0  0  0
  2 23  1  0  0  0  0
  3  4  2  0  0  0  0
  3 11  1  0  0  0  0
  4 20  1  0  0  0  0
  5 27  2  0  0  0  0
  5  6  1  0  0  0  0
  6 17  2  0  0  0  0
  7 23  2  0  0  0  0
  7 18  1  0  0  0  0
  8 12  1  0  0  0  0
  8 16  2  0  0  0  0
  9 25  1  0  0  0  0
  9 15  2  0  0  0  0
 10 16  1  0  0  0  0
 10  1  1  0  0  0  0
 11 13  2  0  0  0  0
 12  2  2  0  0  0  0
 13 21  1  0  0  0  0
 13 12  1  0  0  0  0
 14 22  2  0  0  0  0
 14 26  1  0  0  0  0
 16  7  1  0  0  0  0
 17 15  1  0  0  0  0
 19 18  1  0  0  0  0
 19 28  1  1  0  0  0
 20 21  2  0  0  0  0
 21 14  1  0  0  0  0
 23 24  1  0  0  0  0
 24  6  1  0  0  0  0
 26  5  1  0  0  0  0
 27  9  1  0  0  0  0
 29 30  1  0  0  0  0
 29 28  1  0  0  0  0
 30 32  2  0  0  0  0
 30 31  1  0  0  0  0
M  END
>  <MODEL>
7

>  <REMARK>
 VINA RESULT:     -10.8      1.363      4.843
  Name = 
  3 active torsions:
  status: ('A' for Active; 'I' for Inactive)
    1  A    between atoms: C_1  and  C_10
    2  A    between atoms: C_10  and  O_19
    3  A    between atoms: O_19  and  C_24
                            x       y       z     vdW  Elec       q    Type
                         _______ _______ _______ _____ _____    ______ ____

>  <TORSDO>
F 3

$$$$
=
 OpenBabel10262421273D

 32 37  0  0  1  0  0  0  0  0999 V2000
  188.0350  178.5310  137.5740 C   0  0  0  0  0  2  0  0  0  0  0  0
  187.6470  177.8910  142.6510 C   0  0  0  0  0  0  0  0  0  0  0  0
  183.0180  179.0940  143.5060 C   0  0  0  0  0  3  0  0  0  0  0  0
  183.2450  178.9530  144.8750 C   0  0  0  0  0  3  0  0  0  0  0  0
  189.2120  177.3670  144.4580 C   0  0  0  0  0  0  0  0  0  0  0  0
  190.2290  177.1470  143.5080 C   0  0  0  0  0  0  0  0  0  0  0  0
  188.4390  177.8010  140.3410 C   0  0  0  0  0  0  0  0  0  0  0  0
  186.1740  178.3990  140.8200 N   0  0  0  0  0  0  0  0  0  0  0  0
  190.8250  176.8350  146.2170 C   0  0  0  0  0  0  0  0  0  0  0  0
  186.8110  178.2940  138.4480 C   0  0  0  0  0  2  0  0  0  0  0  0
  184.0570  178.8670  142.5990 C   0  0  0  0  0  3  0  0  0  0  0  0
  186.3770  178.2670  142.1590 C   0  0  0  0  0  0  0  0  0  0  0  0
  185.3320  178.4960  143.0560 C   0  0  0  0  0  0  0  0  0  0  0  0
  186.8370  177.9810  144.8960 C   0  0  0  0  0  0  0  0  0  0  0  0
  191.8160  176.6220  145.2590 C   0  0  0  0  0  3  0  0  0  0  0  0
  187.1580  178.1960  139.9090 C   0  0  0  0  0  0  0  0  0  0  0  0
  191.5180  176.7790  143.9050 C   0  0  0  0  0  3  0  0  0  0  0  0
  189.5800  177.6230  139.3700 C   0  0  0  0  0  2  0  0  0  0  0  0
  189.1060  177.4960  137.9160 C   0  0  2  0  0  3  0  0  0  0  0  0
  184.5100  178.5840  145.3390 C   0  0  0  0  0  3  0  0  0  0  0  0
  185.5630  178.3520  144.4360 C   0  0  0  0  0  0  0  0  0  0  0  0
  187.0110  177.8620  146.1420 O   0  0  0  0  0  0  0  0  0  0  0  0
  188.6790  177.6620  141.7150 C   0  0  0  0  0  0  0  0  0  0  0  0
  189.9520  177.2970  142.1540 O   0  0  0  0  0  0  0  0  0  0  0  0
  191.1380  176.6690  147.6600 C   0  0  0  0  0  1  0  0  0  0  0  0
  187.8730  177.7520  144.0080 N   0  0  0  0  0  0  0  0  0  0  0  0
  189.5380  177.2020  145.8190 C   0  0  0  0  0  3  0  0  0  0  0  0
  190.1720  177.4700  136.9890 O   0  0  0  0  0  0  0  0  0  0  0  0
  190.4220  176.1410  136.6090 C   0  0  0  0  0  2  0  0  0  0  0  0
  191.5630  175.6020  137.3950 C   0  0  0  0  0  0  0  0  0  0  0  0
  192.7230  176.3520  137.5400 O   0  0  0  0  0  0  0  0  0  0  0  0
  191.4640  174.4830  137.9620 O   0  0  0  0  0  1  0  0  0  0  0  0
  1 19  1  0  0  0  0
  1 10  1  0  0  0  0
  2 26  1  0  0  0  0
  3  4  1  0  0  0  0
  4 20  2  0  0  0  0
  5 27  1  0  0  0  0
  6 17  1  0  0  0  0
  6  5  2  0  0  0  0
  7 23  1  0  0  0  0
  8 12  2  0  0  0  0
  9 25  1  0  0  0  0
 10 16  1  0  0  0  0
 11 13  1  0  0  0  0
 11  3  2  0  0  0  0
 12  2  1  0  0  0  0
 12 13  1  0  0  0  0
 13 21  2  0  0  0  0
 14 22  2  0  0  0  0
 15  9  1  0  0  0  0
 16  7  2  0  0  0  0
 16  8  1  0  0  0  0
 17 15  2  0  0  0  0
 18  7  1  0  0  0  0
 19 28  1  6  0  0  0
 19 18  1  0  0  0  0
 21 14  1  0  0  0  0
 21 20  1  0  0  0  0
 23 24  1  0  0  0  0
 23  2  2  0  0  0  0
 24  6  1  0  0  0  0
 26  5  1  0  0  0  0
 26 14  1  0  0  0  0
 27  9  2  0  0  0  0
 29 28  1  0  0  0  0
 29 30  1  0  0  0  0
 30 31  2  0  0  0  0
 30 32  1  0  0  0  0
M  END
>  <MODEL>
8

>  <REMARK>
 VINA RESULT:     -10.8      2.723      7.489
  Name = 
  3 active torsions:
  status: ('A' for Active; 'I' for Inactive)
    1  A    between atoms: C_1  and  C_10
    2  A    between atoms: C_10  and  O_19
    3  A    between atoms: O_19  and  C_24
                            x       y       z     vdW  Elec       q    Type
                         _______ _______ _______ _____ _____    ______ ____

>  <TORSDO>
F 3

$$$$
=
 OpenBabel10262421273D

 32 37  0  0  1  0  0  0  0  0999 V2000
  191.5570  177.8680  144.4830 C   0  0  0  0  0  2  0  0  0  0  0  0
  187.2130  178.1720  141.7680 C   0  0  0  0  0  0  0  0  0  0  0  0
  188.8290  178.0050  137.1890 C   0  0  0  0  0  3  0  0  0  0  0  0
  187.5280  178.2200  136.7340 C   0  0  0  0  0  3  0  0  0  0  0  0
  184.8530  178.5400  142.3050 C   0  0  0  0  0  0  0  0  0  0  0  0
  185.1590  178.4640  143.6780 C   0  0  0  0  0  0  0  0  0  0  0  0
  188.8060  177.8730  143.5970 C   0  0  0  0  0  0  0  0  0  0  0  0
  189.5490  177.8120  141.3240 N   0  0  0  0  0  0  0  0  0  0  0  0
  182.5130  178.9060  142.9070 C   0  0  0  0  0  0  0  0  0  0  0  0
  191.2550  177.4380  143.0540 C   0  0  0  0  0  2  0  0  0  0  0  0
  189.0860  177.9390  138.5610 C   0  0  0  0  0  3  0  0  0  0  0  0
  188.2860  178.0220  140.8610 C   0  0  0  0  0  0  0  0  0  0  0  0
  188.0420  178.0870  139.4890 C   0  0  0  0  0  0  0  0  0  0  0  0
  185.6830  178.4520  139.9560 C   0  0  0  0  0  0  0  0  0  0  0  0
  182.8370  178.8280  144.2610 C   0  0  0  0  0  3  0  0  0  0  0  0
  189.8400  177.7500  142.6470 C   0  0  0  0  0  0  0  0  0  0  0  0
  184.1610  178.6070  144.6460 C   0  0  0  0  0  3  0  0  0  0  0  0
  189.0910  177.8700  145.0780 C   0  0  0  0  0  2  0  0  0  0  0  0
  190.4800  177.3120  145.4150 C   0  0  2  0  0  3  0  0  0  0  0  0
  186.4830  178.3680  137.6480 C   0  0  0  0  0  3  0  0  0  0  0  0
  186.7290  178.3030  139.0310 C   0  0  0  0  0  0  0  0  0  0  0  0
  184.5160  178.6460  139.5120 O   0  0  0  0  0  0  0  0  0  0  0  0
  187.4970  178.0950  143.1490 C   0  0  0  0  0  0  0  0  0  0  0  0
  186.4710  178.2450  144.0820 O   0  0  0  0  0  0  0  0  0  0  0  0
  181.1050  179.1400  142.4930 C   0  0  0  0  0  1  0  0  0  0  0  0
  185.9240  178.3870  141.3170 N   0  0  0  0  0  0  0  0  0  0  0  0
  183.5110  178.7630  141.9410 C   0  0  0  0  0  3  0  0  0  0  0  0
  190.8070  177.4370  146.7830 O   0  0  0  0  0  0  0  0  0  0  0  0
  190.8430  176.1600  147.3680 C   0  0  0  0  0  2  0  0  0  0  0  0
  192.2510  175.6920  147.4630 C   0  0  0  0  0  0  0  0  0  0  0  0
  193.0410  176.0800  148.5360 O   0  0  0  0  0  1  0  0  0  0  0  0
  192.7150  174.9130  146.5900 O   0  0  0  0  0  0  0  0  0  0  0  0
  1 19  1  0  0  0  0
  2 23  1  0  0  0  0
  3 11  1  0  0  0  0
  4  3  2  0  0  0  0
  4 20  1  0  0  0  0
  5  6  1  0  0  0  0
  6 24  1  0  0  0  0
  6 17  2  0  0  0  0
  7 18  1  0  0  0  0
  8 16  2  0  0  0  0
  9 15  2  0  0  0  0
 10  1  1  0  0  0  0
 11 13  2  0  0  0  0
 12  8  1  0  0  0  0
 12  2  2  0  0  0  0
 13 12  1  0  0  0  0
 14 26  1  0  0  0  0
 15 17  1  0  0  0  0
 16 10  1  0  0  0  0
 16  7  1  0  0  0  0
 18 19  1  0  0  0  0
 19 28  1  1  0  0  0
 20 21  2  0  0  0  0
 21 13  1  0  0  0  0
 21 14  1  0  0  0  0
 22 14  2  0  0  0  0
 23  7  2  0  0  0  0
 23 24  1  0  0  0  0
 25  9  1  0  0  0  0
 26  2  1  0  0  0  0
 26  5  1  0  0  0  0
 27  5  2  0  0  0  0
 27  9  1  0  0  0  0
 28 29  1  0  0  0  0
 29 30  1  0  0  0  0
 30 31  1  0  0  0  0
 32 30  2  0  0  0  0
M  END
>  <MODEL>
9

>  <REMARK>
 VINA RESULT:     -10.1      2.341      8.272
  Name = 
  3 active torsions:
  status: ('A' for Active; 'I' for Inactive)
    1  A    between atoms: C_1  and  C_10
    2  A    between atoms: C_10  and  O_19
    3  A    between atoms: O_19  and  C_24
                            x       y       z     vdW  Elec       q    Type
                         _______ _______ _______ _____ _____    ______ ____

>  <TORSDO>
F 3

$$$$
