=
 OpenBabel10262421103D

 32 37  0  0  1  0  0  0  0  0999 V2000
  185.1470  178.0950  142.8410 N   0  0  0  0  0  0  0  0  0  0  0  0
  185.2970  178.4430  140.4480 C   0  0  0  0  0  0  0  0  0  0  0  0
  184.5270  178.4070  141.5690 C   0  0  0  0  0  0  0  0  0  0  0  0
  184.6950  178.6120  139.0780 C   0  0  1  0  0  3  0  0  0  0  0  0
  189.7480  178.1780  138.4140 C   0  0  0  0  0  3  0  0  0  0  0  0
  186.7610  178.2190  140.5480 C   0  0  0  0  0  0  0  0  0  0  0  0
  187.8080  178.6420  137.0530 C   0  0  0  0  0  3  0  0  0  0  0  0
  186.9780  178.5480  138.1770 C   0  0  0  0  0  0  0  0  0  0  0  0
  182.6820  177.1970  139.4850 C   0  0  0  0  0  0  0  0  0  0  0  0
  183.0260  178.7000  141.6200 C   0  0  2  0  0  3  0  0  0  0  0  0
  185.6990  178.7200  138.0200 N   0  0  0  0  0  0  0  0  0  0  0  0
  182.0900  178.0680  140.5830 C   0  0  1  0  0  3  0  0  0  0  0  0
  182.4610  179.5450  140.4870 C   0  0  0  0  0  2  0  0  0  0  0  0
  187.3460  177.9880  141.8800 C   0  0  0  0  0  3  0  0  0  0  0  0
  181.9860  176.0820  139.1510 F   0  0  0  0  0  0  0  0  0  0  0  0
  186.5780  177.9460  142.9690 C   0  0  0  0  0  0  0  0  0  0  0  0
  187.5400  178.2760  139.4490 C   0  0  0  0  0  0  0  0  0  0  0  0
  183.8050  177.4490  138.7960 C   0  0  0  0  0  3  0  0  0  0  0  0
  189.1850  178.4560  137.1690 C   0  0  0  0  0  3  0  0  0  0  0  0
  188.9330  178.0900  139.5440 C   0  0  0  0  0  3  0  0  0  0  0  0
  189.4610  177.3200  145.3200 C   0  0  0  0  0  0  0  0  0  0  0  0
  188.2940  178.1070  148.7250 C   0  0  0  0  0  1  0  0  0  0  0  0
  190.8360  176.7440  145.2010 C   0  0  0  0  0  1  0  0  0  0  0  0
  186.8660  178.0540  146.7800 C   0  0  0  0  0  3  0  0  0  0  0  0
  187.2050  177.7420  144.3000 C   0  0  0  0  0  0  0  0  0  0  0  0
  189.2370  178.1280  146.4380 O   0  0  0  0  0  0  0  0  0  0  0  0
  186.4830  178.0990  145.3690 C   0  0  0  0  0  3  0  0  0  0  0  0
  188.5340  177.0730  144.3710 C   0  0  0  0  0  0  0  0  0  0  0  0
  188.8720  176.1260  143.2550 C   0  0  0  0  0  1  0  0  0  0  0  0
  188.1060  178.0730  147.2510 C   0  0  0  0  0  0  0  0  0  0  0  0
  184.3640  177.9710  143.9480 O   0  0  0  0  0  0  0  0  0  0  0  0
  183.9060  179.2620  144.2350 C   0  0  0  0  0  1  0  0  0  0  0  0
  1 16  1  0  0  0  0
  1 31  1  0  0  0  0
  2  6  1  0  0  0  0
  2  3  2  0  0  0  0
  3 10  1  0  0  0  0
  3  1  1  0  0  0  0
  4 18  1  6  0  0  0
  4  2  1  0  0  0  0
  5 20  2  0  0  0  0
  6 14  1  0  0  0  0
  7 19  2  0  0  0  0
  7  8  1  0  0  0  0
  8 17  1  0  0  0  0
  9 12  1  0  0  0  0
 10 13  1  6  0  0  0
 11  8  2  0  0  0  0
 11  4  1  0  0  0  0
 12 13  1  6  0  0  0
 12 10  1  0  0  0  0
 14 16  2  0  0  0  0
 15  9  1  0  0  0  0
 16 25  1  0  0  0  0
 17 20  1  0  0  0  0
 17  6  2  0  0  0  0
 18  9  2  0  0  0  0
 19  5  1  0  0  0  0
 21 26  1  0  0  0  0
 23 21  1  0  0  0  0
 24 30  2  0  0  0  0
 25 28  1  0  0  0  0
 25 27  2  0  0  0  0
 26 30  1  0  0  0  0
 27 24  1  0  0  0  0
 28 21  2  0  0  0  0
 29 28  1  0  0  0  0
 30 22  1  0  0  0  0
 31 32  1  0  0  0  0
M  END
>  <MODEL>
1

>  <REMARK>
 VINA RESULT:     -10.1      0.000      0.000
  Name = 
  2 active torsions:
  status: ('A' for Active; 'I' for Inactive)
    1  A    between atoms: N_1  and  O_4
    2  A    between atoms: C_16  and  C_27
                            x       y       z     vdW  Elec       q    Type
                         _______ _______ _______ _____ _____    ______ ____

>  <TORSDO>
F 2

$$$$
=
 OpenBabel10262421103D

 32 37  0  0  1  0  0  0  0  0999 V2000
  182.1920  178.0230  139.2900 N   0  0  0  0  0  0  0  0  0  0  0  0
  181.9170  178.4030  141.6680 C   0  0  0  0  0  0  0  0  0  0  0  0
  181.3440  178.2450  140.4450 C   0  0  0  0  0  0  0  0  0  0  0  0
  181.1080  178.7830  142.8800 C   0  0  0  0  0  0  0  0  0  0  0  0
  185.9690  178.3990  144.4260 C   0  0  0  0  0  3  0  0  0  0  0  0
  183.3910  178.2930  141.8140 C   0  0  0  0  0  0  0  0  0  0  0  0
  183.8050  178.7640  145.4330 C   0  0  0  0  0  3  0  0  0  0  0  0
  183.1880  178.6700  144.1800 C   0  0  0  0  0  0  0  0  0  0  0  0
  179.5850  180.3710  141.7070 C   0  0  0  0  0  0  0  0  0  0  0  0
  179.8390  178.2510  140.1670 C   0  0  2  0  0  3  0  0  0  0  0  0
  181.8980  178.8090  144.1110 N   0  0  0  0  0  0  0  0  0  0  0  0
  178.9540  179.3400  140.7830 C   0  0  1  0  0  3  0  0  0  0  0  0
  178.9310  177.9210  141.3430 C   0  0  0  0  0  2  0  0  0  0  0  0
  184.1940  177.9860  140.6180 C   0  0  0  0  0  3  0  0  0  0  0  0
  179.1470  181.6490  141.5810 F   0  0  0  0  0  0  0  0  0  0  0  0
  183.6190  177.8430  139.4240 C   0  0  0  0  0  0  0  0  0  0  0  0
  183.9710  178.4240  143.0250 C   0  0  0  0  0  0  0  0  0  0  0  0
  180.5040  180.1280  142.6530 C   0  0  0  0  0  3  0  0  0  0  0  0
  185.1880  178.6320  145.5570 C   0  0  0  0  0  3  0  0  0  0  0  0
  185.3650  178.2950  143.1710 C   0  0  0  0  0  2  0  0  0  0  0  0
  184.3460  176.1350  136.1410 C   0  0  0  0  0  0  0  0  0  0  0  0
  187.3180  177.7590  134.6900 C   0  0  0  0  0  1  0  0  0  0  0  0
  183.8100  174.9460  135.4090 C   0  0  0  0  0  1  0  0  0  0  0  0
  186.4730  178.2070  136.9060 C   0  0  0  0  0  3  0  0  0  0  0  0
  184.4550  177.5030  138.2450 C   0  0  0  0  0  0  0  0  0  0  0  0
  185.0410  177.0630  135.3620 O   0  0  0  0  0  0  0  0  0  0  0  0
  185.5170  178.2820  138.0100 C   0  0  0  0  0  3  0  0  0  0  0  0
  184.1270  176.2770  137.4650 C   0  0  0  0  0  0  0  0  0  0  0  0
  183.4310  175.1720  138.2070 C   0  0  0  0  0  1  0  0  0  0  0  0
  186.2480  177.6620  135.7170 C   0  0  0  0  0  0  0  0  0  0  0  0
  181.6260  177.9550  138.0550 O   0  0  0  0  0  0  0  0  0  0  0  0
  181.6170  179.2680  137.5690 C   0  0  0  0  0  1  0  0  0  0  0  0
  1 16  1  0  0  0  0
  1  3  1  0  0  0  0
  2  6  1  0  0  0  0
  2  4  1  0  0  0  0
  3  2  2  0  0  0  0
  4 11  2  0  0  0  0
  5 19  2  0  0  0  0
  6 17  2  0  0  0  0
  7 19  1  0  0  0  0
  8  7  2  0  0  0  0
  9 18  2  0  0  0  0
 10  3  1  0  0  0  0
 10 12  1  0  0  0  0
 10 13  1  1  0  0  0
 11  8  1  0  0  0  0
 12 13  1  1  0  0  0
 12  9  1  0  0  0  0
 14  6  1  0  0  0  0
 15  9  1  0  0  0  0
 16 14  2  0  0  0  0
 17 20  1  0  0  0  0
 17  8  1  0  0  0  0
 18  4  1  0  0  0  0
 20  5  1  0  0  0  0
 21 28  2  0  0  0  0
 22 30  1  0  0  0  0
 23 21  1  0  0  0  0
 24 27  1  0  0  0  0
 25 16  1  0  0  0  0
 26 30  1  0  0  0  0
 26 21  1  0  0  0  0
 27 25  2  0  0  0  0
 28 29  1  0  0  0  0
 28 25  1  0  0  0  0
 30 24  2  0  0  0  0
 31  1  1  0  0  0  0
 32 31  1  0  0  0  0
M  END
>  <MODEL>
2

>  <REMARK>
 VINA RESULT:      -9.9      3.602      7.473
  Name = 
  2 active torsions:
  status: ('A' for Active; 'I' for Inactive)
    1  A    between atoms: N_1  and  O_4
    2  A    between atoms: C_16  and  C_27
                            x       y       z     vdW  Elec       q    Type
                         _______ _______ _______ _____ _____    ______ ____

>  <TORSDO>
F 2

$$$$
=
 OpenBabel10262421103D

 32 37  0  0  1  0  0  0  0  0999 V2000
  185.6550  178.5100  138.6700 N   0  0  0  0  0  0  0  0  0  0  0  0
  187.5420  178.1970  140.1570 C   0  0  0  0  0  0  0  0  0  0  0  0
  187.0810  178.3780  138.8900 C   0  0  0  0  0  0  0  0  0  0  0  0
  188.9920  177.9050  140.4400 C   0  0  1  0  0  3  0  0  0  0  0  0
  186.5960  177.9330  144.9590 C   0  0  0  0  0  3  0  0  0  0  0  0
  186.5900  178.1930  141.2970 C   0  0  0  0  0  0  0  0  0  0  0  0
  188.8640  177.7580  144.1480 C   0  0  0  0  0  3  0  0  0  0  0  0
  188.4170  177.8780  142.8270 C   0  0  0  0  0  0  0  0  0  0  0  0
  189.3610  176.4210  138.4700 C   0  0  0  0  0  0  0  0  0  0  0  0
  187.9550  178.4850  137.6390 C   0  0  2  0  0  3  0  0  0  0  0  0
  189.2960  177.8390  141.8690 N   0  0  0  0  0  0  0  0  0  0  0  0
  189.0910  177.4810  137.4140 C   0  0  1  0  0  3  0  0  0  0  0  0
  189.4020  178.9070  137.8560 C   0  0  0  0  0  2  0  0  0  0  0  0
  185.1600  178.4140  141.0190 C   0  0  0  0  0  3  0  0  0  0  0  0
  189.6720  175.1790  138.0210 F   0  0  0  0  0  0  0  0  0  0  0  0
  184.7220  178.5800  139.7710 C   0  0  0  0  0  0  0  0  0  0  0  0
  187.0350  178.0400  142.5610 C   0  0  0  0  0  0  0  0  0  0  0  0
  189.3550  176.6080  139.7990 C   0  0  0  0  0  3  0  0  0  0  0  0
  187.9600  177.7840  145.2100 C   0  0  0  0  0  3  0  0  0  0  0  0
  186.1390  178.0610  143.6470 C   0  0  0  0  0  3  0  0  0  0  0  0
  181.0320  177.9000  140.1560 C   0  0  0  0  0  0  0  0  0  0  0  0
  179.2320  180.8770  138.9410 C   0  0  0  0  0  1  0  0  0  0  0  0
  180.1930  176.7260  140.5460 C   0  0  0  0  0  1  0  0  0  0  0  0
  181.6160  180.5570  138.7390 C   0  0  0  0  0  3  0  0  0  0  0  0
  183.2790  178.8320  139.5290 C   0  0  0  0  0  0  0  0  0  0  0  0
  180.4120  179.1480  140.2590 O   0  0  0  0  0  0  0  0  0  0  0  0
  182.9490  180.0280  139.0270 C   0  0  0  0  0  3  0  0  0  0  0  0
  182.3100  177.7240  139.7600 C   0  0  0  0  0  0  0  0  0  0  0  0
  182.8390  176.3260  139.6170 C   0  0  0  0  0  1  0  0  0  0  0  0
  180.4820  180.1590  139.3020 C   0  0  0  0  0  0  0  0  0  0  0  0
  185.1860  178.6010  137.3950 O   0  0  0  0  0  0  0  0  0  0  0  0
  185.0400  177.2810  136.9510 C   0  0  0  0  0  1  0  0  0  0  0  0
  1  3  1  0  0  0  0
  1 16  1  0  0  0  0
  2  4  1  0  0  0  0
  2  6  1  0  0  0  0
  3  2  2  0  0  0  0
  4 18  1  6  0  0  0
  4 11  1  0  0  0  0
  5 19  1  0  0  0  0
  6 17  2  0  0  0  0
  7 19  2  0  0  0  0
  8  7  1  0  0  0  0
  9 18  2  0  0  0  0
 10 13  1  1  0  0  0
 10  3  1  0  0  0  0
 11  8  2  0  0  0  0
 12 10  1  0  0  0  0
 12 13  1  1  0  0  0
 12  9  1  0  0  0  0
 14  6  1  0  0  0  0
 15  9  1  0  0  0  0
 16 14  2  0  0  0  0
 17  8  1  0  0  0  0
 17 20  1  0  0  0  0
 20  5  2  0  0  0  0
 21 26  1  0  0  0  0
 21 23  1  0  0  0  0
 22 30  1  0  0  0  0
 24 27  1  0  0  0  0
 24 30  2  0  0  0  0
 25 28  1  0  0  0  0
 25 16  1  0  0  0  0
 27 25  2  0  0  0  0
 28 21  2  0  0  0  0
 29 28  1  0  0  0  0
 30 26  1  0  0  0  0
 31  1  1  0  0  0  0
 32 31  1  0  0  0  0
M  END
>  <MODEL>
3

>  <REMARK>
 VINA RESULT:      -9.9      2.884      7.288
  Name = 
  2 active torsions:
  status: ('A' for Active; 'I' for Inactive)
    1  A    between atoms: N_1  and  O_4
    2  A    between atoms: C_16  and  C_27
                            x       y       z     vdW  Elec       q    Type
                         _______ _______ _______ _____ _____    ______ ____

>  <TORSDO>
F 2

$$$$
=
 OpenBabel10262421103D

 32 37  0  0  1  0  0  0  0  0999 V2000
  187.1970  178.1320  143.5020 N   0  0  0  0  0  0  0  0  0  0  0  0
  189.1690  177.5060  142.2400 C   0  0  0  0  0  0  0  0  0  0  0  0
  188.5700  177.6700  143.4500 C   0  0  0  0  0  0  0  0  0  0  0  0
  190.6330  177.1730  142.1180 C   0  0  0  0  0  0  0  0  0  0  0  0
  188.8170  177.5530  137.3510 C   0  0  0  0  0  3  0  0  0  0  0  0
  188.3980  177.7470  140.9940 C   0  0  0  0  0  0  0  0  0  0  0  0
  190.8870  176.9220  138.4220 C   0  0  0  0  0  3  0  0  0  0  0  0
  190.3200  177.1430  139.6830 C   0  0  0  0  0  0  0  0  0  0  0  0
  191.3990  178.6160  144.0030 C   0  0  0  0  0  0  0  0  0  0  0  0
  189.2190  177.3770  144.8050 C   0  0  2  0  0  3  0  0  0  0  0  0
  191.0570  176.9470  140.7360 N   0  0  0  0  0  0  0  0  0  0  0  0
  190.6390  177.8770  145.0940 C   0  0  1  0  0  3  0  0  0  0  0  0
  190.3880  176.4010  144.8000 C   0  0  0  0  0  2  0  0  0  0  0  0
  186.9820  178.1370  141.1080 C   0  0  0  0  0  3  0  0  0  0  0  0
  192.1430  179.6810  144.3940 F   0  0  0  0  0  0  0  0  0  0  0  0
  186.4110  178.3030  142.3010 C   0  0  0  0  0  0  0  0  0  0  0  0
  188.9720  177.5660  139.7870 C   0  0  0  0  0  0  0  0  0  0  0  0
  191.4300  178.2910  142.7010 C   0  0  0  0  0  3  0  0  0  0  0  0
  190.1410  177.1280  137.2610 C   0  0  0  0  0  3  0  0  0  0  0  0
  188.2370  177.7690  138.6030 C   0  0  0  0  0  2  0  0  0  0  0  0
  182.8560  178.4390  141.0470 C   0  0  0  0  0  0  0  0  0  0  0  0
  180.7210  179.3900  143.8950 C   0  0  0  0  0  1  0  0  0  0  0  0
  182.1830  178.3260  139.7160 C   0  0  0  0  0  1  0  0  0  0  0  0
  183.1340  179.3700  143.9560 C   0  0  0  0  0  3  0  0  0  0  0  0
  184.9730  178.6650  142.3810 C   0  0  0  0  0  0  0  0  0  0  0  0
  182.0400  178.2210  142.1600 O   0  0  0  0  0  0  0  0  0  0  0  0
  184.5030  179.0160  143.5840 C   0  0  0  0  0  3  0  0  0  0  0  0
  184.1760  178.7120  141.1230 C   0  0  0  0  0  0  0  0  0  0  0  0
  184.9300  179.0030  139.8570 C   0  0  0  0  0  1  0  0  0  0  0  0
  182.0320  179.0030  143.3130 C   0  0  0  0  0  0  0  0  0  0  0  0
  186.6260  178.3820  144.7110 O   0  0  0  0  0  0  0  0  0  0  0  0
  186.4400  177.1290  145.3080 C   0  0  0  0  0  1  0  0  0  0  0  0
  1 31  1  0  0  0  0
  2  3  2  0  0  0  0
  3  1  1  0  0  0  0
  3 10  1  0  0  0  0
  4  2  1  0  0  0  0
  4 18  1  0  0  0  0
  5 20  1  0  0  0  0
  6 14  1  0  0  0  0
  6  2  1  0  0  0  0
  7  8  2  0  0  0  0
  8 17  1  0  0  0  0
  8 11  1  0  0  0  0
  9 15  1  0  0  0  0
  9 12  1  0  0  0  0
 10 13  1  6  0  0  0
 10 12  1  0  0  0  0
 11  4  2  0  0  0  0
 12 13  1  6  0  0  0
 14 16  2  0  0  0  0
 16 25  1  0  0  0  0
 16  1  1  0  0  0  0
 17  6  2  0  0  0  0
 18  9  2  0  0  0  0
 19  5  2  0  0  0  0
 19  7  1  0  0  0  0
 20 17  1  0  0  0  0
 21 28  2  0  0  0  0
 21 26  1  0  0  0  0
 23 21  1  0  0  0  0
 25 27  2  0  0  0  0
 26 30  1  0  0  0  0
 27 24  1  0  0  0  0
 28 25  1  0  0  0  0
 29 28  1  0  0  0  0
 30 22  1  0  0  0  0
 30 24  2  0  0  0  0
 31 32  1  0  0  0  0
M  END
>  <MODEL>
4

>  <REMARK>
 VINA RESULT:      -9.5      2.862      6.193
  Name = 
  2 active torsions:
  status: ('A' for Active; 'I' for Inactive)
    1  A    between atoms: N_1  and  O_4
    2  A    between atoms: C_16  and  C_27
                            x       y       z     vdW  Elec       q    Type
                         _______ _______ _______ _____ _____    ______ ____

>  <TORSDO>
F 2

$$$$
=
 OpenBabel10262421103D

 32 37  0  0  1  0  0  0  0  0999 V2000
  186.0340  177.9740  145.3910 N   0  0  0  0  0  0  0  0  0  0  0  0
  188.3600  177.3220  145.1960 C   0  0  0  0  0  0  0  0  0  0  0  0
  187.2590  177.4730  145.9810 C   0  0  0  0  0  0  0  0  0  0  0  0
  189.7010  176.9500  145.7730 C   0  0  0  0  0  0  0  0  0  0  0  0
  190.3790  177.5030  140.7340 C   0  0  0  0  0  3  0  0  0  0  0  0
  188.2790  177.6180  143.7430 C   0  0  0  0  0  0  0  0  0  0  0  0
  191.6810  176.7840  142.6360 C   0  0  0  0  0  3  0  0  0  0  0  0
  190.5850  176.9890  143.4830 C   0  0  0  0  0  0  0  0  0  0  0  0
  189.4970  178.3210  147.8460 C   0  0  0  0  0  0  0  0  0  0  0  0
  187.1810  177.1280  147.4700 C   0  0  2  0  0  3  0  0  0  0  0  0
  190.7280  176.7460  144.7520 N   0  0  0  0  0  0  0  0  0  0  0  0
  188.2990  177.5780  148.4170 C   0  0  1  0  0  3  0  0  0  0  0  0
  188.1970  176.1180  147.9860 C   0  0  0  0  0  2  0  0  0  0  0  0
  186.9850  178.0460  143.1850 C   0  0  0  0  0  3  0  0  0  0  0  0
  189.9800  179.3540  148.5820 F   0  0  0  0  0  0  0  0  0  0  0  0
  185.9180  178.1990  143.9680 C   0  0  0  0  0  0  0  0  0  0  0  0
  189.3560  177.4490  142.9490 C   0  0  0  0  0  0  0  0  0  0  0  0
  190.1390  178.0280  146.7050 C   0  0  0  0  0  3  0  0  0  0  0  0
  191.5800  177.0400  141.2690 C   0  0  0  0  0  3  0  0  0  0  0  0
  189.2760  177.7040  141.5660 C   0  0  0  0  0  2  0  0  0  0  0  0
  183.3910  178.4720  141.1800 C   0  0  0  0  0  0  0  0  0  0  0  0
  180.1710  179.4140  142.7030 C   0  0  0  0  0  1  0  0  0  0  0  0
  183.4310  178.4110  139.6870 C   0  0  0  0  0  1  0  0  0  0  0  0
  182.2620  179.3200  143.9030 C   0  0  0  0  0  3  0  0  0  0  0  0
  184.6200  178.6010  143.3670 C   0  0  0  0  0  0  0  0  0  0  0  0
  182.1400  178.2500  141.7620 O   0  0  0  0  0  0  0  0  0  0  0  0
  183.6390  178.9360  144.2140 C   0  0  0  0  0  3  0  0  0  0  0  0
  184.5180  178.7030  141.8840 C   0  0  0  0  0  0  0  0  0  0  0  0
  185.7890  179.0030  141.1410 C   0  0  0  0  0  1  0  0  0  0  0  0
  181.5950  179.0030  142.8010 C   0  0  0  0  0  0  0  0  0  0  0  0
  184.9600  178.2110  146.1920 O   0  0  0  0  0  0  0  0  0  0  0  0
  185.3050  179.3220  146.9690 C   0  0  0  0  0  1  0  0  0  0  0  0
  1  3  1  0  0  0  0
  1 31  1  0  0  0  0
  2  4  1  0  0  0  0
  2  3  2  0  0  0  0
  3 10  1  0  0  0  0
  4 18  1  0  0  0  0
  5 19  2  0  0  0  0
  5 20  1  0  0  0  0
  6  2  1  0  0  0  0
  7  8  2  0  0  0  0
  8 11  1  0  0  0  0
  9 12  1  0  0  0  0
  9 15  1  0  0  0  0
 10 13  1  6  0  0  0
 10 12  1  0  0  0  0
 11  4  2  0  0  0  0
 12 13  1  6  0  0  0
 14  6  1  0  0  0  0
 14 16  2  0  0  0  0
 16  1  1  0  0  0  0
 17  8  1  0  0  0  0
 17  6  2  0  0  0  0
 18  9  2  0  0  0  0
 19  7  1  0  0  0  0
 20 17  1  0  0  0  0
 21 26  1  0  0  0  0
 21 28  2  0  0  0  0
 22 30  1  0  0  0  0
 23 21  1  0  0  0  0
 24 27  1  0  0  0  0
 25 16  1  0  0  0  0
 25 27  2  0  0  0  0
 26 30  1  0  0  0  0
 28 25  1  0  0  0  0
 29 28  1  0  0  0  0
 30 24  2  0  0  0  0
 31 32  1  0  0  0  0
M  END
>  <MODEL>
5

>  <REMARK>
 VINA RESULT:      -9.1      3.258      6.869
  Name = 
  2 active torsions:
  status: ('A' for Active; 'I' for Inactive)
    1  A    between atoms: N_1  and  O_4
    2  A    between atoms: C_16  and  C_27
                            x       y       z     vdW  Elec       q    Type
                         _______ _______ _______ _____ _____    ______ ____

>  <TORSDO>
F 2

$$$$
=
 OpenBabel10262421103D

 32 37  0  0  1  0  0  0  0  0999 V2000
  189.4440  177.4670  143.3940 N   0  0  0  0  0  0  0  0  0  0  0  0
  187.6000  178.0790  144.8420 C   0  0  0  0  0  0  0  0  0  0  0  0
  188.9260  177.8150  144.7020 C   0  0  0  0  0  0  0  0  0  0  0  0
  186.9720  178.3000  146.1930 C   0  0  0  0  0  0  0  0  0  0  0  0
  183.2080  178.6830  142.7510 C   0  0  0  0  0  3  0  0  0  0  0  0
  186.7130  178.0640  143.6510 C   0  0  0  0  0  0  0  0  0  0  0  0
  183.4830  178.9960  145.1300 C   0  0  0  0  0  3  0  0  0  0  0  0
  184.8400  178.6660  145.0320 C   0  0  0  0  0  0  0  0  0  0  0  0
  188.3040  176.5710  147.3990 C   0  0  0  0  0  0  0  0  0  0  0  0
  189.9630  177.8770  145.8270 C   0  0  2  0  0  3  0  0  0  0  0  0
  185.5570  178.6630  146.1160 N   0  0  0  0  0  0  0  0  0  0  0  0
  189.6590  177.2270  147.1820 C   0  0  1  0  0  3  0  0  0  0  0  0
  189.6090  178.7440  147.0280 C   0  0  0  0  0  2  0  0  0  0  0  0
  187.3110  177.7840  142.3340 C   0  0  0  0  0  3  0  0  0  0  0  0
  188.2970  175.4060  148.0950 F   0  0  0  0  0  0  0  0  0  0  0  0
  188.6110  177.5170  142.2140 C   0  0  0  0  0  0  0  0  0  0  0  0
  185.4000  178.3480  143.7700 C   0  0  0  0  0  0  0  0  0  0  0  0
  187.1180  177.0540  147.0000 C   0  0  0  0  0  3  0  0  0  0  0  0
  182.6690  179.0030  143.9970 C   0  0  0  0  0  3  0  0  0  0  0  0
  184.5610  178.3600  142.6390 C   0  0  0  0  0  2  0  0  0  0  0  0
  189.2190  178.2900  138.5720 C   0  0  0  0  0  0  0  0  0  0  0  0
  192.0350  176.1930  137.4580 C   0  0  0  0  0  1  0  0  0  0  0  0
  188.5370  179.1070  137.5220 C   0  0  0  0  0  1  0  0  0  0  0  0
  190.9760  176.0040  139.6180 C   0  0  0  0  0  3  0  0  0  0  0  0
  189.1870  177.2700  140.8680 C   0  0  0  0  0  0  0  0  0  0  0  0
  190.5570  177.9770  138.3240 O   0  0  0  0  0  0  0  0  0  0  0  0
  190.1980  176.3960  140.7930 C   0  0  0  0  0  3  0  0  0  0  0  0
  188.5540  177.9210  139.6870 C   0  0  0  0  0  0  0  0  0  0  0  0
  187.0930  178.2530  139.8040 C   0  0  0  0  0  1  0  0  0  0  0  0
  191.1360  176.7240  138.5150 C   0  0  0  0  0  0  0  0  0  0  0  0
  190.7520  177.1150  143.2700 O   0  0  0  0  0  0  0  0  0  0  0  0
  191.4760  178.3100  143.3600 C   0  0  0  0  0  1  0  0  0  0  0  0
  1  3  1  0  0  0  0
  2  4  1  0  0  0  0
  3  2  2  0  0  0  0
  3 10  1  0  0  0  0
  4 18  1  0  0  0  0
  5 19  2  0  0  0  0
  6 17  2  0  0  0  0
  6  2  1  0  0  0  0
  8  7  2  0  0  0  0
  8 11  1  0  0  0  0
  9 15  1  0  0  0  0
 10 13  1  1  0  0  0
 10 12  1  0  0  0  0
 11  4  2  0  0  0  0
 12 13  1  1  0  0  0
 12  9  1  0  0  0  0
 14  6  1  0  0  0  0
 16 14  2  0  0  0  0
 16  1  1  0  0  0  0
 17  8  1  0  0  0  0
 18  9  2  0  0  0  0
 19  7  1  0  0  0  0
 20  5  1  0  0  0  0
 20 17  1  0  0  0  0
 21 28  2  0  0  0  0
 22 30  1  0  0  0  0
 23 21  1  0  0  0  0
 24 27  1  0  0  0  0
 25 16  1  0  0  0  0
 26 30  1  0  0  0  0
 26 21  1  0  0  0  0
 27 25  2  0  0  0  0
 28 29  1  0  0  0  0
 28 25  1  0  0  0  0
 30 24  2  0  0  0  0
 31 32  1  0  0  0  0
 31  1  1  0  0  0  0
M  END
>  <MODEL>
6

>  <REMARK>
 VINA RESULT:      -9.1      3.090      7.478
  Name = 
  2 active torsions:
  status: ('A' for Active; 'I' for Inactive)
    1  A    between atoms: N_1  and  O_4
    2  A    between atoms: C_16  and  C_27
                            x       y       z     vdW  Elec       q    Type
                         _______ _______ _______ _____ _____    ______ ____

>  <TORSDO>
F 2

$$$$
=
 OpenBabel10262421103D

 32 37  0  0  1  0  0  0  0  0999 V2000
  186.7590  178.0680  143.2390 N   0  0  0  0  0  0  0  0  0  0  0  0
  187.6070  177.5020  145.4380 C   0  0  0  0  0  0  0  0  0  0  0  0
  186.5610  177.8980  144.6650 C   0  0  0  0  0  0  0  0  0  0  0  0
  187.5100  177.4500  146.9400 C   0  0  0  0  0  0  0  0  0  0  0  0
  192.2650  176.0030  145.7310 C   0  0  0  0  0  3  0  0  0  0  0  0
  188.9180  177.1960  144.8090 C   0  0  0  0  0  0  0  0  0  0  0  0
  190.9010  176.1540  147.7190 C   0  0  0  0  0  3  0  0  0  0  0  0
  189.8220  176.6250  146.9610 C   0  0  0  0  0  0  0  0  0  0  0  0
  186.1370  179.5160  147.1970 C   0  0  0  0  0  0  0  0  0  0  0  0
  185.1400  178.1640  145.1700 C   0  0  2  0  0  3  0  0  0  0  0  0
  188.7120  176.9080  147.5740 N   0  0  0  0  0  0  0  0  0  0  0  0
  184.9250  179.0030  146.4340 C   0  0  1  0  0  3  0  0  0  0  0  0
  184.7470  177.4880  146.4760 C   0  0  0  0  0  2  0  0  0  0  0  0
  189.0370  177.3080  143.3450 C   0  0  0  0  0  3  0  0  0  0  0  0
  186.0560  180.7760  147.6920 F   0  0  0  0  0  0  0  0  0  0  0  0
  188.0050  177.7080  142.6010 C   0  0  0  0  0  0  0  0  0  0  0  0
  189.9580  176.7790  145.5590 C   0  0  0  0  0  0  0  0  0  0  0  0
  187.2600  178.8280  147.4530 C   0  0  0  0  0  3  0  0  0  0  0  0
  192.1170  175.8460  147.1080 C   0  0  0  0  0  3  0  0  0  0  0  0
  191.1930  176.4640  144.9630 C   0  0  0  0  0  2  0  0  0  0  0  0
  189.6090  176.8790  139.2890 C   0  0  0  0  0  0  0  0  0  0  0  0
  187.2620  177.9070  136.6420 C   0  0  0  0  0  1  0  0  0  0  0  0
  190.9450  176.3780  138.8400 C   0  0  0  0  0  1  0  0  0  0  0  0
  186.9560  178.3870  138.9880 C   0  0  0  0  0  3  0  0  0  0  0  0
  188.1500  177.7790  141.1250 C   0  0  0  0  0  0  0  0  0  0  0  0
  188.5630  176.7170  138.3770 O   0  0  0  0  0  0  0  0  0  0  0  0
  187.1040  178.2530  140.4370 C   0  0  0  0  0  3  0  0  0  0  0  0
  189.4610  177.4220  140.5160 C   0  0  0  0  0  0  0  0  0  0  0  0
  190.6780  177.6110  141.3770 C   0  0  0  0  0  1  0  0  0  0  0  0
  187.6120  177.6880  138.0700 C   0  0  0  0  0  0  0  0  0  0  0  0
  185.7380  178.5500  142.4800 O   0  0  0  0  0  0  0  0  0  0  0  0
  185.5610  179.8790  142.8850 C   0  0  0  0  0  1  0  0  0  0  0  0
  1  3  1  0  0  0  0
  2  4  1  0  0  0  0
  3 10  1  0  0  0  0
  3  2  2  0  0  0  0
  4 18  1  0  0  0  0
  4 11  2  0  0  0  0
  5 19  2  0  0  0  0
  6  2  1  0  0  0  0
  6 17  2  0  0  0  0
  8 11  1  0  0  0  0
  8  7  2  0  0  0  0
  9 18  2  0  0  0  0
  9 15  1  0  0  0  0
 10 12  1  0  0  0  0
 10 13  1  1  0  0  0
 12 13  1  1  0  0  0
 12  9  1  0  0  0  0
 14  6  1  0  0  0  0
 16  1  1  0  0  0  0
 16 14  2  0  0  0  0
 17  8  1  0  0  0  0
 19  7  1  0  0  0  0
 20 17  1  0  0  0  0
 20  5  1  0  0  0  0
 21 28  2  0  0  0  0
 22 30  1  0  0  0  0
 23 21  1  0  0  0  0
 24 27  1  0  0  0  0
 25 16  1  0  0  0  0
 26 21  1  0  0  0  0
 27 25  2  0  0  0  0
 28 25  1  0  0  0  0
 28 29  1  0  0  0  0
 30 26  1  0  0  0  0
 30 24  2  0  0  0  0
 31 32  1  0  0  0  0
 31  1  1  0  0  0  0
M  END
>  <MODEL>
7

>  <REMARK>
 VINA RESULT:      -9.0      3.016      7.124
  Name = 
  2 active torsions:
  status: ('A' for Active; 'I' for Inactive)
    1  A    between atoms: N_1  and  O_4
    2  A    between atoms: C_16  and  C_27
                            x       y       z     vdW  Elec       q    Type
                         _______ _______ _______ _____ _____    ______ ____

>  <TORSDO>
F 2

$$$$
=
 OpenBabel10262421103D

 32 37  0  0  1  0  0  0  0  0999 V2000
  189.1210  178.0170  141.5990 N   0  0  0  0  0  0  0  0  0  0  0  0
  188.9320  178.1590  144.0110 C   0  0  0  0  0  0  0  0  0  0  0  0
  189.7290  178.1390  142.9090 C   0  0  0  0  0  0  0  0  0  0  0  0
  189.5040  178.1340  145.4040 C   0  0  0  0  0  0  0  0  0  0  0  0
  184.4150  178.2150  145.9110 C   0  0  0  0  0  3  0  0  0  0  0  0
  187.4560  178.1130  143.8570 C   0  0  0  0  0  0  0  0  0  0  0  0
  186.3490  178.3310  147.3520 C   0  0  0  0  0  3  0  0  0  0  0  0
  187.2000  178.2470  146.2430 C   0  0  0  0  0  0  0  0  0  0  0  0
  191.3610  176.5440  144.9090 C   0  0  0  0  0  0  0  0  0  0  0  0
  191.2550  178.2640  142.9190 C   0  0  2  0  0  3  0  0  0  0  0  0
  188.4840  178.2580  146.4450 N   0  0  0  0  0  0  0  0  0  0  0  0
  192.0810  177.4390  143.9120 C   0  0  1  0  0  3  0  0  0  0  0  0
  191.8720  178.9330  144.1390 C   0  0  0  0  0  2  0  0  0  0  0  0
  186.8930  178.0710  142.4970 C   0  0  0  0  0  3  0  0  0  0  0  0
  191.9180  175.3310  145.1520 F   0  0  0  0  0  0  0  0  0  0  0  0
  187.6860  178.0420  141.4270 C   0  0  0  0  0  0  0  0  0  0  0  0
  186.6530  178.1570  144.9400 C   0  0  0  0  0  0  0  0  0  0  0  0
  190.2500  176.8570  145.5940 C   0  0  0  0  0  3  0  0  0  0  0  0
  184.9640  178.3130  147.1890 C   0  0  0  0  0  3  0  0  0  0  0  0
  185.2520  178.1390  144.7970 C   0  0  0  0  0  2  0  0  0  0  0  0
  185.2030  179.0980  138.7910 C   0  0  0  0  0  0  0  0  0  0  0  0
  186.5250  178.0010  135.5310 C   0  0  0  0  0  1  0  0  0  0  0  0
  183.8370  179.7070  138.7870 C   0  0  0  0  0  1  0  0  0  0  0  0
  187.5060  177.4180  137.6580 C   0  0  0  0  0  3  0  0  0  0  0  0
  187.0850  178.0320  140.0690 C   0  0  0  0  0  0  0  0  0  0  0  0
  185.9230  179.2170  137.6000 O   0  0  0  0  0  0  0  0  0  0  0  0
  187.8260  177.5110  139.0830 C   0  0  0  0  0  3  0  0  0  0  0  0
  185.6810  178.5030  139.9030 C   0  0  0  0  0  0  0  0  0  0  0  0
  184.7820  178.3700  141.0990 C   0  0  0  0  0  1  0  0  0  0  0  0
  186.6540  178.1930  136.9990 C   0  0  0  0  0  0  0  0  0  0  0  0
  189.9210  177.9050  140.5040 O   0  0  0  0  0  0  0  0  0  0  0  0
  190.4710  176.6190  140.5660 C   0  0  0  0  0  1  0  0  0  0  0  0
  1  3  1  0  0  0  0
  2  4  1  0  0  0  0
  3 10  1  0  0  0  0
  3  2  2  0  0  0  0
  4 18  1  0  0  0  0
  4 11  2  0  0  0  0
  5 19  2  0  0  0  0
  6  2  1  0  0  0  0
  6 17  2  0  0  0  0
  8 11  1  0  0  0  0
  8  7  2  0  0  0  0
  9 15  1  0  0  0  0
  9 18  2  0  0  0  0
 10 12  1  0  0  0  0
 10 13  1  1  0  0  0
 12 13  1  1  0  0  0
 12  9  1  0  0  0  0
 14  6  1  0  0  0  0
 16  1  1  0  0  0  0
 16 14  2  0  0  0  0
 17  8  1  0  0  0  0
 19  7  1  0  0  0  0
 20 17  1  0  0  0  0
 20  5  1  0  0  0  0
 21 28  2  0  0  0  0
 22 30  1  0  0  0  0
 23 21  1  0  0  0  0
 24 27  1  0  0  0  0
 25 16  1  0  0  0  0
 26 21  1  0  0  0  0
 27 25  2  0  0  0  0
 28 25  1  0  0  0  0
 28 29  1  0  0  0  0
 30 26  1  0  0  0  0
 30 24  2  0  0  0  0
 31 32  1  0  0  0  0
 31  1  1  0  0  0  0
M  END
>  <MODEL>
8

>  <REMARK>
 VINA RESULT:      -8.9      3.165      8.167
  Name = 
  2 active torsions:
  status: ('A' for Active; 'I' for Inactive)
    1  A    between atoms: N_1  and  O_4
    2  A    between atoms: C_16  and  C_27
                            x       y       z     vdW  Elec       q    Type
                         _______ _______ _______ _____ _____    ______ ____

>  <TORSDO>
F 2

$$$$
=
 OpenBabel10262421103D

 32 37  0  0  1  0  0  0  0  0999 V2000
  186.2610  178.3430  139.7810 N   0  0  0  0  0  0  0  0  0  0  0  0
  188.6480  177.9970  140.0130 C   0  0  0  0  0  0  0  0  0  0  0  0
  187.5930  178.3010  139.2100 C   0  0  0  0  0  0  0  0  0  0  0  0
  190.0330  177.7920  139.4580 C   0  0  1  0  0  3  0  0  0  0  0  0
  190.3530  177.0400  144.5070 C   0  0  0  0  0  3  0  0  0  0  0  0
  188.4330  177.7690  141.4640 C   0  0  0  0  0  0  0  0  0  0  0  0
  191.8630  177.1590  142.6260 C   0  0  0  0  0  3  0  0  0  0  0  0
  190.7910  177.4100  141.7620 C   0  0  0  0  0  0  0  0  0  0  0  0
  189.3230  176.6080  137.3810 C   0  0  0  0  0  0  0  0  0  0  0  0
  187.6840  178.6400  137.7210 C   0  0  2  0  0  3  0  0  0  0  0  0
  191.0390  177.5670  140.4960 N   0  0  0  0  0  0  0  0  0  0  0  0
  188.5370  177.7700  136.7910 C   0  0  1  0  0  3  0  0  0  0  0  0
  189.0290  179.1480  137.2220 C   0  0  0  0  0  2  0  0  0  0  0  0
  187.0680  177.9050  142.0010 C   0  0  0  0  0  3  0  0  0  0  0  0
  189.3570  175.4650  136.6510 F   0  0  0  0  0  0  0  0  0  0  0  0
  186.0420  178.1930  141.2010 C   0  0  0  0  0  0  0  0  0  0  0  0
  189.4730  177.4910  142.2760 C   0  0  0  0  0  0  0  0  0  0  0  0
  190.0110  176.6220  138.5320 C   0  0  0  0  0  3  0  0  0  0  0  0
  191.6470  176.9730  143.9920 C   0  0  0  0  0  3  0  0  0  0  0  0
  189.2760  177.2990  143.6570 C   0  0  0  0  0  3  0  0  0  0  0  0
  183.5780  179.0700  143.9190 C   0  0  0  0  0  0  0  0  0  0  0  0
  180.2580  179.3510  142.3460 C   0  0  0  0  0  1  0  0  0  0  0  0
  183.6240  179.1960  145.4090 C   0  0  0  0  0  1  0  0  0  0  0  0
  182.2360  178.5660  141.2080 C   0  0  0  0  0  3  0  0  0  0  0  0
  184.6840  178.3550  141.7800 C   0  0  0  0  0  0  0  0  0  0  0  0
  182.5150  179.7220  143.2890 O   0  0  0  0  0  0  0  0  0  0  0  0
  183.6580  178.3750  140.9210 C   0  0  0  0  0  3  0  0  0  0  0  0
  184.5360  178.3840  143.2630 C   0  0  0  0  0  0  0  0  0  0  0  0
  185.5860  177.6620  144.0580 C   0  0  0  0  0  1  0  0  0  0  0  0
  181.7320  179.1780  142.2720 C   0  0  0  0  0  0  0  0  0  0  0  0
  185.1950  178.5580  138.9620 O   0  0  0  0  0  0  0  0  0  0  0  0
  185.0730  177.3970  138.1880 C   0  0  0  0  0  1  0  0  0  0  0  0
  1 16  1  0  0  0  0
  2  6  1  0  0  0  0
  3  1  1  0  0  0  0
  3  2  2  0  0  0  0
  4 18  1  6  0  0  0
  4  2  1  0  0  0  0
  4 11  1  0  0  0  0
  6 14  1  0  0  0  0
  6 17  2  0  0  0  0
  7 19  2  0  0  0  0
  8 17  1  0  0  0  0
  8  7  1  0  0  0  0
  9 18  2  0  0  0  0
 10 13  1  1  0  0  0
 10  3  1  0  0  0  0
 11  8  2  0  0  0  0
 12 13  1  1  0  0  0
 12  9  1  0  0  0  0
 12 10  1  0  0  0  0
 15  9  1  0  0  0  0
 16 25  1  0  0  0  0
 16 14  2  0  0  0  0
 17 20  1  0  0  0  0
 19  5  1  0  0  0  0
 20  5  2  0  0  0  0
 21 23  1  0  0  0  0
 24 30  2  0  0  0  0
 25 28  1  0  0  0  0
 26 21  1  0  0  0  0
 27 24  1  0  0  0  0
 27 25  2  0  0  0  0
 28 21  2  0  0  0  0
 28 29  1  0  0  0  0
 30 22  1  0  0  0  0
 30 26  1  0  0  0  0
 31  1  1  0  0  0  0
 32 31  1  0  0  0  0
M  END
>  <MODEL>
9

>  <REMARK>
 VINA RESULT:      -8.7      2.593      5.944
  Name = 
  2 active torsions:
  status: ('A' for Active; 'I' for Inactive)
    1  A    between atoms: N_1  and  O_4
    2  A    between atoms: C_16  and  C_27
                            x       y       z     vdW  Elec       q    Type
                         _______ _______ _______ _____ _____    ______ ____

>  <TORSDO>
F 2

$$$$
