=
 OpenBabel10262419463D

 25 27  0  0  1  0  0  0  0  0999 V2000
  187.0290  177.7340  146.3530 C   0  0  1  0  0  3  0  0  0  0  0  0
  188.3830  177.1480  145.9230 C   0  0  1  0  0  3  0  0  0  0  0  0
  188.4820  178.9670  148.0630 C   0  0  0  0  0  2  0  0  0  0  0  0
  189.0120  177.5760  148.4110 C   0  0  0  0  0  2  0  0  0  0  0  0
  190.6070  176.3820  146.8810 C   0  0  0  0  0  0  0  0  0  0  0  0
  191.1730  175.4730  147.4650 O   0  0  0  0  0  0  0  0  0  0  0  0
  189.1890  178.1410  145.0760 C   0  0  0  0  0  2  0  0  0  0  0  0
  187.1180  178.8860  147.3690 C   0  0  0  0  0  2  0  0  0  0  0  0
  191.3770  177.2470  145.9310 C   0  0  0  0  0  2  0  0  0  0  0  0
  190.5400  177.5450  144.6910 C   0  0  2  0  0  3  0  0  0  0  0  0
  189.1620  176.6730  147.1740 C   0  0  2  0  0  3  0  0  0  0  0  0
  186.0750  177.9830  145.2180 C   0  0  0  0  0  0  0  0  0  0  0  0
  184.4040  178.4590  143.0140 C   0  0  0  0  0  3  0  0  0  0  0  0
  184.7670  178.4800  145.4110 C   0  0  0  0  0  0  0  0  0  0  0  0
  183.9420  178.7130  144.3070 C   0  0  0  0  0  3  0  0  0  0  0  0
  185.6980  177.9730  142.8190 C   0  0  0  0  0  3  0  0  0  0  0  0
  184.2780  178.7420  146.6850 O   0  0  0  0  0  1  0  0  0  0  0  0
  186.5300  177.7380  143.9170 C   0  0  0  0  0  3  0  0  0  0  0  0
  191.2900  178.4530  143.7210 C   0  0  0  0  0  2  0  0  0  0  0  0
  191.4450  177.8280  142.3380 C   0  0  0  0  0  2  0  0  0  0  0  0
  190.0850  177.4920  141.7500 C   0  0  1  0  0  3  0  0  0  0  0  0
  189.2280  178.5590  141.9410 F   0  0  0  0  0  0  0  0  0  0  0  0
  190.1990  177.1980  140.2910 C   0  0  0  0  0  0  0  0  0  0  0  0
  189.7820  178.1330  139.3510 O   0  0  0  0  0  0  0  0  0  0  0  0
  190.6880  176.1030  139.9100 O   0  0  0  0  0  1  0  0  0  0  0  0
  1 12  1  6  0  0  0
  1  8  1  0  0  0  0
  2  7  1  1  0  0  0
  2  1  1  0  0  0  0
  2 11  1  0  0  0  0
  3  4  1  0  0  0  0
  5 11  1  0  0  0  0
  5  6  2  0  0  0  0
  8  3  1  0  0  0  0
  9  5  1  0  0  0  0
 10 19  1  6  0  0  0
 10  7  1  0  0  0  0
 10  9  1  0  0  0  0
 11  4  1  1  0  0  0
 12 14  1  0  0  0  0
 13 15  1  0  0  0  0
 14 17  1  0  0  0  0
 15 14  2  0  0  0  0
 16 13  2  0  0  0  0
 16 18  1  0  0  0  0
 18 12  2  0  0  0  0
 20 19  1  0  0  0  0
 21 22  1  6  0  0  0
 21 20  1  0  0  0  0
 23 21  1  0  0  0  0
 24 23  2  0  0  0  0
 25 23  1  0  0  0  0
M  END
>  <MODEL>
1

>  <REMARK>
 VINA RESULT:      -9.2      0.000      0.000
  Name = 
  5 active torsions:
  status: ('A' for Active; 'I' for Inactive)
    1  A    between atoms: C_1  and  C_5
    2  A    between atoms: C_2  and  C_21
    3  A    between atoms: C_6  and  C_15
    4  A    between atoms: C_6  and  C_23
    5  A    between atoms: C_15  and  C_21
                            x       y       z     vdW  Elec       q    Type
                         _______ _______ _______ _____ _____    ______ ____

>  <TORSDO>
F 5

$$$$
=
 OpenBabel10262419463D

 25 27  0  0  1  0  0  0  0  0999 V2000
  189.9740  177.3330  144.6500 C   0  0  1  0  0  3  0  0  0  0  0  0
  189.3560  177.0240  143.2770 C   0  0  1  0  0  3  0  0  0  0  0  0
  191.5040  178.8360  143.2530 C   0  0  0  0  0  2  0  0  0  0  0  0
  191.7490  177.5790  142.4190 C   0  0  0  0  0  2  0  0  0  0  0  0
  189.9960  176.7170  140.8380 C   0  0  0  0  0  0  0  0  0  0  0  0
  190.4810  175.9410  140.0320 O   0  0  0  0  0  0  0  0  0  0  0  0
  188.4330  178.1540  142.8020 C   0  0  0  0  0  2  0  0  0  0  0  0
  190.9940  178.4850  144.6540 C   0  0  0  0  0  2  0  0  0  0  0  0
  188.9730  177.7130  140.3870 C   0  0  0  0  0  2  0  0  0  0  0  0
  187.8600  177.8340  141.4240 C   0  0  2  0  0  3  0  0  0  0  0  0
  190.4830  176.7180  142.2600 C   0  0  2  0  0  3  0  0  0  0  0  0
  188.9800  177.3840  145.7770 C   0  0  0  0  0  0  0  0  0  0  0  0
  187.0510  177.5730  147.8070 C   0  0  0  0  0  3  0  0  0  0  0  0
  189.3060  177.0280  147.1040 C   0  0  0  0  0  0  0  0  0  0  0  0
  188.3390  177.1240  148.1090 C   0  0  0  0  0  3  0  0  0  0  0  0
  186.7260  177.9300  146.4970 C   0  0  0  0  0  3  0  0  0  0  0  0
  190.5790  176.5780  147.4350 O   0  0  0  0  0  1  0  0  0  0  0  0
  187.6880  177.8380  145.4880 C   0  0  0  0  0  3  0  0  0  0  0  0
  186.8200  178.8690  141.0030 C   0  0  0  0  0  2  0  0  0  0  0  0
  185.8800  179.2480  142.1430 C   0  0  0  0  0  2  0  0  0  0  0  0
  184.8940  178.1250  142.4150 C   0  0  1  0  0  3  0  0  0  0  0  0
  184.7970  177.9200  143.7790 F   0  0  0  0  0  0  0  0  0  0  0  0
  183.5470  178.4600  141.8640 C   0  0  0  0  0  0  0  0  0  0  0  0
  182.5510  178.9560  142.6960 O   0  0  0  0  0  1  0  0  0  0  0  0
  183.3180  178.3060  140.6360 O   0  0  0  0  0  0  0  0  0  0  0  0
  1  8  1  0  0  0  0
  1 12  1  1  0  0  0
  2  7  1  6  0  0  0
  2  1  1  0  0  0  0
  3  8  1  0  0  0  0
  4  3  1  0  0  0  0
  5 11  1  0  0  0  0
  6  5  2  0  0  0  0
  9  5  1  0  0  0  0
  9 10  1  0  0  0  0
 10 19  1  6  0  0  0
 10  7  1  0  0  0  0
 11  4  1  6  0  0  0
 11  2  1  0  0  0  0
 12 14  1  0  0  0  0
 13 15  1  0  0  0  0
 14 17  1  0  0  0  0
 14 15  2  0  0  0  0
 16 13  2  0  0  0  0
 18 12  2  0  0  0  0
 18 16  1  0  0  0  0
 19 20  1  0  0  0  0
 20 21  1  0  0  0  0
 21 22  1  1  0  0  0
 23 21  1  0  0  0  0
 23 24  1  0  0  0  0
 25 23  2  0  0  0  0
M  END
>  <MODEL>
2

>  <REMARK>
 VINA RESULT:      -8.5      2.138      5.463
  Name = 
  5 active torsions:
  status: ('A' for Active; 'I' for Inactive)
    1  A    between atoms: C_1  and  C_5
    2  A    between atoms: C_2  and  C_21
    3  A    between atoms: C_6  and  C_15
    4  A    between atoms: C_6  and  C_23
    5  A    between atoms: C_15  and  C_21
                            x       y       z     vdW  Elec       q    Type
                         _______ _______ _______ _____ _____    ______ ____

>  <TORSDO>
F 5

$$$$
=
 OpenBabel10262419463D

 25 27  0  0  1  0  0  0  0  0999 V2000
  186.9380  177.7390  146.3470 C   0  0  1  0  0  3  0  0  0  0  0  0
  188.3290  177.2090  145.9650 C   0  0  1  0  0  3  0  0  0  0  0  0
  188.2400  178.8070  148.2750 C   0  0  0  0  0  2  0  0  0  0  0  0
  188.7630  177.3930  148.5240 C   0  0  0  0  0  2  0  0  0  0  0  0
  190.4860  176.3690  147.0090 C   0  0  0  0  0  0  0  0  0  0  0  0
  191.0210  175.4100  147.5430 O   0  0  0  0  0  0  0  0  0  0  0  0
  189.1810  178.2870  145.2840 C   0  0  0  0  0  2  0  0  0  0  0  0
  186.9340  178.7860  147.4750 C   0  0  0  0  0  2  0  0  0  0  0  0
  191.3130  177.3290  146.2100 C   0  0  0  0  0  2  0  0  0  0  0  0
  190.5660  177.7420  144.9450 C   0  0  2  0  0  3  0  0  0  0  0  0
  189.0200  176.6180  147.2190 C   0  0  2  0  0  3  0  0  0  0  0  0
  186.0680  178.0920  145.1730 C   0  0  0  0  0  0  0  0  0  0  0  0
  184.3440  178.7960  143.0720 C   0  0  0  0  0  3  0  0  0  0  0  0
  186.2210  177.5030  143.8990 C   0  0  0  0  0  0  0  0  0  0  0  0
  185.3590  177.8600  142.8580 C   0  0  0  0  0  3  0  0  0  0  0  0
  184.1860  179.3770  144.3320 C   0  0  0  0  0  3  0  0  0  0  0  0
  187.2210  176.5690  143.6550 O   0  0  0  0  0  1  0  0  0  0  0  0
  185.0430  179.0240  145.3770 C   0  0  0  0  0  3  0  0  0  0  0  0
  191.3730  178.7480  144.1290 C   0  0  0  0  0  2  0  0  0  0  0  0
  191.8830  178.1590  142.8170 C   0  0  0  0  0  2  0  0  0  0  0  0
  190.7500  177.4900  142.0580 C   0  0  1  0  0  3  0  0  0  0  0  0
  189.6530  178.3320  142.0380 F   0  0  0  0  0  0  0  0  0  0  0  0
  191.1640  177.1760  140.6590 C   0  0  0  0  0  0  0  0  0  0  0  0
  190.2910  176.5250  139.7970 O   0  0  0  0  0  0  0  0  0  0  0  0
  192.3060  177.5170  140.2540 O   0  0  0  0  0  1  0  0  0  0  0  0
  1 12  1  6  0  0  0
  1  8  1  0  0  0  0
  2  7  1  1  0  0  0
  2  1  1  0  0  0  0
  2 11  1  0  0  0  0
  3  4  1  0  0  0  0
  5 11  1  0  0  0  0
  5  6  2  0  0  0  0
  8  3  1  0  0  0  0
  9  5  1  0  0  0  0
 10 19  1  1  0  0  0
 10  7  1  0  0  0  0
 10  9  1  0  0  0  0
 11  4  1  1  0  0  0
 12 18  1  0  0  0  0
 13 16  1  0  0  0  0
 14 12  2  0  0  0  0
 15 13  2  0  0  0  0
 15 14  1  0  0  0  0
 16 18  2  0  0  0  0
 17 14  1  0  0  0  0
 20 19  1  0  0  0  0
 21 22  1  6  0  0  0
 21 20  1  0  0  0  0
 23 21  1  0  0  0  0
 24 23  2  0  0  0  0
 25 23  1  0  0  0  0
M  END
>  <MODEL>
3

>  <REMARK>
 VINA RESULT:      -8.4      1.135      1.503
  Name = 
  5 active torsions:
  status: ('A' for Active; 'I' for Inactive)
    1  A    between atoms: C_1  and  C_5
    2  A    between atoms: C_2  and  C_21
    3  A    between atoms: C_6  and  C_15
    4  A    between atoms: C_6  and  C_23
    5  A    between atoms: C_15  and  C_21
                            x       y       z     vdW  Elec       q    Type
                         _______ _______ _______ _____ _____    ______ ____

>  <TORSDO>
F 5

$$$$
=
 OpenBabel10262419463D

 25 27  0  0  1  0  0  0  0  0999 V2000
  188.6230  178.1230  141.7990 C   0  0  1  0  0  3  0  0  0  0  0  0
  189.2590  178.4730  143.1530 C   0  0  1  0  0  3  0  0  0  0  0  0
  190.4100  176.2900  141.8090 C   0  0  0  0  0  2  0  0  0  0  0  0
  191.3870  177.4340  142.0740 C   0  0  0  0  0  2  0  0  0  0  0  0
  191.5080  178.5300  144.3320 C   0  0  0  0  0  0  0  0  0  0  0  0
  192.5460  179.1600  144.4550 O   0  0  0  0  0  0  0  0  0  0  0  0
  188.8010  177.5150  144.2610 C   0  0  0  0  0  2  0  0  0  0  0  0
  189.1100  176.8010  141.1790 C   0  0  0  0  0  2  0  0  0  0  0  0
  190.9890  177.7240  145.4820 C   0  0  0  0  0  2  0  0  0  0  0  0
  189.4730  177.8670  145.5850 C   0  0  2  0  0  3  0  0  0  0  0  0
  190.8010  178.5090  143.0060 C   0  0  2  0  0  3  0  0  0  0  0  0
  187.1330  178.3170  141.7470 C   0  0  0  0  0  0  0  0  0  0  0  0
  184.3410  178.6060  141.7720 C   0  0  0  0  0  3  0  0  0  0  0  0
  186.4360  178.5920  140.5510 C   0  0  0  0  0  0  0  0  0  0  0  0
  185.0450  178.7360  140.5730 C   0  0  0  0  0  3  0  0  0  0  0  0
  185.0260  178.3290  142.9560 C   0  0  0  0  0  3  0  0  0  0  0  0
  187.1080  178.7270  139.3420 O   0  0  0  0  0  1  0  0  0  0  0  0
  186.4160  178.1830  142.9420 C   0  0  0  0  0  3  0  0  0  0  0  0
  188.9140  177.0270  146.7300 C   0  0  0  0  0  2  0  0  0  0  0  0
  187.7010  177.6760  147.3900 C   0  0  0  0  0  2  0  0  0  0  0  0
  186.6310  177.9800  146.3560 C   0  0  1  0  0  3  0  0  0  0  0  0
  186.0450  176.7980  145.9410 F   0  0  0  0  0  0  0  0  0  0  0  0
  185.5870  178.8820  146.9250 C   0  0  0  0  0  0  0  0  0  0  0  0
  185.9470  179.9370  147.7540 O   0  0  0  0  0  1  0  0  0  0  0  0
  184.3760  178.6940  146.6400 O   0  0  0  0  0  0  0  0  0  0  0  0
  1 12  1  1  0  0  0
  1  2  1  0  0  0  0
  2  7  1  1  0  0  0
  3  4  1  0  0  0  0
  5  6  2  0  0  0  0
  5  9  1  0  0  0  0
  7 10  1  0  0  0  0
  8  1  1  0  0  0  0
  8  3  1  0  0  0  0
  9 10  1  0  0  0  0
 10 19  1  1  0  0  0
 11  4  1  1  0  0  0
 11  2  1  0  0  0  0
 11  5  1  0  0  0  0
 12 18  1  0  0  0  0
 13 16  1  0  0  0  0
 14 15  1  0  0  0  0
 14 12  2  0  0  0  0
 15 13  2  0  0  0  0
 17 14  1  0  0  0  0
 18 16  2  0  0  0  0
 19 20  1  0  0  0  0
 21 22  1  1  0  0  0
 21 23  1  0  0  0  0
 21 20  1  0  0  0  0
 23 24  1  0  0  0  0
 25 23  2  0  0  0  0
M  END
>  <MODEL>
4

>  <REMARK>
 VINA RESULT:      -8.4      2.095      5.394
  Name = 
  5 active torsions:
  status: ('A' for Active; 'I' for Inactive)
    1  A    between atoms: C_1  and  C_5
    2  A    between atoms: C_2  and  C_21
    3  A    between atoms: C_6  and  C_15
    4  A    between atoms: C_6  and  C_23
    5  A    between atoms: C_15  and  C_21
                            x       y       z     vdW  Elec       q    Type
                         _______ _______ _______ _____ _____    ______ ____

>  <TORSDO>
F 5

$$$$
=
 OpenBabel10262419463D

 25 27  0  0  1  0  0  0  0  0999 V2000
  186.8270  177.5560  144.7460 C   0  0  1  0  0  3  0  0  0  0  0  0
  187.5810  177.0050  143.5260 C   0  0  1  0  0  3  0  0  0  0  0  0
  189.1700  178.3310  145.4260 C   0  0  0  0  0  2  0  0  0  0  0  0
  189.5690  176.8740  145.1990 C   0  0  0  0  0  2  0  0  0  0  0  0
  189.7950  175.9450  142.8750 C   0  0  0  0  0  0  0  0  0  0  0  0
  190.4360  174.9070  142.8810 O   0  0  0  0  0  0  0  0  0  0  0  0
  187.9120  178.1110  142.5150 C   0  0  0  0  0  2  0  0  0  0  0  0
  187.6620  178.4660  145.6640 C   0  0  0  0  0  2  0  0  0  0  0  0
  190.0190  176.9480  141.7850 C   0  0  0  0  0  2  0  0  0  0  0  0
  188.6870  177.5400  141.3310 C   0  0  2  0  0  3  0  0  0  0  0  0
  188.8430  176.2410  143.9980 C   0  0  2  0  0  3  0  0  0  0  0  0
  185.4530  178.0830  144.4380 C   0  0  0  0  0  0  0  0  0  0  0  0
  182.9330  179.0960  143.7300 C   0  0  0  0  0  3  0  0  0  0  0  0
  184.5720  178.5570  145.4330 C   0  0  0  0  0  0  0  0  0  0  0  0
  183.3180  179.0580  145.0720 C   0  0  0  0  0  3  0  0  0  0  0  0
  183.8040  178.6330  142.7420 C   0  0  0  0  0  3  0  0  0  0  0  0
  184.9260  178.5330  146.7770 O   0  0  0  0  0  1  0  0  0  0  0  0
  185.0590  178.1320  143.0950 C   0  0  0  0  0  3  0  0  0  0  0  0
  188.8910  178.5910  140.2430 C   0  0  0  0  0  2  0  0  0  0  0  0
  189.6110  178.0320  139.0200 C   0  0  0  0  0  2  0  0  0  0  0  0
  188.9220  178.4850  137.7440 C   0  0  1  0  0  3  0  0  0  0  0  0
  189.6250  178.0120  136.6520 F   0  0  0  0  0  0  0  0  0  0  0  0
  187.5190  177.9780  137.6930 C   0  0  0  0  0  0  0  0  0  0  0  0
  186.4500  178.8600  137.7890 O   0  0  0  0  0  1  0  0  0  0  0  0
  187.3040  176.7470  137.5470 O   0  0  0  0  0  0  0  0  0  0  0  0
  1 12  1  6  0  0  0
  1  8  1  0  0  0  0
  2  7  1  6  0  0  0
  2 11  1  0  0  0  0
  2  1  1  0  0  0  0
  3  8  1  0  0  0  0
  4  3  1  0  0  0  0
  5  6  2  0  0  0  0
  5 11  1  0  0  0  0
  9  5  1  0  0  0  0
 10 19  1  6  0  0  0
 10  9  1  0  0  0  0
 10  7  1  0  0  0  0
 11  4  1  1  0  0  0
 12 14  1  0  0  0  0
 13 15  1  0  0  0  0
 14 17  1  0  0  0  0
 15 14  2  0  0  0  0
 16 18  1  0  0  0  0
 16 13  2  0  0  0  0
 18 12  2  0  0  0  0
 20 19  1  0  0  0  0
 21 22  1  6  0  0  0
 21 20  1  0  0  0  0
 23 21  1  0  0  0  0
 23 24  1  0  0  0  0
 25 23  2  0  0  0  0
M  END
>  <MODEL>
5

>  <REMARK>
 VINA RESULT:      -8.3      2.249      3.228
  Name = 
  5 active torsions:
  status: ('A' for Active; 'I' for Inactive)
    1  A    between atoms: C_1  and  C_5
    2  A    between atoms: C_2  and  C_21
    3  A    between atoms: C_6  and  C_15
    4  A    between atoms: C_6  and  C_23
    5  A    between atoms: C_15  and  C_21
                            x       y       z     vdW  Elec       q    Type
                         _______ _______ _______ _____ _____    ______ ____

>  <TORSDO>
F 5

$$$$
=
 OpenBabel10262419463D

 25 27  0  0  1  0  0  0  0  0999 V2000
  185.8590  178.0830  145.4190 C   0  0  1  0  0  3  0  0  0  0  0  0
  187.2720  177.4790  145.3990 C   0  0  1  0  0  3  0  0  0  0  0  0
  186.8260  179.4370  147.3640 C   0  0  0  0  0  2  0  0  0  0  0  0
  187.2310  178.0770  147.9310 C   0  0  0  0  0  2  0  0  0  0  0  0
  189.1590  176.7950  146.9540 C   0  0  0  0  0  0  0  0  0  0  0  0
  189.5430  175.9310  147.7260 O   0  0  0  0  0  0  0  0  0  0  0  0
  188.2820  178.4200  144.7280 C   0  0  0  0  0  2  0  0  0  0  0  0
  185.6910  179.3010  146.3440 C   0  0  0  0  0  2  0  0  0  0  0  0
  190.1600  177.6000  146.1840 C   0  0  0  0  0  2  0  0  0  0  0  0
  189.6800  177.8080  144.7510 C   0  0  2  0  0  3  0  0  0  0  0  0
  187.6910  177.0950  146.8390 C   0  0  2  0  0  3  0  0  0  0  0  0
  185.2370  178.2490  144.0600 C   0  0  0  0  0  0  0  0  0  0  0  0
  184.2070  178.5850  141.4710 C   0  0  0  0  0  3  0  0  0  0  0  0
  183.8790  178.5830  143.8730 C   0  0  0  0  0  0  0  0  0  0  0  0
  183.3740  178.7470  142.5800 C   0  0  0  0  0  3  0  0  0  0  0  0
  185.5520  178.2590  141.6520 C   0  0  0  0  0  3  0  0  0  0  0  0
  183.0250  178.7520  144.9570 O   0  0  0  0  0  1  0  0  0  0  0  0
  186.0650  178.0950  142.9410 C   0  0  0  0  0  3  0  0  0  0  0  0
  190.6680  178.6550  143.9530 C   0  0  0  0  0  2  0  0  0  0  0  0
  191.3860  177.8520  142.8730 C   0  0  0  0  0  2  0  0  0  0  0  0
  190.3940  177.3430  141.8410 C   0  0  1  0  0  3  0  0  0  0  0  0
  189.4310  178.3090  141.6160 F   0  0  0  0  0  0  0  0  0  0  0  0
  191.0850  177.0190  140.5590 C   0  0  0  0  0  0  0  0  0  0  0  0
  192.3180  177.5880  140.2630 O   0  0  0  0  0  1  0  0  0  0  0  0
  190.5550  176.2160  139.7480 O   0  0  0  0  0  0  0  0  0  0  0  0
  1 12  1  6  0  0  0
  1  8  1  0  0  0  0
  2  7  1  1  0  0  0
  2  1  1  0  0  0  0
  2 11  1  0  0  0  0
  3  4  1  0  0  0  0
  5  6  2  0  0  0  0
  7 10  1  0  0  0  0
  8  3  1  0  0  0  0
  9  5  1  0  0  0  0
 10 19  1  6  0  0  0
 10  9  1  0  0  0  0
 11  5  1  0  0  0  0
 11  4  1  1  0  0  0
 13 16  2  0  0  0  0
 13 15  1  0  0  0  0
 14 12  1  0  0  0  0
 14 17  1  0  0  0  0
 15 14  2  0  0  0  0
 16 18  1  0  0  0  0
 18 12  2  0  0  0  0
 20 19  1  0  0  0  0
 21 22  1  6  0  0  0
 21 20  1  0  0  0  0
 23 21  1  0  0  0  0
 24 23  1  0  0  0  0
 25 23  2  0  0  0  0
M  END
>  <MODEL>
6

>  <REMARK>
 VINA RESULT:      -8.1      1.117      1.462
  Name = 
  5 active torsions:
  status: ('A' for Active; 'I' for Inactive)
    1  A    between atoms: C_1  and  C_5
    2  A    between atoms: C_2  and  C_21
    3  A    between atoms: C_6  and  C_15
    4  A    between atoms: C_6  and  C_23
    5  A    between atoms: C_15  and  C_21
                            x       y       z     vdW  Elec       q    Type
                         _______ _______ _______ _____ _____    ______ ____

>  <TORSDO>
F 5

$$$$
=
 OpenBabel10262419463D

 25 27  0  0  1  0  0  0  0  0999 V2000
  189.4210  177.6950  145.8290 C   0  0  1  0  0  3  0  0  0  0  0  0
  188.1170  178.5060  145.7940 C   0  0  1  0  0  3  0  0  0  0  0  0
  188.2230  176.4770  147.7350 C   0  0  0  0  0  2  0  0  0  0  0  0
  188.0180  177.8750  148.3160 C   0  0  0  0  0  2  0  0  0  0  0  0
  186.3250  179.4480  147.3280 C   0  0  0  0  0  0  0  0  0  0  0  0
  186.0620  180.3490  148.1070 O   0  0  0  0  0  0  0  0  0  0  0  0
  186.9890  177.7390  145.0920 C   0  0  0  0  0  2  0  0  0  0  0  0
  189.3850  176.4530  146.7370 C   0  0  0  0  0  2  0  0  0  0  0  0
  185.2290  178.8150  146.5290 C   0  0  0  0  0  2  0  0  0  0  0  0
  185.6990  178.5550  145.1000 C   0  0  2  0  0  3  0  0  0  0  0  0
  187.7330  178.9300  147.2330 C   0  0  2  0  0  3  0  0  0  0  0  0
  190.0360  177.4550  144.4780 C   0  0  0  0  0  0  0  0  0  0  0  0
  191.1490  176.8710  141.9680 C   0  0  0  0  0  3  0  0  0  0  0  0
  191.0180  178.3020  143.9200 C   0  0  0  0  0  0  0  0  0  0  0  0
  191.5660  178.0040  142.6690 C   0  0  0  0  0  3  0  0  0  0  0  0
  190.1810  176.0280  142.5180 C   0  0  0  0  0  3  0  0  0  0  0  0
  191.4550  179.4370  144.5940 O   0  0  0  0  0  1  0  0  0  0  0  0
  189.6300  176.3190  143.7690 C   0  0  0  0  0  3  0  0  0  0  0  0
  184.6100  177.8790  144.2730 C   0  0  0  0  0  2  0  0  0  0  0  0
  184.0230  178.8060  143.2130 C   0  0  0  0  0  2  0  0  0  0  0  0
  184.2580  178.2410  141.8220 C   0  0  1  0  0  3  0  0  0  0  0  0
  183.0590  178.2000  141.1360 F   0  0  0  0  0  0  0  0  0  0  0  0
  185.2360  179.0810  141.0690 C   0  0  0  0  0  0  0  0  0  0  0  0
  184.9220  179.5590  139.8030 O   0  0  0  0  0  0  0  0  0  0  0  0
  186.3440  179.3680  141.5910 O   0  0  0  0  0  1  0  0  0  0  0  0
  1 12  1  6  0  0  0
  1  8  1  0  0  0  0
  2  7  1  1  0  0  0
  2  1  1  0  0  0  0
  2 11  1  0  0  0  0
  3  4  1  0  0  0  0
  5  6  2  0  0  0  0
  7 10  1  0  0  0  0
  8  3  1  0  0  0  0
  9  5  1  0  0  0  0
 10 19  1  6  0  0  0
 10  9  1  0  0  0  0
 11  5  1  0  0  0  0
 11  4  1  1  0  0  0
 13 16  2  0  0  0  0
 13 15  1  0  0  0  0
 14 12  1  0  0  0  0
 14 17  1  0  0  0  0
 15 14  2  0  0  0  0
 16 18  1  0  0  0  0
 18 12  2  0  0  0  0
 20 19  1  0  0  0  0
 21 22  1  6  0  0  0
 21 20  1  0  0  0  0
 23 25  1  0  0  0  0
 23 21  1  0  0  0  0
 24 23  2  0  0  0  0
M  END
>  <MODEL>
7

>  <REMARK>
 VINA RESULT:      -7.7      2.427      5.311
  Name = 
  5 active torsions:
  status: ('A' for Active; 'I' for Inactive)
    1  A    between atoms: C_1  and  C_5
    2  A    between atoms: C_2  and  C_21
    3  A    between atoms: C_6  and  C_15
    4  A    between atoms: C_6  and  C_23
    5  A    between atoms: C_15  and  C_21
                            x       y       z     vdW  Elec       q    Type
                         _______ _______ _______ _____ _____    ______ ____

>  <TORSDO>
F 5

$$$$
=
 OpenBabel10262419463D

 25 27  0  0  1  0  0  0  0  0999 V2000
  181.5440  178.4300  140.1700 C   0  0  1  0  0  3  0  0  0  0  0  0
  182.9900  178.9470  140.1970 C   0  0  1  0  0  3  0  0  0  0  0  0
  182.6940  176.2330  139.5330 C   0  0  0  0  0  2  0  0  0  0  0  0
  183.3720  177.0630  138.4430 C   0  0  0  0  0  2  0  0  0  0  0  0
  185.2180  178.6710  139.0090 C   0  0  0  0  0  0  0  0  0  0  0  0
  185.8530  178.9730  138.0120 O   0  0  0  0  0  0  0  0  0  0  0  0
  183.7210  178.5260  141.4790 C   0  0  0  0  0  2  0  0  0  0  0  0
  181.4070  176.9030  140.0250 C   0  0  0  0  0  2  0  0  0  0  0  0
  185.9380  178.4180  140.2980 C   0  0  0  0  0  2  0  0  0  0  0  0
  185.1620  179.0260  141.4630 C   0  0  2  0  0  3  0  0  0  0  0  0
  183.7300  178.4820  138.9180 C   0  0  2  0  0  3  0  0  0  0  0  0
  180.6520  179.0330  141.2190 C   0  0  0  0  0  0  0  0  0  0  0  0
  178.9640  180.0280  143.2280 C   0  0  0  0  0  3  0  0  0  0  0  0
  180.0230  180.2870  141.0630 C   0  0  0  0  0  0  0  0  0  0  0  0
  179.1850  180.7760  142.0690 C   0  0  0  0  0  3  0  0  0  0  0  0
  179.5800  178.7850  143.3840 C   0  0  0  0  0  3  0  0  0  0  0  0
  180.2230  181.0540  139.9210 O   0  0  0  0  0  1  0  0  0  0  0  0
  180.4180  178.2890  142.3820 C   0  0  0  0  0  3  0  0  0  0  0  0
  185.8580  178.7530  142.7940 C   0  0  0  0  0  2  0  0  0  0  0  0
  184.9060  178.1870  143.8440 C   0  0  0  0  0  2  0  0  0  0  0  0
  184.7550  179.1570  145.0030 C   0  0  1  0  0  3  0  0  0  0  0  0
  183.4210  179.2490  145.3530 F   0  0  0  0  0  0  0  0  0  0  0  0
  185.5500  178.7000  146.1810 C   0  0  0  0  0  0  0  0  0  0  0  0
  186.2780  177.5180  146.1210 O   0  0  0  0  0  0  0  0  0  0  0  0
  185.5720  179.3970  147.2290 O   0  0  0  0  0  1  0  0  0  0  0  0
  1  2  1  0  0  0  0
  1 12  1  1  0  0  0
  2  7  1  1  0  0  0
  3  8  1  0  0  0  0
  4  3  1  0  0  0  0
  5  9  1  0  0  0  0
  6  5  2  0  0  0  0
  8  1  1  0  0  0  0
  9 10  1  0  0  0  0
 10  7  1  0  0  0  0
 10 19  1  1  0  0  0
 11  4  1  1  0  0  0
 11  5  1  0  0  0  0
 11  2  1  0  0  0  0
 12 18  1  0  0  0  0
 13 16  1  0  0  0  0
 14 12  2  0  0  0  0
 14 15  1  0  0  0  0
 15 13  2  0  0  0  0
 17 14  1  0  0  0  0
 18 16  2  0  0  0  0
 19 20  1  0  0  0  0
 20 21  1  0  0  0  0
 21 22  1  1  0  0  0
 21 23  1  0  0  0  0
 23 25  1  0  0  0  0
 24 23  2  0  0  0  0
M  END
>  <MODEL>
8

>  <REMARK>
 VINA RESULT:      -7.5      4.092      8.040
  Name = 
  5 active torsions:
  status: ('A' for Active; 'I' for Inactive)
    1  A    between atoms: C_1  and  C_5
    2  A    between atoms: C_2  and  C_21
    3  A    between atoms: C_6  and  C_15
    4  A    between atoms: C_6  and  C_23
    5  A    between atoms: C_15  and  C_21
                            x       y       z     vdW  Elec       q    Type
                         _______ _______ _______ _____ _____    ______ ____

>  <TORSDO>
F 5

$$$$
=
 OpenBabel10262419463D

 25 27  0  0  1  0  0  0  0  0999 V2000
  189.7530  177.4360  144.6020 C   0  0  1  0  0  3  0  0  0  0  0  0
  189.1230  177.1280  143.2350 C   0  0  1  0  0  3  0  0  0  0  0  0
  191.3010  178.9020  143.1860 C   0  0  0  0  0  2  0  0  0  0  0  0
  191.5200  177.6360  142.3600 C   0  0  0  0  0  2  0  0  0  0  0  0
  189.7440  176.7920  140.7950 C   0  0  0  0  0  0  0  0  0  0  0  0
  190.2110  176.0020  139.9920 O   0  0  0  0  0  0  0  0  0  0  0  0
  188.2160  178.2690  142.7570 C   0  0  0  0  0  2  0  0  0  0  0  0
  190.7930  178.5700  144.5920 C   0  0  0  0  0  2  0  0  0  0  0  0
  188.7350  177.8020  140.3420 C   0  0  0  0  0  2  0  0  0  0  0  0
  187.6300  177.9490  141.3850 C   0  0  2  0  0  3  0  0  0  0  0  0
  190.2390  176.7960  142.2140 C   0  0  2  0  0  3  0  0  0  0  0  0
  188.7670  177.5110  145.7350 C   0  0  0  0  0  0  0  0  0  0  0  0
  186.8440  177.7350  147.7670 C   0  0  0  0  0  3  0  0  0  0  0  0
  189.1270  177.2920  147.0820 C   0  0  0  0  0  0  0  0  0  0  0  0
  188.1630  177.4040  148.0880 C   0  0  0  0  0  3  0  0  0  0  0  0
  186.4850  177.9580  146.4370 C   0  0  0  0  0  3  0  0  0  0  0  0
  190.4310  176.9610  147.4320 O   0  0  0  0  0  1  0  0  0  0  0  0
  187.4440  177.8490  145.4260 C   0  0  0  0  0  3  0  0  0  0  0  0
  186.6050  178.9980  140.9620 C   0  0  0  0  0  2  0  0  0  0  0  0
  185.2040  178.4150  140.8060 C   0  0  0  0  0  2  0  0  0  0  0  0
  184.6310  178.7630  139.4430 C   0  0  1  0  0  3  0  0  0  0  0  0
  184.5560  180.1380  139.3150 F   0  0  0  0  0  0  0  0  0  0  0  0
  185.4860  178.2070  138.3530 C   0  0  0  0  0  0  0  0  0  0  0  0
  186.4470  179.0010  137.7390 O   0  0  0  0  0  0  0  0  0  0  0  0
  185.3450  177.0080  137.9980 O   0  0  0  0  0  1  0  0  0  0  0  0
  1 12  1  1  0  0  0
  2  7  1  6  0  0  0
  2  1  1  0  0  0  0
  3  8  1  0  0  0  0
  4  3  1  0  0  0  0
  5 11  1  0  0  0  0
  6  5  2  0  0  0  0
  8  1  1  0  0  0  0
  9  5  1  0  0  0  0
  9 10  1  0  0  0  0
 10 19  1  6  0  0  0
 10  7  1  0  0  0  0
 11  4  1  6  0  0  0
 11  2  1  0  0  0  0
 12 14  1  0  0  0  0
 13 15  1  0  0  0  0
 14 17  1  0  0  0  0
 14 15  2  0  0  0  0
 16 13  2  0  0  0  0
 18 12  2  0  0  0  0
 18 16  1  0  0  0  0
 20 19  1  0  0  0  0
 21 22  1  6  0  0  0
 21 20  1  0  0  0  0
 23 21  1  0  0  0  0
 24 23  2  0  0  0  0
 25 23  1  0  0  0  0
M  END
>  <MODEL>
9

>  <REMARK>
 VINA RESULT:      -7.4      2.352      5.160
  Name = 
  5 active torsions:
  status: ('A' for Active; 'I' for Inactive)
    1  A    between atoms: C_1  and  C_5
    2  A    between atoms: C_2  and  C_21
    3  A    between atoms: C_6  and  C_15
    4  A    between atoms: C_6  and  C_23
    5  A    between atoms: C_15  and  C_21
                            x       y       z     vdW  Elec       q    Type
                         _______ _______ _______ _____ _____    ______ ____

>  <TORSDO>
F 5

$$$$
