=
 OpenBabel10262420283D

 55 58  0  0  1  0  0  0  0  0999 V2000
  183.1730  178.5880  142.0500 C   0  0  0  0  0  0  0  0  0  0  0  0
  185.3400  179.0370  140.8850 C   0  0  0  0  0  1  0  0  0  0  0  0
  184.5350  179.0400  142.0950 N   0  0  0  0  0  0  0  0  0  0  0  0
  182.7280  178.0220  141.0130 O   0  0  0  0  0  0  0  0  0  0  0  0
  182.2600  178.7770  143.2170 C   0  0  0  0  0  2  0  0  0  0  0  0
  180.9720  179.4350  142.7630 C   0  0  0  0  0  2  0  0  0  0  0  0
  179.7880  178.5000  142.9530 C   0  0  0  0  0  2  0  0  0  0  0  0
  179.3870  177.8790  141.6270 C   0  0  0  0  0  2  0  0  0  0  0  0
  179.5950  178.8780  140.4980 C   0  0  0  0  0  2  0  0  0  0  0  0
  179.4990  178.1880  139.1480 C   0  0  0  0  0  2  0  0  0  0  0  0
  180.7690  178.2630  138.4360 N   0  0  0  0  0  0  0  0  0  0  0  0
  180.6760  181.2080  136.2990 O   0  0  0  0  0  0  0  0  0  0  0  0
  180.6210  179.1200  137.3210 N   0  0  0  0  0  2  0  0  0  0  0  0
  180.9310  180.5230  137.3180 C   0  0  0  0  0  0  0  0  0  0  0  0
  181.5100  181.1390  138.4290 O   0  0  0  0  0  1  0  0  0  0  0  0
  181.1090  176.9230  137.9580 C   0  0  0  0  0  2  0  0  0  0  0  0
  181.5000  174.5380  136.0340 N   0  0  0  0  0  0  0  0  0  0  0  0
  183.8170  177.4390  137.8140 F   0  0  0  0  0  0  0  0  0  0  0  0
  181.7930  176.9850  136.5910 C   0  0  1  0  0  3  0  0  0  0  0  0
  184.4730  172.7310  137.5690 C   0  0  0  0  0  2  0  0  0  0  0  0
  183.8530  177.5540  135.5760 F   0  0  0  0  0  0  0  0  0  0  0  0
  183.3300  176.8540  136.6500 C   0  0  0  0  0  0  0  0  0  0  0  0
  180.3590  174.0460  136.7930 C   0  0  0  0  0  1  0  0  0  0  0  0
  185.5630  173.6980  137.1300 C   0  0  0  0  0  2  0  0  0  0  0  0
  185.0880  175.1320  137.3180 C   0  0  0  0  0  2  0  0  0  0  0  0
  182.6960  174.3760  136.8820 C   0  0  2  0  0  3  0  0  0  0  0  0
  183.8010  175.3890  136.5230 C   0  0  1  0  0  3  0  0  0  0  0  0
  183.2230  172.9470  136.7250 C   0  0  0  0  0  2  0  0  0  0  0  0
  181.1970  175.9310  135.6500 C   0  0  0  0  0  2  0  0  0  0  0  0
  185.1240  179.5760  143.3120 C   0  0  0  0  0  2  0  0  0  0  0  0
  185.4450  178.4460  144.2770 C   0  0  0  0  0  2  0  0  0  0  0  0
  186.5840  177.5880  143.7600 C   0  0  0  0  0  2  0  0  0  0  0  0
  187.8140  178.4440  143.4730 C   0  0  0  0  0  2  0  0  0  0  0  0
  191.5660  178.3950  144.3120 C   0  0  0  0  0  3  0  0  0  0  0  0
  190.4390  176.9010  145.8460 C   0  0  1  0  0  3  0  0  0  0  0  0
  190.3060  178.6830  143.5280 C   0  0  0  0  0  2  0  0  0  0  0  0
  189.1130  177.5290  145.4010 C   0  0  0  0  0  2  0  0  0  0  0  0
  191.5880  177.6400  145.3600 N   0  0  0  0  0  0  0  0  0  0  0  0
  189.1260  177.7720  143.8900 C   0  0  1  0  0  0  0  0  0  0  0  0
  190.5310  176.6930  147.3560 C   0  0  1  0  0  3  0  0  0  0  0  0
  191.8940  176.8770  147.8270 N   0  0  0  0  0  1  0  0  0  0  0  0
  189.5940  177.6310  148.0940 C   0  0  0  0  0  1  0  0  0  0  0  0
  189.2960  176.1500  143.0290 S   0  0  0  0  0  0  0  0  0  0  0  0
  191.1790  177.7610  139.1650 C   0  0  0  0  0  3  0  0  0  0  0  0
  191.9800  177.1900  140.1530 C   0  0  0  0  0  3  0  0  0  0  0  0
  187.8600  177.4430  140.6890 F   0  0  0  0  0  0  0  0  0  0  0  0
  190.0060  176.7460  141.4930 C   0  0  0  0  0  0  0  0  0  0  0  0
  191.3920  176.6830  141.3150 C   0  0  0  0  0  3  0  0  0  0  0  0
  189.2020  177.3340  140.5040 C   0  0  0  0  0  0  0  0  0  0  0  0
  189.7850  177.8330  139.3290 C   0  0  0  0  0  0  0  0  0  0  0  0
  188.9520  178.3900  138.3450 O   0  0  0  0  0  0  0  0  0  0  0  0
  186.8970  178.2240  137.1200 C   0  0  0  0  0  1  0  0  0  0  0  0
  188.1570  176.3200  137.6980 F   0  0  0  0  0  0  0  0  0  0  0  0
  189.0430  177.7450  136.0170 C   0  0  0  0  0  1  0  0  0  0  0  0
  188.2810  177.6460  137.3250 C   0  0  0  0  0  0  0  0  0  0  0  0
  1  3  1  0  0  0  0
  1  5  1  0  0  0  0
  2  3  1  0  0  0  0
  3 30  1  0  0  0  0
  4  1  2  0  0  0  0
  6  7  1  0  0  0  0
  6  5  1  0  0  0  0
  8  7  1  0  0  0  0
  9  8  1  0  0  0  0
 10  9  1  0  0  0  0
 11 10  1  0  0  0  0
 12 14  2  0  0  0  0
 13 11  1  0  0  0  0
 14 13  1  0  0  0  0
 14 15  1  0  0  0  0
 16 11  1  0  0  0  0
 17 23  1  0  0  0  0
 17 26  1  0  0  0  0
 19 22  1  0  0  0  0
 19 16  1  1  0  0  0
 21 22  1  0  0  0  0
 22 18  1  0  0  0  0
 24 25  1  0  0  0  0
 24 20  1  0  0  0  0
 26 28  1  6  0  0  0
 27 22  1  0  0  0  0
 27 26  1  0  0  0  0
 27 25  1  1  0  0  0
 28 20  1  0  0  0  0
 29 17  1  0  0  0  0
 29 19  1  0  0  0  0
 30 31  1  0  0  0  0
 32 31  1  0  0  0  0
 33 32  1  0  0  0  0
 34 38  2  0  0  0  0
 35 40  1  1  0  0  0
 36 39  1  0  0  0  0
 36 34  1  0  0  0  0
 37 35  1  0  0  0  0
 38 35  1  0  0  0  0
 39 33  1  6  0  0  0
 39 37  1  0  0  0  0
 40 41  1  0  0  0  0
 40 42  1  1  0  0  0
 43 39  1  0  0  0  0
 44 50  2  0  0  0  0
 44 45  1  0  0  0  0
 45 48  2  0  0  0  0
 47 43  1  0  0  0  0
 48 47  1  0  0  0  0
 49 46  1  0  0  0  0
 49 47  2  0  0  0  0
 50 49  1  0  0  0  0
 51 50  1  0  0  0  0
 52 55  1  0  0  0  0
 54 55  1  0  0  0  0
 55 53  1  0  0  0  0
 55 51  1  0  0  0  0
M  END
>  <MODEL>
1

>  <REMARK>
 VINA RESULT:      -6.9      0.000      0.000
  Name = 
  20 active torsions:
  status: ('A' for Active; 'I' for Inactive)
    1  A    between atoms: C_2  and  C_28
    2  A    between atoms: C_2  and  N_44
    3  A    between atoms: C_6  and  C_46
    4  A    between atoms: N_8  and  N_22
    5  A    between atoms: C_10  and  C_32
    6  A    between atoms: C_17  and  S_36
    7  A    between atoms: O_19  and  C_40
    8  A    between atoms: O_19  and  C_45
    9  A    between atoms: N_22  and  C_35
   10  A    between atoms: N_22  and  C_46
   11  A    between atoms: C_24  and  C_31
   12  A    between atoms: C_27  and  C_31
   13  A    between atoms: C_27  and  C_54
   14  A    between atoms: C_28  and  C_49
   15  A    between atoms: C_33  and  C_49
   16  A    between atoms: C_33  and  C_52
   17  A    between atoms: C_35  and  C_43
   18  A    between atoms: S_36  and  C_52
   19  A    between atoms: C_43  and  C_51
   20  A    between atoms: C_51  and  C_54
                            x       y       z     vdW  Elec       q    Type
                         _______ _______ _______ _____ _____    ______ ____

>  <TORSDO>
F 20

$$$$
=
 OpenBabel10262420283D

 55 58  0  0  1  0  0  0  0  0999 V2000
  186.9080  177.5470  145.2430 C   0  0  0  0  0  0  0  0  0  0  0  0
  184.9260  179.0730  145.2620 C   0  0  0  0  0  1  0  0  0  0  0  0
  185.8480  178.2140  144.5390 N   0  0  0  0  0  0  0  0  0  0  0  0
  186.9340  177.5600  146.5040 O   0  0  0  0  0  0  0  0  0  0  0  0
  187.9930  176.8340  144.5050 C   0  0  0  0  0  2  0  0  0  0  0  0
  189.3470  177.3230  144.9780 C   0  0  0  0  0  2  0  0  0  0  0  0
  190.4620  176.7580  144.1130 C   0  0  0  0  0  2  0  0  0  0  0  0
  189.8980  176.2190  142.8110 C   0  0  0  0  0  2  0  0  0  0  0  0
  189.9880  177.2790  141.7230 C   0  0  0  0  0  2  0  0  0  0  0  0
  191.0500  176.9100  140.7020 C   0  0  0  0  0  2  0  0  0  0  0  0
  190.5660  177.1390  139.3450 N   0  0  0  0  0  0  0  0  0  0  0  0
  187.1460  178.3260  138.9690 O   0  0  0  0  0  1  0  0  0  0  0  0
  189.1550  177.2260  139.3690 N   0  0  0  0  0  2  0  0  0  0  0  0
  188.3900  178.3070  138.8110 C   0  0  0  0  0  0  0  0  0  0  0  0
  189.0060  179.3350  138.0960 O   0  0  0  0  0  0  0  0  0  0  0  0
  190.9530  175.9960  138.5190 C   0  0  0  0  0  2  0  0  0  0  0  0
  191.3160  174.3700  135.9170 N   0  0  0  0  0  0  0  0  0  0  0  0
  193.6940  176.2770  138.6860 F   0  0  0  0  0  0  0  0  0  0  0  0
  191.7410  176.4500  137.2890 C   0  0  1  0  0  3  0  0  0  0  0  0
  194.0280  171.8850  136.8800 C   0  0  0  0  0  2  0  0  0  0  0  0
  193.9070  177.1330  136.6260 F   0  0  0  0  0  0  0  0  0  0  0  0
  193.2560  176.1650  137.3700 C   0  0  0  0  0  0  0  0  0  0  0  0
  190.0890  173.7610  136.4090 C   0  0  0  0  0  1  0  0  0  0  0  0
  195.2150  172.8380  136.8480 C   0  0  0  0  0  2  0  0  0  0  0  0
  194.8310  174.1630  137.4920 C   0  0  0  0  0  2  0  0  0  0  0  0
  192.4310  173.8230  136.7130 C   0  0  2  0  0  3  0  0  0  0  0  0
  193.6290  174.7910  136.7740 C   0  0  1  0  0  3  0  0  0  0  0  0
  192.8640  172.4870  136.1030 C   0  0  0  0  0  2  0  0  0  0  0  0
  191.1430  175.8330  136.0180 C   0  0  0  0  0  2  0  0  0  0  0  0
  185.7070  178.1140  143.0950 C   0  0  0  0  0  2  0  0  0  0  0  0
  184.4900  178.9000  142.6350 C   0  0  0  0  0  2  0  0  0  0  0  0
  184.3450  178.8560  141.1260 C   0  0  0  0  0  2  0  0  0  0  0  0
  183.3270  177.7970  140.7140 C   0  0  0  0  0  2  0  0  0  0  0  0
  180.1630  179.6590  141.8550 C   0  0  0  0  0  3  0  0  0  0  0  0
  180.5880  180.2560  139.5490 C   0  0  1  0  0  3  0  0  0  0  0  0
  181.2980  178.6620  141.9000 C   0  0  0  0  0  2  0  0  0  0  0  0
  181.9870  179.6480  139.7060 C   0  0  0  0  0  2  0  0  0  0  0  0
  179.8990  180.3830  140.8200 N   0  0  0  0  0  0  0  0  0  0  0  0
  181.9140  178.3600  140.5270 C   0  0  1  0  0  0  0  0  0  0  0  0
  180.5870  181.5850  138.7980 C   0  0  1  0  0  3  0  0  0  0  0  0
  181.9360  181.9760  138.4250 N   0  0  0  0  0  1  0  0  0  0  0  0
  179.7050  181.5130  137.5650 C   0  0  0  0  0  1  0  0  0  0  0  0
  180.8700  177.1380  139.6250 S   0  0  0  0  0  0  0  0  0  0  0  0
  183.0530  177.0810  135.5870 C   0  0  0  0  0  3  0  0  0  0  0  0
  181.9680  177.9340  135.7890 C   0  0  0  0  0  3  0  0  0  0  0  0
  183.2500  175.4220  138.8500 F   0  0  0  0  0  0  0  0  0  0  0  0
  181.7650  177.1310  138.0690 C   0  0  0  0  0  0  0  0  0  0  0  0
  181.3260  177.9580  137.0300 C   0  0  0  0  0  3  0  0  0  0  0  0
  182.8480  176.2630  137.8610 C   0  0  0  0  0  0  0  0  0  0  0  0
  183.5040  176.2440  136.6220 C   0  0  0  0  0  0  0  0  0  0  0  0
  184.6030  175.3850  136.4520 O   0  0  0  0  0  0  0  0  0  0  0  0
  186.8850  175.1330  137.1430 C   0  0  0  0  0  1  0  0  0  0  0  0
  186.0510  177.1810  136.3340 F   0  0  0  0  0  0  0  0  0  0  0  0
  186.3320  175.4220  134.7640 C   0  0  0  0  0  1  0  0  0  0  0  0
  185.9390  175.8120  136.1760 C   0  0  0  0  0  0  0  0  0  0  0  0
  1  4  2  0  0  0  0
  3  1  1  0  0  0  0
  3  2  1  0  0  0  0
  5  6  1  0  0  0  0
  5  1  1  0  0  0  0
  7  6  1  0  0  0  0
  8  7  1  0  0  0  0
  9  8  1  0  0  0  0
 10  9  1  0  0  0  0
 11 13  1  0  0  0  0
 11 10  1  0  0  0  0
 14 12  1  0  0  0  0
 14 13  1  0  0  0  0
 15 14  2  0  0  0  0
 16 11  1  0  0  0  0
 17 29  1  0  0  0  0
 17 23  1  0  0  0  0
 17 26  1  0  0  0  0
 19 22  1  0  0  0  0
 19 16  1  1  0  0  0
 21 22  1  0  0  0  0
 22 18  1  0  0  0  0
 24 20  1  0  0  0  0
 24 25  1  0  0  0  0
 26 28  1  6  0  0  0
 26 27  1  0  0  0  0
 27 22  1  0  0  0  0
 27 25  1  1  0  0  0
 28 20  1  0  0  0  0
 29 19  1  0  0  0  0
 30  3  1  0  0  0  0
 31 30  1  0  0  0  0
 32 31  1  0  0  0  0
 33 32  1  0  0  0  0
 34 36  1  0  0  0  0
 35 40  1  1  0  0  0
 35 37  1  0  0  0  0
 35 38  1  0  0  0  0
 37 39  1  0  0  0  0
 38 34  2  0  0  0  0
 39 33  1  1  0  0  0
 39 36  1  0  0  0  0
 40 42  1  6  0  0  0
 41 40  1  0  0  0  0
 43 39  1  0  0  0  0
 44 45  2  0  0  0  0
 44 50  1  0  0  0  0
 45 48  1  0  0  0  0
 47 43  1  0  0  0  0
 48 47  2  0  0  0  0
 49 47  1  0  0  0  0
 49 46  1  0  0  0  0
 50 49  2  0  0  0  0
 51 50  1  0  0  0  0
 54 55  1  0  0  0  0
 55 53  1  0  0  0  0
 55 51  1  0  0  0  0
 55 52  1  0  0  0  0
M  END
>  <MODEL>
2

>  <REMARK>
 VINA RESULT:      -6.7      3.672      9.012
  Name = 
  20 active torsions:
  status: ('A' for Active; 'I' for Inactive)
    1  A    between atoms: C_2  and  C_28
    2  A    between atoms: C_2  and  N_44
    3  A    between atoms: C_6  and  C_46
    4  A    between atoms: N_8  and  N_22
    5  A    between atoms: C_10  and  C_32
    6  A    between atoms: C_17  and  S_36
    7  A    between atoms: O_19  and  C_40
    8  A    between atoms: O_19  and  C_45
    9  A    between atoms: N_22  and  C_35
   10  A    between atoms: N_22  and  C_46
   11  A    between atoms: C_24  and  C_31
   12  A    between atoms: C_27  and  C_31
   13  A    between atoms: C_27  and  C_54
   14  A    between atoms: C_28  and  C_49
   15  A    between atoms: C_33  and  C_49
   16  A    between atoms: C_33  and  C_52
   17  A    between atoms: C_35  and  C_43
   18  A    between atoms: S_36  and  C_52
   19  A    between atoms: C_43  and  C_51
   20  A    between atoms: C_51  and  C_54
                            x       y       z     vdW  Elec       q    Type
                         _______ _______ _______ _____ _____    ______ ____

>  <TORSDO>
F 20

$$$$
=
 OpenBabel10262420283D

 55 58  0  0  1  0  0  0  0  0999 V2000
  186.8650  177.6360  144.8520 C   0  0  0  0  0  0  0  0  0  0  0  0
  184.7430  178.9230  145.1660 C   0  0  0  0  0  1  0  0  0  0  0  0
  185.6950  178.2550  144.2940 N   0  0  0  0  0  0  0  0  0  0  0  0
  186.9810  177.5140  146.1020 O   0  0  0  0  0  0  0  0  0  0  0  0
  187.9620  177.1320  143.9720 C   0  0  0  0  0  2  0  0  0  0  0  0
  189.2790  177.7640  144.3770 C   0  0  0  0  0  2  0  0  0  0  0  0
  190.3260  177.5820  143.2890 C   0  0  0  0  0  2  0  0  0  0  0  0
  189.7930  176.6810  142.1890 C   0  0  0  0  0  2  0  0  0  0  0  0
  189.8770  177.3920  140.8460 C   0  0  0  0  0  2  0  0  0  0  0  0
  191.2700  177.2540  140.2540 C   0  0  0  0  0  2  0  0  0  0  0  0
  191.2470  176.4040  139.0690 N   0  0  0  0  0  0  0  0  0  0  0  0
  194.0950  176.7680  136.8310 O   0  0  0  0  0  0  0  0  0  0  0  0
  192.1660  176.9120  138.1220 N   0  0  0  0  0  2  0  0  0  0  0  0
  193.2920  176.1880  137.6010 C   0  0  0  0  0  0  0  0  0  0  0  0
  193.5100  174.8500  137.9340 O   0  0  0  0  0  1  0  0  0  0  0  0
  189.9030  176.4510  138.4940 C   0  0  0  0  0  2  0  0  0  0  0  0
  187.4630  176.4850  136.5990 N   0  0  0  0  0  0  0  0  0  0  0  0
  190.5170  173.9110  137.6030 F   0  0  0  0  0  0  0  0  0  0  0  0
  189.9400  176.1680  136.9910 C   0  0  1  0  0  3  0  0  0  0  0  0
  185.8320  173.1250  137.3120 C   0  0  0  0  0  2  0  0  0  0  0  0
  190.5480  174.4900  135.4380 F   0  0  0  0  0  0  0  0  0  0  0  0
  189.8700  174.6680  136.6310 C   0  0  0  0  0  0  0  0  0  0  0  0
  186.9580  177.3530  137.6540 C   0  0  0  0  0  1  0  0  0  0  0  0
  186.8220  172.2420  136.5660 C   0  0  0  0  0  2  0  0  0  0  0  0
  188.2430  172.7150  136.8400 C   0  0  0  0  0  2  0  0  0  0  0  0
  187.3800  175.0970  137.0920 C   0  0  2  0  0  3  0  0  0  0  0  0
  188.4200  174.1800  136.4200 C   0  0  1  0  0  3  0  0  0  0  0  0
  185.9670  174.5660  136.8350 C   0  0  0  0  0  2  0  0  0  0  0  0
  188.8280  176.9470  136.2770 C   0  0  0  0  0  2  0  0  0  0  0  0
  185.4610  178.2970  142.8590 C   0  0  0  0  0  2  0  0  0  0  0  0
  183.9690  178.3310  142.5760 C   0  0  0  0  0  2  0  0  0  0  0  0
  183.6910  178.7030  141.1320 C   0  0  0  0  0  2  0  0  0  0  0  0
  182.5310  177.8800  140.5780 C   0  0  0  0  0  2  0  0  0  0  0  0
  179.8640  180.5330  141.3740 C   0  0  0  0  0  3  0  0  0  0  0  0
  180.4460  180.7390  139.0340 C   0  0  1  0  0  3  0  0  0  0  0  0
  180.7390  179.3170  141.5760 C   0  0  0  0  0  2  0  0  0  0  0  0
  181.6660  179.8540  139.3140 C   0  0  0  0  0  2  0  0  0  0  0  0
  179.7880  181.1700  140.2530 N   0  0  0  0  0  0  0  0  0  0  0  0
  181.2880  178.7220  140.2720 C   0  0  1  0  0  0  0  0  0  0  0  0
  180.7600  181.9350  138.1390 C   0  0  1  0  0  3  0  0  0  0  0  0
  182.0780  182.4750  138.4310 N   0  0  0  0  0  1  0  0  0  0  0  0
  180.6660  181.5580  136.6710 C   0  0  0  0  0  1  0  0  0  0  0  0
  180.0040  177.6700  139.4720 S   0  0  0  0  0  0  0  0  0  0  0  0
  182.5380  175.7970  136.1340 C   0  0  0  0  0  3  0  0  0  0  0  0
  182.1590  177.1370  136.0620 C   0  0  0  0  0  3  0  0  0  0  0  0
  180.9990  174.8080  139.3110 F   0  0  0  0  0  0  0  0  0  0  0  0
  181.0310  176.9300  138.2000 C   0  0  0  0  0  0  0  0  0  0  0  0
  181.4060  177.7020  137.0960 C   0  0  0  0  0  3  0  0  0  0  0  0
  181.4010  175.5770  138.2650 C   0  0  0  0  0  0  0  0  0  0  0  0
  182.1670  175.0090  137.2370 C   0  0  0  0  0  0  0  0  0  0  0  0
  182.5460  173.6600  137.3420 O   0  0  0  0  0  0  0  0  0  0  0  0
  182.6650  171.3040  136.9160 C   0  0  0  0  0  1  0  0  0  0  0  0
  183.0340  172.8940  135.2190 F   0  0  0  0  0  0  0  0  0  0  0  0
  180.8090  172.6380  136.0080 C   0  0  0  0  0  1  0  0  0  0  0  0
  182.2850  172.6580  136.3570 C   0  0  0  0  0  0  0  0  0  0  0  0
  1  4  2  0  0  0  0
  3  1  1  0  0  0  0
  3  2  1  0  0  0  0
  5  6  1  0  0  0  0
  5  1  1  0  0  0  0
  7  6  1  0  0  0  0
  8  7  1  0  0  0  0
  9  8  1  0  0  0  0
 10  9  1  0  0  0  0
 11 10  1  0  0  0  0
 12 14  2  0  0  0  0
 13 11  1  0  0  0  0
 14 15  1  0  0  0  0
 14 13  1  0  0  0  0
 16 11  1  0  0  0  0
 17 26  1  0  0  0  0
 17 23  1  0  0  0  0
 19 16  1  1  0  0  0
 21 22  1  0  0  0  0
 22 19  1  0  0  0  0
 22 18  1  0  0  0  0
 24 25  1  0  0  0  0
 24 20  1  0  0  0  0
 26 28  1  6  0  0  0
 27 22  1  0  0  0  0
 27 25  1  1  0  0  0
 27 26  1  0  0  0  0
 28 20  1  0  0  0  0
 29 17  1  0  0  0  0
 29 19  1  0  0  0  0
 30  3  1  0  0  0  0
 31 30  1  0  0  0  0
 32 31  1  0  0  0  0
 33 32  1  0  0  0  0
 34 36  1  0  0  0  0
 35 40  1  1  0  0  0
 35 37  1  0  0  0  0
 35 38  1  0  0  0  0
 37 39  1  0  0  0  0
 38 34  2  0  0  0  0
 39 33  1  1  0  0  0
 39 36  1  0  0  0  0
 40 42  1  6  0  0  0
 40 41  1  0  0  0  0
 43 39  1  0  0  0  0
 44 50  1  0  0  0  0
 45 44  2  0  0  0  0
 45 48  1  0  0  0  0
 47 49  1  0  0  0  0
 47 43  1  0  0  0  0
 48 47  2  0  0  0  0
 49 46  1  0  0  0  0
 50 51  1  0  0  0  0
 50 49  2  0  0  0  0
 53 55  1  0  0  0  0
 54 55  1  0  0  0  0
 55 52  1  0  0  0  0
 55 51  1  0  0  0  0
M  END
>  <MODEL>
3

>  <REMARK>
 VINA RESULT:      -6.6      3.357      9.068
  Name = 
  20 active torsions:
  status: ('A' for Active; 'I' for Inactive)
    1  A    between atoms: C_2  and  C_28
    2  A    between atoms: C_2  and  N_44
    3  A    between atoms: C_6  and  C_46
    4  A    between atoms: N_8  and  N_22
    5  A    between atoms: C_10  and  C_32
    6  A    between atoms: C_17  and  S_36
    7  A    between atoms: O_19  and  C_40
    8  A    between atoms: O_19  and  C_45
    9  A    between atoms: N_22  and  C_35
   10  A    between atoms: N_22  and  C_46
   11  A    between atoms: C_24  and  C_31
   12  A    between atoms: C_27  and  C_31
   13  A    between atoms: C_27  and  C_54
   14  A    between atoms: C_28  and  C_49
   15  A    between atoms: C_33  and  C_49
   16  A    between atoms: C_33  and  C_52
   17  A    between atoms: C_35  and  C_43
   18  A    between atoms: S_36  and  C_52
   19  A    between atoms: C_43  and  C_51
   20  A    between atoms: C_51  and  C_54
                            x       y       z     vdW  Elec       q    Type
                         _______ _______ _______ _____ _____    ______ ____

>  <TORSDO>
F 20

$$$$
=
 OpenBabel10262420283D

 55 58  0  0  1  0  0  0  0  0999 V2000
  183.0650  178.7710  143.1720 C   0  0  0  0  0  0  0  0  0  0  0  0
  185.3170  178.6760  144.2560 C   0  0  0  0  0  1  0  0  0  0  0  0
  184.4950  178.8650  143.0730 N   0  0  0  0  0  0  0  0  0  0  0  0
  182.5120  178.7040  144.3030 O   0  0  0  0  0  0  0  0  0  0  0  0
  182.2090  178.7480  141.9470 C   0  0  0  0  0  2  0  0  0  0  0  0
  180.8640  179.3800  142.2460 C   0  0  0  0  0  2  0  0  0  0  0  0
  179.7290  178.5100  141.7310 C   0  0  0  0  0  2  0  0  0  0  0  0
  180.2760  177.2190  141.1470 C   0  0  0  0  0  2  0  0  0  0  0  0
  179.4070  176.7620  139.9840 C   0  0  0  0  0  2  0  0  0  0  0  0
  179.7880  177.4960  138.7100 C   0  0  0  0  0  2  0  0  0  0  0  0
  180.2210  176.5580  137.6810 N   0  0  0  0  0  0  0  0  0  0  0  0
  179.6300  172.9810  138.0130 O   0  0  0  0  0  1  0  0  0  0  0  0
  180.1390  175.2430  138.1950 N   0  0  0  0  0  2  0  0  0  0  0  0
  179.7570  174.0860  137.4330 C   0  0  0  0  0  0  0  0  0  0  0  0
  179.5240  174.1700  136.0600 O   0  0  0  0  0  0  0  0  0  0  0  0
  181.6160  176.8480  137.3500 C   0  0  0  0  0  2  0  0  0  0  0  0
  184.3010  177.7270  138.6000 N   0  0  0  0  0  0  0  0  0  0  0  0
  182.9280  174.7910  136.0600 F   0  0  0  0  0  0  0  0  0  0  0  0
  182.5660  175.9470  138.1410 C   0  0  1  0  0  3  0  0  0  0  0  0
  186.6310  177.7460  135.5960 C   0  0  0  0  0  2  0  0  0  0  0  0
  183.8340  173.9610  137.9350 F   0  0  0  0  0  0  0  0  0  0  0  0
  183.5400  175.1340  137.2620 C   0  0  0  0  0  0  0  0  0  0  0  0
  183.6330  179.0200  138.5360 C   0  0  0  0  0  1  0  0  0  0  0  0
  186.8070  176.2400  135.4500 C   0  0  0  0  0  2  0  0  0  0  0  0
  185.4670  175.5430  135.6420 C   0  0  0  0  0  2  0  0  0  0  0  0
  184.7540  177.3970  137.2360 C   0  0  2  0  0  3  0  0  0  0  0  0
  184.8720  175.8760  137.0170 C   0  0  1  0  0  3  0  0  0  0  0  0
  186.1080  178.0690  136.9890 C   0  0  0  0  0  2  0  0  0  0  0  0
  183.3360  176.7710  139.1810 C   0  0  0  0  0  2  0  0  0  0  0  0
  185.1630  179.0780  141.7990 C   0  0  0  0  0  2  0  0  0  0  0  0
  186.5780  178.5280  141.8550 C   0  0  0  0  0  2  0  0  0  0  0  0
  187.2630  178.6330  140.5060 C   0  0  0  0  0  2  0  0  0  0  0  0
  188.7800  178.6360  140.6720 C   0  0  0  0  0  2  0  0  0  0  0  0
  189.4030  175.8960  138.0480 C   0  0  0  0  0  3  0  0  0  0  0  0
  191.5270  176.4500  139.0660 C   0  0  1  0  0  3  0  0  0  0  0  0
  188.6240  176.8100  138.9650 C   0  0  0  0  0  2  0  0  0  0  0  0
  190.8600  177.6990  139.6530 C   0  0  0  0  0  2  0  0  0  0  0  0
  190.6890  175.7900  138.0820 N   0  0  0  0  0  0  0  0  0  0  0  0
  189.4470  177.3640  140.1350 C   0  0  1  0  0  0  0  0  0  0  0  0
  192.9180  176.7190  138.4970 C   0  0  1  0  0  3  0  0  0  0  0  0
  193.8470  177.1020  139.5470 N   0  0  0  0  0  1  0  0  0  0  0  0
  193.4460  175.5060  137.7520 C   0  0  0  0  0  1  0  0  0  0  0  0
  189.5590  176.1060  141.4770 S   0  0  0  0  0  0  0  0  0  0  0  0
  190.8710  178.8260  144.9340 C   0  0  0  0  0  3  0  0  0  0  0  0
  191.7000  178.6450  143.8280 C   0  0  0  0  0  3  0  0  0  0  0  0
  188.0150  176.7200  144.0160 F   0  0  0  0  0  0  0  0  0  0  0  0
  190.0330  177.1990  142.8190 C   0  0  0  0  0  0  0  0  0  0  0  0
  191.2790  177.8320  142.7710 C   0  0  0  0  0  3  0  0  0  0  0  0
  189.2050  177.3700  143.9400 C   0  0  0  0  0  0  0  0  0  0  0  0
  189.6170  178.1950  144.9970 C   0  0  0  0  0  0  0  0  0  0  0  0
  188.7550  178.3690  146.0930 O   0  0  0  0  0  0  0  0  0  0  0  0
  189.3980  178.3230  148.4030 C   0  0  0  0  0  1  0  0  0  0  0  0
  189.4720  176.3950  147.0540 F   0  0  0  0  0  0  0  0  0  0  0  0
  187.3290  177.2150  147.6660 C   0  0  0  0  0  1  0  0  0  0  0  0
  188.7530  177.5560  147.2690 C   0  0  0  0  0  0  0  0  0  0  0  0
  1  4  2  0  0  0  0
  3  1  1  0  0  0  0
  3  2  1  0  0  0  0
  5  6  1  0  0  0  0
  5  1  1  0  0  0  0
  7  6  1  0  0  0  0
  8  7  1  0  0  0  0
  9  8  1  0  0  0  0
 10  9  1  0  0  0  0
 11 13  1  0  0  0  0
 11 10  1  0  0  0  0
 14 12  1  0  0  0  0
 14 13  1  0  0  0  0
 15 14  2  0  0  0  0
 16 11  1  0  0  0  0
 17 29  1  0  0  0  0
 18 22  1  0  0  0  0
 19 16  1  6  0  0  0
 19 29  1  0  0  0  0
 20 28  1  0  0  0  0
 22 21  1  0  0  0  0
 22 19  1  0  0  0  0
 23 17  1  0  0  0  0
 24 20  1  0  0  0  0
 24 25  1  0  0  0  0
 26 28  1  1  0  0  0
 26 17  1  0  0  0  0
 27 25  1  6  0  0  0
 27 26  1  0  0  0  0
 27 22  1  0  0  0  0
 30 31  1  0  0  0  0
 30  3  1  0  0  0  0
 32 33  1  0  0  0  0
 32 31  1  0  0  0  0
 34 38  2  0  0  0  0
 34 36  1  0  0  0  0
 35 40  1  6  0  0  0
 35 37  1  0  0  0  0
 36 39  1  0  0  0  0
 37 39  1  0  0  0  0
 38 35  1  0  0  0  0
 39 33  1  1  0  0  0
 39 43  1  0  0  0  0
 40 42  1  1  0  0  0
 40 41  1  0  0  0  0
 43 47  1  0  0  0  0
 44 50  1  0  0  0  0
 45 44  2  0  0  0  0
 47 49  1  0  0  0  0
 48 47  2  0  0  0  0
 48 45  1  0  0  0  0
 49 46  1  0  0  0  0
 49 50  2  0  0  0  0
 50 51  1  0  0  0  0
 51 55  1  0  0  0  0
 53 55  1  0  0  0  0
 55 54  1  0  0  0  0
 55 52  1  0  0  0  0
M  END
>  <MODEL>
4

>  <REMARK>
 VINA RESULT:      -6.6      2.883      5.435
  Name = 
  20 active torsions:
  status: ('A' for Active; 'I' for Inactive)
    1  A    between atoms: C_2  and  C_28
    2  A    between atoms: C_2  and  N_44
    3  A    between atoms: C_6  and  C_46
    4  A    between atoms: N_8  and  N_22
    5  A    between atoms: C_10  and  C_32
    6  A    between atoms: C_17  and  S_36
    7  A    between atoms: O_19  and  C_40
    8  A    between atoms: O_19  and  C_45
    9  A    between atoms: N_22  and  C_35
   10  A    between atoms: N_22  and  C_46
   11  A    between atoms: C_24  and  C_31
   12  A    between atoms: C_27  and  C_31
   13  A    between atoms: C_27  and  C_54
   14  A    between atoms: C_28  and  C_49
   15  A    between atoms: C_33  and  C_49
   16  A    between atoms: C_33  and  C_52
   17  A    between atoms: C_35  and  C_43
   18  A    between atoms: S_36  and  C_52
   19  A    between atoms: C_43  and  C_51
   20  A    between atoms: C_51  and  C_54
                            x       y       z     vdW  Elec       q    Type
                         _______ _______ _______ _____ _____    ______ ____

>  <TORSDO>
F 20

$$$$
=
 OpenBabel10262420283D

 55 58  0  0  1  0  0  0  0  0999 V2000
  188.9690  177.0880  137.3840 C   0  0  0  0  0  0  0  0  0  0  0  0
  187.2030  175.4590  136.6920 C   0  0  0  0  0  1  0  0  0  0  0  0
  187.5820  176.7330  137.2780 N   0  0  0  0  0  0  0  0  0  0  0  0
  189.8470  176.3860  136.8120 O   0  0  0  0  0  0  0  0  0  0  0  0
  189.3990  178.2850  138.1680 C   0  0  0  0  0  2  0  0  0  0  0  0
  189.2310  178.0170  139.6510 C   0  0  0  0  0  2  0  0  0  0  0  0
  190.2630  177.0150  140.1430 C   0  0  0  0  0  2  0  0  0  0  0  0
  190.2090  176.9020  141.6570 C   0  0  0  0  0  2  0  0  0  0  0  0
  189.0760  177.7580  142.2040 C   0  0  0  0  0  2  0  0  0  0  0  0
  188.0310  176.8900  142.8850 C   0  0  0  0  0  2  0  0  0  0  0  0
  187.2070  177.6840  143.7890 N   0  0  0  0  0  0  0  0  0  0  0  0
  188.3980  176.7530  147.1010 O   0  0  0  0  0  1  0  0  0  0  0  0
  187.2950  177.1370  145.0900 N   0  0  0  0  0  2  0  0  0  0  0  0
  188.3800  177.3620  146.0050 C   0  0  0  0  0  0  0  0  0  0  0  0
  189.4140  178.2470  145.6960 O   0  0  0  0  0  0  0  0  0  0  0  0
  185.8190  177.6050  143.3370 C   0  0  0  0  0  2  0  0  0  0  0  0
  183.7940  179.6610  144.4420 N   0  0  0  0  0  0  0  0  0  0  0  0
  184.3590  177.4750  140.9980 F   0  0  0  0  0  0  0  0  0  0  0  0
  185.3950  178.8990  142.6400 C   0  0  1  0  0  3  0  0  0  0  0  0
  180.4560  178.0120  143.6700 C   0  0  0  0  0  2  0  0  0  0  0  0
  184.4090  179.6860  140.6390 F   0  0  0  0  0  0  0  0  0  0  0  0
  184.2550  178.7180  141.6150 C   0  0  0  0  0  0  0  0  0  0  0  0
  184.2120  179.0420  145.6920 C   0  0  0  0  0  1  0  0  0  0  0  0
  180.4230  178.2820  142.1720 C   0  0  0  0  0  2  0  0  0  0  0  0
  181.8000  178.0290  141.5720 C   0  0  0  0  0  2  0  0  0  0  0  0
  182.8670  178.7270  143.7760 C   0  0  2  0  0  3  0  0  0  0  0  0
  182.8590  178.9110  142.2460 C   0  0  1  0  0  3  0  0  0  0  0  0
  181.4590  178.9430  144.3380 C   0  0  0  0  0  2  0  0  0  0  0  0
  185.0220  179.9640  143.6790 C   0  0  0  0  0  2  0  0  0  0  0  0
  186.5300  177.5860  137.8090 C   0  0  0  0  0  2  0  0  0  0  0  0
  185.2050  177.2550  137.1420 C   0  0  0  0  0  2  0  0  0  0  0  0
  184.0330  177.7130  137.9890 C   0  0  0  0  0  2  0  0  0  0  0  0
  182.9320  176.6550  138.0010 C   0  0  0  0  0  2  0  0  0  0  0  0
  179.2190  177.2330  138.8130 C   0  0  0  0  0  3  0  0  0  0  0  0
  180.1210  179.3010  137.9390 C   0  0  1  0  0  3  0  0  0  0  0  0
  180.5030  176.4700  138.5810 C   0  0  0  0  0  2  0  0  0  0  0  0
  181.5230  178.7130  138.1410 C   0  0  0  0  0  2  0  0  0  0  0  0
  179.0910  178.4930  138.5650 N   0  0  0  0  0  0  0  0  0  0  0  0
  181.5380  177.2360  137.7440 C   0  0  1  0  0  0  0  0  0  0  0  0
  180.0080  180.7580  138.3810 C   0  0  1  0  0  3  0  0  0  0  0  0
  179.4350  180.8570  139.7140 N   0  0  0  0  0  1  0  0  0  0  0  0
  181.3600  181.4460  138.3430 C   0  0  0  0  0  1  0  0  0  0  0  0
  181.1250  177.0980  135.9530 S   0  0  0  0  0  0  0  0  0  0  0  0
  180.6470  172.5330  135.8480 C   0  0  0  0  0  3  0  0  0  0  0  0
  179.5470  173.3500  136.1090 C   0  0  0  0  0  3  0  0  0  0  0  0
  183.2880  175.0380  135.4160 F   0  0  0  0  0  0  0  0  0  0  0  0
  180.9510  175.3140  135.8640 C   0  0  0  0  0  0  0  0  0  0  0  0
  179.7010  174.7400  136.1170 C   0  0  0  0  0  3  0  0  0  0  0  0
  182.0610  174.4900  135.6140 C   0  0  0  0  0  0  0  0  0  0  0  0
  181.9090  173.0960  135.5930 C   0  0  0  0  0  0  0  0  0  0  0  0
  183.0310  172.2980  135.3130 O   0  0  0  0  0  0  0  0  0  0  0  0
  183.8210  170.2140  136.1980 C   0  0  0  0  0  1  0  0  0  0  0  0
  183.4930  172.1010  137.5680 F   0  0  0  0  0  0  0  0  0  0  0  0
  185.3260  172.1550  136.0590 C   0  0  0  0  0  1  0  0  0  0  0  0
  183.8920  171.7220  136.2990 C   0  0  0  0  0  0  0  0  0  0  0  0
  1  5  1  0  0  0  0
  2  3  1  0  0  0  0
  3  1  1  0  0  0  0
  3 30  1  0  0  0  0
  4  1  2  0  0  0  0
  5  6  1  0  0  0  0
  6  7  1  0  0  0  0
  7  8  1  0  0  0  0
  8  9  1  0  0  0  0
  9 10  1  0  0  0  0
 10 11  1  0  0  0  0
 11 13  1  0  0  0  0
 13 14  1  0  0  0  0
 14 12  1  0  0  0  0
 15 14  2  0  0  0  0
 16 11  1  0  0  0  0
 17 23  1  0  0  0  0
 18 22  1  0  0  0  0
 19 16  1  1  0  0  0
 19 29  1  0  0  0  0
 20 28  1  0  0  0  0
 21 22  1  0  0  0  0
 22 27  1  0  0  0  0
 22 19  1  0  0  0  0
 24 20  1  0  0  0  0
 25 24  1  0  0  0  0
 26 28  1  1  0  0  0
 26 17  1  0  0  0  0
 27 25  1  6  0  0  0
 27 26  1  0  0  0  0
 29 17  1  0  0  0  0
 31 30  1  0  0  0  0
 31 32  1  0  0  0  0
 32 33  1  0  0  0  0
 35 37  1  0  0  0  0
 35 40  1  1  0  0  0
 35 38  1  0  0  0  0
 36 34  1  0  0  0  0
 38 34  2  0  0  0  0
 39 33  1  1  0  0  0
 39 37  1  0  0  0  0
 39 36  1  0  0  0  0
 40 42  1  1  0  0  0
 40 41  1  0  0  0  0
 43 39  1  0  0  0  0
 44 45  1  0  0  0  0
 45 48  2  0  0  0  0
 46 49  1  0  0  0  0
 47 43  1  0  0  0  0
 47 48  1  0  0  0  0
 49 47  2  0  0  0  0
 50 49  1  0  0  0  0
 50 44  2  0  0  0  0
 51 50  1  0  0  0  0
 51 55  1  0  0  0  0
 52 55  1  0  0  0  0
 54 55  1  0  0  0  0
 55 53  1  0  0  0  0
M  END
>  <MODEL>
5

>  <REMARK>
 VINA RESULT:      -6.3      3.319      9.797
  Name = 
  20 active torsions:
  status: ('A' for Active; 'I' for Inactive)
    1  A    between atoms: C_2  and  C_28
    2  A    between atoms: C_2  and  N_44
    3  A    between atoms: C_6  and  C_46
    4  A    between atoms: N_8  and  N_22
    5  A    between atoms: C_10  and  C_32
    6  A    between atoms: C_17  and  S_36
    7  A    between atoms: O_19  and  C_40
    8  A    between atoms: O_19  and  C_45
    9  A    between atoms: N_22  and  C_35
   10  A    between atoms: N_22  and  C_46
   11  A    between atoms: C_24  and  C_31
   12  A    between atoms: C_27  and  C_31
   13  A    between atoms: C_27  and  C_54
   14  A    between atoms: C_28  and  C_49
   15  A    between atoms: C_33  and  C_49
   16  A    between atoms: C_33  and  C_52
   17  A    between atoms: C_35  and  C_43
   18  A    between atoms: S_36  and  C_52
   19  A    between atoms: C_43  and  C_51
   20  A    between atoms: C_51  and  C_54
                            x       y       z     vdW  Elec       q    Type
                         _______ _______ _______ _____ _____    ______ ____

>  <TORSDO>
F 20

$$$$
=
 OpenBabel10262420283D

 55 58  0  0  1  0  0  0  0  0999 V2000
  186.0570  178.2530  145.0720 C   0  0  0  0  0  0  0  0  0  0  0  0
  183.8070  179.2920  144.7330 C   0  0  0  0  0  1  0  0  0  0  0  0
  184.9320  178.5270  144.2220 N   0  0  0  0  0  0  0  0  0  0  0  0
  185.9970  178.5150  146.3040 O   0  0  0  0  0  0  0  0  0  0  0  0
  187.3120  177.6600  144.5190 C   0  0  0  0  0  2  0  0  0  0  0  0
  188.2900  177.3840  145.6440 C   0  0  0  0  0  2  0  0  0  0  0  0
  189.5320  178.2500  145.5090 C   0  0  0  0  0  2  0  0  0  0  0  0
  189.6280  178.8200  144.1050 C   0  0  0  0  0  2  0  0  0  0  0  0
  191.0810  178.8520  143.6520 C   0  0  0  0  0  2  0  0  0  0  0  0
  191.3330  177.7980  142.5870 C   0  0  0  0  0  2  0  0  0  0  0  0
  190.3610  176.7160  142.6890 N   0  0  0  0  0  0  0  0  0  0  0  0
  192.3770  174.1660  144.3300 O   0  0  0  0  0  0  0  0  0  0  0  0
  191.0440  175.5120  142.9800 N   0  0  0  0  0  2  0  0  0  0  0  0
  191.7270  175.2330  144.2130 C   0  0  0  0  0  0  0  0  0  0  0  0
  191.6810  176.1270  145.2840 O   0  0  0  0  0  1  0  0  0  0  0  0
  189.6900  176.5760  141.3980 C   0  0  0  0  0  2  0  0  0  0  0  0
  188.2950  178.2780  139.2290 N   0  0  0  0  0  0  0  0  0  0  0  0
  191.1140  175.2820  139.4190 F   0  0  0  0  0  0  0  0  0  0  0  0
  190.3980  177.3980  140.3190 C   0  0  1  0  0  3  0  0  0  0  0  0
  187.2290  175.6520  136.6940 C   0  0  0  0  0  2  0  0  0  0  0  0
  191.9170  177.1710  138.5190 F   0  0  0  0  0  0  0  0  0  0  0  0
  190.7870  176.5870  139.0640 C   0  0  0  0  0  0  0  0  0  0  0  0
  187.2370  178.2520  140.2280 C   0  0  0  0  0  1  0  0  0  0  0  0
  188.5950  175.3790  136.0780 C   0  0  0  0  0  2  0  0  0  0  0  0
  189.6500  175.3070  137.1740 C   0  0  0  0  0  2  0  0  0  0  0  0
  188.2980  176.9650  138.5560 C   0  0  2  0  0  3  0  0  0  0  0  0
  189.6850  176.6110  137.9840 C   0  0  1  0  0  3  0  0  0  0  0  0
  187.2560  176.9830  137.4340 C   0  0  0  0  0  2  0  0  0  0  0  0
  189.5480  178.6150  139.9340 C   0  0  0  0  0  2  0  0  0  0  0  0
  184.9100  178.1210  142.8250 C   0  0  0  0  0  2  0  0  0  0  0  0
  183.5480  178.4160  142.2190 C   0  0  0  0  0  2  0  0  0  0  0  0
  183.5500  178.1790  140.7210 C   0  0  0  0  0  2  0  0  0  0  0  0
  182.4470  177.2000  140.3290 C   0  0  0  0  0  2  0  0  0  0  0  0
  179.1480  178.8800  141.3680 C   0  0  0  0  0  3  0  0  0  0  0  0
  180.0100  180.0600  139.4390 C   0  0  1  0  0  3  0  0  0  0  0  0
  180.2410  177.8370  141.3310 C   0  0  0  0  0  2  0  0  0  0  0  0
  181.3460  179.3420  139.6640 C   0  0  0  0  0  2  0  0  0  0  0  0
  179.0950  179.8780  140.5500 N   0  0  0  0  0  0  0  0  0  0  0  0
  181.1020  177.8850  140.0610 C   0  0  1  0  0  0  0  0  0  0  0  0
  180.1680  181.5420  139.1080 C   0  0  1  0  0  3  0  0  0  0  0  0
  181.3520  181.7720  138.2970 N   0  0  0  0  0  1  0  0  0  0  0  0
  178.9380  182.0750  138.3960 C   0  0  0  0  0  1  0  0  0  0  0  0
  180.2320  177.0300  138.6790 S   0  0  0  0  0  0  0  0  0  0  0  0
  183.8300  176.2130  135.9480 C   0  0  0  0  0  3  0  0  0  0  0  0
  183.5100  177.5180  136.3180 C   0  0  0  0  0  3  0  0  0  0  0  0
  181.2070  174.3330  137.6860 F   0  0  0  0  0  0  0  0  0  0  0  0
  181.6600  176.6850  137.6480 C   0  0  0  0  0  0  0  0  0  0  0  0
  182.4250  177.7520  137.1690 C   0  0  0  0  0  3  0  0  0  0  0  0
  181.9740  175.3720  137.2630 C   0  0  0  0  0  0  0  0  0  0  0  0
  183.0690  175.1300  136.4210 C   0  0  0  0  0  0  0  0  0  0  0  0
  183.3770  173.8040  136.0750 O   0  0  0  0  0  0  0  0  0  0  0  0
  183.3190  171.7020  137.2290 C   0  0  0  0  0  1  0  0  0  0  0  0
  184.5570  173.5330  138.0420 F   0  0  0  0  0  0  0  0  0  0  0  0
  185.3730  172.4420  136.0970 C   0  0  0  0  0  1  0  0  0  0  0  0
  184.1580  172.9110  136.8730 C   0  0  0  0  0  0  0  0  0  0  0  0
  1  4  2  0  0  0  0
  3  2  1  0  0  0  0
  3  1  1  0  0  0  0
  5  1  1  0  0  0  0
  5  6  1  0  0  0  0
  7  6  1  0  0  0  0
  8  7  1  0  0  0  0
  9  8  1  0  0  0  0
 10 11  1  0  0  0  0
 10  9  1  0  0  0  0
 11 13  1  0  0  0  0
 13 14  1  0  0  0  0
 14 12  2  0  0  0  0
 14 15  1  0  0  0  0
 16 11  1  0  0  0  0
 17 29  1  0  0  0  0
 17 23  1  0  0  0  0
 19 16  1  1  0  0  0
 20 28  1  0  0  0  0
 21 22  1  0  0  0  0
 22 18  1  0  0  0  0
 22 19  1  0  0  0  0
 24 20  1  0  0  0  0
 24 25  1  0  0  0  0
 26 28  1  6  0  0  0
 26 17  1  0  0  0  0
 27 25  1  1  0  0  0
 27 26  1  0  0  0  0
 27 22  1  0  0  0  0
 29 19  1  0  0  0  0
 30  3  1  0  0  0  0
 31 30  1  0  0  0  0
 32 31  1  0  0  0  0
 33 32  1  0  0  0  0
 35 40  1  1  0  0  0
 35 37  1  0  0  0  0
 35 38  1  0  0  0  0
 36 34  1  0  0  0  0
 37 39  1  0  0  0  0
 38 34  2  0  0  0  0
 39 33  1  1  0  0  0
 39 36  1  0  0  0  0
 40 42  1  6  0  0  0
 41 40  1  0  0  0  0
 43 39  1  0  0  0  0
 44 45  2  0  0  0  0
 44 50  1  0  0  0  0
 45 48  1  0  0  0  0
 47 43  1  0  0  0  0
 48 47  2  0  0  0  0
 49 47  1  0  0  0  0
 49 46  1  0  0  0  0
 50 49  2  0  0  0  0
 51 50  1  0  0  0  0
 51 55  1  0  0  0  0
 54 55  1  0  0  0  0
 55 52  1  0  0  0  0
 55 53  1  0  0  0  0
M  END
>  <MODEL>
6

>  <REMARK>
 VINA RESULT:      -6.3      3.289      9.239
  Name = 
  20 active torsions:
  status: ('A' for Active; 'I' for Inactive)
    1  A    between atoms: C_2  and  C_28
    2  A    between atoms: C_2  and  N_44
    3  A    between atoms: C_6  and  C_46
    4  A    between atoms: N_8  and  N_22
    5  A    between atoms: C_10  and  C_32
    6  A    between atoms: C_17  and  S_36
    7  A    between atoms: O_19  and  C_40
    8  A    between atoms: O_19  and  C_45
    9  A    between atoms: N_22  and  C_35
   10  A    between atoms: N_22  and  C_46
   11  A    between atoms: C_24  and  C_31
   12  A    between atoms: C_27  and  C_31
   13  A    between atoms: C_27  and  C_54
   14  A    between atoms: C_28  and  C_49
   15  A    between atoms: C_33  and  C_49
   16  A    between atoms: C_33  and  C_52
   17  A    between atoms: C_35  and  C_43
   18  A    between atoms: S_36  and  C_52
   19  A    between atoms: C_43  and  C_51
   20  A    between atoms: C_51  and  C_54
                            x       y       z     vdW  Elec       q    Type
                         _______ _______ _______ _____ _____    ______ ____

>  <TORSDO>
F 20

$$$$
=
 OpenBabel10262420283D

 55 58  0  0  1  0  0  0  0  0999 V2000
  189.5720  177.2440  144.5050 C   0  0  0  0  0  0  0  0  0  0  0  0
  191.5770  176.0060  143.6660 C   0  0  0  0  0  1  0  0  0  0  0  0
  190.5280  176.9900  143.4630 N   0  0  0  0  0  0  0  0  0  0  0  0
  189.7440  176.7520  145.6530 O   0  0  0  0  0  0  0  0  0  0  0  0
  188.3640  178.0850  144.2520 C   0  0  0  0  0  2  0  0  0  0  0  0
  187.1100  177.2470  144.4080 C   0  0  0  0  0  2  0  0  0  0  0  0
  186.0180  178.0310  145.1180 C   0  0  0  0  0  2  0  0  0  0  0  0
  185.2710  178.9090  144.1300 C   0  0  0  0  0  2  0  0  0  0  0  0
  184.8500  178.0900  142.9180 C   0  0  0  0  0  2  0  0  0  0  0  0
  184.4530  179.0010  141.7680 C   0  0  0  0  0  2  0  0  0  0  0  0
  183.0160  178.9410  141.5320 N   0  0  0  0  0  0  0  0  0  0  0  0
  180.7060  178.9490  144.3450 O   0  0  0  0  0  1  0  0  0  0  0  0
  182.3640  178.6260  142.7460 N   0  0  0  0  0  2  0  0  0  0  0  0
  181.1490  179.2410  143.2080 C   0  0  0  0  0  0  0  0  0  0  0  0
  180.4540  180.1550  142.4160 O   0  0  0  0  0  0  0  0  0  0  0  0
  182.7520  177.8750  140.5660 C   0  0  0  0  0  2  0  0  0  0  0  0
  179.9760  177.0390  139.4970 N   0  0  0  0  0  0  0  0  0  0  0  0
  183.8350  177.3220  138.0870 F   0  0  0  0  0  0  0  0  0  0  0  0
  182.0790  178.4290  139.3080 C   0  0  1  0  0  3  0  0  0  0  0  0
  180.7270  173.7300  137.7810 C   0  0  0  0  0  2  0  0  0  0  0  0
  182.4070  178.6440  136.9750 F   0  0  0  0  0  0  0  0  0  0  0  0
  182.5050  177.7230  138.0040 C   0  0  0  0  0  0  0  0  0  0  0  0
  179.8100  176.6790  140.8990 C   0  0  0  0  0  1  0  0  0  0  0  0
  181.4110  174.2820  136.5380 C   0  0  0  0  0  2  0  0  0  0  0  0
  182.3500  175.4160  136.9270 C   0  0  0  0  0  2  0  0  0  0  0  0
  180.8110  175.9970  138.8710 C   0  0  2  0  0  3  0  0  0  0  0  0
  181.5860  176.5330  137.6500 C   0  0  1  0  0  3  0  0  0  0  0  0
  179.9130  174.8300  138.4510 C   0  0  0  0  0  2  0  0  0  0  0  0
  180.5530  178.3980  139.4660 C   0  0  0  0  0  2  0  0  0  0  0  0
  190.4380  177.6430  142.1660 C   0  0  0  0  0  2  0  0  0  0  0  0
  189.6880  176.7560  141.1870 C   0  0  0  0  0  2  0  0  0  0  0  0
  189.8720  177.2330  139.7590 C   0  0  0  0  0  2  0  0  0  0  0  0
  190.7240  176.2440  138.9680 C   0  0  0  0  0  2  0  0  0  0  0  0
  189.3640  173.6090  136.5210 C   0  0  0  0  0  3  0  0  0  0  0  0
  187.8570  175.5020  136.4920 C   0  0  1  0  0  3  0  0  0  0  0  0
  190.3430  174.2890  137.4490 C   0  0  0  0  0  2  0  0  0  0  0  0
  188.5480  176.0040  137.7650 C   0  0  0  0  0  2  0  0  0  0  0  0
  188.2510  174.1480  136.1500 N   0  0  0  0  0  0  0  0  0  0  0  0
  190.0590  175.7820  137.6670 C   0  0  1  0  0  0  0  0  0  0  0  0
  186.3360  175.6250  136.5420 C   0  0  1  0  0  3  0  0  0  0  0  0
  185.7890  175.8920  135.2210 N   0  0  0  0  0  1  0  0  0  0  0  0
  185.7060  174.3720  137.1220 C   0  0  0  0  0  1  0  0  0  0  0  0
  190.7140  176.7610  136.2500 S   0  0  0  0  0  0  0  0  0  0  0  0
  194.4490  174.2090  135.4720 C   0  0  0  0  0  3  0  0  0  0  0  0
  193.3510  174.1270  134.6180 C   0  0  0  0  0  3  0  0  0  0  0  0
  193.2640  176.6940  137.8920 F   0  0  0  0  0  0  0  0  0  0  0  0
  192.2000  175.8050  135.9390 C   0  0  0  0  0  0  0  0  0  0  0  0
  192.2270  174.9260  134.8530 C   0  0  0  0  0  3  0  0  0  0  0  0
  193.3020  175.8780  136.8070 C   0  0  0  0  0  0  0  0  0  0  0  0
  194.4360  175.0880  136.5690 C   0  0  0  0  0  0  0  0  0  0  0  0
  195.5340  175.2020  137.4380 O   0  0  0  0  0  0  0  0  0  0  0  0
  197.0250  173.3600  137.8020 C   0  0  0  0  0  1  0  0  0  0  0  0
  194.8540  173.3990  138.7130 F   0  0  0  0  0  0  0  0  0  0  0  0
  196.4570  174.8810  139.6490 C   0  0  0  0  0  1  0  0  0  0  0  0
  195.9250  174.2140  138.3950 C   0  0  0  0  0  0  0  0  0  0  0  0
  1  4  2  0  0  0  0
  3  2  1  0  0  0  0
  3  1  1  0  0  0  0
  5  6  1  0  0  0  0
  5  1  1  0  0  0  0
  6  7  1  0  0  0  0
  8  7  1  0  0  0  0
  9  8  1  0  0  0  0
 10  9  1  0  0  0  0
 11 10  1  0  0  0  0
 11 13  1  0  0  0  0
 13 14  1  0  0  0  0
 14 12  1  0  0  0  0
 15 14  2  0  0  0  0
 16 11  1  0  0  0  0
 17 23  1  0  0  0  0
 19 29  1  0  0  0  0
 19 16  1  1  0  0  0
 20 28  1  0  0  0  0
 21 22  1  0  0  0  0
 22 18  1  0  0  0  0
 22 19  1  0  0  0  0
 24 25  1  0  0  0  0
 24 20  1  0  0  0  0
 26 28  1  6  0  0  0
 26 17  1  0  0  0  0
 27 25  1  1  0  0  0
 27 22  1  0  0  0  0
 27 26  1  0  0  0  0
 29 17  1  0  0  0  0
 30  3  1  0  0  0  0
 31 30  1  0  0  0  0
 32 31  1  0  0  0  0
 33 32  1  0  0  0  0
 34 36  1  0  0  0  0
 35 40  1  1  0  0  0
 35 37  1  0  0  0  0
 36 39  1  0  0  0  0
 38 35  1  0  0  0  0
 38 34  2  0  0  0  0
 39 37  1  0  0  0  0
 39 33  1  1  0  0  0
 40 42  1  6  0  0  0
 41 40  1  0  0  0  0
 43 39  1  0  0  0  0
 44 50  1  0  0  0  0
 45 48  1  0  0  0  0
 45 44  2  0  0  0  0
 47 43  1  0  0  0  0
 47 49  1  0  0  0  0
 48 47  2  0  0  0  0
 49 46  1  0  0  0  0
 50 49  2  0  0  0  0
 50 51  1  0  0  0  0
 51 55  1  0  0  0  0
 52 55  1  0  0  0  0
 55 53  1  0  0  0  0
 55 54  1  0  0  0  0
M  END
>  <MODEL>
7

>  <REMARK>
 VINA RESULT:      -6.0      3.529      6.813
  Name = 
  20 active torsions:
  status: ('A' for Active; 'I' for Inactive)
    1  A    between atoms: C_2  and  C_28
    2  A    between atoms: C_2  and  N_44
    3  A    between atoms: C_6  and  C_46
    4  A    between atoms: N_8  and  N_22
    5  A    between atoms: C_10  and  C_32
    6  A    between atoms: C_17  and  S_36
    7  A    between atoms: O_19  and  C_40
    8  A    between atoms: O_19  and  C_45
    9  A    between atoms: N_22  and  C_35
   10  A    between atoms: N_22  and  C_46
   11  A    between atoms: C_24  and  C_31
   12  A    between atoms: C_27  and  C_31
   13  A    between atoms: C_27  and  C_54
   14  A    between atoms: C_28  and  C_49
   15  A    between atoms: C_33  and  C_49
   16  A    between atoms: C_33  and  C_52
   17  A    between atoms: C_35  and  C_43
   18  A    between atoms: S_36  and  C_52
   19  A    between atoms: C_43  and  C_51
   20  A    between atoms: C_51  and  C_54
                            x       y       z     vdW  Elec       q    Type
                         _______ _______ _______ _____ _____    ______ ____

>  <TORSDO>
F 20

$$$$
=
 OpenBabel10262420283D

 55 58  0  0  1  0  0  0  0  0999 V2000
  184.0100  178.9180  144.5810 C   0  0  0  0  0  0  0  0  0  0  0  0
  184.3720  178.2240  146.9570 C   0  0  0  0  0  1  0  0  0  0  0  0
  184.8830  178.7750  145.7130 N   0  0  0  0  0  0  0  0  0  0  0  0
  182.7690  178.7380  144.7130 O   0  0  0  0  0  0  0  0  0  0  0  0
  184.5490  179.2780  143.2350 C   0  0  0  0  0  2  0  0  0  0  0  0
  183.6470  178.7180  142.1520 C   0  0  0  0  0  2  0  0  0  0  0  0
  184.4620  178.2330  140.9640 C   0  0  0  0  0  2  0  0  0  0  0  0
  184.1180  179.0400  139.7240 C   0  0  0  0  0  2  0  0  0  0  0  0
  184.6400  178.3350  138.4800 C   0  0  0  0  0  2  0  0  0  0  0  0
  183.4880  177.8590  137.6120 C   0  0  0  0  0  2  0  0  0  0  0  0
  183.4080  176.4030  137.6090 N   0  0  0  0  0  0  0  0  0  0  0  0
  186.1780  174.1470  136.9140 O   0  0  0  0  0  0  0  0  0  0  0  0
  184.6450  175.8770  137.1730 N   0  0  0  0  0  2  0  0  0  0  0  0
  185.0190  174.4910  137.2470 C   0  0  0  0  0  0  0  0  0  0  0  0
  184.1160  173.5200  137.6820 O   0  0  0  0  0  1  0  0  0  0  0  0
  182.3660  176.0010  136.6650 C   0  0  0  0  0  2  0  0  0  0  0  0
  179.4780  177.0590  136.9620 N   0  0  0  0  0  0  0  0  0  0  0  0
  182.4840  175.6530  139.4010 F   0  0  0  0  0  0  0  0  0  0  0  0
  181.2240  175.2800  137.3830 C   0  0  1  0  0  3  0  0  0  0  0  0
  179.8200  179.5790  139.7880 C   0  0  0  0  0  2  0  0  0  0  0  0
  180.6310  174.3950  139.4950 F   0  0  0  0  0  0  0  0  0  0  0  0
  181.1890  175.5170  138.9080 C   0  0  0  0  0  0  0  0  0  0  0  0
  179.8840  177.8020  135.7770 C   0  0  0  0  0  1  0  0  0  0  0  0
  179.9360  178.5940  140.9430 C   0  0  0  0  0  2  0  0  0  0  0  0
  180.8480  177.4400  140.5480 C   0  0  0  0  0  2  0  0  0  0  0  0
  180.1060  177.7110  138.1270 C   0  0  2  0  0  3  0  0  0  0  0  0
  180.3150  176.7290  139.2960 C   0  0  1  0  0  3  0  0  0  0  0  0
  179.2240  178.8800  138.5740 C   0  0  0  0  0  2  0  0  0  0  0  0
  179.8780  175.6540  136.7480 C   0  0  0  0  0  2  0  0  0  0  0  0
  186.2980  179.1010  145.6350 C   0  0  0  0  0  2  0  0  0  0  0  0
  187.1350  177.8650  145.9230 C   0  0  0  0  0  2  0  0  0  0  0  0
  187.1640  176.9310  144.7290 C   0  0  0  0  0  2  0  0  0  0  0  0
  187.9100  177.5720  143.5620 C   0  0  0  0  0  2  0  0  0  0  0  0
  191.4450  179.0240  143.9770 C   0  0  0  0  0  3  0  0  0  0  0  0
  191.3130  176.9970  145.2920 C   0  0  1  0  0  3  0  0  0  0  0  0
  190.0590  178.8480  143.4020 C   0  0  0  0  0  2  0  0  0  0  0  0
  189.7900  177.0490  145.1220 C   0  0  0  0  0  2  0  0  0  0  0  0
  191.9580  178.2170  144.8450 N   0  0  0  0  0  0  0  0  0  0  0  0
  189.4330  177.4780  143.6970 C   0  0  1  0  0  0  0  0  0  0  0  0
  191.7500  176.6450  146.7120 C   0  0  1  0  0  3  0  0  0  0  0  0
  190.6360  176.7410  147.6410 N   0  0  0  0  0  1  0  0  0  0  0  0
  192.3550  175.2530  146.7660 C   0  0  0  0  0  1  0  0  0  0  0  0
  190.0870  176.2210  142.5170 S   0  0  0  0  0  0  0  0  0  0  0  0
  188.7160  178.1990  138.6080 C   0  0  0  0  0  3  0  0  0  0  0  0
  187.9990  178.3990  139.7870 C   0  0  0  0  0  3  0  0  0  0  0  0
  191.4020  176.0040  139.7910 F   0  0  0  0  0  0  0  0  0  0  0  0
  189.5940  177.0200  140.9880 C   0  0  0  0  0  0  0  0  0  0  0  0
  188.4390  177.8090  140.9760 C   0  0  0  0  0  3  0  0  0  0  0  0
  190.3070  176.8080  139.7970 C   0  0  0  0  0  0  0  0  0  0  0  0
  189.8770  177.4070  138.6050 C   0  0  0  0  0  0  0  0  0  0  0  0
  190.6260  177.2000  137.4350 O   0  0  0  0  0  0  0  0  0  0  0  0
  189.6870  175.0630  136.8850 C   0  0  0  0  0  1  0  0  0  0  0  0
  191.3030  176.0980  135.5210 F   0  0  0  0  0  0  0  0  0  0  0  0
  189.1270  177.0480  135.5450 C   0  0  0  0  0  1  0  0  0  0  0  0
  190.2250  176.3700  136.3420 C   0  0  0  0  0  0  0  0  0  0  0  0
  1  4  2  0  0  0  0
  1  3  1  0  0  0  0
  3  2  1  0  0  0  0
  5  1  1  0  0  0  0
  6  5  1  0  0  0  0
  7  6  1  0  0  0  0
  8  7  1  0  0  0  0
  9  8  1  0  0  0  0
 10  9  1  0  0  0  0
 11 10  1  0  0  0  0
 12 14  2  0  0  0  0
 13 14  1  0  0  0  0
 13 11  1  0  0  0  0
 14 15  1  0  0  0  0
 16 11  1  0  0  0  0
 17 26  1  0  0  0  0
 19 16  1  6  0  0  0
 19 22  1  0  0  0  0
 20 24  1  0  0  0  0
 22 27  1  0  0  0  0
 22 18  1  0  0  0  0
 22 21  1  0  0  0  0
 23 17  1  0  0  0  0
 25 24  1  0  0  0  0
 26 28  1  1  0  0  0
 26 27  1  0  0  0  0
 27 25  1  1  0  0  0
 28 20  1  0  0  0  0
 29 17  1  0  0  0  0
 29 19  1  0  0  0  0
 30  3  1  0  0  0  0
 30 31  1  0  0  0  0
 32 31  1  0  0  0  0
 33 32  1  0  0  0  0
 34 38  2  0  0  0  0
 35 40  1  1  0  0  0
 36 39  1  0  0  0  0
 36 34  1  0  0  0  0
 37 35  1  0  0  0  0
 38 35  1  0  0  0  0
 39 33  1  6  0  0  0
 39 37  1  0  0  0  0
 40 42  1  6  0  0  0
 40 41  1  0  0  0  0
 43 39  1  0  0  0  0
 44 45  1  0  0  0  0
 45 48  2  0  0  0  0
 46 49  1  0  0  0  0
 47 43  1  0  0  0  0
 48 47  1  0  0  0  0
 49 47  2  0  0  0  0
 50 44  2  0  0  0  0
 50 49  1  0  0  0  0
 51 50  1  0  0  0  0
 53 55  1  0  0  0  0
 54 55  1  0  0  0  0
 55 52  1  0  0  0  0
 55 51  1  0  0  0  0
M  END
>  <MODEL>
8

>  <REMARK>
 VINA RESULT:      -6.0      2.408      4.103
  Name = 
  20 active torsions:
  status: ('A' for Active; 'I' for Inactive)
    1  A    between atoms: C_2  and  C_28
    2  A    between atoms: C_2  and  N_44
    3  A    between atoms: C_6  and  C_46
    4  A    between atoms: N_8  and  N_22
    5  A    between atoms: C_10  and  C_32
    6  A    between atoms: C_17  and  S_36
    7  A    between atoms: O_19  and  C_40
    8  A    between atoms: O_19  and  C_45
    9  A    between atoms: N_22  and  C_35
   10  A    between atoms: N_22  and  C_46
   11  A    between atoms: C_24  and  C_31
   12  A    between atoms: C_27  and  C_31
   13  A    between atoms: C_27  and  C_54
   14  A    between atoms: C_28  and  C_49
   15  A    between atoms: C_33  and  C_49
   16  A    between atoms: C_33  and  C_52
   17  A    between atoms: C_35  and  C_43
   18  A    between atoms: S_36  and  C_52
   19  A    between atoms: C_43  and  C_51
   20  A    between atoms: C_51  and  C_54
                            x       y       z     vdW  Elec       q    Type
                         _______ _______ _______ _____ _____    ______ ____

>  <TORSDO>
F 20

$$$$
=
 OpenBabel10262420283D

 55 58  0  0  1  0  0  0  0  0999 V2000
  183.0690  178.4700  142.2160 C   0  0  0  0  0  0  0  0  0  0  0  0
  185.2490  179.0480  141.1350 C   0  0  0  0  0  1  0  0  0  0  0  0
  184.4060  178.9840  142.3170 N   0  0  0  0  0  0  0  0  0  0  0  0
  182.6850  177.9100  141.1520 O   0  0  0  0  0  0  0  0  0  0  0  0
  182.1110  178.5880  143.3560 C   0  0  0  0  0  2  0  0  0  0  0  0
  180.9190  179.4290  142.9440 C   0  0  0  0  0  2  0  0  0  0  0  0
  179.6370  178.6130  142.9880 C   0  0  0  0  0  2  0  0  0  0  0  0
  179.5330  177.7260  141.7600 C   0  0  0  0  0  2  0  0  0  0  0  0
  179.3910  178.5800  140.5080 C   0  0  0  0  0  2  0  0  0  0  0  0
  179.4050  177.7110  139.2620 C   0  0  0  0  0  2  0  0  0  0  0  0
  180.6830  177.8230  138.5680 N   0  0  0  0  0  0  0  0  0  0  0  0
  180.9300  180.9460  136.7150 O   0  0  0  0  0  0  0  0  0  0  0  0
  180.5740  178.8090  137.5610 N   0  0  0  0  0  2  0  0  0  0  0  0
  181.1660  180.1170  137.6260 C   0  0  0  0  0  0  0  0  0  0  0  0
  182.0000  180.4820  138.6840 O   0  0  0  0  0  1  0  0  0  0  0  0
  180.9780  176.5370  137.9370 C   0  0  0  0  0  2  0  0  0  0  0  0
  181.3740  174.5250  135.6260 N   0  0  0  0  0  0  0  0  0  0  0  0
  183.7010  176.5000  138.3900 F   0  0  0  0  0  0  0  0  0  0  0  0
  181.9400  176.7110  136.7610 C   0  0  1  0  0  3  0  0  0  0  0  0
  183.6070  171.8890  137.2130 C   0  0  0  0  0  2  0  0  0  0  0  0
  184.2350  177.0220  136.2770 F   0  0  0  0  0  0  0  0  0  0  0  0
  183.3860  176.2570  137.0570 C   0  0  0  0  0  0  0  0  0  0  0  0
  180.0310  174.1470  136.0440 C   0  0  0  0  0  1  0  0  0  0  0  0
  184.9110  172.6740  137.2000 C   0  0  0  0  0  2  0  0  0  0  0  0
  184.6500  174.1150  137.6190 C   0  0  0  0  0  2  0  0  0  0  0  0
  182.3170  173.9640  136.6120 C   0  0  2  0  0  3  0  0  0  0  0  0
  183.6240  174.7760  136.6890 C   0  0  1  0  0  3  0  0  0  0  0  0
  182.6210  172.5120  136.2330 C   0  0  0  0  0  2  0  0  0  0  0  0
  181.3940  175.9980  135.5180 C   0  0  0  0  0  2  0  0  0  0  0  0
  184.9300  179.5160  143.5650 C   0  0  0  0  0  2  0  0  0  0  0  0
  185.5780  178.4050  144.3740 C   0  0  0  0  0  2  0  0  0  0  0  0
  186.6530  177.6960  143.5720 C   0  0  0  0  0  2  0  0  0  0  0  0
  187.8690  178.5990  143.3850 C   0  0  0  0  0  2  0  0  0  0  0  0
  191.6660  178.4790  143.9750 C   0  0  0  0  0  3  0  0  0  0  0  0
  190.6150  177.0000  145.5770 C   0  0  1  0  0  3  0  0  0  0  0  0
  190.3630  178.7930  143.2760 C   0  0  0  0  0  2  0  0  0  0  0  0
  189.2740  177.6540  145.2210 C   0  0  0  0  0  2  0  0  0  0  0  0
  191.7430  177.7200  145.0180 N   0  0  0  0  0  0  0  0  0  0  0  0
  189.1930  177.9010  143.7130 C   0  0  1  0  0  0  0  0  0  0  0  0
  190.8020  176.7850  147.0770 C   0  0  1  0  0  3  0  0  0  0  0  0
  189.5360  176.4830  147.7240 N   0  0  0  0  0  1  0  0  0  0  0  0
  191.8020  175.6750  147.3470 C   0  0  0  0  0  1  0  0  0  0  0  0
  189.2770  176.2800  142.8390 S   0  0  0  0  0  0  0  0  0  0  0  0
  189.9660  177.7670  138.5510 C   0  0  0  0  0  3  0  0  0  0  0  0
  188.7000  177.8500  139.1290 C   0  0  0  0  0  3  0  0  0  0  0  0
  191.8820  176.2520  141.2840 F   0  0  0  0  0  0  0  0  0  0  0  0
  189.5770  176.8960  141.1800 C   0  0  0  0  0  0  0  0  0  0  0  0
  188.5080  177.4140  140.4440 C   0  0  0  0  0  3  0  0  0  0  0  0
  190.8490  176.7990  140.5920 C   0  0  0  0  0  0  0  0  0  0  0  0
  191.0500  177.2460  139.2780 C   0  0  0  0  0  0  0  0  0  0  0  0
  192.3390  177.1630  138.7260 O   0  0  0  0  0  0  0  0  0  0  0  0
  191.7440  175.0160  137.8380 C   0  0  0  0  0  1  0  0  0  0  0  0
  193.9020  175.4630  138.6670 F   0  0  0  0  0  0  0  0  0  0  0  0
  193.2910  176.4820  136.6110 C   0  0  0  0  0  1  0  0  0  0  0  0
  192.8440  176.0440  137.9920 C   0  0  0  0  0  0  0  0  0  0  0  0
  1  3  1  0  0  0  0
  1  5  1  0  0  0  0
  2  3  1  0  0  0  0
  3 30  1  0  0  0  0
  4  1  2  0  0  0  0
  6  7  1  0  0  0  0
  6  5  1  0  0  0  0
  8  7  1  0  0  0  0
  9  8  1  0  0  0  0
 10  9  1  0  0  0  0
 11 10  1  0  0  0  0
 12 14  2  0  0  0  0
 13 14  1  0  0  0  0
 13 11  1  0  0  0  0
 14 15  1  0  0  0  0
 16 11  1  0  0  0  0
 17 23  1  0  0  0  0
 17 26  1  0  0  0  0
 19 22  1  0  0  0  0
 19 16  1  1  0  0  0
 21 22  1  0  0  0  0
 22 18  1  0  0  0  0
 24 20  1  0  0  0  0
 24 25  1  0  0  0  0
 26 28  1  6  0  0  0
 26 27  1  0  0  0  0
 27 22  1  0  0  0  0
 27 25  1  1  0  0  0
 28 20  1  0  0  0  0
 29 17  1  0  0  0  0
 29 19  1  0  0  0  0
 30 31  1  0  0  0  0
 32 31  1  0  0  0  0
 33 32  1  0  0  0  0
 34 38  2  0  0  0  0
 35 40  1  1  0  0  0
 36 39  1  0  0  0  0
 36 34  1  0  0  0  0
 37 35  1  0  0  0  0
 38 35  1  0  0  0  0
 39 33  1  6  0  0  0
 39 37  1  0  0  0  0
 40 42  1  6  0  0  0
 40 41  1  0  0  0  0
 43 39  1  0  0  0  0
 44 45  2  0  0  0  0
 44 50  1  0  0  0  0
 45 48  1  0  0  0  0
 47 43  1  0  0  0  0
 48 47  2  0  0  0  0
 49 47  1  0  0  0  0
 49 46  1  0  0  0  0
 50 49  2  0  0  0  0
 51 50  1  0  0  0  0
 52 55  1  0  0  0  0
 54 55  1  0  0  0  0
 55 53  1  0  0  0  0
 55 51  1  0  0  0  0
M  END
>  <MODEL>
9

>  <REMARK>
 VINA RESULT:      -5.9      1.471      1.913
  Name = 
  20 active torsions:
  status: ('A' for Active; 'I' for Inactive)
    1  A    between atoms: C_2  and  C_28
    2  A    between atoms: C_2  and  N_44
    3  A    between atoms: C_6  and  C_46
    4  A    between atoms: N_8  and  N_22
    5  A    between atoms: C_10  and  C_32
    6  A    between atoms: C_17  and  S_36
    7  A    between atoms: O_19  and  C_40
    8  A    between atoms: O_19  and  C_45
    9  A    between atoms: N_22  and  C_35
   10  A    between atoms: N_22  and  C_46
   11  A    between atoms: C_24  and  C_31
   12  A    between atoms: C_27  and  C_31
   13  A    between atoms: C_27  and  C_54
   14  A    between atoms: C_28  and  C_49
   15  A    between atoms: C_33  and  C_49
   16  A    between atoms: C_33  and  C_52
   17  A    between atoms: C_35  and  C_43
   18  A    between atoms: S_36  and  C_52
   19  A    between atoms: C_43  and  C_51
   20  A    between atoms: C_51  and  C_54
                            x       y       z     vdW  Elec       q    Type
                         _______ _______ _______ _____ _____    ______ ____

>  <TORSDO>
F 20

$$$$
