=
 OpenBabel10262420003D

 27 31  0  0  1  0  0  0  0  0999 V2000
  186.7990  177.2130  144.2440 C   0  0  0  0  0  2  0  0  0  0  0  0
  188.8910  177.1490  142.8900 C   0  0  0  0  0  0  0  0  0  0  0  0
  187.3390  178.7650  141.5730 C   0  0  0  0  0  2  0  0  0  0  0  0
  190.5640  176.0870  139.3400 N   0  0  0  0  0  0  0  0  0  0  0  0
  189.9650  176.7550  137.1610 O   0  0  0  0  0  0  0  0  0  0  0  0
  189.9080  176.3190  142.9140 N   0  0  0  0  0  0  0  0  0  0  0  0
  188.7380  177.7020  139.0440 C   0  0  2  0  0  3  0  0  0  0  0  0
  183.5460  178.8550  141.9840 C   0  0  0  0  0  2  0  0  0  0  0  0
  189.0870  179.1640  138.8220 C   0  0  0  0  0  1  0  0  0  0  0  0
  183.5290  179.0430  143.4910 C   0  0  1  0  0  3  0  0  0  0  0  0
  188.9910  177.3180  140.4630 C   0  0  0  0  0  0  0  0  0  0  0  0
  188.2220  177.4910  144.1140 N   0  0  0  0  0  0  0  0  0  0  0  0
  189.7850  176.8350  138.4040 C   0  0  0  0  0  0  0  0  0  0  0  0
  190.0830  176.3870  140.4960 C   0  0  0  0  0  0  0  0  0  0  0  0
  185.9380  178.3050  143.6180 C   0  0  2  0  0  3  0  0  0  0  0  0
  188.3920  177.7050  141.5950 C   0  0  0  0  0  0  0  0  0  0  0  0
  184.9350  179.1750  141.4560 C   0  0  0  0  0  2  0  0  0  0  0  0
  190.5650  175.8950  141.7400 N   0  0  0  0  0  2  0  0  0  0  0  0
  182.2480  178.7860  143.9770 O   0  0  0  0  0  1  0  0  0  0  0  0
  184.5140  178.0730  144.1270 C   0  0  0  0  0  2  0  0  0  0  0  0
  185.9950  178.2600  142.0750 C   0  0  1  0  0  3  0  0  0  0  0  0
  190.0170  177.3960  148.0010 C   0  0  0  0  0  2  0  0  0  0  0  0
  188.9500  177.8860  145.3180 C   0  0  0  0  0  3  0  0  0  0  0  0
  188.0390  177.8880  146.5480 C   0  0  0  0  0  2  0  0  0  0  0  0
  188.8220  178.3200  147.7840 C   0  0  0  0  0  2  0  0  0  0  0  0
  190.9320  177.4250  146.7820 C   0  0  0  0  0  2  0  0  0  0  0  0
  190.1680  176.9850  145.5360 C   0  0  0  0  0  2  0  0  0  0  0  0
  2  6  2  0  0  0  0
  2 12  1  0  0  0  0
  3 16  1  0  0  0  0
  3 21  1  0  0  0  0
  4 14  2  0  0  0  0
  5 13  2  0  0  0  0
  7  9  1  1  0  0  0
  7 11  1  0  0  0  0
  8 10  1  0  0  0  0
 10 19  1  1  0  0  0
 10 20  1  0  0  0  0
 11 14  1  0  0  0  0
 11 16  2  0  0  0  0
 12  1  1  0  0  0  0
 12 23  1  0  0  0  0
 13  7  1  0  0  0  0
 13  4  1  0  0  0  0
 14 18  1  0  0  0  0
 15 20  1  6  0  0  0
 15  1  1  0  0  0  0
 16  2  1  0  0  0  0
 17  8  1  0  0  0  0
 18  6  1  0  0  0  0
 21 17  1  6  0  0  0
 21 15  1  0  0  0  0
 23 27  1  0  0  0  0
 23 24  1  0  0  0  0
 24 25  1  0  0  0  0
 25 22  1  0  0  0  0
 26 22  1  0  0  0  0
 27 26  1  0  0  0  0
M  END
>  <MODEL>
1

>  <REMARK>
 VINA RESULT:      -9.1      0.000      0.000
  Name = 
  1 active torsions:
  status: ('A' for Active; 'I' for Inactive)
    1  A    between atoms: C_9  and  N_15
                            x       y       z     vdW  Elec       q    Type
                         _______ _______ _______ _____ _____    ______ ____

>  <TORSDO>
F 1

$$$$
=
 OpenBabel10262420003D

 27 31  0  0  1  0  0  0  0  0999 V2000
  186.0240  179.0680  145.0110 C   0  0  0  0  0  2  0  0  0  0  0  0
  186.6050  178.4040  142.6790 C   0  0  0  0  0  0  0  0  0  0  0  0
  188.1200  176.8970  144.1580 C   0  0  0  0  0  2  0  0  0  0  0  0
  189.5120  178.3020  139.8400 N   0  0  0  0  0  0  0  0  0  0  0  0
  191.6510  177.3160  139.9440 O   0  0  0  0  0  0  0  0  0  0  0  0
  186.3620  178.9900  141.5300 N   0  0  0  0  0  0  0  0  0  0  0  0
  190.1660  177.0740  141.8640 C   0  0  2  0  0  3  0  0  0  0  0  0
  188.9790  177.6850  147.7920 C   0  0  0  0  0  2  0  0  0  0  0  0
  190.0530  175.5590  141.8660 C   0  0  0  0  0  1  0  0  0  0  0  0
  187.5530  177.8360  148.2900 C   0  0  1  0  0  3  0  0  0  0  0  0
  188.8120  177.6960  141.9360 C   0  0  0  0  0  0  0  0  0  0  0  0
  185.6360  178.4820  143.7370 N   0  0  0  0  0  0  0  0  0  0  0  0
  190.5390  177.5470  140.4870 C   0  0  0  0  0  0  0  0  0  0  0  0
  188.5510  178.3660  140.6940 C   0  0  0  0  0  0  0  0  0  0  0  0
  186.7400  178.0690  145.9130 C   0  0  2  0  0  3  0  0  0  0  0  0
  187.9000  177.6960  142.9150 C   0  0  0  0  0  0  0  0  0  0  0  0
  188.9680  176.9780  146.4460 C   0  0  0  0  0  2  0  0  0  0  0  0
  187.3000  179.0050  140.4770 N   0  0  0  0  0  2  0  0  0  0  0  0
  187.5590  178.4510  149.5410 O   0  0  0  0  0  1  0  0  0  0  0  0
  186.7690  178.6950  147.3090 C   0  0  0  0  0  2  0  0  0  0  0  0
  188.1680  177.7660  145.4060 C   0  0  1  0  0  3  0  0  0  0  0  0
  181.4660  179.0370  142.9340 C   0  0  0  0  0  2  0  0  0  0  0  0
  184.2160  178.2150  143.5170 C   0  0  0  0  0  3  0  0  0  0  0  0
  183.3480  178.8930  144.5790 C   0  0  0  0  0  2  0  0  0  0  0  0
  181.8740  178.5830  144.3320 C   0  0  0  0  0  2  0  0  0  0  0  0
  182.3180  178.3330  141.8830 C   0  0  0  0  0  2  0  0  0  0  0  0
  183.7960  178.6410  142.1080 C   0  0  0  0  0  2  0  0  0  0  0  0
  2 16  1  0  0  0  0
  2 12  1  0  0  0  0
  4 13  1  0  0  0  0
  4 14  2  0  0  0  0
  5 13  2  0  0  0  0
  6  2  2  0  0  0  0
  7  9  1  6  0  0  0
  7 11  1  0  0  0  0
  8 10  1  0  0  0  0
 10 19  1  1  0  0  0
 11 16  2  0  0  0  0
 12  1  1  0  0  0  0
 13  7  1  0  0  0  0
 14 11  1  0  0  0  0
 15  1  1  6  0  0  0
 15 20  1  0  0  0  0
 16  3  1  0  0  0  0
 17  8  1  0  0  0  0
 18 14  1  0  0  0  0
 18  6  1  0  0  0  0
 20 10  1  0  0  0  0
 21  3  1  6  0  0  0
 21 15  1  0  0  0  0
 21 17  1  0  0  0  0
 22 25  1  0  0  0  0
 23 12  1  0  0  0  0
 23 24  1  0  0  0  0
 25 24  1  0  0  0  0
 26 27  1  0  0  0  0
 26 22  1  0  0  0  0
 27 23  1  0  0  0  0
M  END
>  <MODEL>
2

>  <REMARK>
 VINA RESULT:      -8.4      2.350      5.295
  Name = 
  1 active torsions:
  status: ('A' for Active; 'I' for Inactive)
    1  A    between atoms: C_9  and  N_15
                            x       y       z     vdW  Elec       q    Type
                         _______ _______ _______ _____ _____    ______ ____

>  <TORSDO>
F 1

$$$$
=
 OpenBabel10262420003D

 27 31  0  0  1  0  0  0  0  0999 V2000
  191.2600  177.5930  139.2640 C   0  0  0  0  0  2  0  0  0  0  0  0
  188.7680  177.5270  139.2930 C   0  0  0  0  0  0  0  0  0  0  0  0
  189.4370  175.4220  137.9220 C   0  0  0  0  0  2  0  0  0  0  0  0
  185.3750  177.7300  137.0640 N   0  0  0  0  0  0  0  0  0  0  0  0
  184.7240  176.3980  135.2310 O   0  0  0  0  0  0  0  0  0  0  0  0
  187.8850  178.4480  139.6010 N   0  0  0  0  0  0  0  0  0  0  0  0
  186.8290  175.8840  136.3510 C   0  0  2  0  0  3  0  0  0  0  0  0
  192.8380  174.9840  136.2490 C   0  0  0  0  0  2  0  0  0  0  0  0
  186.4960  174.4740  136.8100 C   0  0  0  0  0  1  0  0  0  0  0  0
  193.6840  175.2340  137.4850 C   0  0  1  0  0  3  0  0  0  0  0  0
  187.3700  176.6860  137.4870 C   0  0  0  0  0  0  0  0  0  0  0  0
  190.0140  177.4690  140.0050 N   0  0  0  0  0  0  0  0  0  0  0  0
  185.5570  176.6550  136.1390 C   0  0  0  0  0  0  0  0  0  0  0  0
  186.4240  177.7150  137.8100 C   0  0  0  0  0  0  0  0  0  0  0  0
  191.6990  176.2700  138.6450 C   0  0  2  0  0  3  0  0  0  0  0  0
  188.5100  176.5670  138.1770 C   0  0  0  0  0  0  0  0  0  0  0  0
  191.4050  174.7010  136.6730 C   0  0  0  0  0  2  0  0  0  0  0  0
  186.6720  178.5970  138.8970 N   0  0  0  0  0  2  0  0  0  0  0  0
  195.0070  175.4580  137.1050 O   0  0  0  0  0  1  0  0  0  0  0  0
  193.1550  176.4590  138.2150 C   0  0  0  0  0  2  0  0  0  0  0  0
  190.8070  175.8790  137.4460 C   0  0  1  0  0  3  0  0  0  0  0  0
  190.8490  176.4660  144.0850 C   0  0  0  0  0  2  0  0  0  0  0  0
  190.0840  177.5270  141.4650 C   0  0  0  0  0  3  0  0  0  0  0  0
  189.3150  176.3710  142.1080 C   0  0  0  0  0  2  0  0  0  0  0  0
  189.3930  176.4690  143.6290 C   0  0  0  0  0  2  0  0  0  0  0  0
  191.5980  177.6390  143.4600 C   0  0  0  0  0  2  0  0  0  0  0  0
  191.5400  177.5520  141.9370 C   0  0  0  0  0  2  0  0  0  0  0  0
  1 12  1  0  0  0  0
  2  6  2  0  0  0  0
  2 12  1  0  0  0  0
  3 16  1  0  0  0  0
  4 14  2  0  0  0  0
  5 13  2  0  0  0  0
  7  9  1  1  0  0  0
  7 11  1  0  0  0  0
  8 17  1  0  0  0  0
  8 10  1  0  0  0  0
 10 19  1  6  0  0  0
 10 20  1  0  0  0  0
 11 14  1  0  0  0  0
 11 16  2  0  0  0  0
 12 23  1  0  0  0  0
 13  7  1  0  0  0  0
 13  4  1  0  0  0  0
 14 18  1  0  0  0  0
 15 20  1  6  0  0  0
 15  1  1  0  0  0  0
 16  2  1  0  0  0  0
 18  6  1  0  0  0  0
 21 17  1  1  0  0  0
 21  3  1  0  0  0  0
 21 15  1  0  0  0  0
 23 27  1  0  0  0  0
 23 24  1  0  0  0  0
 24 25  1  0  0  0  0
 25 22  1  0  0  0  0
 26 22  1  0  0  0  0
 27 26  1  0  0  0  0
M  END
>  <MODEL>
3

>  <REMARK>
 VINA RESULT:      -8.3      3.808      6.840
  Name = 
  1 active torsions:
  status: ('A' for Active; 'I' for Inactive)
    1  A    between atoms: C_9  and  N_15
                            x       y       z     vdW  Elec       q    Type
                         _______ _______ _______ _____ _____    ______ ____

>  <TORSDO>
F 1

$$$$
=
 OpenBabel10262420003D

 27 31  0  0  1  0  0  0  0  0999 V2000
  185.2830  179.1850  143.2010 C   0  0  0  0  0  2  0  0  0  0  0  0
  186.5740  178.2780  141.2710 C   0  0  0  0  0  0  0  0  0  0  0  0
  187.6490  177.1310  143.3410 C   0  0  0  0  0  2  0  0  0  0  0  0
  190.2030  178.0810  139.4500 N   0  0  0  0  0  0  0  0  0  0  0  0
  192.2590  177.3270  140.3220 O   0  0  0  0  0  0  0  0  0  0  0  0
  186.6590  178.6820  140.0250 N   0  0  0  0  0  0  0  0  0  0  0  0
  190.2790  177.1990  141.7410 C   0  0  2  0  0  3  0  0  0  0  0  0
  187.3300  178.4700  146.9000 C   0  0  0  0  0  2  0  0  0  0  0  0
  190.2500  175.6940  141.9440 C   0  0  0  0  0  1  0  0  0  0  0  0
  185.8140  178.5480  146.9320 C   0  0  1  0  0  3  0  0  0  0  0  0
  188.9360  177.6930  141.3200 C   0  0  0  0  0  0  0  0  0  0  0  0
  185.3280  178.4010  141.9760 N   0  0  0  0  0  0  0  0  0  0  0  0
  191.0250  177.5200  140.4760 C   0  0  0  0  0  0  0  0  0  0  0  0
  189.0270  178.1650  139.9670 C   0  0  0  0  0  0  0  0  0  0  0  0
  185.7450  178.3870  144.4150 C   0  0  2  0  0  3  0  0  0  0  0  0
  187.7720  177.7350  141.9790 C   0  0  0  0  0  0  0  0  0  0  0  0
  187.7610  177.5940  145.7350 C   0  0  0  0  0  2  0  0  0  0  0  0
  187.8680  178.6470  139.3000 N   0  0  0  0  0  2  0  0  0  0  0  0
  185.4100  179.3200  148.0200 O   0  0  0  0  0  1  0  0  0  0  0  0
  185.3190  179.1910  145.6450 C   0  0  0  0  0  2  0  0  0  0  0  0
  187.2720  178.1580  144.3980 C   0  0  1  0  0  3  0  0  0  0  0  0
  181.5420  178.4580  139.9740 C   0  0  0  0  0  2  0  0  0  0  0  0
  184.0560  177.9730  141.3960 C   0  0  0  0  0  3  0  0  0  0  0  0
  182.8700  178.6490  142.0880 C   0  0  0  0  0  2  0  0  0  0  0  0
  181.5580  178.1700  141.4730 C   0  0  0  0  0  2  0  0  0  0  0  0
  182.7120  177.7550  139.2920 C   0  0  0  0  0  2  0  0  0  0  0  0
  184.0340  178.2300  139.8870 C   0  0  0  0  0  2  0  0  0  0  0  0
  2 12  1  0  0  0  0
  2 16  1  0  0  0  0
  4 14  2  0  0  0  0
  4 13  1  0  0  0  0
  5 13  2  0  0  0  0
  6  2  2  0  0  0  0
  7  9  1  6  0  0  0
  8 10  1  0  0  0  0
 10 19  1  1  0  0  0
 11  7  1  0  0  0  0
 11 16  2  0  0  0  0
 12  1  1  0  0  0  0
 13  7  1  0  0  0  0
 14 11  1  0  0  0  0
 15  1  1  6  0  0  0
 15 20  1  0  0  0  0
 16  3  1  0  0  0  0
 17  8  1  0  0  0  0
 18 14  1  0  0  0  0
 18  6  1  0  0  0  0
 20 10  1  0  0  0  0
 21  3  1  6  0  0  0
 21 15  1  0  0  0  0
 21 17  1  0  0  0  0
 22 25  1  0  0  0  0
 23 12  1  0  0  0  0
 23 24  1  0  0  0  0
 25 24  1  0  0  0  0
 26 27  1  0  0  0  0
 26 22  1  0  0  0  0
 27 23  1  0  0  0  0
M  END
>  <MODEL>
4

>  <REMARK>
 VINA RESULT:      -7.9      2.347      5.379
  Name = 
  1 active torsions:
  status: ('A' for Active; 'I' for Inactive)
    1  A    between atoms: C_9  and  N_15
                            x       y       z     vdW  Elec       q    Type
                         _______ _______ _______ _____ _____    ______ ____

>  <TORSDO>
F 1

$$$$
=
 OpenBabel10262420003D

 27 31  0  0  1  0  0  0  0  0999 V2000
  186.6480  178.8730  141.4350 C   0  0  0  0  0  2  0  0  0  0  0  0
  184.4140  178.5580  142.4950 C   0  0  0  0  0  0  0  0  0  0  0  0
  184.1370  177.5290  140.1240 C   0  0  0  0  0  2  0  0  0  0  0  0
  180.4710  179.5400  142.3780 N   0  0  0  0  0  0  0  0  0  0  0  0
  178.9310  179.2780  140.6130 O   0  0  0  0  0  0  0  0  0  0  0  0
  183.8840  179.1000  143.5660 N   0  0  0  0  0  0  0  0  0  0  0  0
  181.2100  178.4720  140.2940 C   0  0  2  0  0  3  0  0  0  0  0  0
  186.4310  178.3440  137.1860 C   0  0  0  0  0  2  0  0  0  0  0  0
  180.8960  177.0010  140.0770 C   0  0  0  0  0  1  0  0  0  0  0  0
  187.7410  178.0080  137.8770 C   0  0  1  0  0  3  0  0  0  0  0  0
  182.2850  178.6280  141.3160 C   0  0  0  0  0  0  0  0  0  0  0  0
  185.8200  178.2660  142.4660 N   0  0  0  0  0  0  0  0  0  0  0  0
  180.0930  179.1140  141.0670 C   0  0  0  0  0  0  0  0  0  0  0  0
  181.7210  179.2490  142.4800 C   0  0  0  0  0  0  0  0  0  0  0  0
  186.5920  178.1040  140.1200 C   0  0  2  0  0  3  0  0  0  0  0  0
  183.5780  178.2850  141.2870 C   0  0  0  0  0  0  0  0  0  0  0  0
  185.2790  177.7460  137.9790 C   0  0  0  0  0  2  0  0  0  0  0  0
  182.5240  179.4690  143.6320 N   0  0  0  0  0  2  0  0  0  0  0  0
  188.8030  178.5230  137.1350 O   0  0  0  0  0  1  0  0  0  0  0  0
  187.7480  178.6280  139.2660 C   0  0  0  0  0  2  0  0  0  0  0  0
  185.2360  178.2970  139.4060 C   0  0  1  0  0  3  0  0  0  0  0  0
  188.3860  177.4530  145.7980 C   0  0  0  0  0  2  0  0  0  0  0  0
  186.4980  177.5760  143.5620 C   0  0  0  0  0  3  0  0  0  0  0  0
  188.0070  177.4920  143.3230 C   0  0  0  0  0  2  0  0  0  0  0  0
  188.6830  176.7530  144.4750 C   0  0  0  0  0  2  0  0  0  0  0  0
  186.8800  177.5040  146.0390 C   0  0  0  0  0  2  0  0  0  0  0  0
  186.1880  178.2500  144.9010 C   0  0  0  0  0  2  0  0  0  0  0  0
  1 12  1  0  0  0  0
  2  6  2  0  0  0  0
  3 16  1  0  0  0  0
  4 14  2  0  0  0  0
  5 13  2  0  0  0  0
  6 18  1  0  0  0  0
  7  9  1  1  0  0  0
  7 13  1  0  0  0  0
  7 11  1  0  0  0  0
  8 10  1  0  0  0  0
  8 17  1  0  0  0  0
 10 19  1  6  0  0  0
 10 20  1  0  0  0  0
 11 14  1  0  0  0  0
 12  2  1  0  0  0  0
 12 23  1  0  0  0  0
 13  4  1  0  0  0  0
 14 18  1  0  0  0  0
 15 20  1  6  0  0  0
 15  1  1  0  0  0  0
 16 11  2  0  0  0  0
 16  2  1  0  0  0  0
 21 17  1  6  0  0  0
 21 15  1  0  0  0  0
 21  3  1  0  0  0  0
 22 26  1  0  0  0  0
 23 27  1  0  0  0  0
 24 23  1  0  0  0  0
 24 25  1  0  0  0  0
 25 22  1  0  0  0  0
 27 26  1  0  0  0  0
M  END
>  <MODEL>
5

>  <REMARK>
 VINA RESULT:      -7.6      3.063      6.532
  Name = 
  1 active torsions:
  status: ('A' for Active; 'I' for Inactive)
    1  A    between atoms: C_9  and  N_15
                            x       y       z     vdW  Elec       q    Type
                         _______ _______ _______ _____ _____    ______ ____

>  <TORSDO>
F 1

$$$$
=
 OpenBabel10262420003D

 27 31  0  0  1  0  0  0  0  0999 V2000
  187.6860  178.7270  140.9480 C   0  0  0  0  0  2  0  0  0  0  0  0
  189.2010  177.8920  142.7430 C   0  0  0  0  0  0  0  0  0  0  0  0
  186.8200  177.3110  143.6080 C   0  0  0  0  0  2  0  0  0  0  0  0
  190.3600  178.2940  146.6190 N   0  0  0  0  0  0  0  0  0  0  0  0
  189.0550  178.1570  148.5770 O   0  0  0  0  0  0  0  0  0  0  0  0
  190.4680  178.1340  142.9830 N   0  0  0  0  0  0  0  0  0  0  0  0
  187.9690  177.7680  146.4290 C   0  0  2  0  0  3  0  0  0  0  0  0
  183.6420  179.0030  142.3440 C   0  0  0  0  0  2  0  0  0  0  0  0
  187.5160  176.3370  146.6660 C   0  0  0  0  0  1  0  0  0  0  0  0
  183.8650  178.7330  140.8670 C   0  0  1  0  0  3  0  0  0  0  0  0
  188.6770  177.8780  145.1200 C   0  0  0  0  0  0  0  0  0  0  0  0
  188.7350  177.8180  141.3860 N   0  0  0  0  0  0  0  0  0  0  0  0
  189.1350  178.0790  147.3230 C   0  0  0  0  0  0  0  0  0  0  0  0
  190.0580  178.1730  145.3730 C   0  0  0  0  0  0  0  0  0  0  0  0
  186.2950  178.2260  141.3180 C   0  0  2  0  0  3  0  0  0  0  0  0
  188.2290  177.7390  143.8670 C   0  0  0  0  0  0  0  0  0  0  0  0
  184.5550  178.1020  143.1610 C   0  0  0  0  0  2  0  0  0  0  0  0
  190.9750  178.2820  144.2910 N   0  0  0  0  0  2  0  0  0  0  0  0
  183.0050  179.5300  140.1130 O   0  0  0  0  0  1  0  0  0  0  0  0
  185.3060  179.0680  140.5090 C   0  0  0  0  0  2  0  0  0  0  0  0
  186.0290  178.3540  142.8350 C   0  0  1  0  0  3  0  0  0  0  0  0
  190.8610  176.7440  137.8280 C   0  0  0  0  0  2  0  0  0  0  0  0
  189.4260  177.0350  140.3640 C   0  0  0  0  0  3  0  0  0  0  0  0
  188.6890  177.0890  139.0240 C   0  0  0  0  0  2  0  0  0  0  0  0
  189.4260  176.2510  137.9830 C   0  0  0  0  0  2  0  0  0  0  0  0
  191.5940  176.6570  139.1630 C   0  0  0  0  0  2  0  0  0  0  0  0
  190.8770  177.4990  140.2140 C   0  0  0  0  0  2  0  0  0  0  0  0
  1 15  1  0  0  0  0
  1 12  1  0  0  0  0
  2  6  2  0  0  0  0
  2 16  1  0  0  0  0
  3 16  1  0  0  0  0
  4 13  1  0  0  0  0
  6 18  1  0  0  0  0
  7  9  1  1  0  0  0
  7 13  1  0  0  0  0
  8 17  1  0  0  0  0
 10 19  1  6  0  0  0
 10  8  1  0  0  0  0
 11 14  1  0  0  0  0
 11  7  1  0  0  0  0
 12  2  1  0  0  0  0
 13  5  2  0  0  0  0
 14  4  2  0  0  0  0
 15 20  1  6  0  0  0
 15 21  1  0  0  0  0
 16 11  2  0  0  0  0
 18 14  1  0  0  0  0
 20 10  1  0  0  0  0
 21 17  1  6  0  0  0
 21  3  1  0  0  0  0
 22 25  1  0  0  0  0
 22 26  1  0  0  0  0
 23 12  1  0  0  0  0
 24 23  1  0  0  0  0
 25 24  1  0  0  0  0
 26 27  1  0  0  0  0
 27 23  1  0  0  0  0
M  END
>  <MODEL>
6

>  <REMARK>
 VINA RESULT:      -7.5      2.221      5.849
  Name = 
  1 active torsions:
  status: ('A' for Active; 'I' for Inactive)
    1  A    between atoms: C_9  and  N_15
                            x       y       z     vdW  Elec       q    Type
                         _______ _______ _______ _____ _____    ______ ____

>  <TORSDO>
F 1

$$$$
=
 OpenBabel10262420003D

 27 31  0  0  1  0  0  0  0  0999 V2000
  188.0370  178.9660  142.1540 C   0  0  0  0  0  2  0  0  0  0  0  0
  187.1310  178.2560  139.9430 C   0  0  0  0  0  0  0  0  0  0  0  0
  189.2140  176.7400  140.2860 C   0  0  0  0  0  2  0  0  0  0  0  0
  187.8140  178.0510  135.9410 N   0  0  0  0  0  0  0  0  0  0  0  0
  189.5960  177.0230  134.7920 O   0  0  0  0  0  0  0  0  0  0  0  0
  186.2640  178.8300  139.1420 N   0  0  0  0  0  0  0  0  0  0  0  0
  189.5220  176.8400  137.2230 C   0  0  2  0  0  3  0  0  0  0  0  0
  192.0510  177.5630  142.7020 C   0  0  0  0  0  2  0  0  0  0  0  0
  189.4190  175.3280  137.3280 C   0  0  0  0  0  1  0  0  0  0  0  0
  191.1900  177.7510  143.9390 C   0  0  1  0  0  3  0  0  0  0  0  0
  188.4740  177.4910  138.0620 C   0  0  0  0  0  0  0  0  0  0  0  0
  186.9690  178.3690  141.3660 N   0  0  0  0  0  0  0  0  0  0  0  0
  189.0180  177.2850  135.8790 C   0  0  0  0  0  0  0  0  0  0  0  0
  187.5380  178.1480  137.1950 C   0  0  0  0  0  0  0  0  0  0  0  0
  189.1380  177.9660  142.4880 C   0  0  2  0  0  3  0  0  0  0  0  0
  188.3110  177.5250  139.3900 C   0  0  0  0  0  0  0  0  0  0  0  0
  191.2440  176.8360  141.6370 C   0  0  0  0  0  2  0  0  0  0  0  0
  186.4030  178.8090  137.7380 N   0  0  0  0  0  2  0  0  0  0  0  0
  191.9360  178.3840  144.9320 O   0  0  0  0  0  1  0  0  0  0  0  0
  189.9870  178.6110  143.5850 C   0  0  0  0  0  2  0  0  0  0  0  0
  189.9920  177.6260  141.2470 C   0  0  1  0  0  3  0  0  0  0  0  0
  183.2860  179.0020  143.4580 C   0  0  0  0  0  2  0  0  0  0  0  0
  185.6880  178.1290  142.0280 C   0  0  0  0  0  3  0  0  0  0  0  0
  185.7420  178.5170  143.5070 C   0  0  0  0  0  2  0  0  0  0  0  0
  184.3980  178.2400  144.1750 C   0  0  0  0  0  2  0  0  0  0  0  0
  183.2230  178.5840  141.9920 C   0  0  0  0  0  2  0  0  0  0  0  0
  184.5570  178.8650  141.3060 C   0  0  0  0  0  2  0  0  0  0  0  0
  2 12  1  0  0  0  0
  4 14  2  0  0  0  0
  5 13  2  0  0  0  0
  6  2  2  0  0  0  0
  7  9  1  6  0  0  0
  7 11  1  0  0  0  0
  8 10  1  0  0  0  0
 10 19  1  1  0  0  0
 11 16  2  0  0  0  0
 12 23  1  0  0  0  0
 12  1  1  0  0  0  0
 13  4  1  0  0  0  0
 13  7  1  0  0  0  0
 14 18  1  0  0  0  0
 14 11  1  0  0  0  0
 15  1  1  6  0  0  0
 15 20  1  0  0  0  0
 16  2  1  0  0  0  0
 16  3  1  0  0  0  0
 17  8  1  0  0  0  0
 18  6  1  0  0  0  0
 20 10  1  0  0  0  0
 21  3  1  6  0  0  0
 21 17  1  0  0  0  0
 21 15  1  0  0  0  0
 22 25  1  0  0  0  0
 23 24  1  0  0  0  0
 24 25  1  0  0  0  0
 26 22  1  0  0  0  0
 27 26  1  0  0  0  0
 27 23  1  0  0  0  0
M  END
>  <MODEL>
7

>  <REMARK>
 VINA RESULT:      -7.4      3.034      5.493
  Name = 
  1 active torsions:
  status: ('A' for Active; 'I' for Inactive)
    1  A    between atoms: C_9  and  N_15
                            x       y       z     vdW  Elec       q    Type
                         _______ _______ _______ _____ _____    ______ ____

>  <TORSDO>
F 1

$$$$
=
 OpenBabel10262420003D

 27 31  0  0  1  0  0  0  0  0999 V2000
  187.3710  178.8170  142.1410 C   0  0  0  0  0  2  0  0  0  0  0  0
  189.4090  177.6990  143.0430 C   0  0  0  0  0  0  0  0  0  0  0  0
  187.5400  177.0530  144.7290 C   0  0  0  0  0  2  0  0  0  0  0  0
  192.0570  177.5170  146.1220 N   0  0  0  0  0  0  0  0  0  0  0  0
  191.6440  177.1290  148.4100 O   0  0  0  0  0  0  0  0  0  0  0  0
  190.6810  177.8770  142.7700 N   0  0  0  0  0  0  0  0  0  0  0  0
  189.7580  177.0760  146.8640 C   0  0  2  0  0  3  0  0  0  0  0  0
  184.2650  178.9790  145.0920 C   0  0  0  0  0  2  0  0  0  0  0  0
  189.3280  175.6360  147.0900 C   0  0  0  0  0  1  0  0  0  0  0  0
  183.8540  178.9200  143.6320 C   0  0  1  0  0  3  0  0  0  0  0  0
  189.8860  177.3570  145.4050 C   0  0  0  0  0  0  0  0  0  0  0  0
  188.4330  177.8310  141.9980 N   0  0  0  0  0  0  0  0  0  0  0  0
  191.2060  177.2300  147.2340 C   0  0  0  0  0  0  0  0  0  0  0  0
  191.2710  177.5820  145.1040 C   0  0  0  0  0  0  0  0  0  0  0  0
  186.2120  178.2990  142.9840 C   0  0  2  0  0  3  0  0  0  0  0  0
  188.9620  177.4080  144.4380 C   0  0  0  0  0  0  0  0  0  0  0  0
  185.3560  177.9510  145.3470 C   0  0  0  0  0  2  0  0  0  0  0  0
  191.6810  177.8240  143.7640 N   0  0  0  0  0  2  0  0  0  0  0  0
  182.8280  179.8350  143.3990 O   0  0  0  0  0  1  0  0  0  0  0  0
  185.0500  179.2700  142.7600 C   0  0  0  0  0  2  0  0  0  0  0  0
  186.5890  178.2140  144.4800 C   0  0  1  0  0  3  0  0  0  0  0  0
  189.4540  177.1380  137.8970 C   0  0  0  0  0  2  0  0  0  0  0  0
  188.5900  177.1880  140.6940 C   0  0  0  0  0  3  0  0  0  0  0  0
  187.8040  177.9240  139.6080 C   0  0  0  0  0  2  0  0  0  0  0  0
  187.9750  177.2210  138.2640 C   0  0  0  0  0  2  0  0  0  0  0  0
  190.2210  176.3760  138.9720 C   0  0  0  0  0  2  0  0  0  0  0  0
  190.0700  177.0720  140.3220 C   0  0  0  0  0  2  0  0  0  0  0  0
  2 16  1  0  0  0  0
  4 13  1  0  0  0  0
  6  2  2  0  0  0  0
  6 18  1  0  0  0  0
  7  9  1  6  0  0  0
  7 13  1  0  0  0  0
  8 17  1  0  0  0  0
 10 19  1  1  0  0  0
 10  8  1  0  0  0  0
 11  7  1  0  0  0  0
 12  1  1  0  0  0  0
 12  2  1  0  0  0  0
 13  5  2  0  0  0  0
 14 11  1  0  0  0  0
 14  4  2  0  0  0  0
 15  1  1  6  0  0  0
 15 21  1  0  0  0  0
 16  3  1  0  0  0  0
 16 11  2  0  0  0  0
 18 14  1  0  0  0  0
 20 15  1  0  0  0  0
 20 10  1  0  0  0  0
 21  3  1  6  0  0  0
 21 17  1  0  0  0  0
 22 25  1  0  0  0  0
 22 26  1  0  0  0  0
 23 12  1  0  0  0  0
 24 23  1  0  0  0  0
 25 24  1  0  0  0  0
 26 27  1  0  0  0  0
 27 23  1  0  0  0  0
M  END
>  <MODEL>
8

>  <REMARK>
 VINA RESULT:      -7.4      2.476      5.751
  Name = 
  1 active torsions:
  status: ('A' for Active; 'I' for Inactive)
    1  A    between atoms: C_9  and  N_15
                            x       y       z     vdW  Elec       q    Type
                         _______ _______ _______ _____ _____    ______ ____

>  <TORSDO>
F 1

$$$$
=
 OpenBabel10262420003D

 27 31  0  0  1  0  0  0  0  0999 V2000
  188.3960  178.4040  143.6190 C   0  0  0  0  0  2  0  0  0  0  0  0
  187.9790  178.0290  141.1900 C   0  0  0  0  0  0  0  0  0  0  0  0
  189.7370  176.2180  141.8130 C   0  0  0  0  0  2  0  0  0  0  0  0
  189.5820  178.1000  137.4550 N   0  0  0  0  0  0  0  0  0  0  0  0
  191.4640  176.9480  136.6280 O   0  0  0  0  0  0  0  0  0  0  0  0
  187.4000  178.7870  140.2880 N   0  0  0  0  0  0  0  0  0  0  0  0
  190.7850  176.5560  138.9370 C   0  0  2  0  0  3  0  0  0  0  0  0
  191.9790  176.4230  144.8950 C   0  0  0  0  0  2  0  0  0  0  0  0
  190.4920  175.0680  138.8320 C   0  0  0  0  0  1  0  0  0  0  0  0
  190.8710  176.6130  145.9150 C   0  0  1  0  0  3  0  0  0  0  0  0
  189.6440  177.2630  139.5870 C   0  0  0  0  0  0  0  0  0  0  0  0
  187.4920  178.0330  142.5410 N   0  0  0  0  0  0  0  0  0  0  0  0
  190.6730  177.1850  137.5770 C   0  0  0  0  0  0  0  0  0  0  0  0
  189.0240  178.1180  138.6150 C   0  0  0  0  0  0  0  0  0  0  0  0
  189.2670  177.2370  144.0710 C   0  0  2  0  0  3  0  0  0  0  0  0
  189.1690  177.1980  140.8370 C   0  0  0  0  0  0  0  0  0  0  0  0
  191.3780  175.9140  143.5940 C   0  0  0  0  0  2  0  0  0  0  0  0
  187.8720  178.8750  138.9610 N   0  0  0  0  0  2  0  0  0  0  0  0
  191.4190  177.0450  147.1220 O   0  0  0  0  0  1  0  0  0  0  0  0
  189.8910  177.6580  145.4030 C   0  0  0  0  0  2  0  0  0  0  0  0
  190.3530  176.8980  143.0260 C   0  0  1  0  0  3  0  0  0  0  0  0
  183.4510  179.0080  143.5740 C   0  0  0  0  0  2  0  0  0  0  0  0
  186.0700  177.9090  142.8600 C   0  0  0  0  0  3  0  0  0  0  0  0
  185.7720  178.3890  144.2820 C   0  0  0  0  0  2  0  0  0  0  0  0
  184.2850  178.2330  144.5900 C   0  0  0  0  0  2  0  0  0  0  0  0
  183.7360  178.5010  142.1640 C   0  0  0  0  0  2  0  0  0  0  0  0
  185.2170  178.6590  141.8340 C   0  0  0  0  0  2  0  0  0  0  0  0
  2 12  1  0  0  0  0
  4 13  1  0  0  0  0
  4 14  2  0  0  0  0
  5 13  2  0  0  0  0
  6  2  2  0  0  0  0
  7  9  1  6  0  0  0
  7 11  1  0  0  0  0
  8 10  1  0  0  0  0
 10 19  1  1  0  0  0
 11 16  2  0  0  0  0
 12 23  1  0  0  0  0
 12  1  1  0  0  0  0
 13  7  1  0  0  0  0
 14 18  1  0  0  0  0
 14 11  1  0  0  0  0
 15  1  1  6  0  0  0
 15 20  1  0  0  0  0
 16  2  1  0  0  0  0
 16  3  1  0  0  0  0
 17  8  1  0  0  0  0
 18  6  1  0  0  0  0
 20 10  1  0  0  0  0
 21  3  1  6  0  0  0
 21 17  1  0  0  0  0
 21 15  1  0  0  0  0
 22 25  1  0  0  0  0
 23 24  1  0  0  0  0
 24 25  1  0  0  0  0
 26 22  1  0  0  0  0
 27 26  1  0  0  0  0
 27 23  1  0  0  0  0
M  END
>  <MODEL>
9

>  <REMARK>
 VINA RESULT:      -7.2      2.543      5.167
  Name = 
  1 active torsions:
  status: ('A' for Active; 'I' for Inactive)
    1  A    between atoms: C_9  and  N_15
                            x       y       z     vdW  Elec       q    Type
                         _______ _______ _______ _____ _____    ______ ____

>  <TORSDO>
F 1

$$$$
