=
 OpenBabel10262420013D

 27 31  0  0  1  0  0  0  0  0999 V2000
  182.3090  177.3600  140.2090 C   0  0  0  0  0  2  0  0  0  0  0  0
  183.5820  176.9440  138.1140 C   0  0  0  0  0  0  0  0  0  0  0  0
  184.9000  178.9910  138.8230 C   0  0  0  0  0  2  0  0  0  0  0  0
  187.0360  175.5060  136.3130 O   0  0  0  0  0  0  0  0  0  0  0  0
  189.1440  176.4910  136.2670 O   0  0  0  0  0  0  0  0  0  0  0  0
  183.5140  175.6960  137.4600 C   0  0  0  0  0  3  0  0  0  0  0  0
  187.2980  177.6610  137.3560 C   0  0  1  0  0  3  0  0  0  0  0  0
  186.8910  178.4700  141.9340 C   0  0  0  0  0  3  0  0  0  0  0  0
  187.2950  178.9130  136.4940 C   0  0  0  0  0  1  0  0  0  0  0  0
  185.9130  178.2900  142.9140 C   0  0  0  0  0  3  0  0  0  0  0  0
  185.9060  177.1160  137.4770 C   0  0  0  0  0  0  0  0  0  0  0  0
  182.4070  177.4630  138.7540 N   0  0  0  0  0  0  0  0  0  0  0  0
  187.9300  176.5310  136.6000 C   0  0  0  0  0  0  0  0  0  0  0  0
  185.8250  175.8860  136.8580 C   0  0  0  0  0  0  0  0  0  0  0  0
  182.7560  178.6560  140.8680 C   0  0  0  0  0  2  0  0  0  0  0  0
  184.7930  177.6740  138.1210 C   0  0  0  0  0  0  0  0  0  0  0  0
  186.5290  178.7050  140.6450 N   0  0  0  0  0  0  0  0  0  0  0  0
  184.6430  175.1540  136.8270 C   0  0  0  0  0  3  0  0  0  0  0  0
  184.5670  178.3530  142.5520 C   0  0  0  0  0  3  0  0  0  0  0  0
  184.2080  178.6010  141.2240 C   0  0  0  0  0  0  0  0  0  0  0  0
  185.2240  178.7800  140.2660 C   0  0  0  0  0  0  0  0  0  0  0  0
  179.2770  179.1840  136.5070 N   0  0  0  0  0  0  0  0  0  0  0  0
  181.3380  178.0500  137.9820 C   0  0  0  0  0  0  0  0  0  0  0  0
  181.5090  179.2890  137.3470 C   0  0  0  0  0  3  0  0  0  0  0  0
  180.4610  179.8430  136.6090 C   0  0  0  0  0  3  0  0  0  0  0  0
  179.0790  177.9820  137.1110 C   0  0  0  0  0  3  0  0  0  0  0  0
  180.1030  177.3960  137.8580 C   0  0  0  0  0  3  0  0  0  0  0  0
  1 15  1  0  0  0  0
  2 16  1  0  0  0  0
  2 12  1  0  0  0  0
  3 21  1  0  0  0  0
  4 13  1  0  0  0  0
  4 14  1  0  0  0  0
  5 13  2  0  0  0  0
  6  2  2  0  0  0  0
  7  9  1  6  0  0  0
  7 11  1  0  0  0  0
  8 10  1  0  0  0  0
 11 16  2  0  0  0  0
 12  1  1  0  0  0  0
 13  7  1  0  0  0  0
 14 11  1  0  0  0  0
 15 20  1  0  0  0  0
 16  3  1  0  0  0  0
 17  8  2  0  0  0  0
 18 14  2  0  0  0  0
 18  6  1  0  0  0  0
 19 10  2  0  0  0  0
 20 19  1  0  0  0  0
 21 17  1  0  0  0  0
 21 20  2  0  0  0  0
 22 25  2  0  0  0  0
 22 26  1  0  0  0  0
 23 12  1  0  0  0  0
 24 23  2  0  0  0  0
 25 24  1  0  0  0  0
 26 27  2  0  0  0  0
 27 23  1  0  0  0  0
M  END
>  <MODEL>
1

>  <REMARK>
 VINA RESULT:      -6.1      0.000      0.000
  Name = 
  1 active torsions:
  status: ('A' for Active; 'I' for Inactive)
    1  A    between atoms: C_9  and  N_15
                            x       y       z     vdW  Elec       q    Type
                         _______ _______ _______ _____ _____    ______ ____

>  <TORSDO>
F 1

$$$$
=
 OpenBabel10262420013D

 27 31  0  0  1  0  0  0  0  0999 V2000
  184.1160  178.1790  141.4060 C   0  0  0  0  0  2  0  0  0  0  0  0
  183.4880  177.1760  139.2190 C   0  0  0  0  0  0  0  0  0  0  0  0
  185.4130  178.5670  138.3300 C   0  0  0  0  0  2  0  0  0  0  0  0
  184.3050  174.3870  136.2540 O   0  0  0  0  0  0  0  0  0  0  0  0
  185.9950  174.4480  134.6570 O   0  0  0  0  0  0  0  0  0  0  0  0
  182.6770  176.0240  139.1570 C   0  0  0  0  0  3  0  0  0  0  0  0
  185.7490  176.3140  136.2120 C   0  0  1  0  0  3  0  0  0  0  0  0
  188.7460  177.4710  139.5970 C   0  0  0  0  0  3  0  0  0  0  0  0
  185.4960  177.4140  135.1940 C   0  0  0  0  0  1  0  0  0  0  0  0
  188.6760  177.7480  140.9640 C   0  0  0  0  0  3  0  0  0  0  0  0
  184.7210  176.3750  137.3020 C   0  0  0  0  0  0  0  0  0  0  0  0
  183.2360  178.1540  140.2390 N   0  0  0  0  0  0  0  0  0  0  0  0
  185.3860  174.9850  135.6180 C   0  0  0  0  0  0  0  0  0  0  0  0
  183.9280  175.2460  137.2670 C   0  0  0  0  0  0  0  0  0  0  0  0
  185.2070  179.2250  141.2300 C   0  0  0  0  0  2  0  0  0  0  0  0
  184.5250  177.3630  138.2760 C   0  0  0  0  0  0  0  0  0  0  0  0
  187.6910  177.7580  138.7890 N   0  0  0  0  0  0  0  0  0  0  0  0
  182.8950  175.0440  138.1770 C   0  0  0  0  0  3  0  0  0  0  0  0
  187.5150  178.3210  141.4830 C   0  0  0  0  0  3  0  0  0  0  0  0
  186.4400  178.6170  140.6400 C   0  0  0  0  0  0  0  0  0  0  0  0
  186.5500  178.3240  139.2680 C   0  0  0  0  0  0  0  0  0  0  0  0
  180.0060  180.8510  139.9260 N   0  0  0  0  0  0  0  0  0  0  0  0
  182.1290  179.0740  140.1300 C   0  0  0  0  0  0  0  0  0  0  0  0
  182.0380  179.9610  139.0460 C   0  0  0  0  0  3  0  0  0  0  0  0
  180.9620  180.8460  138.9610 C   0  0  0  0  0  3  0  0  0  0  0  0
  180.0650  180.0060  140.9890 C   0  0  0  0  0  3  0  0  0  0  0  0
  181.1260  179.1050  141.1090 C   0  0  0  0  0  3  0  0  0  0  0  0
  2 12  1  0  0  0  0
  3 21  1  0  0  0  0
  4 14  1  0  0  0  0
  5 13  2  0  0  0  0
  6  2  1  0  0  0  0
  7  9  1  6  0  0  0
  7 11  1  0  0  0  0
  8 10  1  0  0  0  0
 10 19  2  0  0  0  0
 11 16  1  0  0  0  0
 12  1  1  0  0  0  0
 13  7  1  0  0  0  0
 13  4  1  0  0  0  0
 14 11  2  0  0  0  0
 14 18  1  0  0  0  0
 15  1  1  0  0  0  0
 16  3  1  0  0  0  0
 16  2  2  0  0  0  0
 17 21  1  0  0  0  0
 17  8  2  0  0  0  0
 18  6  2  0  0  0  0
 20 15  1  0  0  0  0
 20 19  1  0  0  0  0
 21 20  2  0  0  0  0
 22 26  1  0  0  0  0
 23 12  1  0  0  0  0
 23 27  1  0  0  0  0
 24 23  2  0  0  0  0
 25 24  1  0  0  0  0
 25 22  2  0  0  0  0
 26 27  2  0  0  0  0
M  END
>  <MODEL>
2

>  <REMARK>
 VINA RESULT:      -5.9      2.111      2.665
  Name = 
  1 active torsions:
  status: ('A' for Active; 'I' for Inactive)
    1  A    between atoms: C_9  and  N_15
                            x       y       z     vdW  Elec       q    Type
                         _______ _______ _______ _____ _____    ______ ____

>  <TORSDO>
F 1

$$$$
=
 OpenBabel10262420013D

 27 31  0  0  1  0  0  0  0  0999 V2000
  188.8320  178.6280  139.3570 C   0  0  0  0  0  2  0  0  0  0  0  0
  190.8600  177.1900  139.4160 C   0  0  0  0  0  0  0  0  0  0  0  0
  189.4750  175.6360  137.9680 C   0  0  0  0  0  2  0  0  0  0  0  0
  194.2430  175.7840  137.4620 O   0  0  0  0  0  0  0  0  0  0  0  0
  194.3580  174.2250  135.7380 O   0  0  0  0  0  0  0  0  0  0  0  0
  192.1110  177.7170  139.8010 C   0  0  0  0  0  3  0  0  0  0  0  0
  192.1890  174.7670  136.7220 C   0  0  1  0  0  3  0  0  0  0  0  0
  188.7100  177.0370  134.5960 C   0  0  0  0  0  3  0  0  0  0  0  0
  191.8230  173.3780  137.2180 C   0  0  0  0  0  1  0  0  0  0  0  0
  187.8850  178.1260  134.8820 C   0  0  0  0  0  3  0  0  0  0  0  0
  191.9850  175.7750  137.8130 C   0  0  0  0  0  0  0  0  0  0  0  0
  189.6720  177.6640  140.0660 N   0  0  0  0  0  0  0  0  0  0  0  0
  193.6790  174.8730  136.5780 C   0  0  0  0  0  0  0  0  0  0  0  0
  193.1970  176.3140  138.1910 C   0  0  0  0  0  0  0  0  0  0  0  0
  187.6850  177.9190  138.6510 C   0  0  0  0  0  2  0  0  0  0  0  0
  190.7900  176.1990  138.4100 C   0  0  0  0  0  0  0  0  0  0  0  0
  189.1860  176.2590  135.6050 N   0  0  0  0  0  0  0  0  0  0  0  0
  193.2940  177.2820  139.1850 C   0  0  0  0  0  3  0  0  0  0  0  0
  187.5580  178.4020  136.2100 C   0  0  0  0  0  3  0  0  0  0  0  0
  188.0490  177.5920  137.2370 C   0  0  0  0  0  0  0  0  0  0  0  0
  188.8770  176.5020  136.9080 C   0  0  0  0  0  0  0  0  0  0  0  0
  188.6620  176.3780  143.9560 N   0  0  0  0  0  0  0  0  0  0  0  0
  189.3250  177.2210  141.3950 C   0  0  0  0  0  0  0  0  0  0  0  0
  188.1270  177.6350  141.9980 C   0  0  0  0  0  3  0  0  0  0  0  0
  187.8110  177.2000  143.2870 C   0  0  0  0  0  3  0  0  0  0  0  0
  189.8300  175.9590  143.4000 C   0  0  0  0  0  3  0  0  0  0  0  0
  190.1810  176.3730  142.1130 C   0  0  0  0  0  3  0  0  0  0  0  0
  1 12  1  0  0  0  0
  2  6  1  0  0  0  0
  2 12  1  0  0  0  0
  3 16  1  0  0  0  0
  4 14  1  0  0  0  0
  5 13  2  0  0  0  0
  7  9  1  1  0  0  0
  7 11  1  0  0  0  0
  8 10  2  0  0  0  0
  8 17  1  0  0  0  0
 10 19  1  0  0  0  0
 11 14  2  0  0  0  0
 11 16  1  0  0  0  0
 12 23  1  0  0  0  0
 13  7  1  0  0  0  0
 13  4  1  0  0  0  0
 14 18  1  0  0  0  0
 15  1  1  0  0  0  0
 16  2  2  0  0  0  0
 17 21  2  0  0  0  0
 18  6  2  0  0  0  0
 19 20  2  0  0  0  0
 20 15  1  0  0  0  0
 21 20  1  0  0  0  0
 21  3  1  0  0  0  0
 23 24  2  0  0  0  0
 23 27  1  0  0  0  0
 24 25  1  0  0  0  0
 25 22  2  0  0  0  0
 26 22  1  0  0  0  0
 27 26  2  0  0  0  0
M  END
>  <MODEL>
3

>  <REMARK>
 VINA RESULT:      -5.8      5.154      7.894
  Name = 
  1 active torsions:
  status: ('A' for Active; 'I' for Inactive)
    1  A    between atoms: C_9  and  N_15
                            x       y       z     vdW  Elec       q    Type
                         _______ _______ _______ _____ _____    ______ ____

>  <TORSDO>
F 1

$$$$
=
 OpenBabel10262420013D

 27 31  0  0  1  0  0  0  0  0999 V2000
  188.8570  178.6280  139.3280 C   0  0  0  0  0  2  0  0  0  0  0  0
  190.7820  177.0630  139.1600 C   0  0  0  0  0  0  0  0  0  0  0  0
  189.1530  175.6210  137.8560 C   0  0  0  0  0  2  0  0  0  0  0  0
  193.8400  175.4710  136.8470 O   0  0  0  0  0  0  0  0  0  0  0  0
  193.6700  173.9330  135.1090 O   0  0  0  0  0  0  0  0  0  0  0  0
  192.0980  177.5030  139.4140 C   0  0  0  0  0  3  0  0  0  0  0  0
  191.6580  174.5990  136.3220 C   0  0  1  0  0  3  0  0  0  0  0  0
  188.1280  177.1170  134.5960 C   0  0  0  0  0  3  0  0  0  0  0  0
  191.2560  173.2290  136.8430 C   0  0  0  0  0  1  0  0  0  0  0  0
  187.4110  178.2530  134.9760 C   0  0  0  0  0  3  0  0  0  0  0  0
  191.6360  175.6010  137.4360 C   0  0  0  0  0  0  0  0  0  0  0  0
  189.7020  177.6020  139.9360 N   0  0  0  0  0  0  0  0  0  0  0  0
  193.1270  174.6110  136.0200 C   0  0  0  0  0  0  0  0  0  0  0  0
  192.9140  176.0560  137.6870 C   0  0  0  0  0  0  0  0  0  0  0  0
  187.5980  178.0050  138.7430 C   0  0  0  0  0  2  0  0  0  0  0  0
  190.5410  176.0920  138.1600 C   0  0  0  0  0  0  0  0  0  0  0  0
  188.6570  176.2970  135.5420 N   0  0  0  0  0  0  0  0  0  0  0  0
  193.1780  177.0020  138.6730 C   0  0  0  0  0  3  0  0  0  0  0  0
  187.2450  178.5300  136.3330 C   0  0  0  0  0  3  0  0  0  0  0  0
  187.7880  177.6760  137.2960 C   0  0  0  0  0  0  0  0  0  0  0  0
  188.5040  176.5390  136.8720 C   0  0  0  0  0  0  0  0  0  0  0  0
  189.0160  176.3090  143.8940 N   0  0  0  0  0  0  0  0  0  0  0  0
  189.4690  177.1630  141.2920 C   0  0  0  0  0  0  0  0  0  0  0  0
  190.4180  176.3780  141.9640 C   0  0  0  0  0  3  0  0  0  0  0  0
  190.1730  175.9590  143.2730 C   0  0  0  0  0  3  0  0  0  0  0  0
  188.0760  177.0670  143.2710 C   0  0  0  0  0  3  0  0  0  0  0  0
  188.2850  177.5060  141.9610 C   0  0  0  0  0  3  0  0  0  0  0  0
  1 12  1  0  0  0  0
  2  6  1  0  0  0  0
  2 12  1  0  0  0  0
  3 16  1  0  0  0  0
  4 14  1  0  0  0  0
  5 13  2  0  0  0  0
  7  9  1  1  0  0  0
  7 11  1  0  0  0  0
  8 10  2  0  0  0  0
  8 17  1  0  0  0  0
 10 19  1  0  0  0  0
 11 14  2  0  0  0  0
 11 16  1  0  0  0  0
 12 23  1  0  0  0  0
 13  7  1  0  0  0  0
 13  4  1  0  0  0  0
 14 18  1  0  0  0  0
 15  1  1  0  0  0  0
 16  2  2  0  0  0  0
 17 21  2  0  0  0  0
 18  6  2  0  0  0  0
 19 20  2  0  0  0  0
 20 15  1  0  0  0  0
 21 20  1  0  0  0  0
 21  3  1  0  0  0  0
 23 27  2  0  0  0  0
 23 24  1  0  0  0  0
 24 25  2  0  0  0  0
 25 22  1  0  0  0  0
 26 22  2  0  0  0  0
 27 26  1  0  0  0  0
M  END
>  <MODEL>
4

>  <REMARK>
 VINA RESULT:      -5.7      4.968      7.794
  Name = 
  1 active torsions:
  status: ('A' for Active; 'I' for Inactive)
    1  A    between atoms: C_9  and  N_15
                            x       y       z     vdW  Elec       q    Type
                         _______ _______ _______ _____ _____    ______ ____

>  <TORSDO>
F 1

$$$$
=
 OpenBabel10262420013D

 27 31  0  0  1  0  0  0  0  0999 V2000
  180.9070  177.2800  137.1580 C   0  0  0  0  0  2  0  0  0  0  0  0
  181.9710  178.7010  138.8990 C   0  0  0  0  0  0  0  0  0  0  0  0
  179.7660  178.3970  140.1150 C   0  0  0  0  0  2  0  0  0  0  0  0
  183.8320  178.9380  142.6030 O   0  0  0  0  0  0  0  0  0  0  0  0
  182.8590  178.7540  144.7090 O   0  0  0  0  0  0  0  0  0  0  0  0
  183.3680  178.8920  138.9240 C   0  0  0  0  0  3  0  0  0  0  0  0
  181.4440  178.6460  142.7220 C   0  0  1  0  0  3  0  0  0  0  0  0
  179.1420  174.8830  141.2010 C   0  0  0  0  0  3  0  0  0  0  0  0
  180.5600  179.8460  143.0210 C   0  0  0  0  0  1  0  0  0  0  0  0
  179.0080  174.1940  139.9940 C   0  0  0  0  0  3  0  0  0  0  0  0
  181.9560  178.7210  141.3150 C   0  0  0  0  0  0  0  0  0  0  0  0
  181.3000  178.6050  137.6340 N   0  0  0  0  0  0  0  0  0  0  0  0
  182.7450  178.7860  143.4560 C   0  0  0  0  0  0  0  0  0  0  0  0
  183.3260  178.8910  141.3200 C   0  0  0  0  0  0  0  0  0  0  0  0
  179.4510  177.0000  137.5010 C   0  0  0  0  0  2  0  0  0  0  0  0
  181.2460  178.6190  140.1110 C   0  0  0  0  0  0  0  0  0  0  0  0
  179.3700  176.2240  141.1990 N   0  0  0  0  0  0  0  0  0  0  0  0
  184.0590  178.9860  140.1410 C   0  0  0  0  0  3  0  0  0  0  0  0
  179.1110  174.8980  138.7940 C   0  0  0  0  0  3  0  0  0  0  0  0
  179.3390  176.2760  138.8050 C   0  0  0  0  0  0  0  0  0  0  0  0
  179.4660  176.9360  140.0430 C   0  0  0  0  0  0  0  0  0  0  0  0
  180.5560  182.0460  135.3080 N   0  0  0  0  0  0  0  0  0  0  0  0
  181.0420  179.7820  136.8390 C   0  0  0  0  0  0  0  0  0  0  0  0
  180.9850  179.7020  135.4390 C   0  0  0  0  0  3  0  0  0  0  0  0
  180.7380  180.8520  134.6870 C   0  0  0  0  0  3  0  0  0  0  0  0
  180.6060  182.1580  136.6620 C   0  0  0  0  0  3  0  0  0  0  0  0
  180.8500  181.0300  137.4490 C   0  0  0  0  0  3  0  0  0  0  0  0
  1 15  1  0  0  0  0
  1 12  1  0  0  0  0
  2  6  2  0  0  0  0
  2 16  1  0  0  0  0
  4 13  1  0  0  0  0
  6 18  1  0  0  0  0
  7  9  1  1  0  0  0
  7 13  1  0  0  0  0
 10  8  2  0  0  0  0
 11 14  1  0  0  0  0
 11  7  1  0  0  0  0
 12  2  1  0  0  0  0
 13  5  2  0  0  0  0
 14  4  1  0  0  0  0
 15 20  1  0  0  0  0
 16  3  1  0  0  0  0
 16 11  2  0  0  0  0
 17  8  1  0  0  0  0
 18 14  2  0  0  0  0
 19 20  2  0  0  0  0
 19 10  1  0  0  0  0
 20 21  1  0  0  0  0
 21  3  1  0  0  0  0
 21 17  2  0  0  0  0
 22 26  1  0  0  0  0
 23 27  1  0  0  0  0
 23 12  1  0  0  0  0
 24 23  2  0  0  0  0
 25 22  2  0  0  0  0
 25 24  1  0  0  0  0
 26 27  2  0  0  0  0
M  END
>  <MODEL>
5

>  <REMARK>
 VINA RESULT:      -5.7      3.646      6.080
  Name = 
  1 active torsions:
  status: ('A' for Active; 'I' for Inactive)
    1  A    between atoms: C_9  and  N_15
                            x       y       z     vdW  Elec       q    Type
                         _______ _______ _______ _____ _____    ______ ____

>  <TORSDO>
F 1

$$$$
=
 OpenBabel10262420013D

 27 31  0  0  1  0  0  0  0  0999 V2000
  181.6190  177.1610  140.6030 C   0  0  0  0  0  2  0  0  0  0  0  0
  181.1070  179.5920  140.7140 C   0  0  0  0  0  0  0  0  0  0  0  0
  182.5600  179.7200  138.6390 C   0  0  0  0  0  2  0  0  0  0  0  0
  178.9390  182.8090  139.2370 O   0  0  0  0  0  0  0  0  0  0  0  0
  179.2440  183.9410  137.2260 O   0  0  0  0  0  0  0  0  0  0  0  0
  180.0290  180.0710  141.4870 C   0  0  0  0  0  3  0  0  0  0  0  0
  180.7670  182.1280  137.8250 C   0  0  1  0  0  3  0  0  0  0  0  0
  181.0790  177.9950  135.6820 C   0  0  0  0  0  3  0  0  0  0  0  0
  182.0600  182.9270  137.8400 C   0  0  0  0  0  1  0  0  0  0  0  0
  181.0780  176.6520  136.0620 C   0  0  0  0  0  3  0  0  0  0  0  0
  180.6540  181.3080  139.0740 C   0  0  0  0  0  0  0  0  0  0  0  0
  181.8700  178.4740  141.1930 N   0  0  0  0  0  0  0  0  0  0  0  0
  179.6030  183.0500  138.0400 C   0  0  0  0  0  0  0  0  0  0  0  0
  179.5920  181.7510  139.8360 C   0  0  0  0  0  0  0  0  0  0  0  0
  182.6280  176.8680  139.5030 C   0  0  0  0  0  2  0  0  0  0  0  0
  181.4330  180.2200  139.4890 C   0  0  0  0  0  0  0  0  0  0  0  0
  181.5710  178.9410  136.5240 N   0  0  0  0  0  0  0  0  0  0  0  0
  179.2580  181.1580  141.0490 C   0  0  0  0  0  3  0  0  0  0  0  0
  181.5870  176.2980  137.3120 C   0  0  0  0  0  3  0  0  0  0  0  0
  182.0960  177.2800  138.1660 C   0  0  0  0  0  0  0  0  0  0  0  0
  182.0810  178.6230  137.7460 C   0  0  0  0  0  0  0  0  0  0  0  0
  184.7130  178.9350  144.2770 N   0  0  0  0  0  0  0  0  0  0  0  0
  182.8420  178.6360  142.2480 C   0  0  0  0  0  0  0  0  0  0  0  0
  184.2160  178.6350  141.9620 C   0  0  0  0  0  3  0  0  0  0  0  0
  185.1410  178.7870  142.9960 C   0  0  0  0  0  3  0  0  0  0  0  0
  183.3890  178.9390  144.5880 C   0  0  0  0  0  3  0  0  0  0  0  0
  182.4330  178.7890  143.5800 C   0  0  0  0  0  3  0  0  0  0  0  0
  1 12  1  0  0  0  0
  2 12  1  0  0  0  0
  2  6  1  0  0  0  0
  3 16  1  0  0  0  0
  4 14  1  0  0  0  0
  5 13  2  0  0  0  0
  7  9  1  1  0  0  0
  7 13  1  0  0  0  0
  7 11  1  0  0  0  0
  8 10  2  0  0  0  0
  8 17  1  0  0  0  0
 10 19  1  0  0  0  0
 11 16  1  0  0  0  0
 11 14  2  0  0  0  0
 12 23  1  0  0  0  0
 13  4  1  0  0  0  0
 14 18  1  0  0  0  0
 15  1  1  0  0  0  0
 16  2  2  0  0  0  0
 17 21  2  0  0  0  0
 18  6  2  0  0  0  0
 19 20  2  0  0  0  0
 20 15  1  0  0  0  0
 21 20  1  0  0  0  0
 21  3  1  0  0  0  0
 22 26  1  0  0  0  0
 23 27  1  0  0  0  0
 24 23  2  0  0  0  0
 24 25  1  0  0  0  0
 25 22  2  0  0  0  0
 27 26  2  0  0  0  0
M  END
>  <MODEL>
6

>  <REMARK>
 VINA RESULT:      -5.6      4.273      7.206
  Name = 
  1 active torsions:
  status: ('A' for Active; 'I' for Inactive)
    1  A    between atoms: C_9  and  N_15
                            x       y       z     vdW  Elec       q    Type
                         _______ _______ _______ _____ _____    ______ ____

>  <TORSDO>
F 1

$$$$
=
 OpenBabel10262420013D

 27 31  0  0  1  0  0  0  0  0999 V2000
  181.0250  176.0840  136.1350 C   0  0  0  0  0  2  0  0  0  0  0  0
  180.9380  175.9230  138.6150 C   0  0  0  0  0  0  0  0  0  0  0  0
  182.4760  177.9390  138.5330 C   0  0  0  0  0  2  0  0  0  0  0  0
  179.4240  177.3870  142.1930 O   0  0  0  0  0  0  0  0  0  0  0  0
  180.0040  179.3510  143.2970 O   0  0  0  0  0  0  0  0  0  0  0  0
  179.9290  175.1770  139.2580 C   0  0  0  0  0  3  0  0  0  0  0  0
  181.1640  178.7490  141.2340 C   0  0  1  0  0  3  0  0  0  0  0  0
  180.8430  180.9970  137.1570 C   0  0  0  0  0  3  0  0  0  0  0  0
  182.5740  178.6630  141.7950 C   0  0  0  0  0  1  0  0  0  0  0  0
  180.5930  180.6550  135.8270 C   0  0  0  0  0  3  0  0  0  0  0  0
  180.8580  177.5290  140.4190 C   0  0  0  0  0  0  0  0  0  0  0  0
  181.4750  175.4480  137.3720 N   0  0  0  0  0  0  0  0  0  0  0  0
  180.1690  178.5510  142.3400 C   0  0  0  0  0  0  0  0  0  0  0  0
  179.8590  176.7940  141.0240 C   0  0  0  0  0  0  0  0  0  0  0  0
  182.0130  177.1550  135.6950 C   0  0  0  0  0  2  0  0  0  0  0  0
  181.4190  177.1160  139.2030 C   0  0  0  0  0  0  0  0  0  0  0  0
  181.4560  180.1090  137.9850 N   0  0  0  0  0  0  0  0  0  0  0  0
  179.3770  175.6120  140.4720 C   0  0  0  0  0  3  0  0  0  0  0  0
  180.9800  179.3980  135.3630 C   0  0  0  0  0  3  0  0  0  0  0  0
  181.6160  178.4970  136.2220 C   0  0  0  0  0  0  0  0  0  0  0  0
  181.8520  178.8800  137.5560 C   0  0  0  0  0  0  0  0  0  0  0  0
  184.2230  172.2470  137.2830 N   0  0  0  0  0  0  0  0  0  0  0  0
  182.4160  174.3540  137.3380 C   0  0  0  0  0  0  0  0  0  0  0  0
  182.0140  173.0760  136.9210 C   0  0  0  0  0  3  0  0  0  0  0  0
  182.9380  172.0290  136.9000 C   0  0  0  0  0  3  0  0  0  0  0  0
  184.6440  173.4730  137.6920 C   0  0  0  0  0  3  0  0  0  0  0  0
  183.7500  174.5450  137.7270 C   0  0  0  0  0  3  0  0  0  0  0  0
  1 12  1  0  0  0  0
  2 16  2  0  0  0  0
  2  6  1  0  0  0  0
  3 16  1  0  0  0  0
  4 13  1  0  0  0  0
  6 18  2  0  0  0  0
  7  9  1  1  0  0  0
  7 13  1  0  0  0  0
  8 17  1  0  0  0  0
 10  8  2  0  0  0  0
 11 14  2  0  0  0  0
 11  7  1  0  0  0  0
 12  2  1  0  0  0  0
 13  5  2  0  0  0  0
 14  4  1  0  0  0  0
 15  1  1  0  0  0  0
 15 20  1  0  0  0  0
 16 11  1  0  0  0  0
 18 14  1  0  0  0  0
 19 10  1  0  0  0  0
 19 20  2  0  0  0  0
 20 21  1  0  0  0  0
 21 17  2  0  0  0  0
 21  3  1  0  0  0  0
 22 26  1  0  0  0  0
 23 12  1  0  0  0  0
 23 27  1  0  0  0  0
 24 23  2  0  0  0  0
 25 24  1  0  0  0  0
 25 22  2  0  0  0  0
 26 27  2  0  0  0  0
M  END
>  <MODEL>
7

>  <REMARK>
 VINA RESULT:      -5.5      4.079      6.770
  Name = 
  1 active torsions:
  status: ('A' for Active; 'I' for Inactive)
    1  A    between atoms: C_9  and  N_15
                            x       y       z     vdW  Elec       q    Type
                         _______ _______ _______ _____ _____    ______ ____

>  <TORSDO>
F 1

$$$$
=
 OpenBabel10262420013D

 27 31  0  0  1  0  0  0  0  0999 V2000
  190.8610  173.3780  136.8850 C   0  0  0  0  0  2  0  0  0  0  0  0
  190.2830  175.6920  137.5870 C   0  0  0  0  0  0  0  0  0  0  0  0
  188.7550  175.6390  135.5640 C   0  0  0  0  0  2  0  0  0  0  0  0
  187.5670  178.2500  139.4090 O   0  0  0  0  0  0  0  0  0  0  0  0
  185.5410  179.0240  138.5660 O   0  0  0  0  0  0  0  0  0  0  0  0
  190.5790  176.1500  138.8880 C   0  0  0  0  0  3  0  0  0  0  0  0
  186.9430  177.5830  137.1800 C   0  0  1  0  0  3  0  0  0  0  0  0
  185.9420  173.2110  135.8910 C   0  0  0  0  0  3  0  0  0  0  0  0
  187.1660  178.5440  136.0240 C   0  0  0  0  0  1  0  0  0  0  0  0
  186.5880  171.9740  135.9110 C   0  0  0  0  0  3  0  0  0  0  0  0
  188.2500  176.9980  137.6230 C   0  0  0  0  0  0  0  0  0  0  0  0
  191.1980  174.7990  136.9350 N   0  0  0  0  0  0  0  0  0  0  0  0
  186.5980  178.3570  138.4180 C   0  0  0  0  0  0  0  0  0  0  0  0
  188.5480  177.4210  138.9030 C   0  0  0  0  0  0  0  0  0  0  0  0
  190.1990  173.0320  135.5590 C   0  0  0  0  0  2  0  0  0  0  0  0
  189.1040  176.1240  136.9360 C   0  0  0  0  0  0  0  0  0  0  0  0
  186.6650  174.3560  135.7660 N   0  0  0  0  0  0  0  0  0  0  0  0
  189.7070  177.0200  139.5590 C   0  0  0  0  0  3  0  0  0  0  0  0
  187.9780  171.9300  135.8020 C   0  0  0  0  0  3  0  0  0  0  0  0
  188.7100  173.1130  135.6670 C   0  0  0  0  0  0  0  0  0  0  0  0
  188.0210  174.3410  135.6490 C   0  0  0  0  0  0  0  0  0  0  0  0
  194.8020  176.2290  135.2710 N   0  0  0  0  0  0  0  0  0  0  0  0
  192.4310  175.2850  136.3640 C   0  0  0  0  0  0  0  0  0  0  0  0
  193.6500  175.1110  137.0380 C   0  0  0  0  0  3  0  0  0  0  0  0
  194.8320  175.5920  136.4710 C   0  0  0  0  0  3  0  0  0  0  0  0
  193.6380  176.4140  134.5940 C   0  0  0  0  0  3  0  0  0  0  0  0
  192.4350  175.9470  135.1280 C   0  0  0  0  0  3  0  0  0  0  0  0
  1 12  1  0  0  0  0
  2  6  1  0  0  0  0
  3 21  1  0  0  0  0
  3 16  1  0  0  0  0
  6 18  2  0  0  0  0
  7  9  1  6  0  0  0
  7 11  1  0  0  0  0
  7 13  1  0  0  0  0
  8 10  1  0  0  0  0
 11 14  2  0  0  0  0
 12  2  1  0  0  0  0
 13  5  2  0  0  0  0
 13  4  1  0  0  0  0
 14  4  1  0  0  0  0
 14 18  1  0  0  0  0
 15 20  1  0  0  0  0
 15  1  1  0  0  0  0
 16  2  2  0  0  0  0
 16 11  1  0  0  0  0
 17  8  2  0  0  0  0
 19 10  2  0  0  0  0
 20 19  1  0  0  0  0
 21 20  2  0  0  0  0
 21 17  1  0  0  0  0
 22 25  1  0  0  0  0
 23 12  1  0  0  0  0
 23 24  1  0  0  0  0
 25 24  2  0  0  0  0
 26 27  1  0  0  0  0
 26 22  2  0  0  0  0
 27 23  2  0  0  0  0
M  END
>  <MODEL>
8

>  <REMARK>
 VINA RESULT:      -5.4      4.535      8.924
  Name = 
  1 active torsions:
  status: ('A' for Active; 'I' for Inactive)
    1  A    between atoms: C_9  and  N_15
                            x       y       z     vdW  Elec       q    Type
                         _______ _______ _______ _____ _____    ______ ____

>  <TORSDO>
F 1

$$$$
=
 OpenBabel10262420013D

 27 31  0  0  1  0  0  0  0  0999 V2000
  192.9250  173.6200  136.3900 C   0  0  0  0  0  2  0  0  0  0  0  0
  192.2270  175.7790  137.4060 C   0  0  0  0  0  0  0  0  0  0  0  0
  190.6730  175.9120  135.4060 C   0  0  0  0  0  2  0  0  0  0  0  0
  189.3960  177.9000  139.5810 O   0  0  0  0  0  0  0  0  0  0  0  0
  187.3160  178.6610  138.8670 O   0  0  0  0  0  0  0  0  0  0  0  0
  192.5160  176.0720  138.7550 C   0  0  0  0  0  3  0  0  0  0  0  0
  188.7770  177.5070  137.2870 C   0  0  1  0  0  3  0  0  0  0  0  0
  188.0100  173.3000  135.4190 C   0  0  0  0  0  3  0  0  0  0  0  0
  188.9270  178.6280  136.2710 C   0  0  0  0  0  1  0  0  0  0  0  0
  188.7260  172.1120  135.2660 C   0  0  0  0  0  3  0  0  0  0  0  0
  190.1230  176.9450  137.6360 C   0  0  0  0  0  0  0  0  0  0  0  0
  193.1810  175.0390  136.6310 N   0  0  0  0  0  0  0  0  0  0  0  0
  188.4080  178.0840  138.6210 C   0  0  0  0  0  0  0  0  0  0  0  0
  190.4150  177.2070  138.9590 C   0  0  0  0  0  0  0  0  0  0  0  0
  192.2650  173.4190  135.0340 C   0  0  0  0  0  2  0  0  0  0  0  0
  191.0140  176.2250  136.8290 C   0  0  0  0  0  0  0  0  0  0  0  0
  188.6640  174.4910  135.4460 N   0  0  0  0  0  0  0  0  0  0  0  0
  191.6050  176.7890  139.5460 C   0  0  0  0  0  3  0  0  0  0  0  0
  190.1150  172.1650  135.1410 C   0  0  0  0  0  3  0  0  0  0  0  0
  190.7750  173.3970  135.1640 C   0  0  0  0  0  0  0  0  0  0  0  0
  190.0160  174.5730  135.3180 C   0  0  0  0  0  0  0  0  0  0  0  0
  196.6720  176.8790  135.1350 N   0  0  0  0  0  0  0  0  0  0  0  0
  194.3750  175.6700  136.1230 C   0  0  0  0  0  0  0  0  0  0  0  0
  194.3060  176.9020  135.4550 C   0  0  0  0  0  3  0  0  0  0  0  0
  195.4720  177.4950  134.9660 C   0  0  0  0  0  3  0  0  0  0  0  0
  196.7730  175.6840  135.7760 C   0  0  0  0  0  3  0  0  0  0  0  0
  195.6290  175.0600  136.2790 C   0  0  0  0  0  3  0  0  0  0  0  0
  1 12  1  0  0  0  0
  2  6  1  0  0  0  0
  3 16  1  0  0  0  0
  6 18  2  0  0  0  0
  7  9  1  6  0  0  0
  7 11  1  0  0  0  0
  7 13  1  0  0  0  0
  8 17  1  0  0  0  0
 10  8  2  0  0  0  0
 11 14  2  0  0  0  0
 12  2  1  0  0  0  0
 13  5  2  0  0  0  0
 13  4  1  0  0  0  0
 14 18  1  0  0  0  0
 14  4  1  0  0  0  0
 15 20  1  0  0  0  0
 15  1  1  0  0  0  0
 16  2  2  0  0  0  0
 16 11  1  0  0  0  0
 19 20  2  0  0  0  0
 19 10  1  0  0  0  0
 20 21  1  0  0  0  0
 21  3  1  0  0  0  0
 21 17  2  0  0  0  0
 22 26  1  0  0  0  0
 23 27  1  0  0  0  0
 23 12  1  0  0  0  0
 24 23  2  0  0  0  0
 25 22  2  0  0  0  0
 25 24  1  0  0  0  0
 26 27  2  0  0  0  0
M  END
>  <MODEL>
9

>  <REMARK>
 VINA RESULT:      -5.3      5.739     10.207
  Name = 
  1 active torsions:
  status: ('A' for Active; 'I' for Inactive)
    1  A    between atoms: C_9  and  N_15
                            x       y       z     vdW  Elec       q    Type
                         _______ _______ _______ _____ _____    ______ ____

>  <TORSDO>
F 1

$$$$
