=
 OpenBabel10262420433D

 28 29  0  0  1  0  0  0  0  0999 V2000
  192.1120  175.8000  147.0160 C   0  0  0  0  0  1  0  0  0  0  0  0
  191.3120  177.0050  146.8600 N   0  0  0  0  0  0  0  0  0  0  0  0
  191.4310  177.4900  145.4810 C   0  0  0  0  0  2  0  0  0  0  0  0
  191.6260  176.3600  144.4600 C   0  0  0  0  0  2  0  0  0  0  0  0
  190.6860  176.4970  143.2680 C   0  0  2  0  0  3  0  0  0  0  0  0
  190.2490  175.2430  142.8400 O   0  0  0  0  0  1  0  0  0  0  0  0
  191.3620  177.2400  142.1280 C   0  0  0  0  0  2  0  0  0  0  0  0
  190.4180  177.5860  141.1620 O   0  0  0  0  0  0  0  0  0  0  0  0
  190.8030  176.8750  140.0270 C   0  0  0  0  0  2  0  0  0  0  0  0
  189.7490  177.0260  138.9410 C   0  0  0  0  0  2  0  0  0  0  0  0
  188.9930  178.3550  139.0080 C   0  0  2  0  0  3  0  0  0  0  0  0
  187.6200  178.2220  139.6520 C   0  0  0  0  0  1  0  0  0  0  0  0
  187.9760  178.6040  136.6870 C   0  0  0  0  0  1  0  0  0  0  0  0
  188.9780  179.1430  137.6970 C   0  0  0  0  0  2  0  0  0  0  0  0
  189.9710  176.6590  147.1010 N   0  0  0  0  0  2  0  0  0  0  0  0
  189.2980  177.8380  147.6330 C   0  0  0  0  0  2  0  0  0  0  0  0
  187.8500  177.6810  147.5440 N   0  0  0  0  0  2  0  0  0  0  0  0
  183.7800  178.9430  145.1420 C   0  0  0  0  0  3  0  0  0  0  0  0
  185.6910  178.0660  143.9190 C   0  0  0  0  0  0  0  0  0  0  0  0
  185.7960  178.3260  146.3350 C   0  0  0  0  0  3  0  0  0  0  0  0
  183.6760  178.6930  142.7310 C   0  0  0  0  0  0  0  0  0  0  0  0
  185.0850  178.4470  145.1380 C   0  0  0  0  0  0  0  0  0  0  0  0
  187.6950  177.4370  145.1210 C   0  0  0  0  0  3  0  0  0  0  0  0
  184.9830  178.1930  142.7200 C   0  0  0  0  0  3  0  0  0  0  0  0
  186.9930  177.5600  143.9180 C   0  0  0  0  0  3  0  0  0  0  0  0
  182.9740  178.8180  141.5410 O   0  0  0  0  0  1  0  0  0  0  0  0
  183.0760  179.0650  143.9380 C   0  0  0  0  0  3  0  0  0  0  0  0
  187.1050  177.8190  146.3310 C   0  0  0  0  0  0  0  0  0  0  0  0
  2  1  1  0  0  0  0
  2 15  1  0  0  0  0
  3  2  1  0  0  0  0
  4  3  1  0  0  0  0
  5  6  1  6  0  0  0
  5  4  1  0  0  0  0
  7  5  1  0  0  0  0
  8  7  1  0  0  0  0
  9  8  1  0  0  0  0
 10 11  1  0  0  0  0
 10  9  1  0  0  0  0
 11 12  1  6  0  0  0
 13 14  1  0  0  0  0
 14 11  1  0  0  0  0
 15 16  1  0  0  0  0
 17 16  1  0  0  0  0
 19 22  1  0  0  0  0
 21 27  1  0  0  0  0
 22 18  1  0  0  0  0
 22 20  2  0  0  0  0
 23 28  2  0  0  0  0
 24 21  2  0  0  0  0
 24 19  1  0  0  0  0
 25 19  2  0  0  0  0
 25 23  1  0  0  0  0
 26 21  1  0  0  0  0
 27 18  2  0  0  0  0
 28 20  1  0  0  0  0
 28 17  1  0  0  0  0
M  END
>  <MODEL>
1

>  <REMARK>
 VINA RESULT:      -7.8      0.000      0.000
  Name = 
  13 active torsions:
  status: ('A' for Active; 'I' for Inactive)
    1  A    between atoms: C_1  and  C_2
    2  A    between atoms: C_1  and  C_26
    3  A    between atoms: C_2  and  O_3
    4  A    between atoms: O_3  and  C_7
    5  A    between atoms: C_5  and  N_20
    6  A    between atoms: C_5  and  N_27
    7  A    between atoms: C_6  and  C_11
    8  A    between atoms: C_6  and  C_28
    9  A    between atoms: C_7  and  C_28
   10  A    between atoms: C_19  and  N_21
   11  A    between atoms: C_19  and  C_26
   12  A    between atoms: N_20  and  C_25
   13  A    between atoms: N_21  and  N_27
                            x       y       z     vdW  Elec       q    Type
                         _______ _______ _______ _____ _____    ______ ____

>  <TORSDO>
F 13

$$$$
=
 OpenBabel10262420433D

 28 29  0  0  1  0  0  0  0  0999 V2000
  188.1650  176.8050  137.9090 C   0  0  0  0  0  1  0  0  0  0  0  0
  187.4730  178.0820  138.0060 N   0  0  0  0  0  0  0  0  0  0  0  0
  186.0400  177.8750  137.7700 C   0  0  0  0  0  2  0  0  0  0  0  0
  185.1500  178.7990  138.6140 C   0  0  0  0  0  2  0  0  0  0  0  0
  184.1030  178.0230  139.4020 C   0  0  2  0  0  3  0  0  0  0  0  0
  182.8450  178.1530  138.8110 O   0  0  0  0  0  1  0  0  0  0  0  0
  184.0590  178.4870  140.8480 C   0  0  0  0  0  2  0  0  0  0  0  0
  184.9370  179.5540  141.0300 O   0  0  0  0  0  0  0  0  0  0  0  0
  185.4630  179.3590  142.3060 C   0  0  0  0  0  2  0  0  0  0  0  0
  184.8050  178.1520  142.9570 C   0  0  0  0  0  2  0  0  0  0  0  0
  184.5550  178.3300  144.4560 C   0  0  2  0  0  3  0  0  0  0  0  0
  183.1910  178.9330  144.7610 C   0  0  0  0  0  1  0  0  0  0  0  0
  185.6400  178.7730  146.7170 C   0  0  0  0  0  1  0  0  0  0  0  0
  185.7020  179.0020  145.2150 C   0  0  0  0  0  2  0  0  0  0  0  0
  187.6480  178.5620  139.3150 N   0  0  0  0  0  2  0  0  0  0  0  0
  188.5890  177.6770  139.9890 C   0  0  0  0  0  2  0  0  0  0  0  0
  188.1500  177.4110  141.3540 N   0  0  0  0  0  2  0  0  0  0  0  0
  189.0410  177.2450  146.1610 C   0  0  0  0  0  3  0  0  0  0  0  0
  190.8340  176.8110  144.5760 C   0  0  0  0  0  0  0  0  0  0  0  0
  188.5930  177.3220  143.7820 C   0  0  0  0  0  3  0  0  0  0  0  0
  191.2730  176.7270  146.9560 C   0  0  0  0  0  0  0  0  0  0  0  0
  189.4820  177.1270  144.8420 C   0  0  0  0  0  0  0  0  0  0  0  0
  190.3810  176.9050  142.2000 C   0  0  0  0  0  3  0  0  0  0  0  0
  191.7230  176.6090  145.6360 C   0  0  0  0  0  3  0  0  0  0  0  0
  191.2770  176.7030  143.2560 C   0  0  0  0  0  3  0  0  0  0  0  0
  192.1560  176.5280  148.0070 O   0  0  0  0  0  1  0  0  0  0  0  0
  189.9370  177.0460  147.2170 C   0  0  0  0  0  3  0  0  0  0  0  0
  189.0390  177.2120  142.4560 C   0  0  0  0  0  0  0  0  0  0  0  0
  1  2  1  0  0  0  0
  2 15  1  0  0  0  0
  3  2  1  0  0  0  0
  3  4  1  0  0  0  0
  4  5  1  0  0  0  0
  5  6  1  6  0  0  0
  5  7  1  0  0  0  0
  7  8  1  0  0  0  0
  8  9  1  0  0  0  0
  9 10  1  0  0  0  0
 10 11  1  0  0  0  0
 11 12  1  6  0  0  0
 11 14  1  0  0  0  0
 14 13  1  0  0  0  0
 15 16  1  0  0  0  0
 16 17  1  0  0  0  0
 17 28  1  0  0  0  0
 18 27  1  0  0  0  0
 19 22  1  0  0  0  0
 19 24  2  0  0  0  0
 20 22  1  0  0  0  0
 21 27  2  0  0  0  0
 21 26  1  0  0  0  0
 22 18  2  0  0  0  0
 23 28  1  0  0  0  0
 23 25  2  0  0  0  0
 24 21  1  0  0  0  0
 25 19  1  0  0  0  0
 28 20  2  0  0  0  0
M  END
>  <MODEL>
2

>  <REMARK>
 VINA RESULT:      -7.8      3.257      7.544
  Name = 
  13 active torsions:
  status: ('A' for Active; 'I' for Inactive)
    1  A    between atoms: C_1  and  C_2
    2  A    between atoms: C_1  and  C_26
    3  A    between atoms: C_2  and  O_3
    4  A    between atoms: O_3  and  C_7
    5  A    between atoms: C_5  and  N_20
    6  A    between atoms: C_5  and  N_27
    7  A    between atoms: C_6  and  C_11
    8  A    between atoms: C_6  and  C_28
    9  A    between atoms: C_7  and  C_28
   10  A    between atoms: C_19  and  N_21
   11  A    between atoms: C_19  and  C_26
   12  A    between atoms: N_20  and  C_25
   13  A    between atoms: N_21  and  N_27
                            x       y       z     vdW  Elec       q    Type
                         _______ _______ _______ _____ _____    ______ ____

>  <TORSDO>
F 13

$$$$
=
 OpenBabel10262420433D

 28 29  0  0  1  0  0  0  0  0999 V2000
  184.3500  178.1100  137.8710 C   0  0  0  0  0  1  0  0  0  0  0  0
  185.4930  177.9750  138.7630 N   0  0  0  0  0  0  0  0  0  0  0  0
  186.7300  178.1130  137.9870 C   0  0  0  0  0  2  0  0  0  0  0  0
  187.8400  177.1560  138.4460 C   0  0  0  0  0  2  0  0  0  0  0  0
  188.9000  177.8670  139.2780 C   0  0  2  0  0  3  0  0  0  0  0  0
  189.1430  179.1470  138.7770 O   0  0  0  0  0  1  0  0  0  0  0  0
  190.1880  177.0610  139.3170 C   0  0  0  0  0  2  0  0  0  0  0  0
  190.8200  177.2350  140.5470 O   0  0  0  0  0  0  0  0  0  0  0  0
  189.8190  177.0010  141.4890 C   0  0  0  0  0  2  0  0  0  0  0  0
  190.4000  176.2720  142.6900 C   0  0  0  0  0  2  0  0  0  0  0  0
  190.5680  177.1660  143.9210 C   0  0  2  0  0  3  0  0  0  0  0  0
  190.5800  178.6490  143.5780 C   0  0  0  0  0  1  0  0  0  0  0  0
  191.2680  176.6250  146.3090 C   0  0  0  0  0  1  0  0  0  0  0  0
  191.7040  176.7480  144.8570 C   0  0  0  0  0  2  0  0  0  0  0  0
  185.4290  179.0220  139.6980 N   0  0  0  0  0  2  0  0  0  0  0  0
  184.0720  179.0590  140.2280 C   0  0  0  0  0  2  0  0  0  0  0  0
  183.9080  178.0620  141.2800 N   0  0  0  0  0  2  0  0  0  0  0  0
  187.2600  177.4310  144.7870 C   0  0  0  0  0  3  0  0  0  0  0  0
  185.1910  178.6130  145.2800 C   0  0  0  0  0  0  0  0  0  0  0  0
  185.6060  177.7470  143.0460 C   0  0  0  0  0  3  0  0  0  0  0  0
  186.8520  178.3020  147.0140 C   0  0  0  0  0  0  0  0  0  0  0  0
  186.0240  177.9270  144.3670 C   0  0  0  0  0  0  0  0  0  0  0  0
  183.5380  178.9090  143.5370 C   0  0  0  0  0  3  0  0  0  0  0  0
  185.6110  178.7990  146.6000 C   0  0  0  0  0  3  0  0  0  0  0  0
  183.9510  179.0980  144.8610 C   0  0  0  0  0  3  0  0  0  0  0  0
  187.2680  178.4860  148.3250 O   0  0  0  0  0  1  0  0  0  0  0  0
  187.6720  177.6190  146.1110 C   0  0  0  0  0  3  0  0  0  0  0  0
  184.3600  178.2380  142.6250 C   0  0  0  0  0  0  0  0  0  0  0  0
  1  2  1  0  0  0  0
  2 15  1  0  0  0  0
  3  4  1  0  0  0  0
  3  2  1  0  0  0  0
  4  5  1  0  0  0  0
  5  6  1  6  0  0  0
  5  7  1  0  0  0  0
  7  8  1  0  0  0  0
  8  9  1  0  0  0  0
  9 10  1  0  0  0  0
 10 11  1  0  0  0  0
 11 12  1  6  0  0  0
 11 14  1  0  0  0  0
 14 13  1  0  0  0  0
 15 16  1  0  0  0  0
 16 17  1  0  0  0  0
 17 28  1  0  0  0  0
 18 27  1  0  0  0  0
 19 24  2  0  0  0  0
 20 22  1  0  0  0  0
 21 26  1  0  0  0  0
 22 18  2  0  0  0  0
 22 19  1  0  0  0  0
 23 25  2  0  0  0  0
 24 21  1  0  0  0  0
 25 19  1  0  0  0  0
 27 21  2  0  0  0  0
 28 20  2  0  0  0  0
 28 23  1  0  0  0  0
M  END
>  <MODEL>
3

>  <REMARK>
 VINA RESULT:      -7.7      3.319      6.347
  Name = 
  13 active torsions:
  status: ('A' for Active; 'I' for Inactive)
    1  A    between atoms: C_1  and  C_2
    2  A    between atoms: C_1  and  C_26
    3  A    between atoms: C_2  and  O_3
    4  A    between atoms: O_3  and  C_7
    5  A    between atoms: C_5  and  N_20
    6  A    between atoms: C_5  and  N_27
    7  A    between atoms: C_6  and  C_11
    8  A    between atoms: C_6  and  C_28
    9  A    between atoms: C_7  and  C_28
   10  A    between atoms: C_19  and  N_21
   11  A    between atoms: C_19  and  C_26
   12  A    between atoms: N_20  and  C_25
   13  A    between atoms: N_21  and  N_27
                            x       y       z     vdW  Elec       q    Type
                         _______ _______ _______ _____ _____    ______ ____

>  <TORSDO>
F 13

$$$$
=
 OpenBabel10262420433D

 28 29  0  0  1  0  0  0  0  0999 V2000
  181.0730  178.6550  141.6070 C   0  0  0  0  0  1  0  0  0  0  0  0
  182.3910  178.1560  141.9760 N   0  0  0  0  0  0  0  0  0  0  0  0
  183.2150  178.0290  140.7690 C   0  0  0  0  0  2  0  0  0  0  0  0
  184.6390  178.5720  140.9520 C   0  0  0  0  0  2  0  0  0  0  0  0
  185.1570  179.2560  139.6930 C   0  0  2  0  0  3  0  0  0  0  0  0
  184.2560  180.2290  139.2560 O   0  0  0  0  0  1  0  0  0  0  0  0
  185.4140  178.2410  138.5910 C   0  0  0  0  0  2  0  0  0  0  0  0
  186.6190  178.5310  137.9520 O   0  0  0  0  0  0  0  0  0  0  0  0
  187.5450  177.6770  138.5480 C   0  0  0  0  0  2  0  0  0  0  0  0
  188.8340  178.4310  138.8330 C   0  0  0  0  0  2  0  0  0  0  0  0
  189.6880  177.7830  139.9250 C   0  0  2  0  0  3  0  0  0  0  0  0
  190.5970  176.6850  139.3920 C   0  0  0  0  0  1  0  0  0  0  0  0
  189.7560  176.6010  142.1800 C   0  0  0  0  0  1  0  0  0  0  0  0
  188.9120  177.3750  141.1800 C   0  0  0  0  0  2  0  0  0  0  0  0
  182.9820  179.1060  142.8260 N   0  0  0  0  0  2  0  0  0  0  0  0
  182.7690  178.6640  144.1990 C   0  0  0  0  0  2  0  0  0  0  0  0
  183.7550  179.2700  145.0870 N   0  0  0  0  0  2  0  0  0  0  0  0
  187.5140  178.3160  148.0690 C   0  0  0  0  0  3  0  0  0  0  0  0
  187.6140  177.6470  145.7320 C   0  0  0  0  0  0  0  0  0  0  0  0
  185.6470  178.7850  146.5980 C   0  0  0  0  0  3  0  0  0  0  0  0
  189.4730  177.1730  147.2090 C   0  0  0  0  0  0  0  0  0  0  0  0
  186.9220  178.2520  146.8050 C   0  0  0  0  0  0  0  0  0  0  0  0
  185.7510  178.1340  144.2660 C   0  0  0  0  0  3  0  0  0  0  0  0
  188.8870  177.1080  145.9410 C   0  0  0  0  0  3  0  0  0  0  0  0
  187.0250  177.5930  144.4670 C   0  0  0  0  0  3  0  0  0  0  0  0
  190.7370  176.6380  147.4150 O   0  0  0  0  0  1  0  0  0  0  0  0
  188.7900  177.7770  148.2690 C   0  0  0  0  0  3  0  0  0  0  0  0
  185.0560  178.7280  145.3260 C   0  0  0  0  0  0  0  0  0  0  0  0
  1  2  1  0  0  0  0
  2 15  1  0  0  0  0
  3  4  1  0  0  0  0
  3  2  1  0  0  0  0
  5  6  1  6  0  0  0
  5  4  1  0  0  0  0
  7  5  1  0  0  0  0
  8  9  1  0  0  0  0
  8  7  1  0  0  0  0
  9 10  1  0  0  0  0
 10 11  1  0  0  0  0
 11 12  1  6  0  0  0
 11 14  1  0  0  0  0
 14 13  1  0  0  0  0
 15 16  1  0  0  0  0
 16 17  1  0  0  0  0
 17 28  1  0  0  0  0
 18 27  1  0  0  0  0
 19 24  2  0  0  0  0
 19 22  1  0  0  0  0
 20 22  1  0  0  0  0
 21 26  1  0  0  0  0
 21 27  2  0  0  0  0
 22 18  2  0  0  0  0
 23 25  2  0  0  0  0
 23 28  1  0  0  0  0
 24 21  1  0  0  0  0
 25 19  1  0  0  0  0
 28 20  2  0  0  0  0
M  END
>  <MODEL>
4

>  <REMARK>
 VINA RESULT:      -7.6      2.971      6.375
  Name = 
  13 active torsions:
  status: ('A' for Active; 'I' for Inactive)
    1  A    between atoms: C_1  and  C_2
    2  A    between atoms: C_1  and  C_26
    3  A    between atoms: C_2  and  O_3
    4  A    between atoms: O_3  and  C_7
    5  A    between atoms: C_5  and  N_20
    6  A    between atoms: C_5  and  N_27
    7  A    between atoms: C_6  and  C_11
    8  A    between atoms: C_6  and  C_28
    9  A    between atoms: C_7  and  C_28
   10  A    between atoms: C_19  and  N_21
   11  A    between atoms: C_19  and  C_26
   12  A    between atoms: N_20  and  C_25
   13  A    between atoms: N_21  and  N_27
                            x       y       z     vdW  Elec       q    Type
                         _______ _______ _______ _____ _____    ______ ____

>  <TORSDO>
F 13

$$$$
=
 OpenBabel10262420433D

 28 29  0  0  1  0  0  0  0  0999 V2000
  190.9980  176.2300  138.1390 C   0  0  0  0  0  1  0  0  0  0  0  0
  190.0630  177.3450  138.1690 N   0  0  0  0  0  0  0  0  0  0  0  0
  188.7190  176.8590  137.8380 C   0  0  0  0  0  2  0  0  0  0  0  0
  187.6950  177.9890  137.6630 C   0  0  0  0  0  2  0  0  0  0  0  0
  186.2950  177.4550  137.3850 C   0  0  2  0  0  3  0  0  0  0  0  0
  185.9740  177.5970  136.0340 O   0  0  0  0  0  1  0  0  0  0  0  0
  185.2640  178.1600  138.2510 C   0  0  0  0  0  2  0  0  0  0  0  0
  185.9050  178.9050  139.2390 O   0  0  0  0  0  0  0  0  0  0  0  0
  184.9360  179.0830  140.2250 C   0  0  0  0  0  2  0  0  0  0  0  0
  185.5700  178.9580  141.6020 C   0  0  0  0  0  2  0  0  0  0  0  0
  184.5760  178.5580  142.6950 C   0  0  2  0  0  3  0  0  0  0  0  0
  183.1530  178.4120  142.1750 C   0  0  0  0  0  1  0  0  0  0  0  0
  183.6050  179.0400  144.9990 C   0  0  0  0  0  1  0  0  0  0  0  0
  184.6760  179.3890  143.9770 C   0  0  0  0  0  2  0  0  0  0  0  0
  190.0470  177.8520  139.4800 N   0  0  0  0  0  2  0  0  0  0  0  0
  190.2810  176.7360  140.3880 C   0  0  0  0  0  2  0  0  0  0  0  0
  191.1290  177.1530  141.4990 N   0  0  0  0  0  2  0  0  0  0  0  0
  187.5530  177.4740  144.8230 C   0  0  0  0  0  3  0  0  0  0  0  0
  189.8770  177.4000  145.5390 C   0  0  0  0  0  0  0  0  0  0  0  0
  189.3200  177.3080  143.1740 C   0  0  0  0  0  3  0  0  0  0  0  0
  188.1060  177.5570  147.1830 C   0  0  0  0  0  0  0  0  0  0  0  0
  188.9110  177.3940  144.5070 C   0  0  0  0  0  0  0  0  0  0  0  0
  191.6360  177.2510  143.8840 C   0  0  0  0  0  3  0  0  0  0  0  0
  189.4680  177.4790  146.8740 C   0  0  0  0  0  3  0  0  0  0  0  0
  191.2350  177.3310  145.2220 C   0  0  0  0  0  3  0  0  0  0  0  0
  187.7010  177.6360  148.5080 O   0  0  0  0  0  1  0  0  0  0  0  0
  187.1520  177.5560  146.1610 C   0  0  0  0  0  3  0  0  0  0  0  0
  190.6850  177.2370  142.8570 C   0  0  0  0  0  0  0  0  0  0  0  0
  1  2  1  0  0  0  0
  2 15  1  0  0  0  0
  3  2  1  0  0  0  0
  4  3  1  0  0  0  0
  5  6  1  6  0  0  0
  5  4  1  0  0  0  0
  5  7  1  0  0  0  0
  7  8  1  0  0  0  0
  8  9  1  0  0  0  0
  9 10  1  0  0  0  0
 10 11  1  0  0  0  0
 11 12  1  6  0  0  0
 11 14  1  0  0  0  0
 14 13  1  0  0  0  0
 15 16  1  0  0  0  0
 16 17  1  0  0  0  0
 17 28  1  0  0  0  0
 18 27  1  0  0  0  0
 19 24  2  0  0  0  0
 20 22  1  0  0  0  0
 21 26  1  0  0  0  0
 22 18  2  0  0  0  0
 22 19  1  0  0  0  0
 23 25  2  0  0  0  0
 24 21  1  0  0  0  0
 25 19  1  0  0  0  0
 27 21  2  0  0  0  0
 28 20  2  0  0  0  0
 28 23  1  0  0  0  0
M  END
>  <MODEL>
5

>  <REMARK>
 VINA RESULT:      -7.5      3.300      6.656
  Name = 
  13 active torsions:
  status: ('A' for Active; 'I' for Inactive)
    1  A    between atoms: C_1  and  C_2
    2  A    between atoms: C_1  and  C_26
    3  A    between atoms: C_2  and  O_3
    4  A    between atoms: O_3  and  C_7
    5  A    between atoms: C_5  and  N_20
    6  A    between atoms: C_5  and  N_27
    7  A    between atoms: C_6  and  C_11
    8  A    between atoms: C_6  and  C_28
    9  A    between atoms: C_7  and  C_28
   10  A    between atoms: C_19  and  N_21
   11  A    between atoms: C_19  and  C_26
   12  A    between atoms: N_20  and  C_25
   13  A    between atoms: N_21  and  N_27
                            x       y       z     vdW  Elec       q    Type
                         _______ _______ _______ _____ _____    ______ ____

>  <TORSDO>
F 13

$$$$
=
 OpenBabel10262420433D

 28 29  0  0  1  0  0  0  0  0999 V2000
  189.8090  177.4930  137.9050 C   0  0  0  0  0  1  0  0  0  0  0  0
  188.6050  177.3390  138.7110 N   0  0  0  0  0  0  0  0  0  0  0  0
  188.9670  177.3700  140.1320 C   0  0  0  0  0  2  0  0  0  0  0  0
  190.4810  177.2740  140.3710 C   0  0  0  0  0  2  0  0  0  0  0  0
  190.8140  177.0320  141.8370 C   0  0  2  0  0  3  0  0  0  0  0  0
  190.3110  175.8000  142.2600 O   0  0  0  0  0  1  0  0  0  0  0  0
  190.2710  178.1530  142.7080 C   0  0  0  0  0  2  0  0  0  0  0  0
  189.9820  177.6650  143.9820 O   0  0  0  0  0  0  0  0  0  0  0  0
  191.1030  177.9920  144.7430 C   0  0  0  0  0  2  0  0  0  0  0  0
  191.6100  176.7580  145.4730 C   0  0  0  0  0  2  0  0  0  0  0  0
  191.2480  176.7400  146.9600 C   0  0  2  0  0  3  0  0  0  0  0  0
  192.0540  175.7200  147.7520 C   0  0  0  0  0  1  0  0  0  0  0  0
  189.2510  177.8700  148.0640 C   0  0  0  0  0  1  0  0  0  0  0  0
  189.7460  176.6860  147.2470 C   0  0  0  0  0  2  0  0  0  0  0  0
  187.7680  178.4330  138.4360 N   0  0  0  0  0  2  0  0  0  0  0  0
  186.3910  177.9540  138.4540 C   0  0  0  0  0  2  0  0  0  0  0  0
  185.5220  178.9240  139.1100 N   0  0  0  0  0  2  0  0  0  0  0  0
  186.6100  178.3810  143.8480 C   0  0  0  0  0  3  0  0  0  0  0  0
  184.2990  178.7020  143.1600 C   0  0  0  0  0  0  0  0  0  0  0  0
  186.0770  178.6560  141.5010 C   0  0  0  0  0  3  0  0  0  0  0  0
  184.8390  178.4360  145.5050 C   0  0  0  0  0  0  0  0  0  0  0  0
  185.6690  178.5800  142.8350 C   0  0  0  0  0  0  0  0  0  0  0  0
  183.7740  178.9600  140.8110 C   0  0  0  0  0  3  0  0  0  0  0  0
  183.8910  178.6320  144.4950 C   0  0  0  0  0  3  0  0  0  0  0  0
  183.3580  178.8900  142.1450 C   0  0  0  0  0  3  0  0  0  0  0  0
  184.4340  178.3650  146.8300 O   0  0  0  0  0  1  0  0  0  0  0  0
  186.1940  178.3090  145.1820 C   0  0  0  0  0  3  0  0  0  0  0  0
  185.1310  178.8470  140.4830 C   0  0  0  0  0  0  0  0  0  0  0  0
  1  2  1  0  0  0  0
  2  3  1  0  0  0  0
  3  4  1  0  0  0  0
  4  5  1  0  0  0  0
  5  6  1  1  0  0  0
  5  7  1  0  0  0  0
  7  8  1  0  0  0  0
  8  9  1  0  0  0  0
  9 10  1  0  0  0  0
 10 11  1  0  0  0  0
 11 14  1  0  0  0  0
 11 12  1  6  0  0  0
 14 13  1  0  0  0  0
 15 16  1  0  0  0  0
 15  2  1  0  0  0  0
 16 17  1  0  0  0  0
 17 28  1  0  0  0  0
 18 27  1  0  0  0  0
 19 24  2  0  0  0  0
 20 22  1  0  0  0  0
 21 26  1  0  0  0  0
 22 19  1  0  0  0  0
 22 18  2  0  0  0  0
 23 25  2  0  0  0  0
 24 21  1  0  0  0  0
 25 19  1  0  0  0  0
 27 21  2  0  0  0  0
 28 23  1  0  0  0  0
 28 20  2  0  0  0  0
M  END
>  <MODEL>
6

>  <REMARK>
 VINA RESULT:      -7.5      3.294      6.378
  Name = 
  13 active torsions:
  status: ('A' for Active; 'I' for Inactive)
    1  A    between atoms: C_1  and  C_2
    2  A    between atoms: C_1  and  C_26
    3  A    between atoms: C_2  and  O_3
    4  A    between atoms: O_3  and  C_7
    5  A    between atoms: C_5  and  N_20
    6  A    between atoms: C_5  and  N_27
    7  A    between atoms: C_6  and  C_11
    8  A    between atoms: C_6  and  C_28
    9  A    between atoms: C_7  and  C_28
   10  A    between atoms: C_19  and  N_21
   11  A    between atoms: C_19  and  C_26
   12  A    between atoms: N_20  and  C_25
   13  A    between atoms: N_21  and  N_27
                            x       y       z     vdW  Elec       q    Type
                         _______ _______ _______ _____ _____    ______ ____

>  <TORSDO>
F 13

$$$$
=
 OpenBabel10262420433D

 28 29  0  0  1  0  0  0  0  0999 V2000
  191.6520  175.6070  143.8880 C   0  0  0  0  0  1  0  0  0  0  0  0
  192.0570  177.0040  143.9530 N   0  0  0  0  0  0  0  0  0  0  0  0
  191.4920  177.7250  142.8070 C   0  0  0  0  0  2  0  0  0  0  0  0
  190.0950  178.2990  143.0850 C   0  0  0  0  0  2  0  0  0  0  0  0
  189.0170  177.6050  142.2640 C   0  0  2  0  0  3  0  0  0  0  0  0
  189.5520  176.5190  141.5670 O   0  0  0  0  0  1  0  0  0  0  0  0
  188.3580  178.5780  141.3010 C   0  0  0  0  0  2  0  0  0  0  0  0
  188.0340  177.9240  140.1130 O   0  0  0  0  0  0  0  0  0  0  0  0
  186.7880  178.4390  139.7600 C   0  0  0  0  0  2  0  0  0  0  0  0
  186.0170  178.8280  141.0110 C   0  0  0  0  0  2  0  0  0  0  0  0
  184.5170  179.0120  140.7680 C   0  0  2  0  0  3  0  0  0  0  0  0
  183.6810  177.8790  141.3470 C   0  0  0  0  0  1  0  0  0  0  0  0
  183.1480  178.3990  138.7100 C   0  0  0  0  0  1  0  0  0  0  0  0
  184.1470  179.3670  139.3260 C   0  0  0  0  0  2  0  0  0  0  0  0
  191.5230  177.5470  145.1340 N   0  0  0  0  0  2  0  0  0  0  0  0
  191.6530  176.5420  146.1820 C   0  0  0  0  0  2  0  0  0  0  0  0
  190.8090  176.8830  147.3220 N   0  0  0  0  0  2  0  0  0  0  0  0
  186.7490  177.6220  144.6950 C   0  0  0  0  0  3  0  0  0  0  0  0
  186.8010  178.2280  147.0510 C   0  0  0  0  0  0  0  0  0  0  0  0
  188.7600  177.2480  145.9930 C   0  0  0  0  0  3  0  0  0  0  0  0
  184.7910  178.5910  145.7500 C   0  0  0  0  0  0  0  0  0  0  0  0
  187.4390  177.6960  145.9070 C   0  0  0  0  0  0  0  0  0  0  0  0
  188.8200  177.8650  148.3360 C   0  0  0  0  0  3  0  0  0  0  0  0
  185.4780  178.6710  146.9660 C   0  0  0  0  0  3  0  0  0  0  0  0
  187.4960  178.3120  148.2590 C   0  0  0  0  0  3  0  0  0  0  0  0
  183.4780  179.0310  145.6670 O   0  0  0  0  0  1  0  0  0  0  0  0
  185.4260  178.0700  144.6170 C   0  0  0  0  0  3  0  0  0  0  0  0
  189.4560  177.3310  147.2090 C   0  0  0  0  0  0  0  0  0  0  0  0
  1  2  1  0  0  0  0
  2 15  1  0  0  0  0
  3  4  1  0  0  0  0
  3  2  1  0  0  0  0
  5  6  1  6  0  0  0
  5  4  1  0  0  0  0
  7  5  1  0  0  0  0
  8  7  1  0  0  0  0
  9  8  1  0  0  0  0
  9 10  1  0  0  0  0
 11 10  1  0  0  0  0
 11 12  1  6  0  0  0
 13 14  1  0  0  0  0
 14 11  1  0  0  0  0
 15 16  1  0  0  0  0
 16 17  1  0  0  0  0
 18 22  1  0  0  0  0
 19 25  1  0  0  0  0
 20 28  2  0  0  0  0
 21 24  2  0  0  0  0
 22 20  1  0  0  0  0
 22 19  2  0  0  0  0
 24 19  1  0  0  0  0
 25 23  2  0  0  0  0
 26 21  1  0  0  0  0
 27 18  2  0  0  0  0
 27 21  1  0  0  0  0
 28 17  1  0  0  0  0
 28 23  1  0  0  0  0
M  END
>  <MODEL>
7

>  <REMARK>
 VINA RESULT:      -7.5      1.943      3.549
  Name = 
  13 active torsions:
  status: ('A' for Active; 'I' for Inactive)
    1  A    between atoms: C_1  and  C_2
    2  A    between atoms: C_1  and  C_26
    3  A    between atoms: C_2  and  O_3
    4  A    between atoms: O_3  and  C_7
    5  A    between atoms: C_5  and  N_20
    6  A    between atoms: C_5  and  N_27
    7  A    between atoms: C_6  and  C_11
    8  A    between atoms: C_6  and  C_28
    9  A    between atoms: C_7  and  C_28
   10  A    between atoms: C_19  and  N_21
   11  A    between atoms: C_19  and  C_26
   12  A    between atoms: N_20  and  C_25
   13  A    between atoms: N_21  and  N_27
                            x       y       z     vdW  Elec       q    Type
                         _______ _______ _______ _____ _____    ______ ____

>  <TORSDO>
F 13

$$$$
=
 OpenBabel10262420433D

 28 29  0  0  1  0  0  0  0  0999 V2000
  191.2230  175.7770  143.6980 C   0  0  0  0  0  1  0  0  0  0  0  0
  191.6690  177.1610  143.6230 N   0  0  0  0  0  0  0  0  0  0  0  0
  190.7690  177.9120  142.7410 C   0  0  0  0  0  2  0  0  0  0  0  0
  190.0260  177.0190  141.7360 C   0  0  0  0  0  2  0  0  0  0  0  0
  189.2110  177.8340  140.7400 C   0  0  2  0  0  3  0  0  0  0  0  0
  187.9060  178.0150  141.2020 O   0  0  0  0  0  1  0  0  0  0  0  0
  189.2020  177.1680  139.3740 C   0  0  0  0  0  2  0  0  0  0  0  0
  189.9620  177.9160  138.4760 O   0  0  0  0  0  0  0  0  0  0  0  0
  189.0370  178.7420  137.8390 C   0  0  0  0  0  2  0  0  0  0  0  0
  188.6820  178.1650  136.4780 C   0  0  0  0  0  2  0  0  0  0  0  0
  187.1870  178.2400  136.1570 C   0  0  2  0  0  3  0  0  0  0  0  0
  186.3150  178.2700  137.4040 C   0  0  0  0  0  1  0  0  0  0  0  0
  187.1940  175.8170  135.3730 C   0  0  0  0  0  1  0  0  0  0  0  0
  186.7130  177.2350  135.1050 C   0  0  0  0  0  2  0  0  0  0  0  0
  191.5870  177.7040  144.9170 N   0  0  0  0  0  2  0  0  0  0  0  0
  191.6790  176.6010  145.8660 C   0  0  0  0  0  2  0  0  0  0  0  0
  190.8530  176.8690  147.0380 N   0  0  0  0  0  2  0  0  0  0  0  0
  186.7440  177.7370  144.5290 C   0  0  0  0  0  3  0  0  0  0  0  0
  186.8340  178.2040  146.9150 C   0  0  0  0  0  0  0  0  0  0  0  0
  188.7790  177.2990  145.7690 C   0  0  0  0  0  3  0  0  0  0  0  0
  184.8010  178.6310  145.6720 C   0  0  0  0  0  0  0  0  0  0  0  0
  187.4550  177.7440  145.7310 C   0  0  0  0  0  0  0  0  0  0  0  0
  188.8770  177.7790  148.1420 C   0  0  0  0  0  3  0  0  0  0  0  0
  185.5080  178.6430  146.8800 C   0  0  0  0  0  3  0  0  0  0  0  0
  187.5500  178.2210  148.1140 C   0  0  0  0  0  3  0  0  0  0  0  0
  183.4840  179.0680  145.6380 O   0  0  0  0  0  1  0  0  0  0  0  0
  185.4180  178.1810  144.5010 C   0  0  0  0  0  3  0  0  0  0  0  0
  189.4960  177.3150  146.9750 C   0  0  0  0  0  0  0  0  0  0  0  0
  2  1  1  0  0  0  0
  2 15  1  0  0  0  0
  3  2  1  0  0  0  0
  4  3  1  0  0  0  0
  5  6  1  1  0  0  0
  5  4  1  0  0  0  0
  7  5  1  0  0  0  0
  8  7  1  0  0  0  0
  9  8  1  0  0  0  0
 10  9  1  0  0  0  0
 11 10  1  0  0  0  0
 11 12  1  1  0  0  0
 14 13  1  0  0  0  0
 14 11  1  0  0  0  0
 15 16  1  0  0  0  0
 16 17  1  0  0  0  0
 18 22  1  0  0  0  0
 19 25  1  0  0  0  0
 20 28  2  0  0  0  0
 21 24  2  0  0  0  0
 22 20  1  0  0  0  0
 22 19  2  0  0  0  0
 24 19  1  0  0  0  0
 25 23  2  0  0  0  0
 26 21  1  0  0  0  0
 27 18  2  0  0  0  0
 27 21  1  0  0  0  0
 28 17  1  0  0  0  0
 28 23  1  0  0  0  0
M  END
>  <MODEL>
8

>  <REMARK>
 VINA RESULT:      -7.4      1.765      3.294
  Name = 
  13 active torsions:
  status: ('A' for Active; 'I' for Inactive)
    1  A    between atoms: C_1  and  C_2
    2  A    between atoms: C_1  and  C_26
    3  A    between atoms: C_2  and  O_3
    4  A    between atoms: O_3  and  C_7
    5  A    between atoms: C_5  and  N_20
    6  A    between atoms: C_5  and  N_27
    7  A    between atoms: C_6  and  C_11
    8  A    between atoms: C_6  and  C_28
    9  A    between atoms: C_7  and  C_28
   10  A    between atoms: C_19  and  N_21
   11  A    between atoms: C_19  and  C_26
   12  A    between atoms: N_20  and  C_25
   13  A    between atoms: N_21  and  N_27
                            x       y       z     vdW  Elec       q    Type
                         _______ _______ _______ _____ _____    ______ ____

>  <TORSDO>
F 13

$$$$
=
 OpenBabel10262420433D

 28 29  0  0  1  0  0  0  0  0999 V2000
  181.7320  179.0870  143.2770 C   0  0  0  0  0  1  0  0  0  0  0  0
  183.0780  178.6480  142.9360 N   0  0  0  0  0  0  0  0  0  0  0  0
  183.2380  178.6700  141.4780 C   0  0  0  0  0  2  0  0  0  0  0  0
  184.7070  178.7210  141.0340 C   0  0  0  0  0  2  0  0  0  0  0  0
  184.8680  179.3620  139.6610 C   0  0  2  0  0  3  0  0  0  0  0  0
  183.6400  179.8310  139.1900 O   0  0  0  0  0  1  0  0  0  0  0  0
  185.4740  178.3800  138.6720 C   0  0  0  0  0  2  0  0  0  0  0  0
  186.6200  178.9310  138.0990 O   0  0  0  0  0  0  0  0  0  0  0  0
  187.5230  177.8710  138.0370 C   0  0  0  0  0  2  0  0  0  0  0  0
  188.8250  178.2610  138.7190 C   0  0  0  0  0  2  0  0  0  0  0  0
  189.3290  177.2120  139.7130 C   0  0  2  0  0  3  0  0  0  0  0  0
  188.8640  177.4760  141.1380 C   0  0  0  0  0  1  0  0  0  0  0  0
  191.6370  177.4800  140.7550 C   0  0  0  0  0  1  0  0  0  0  0  0
  190.8240  176.9040  139.6060 C   0  0  0  0  0  2  0  0  0  0  0  0
  183.9800  179.5660  143.5010 N   0  0  0  0  0  2  0  0  0  0  0  0
  184.5470  178.9510  144.6950 C   0  0  0  0  0  2  0  0  0  0  0  0
  185.6250  178.0370  144.3330 N   0  0  0  0  0  2  0  0  0  0  0  0
  190.3530  176.8920  144.8470 C   0  0  0  0  0  3  0  0  0  0  0  0
  188.9830  177.3100  146.8130 C   0  0  0  0  0  0  0  0  0  0  0  0
  188.0140  177.4650  144.5870 C   0  0  0  0  0  3  0  0  0  0  0  0
  191.3240  176.7450  147.0650 C   0  0  0  0  0  0  0  0  0  0  0  0
  189.1180  177.2220  145.4080 C   0  0  0  0  0  0  0  0  0  0  0  0
  186.6420  177.8670  146.5440 C   0  0  0  0  0  3  0  0  0  0  0  0
  190.0880  177.0740  147.6340 C   0  0  0  0  0  3  0  0  0  0  0  0
  187.7440  177.6300  147.3730 C   0  0  0  0  0  3  0  0  0  0  0  0
  192.4210  176.5100  147.8820 O   0  0  0  0  0  1  0  0  0  0  0  0
  191.4550  176.6530  145.6760 C   0  0  0  0  0  3  0  0  0  0  0  0
  186.7710  177.7890  145.1520 C   0  0  0  0  0  0  0  0  0  0  0  0
  2  1  1  0  0  0  0
  2 15  1  0  0  0  0
  3  2  1  0  0  0  0
  4  3  1  0  0  0  0
  5  6  1  6  0  0  0
  5  4  1  0  0  0  0
  7  5  1  0  0  0  0
  8  7  1  0  0  0  0
  9  8  1  0  0  0  0
  9 10  1  0  0  0  0
 10 11  1  0  0  0  0
 11 12  1  1  0  0  0
 14 11  1  0  0  0  0
 14 13  1  0  0  0  0
 15 16  1  0  0  0  0
 17 16  1  0  0  0  0
 17 28  1  0  0  0  0
 18 22  2  0  0  0  0
 18 27  1  0  0  0  0
 19 25  1  0  0  0  0
 19 24  2  0  0  0  0
 20 28  2  0  0  0  0
 20 22  1  0  0  0  0
 21 24  1  0  0  0  0
 21 26  1  0  0  0  0
 22 19  1  0  0  0  0
 23 25  2  0  0  0  0
 27 21  2  0  0  0  0
 28 23  1  0  0  0  0
M  END
>  <MODEL>
9

>  <REMARK>
 VINA RESULT:      -7.3      2.691      6.560
  Name = 
  13 active torsions:
  status: ('A' for Active; 'I' for Inactive)
    1  A    between atoms: C_1  and  C_2
    2  A    between atoms: C_1  and  C_26
    3  A    between atoms: C_2  and  O_3
    4  A    between atoms: O_3  and  C_7
    5  A    between atoms: C_5  and  N_20
    6  A    between atoms: C_5  and  N_27
    7  A    between atoms: C_6  and  C_11
    8  A    between atoms: C_6  and  C_28
    9  A    between atoms: C_7  and  C_28
   10  A    between atoms: C_19  and  N_21
   11  A    between atoms: C_19  and  C_26
   12  A    between atoms: N_20  and  C_25
   13  A    between atoms: N_21  and  N_27
                            x       y       z     vdW  Elec       q    Type
                         _______ _______ _______ _____ _____    ______ ____

>  <TORSDO>
F 13

$$$$
