=
 OpenBabel10262420013D

 27 31  0  0  1  0  0  0  0  0999 V2000
  189.1960  178.7190  137.3730 C   0  0  0  0  0  2  0  0  0  0  0  0
  187.8700  178.2800  139.5730 C   0  0  0  0  0  0  0  0  0  0  0  0
  190.3440  177.5440  139.7400 C   0  0  0  0  0  2  0  0  0  0  0  0
  187.6840  177.8430  143.7140 N   0  0  0  0  0  2  0  0  0  0  0  0
  189.6760  178.3690  144.9040 N   0  0  0  0  0  1  0  0  0  0  0  0
  186.7050  178.5830  140.2260 N   0  0  0  0  0  0  0  0  0  0  0  0
  189.8060  177.2350  142.7390 C   0  0  1  0  0  3  0  0  0  0  0  0
  192.5160  176.0120  137.4340 C   0  0  0  0  0  2  0  0  0  0  0  0
  190.1700  175.7750  142.5340 C   0  0  0  0  0  1  0  0  0  0  0  0
  192.1050  175.4860  136.0520 C   0  0  0  0  0  2  0  0  0  0  0  0
  188.8180  177.6720  141.7090 C   0  0  0  0  0  0  0  0  0  0  0  0
  187.8580  178.4110  138.0680 C   0  0  2  0  0  3  0  0  0  0  0  0
  189.0260  177.3800  144.0630 C   0  0  2  0  0  3  0  0  0  0  0  0
  187.6410  177.9970  142.3120 C   0  0  0  0  0  0  0  0  0  0  0  0
  190.1580  177.5330  137.2360 C   0  0  2  0  0  3  0  0  0  0  0  0
  188.9860  177.8060  140.3250 C   0  0  0  0  0  0  0  0  0  0  0  0
  191.4780  175.7080  138.5190 C   0  0  0  0  0  2  0  0  0  0  0  0
  186.5630  178.4620  141.5740 C   0  0  0  0  0  3  0  0  0  0  0  0
  189.8900  176.7660  135.9340 C   0  0  0  0  0  2  0  0  0  0  0  0
  190.5910  175.4110  135.8340 C   0  0  0  0  0  2  0  0  0  0  0  0
  190.2690  176.6610  138.5070 C   0  0  1  0  0  3  0  0  0  0  0  0
  185.4500  175.5910  135.8150 C   0  0  0  0  0  2  0  0  0  0  0  0
  186.9080  177.4260  137.3720 C   0  0  0  0  0  3  0  0  0  0  0  0
  187.2880  175.9570  137.5760 C   0  0  0  0  0  2  0  0  0  0  0  0
  186.2160  175.0150  137.0130 C   0  0  0  0  0  2  0  0  0  0  0  0
  186.3060  176.5800  135.0280 C   0  0  0  0  0  2  0  0  0  0  0  0
  186.6830  177.7870  135.8940 C   0  0  0  0  0  2  0  0  0  0  0  0
  1 12  1  0  0  0  0
  2  6  2  0  0  0  0
  2 16  1  0  0  0  0
  3 16  1  0  0  0  0
  4 13  1  0  0  0  0
  6 18  1  0  0  0  0
  7  9  1  6  0  0  0
  7 13  1  0  0  0  0
  8 17  1  0  0  0  0
 10  8  1  0  0  0  0
 11 14  1  0  0  0  0
 11  7  1  0  0  0  0
 12 23  1  6  0  0  0
 12  2  1  0  0  0  0
 13  5  1  1  0  0  0
 14  4  1  0  0  0  0
 15 19  1  6  0  0  0
 15  1  1  0  0  0  0
 15 21  1  0  0  0  0
 16 11  2  0  0  0  0
 18 14  2  0  0  0  0
 20 19  1  0  0  0  0
 20 10  1  0  0  0  0
 21 17  1  6  0  0  0
 21  3  1  0  0  0  0
 22 25  1  0  0  0  0
 23 24  1  0  0  0  0
 25 24  1  0  0  0  0
 26 22  1  0  0  0  0
 26 27  1  0  0  0  0
 27 23  1  0  0  0  0
M  END
>  <MODEL>
1

>  <REMARK>
 VINA RESULT:      -7.6      0.000      0.000
  Name = 
  1 active torsions:
  status: ('A' for Active; 'I' for Inactive)
    1  A    between atoms: C_9  and  C_15
                            x       y       z     vdW  Elec       q    Type
                         _______ _______ _______ _____ _____    ______ ____

>  <TORSDO>
F 1

$$$$
=
 OpenBabel10262420013D

 27 31  0  0  1  0  0  0  0  0999 V2000
  188.7700  178.8590  137.3860 C   0  0  0  0  0  2  0  0  0  0  0  0
  186.5000  178.4180  138.5870 C   0  0  0  0  0  0  0  0  0  0  0  0
  188.4970  178.4890  140.2290 C   0  0  0  0  0  2  0  0  0  0  0  0
  184.0200  178.6410  141.9290 N   0  0  0  0  0  2  0  0  0  0  0  0
  184.8480  179.9260  143.7530 N   0  0  0  0  0  1  0  0  0  0  0  0
  185.1430  178.4660  138.4100 N   0  0  0  0  0  0  0  0  0  0  0  0
  186.3760  178.5380  142.4390 C   0  0  1  0  0  3  0  0  0  0  0  0
  191.8030  177.3100  139.9840 C   0  0  0  0  0  2  0  0  0  0  0  0
  187.0060  177.2390  142.9090 C   0  0  0  0  0  1  0  0  0  0  0  0
  192.3530  176.4640  138.8280 C   0  0  0  0  0  2  0  0  0  0  0  0
  186.1150  178.4830  140.9700 C   0  0  0  0  0  0  0  0  0  0  0  0
  187.3420  178.2880  137.3400 C   0  0  2  0  0  3  0  0  0  0  0  0
  184.9630  178.6630  143.0460 C   0  0  2  0  0  3  0  0  0  0  0  0
  184.7730  178.5400  140.7410 C   0  0  0  0  0  0  0  0  0  0  0  0
  189.7990  178.0070  138.1380 C   0  0  2  0  0  3  0  0  0  0  0  0
  187.0310  178.4300  139.9110 C   0  0  0  0  0  0  0  0  0  0  0  0
  190.3900  176.8970  140.4040 C   0  0  0  0  0  2  0  0  0  0  0  0
  184.2670  178.5340  139.4500 C   0  0  0  0  0  3  0  0  0  0  0  0
  190.4540  176.9890  137.1940 C   0  0  0  0  0  2  0  0  0  0  0  0
  191.2780  175.9070  137.8910 C   0  0  0  0  0  2  0  0  0  0  0  0
  189.2840  177.4320  139.4760 C   0  0  1  0  0  3  0  0  0  0  0  0
  186.4100  174.5010  135.4360 C   0  0  0  0  0  2  0  0  0  0  0  0
  187.1320  176.9640  136.5910 C   0  0  0  0  0  3  0  0  0  0  0  0
  186.1050  177.0550  135.4590 C   0  0  0  0  0  2  0  0  0  0  0  0
  186.0600  175.7620  134.6340 C   0  0  0  0  0  2  0  0  0  0  0  0
  186.0500  174.6610  136.9110 C   0  0  0  0  0  2  0  0  0  0  0  0
  186.8610  175.7940  137.5510 C   0  0  0  0  0  2  0  0  0  0  0  0
  1 15  1  0  0  0  0
  2 16  1  0  0  0  0
  4 13  1  0  0  0  0
  6  2  2  0  0  0  0
  6 18  1  0  0  0  0
  7  9  1  1  0  0  0
  7 13  1  0  0  0  0
  8 17  1  0  0  0  0
 10  8  1  0  0  0  0
 11  7  1  0  0  0  0
 12 23  1  1  0  0  0
 12  1  1  0  0  0  0
 12  2  1  0  0  0  0
 13  5  1  6  0  0  0
 14 11  1  0  0  0  0
 14  4  1  0  0  0  0
 15 19  1  6  0  0  0
 15 21  1  0  0  0  0
 16  3  1  0  0  0  0
 16 11  2  0  0  0  0
 18 14  2  0  0  0  0
 19 20  1  0  0  0  0
 20 10  1  0  0  0  0
 21  3  1  1  0  0  0
 21 17  1  0  0  0  0
 22 26  1  0  0  0  0
 23 27  1  0  0  0  0
 24 23  1  0  0  0  0
 25 22  1  0  0  0  0
 25 24  1  0  0  0  0
 26 27  1  0  0  0  0
M  END
>  <MODEL>
2

>  <REMARK>
 VINA RESULT:      -7.1      1.828      2.734
  Name = 
  1 active torsions:
  status: ('A' for Active; 'I' for Inactive)
    1  A    between atoms: C_9  and  C_15
                            x       y       z     vdW  Elec       q    Type
                         _______ _______ _______ _____ _____    ______ ____

>  <TORSDO>
F 1

$$$$
=
 OpenBabel10262420013D

 27 31  0  0  1  0  0  0  0  0999 V2000
  184.0530  179.8650  139.3940 C   0  0  0  0  0  2  0  0  0  0  0  0
  183.2490  179.0620  141.7390 C   0  0  0  0  0  0  0  0  0  0  0  0
  185.8270  179.1200  141.5380 C   0  0  0  0  0  2  0  0  0  0  0  0
  183.7950  178.6280  145.8490 N   0  0  0  0  0  2  0  0  0  0  0  0
  185.6810  179.7500  146.7710 N   0  0  0  0  0  1  0  0  0  0  0  0
  182.1520  179.0000  142.5570 N   0  0  0  0  0  0  0  0  0  0  0  0
  185.8400  178.6900  144.5700 C   0  0  1  0  0  3  0  0  0  0  0  0
  188.0110  178.3040  138.9030 C   0  0  0  0  0  2  0  0  0  0  0  0
  186.5970  177.4090  144.2660 C   0  0  0  0  0  1  0  0  0  0  0  0
  187.5880  177.6640  137.5730 C   0  0  0  0  0  2  0  0  0  0  0  0
  184.6300  178.7930  143.7020 C   0  0  0  0  0  0  0  0  0  0  0  0
  182.9850  179.1690  140.2560 C   0  0  2  0  0  3  0  0  0  0  0  0
  185.2500  178.6010  145.9930 C   0  0  2  0  0  3  0  0  0  0  0  0
  183.5080  178.7480  144.4730 C   0  0  0  0  0  0  0  0  0  0  0  0
  185.3000  179.0280  139.0850 C   0  0  2  0  0  3  0  0  0  0  0  0
  184.5520  178.9600  142.3130 C   0  0  0  0  0  0  0  0  0  0  0  0
  187.2810  177.7070  140.1090 C   0  0  0  0  0  2  0  0  0  0  0  0
  182.2470  178.8540  143.9070 C   0  0  0  0  0  3  0  0  0  0  0  0
  185.0960  178.2040  137.8070 C   0  0  0  0  0  2  0  0  0  0  0  0
  186.1540  177.1270  137.5640 C   0  0  0  0  0  2  0  0  0  0  0  0
  185.8500  178.2440  140.2980 C   0  0  1  0  0  3  0  0  0  0  0  0
  181.2820  175.7010  138.2810 C   0  0  0  0  0  2  0  0  0  0  0  0
  182.2900  177.9340  139.6650 C   0  0  0  0  0  3  0  0  0  0  0  0
  183.0560  176.6280  139.8960 C   0  0  0  0  0  2  0  0  0  0  0  0
  182.2410  175.4100  139.4440 C   0  0  0  0  0  2  0  0  0  0  0  0
  181.8010  176.8340  137.4010 C   0  0  0  0  0  2  0  0  0  0  0  0
  181.8940  178.1430  138.1940 C   0  0  0  0  0  2  0  0  0  0  0  0
  1 12  1  0  0  0  0
  2 16  2  0  0  0  0
  2  6  1  0  0  0  0
  3 16  1  0  0  0  0
  4 13  1  0  0  0  0
  6 18  2  0  0  0  0
  7  9  1  6  0  0  0
  7 13  1  0  0  0  0
  8 17  1  0  0  0  0
 10  8  1  0  0  0  0
 11 14  2  0  0  0  0
 11  7  1  0  0  0  0
 12 23  1  6  0  0  0
 12  2  1  0  0  0  0
 13  5  1  1  0  0  0
 14  4  1  0  0  0  0
 15 19  1  6  0  0  0
 15  1  1  0  0  0  0
 15 21  1  0  0  0  0
 16 11  1  0  0  0  0
 18 14  1  0  0  0  0
 20 10  1  0  0  0  0
 20 19  1  0  0  0  0
 21 17  1  6  0  0  0
 21  3  1  0  0  0  0
 22 25  1  0  0  0  0
 23 24  1  0  0  0  0
 25 24  1  0  0  0  0
 26 27  1  0  0  0  0
 26 22  1  0  0  0  0
 27 23  1  0  0  0  0
M  END
>  <MODEL>
3

>  <REMARK>
 VINA RESULT:      -6.8      3.535      4.994
  Name = 
  1 active torsions:
  status: ('A' for Active; 'I' for Inactive)
    1  A    between atoms: C_9  and  C_15
                            x       y       z     vdW  Elec       q    Type
                         _______ _______ _______ _____ _____    ______ ____

>  <TORSDO>
F 1

$$$$
=
 OpenBabel10262420013D

 27 31  0  0  1  0  0  0  0  0999 V2000
  180.8310  177.4470  140.0440 C   0  0  0  0  0  2  0  0  0  0  0  0
  183.1890  178.3180  139.3570 C   0  0  0  0  0  0  0  0  0  0  0  0
  182.9350  178.0490  141.9170 C   0  0  0  0  0  2  0  0  0  0  0  0
  187.2850  178.7150  140.0210 N   0  0  0  0  0  2  0  0  0  0  0  0
  188.1730  177.4450  141.8260 N   0  0  0  0  0  1  0  0  0  0  0  0
  184.0280  178.4710  138.2860 N   0  0  0  0  0  0  0  0  0  0  0  0
  185.9660  178.4840  142.0270 C   0  0  1  0  0  3  0  0  0  0  0  0
  180.2540  178.6780  144.1060 C   0  0  0  0  0  2  0  0  0  0  0  0
  185.6410  179.6970  142.8800 C   0  0  0  0  0  1  0  0  0  0  0  0
  178.9310  179.3470  143.7100 C   0  0  0  0  0  2  0  0  0  0  0  0
  185.1220  178.4780  140.7950 C   0  0  0  0  0  0  0  0  0  0  0  0
  181.7120  178.2300  139.0550 C   0  0  2  0  0  3  0  0  0  0  0  0
  187.3990  178.6230  141.4750 C   0  0  2  0  0  3  0  0  0  0  0  0
  185.9150  178.6160  139.6970 C   0  0  0  0  0  0  0  0  0  0  0  0
  180.4940  178.1780  141.3490 C   0  0  2  0  0  3  0  0  0  0  0  0
  183.7360  178.3150  140.6750 C   0  0  0  0  0  0  0  0  0  0  0  0
  181.4720  179.3350  143.4520 C   0  0  0  0  0  2  0  0  0  0  0  0
  185.3750  178.6130  138.4200 C   0  0  0  0  0  3  0  0  0  0  0  0
  179.2160  179.0130  141.1870 C   0  0  0  0  0  2  0  0  0  0  0  0
  178.9480  179.9990  142.3250 C   0  0  0  0  0  2  0  0  0  0  0  0
  181.6920  178.9170  141.9860 C   0  0  1  0  0  3  0  0  0  0  0  0
  180.4440  181.9880  137.2950 C   0  0  0  0  0  2  0  0  0  0  0  0
  181.1300  179.5160  138.4510 C   0  0  0  0  0  3  0  0  0  0  0  0
  181.1720  179.5510  136.9210 C   0  0  0  0  0  2  0  0  0  0  0  0
  180.4240  180.7690  136.3640 C   0  0  0  0  0  2  0  0  0  0  0  0
  181.6940  182.0010  138.1700 C   0  0  0  0  0  2  0  0  0  0  0  0
  181.7270  180.7790  139.0940 C   0  0  0  0  0  2  0  0  0  0  0  0
  2 16  1  0  0  0  0
  4 13  1  0  0  0  0
  6 18  1  0  0  0  0
  6  2  2  0  0  0  0
  7  9  1  1  0  0  0
 10  8  1  0  0  0  0
 11  7  1  0  0  0  0
 12 23  1  1  0  0  0
 12  2  1  0  0  0  0
 12  1  1  0  0  0  0
 13  5  1  6  0  0  0
 13  7  1  0  0  0  0
 14  4  1  0  0  0  0
 14 11  1  0  0  0  0
 15  1  1  6  0  0  0
 15 21  1  0  0  0  0
 16 11  2  0  0  0  0
 16  3  1  0  0  0  0
 17  8  1  0  0  0  0
 18 14  2  0  0  0  0
 19 15  1  0  0  0  0
 19 20  1  0  0  0  0
 20 10  1  0  0  0  0
 21  3  1  1  0  0  0
 21 17  1  0  0  0  0
 22 26  1  0  0  0  0
 23 27  1  0  0  0  0
 24 23  1  0  0  0  0
 25 24  1  0  0  0  0
 25 22  1  0  0  0  0
 26 27  1  0  0  0  0
M  END
>  <MODEL>
4

>  <REMARK>
 VINA RESULT:      -6.8      5.151      8.230
  Name = 
  1 active torsions:
  status: ('A' for Active; 'I' for Inactive)
    1  A    between atoms: C_9  and  C_15
                            x       y       z     vdW  Elec       q    Type
                         _______ _______ _______ _____ _____    ______ ____

>  <TORSDO>
F 1

$$$$
=
 OpenBabel10262420013D

 27 31  0  0  1  0  0  0  0  0999 V2000
  190.3410  179.1640  143.6220 C   0  0  0  0  0  2  0  0  0  0  0  0
  191.3090  177.8530  141.5890 C   0  0  0  0  0  0  0  0  0  0  0  0
  188.7690  178.2860  141.3740 C   0  0  0  0  0  2  0  0  0  0  0  0
  191.2460  176.7630  137.5660 N   0  0  0  0  0  2  0  0  0  0  0  0
  189.6970  177.9390  136.1950 N   0  0  0  0  0  1  0  0  0  0  0  0
  192.4810  177.5010  140.9730 N   0  0  0  0  0  0  0  0  0  0  0  0
  189.0860  177.3230  138.4830 C   0  0  1  0  0  3  0  0  0  0  0  0
  186.1570  178.2540  143.7310 C   0  0  0  0  0  2  0  0  0  0  0  0
  188.1040  176.2290  138.8650 C   0  0  0  0  0  1  0  0  0  0  0  0
  186.2960  177.8140  145.1950 C   0  0  0  0  0  2  0  0  0  0  0  0
  190.1730  177.4200  139.5030 C   0  0  0  0  0  0  0  0  0  0  0  0
  191.3900  178.1890  143.0590 C   0  0  2  0  0  3  0  0  0  0  0  0
  189.8370  176.9030  137.2030 C   0  0  2  0  0  3  0  0  0  0  0  0
  191.3650  177.0890  138.9340 C   0  0  0  0  0  0  0  0  0  0  0  0
  188.9490  178.5690  143.8610 C   0  0  2  0  0  3  0  0  0  0  0  0
  190.0940  177.8220  140.8420 C   0  0  0  0  0  0  0  0  0  0  0  0
  186.9370  177.3590  142.7640 C   0  0  0  0  0  2  0  0  0  0  0  0
  192.5420  177.1280  139.6650 C   0  0  0  0  0  3  0  0  0  0  0  0
  188.8510  177.9690  145.2710 C   0  0  0  0  0  2  0  0  0  0  0  0
  187.6140  177.1030  145.5130 C   0  0  0  0  0  2  0  0  0  0  0  0
  188.4460  177.6600  142.7180 C   0  0  1  0  0  3  0  0  0  0  0  0
  192.1980  174.8780  145.7440 C   0  0  0  0  0  2  0  0  0  0  0  0
  191.7990  177.0000  143.9400 C   0  0  0  0  0  3  0  0  0  0  0  0
  191.1110  175.6870  143.5580 C   0  0  0  0  0  2  0  0  0  0  0  0
  191.6800  174.5020  144.3490 C   0  0  0  0  0  2  0  0  0  0  0  0
  191.4530  176.0830  146.3090 C   0  0  0  0  0  2  0  0  0  0  0  0
  191.6810  177.3240  145.4390 C   0  0  0  0  0  2  0  0  0  0  0  0
  2 12  1  0  0  0  0
  4 14  1  0  0  0  0
  6  2  1  0  0  0  0
  7  9  1  1  0  0  0
  7 11  1  0  0  0  0
  8 10  1  0  0  0  0
 10 20  1  0  0  0  0
 11 16  1  0  0  0  0
 12  1  1  0  0  0  0
 12 23  1  1  0  0  0
 13  5  1  6  0  0  0
 13  4  1  0  0  0  0
 13  7  1  0  0  0  0
 14 11  2  0  0  0  0
 14 18  1  0  0  0  0
 15  1  1  6  0  0  0
 15 19  1  0  0  0  0
 16  3  1  0  0  0  0
 16  2  2  0  0  0  0
 17  8  1  0  0  0  0
 18  6  2  0  0  0  0
 19 20  1  0  0  0  0
 21  3  1  6  0  0  0
 21 17  1  0  0  0  0
 21 15  1  0  0  0  0
 22 26  1  0  0  0  0
 23 27  1  0  0  0  0
 24 23  1  0  0  0  0
 24 25  1  0  0  0  0
 25 22  1  0  0  0  0
 27 26  1  0  0  0  0
M  END
>  <MODEL>
5

>  <REMARK>
 VINA RESULT:      -6.2      2.633      7.582
  Name = 
  1 active torsions:
  status: ('A' for Active; 'I' for Inactive)
    1  A    between atoms: C_9  and  C_15
                            x       y       z     vdW  Elec       q    Type
                         _______ _______ _______ _____ _____    ______ ____

>  <TORSDO>
F 1

$$$$
=
 OpenBabel10262420013D

 27 31  0  0  1  0  0  0  0  0999 V2000
  189.4260  178.5670  139.5310 C   0  0  0  0  0  2  0  0  0  0  0  0
  187.1540  178.0120  138.3820 C   0  0  0  0  0  0  0  0  0  0  0  0
  186.8810  178.6260  140.8800 C   0  0  0  0  0  2  0  0  0  0  0  0
  183.0190  178.4210  138.0510 N   0  0  0  0  0  2  0  0  0  0  0  0
  182.0270  180.0860  139.4310 N   0  0  0  0  0  1  0  0  0  0  0  0
  186.5610  177.8400  137.1600 N   0  0  0  0  0  0  0  0  0  0  0  0
  183.8790  178.7330  140.2840 C   0  0  1  0  0  3  0  0  0  0  0  0
  188.8260  177.8980  143.7200 C   0  0  0  0  0  2  0  0  0  0  0  0
  183.7540  177.6280  141.3180 C   0  0  0  0  0  1  0  0  0  0  0  0
  190.0430  176.9620  143.7390 C   0  0  0  0  0  2  0  0  0  0  0  0
  184.9580  178.4060  139.3060 C   0  0  0  0  0  0  0  0  0  0  0  0
  188.6480  177.8010  138.4470 C   0  0  2  0  0  3  0  0  0  0  0  0
  182.6050  178.7540  139.4130 C   0  0  2  0  0  3  0  0  0  0  0  0
  184.4180  178.2360  138.0670 C   0  0  0  0  0  0  0  0  0  0  0  0
  189.3110  178.0000  140.9510 C   0  0  2  0  0  3  0  0  0  0  0  0
  186.3400  178.3110  139.5150 C   0  0  0  0  0  0  0  0  0  0  0  0
  187.6780  177.3640  142.8600 C   0  0  0  0  0  2  0  0  0  0  0  0
  185.2180  177.9510  136.9710 C   0  0  0  0  0  3  0  0  0  0  0  0
  190.3980  176.9450  141.2030 C   0  0  0  0  0  2  0  0  0  0  0  0
  190.2030  176.1160  142.4720 C   0  0  0  0  0  2  0  0  0  0  0  0
  187.8780  177.5820  141.3490 C   0  0  1  0  0  3  0  0  0  0  0  0
  189.8130  173.8050  137.2210 C   0  0  0  0  0  2  0  0  0  0  0  0
  189.0800  176.3580  138.1500 C   0  0  0  0  0  3  0  0  0  0  0  0
  190.5250  176.2360  137.6610 C   0  0  0  0  0  2  0  0  0  0  0  0
  190.9610  174.7700  137.5480 C   0  0  0  0  0  2  0  0  0  0  0  0
  188.7120  174.4980  136.4240 C   0  0  0  0  0  2  0  0  0  0  0  0
  188.0770  175.6310  137.2390 C   0  0  0  0  0  2  0  0  0  0  0  0
  2 12  1  0  0  0  0
  2 16  1  0  0  0  0
  4 14  1  0  0  0  0
  4 13  1  0  0  0  0
  6  2  2  0  0  0  0
  7  9  1  1  0  0  0
  8 10  1  0  0  0  0
 11 16  2  0  0  0  0
 11  7  1  0  0  0  0
 12 23  1  1  0  0  0
 12  1  1  0  0  0  0
 13  5  1  6  0  0  0
 13  7  1  0  0  0  0
 14 11  1  0  0  0  0
 15  1  1  6  0  0  0
 15 19  1  0  0  0  0
 15 21  1  0  0  0  0
 16  3  1  0  0  0  0
 17  8  1  0  0  0  0
 18  6  1  0  0  0  0
 18 14  2  0  0  0  0
 19 20  1  0  0  0  0
 20 10  1  0  0  0  0
 21  3  1  1  0  0  0
 21 17  1  0  0  0  0
 22 25  1  0  0  0  0
 24 23  1  0  0  0  0
 25 24  1  0  0  0  0
 26 22  1  0  0  0  0
 26 27  1  0  0  0  0
 27 23  1  0  0  0  0
M  END
>  <MODEL>
6

>  <REMARK>
 VINA RESULT:      -6.0      2.574      5.298
  Name = 
  1 active torsions:
  status: ('A' for Active; 'I' for Inactive)
    1  A    between atoms: C_9  and  C_15
                            x       y       z     vdW  Elec       q    Type
                         _______ _______ _______ _____ _____    ______ ____

>  <TORSDO>
F 1

$$$$
=
 OpenBabel10262420013D

 27 31  0  0  1  0  0  0  0  0999 V2000
  185.9540  179.3830  139.5450 C   0  0  0  0  0  2  0  0  0  0  0  0
  184.5610  178.7600  141.6570 C   0  0  0  0  0  0  0  0  0  0  0  0
  187.1080  178.7550  142.1080 C   0  0  0  0  0  2  0  0  0  0  0  0
  184.0470  178.6030  145.7910 N   0  0  0  0  0  2  0  0  0  0  0  0
  185.6800  179.7500  147.0850 N   0  0  0  0  0  1  0  0  0  0  0  0
  183.2930  178.7760  142.1740 N   0  0  0  0  0  0  0  0  0  0  0  0
  186.3470  178.5370  145.0670 C   0  0  1  0  0  3  0  0  0  0  0  0
  189.8510  177.7170  140.1650 C   0  0  0  0  0  2  0  0  0  0  0  0
  187.1100  177.2240  145.0440 C   0  0  0  0  0  1  0  0  0  0  0  0
  189.7520  176.9950  138.8140 C   0  0  0  0  0  2  0  0  0  0  0  0
  185.3970  178.6020  143.9170 C   0  0  0  0  0  0  0  0  0  0  0  0
  184.6800  178.7680  140.1520 C   0  0  2  0  0  3  0  0  0  0  0  0
  185.4170  178.5580  146.2980 C   0  0  2  0  0  3  0  0  0  0  0  0
  184.1170  178.6320  144.3820 C   0  0  0  0  0  0  0  0  0  0  0  0
  187.2080  178.5030  139.6130 C   0  0  2  0  0  3  0  0  0  0  0  0
  185.6740  178.6730  142.5460 C   0  0  0  0  0  0  0  0  0  0  0  0
  188.8220  177.2200  141.1830 C   0  0  0  0  0  2  0  0  0  0  0  0
  183.0420  178.7220  143.5110 C   0  0  0  0  0  3  0  0  0  0  0  0
  187.3010  177.5960  138.3780 C   0  0  0  0  0  2  0  0  0  0  0  0
  188.3480  176.4860  138.4770 C   0  0  0  0  0  2  0  0  0  0  0  0
  187.4100  177.7960  140.9710 C   0  0  1  0  0  3  0  0  0  0  0  0
  182.7170  175.3910  138.2630 C   0  0  0  0  0  2  0  0  0  0  0  0
  184.1120  177.5090  139.4830 C   0  0  0  0  0  3  0  0  0  0  0  0
  183.8920  177.6600  137.9750 C   0  0  0  0  0  2  0  0  0  0  0  0
  183.4920  176.3280  137.3270 C   0  0  0  0  0  2  0  0  0  0  0  0
  181.9290  176.1740  139.3100 C   0  0  0  0  0  2  0  0  0  0  0  0
  182.8710  176.9740  140.2170 C   0  0  0  0  0  2  0  0  0  0  0  0
  1 15  1  0  0  0  0
  1 12  1  0  0  0  0
  2  6  2  0  0  0  0
  2 16  1  0  0  0  0
  3 16  1  0  0  0  0
  4 13  1  0  0  0  0
  6 18  1  0  0  0  0
  7  9  1  6  0  0  0
  7 13  1  0  0  0  0
  8 17  1  0  0  0  0
 10  8  1  0  0  0  0
 11 14  1  0  0  0  0
 11  7  1  0  0  0  0
 12 23  1  1  0  0  0
 12  2  1  0  0  0  0
 13  5  1  1  0  0  0
 14  4  1  0  0  0  0
 15 19  1  6  0  0  0
 15 21  1  0  0  0  0
 16 11  2  0  0  0  0
 18 14  2  0  0  0  0
 19 20  1  0  0  0  0
 20 10  1  0  0  0  0
 21 17  1  1  0  0  0
 21  3  1  0  0  0  0
 22 26  1  0  0  0  0
 23 27  1  0  0  0  0
 24 23  1  0  0  0  0
 25 24  1  0  0  0  0
 25 22  1  0  0  0  0
 26 27  1  0  0  0  0
M  END
>  <MODEL>
7

>  <REMARK>
 VINA RESULT:      -6.0      2.923      4.177
  Name = 
  1 active torsions:
  status: ('A' for Active; 'I' for Inactive)
    1  A    between atoms: C_9  and  C_15
                            x       y       z     vdW  Elec       q    Type
                         _______ _______ _______ _____ _____    ______ ____

>  <TORSDO>
F 1

$$$$
=
 OpenBabel10262420013D

 27 31  0  0  1  0  0  0  0  0999 V2000
  185.7430  177.3340  135.5190 C   0  0  0  0  0  2  0  0  0  0  0  0
  183.7420  176.6060  137.0200 C   0  0  0  0  0  0  0  0  0  0  0  0
  185.3220  178.2720  138.2100 C   0  0  0  0  0  2  0  0  0  0  0  0
  181.0250  177.3150  140.1020 N   0  0  0  0  0  2  0  0  0  0  0  0
  181.0250  179.5180  141.0000 N   0  0  0  0  0  1  0  0  0  0  0  0
  182.5180  175.9910  136.9880 N   0  0  0  0  0  0  0  0  0  0  0  0
  183.1340  178.4630  140.3450 C   0  0  1  0  0  3  0  0  0  0  0  0
  188.8220  178.6280  138.2010 C   0  0  0  0  0  2  0  0  0  0  0  0
  184.1890  177.9410  141.3040 C   0  0  0  0  0  1  0  0  0  0  0  0
  189.8050  177.6570  137.5330 C   0  0  0  0  0  2  0  0  0  0  0  0
  183.0910  177.6180  139.1140 C   0  0  0  0  0  0  0  0  0  0  0  0
  184.6990  176.2700  135.9020 C   0  0  2  0  0  3  0  0  0  0  0  0
  181.7380  178.2530  140.9670 C   0  0  2  0  0  3  0  0  0  0  0  0
  181.8850  176.9910  139.0310 C   0  0  0  0  0  0  0  0  0  0  0  0
  186.9390  177.4580  136.4710 C   0  0  2  0  0  3  0  0  0  0  0  0
  184.0620  177.4620  138.1160 C   0  0  0  0  0  0  0  0  0  0  0  0
  187.6720  177.9130  138.9150 C   0  0  0  0  0  2  0  0  0  0  0  0
  181.5800  176.1670  137.9590 C   0  0  0  0  0  3  0  0  0  0  0  0
  188.0630  176.4980  136.0570 C   0  0  0  0  0  2  0  0  0  0  0  0
  189.1760  176.3320  137.0920 C   0  0  0  0  0  2  0  0  0  0  0  0
  186.5590  177.4260  137.9680 C   0  0  1  0  0  3  0  0  0  0  0  0
  185.6330  172.0370  136.0930 C   0  0  0  0  0  2  0  0  0  0  0  0
  185.1480  174.8010  135.8970 C   0  0  0  0  0  3  0  0  0  0  0  0
  184.4180  173.9400  134.8630 C   0  0  0  0  0  2  0  0  0  0  0  0
  185.0220  172.5320  134.7760 C   0  0  0  0  0  2  0  0  0  0  0  0
  184.9430  172.6660  137.3000 C   0  0  0  0  0  2  0  0  0  0  0  0
  185.1310  174.1870  137.3070 C   0  0  0  0  0  2  0  0  0  0  0  0
  1 12  1  0  0  0  0
  2 16  1  0  0  0  0
  4 13  1  0  0  0  0
  6  2  2  0  0  0  0
  6 18  1  0  0  0  0
  7 13  1  0  0  0  0
  7  9  1  1  0  0  0
  8 17  1  0  0  0  0
 10  8  1  0  0  0  0
 11  7  1  0  0  0  0
 12 23  1  1  0  0  0
 12  2  1  0  0  0  0
 13  5  1  6  0  0  0
 14 11  1  0  0  0  0
 14  4  1  0  0  0  0
 15  1  1  6  0  0  0
 15 21  1  0  0  0  0
 16  3  1  0  0  0  0
 16 11  2  0  0  0  0
 18 14  2  0  0  0  0
 19 15  1  0  0  0  0
 19 20  1  0  0  0  0
 20 10  1  0  0  0  0
 21  3  1  6  0  0  0
 21 17  1  0  0  0  0
 22 26  1  0  0  0  0
 23 27  1  0  0  0  0
 24 23  1  0  0  0  0
 25 24  1  0  0  0  0
 25 22  1  0  0  0  0
 26 27  1  0  0  0  0
M  END
>  <MODEL>
8

>  <REMARK>
 VINA RESULT:      -5.9      3.519      5.347
  Name = 
  1 active torsions:
  status: ('A' for Active; 'I' for Inactive)
    1  A    between atoms: C_9  and  C_15
                            x       y       z     vdW  Elec       q    Type
                         _______ _______ _______ _____ _____    ______ ____

>  <TORSDO>
F 1

$$$$
=
 OpenBabel10262420013D

 27 31  0  0  1  0  0  0  0  0999 V2000
  183.1260  178.2870  137.9070 C   0  0  0  0  0  2  0  0  0  0  0  0
  185.6990  177.9810  138.1860 C   0  0  0  0  0  0  0  0  0  0  0  0
  184.6250  176.1150  136.7530 C   0  0  0  0  0  2  0  0  0  0  0  0
  189.3920  176.5980  136.8350 N   0  0  0  0  0  2  0  0  0  0  0  0
  189.4310  175.7400  134.6160 N   0  0  0  0  0  1  0  0  0  0  0  0
  186.8400  178.6280  138.5800 N   0  0  0  0  0  0  0  0  0  0  0  0
  187.5000  175.3170  136.0590 C   0  0  1  0  0  3  0  0  0  0  0  0
  181.5650  174.4000  137.0120 C   0  0  0  0  0  2  0  0  0  0  0  0
  187.1590  173.9830  136.6990 C   0  0  0  0  0  1  0  0  0  0  0  0
  180.5740  174.5350  138.1770 C   0  0  0  0  0  2  0  0  0  0  0  0
  187.0910  176.4390  136.9550 C   0  0  0  0  0  0  0  0  0  0  0  0
  184.3970  178.4990  138.7490 C   0  0  2  0  0  3  0  0  0  0  0  0
  189.0340  175.4630  135.9860 C   0  0  2  0  0  3  0  0  0  0  0  0
  188.1940  177.1230  137.3660 C   0  0  0  0  0  0  0  0  0  0  0  0
  182.5440  176.8680  137.9370 C   0  0  2  0  0  3  0  0  0  0  0  0
  185.8040  176.8400  137.3360 C   0  0  0  0  0  0  0  0  0  0  0  0
  183.0240  174.3640  137.4730 C   0  0  0  0  0  2  0  0  0  0  0  0
  188.0820  178.2340  138.1870 C   0  0  0  0  0  3  0  0  0  0  0  0
  181.5550  176.7120  139.1000 C   0  0  0  0  0  2  0  0  0  0  0  0
  181.1360  175.2720  139.3960 C   0  0  0  0  0  2  0  0  0  0  0  0
  183.6030  175.7500  137.8130 C   0  0  1  0  0  3  0  0  0  0  0  0
  184.1820  178.4130  143.0820 C   0  0  0  0  0  2  0  0  0  0  0  0
  184.2750  178.3350  140.2710 C   0  0  0  0  0  3  0  0  0  0  0  0
  183.0180  178.9800  140.8600 C   0  0  0  0  0  2  0  0  0  0  0  0
  182.8540  178.6390  142.3470 C   0  0  0  0  0  2  0  0  0  0  0  0
  185.3160  179.2110  142.4440 C   0  0  0  0  0  2  0  0  0  0  0  0
  185.5620  178.7540  141.0020 C   0  0  0  0  0  2  0  0  0  0  0  0
  1 12  1  0  0  0  0
  2  6  1  0  0  0  0
  2 12  1  0  0  0  0
  3 16  1  0  0  0  0
  4 14  1  0  0  0  0
  7  9  1  1  0  0  0
  7 11  1  0  0  0  0
  8 17  1  0  0  0  0
  8 10  1  0  0  0  0
 10 20  1  0  0  0  0
 11 16  1  0  0  0  0
 11 14  2  0  0  0  0
 12 23  1  1  0  0  0
 13  5  1  6  0  0  0
 13  7  1  0  0  0  0
 13  4  1  0  0  0  0
 14 18  1  0  0  0  0
 15  1  1  1  0  0  0
 15 19  1  0  0  0  0
 16  2  2  0  0  0  0
 17 21  1  0  0  0  0
 18  6  2  0  0  0  0
 19 20  1  0  0  0  0
 21  3  1  6  0  0  0
 21 15  1  0  0  0  0
 23 24  1  0  0  0  0
 23 27  1  0  0  0  0
 24 25  1  0  0  0  0
 25 22  1  0  0  0  0
 26 22  1  0  0  0  0
 27 26  1  0  0  0  0
M  END
>  <MODEL>
9

>  <REMARK>
 VINA RESULT:      -5.7      3.326      7.214
  Name = 
  1 active torsions:
  status: ('A' for Active; 'I' for Inactive)
    1  A    between atoms: C_9  and  C_15
                            x       y       z     vdW  Elec       q    Type
                         _______ _______ _______ _____ _____    ______ ____

>  <TORSDO>
F 1

$$$$
