=
 OpenBabel10262420463D

 28 31  0  0  1  0  0  0  0  0999 V2000
  188.0660  177.8730  139.1380 C   0  0  1  0  0  3  0  0  0  0  0  0
  184.5270  178.8290  139.1300 C   0  0  0  0  0  2  0  0  0  0  0  0
  186.6070  178.1290  138.8950 C   0  0  0  0  0  0  0  0  0  0  0  0
  184.6880  177.9840  137.9100 C   0  0  0  0  0  3  0  0  0  0  0  0
  185.8700  178.8350  139.6850 N   0  0  0  0  0  0  0  0  0  0  0  0
  185.9080  177.5850  137.7890 N   0  0  0  0  0  0  0  0  0  0  0  0
  188.9300  178.4900  138.0760 C   0  0  0  0  0  0  0  0  0  0  0  0
  189.8670  177.7020  137.3320 N   0  0  0  0  0  2  0  0  0  0  0  0
  188.9100  179.7380  137.8980 O   0  0  0  0  0  0  0  0  0  0  0  0
  189.9150  176.2710  137.2880 C   0  0  0  0  0  0  0  0  0  0  0  0
  189.5590  174.1430  136.5530 N   0  0  0  0  0  0  0  0  0  0  0  0
  191.2090  175.3570  138.1060 S   0  0  0  0  0  0  0  0  0  0  0  0
  188.1890  176.0260  135.5120 C   0  0  0  0  0  1  0  0  0  0  0  0
  189.1860  175.5100  136.4980 C   0  0  0  0  0  0  0  0  0  0  0  0
  188.8760  173.1040  135.8000 C   0  0  0  0  0  1  0  0  0  0  0  0
  190.6450  173.8260  137.3840 N   0  0  0  0  0  2  0  0  0  0  0  0
  188.5060  178.3380  140.5290 C   0  0  0  0  0  2  0  0  0  0  0  0
  186.6140  177.8630  142.8550 C   0  0  0  0  0  3  0  0  0  0  0  0
  188.6230  177.2760  144.0840 C   0  0  0  0  0  0  0  0  0  0  0  0
  188.6480  177.1860  141.5320 C   0  0  2  0  0  3  0  0  0  0  0  0
  186.6200  177.9420  145.2740 C   0  0  0  0  0  0  0  0  0  0  0  0
  187.9620  177.4780  142.8520 C   0  0  0  0  0  0  0  0  0  0  0  0
  190.3720  175.9530  142.9240 C   0  0  0  0  0  2  0  0  0  0  0  0
  187.9550  177.5300  145.2850 C   0  0  0  0  0  3  0  0  0  0  0  0
  190.0490  176.8220  144.1310 C   0  0  0  0  0  2  0  0  0  0  0  0
  185.9140  178.2080  146.5530 C   0  0  0  0  0  1  0  0  0  0  0  0
  185.9470  178.0970  144.0600 C   0  0  0  0  0  3  0  0  0  0  0  0
  190.1170  176.7540  141.6560 C   0  0  0  0  0  2  0  0  0  0  0  0
  1 17  1  1  0  0  0
  2  5  1  0  0  0  0
  3  1  1  0  0  0  0
  3  5  2  0  0  0  0
  4  2  1  0  0  0  0
  6  4  2  0  0  0  0
  6  3  1  0  0  0  0
  7  1  1  0  0  0  0
  8  7  1  0  0  0  0
  9  7  2  0  0  0  0
 10  8  1  0  0  0  0
 10 12  1  0  0  0  0
 11 16  1  0  0  0  0
 13 14  1  0  0  0  0
 14 11  1  0  0  0  0
 14 10  2  0  0  0  0
 15 11  1  0  0  0  0
 16 12  1  0  0  0  0
 18 27  1  0  0  0  0
 19 25  1  0  0  0  0
 19 24  2  0  0  0  0
 20 17  1  6  0  0  0
 20 28  1  0  0  0  0
 20 22  1  0  0  0  0
 21 24  1  0  0  0  0
 21 26  1  0  0  0  0
 22 18  2  0  0  0  0
 22 19  1  0  0  0  0
 23 25  1  0  0  0  0
 27 21  2  0  0  0  0
 28 23  1  0  0  0  0
M  END
>  <MODEL>
1

>  <REMARK>
 VINA RESULT:      -8.5      0.000      0.000
  Name = 
  5 active torsions:
  status: ('A' for Active; 'I' for Inactive)
    1  A    between atoms: C_1  and  C_27
    2  A    between atoms: N_2  and  C_3
    3  A    between atoms: C_10  and  C_17
    4  A    between atoms: C_16  and  C_27
    5  A    between atoms: C_17  and  C_27
                            x       y       z     vdW  Elec       q    Type
                         _______ _______ _______ _____ _____    ______ ____

>  <TORSDO>
F 5

$$$$
=
 OpenBabel10262420463D

 28 31  0  0  1  0  0  0  0  0999 V2000
  184.7850  178.5030  140.4030 C   0  0  1  0  0  3  0  0  0  0  0  0
  181.2480  178.3120  141.3480 C   0  0  0  0  0  2  0  0  0  0  0  0
  183.4260  178.4980  141.0400 C   0  0  0  0  0  0  0  0  0  0  0  0
  181.9400  178.7920  142.5820 C   0  0  0  0  0  3  0  0  0  0  0  0
  182.3490  178.1650  140.4110 N   0  0  0  0  0  0  0  0  0  0  0  0
  183.2090  178.8950  142.3830 N   0  0  0  0  0  0  0  0  0  0  0  0
  184.7990  179.2720  139.1130 C   0  0  0  0  0  0  0  0  0  0  0  0
  185.3670  178.7120  137.9220 N   0  0  0  0  0  2  0  0  0  0  0  0
  184.3980  180.4660  139.0890 O   0  0  0  0  0  0  0  0  0  0  0  0
  185.7200  177.3370  137.7250 C   0  0  0  0  0  0  0  0  0  0  0  0
  185.5230  175.1460  137.1260 N   0  0  0  0  0  0  0  0  0  0  0  0
  187.4190  176.8240  137.5680 S   0  0  0  0  0  0  0  0  0  0  0  0
  183.4050  176.5640  137.2350 C   0  0  0  0  0  1  0  0  0  0  0  0
  184.8750  176.3720  137.4230 C   0  0  0  0  0  0  0  0  0  0  0  0
  184.8020  173.9270  136.8030 C   0  0  0  0  0  1  0  0  0  0  0  0
  186.9270  175.1600  137.1560 N   0  0  0  0  0  2  0  0  0  0  0  0
  185.8620  179.0300  141.3560 C   0  0  0  0  0  2  0  0  0  0  0  0
  186.1580  177.6760  144.0570 C   0  0  0  0  0  3  0  0  0  0  0  0
  188.5420  177.9130  143.6690 C   0  0  0  0  0  0  0  0  0  0  0  0
  186.9390  177.9870  141.6820 C   0  0  2  0  0  3  0  0  0  0  0  0
  187.7010  177.6120  145.9210 C   0  0  0  0  0  0  0  0  0  0  0  0
  187.2220  177.8900  143.1680 C   0  0  0  0  0  0  0  0  0  0  0  0
  189.4110  177.5100  141.3790 C   0  0  0  0  0  2  0  0  0  0  0  0
  188.7710  177.7950  145.0420 C   0  0  0  0  0  3  0  0  0  0  0  0
  189.7130  178.0940  142.7520 C   0  0  0  0  0  2  0  0  0  0  0  0
  187.9490  177.4850  147.3790 C   0  0  0  0  0  1  0  0  0  0  0  0
  186.3960  177.5400  145.4270 C   0  0  0  0  0  3  0  0  0  0  0  0
  188.1840  178.2020  140.8070 C   0  0  0  0  0  2  0  0  0  0  0  0
  1  3  1  0  0  0  0
  1 17  1  1  0  0  0
  2  4  1  0  0  0  0
  3  6  1  0  0  0  0
  5  3  2  0  0  0  0
  5  2  1  0  0  0  0
  6  4  2  0  0  0  0
  7  1  1  0  0  0  0
  8  7  1  0  0  0  0
  9  7  2  0  0  0  0
 10  8  1  0  0  0  0
 11 16  1  0  0  0  0
 11 14  1  0  0  0  0
 12 10  1  0  0  0  0
 13 14  1  0  0  0  0
 14 10  2  0  0  0  0
 15 11  1  0  0  0  0
 16 12  1  0  0  0  0
 18 27  1  0  0  0  0
 19 24  2  0  0  0  0
 20 17  1  1  0  0  0
 20 22  1  0  0  0  0
 21 26  1  0  0  0  0
 22 19  1  0  0  0  0
 22 18  2  0  0  0  0
 23 25  1  0  0  0  0
 24 21  1  0  0  0  0
 25 19  1  0  0  0  0
 27 21  2  0  0  0  0
 28 23  1  0  0  0  0
 28 20  1  0  0  0  0
M  END
>  <MODEL>
2

>  <REMARK>
 VINA RESULT:      -7.7      2.538      3.557
  Name = 
  5 active torsions:
  status: ('A' for Active; 'I' for Inactive)
    1  A    between atoms: C_1  and  C_27
    2  A    between atoms: N_2  and  C_3
    3  A    between atoms: C_10  and  C_17
    4  A    between atoms: C_16  and  C_27
    5  A    between atoms: C_17  and  C_27
                            x       y       z     vdW  Elec       q    Type
                         _______ _______ _______ _____ _____    ______ ____

>  <TORSDO>
F 5

$$$$
=
 OpenBabel10262420463D

 28 31  0  0  1  0  0  0  0  0999 V2000
  184.5340  178.5440  140.4510 C   0  0  1  0  0  3  0  0  0  0  0  0
  181.1560  178.6660  141.8700 C   0  0  0  0  0  2  0  0  0  0  0  0
  183.2810  178.6250  141.2730 C   0  0  0  0  0  0  0  0  0  0  0  0
  182.0600  178.9070  143.0340 C   0  0  0  0  0  3  0  0  0  0  0  0
  182.0970  178.5020  140.7740 N   0  0  0  0  0  0  0  0  0  0  0  0
  183.2950  178.8800  142.6670 N   0  0  0  0  0  0  0  0  0  0  0  0
  184.3910  179.2510  139.1340 C   0  0  0  0  0  0  0  0  0  0  0  0
  184.4750  178.5360  137.8950 N   0  0  0  0  0  2  0  0  0  0  0  0
  184.2950  180.5080  139.1030 O   0  0  0  0  0  0  0  0  0  0  0  0
  184.4240  177.1120  137.7410 C   0  0  0  0  0  0  0  0  0  0  0  0
  185.1440  174.9610  137.5210 N   0  0  0  0  0  0  0  0  0  0  0  0
  182.9920  176.1730  138.2340 S   0  0  0  0  0  0  0  0  0  0  0  0
  186.8450  176.8390  137.2330 C   0  0  0  0  0  1  0  0  0  0  0  0
  185.4530  176.3430  137.4480 C   0  0  0  0  0  0  0  0  0  0  0  0
  186.1040  173.9170  137.2040 C   0  0  0  0  0  1  0  0  0  0  0  0
  183.8390  174.6340  137.9240 N   0  0  0  0  0  2  0  0  0  0  0  0
  185.7540  179.0690  141.2140 C   0  0  0  0  0  2  0  0  0  0  0  0
  186.2080  177.6600  143.8650 C   0  0  0  0  0  3  0  0  0  0  0  0
  188.5640  177.8490  143.3120 C   0  0  0  0  0  0  0  0  0  0  0  0
  186.8270  177.9960  141.4460 C   0  0  2  0  0  3  0  0  0  0  0  0
  187.8760  177.5270  145.6130 C   0  0  0  0  0  0  0  0  0  0  0  0
  187.2110  177.8660  142.9070 C   0  0  0  0  0  0  0  0  0  0  0  0
  189.2590  177.4680  140.9610 C   0  0  0  0  0  2  0  0  0  0  0  0
  188.8860  177.7010  144.6640 C   0  0  0  0  0  3  0  0  0  0  0  0
  189.6710  178.0200  142.3180 C   0  0  0  0  0  2  0  0  0  0  0  0
  188.2240  177.3680  147.0480 C   0  0  0  0  0  1  0  0  0  0  0  0
  186.5390  177.4940  145.2120 C   0  0  0  0  0  3  0  0  0  0  0  0
  188.0110  178.1980  140.4880 C   0  0  0  0  0  2  0  0  0  0  0  0
  1 17  1  1  0  0  0
  1  3  1  0  0  0  0
  2  4  1  0  0  0  0
  3  6  1  0  0  0  0
  5  3  2  0  0  0  0
  5  2  1  0  0  0  0
  6  4  2  0  0  0  0
  7  1  1  0  0  0  0
  8  7  1  0  0  0  0
  9  7  2  0  0  0  0
 10  8  1  0  0  0  0
 10 12  1  0  0  0  0
 11 16  1  0  0  0  0
 13 14  1  0  0  0  0
 14 11  1  0  0  0  0
 14 10  2  0  0  0  0
 15 11  1  0  0  0  0
 16 12  1  0  0  0  0
 18 27  1  0  0  0  0
 19 24  2  0  0  0  0
 20 17  1  1  0  0  0
 20 22  1  0  0  0  0
 21 26  1  0  0  0  0
 22 19  1  0  0  0  0
 22 18  2  0  0  0  0
 23 25  1  0  0  0  0
 24 21  1  0  0  0  0
 25 19  1  0  0  0  0
 27 21  2  0  0  0  0
 28 23  1  0  0  0  0
 28 20  1  0  0  0  0
M  END
>  <MODEL>
3

>  <REMARK>
 VINA RESULT:      -7.6      2.959      4.027
  Name = 
  5 active torsions:
  status: ('A' for Active; 'I' for Inactive)
    1  A    between atoms: C_1  and  C_27
    2  A    between atoms: N_2  and  C_3
    3  A    between atoms: C_10  and  C_17
    4  A    between atoms: C_16  and  C_27
    5  A    between atoms: C_17  and  C_27
                            x       y       z     vdW  Elec       q    Type
                         _______ _______ _______ _____ _____    ______ ____

>  <TORSDO>
F 5

$$$$
=
 OpenBabel10262420463D

 28 31  0  0  1  0  0  0  0  0999 V2000
  187.8040  177.9880  138.7220 C   0  0  1  0  0  3  0  0  0  0  0  0
  184.3250  178.3310  137.6170 C   0  0  0  0  0  2  0  0  0  0  0  0
  186.3420  178.2560  138.5100 C   0  0  0  0  0  0  0  0  0  0  0  0
  184.3750  179.0520  138.9240 C   0  0  0  0  0  3  0  0  0  0  0  0
  185.6920  177.8620  137.4670 N   0  0  0  0  0  0  0  0  0  0  0  0
  185.5600  178.9980  139.4300 N   0  0  0  0  0  0  0  0  0  0  0  0
  188.6450  178.5550  137.6140 C   0  0  0  0  0  0  0  0  0  0  0  0
  189.1180  177.7280  136.5440 N   0  0  0  0  0  2  0  0  0  0  0  0
  189.0310  179.7540  137.6700 O   0  0  0  0  0  0  0  0  0  0  0  0
  188.6590  176.4050  136.2380 C   0  0  0  0  0  0  0  0  0  0  0  0
  188.3780  174.1490  136.4060 N   0  0  0  0  0  0  0  0  0  0  0  0
  187.1670  176.1310  135.3030 S   0  0  0  0  0  0  0  0  0  0  0  0
  190.2200  175.2440  137.7900 C   0  0  0  0  0  1  0  0  0  0  0  0
  189.1290  175.2950  136.7710 C   0  0  0  0  0  0  0  0  0  0  0  0
  188.7240  172.8060  136.8370 C   0  0  0  0  0  1  0  0  0  0  0  0
  187.2570  174.3720  135.5900 N   0  0  0  0  0  2  0  0  0  0  0  0
  188.2890  178.4970  140.0820 C   0  0  0  0  0  2  0  0  0  0  0  0
  186.6000  177.7850  142.5030 C   0  0  0  0  0  3  0  0  0  0  0  0
  188.7300  177.4420  143.6140 C   0  0  0  0  0  0  0  0  0  0  0  0
  188.6250  177.3660  141.0630 C   0  0  2  0  0  3  0  0  0  0  0  0
  186.7300  177.8530  144.9180 C   0  0  0  0  0  0  0  0  0  0  0  0
  187.9820  177.5670  142.4220 C   0  0  0  0  0  0  0  0  0  0  0  0
  190.5600  176.3460  142.3450 C   0  0  0  0  0  2  0  0  0  0  0  0
  188.1030  177.6060  144.8520 C   0  0  0  0  0  3  0  0  0  0  0  0
  190.2010  177.1640  143.5780 C   0  0  0  0  0  2  0  0  0  0  0  0
  186.0680  178.0260  146.2360 C   0  0  0  0  0  1  0  0  0  0  0  0
  185.9770  177.9310  143.7450 C   0  0  0  0  0  3  0  0  0  0  0  0
  190.1400  177.1160  141.1020 C   0  0  0  0  0  2  0  0  0  0  0  0
  1 17  1  1  0  0  0
  2  4  1  0  0  0  0
  3  1  1  0  0  0  0
  3  6  1  0  0  0  0
  4  6  2  0  0  0  0
  5  2  1  0  0  0  0
  5  3  2  0  0  0  0
  7  9  2  0  0  0  0
  7  1  1  0  0  0  0
  8  7  1  0  0  0  0
 10  8  1  0  0  0  0
 10 14  2  0  0  0  0
 11 14  1  0  0  0  0
 11 15  1  0  0  0  0
 12 16  1  0  0  0  0
 12 10  1  0  0  0  0
 14 13  1  0  0  0  0
 16 11  1  0  0  0  0
 18 27  1  0  0  0  0
 19 24  2  0  0  0  0
 20 17  1  6  0  0  0
 20 28  1  0  0  0  0
 20 22  1  0  0  0  0
 21 26  1  0  0  0  0
 22 18  2  0  0  0  0
 22 19  1  0  0  0  0
 23 25  1  0  0  0  0
 24 21  1  0  0  0  0
 25 19  1  0  0  0  0
 27 21  2  0  0  0  0
 28 23  1  0  0  0  0
M  END
>  <MODEL>
4

>  <REMARK>
 VINA RESULT:      -7.4      1.227      1.646
  Name = 
  5 active torsions:
  status: ('A' for Active; 'I' for Inactive)
    1  A    between atoms: C_1  and  C_27
    2  A    between atoms: N_2  and  C_3
    3  A    between atoms: C_10  and  C_17
    4  A    between atoms: C_16  and  C_27
    5  A    between atoms: C_17  and  C_27
                            x       y       z     vdW  Elec       q    Type
                         _______ _______ _______ _____ _____    ______ ____

>  <TORSDO>
F 5

$$$$
=
 OpenBabel10262420463D

 28 31  0  0  1  0  0  0  0  0999 V2000
  185.6850  177.8750  142.0320 C   0  0  1  0  0  3  0  0  0  0  0  0
  182.2760  178.2450  140.7360 C   0  0  0  0  0  2  0  0  0  0  0  0
  184.2270  178.1020  141.7580 C   0  0  0  0  0  0  0  0  0  0  0  0
  182.1880  178.7010  142.1560 C   0  0  0  0  0  3  0  0  0  0  0  0
  183.6780  177.8840  140.6110 N   0  0  0  0  0  0  0  0  0  0  0  0
  183.3350  178.6100  142.7360 N   0  0  0  0  0  0  0  0  0  0  0  0
  186.4880  179.1340  141.8820 C   0  0  0  0  0  0  0  0  0  0  0  0
  187.7730  179.1230  141.2470 N   0  0  0  0  0  2  0  0  0  0  0  0
  186.0810  180.2050  142.4070 O   0  0  0  0  0  0  0  0  0  0  0  0
  188.3160  178.0510  140.4660 C   0  0  0  0  0  0  0  0  0  0  0  0
  188.7200  176.7110  138.6670 N   0  0  0  0  0  0  0  0  0  0  0  0
  189.8500  177.2590  140.9100 S   0  0  0  0  0  0  0  0  0  0  0  0
  186.7780  178.3580  138.5350 C   0  0  0  0  0  1  0  0  0  0  0  0
  187.8950  177.6940  139.2700 C   0  0  0  0  0  0  0  0  0  0  0  0
  188.4380  176.1300  137.3650 C   0  0  0  0  0  1  0  0  0  0  0  0
  189.8510  176.3130  139.3980 N   0  0  0  0  0  2  0  0  0  0  0  0
  185.9180  177.2470  143.4100 C   0  0  0  0  0  2  0  0  0  0  0  0
  188.8150  177.4260  144.2990 C   0  0  0  0  0  3  0  0  0  0  0  0
  187.8840  177.8120  146.5080 C   0  0  0  0  0  0  0  0  0  0  0  0
  186.4380  178.2500  144.4480 C   0  0  2  0  0  3  0  0  0  0  0  0
  190.1610  177.0180  146.2690 C   0  0  0  0  0  0  0  0  0  0  0  0
  187.7260  177.7900  145.1040 C   0  0  0  0  0  0  0  0  0  0  0  0
  185.8760  179.2570  146.7050 C   0  0  0  0  0  2  0  0  0  0  0  0
  189.0920  177.4070  147.0800 C   0  0  0  0  0  3  0  0  0  0  0  0
  186.7630  178.2360  147.4050 C   0  0  0  0  0  2  0  0  0  0  0  0
  191.4430  176.5900  146.8830 C   0  0  0  0  0  1  0  0  0  0  0  0
  190.0260  177.0390  144.8790 C   0  0  0  0  0  3  0  0  0  0  0  0
  185.3230  178.6400  145.4300 C   0  0  0  0  0  2  0  0  0  0  0  0
  1 17  1  1  0  0  0
  2  4  1  0  0  0  0
  3  1  1  0  0  0  0
  3  6  1  0  0  0  0
  4  6  2  0  0  0  0
  5  2  1  0  0  0  0
  5  3  2  0  0  0  0
  7  1  1  0  0  0  0
  7  9  2  0  0  0  0
  8  7  1  0  0  0  0
 10 12  1  0  0  0  0
 10  8  1  0  0  0  0
 11 14  1  0  0  0  0
 11 16  1  0  0  0  0
 13 14  1  0  0  0  0
 14 10  2  0  0  0  0
 15 11  1  0  0  0  0
 16 12  1  0  0  0  0
 18 27  2  0  0  0  0
 18 22  1  0  0  0  0
 19 24  1  0  0  0  0
 19 25  1  0  0  0  0
 20 17  1  6  0  0  0
 20 22  1  0  0  0  0
 20 28  1  0  0  0  0
 21 26  1  0  0  0  0
 21 24  2  0  0  0  0
 22 19  2  0  0  0  0
 23 25  1  0  0  0  0
 27 21  1  0  0  0  0
 28 23  1  0  0  0  0
M  END
>  <MODEL>
5

>  <REMARK>
 VINA RESULT:      -7.4      2.265      4.205
  Name = 
  5 active torsions:
  status: ('A' for Active; 'I' for Inactive)
    1  A    between atoms: C_1  and  C_27
    2  A    between atoms: N_2  and  C_3
    3  A    between atoms: C_10  and  C_17
    4  A    between atoms: C_16  and  C_27
    5  A    between atoms: C_17  and  C_27
                            x       y       z     vdW  Elec       q    Type
                         _______ _______ _______ _____ _____    ______ ____

>  <TORSDO>
F 5

$$$$
=
 OpenBabel10262420463D

 28 31  0  0  1  0  0  0  0  0999 V2000
  183.4180  177.9960  139.9740 C   0  0  1  0  0  3  0  0  0  0  0  0
  185.2980  177.5410  136.8600 C   0  0  0  0  0  2  0  0  0  0  0  0
  184.3770  177.9690  138.8200 C   0  0  0  0  0  0  0  0  0  0  0  0
  186.2090  178.3400  137.7340 C   0  0  0  0  0  3  0  0  0  0  0  0
  184.1300  177.3650  137.7060 N   0  0  0  0  0  0  0  0  0  0  0  0
  185.6550  178.5790  138.8730 N   0  0  0  0  0  0  0  0  0  0  0  0
  182.1500  177.2500  139.6700 C   0  0  0  0  0  0  0  0  0  0  0  0
  180.9240  177.9460  139.4140 N   0  0  0  0  0  2  0  0  0  0  0  0
  182.1310  175.9920  139.7370 O   0  0  0  0  0  0  0  0  0  0  0  0
  180.7920  179.3470  139.1460 C   0  0  0  0  0  0  0  0  0  0  0  0
  180.5790  181.2850  137.9650 N   0  0  0  0  0  0  0  0  0  0  0  0
  180.1290  180.4700  140.3600 S   0  0  0  0  0  0  0  0  0  0  0  0
  181.2280  179.1660  136.7020 C   0  0  0  0  0  1  0  0  0  0  0  0
  180.9230  179.9100  137.9610 C   0  0  0  0  0  0  0  0  0  0  0  0
  180.6790  182.1290  136.7860 C   0  0  0  0  0  1  0  0  0  0  0  0
  180.1240  181.8110  139.1850 N   0  0  0  0  0  2  0  0  0  0  0  0
  184.0570  177.4700  141.2630 C   0  0  0  0  0  2  0  0  0  0  0  0
  186.6830  177.9160  142.7200 C   0  0  0  0  0  3  0  0  0  0  0  0
  185.2830  178.3510  144.6540 C   0  0  0  0  0  0  0  0  0  0  0  0
  184.2820  178.5640  142.3140 C   0  0  2  0  0  3  0  0  0  0  0  0
  187.6040  177.7200  144.9490 C   0  0  0  0  0  0  0  0  0  0  0  0
  185.4280  178.2400  143.2530 C   0  0  0  0  0  0  0  0  0  0  0  0
  183.1920  179.6480  144.3300 C   0  0  0  0  0  2  0  0  0  0  0  0
  186.3650  178.0700  145.4920 C   0  0  0  0  0  3  0  0  0  0  0  0
  183.9730  178.7370  145.2680 C   0  0  0  0  0  2  0  0  0  0  0  0
  188.7510  177.4250  145.8440 C   0  0  0  0  0  1  0  0  0  0  0  0
  187.7650  177.6550  143.5630 C   0  0  0  0  0  3  0  0  0  0  0  0
  182.9620  178.9220  143.0140 C   0  0  0  0  0  2  0  0  0  0  0  0
  1 17  1  1  0  0  0
  2  5  1  0  0  0  0
  2  4  1  0  0  0  0
  3  6  1  0  0  0  0
  3  1  1  0  0  0  0
  4  6  2  0  0  0  0
  5  3  2  0  0  0  0
  7  9  2  0  0  0  0
  7  1  1  0  0  0  0
  8  7  1  0  0  0  0
 10  8  1  0  0  0  0
 10 12  1  0  0  0  0
 11 16  1  0  0  0  0
 13 14  1  0  0  0  0
 14 11  1  0  0  0  0
 14 10  2  0  0  0  0
 15 11  1  0  0  0  0
 16 12  1  0  0  0  0
 18 22  2  0  0  0  0
 18 27  1  0  0  0  0
 19 25  1  0  0  0  0
 19 24  2  0  0  0  0
 20 17  1  6  0  0  0
 20 28  1  0  0  0  0
 20 22  1  0  0  0  0
 21 24  1  0  0  0  0
 21 26  1  0  0  0  0
 22 19  1  0  0  0  0
 23 25  1  0  0  0  0
 27 21  2  0  0  0  0
 28 23  1  0  0  0  0
M  END
>  <MODEL>
6

>  <REMARK>
 VINA RESULT:      -7.4      4.112      6.952
  Name = 
  5 active torsions:
  status: ('A' for Active; 'I' for Inactive)
    1  A    between atoms: C_1  and  C_27
    2  A    between atoms: N_2  and  C_3
    3  A    between atoms: C_10  and  C_17
    4  A    between atoms: C_16  and  C_27
    5  A    between atoms: C_17  and  C_27
                            x       y       z     vdW  Elec       q    Type
                         _______ _______ _______ _____ _____    ______ ____

>  <TORSDO>
F 5

$$$$
=
 OpenBabel10262420463D

 28 31  0  0  1  0  0  0  0  0999 V2000
  188.0040  178.1000  139.7490 C   0  0  1  0  0  3  0  0  0  0  0  0
  184.5520  178.8110  140.7580 C   0  0  0  0  0  2  0  0  0  0  0  0
  186.5570  178.4700  139.9000 C   0  0  0  0  0  0  0  0  0  0  0  0
  184.5800  179.0970  139.2920 C   0  0  0  0  0  3  0  0  0  0  0  0
  185.9210  178.4030  141.0210 N   0  0  0  0  0  0  0  0  0  0  0  0
  185.7570  178.8920  138.8090 N   0  0  0  0  0  0  0  0  0  0  0  0
  188.5740  178.5820  138.4450 C   0  0  0  0  0  0  0  0  0  0  0  0
  188.6590  177.7150  137.3080 N   0  0  0  0  0  2  0  0  0  0  0  0
  189.0810  179.7330  138.3690 O   0  0  0  0  0  0  0  0  0  0  0  0
  188.0020  176.4490  137.1650 C   0  0  0  0  0  0  0  0  0  0  0  0
  186.5360  174.8760  136.4070 N   0  0  0  0  0  0  0  0  0  0  0  0
  188.8220  174.9220  137.5810 S   0  0  0  0  0  0  0  0  0  0  0  0
  186.0770  177.3230  135.8530 C   0  0  0  0  0  1  0  0  0  0  0  0
  186.8650  176.2500  136.5310 C   0  0  0  0  0  0  0  0  0  0  0  0
  185.3110  174.4080  135.7810 C   0  0  0  0  0  1  0  0  0  0  0  0
  187.4680  173.9630  136.9260 N   0  0  0  0  0  2  0  0  0  0  0  0
  188.8490  178.6000  140.9240 C   0  0  0  0  0  2  0  0  0  0  0  0
  187.5070  177.5630  143.4420 C   0  0  0  0  0  3  0  0  0  0  0  0
  189.7650  177.4100  144.3190 C   0  0  0  0  0  0  0  0  0  0  0  0
  189.4080  177.4640  141.7900 C   0  0  2  0  0  3  0  0  0  0  0  0
  187.8760  177.5120  145.8330 C   0  0  0  0  0  0  0  0  0  0  0  0
  188.8900  177.5120  143.2150 C   0  0  0  0  0  0  0  0  0  0  0  0
  191.5650  176.6080  142.8100 C   0  0  0  0  0  2  0  0  0  0  0  0
  189.2540  177.4310  145.6190 C   0  0  0  0  0  3  0  0  0  0  0  0
  191.2470  177.3080  144.1240 C   0  0  0  0  0  2  0  0  0  0  0  0
  187.3390  177.5320  147.2170 C   0  0  0  0  0  1  0  0  0  0  0  0
  187.0030  177.5650  144.7450 C   0  0  0  0  0  3  0  0  0  0  0  0
  190.9370  177.3910  141.6670 C   0  0  0  0  0  2  0  0  0  0  0  0
  1  3  1  0  0  0  0
  1 17  1  1  0  0  0
  2  5  1  0  0  0  0
  3  5  2  0  0  0  0
  4  2  1  0  0  0  0
  6  4  2  0  0  0  0
  6  3  1  0  0  0  0
  7  1  1  0  0  0  0
  8  7  1  0  0  0  0
  9  7  2  0  0  0  0
 10  8  1  0  0  0  0
 10 12  1  0  0  0  0
 11 14  1  0  0  0  0
 11 16  1  0  0  0  0
 13 14  1  0  0  0  0
 14 10  2  0  0  0  0
 15 11  1  0  0  0  0
 16 12  1  0  0  0  0
 18 27  1  0  0  0  0
 19 24  2  0  0  0  0
 20 17  1  6  0  0  0
 20 22  1  0  0  0  0
 21 26  1  0  0  0  0
 22 18  2  0  0  0  0
 22 19  1  0  0  0  0
 23 25  1  0  0  0  0
 24 21  1  0  0  0  0
 25 19  1  0  0  0  0
 27 21  2  0  0  0  0
 28 20  1  0  0  0  0
 28 23  1  0  0  0  0
M  END
>  <MODEL>
7

>  <REMARK>
 VINA RESULT:      -7.0      1.549      1.778
  Name = 
  5 active torsions:
  status: ('A' for Active; 'I' for Inactive)
    1  A    between atoms: C_1  and  C_27
    2  A    between atoms: N_2  and  C_3
    3  A    between atoms: C_10  and  C_17
    4  A    between atoms: C_16  and  C_27
    5  A    between atoms: C_17  and  C_27
                            x       y       z     vdW  Elec       q    Type
                         _______ _______ _______ _____ _____    ______ ____

>  <TORSDO>
F 5

$$$$
=
 OpenBabel10262420463D

 28 31  0  0  1  0  0  0  0  0999 V2000
  189.3460  177.9330  138.7360 C   0  0  1  0  0  3  0  0  0  0  0  0
  191.6140  175.1150  138.1420 C   0  0  0  0  0  2  0  0  0  0  0  0
  190.3270  176.9050  138.2530 C   0  0  0  0  0  0  0  0  0  0  0  0
  191.8050  176.0050  136.9570 C   0  0  0  0  0  3  0  0  0  0  0  0
  190.6170  175.8350  138.9150 N   0  0  0  0  0  0  0  0  0  0  0  0
  191.0460  177.0430  137.0400 N   0  0  0  0  0  0  0  0  0  0  0  0
  188.7040  178.6750  137.5990 C   0  0  0  0  0  0  0  0  0  0  0  0
  187.8240  178.0110  136.6830 N   0  0  0  0  0  2  0  0  0  0  0  0
  189.0160  179.8760  137.3770 O   0  0  0  0  0  0  0  0  0  0  0  0
  187.2430  176.7140  136.8660 C   0  0  0  0  0  0  0  0  0  0  0  0
  185.6490  175.1050  137.1300 N   0  0  0  0  0  0  0  0  0  0  0  0
  188.1090  175.2290  136.3970 S   0  0  0  0  0  0  0  0  0  0  0  0
  184.9530  177.5470  137.3750 C   0  0  0  0  0  1  0  0  0  0  0  0
  185.9820  176.4830  137.1730 C   0  0  0  0  0  0  0  0  0  0  0  0
  184.3290  174.5990  137.4670 C   0  0  0  0  0  1  0  0  0  0  0  0
  186.6730  174.2280  136.7370 N   0  0  0  0  0  2  0  0  0  0  0  0
  188.2810  177.3230  139.6520 C   0  0  0  0  0  2  0  0  0  0  0  0
  189.3740  177.7940  142.4450 C   0  0  0  0  0  3  0  0  0  0  0  0
  187.0410  177.9740  143.0900 C   0  0  0  0  0  0  0  0  0  0  0  0
  187.6930  178.3330  140.6460 C   0  0  2  0  0  3  0  0  0  0  0  0
  188.7270  177.4570  144.7520 C   0  0  0  0  0  0  0  0  0  0  0  0
  188.0340  177.9950  142.0850 C   0  0  0  0  0  0  0  0  0  0  0  0
  185.4850  179.1690  141.5700 C   0  0  0  0  0  2  0  0  0  0  0  0
  187.3910  177.6850  144.4110 C   0  0  0  0  0  3  0  0  0  0  0  0
  185.6020  178.2270  142.7610 C   0  0  0  0  0  2  0  0  0  0  0  0
  189.0940  177.1530  146.1590 C   0  0  0  0  0  1  0  0  0  0  0  0
  189.7190  177.5240  143.7710 C   0  0  0  0  0  3  0  0  0  0  0  0
  186.1970  178.5500  140.3770 C   0  0  0  0  0  2  0  0  0  0  0  0
  1 17  1  6  0  0  0
  2  5  1  0  0  0  0
  3  1  1  0  0  0  0
  3  5  2  0  0  0  0
  4  6  2  0  0  0  0
  4  2  1  0  0  0  0
  6  3  1  0  0  0  0
  7  1  1  0  0  0  0
  8 10  1  0  0  0  0
  8  7  1  0  0  0  0
  9  7  2  0  0  0  0
 10 14  2  0  0  0  0
 11 14  1  0  0  0  0
 11 15  1  0  0  0  0
 12 16  1  0  0  0  0
 12 10  1  0  0  0  0
 14 13  1  0  0  0  0
 16 11  1  0  0  0  0
 18 27  1  0  0  0  0
 19 24  2  0  0  0  0
 20 17  1  6  0  0  0
 20 22  1  0  0  0  0
 21 26  1  0  0  0  0
 22 18  2  0  0  0  0
 22 19  1  0  0  0  0
 23 25  1  0  0  0  0
 24 21  1  0  0  0  0
 25 19  1  0  0  0  0
 27 21  2  0  0  0  0
 28 20  1  0  0  0  0
 28 23  1  0  0  0  0
M  END
>  <MODEL>
8

>  <REMARK>
 VINA RESULT:      -6.8      1.935      3.959
  Name = 
  5 active torsions:
  status: ('A' for Active; 'I' for Inactive)
    1  A    between atoms: C_1  and  C_27
    2  A    between atoms: N_2  and  C_3
    3  A    between atoms: C_10  and  C_17
    4  A    between atoms: C_16  and  C_27
    5  A    between atoms: C_17  and  C_27
                            x       y       z     vdW  Elec       q    Type
                         _______ _______ _______ _____ _____    ______ ____

>  <TORSDO>
F 5

$$$$
=
 OpenBabel10262420463D

 28 31  0  0  1  0  0  0  0  0999 V2000
  183.9390  178.5060  141.5910 C   0  0  1  0  0  3  0  0  0  0  0  0
  180.9110  179.0950  143.5720 C   0  0  0  0  0  2  0  0  0  0  0  0
  182.6060  178.8720  142.1760 C   0  0  0  0  0  0  0  0  0  0  0  0
  180.5850  179.6400  142.2200 C   0  0  0  0  0  3  0  0  0  0  0  0
  182.2720  178.6180  143.3960 N   0  0  0  0  0  0  0  0  0  0  0  0
  181.5850  179.5000  141.4190 N   0  0  0  0  0  0  0  0  0  0  0  0
  184.1000  179.0220  140.1900 C   0  0  0  0  0  0  0  0  0  0  0  0
  183.4340  178.3940  139.0880 N   0  0  0  0  0  2  0  0  0  0  0  0
  184.9090  179.9590  139.9560 O   0  0  0  0  0  0  0  0  0  0  0  0
  182.3720  177.4360  139.1820 C   0  0  0  0  0  0  0  0  0  0  0  0
  180.3400  176.4600  138.8460 N   0  0  0  0  0  0  0  0  0  0  0  0
  182.6910  175.7300  139.5870 S   0  0  0  0  0  0  0  0  0  0  0  0
  180.6380  178.8970  138.1570 C   0  0  0  0  0  1  0  0  0  0  0  0
  181.1330  177.6340  138.7810 C   0  0  0  0  0  0  0  0  0  0  0  0
  178.9310  176.4350  138.4930 C   0  0  0  0  0  1  0  0  0  0  0  0
  180.9910  175.2910  139.2740 N   0  0  0  0  0  2  0  0  0  0  0  0
  185.1000  178.9730  142.4750 C   0  0  0  0  0  2  0  0  0  0  0  0
  185.6650  177.8720  145.2470 C   0  0  0  0  0  3  0  0  0  0  0  0
  187.9790  177.8240  144.5170 C   0  0  0  0  0  0  0  0  0  0  0  0
  186.1180  177.8640  142.7680 C   0  0  2  0  0  3  0  0  0  0  0  0
  187.4490  177.8360  146.8810 C   0  0  0  0  0  0  0  0  0  0  0  0
  186.6030  177.8860  144.2050 C   0  0  0  0  0  0  0  0  0  0  0  0
  188.4680  177.1090  142.1910 C   0  0  0  0  0  2  0  0  0  0  0  0
  188.3930  177.8200  145.8510 C   0  0  0  0  0  3  0  0  0  0  0  0
  189.0160  177.7930  143.4370 C   0  0  0  0  0  2  0  0  0  0  0  0
  187.8940  177.8300  148.2980 C   0  0  0  0  0  1  0  0  0  0  0  0
  186.0860  177.8500  146.5790 C   0  0  0  0  0  3  0  0  0  0  0  0
  187.2360  177.8620  141.7150 C   0  0  0  0  0  2  0  0  0  0  0  0
  1  3  1  0  0  0  0
  1 17  1  1  0  0  0
  3  5  2  0  0  0  0
  4  2  1  0  0  0  0
  5  2  1  0  0  0  0
  6  3  1  0  0  0  0
  6  4  2  0  0  0  0
  7  1  1  0  0  0  0
  8 10  1  0  0  0  0
  8  7  1  0  0  0  0
  9  7  2  0  0  0  0
 10 12  1  0  0  0  0
 11 16  1  0  0  0  0
 13 14  1  0  0  0  0
 14 11  1  0  0  0  0
 14 10  2  0  0  0  0
 15 11  1  0  0  0  0
 16 12  1  0  0  0  0
 18 27  1  0  0  0  0
 19 24  2  0  0  0  0
 20 17  1  6  0  0  0
 20 22  1  0  0  0  0
 21 26  1  0  0  0  0
 22 19  1  0  0  0  0
 22 18  2  0  0  0  0
 23 25  1  0  0  0  0
 24 21  1  0  0  0  0
 25 19  1  0  0  0  0
 27 21  2  0  0  0  0
 28 23  1  0  0  0  0
 28 20  1  0  0  0  0
M  END
>  <MODEL>
9

>  <REMARK>
 VINA RESULT:      -6.6      4.285      5.804
  Name = 
  5 active torsions:
  status: ('A' for Active; 'I' for Inactive)
    1  A    between atoms: C_1  and  C_27
    2  A    between atoms: N_2  and  C_3
    3  A    between atoms: C_10  and  C_17
    4  A    between atoms: C_16  and  C_27
    5  A    between atoms: C_17  and  C_27
                            x       y       z     vdW  Elec       q    Type
                         _______ _______ _______ _____ _____    ______ ____

>  <TORSDO>
F 5

$$$$
