=
 OpenBabel10262422183D

 43 49  0  0  1  0  0  0  0  0999 V2000
  187.7390  177.6530  147.1390 C   0  0  0  0  0  0  0  0  0  0  0  0
  185.8610  178.6840  142.5590 C   0  0  0  0  0  0  0  0  0  0  0  0
  187.9360  178.2960  140.7830 C   0  0  0  0  0  0  0  0  0  0  0  0
  186.2840  178.2650  145.3010 C   0  0  0  0  0  0  0  0  0  0  0  0
  188.7960  177.4620  146.2440 C   0  0  0  0  0  3  0  0  0  0  0  0
  187.9480  177.4360  148.5930 C   0  0  0  0  0  1  0  0  0  0  0  0
  187.3510  178.0720  144.3890 C   0  0  0  0  0  0  0  0  0  0  0  0
  186.4860  178.0540  146.6680 C   0  0  0  0  0  3  0  0  0  0  0  0
  188.6040  177.6700  144.8760 C   0  0  0  0  0  3  0  0  0  0  0  0
  188.1400  178.1040  142.1150 N   0  0  0  0  0  0  0  0  0  0  0  0
  187.1360  178.2840  143.0150 C   0  0  0  0  0  0  0  0  0  0  0  0
  184.8170  178.8720  143.4730 C   0  0  0  0  0  3  0  0  0  0  0  0
  185.6740  178.8840  141.1870 C   0  0  0  0  0  0  0  0  0  0  0  0
  186.7140  178.6840  140.3330 N   0  0  0  0  0  0  0  0  0  0  0  0
  185.0280  178.6630  144.8380 C   0  0  0  0  0  3  0  0  0  0  0  0
  189.0490  178.0980  139.8070 C   0  0  1  0  0  3  0  0  0  0  0  0
  190.1240  177.2160  140.4170 C   0  0  0  0  0  1  0  0  0  0  0  0
  188.5240  177.4880  138.5140 C   0  0  0  0  0  2  0  0  0  0  0  0
  189.0560  178.2090  137.3170 C   0  0  0  0  0  0  0  0  0  0  0  0
  189.0170  179.4290  137.2660 O   0  0  0  0  0  0  0  0  0  0  0  0
  189.6350  177.4270  136.1840 C   0  0  0  0  0  2  0  0  0  0  0  0
  189.8550  175.9650  136.5830 C   0  0  2  0  0  3  0  0  0  0  0  0
  190.2460  174.0240  134.5940 C   0  0  0  0  0  2  0  0  0  0  0  0
  191.1620  175.5180  136.2760 O   0  0  0  0  0  0  0  0  0  0  0  0
  188.7630  174.9810  136.0920 C   0  0  2  0  0  3  0  0  0  0  0  0
  189.3410  173.7670  135.6530 O   0  0  0  0  0  0  0  0  0  0  0  0
  191.2130  175.1760  134.9090 C   0  0  0  0  0  2  0  0  0  0  0  0
  187.8970  175.5550  135.0590 N   0  0  0  0  0  2  0  0  0  0  0  0
  186.6960  175.9360  135.6730 N   0  0  0  0  0  0  0  0  0  0  0  0
  184.5530  176.8490  134.9330 C   0  0  0  0  0  2  0  0  0  0  0  0
  185.0710  175.9330  137.2030 C   0  0  0  0  0  3  0  0  0  0  0  0
  184.8420  177.1790  136.3890 C   0  0  1  0  0  3  0  0  0  0  0  0
  186.1330  175.2710  136.7860 C   0  0  0  0  0  3  0  0  0  0  0  0
  185.9770  177.1590  135.3640 C   0  0  1  0  0  3  0  0  0  0  0  0
  184.4250  179.2870  140.7000 O   0  0  0  0  0  0  0  0  0  0  0  0
  181.8170  178.7230  138.0740 C   0  0  0  0  0  3  0  0  0  0  0  0
  181.5040  177.4540  138.3550 C   0  0  0  0  0  0  0  0  0  0  0  0
  183.1280  177.3440  140.1760 C   0  0  0  0  0  3  0  0  0  0  0  0
  182.7010  179.5120  139.0030 C   0  0  0  0  0  2  0  0  0  0  0  0
  183.7590  178.6040  139.6460 C   0  0  1  0  0  3  0  0  0  0  0  0
  182.0930  176.7900  139.5370 C   0  0  0  0  0  3  0  0  0  0  0  0
  181.2290  175.7150  136.7860 O   0  0  0  0  0  1  0  0  0  0  0  0
  180.5510  176.7140  137.4830 C   0  0  0  0  0  2  0  0  0  0  0  0
  1  6  1  0  0  0  0
  2 11  2  0  0  0  0
  2 12  1  0  0  0  0
  3 10  2  0  0  0  0
  4  8  2  0  0  0  0
  5  1  2  0  0  0  0
  7  9  2  0  0  0  0
  7  4  1  0  0  0  0
  8  1  1  0  0  0  0
  9  5  1  0  0  0  0
 10 11  1  0  0  0  0
 11  7  1  0  0  0  0
 12 15  2  0  0  0  0
 13  2  1  0  0  0  0
 14  3  1  0  0  0  0
 14 13  2  0  0  0  0
 15  4  1  0  0  0  0
 16 17  1  1  0  0  0
 16  3  1  0  0  0  0
 18 16  1  0  0  0  0
 19 18  1  0  0  0  0
 20 19  2  0  0  0  0
 21 19  1  0  0  0  0
 22 21  1  6  0  0  0
 23 27  1  0  0  0  0
 23 26  1  0  0  0  0
 24 22  1  0  0  0  0
 25 28  1  6  0  0  0
 25 22  1  0  0  0  0
 26 25  1  0  0  0  0
 27 24  1  0  0  0  0
 28 29  1  0  0  0  0
 29 33  1  0  0  0  0
 32 30  1  6  0  0  0
 32 31  1  0  0  0  0
 33 31  2  0  0  0  0
 34 30  1  6  0  0  0
 34 29  1  0  0  0  0
 34 32  1  0  0  0  0
 35 13  1  0  0  0  0
 36 37  2  0  0  0  0
 36 39  1  0  0  0  0
 37 41  1  0  0  0  0
 39 40  1  0  0  0  0
 40 38  1  0  0  0  0
 40 35  1  1  0  0  0
 41 38  2  0  0  0  0
 42 43  1  0  0  0  0
 43 37  1  0  0  0  0
M  END
>  <MODEL>
1

>  <REMARK>
 VINA RESULT:      -8.9      0.000      0.000
  Name = 
  10 active torsions:
  status: ('A' for Active; 'I' for Inactive)
    1  A    between atoms: O_1  and  C_34
    2  A    between atoms: O_1  and  C_35
    3  A    between atoms: C_2  and  C_6
    4  A    between atoms: C_2  and  C_13
    5  A    between atoms: C_3  and  C_4
    6  A    between atoms: C_3  and  C_12
    7  A    between atoms: C_6  and  C_12
    8  A    between atoms: N_11  and  N_14
    9  A    between atoms: N_14  and  C_22
   10  A    between atoms: C_19  and  C_37
                            x       y       z     vdW  Elec       q    Type
                         _______ _______ _______ _____ _____    ______ ____

>  <TORSDO>
F 10

$$$$
=
 OpenBabel10262422183D

 43 49  0  0  1  0  0  0  0  0999 V2000
  191.2790  176.3440  146.6580 C   0  0  0  0  0  0  0  0  0  0  0  0
  187.3560  178.1420  144.0240 C   0  0  0  0  0  0  0  0  0  0  0  0
  188.1830  178.2270  141.3930 C   0  0  0  0  0  0  0  0  0  0  0  0
  189.1170  177.2190  146.0030 C   0  0  0  0  0  0  0  0  0  0  0  0
  191.7070  176.3920  145.3280 C   0  0  0  0  0  3  0  0  0  0  0  0
  192.2010  175.8580  147.7170 C   0  0  0  0  0  1  0  0  0  0  0  0
  189.5440  177.2700  144.6530 C   0  0  0  0  0  0  0  0  0  0  0  0
  189.9870  176.7570  146.9950 C   0  0  0  0  0  3  0  0  0  0  0  0
  190.8430  176.8520  144.3300 C   0  0  0  0  0  3  0  0  0  0  0  0
  189.0380  177.7900  142.3580 N   0  0  0  0  0  0  0  0  0  0  0  0
  188.6590  177.7330  143.6630 C   0  0  0  0  0  0  0  0  0  0  0  0
  186.9500  178.0880  145.3630 C   0  0  0  0  0  3  0  0  0  0  0  0
  186.4950  178.5950  143.0180 C   0  0  0  0  0  0  0  0  0  0  0  0
  186.9290  178.6260  141.7290 N   0  0  0  0  0  0  0  0  0  0  0  0
  187.8270  177.6280  146.3480 C   0  0  0  0  0  3  0  0  0  0  0  0
  188.6160  178.2880  139.9650 C   0  0  1  0  0  3  0  0  0  0  0  0
  189.8010  177.3660  139.7420 C   0  0  0  0  0  1  0  0  0  0  0  0
  187.4640  177.9150  139.0410 C   0  0  0  0  0  2  0  0  0  0  0  0
  187.8020  178.1900  137.6120 C   0  0  0  0  0  0  0  0  0  0  0  0
  188.1440  179.3100  137.2650 O   0  0  0  0  0  0  0  0  0  0  0  0
  187.7180  177.0860  136.6090 C   0  0  0  0  0  2  0  0  0  0  0  0
  187.6690  175.7210  137.3010 C   0  0  2  0  0  3  0  0  0  0  0  0
  187.4110  173.3890  135.7600 C   0  0  0  0  0  2  0  0  0  0  0  0
  188.8080  174.9330  137.0120 O   0  0  0  0  0  0  0  0  0  0  0  0
  186.3450  174.9380  137.1100 C   0  0  2  0  0  3  0  0  0  0  0  0
  186.5990  173.5610  136.9080 O   0  0  0  0  0  0  0  0  0  0  0  0
  188.6290  174.3260  135.7520 C   0  0  0  0  0  2  0  0  0  0  0  0
  185.5080  175.4810  136.0390 N   0  0  0  0  0  2  0  0  0  0  0  0
  184.3300  175.9690  136.6220 N   0  0  0  0  0  0  0  0  0  0  0  0
  182.9820  175.4250  138.5870 C   0  0  0  0  0  2  0  0  0  0  0  0
  182.7520  177.4580  137.1470 C   0  0  0  0  0  3  0  0  0  0  0  0
  182.1650  176.1190  137.5100 C   0  0  1  0  0  3  0  0  0  0  0  0
  183.9610  177.3330  136.6320 C   0  0  0  0  0  3  0  0  0  0  0  0
  183.2600  175.1240  137.1240 C   0  0  1  0  0  3  0  0  0  0  0  0
  185.1990  179.0140  143.3400 O   0  0  0  0  0  0  0  0  0  0  0  0
  182.5770  178.2970  140.7660 C   0  0  0  0  0  3  0  0  0  0  0  0
  181.4890  178.3910  141.5390 C   0  0  0  0  0  0  0  0  0  0  0  0
  182.8170  178.8710  143.5320 C   0  0  0  0  0  3  0  0  0  0  0  0
  183.9230  178.7140  141.2940 C   0  0  0  0  0  2  0  0  0  0  0  0
  184.0400  178.3990  142.7920 C   0  0  1  0  0  3  0  0  0  0  0  0
  181.6160  178.8250  142.9460 C   0  0  0  0  0  3  0  0  0  0  0  0
  179.3210  177.5770  141.9850 O   0  0  0  0  0  1  0  0  0  0  0  0
  180.1490  178.0690  140.9770 C   0  0  0  0  0  2  0  0  0  0  0  0
  1  8  1  0  0  0  0
  1  6  1  0  0  0  0
  2 12  1  0  0  0  0
  3 14  1  0  0  0  0
  3 10  2  0  0  0  0
  4 15  1  0  0  0  0
  4  8  2  0  0  0  0
  5  1  2  0  0  0  0
  7  4  1  0  0  0  0
  9  7  2  0  0  0  0
  9  5  1  0  0  0  0
 10 11  1  0  0  0  0
 11  2  2  0  0  0  0
 11  7  1  0  0  0  0
 12 15  2  0  0  0  0
 13 35  1  0  0  0  0
 13  2  1  0  0  0  0
 14 13  2  0  0  0  0
 16 17  1  1  0  0  0
 16  3  1  0  0  0  0
 18 16  1  0  0  0  0
 19 18  1  0  0  0  0
 20 19  2  0  0  0  0
 21 19  1  0  0  0  0
 22 21  1  6  0  0  0
 23 26  1  0  0  0  0
 24 22  1  0  0  0  0
 25 28  1  6  0  0  0
 25 22  1  0  0  0  0
 26 25  1  0  0  0  0
 27 23  1  0  0  0  0
 27 24  1  0  0  0  0
 28 29  1  0  0  0  0
 29 33  1  0  0  0  0
 29 34  1  0  0  0  0
 32 31  1  6  0  0  0
 32 30  1  0  0  0  0
 33 31  2  0  0  0  0
 34 32  1  0  0  0  0
 34 30  1  1  0  0  0
 36 39  1  0  0  0  0
 36 37  2  0  0  0  0
 37 41  1  0  0  0  0
 39 40  1  0  0  0  0
 40 35  1  1  0  0  0
 40 38  1  0  0  0  0
 41 38  2  0  0  0  0
 43 37  1  0  0  0  0
 43 42  1  0  0  0  0
M  END
>  <MODEL>
2

>  <REMARK>
 VINA RESULT:      -8.9      2.011      2.914
  Name = 
  10 active torsions:
  status: ('A' for Active; 'I' for Inactive)
    1  A    between atoms: O_1  and  C_34
    2  A    between atoms: O_1  and  C_35
    3  A    between atoms: C_2  and  C_6
    4  A    between atoms: C_2  and  C_13
    5  A    between atoms: C_3  and  C_4
    6  A    between atoms: C_3  and  C_12
    7  A    between atoms: C_6  and  C_12
    8  A    between atoms: N_11  and  N_14
    9  A    between atoms: N_14  and  C_22
   10  A    between atoms: C_19  and  C_37
                            x       y       z     vdW  Elec       q    Type
                         _______ _______ _______ _____ _____    ______ ____

>  <TORSDO>
F 10

$$$$
=
 OpenBabel10262422183D

 43 49  0  0  1  0  0  0  0  0999 V2000
  191.1310  176.6310  146.8020 C   0  0  0  0  0  0  0  0  0  0  0  0
  189.0960  177.8730  142.3440 C   0  0  0  0  0  0  0  0  0  0  0  0
  186.3890  178.1550  142.7980 C   0  0  0  0  0  0  0  0  0  0  0  0
  190.7940  177.1790  144.4670 C   0  0  0  0  0  0  0  0  0  0  0  0
  189.7590  176.7650  147.0370 C   0  0  0  0  0  3  0  0  0  0  0  0
  192.0420  176.2630  147.9160 C   0  0  0  0  0  1  0  0  0  0  0  0
  189.4020  177.3170  144.6980 C   0  0  0  0  0  0  0  0  0  0  0  0
  191.6470  176.8370  145.5200 C   0  0  0  0  0  3  0  0  0  0  0  0
  188.8990  177.1070  145.9900 C   0  0  0  0  0  3  0  0  0  0  0  0
  187.2140  177.8080  143.8220 N   0  0  0  0  0  0  0  0  0  0  0  0
  188.5530  177.6650  143.6310 C   0  0  0  0  0  0  0  0  0  0  0  0
  190.4720  177.7310  142.1320 C   0  0  0  0  0  3  0  0  0  0  0  0
  188.2290  178.2220  141.3020 C   0  0  0  0  0  0  0  0  0  0  0  0
  186.8980  178.3550  141.5540 N   0  0  0  0  0  0  0  0  0  0  0  0
  191.3170  177.3860  143.1890 C   0  0  0  0  0  3  0  0  0  0  0  0
  184.9200  178.3050  143.0220 C   0  0  1  0  0  3  0  0  0  0  0  0
  184.6640  178.9590  144.3680 C   0  0  0  0  0  1  0  0  0  0  0  0
  184.2880  179.1180  141.9010 C   0  0  0  0  0  2  0  0  0  0  0  0
  183.0210  178.4880  141.4190 C   0  0  0  0  0  0  0  0  0  0  0  0
  181.9420  178.8800  141.8370 O   0  0  0  0  0  0  0  0  0  0  0  0
  183.0820  177.3780  140.4230 C   0  0  0  0  0  2  0  0  0  0  0  0
  183.6890  177.8600  139.1020 C   0  0  2  0  0  3  0  0  0  0  0  0
  182.1340  177.8290  136.7640 C   0  0  0  0  0  2  0  0  0  0  0  0
  183.0820  179.0510  138.6380 O   0  0  0  0  0  0  0  0  0  0  0  0
  183.7900  176.7790  137.9950 C   0  0  2  0  0  3  0  0  0  0  0  0
  183.4560  177.3190  136.7310 O   0  0  0  0  0  0  0  0  0  0  0  0
  181.8750  178.7210  137.9890 C   0  0  0  0  0  2  0  0  0  0  0  0
  182.9920  175.5860  138.2850 N   0  0  0  0  0  2  0  0  0  0  0  0
  183.5090  174.5300  137.5210 N   0  0  0  0  0  0  0  0  0  0  0  0
  185.3210  172.9080  137.7580 C   0  0  0  0  0  2  0  0  0  0  0  0
  183.5010  172.8580  136.0420 C   0  0  0  0  0  3  0  0  0  0  0  0
  184.9560  173.1460  136.3010 C   0  0  1  0  0  3  0  0  0  0  0  0
  182.7170  173.6690  136.7280 C   0  0  0  0  0  3  0  0  0  0  0  0
  184.9260  174.3020  137.3020 C   0  0  1  0  0  3  0  0  0  0  0  0
  188.7300  178.4300  140.0120 O   0  0  0  0  0  0  0  0  0  0  0  0
  189.7970  176.5830  136.9350 C   0  0  0  0  0  3  0  0  0  0  0  0
  188.6150  176.5030  136.3150 C   0  0  0  0  0  0  0  0  0  0  0  0
  187.4650  177.6670  138.1280 C   0  0  0  0  0  3  0  0  0  0  0  0
  189.9560  177.4410  138.1610 C   0  0  0  0  0  2  0  0  0  0  0  0
  188.6690  177.4330  139.0000 C   0  0  1  0  0  3  0  0  0  0  0  0
  187.4350  177.1900  136.8790 C   0  0  0  0  0  3  0  0  0  0  0  0
  188.0550  174.4360  135.3260 O   0  0  0  0  0  1  0  0  0  0  0  0
  188.4920  175.7310  135.0480 C   0  0  0  0  0  2  0  0  0  0  0  0
  1  5  1  0  0  0  0
  1  6  1  0  0  0  0
  2 11  1  0  0  0  0
  3 16  1  0  0  0  0
  3 10  2  0  0  0  0
  4  7  1  0  0  0  0
  4  8  1  0  0  0  0
  7  9  1  0  0  0  0
  8  1  2  0  0  0  0
  9  5  2  0  0  0  0
 11 10  1  0  0  0  0
 11  7  2  0  0  0  0
 12  2  2  0  0  0  0
 12 15  1  0  0  0  0
 13 14  2  0  0  0  0
 13  2  1  0  0  0  0
 14  3  1  0  0  0  0
 15  4  2  0  0  0  0
 16 17  1  1  0  0  0
 18 16  1  0  0  0  0
 19 20  2  0  0  0  0
 19 18  1  0  0  0  0
 21 19  1  0  0  0  0
 22 21  1  1  0  0  0
 23 27  1  0  0  0  0
 24 22  1  0  0  0  0
 25 28  1  1  0  0  0
 25 22  1  0  0  0  0
 26 23  1  0  0  0  0
 26 25  1  0  0  0  0
 27 24  1  0  0  0  0
 29 28  1  0  0  0  0
 31 33  2  0  0  0  0
 32 31  1  1  0  0  0
 32 34  1  0  0  0  0
 32 30  1  0  0  0  0
 33 29  1  0  0  0  0
 34 29  1  0  0  0  0
 34 30  1  1  0  0  0
 35 13  1  0  0  0  0
 36 39  1  0  0  0  0
 37 41  1  0  0  0  0
 37 36  2  0  0  0  0
 38 40  1  0  0  0  0
 39 40  1  0  0  0  0
 40 35  1  1  0  0  0
 41 38  2  0  0  0  0
 43 42  1  0  0  0  0
 43 37  1  0  0  0  0
M  END
>  <MODEL>
3

>  <REMARK>
 VINA RESULT:      -8.8      2.135      5.789
  Name = 
  10 active torsions:
  status: ('A' for Active; 'I' for Inactive)
    1  A    between atoms: O_1  and  C_34
    2  A    between atoms: O_1  and  C_35
    3  A    between atoms: C_2  and  C_6
    4  A    between atoms: C_2  and  C_13
    5  A    between atoms: C_3  and  C_4
    6  A    between atoms: C_3  and  C_12
    7  A    between atoms: C_6  and  C_12
    8  A    between atoms: N_11  and  N_14
    9  A    between atoms: N_14  and  C_22
   10  A    between atoms: C_19  and  C_37
                            x       y       z     vdW  Elec       q    Type
                         _______ _______ _______ _____ _____    ______ ____

>  <TORSDO>
F 10

$$$$
=
 OpenBabel10262422183D

 43 49  0  0  1  0  0  0  0  0999 V2000
  191.4110  176.3300  146.8080 C   0  0  0  0  0  0  0  0  0  0  0  0
  187.2620  177.9340  144.4060 C   0  0  0  0  0  0  0  0  0  0  0  0
  187.8040  177.6960  141.7110 C   0  0  0  0  0  0  0  0  0  0  0  0
  189.2070  177.1890  146.2850 C   0  0  0  0  0  0  0  0  0  0  0  0
  191.6950  176.2140  145.4440 C   0  0  0  0  0  3  0  0  0  0  0  0
  192.4320  175.9390  147.8130 C   0  0  0  0  0  1  0  0  0  0  0  0
  189.4880  177.0740  144.9010 C   0  0  0  0  0  0  0  0  0  0  0  0
  190.1710  176.8160  147.2270 C   0  0  0  0  0  3  0  0  0  0  0  0
  190.7380  176.5840  144.4940 C   0  0  0  0  0  3  0  0  0  0  0  0
  188.7500  177.3460  142.6260 N   0  0  0  0  0  0  0  0  0  0  0  0
  188.5110  177.4490  143.9610 C   0  0  0  0  0  0  0  0  0  0  0  0
  187.0010  178.0440  145.7770 C   0  0  0  0  0  3  0  0  0  0  0  0
  186.3060  178.2960  143.4500 C   0  0  0  0  0  0  0  0  0  0  0  0
  186.6000  178.1680  142.1270 N   0  0  0  0  0  0  0  0  0  0  0  0
  187.9700  177.6730  146.7120 C   0  0  0  0  0  3  0  0  0  0  0  0
  188.0820  177.5820  140.2490 C   0  0  1  0  0  3  0  0  0  0  0  0
  186.9660  178.2380  139.4550 C   0  0  0  0  0  1  0  0  0  0  0  0
  189.4250  178.2150  139.9090 C   0  0  0  0  0  2  0  0  0  0  0  0
  189.5940  178.3740  138.4330 C   0  0  0  0  0  0  0  0  0  0  0  0
  189.1160  179.3420  137.8600 O   0  0  0  0  0  0  0  0  0  0  0  0
  190.3510  177.3430  137.6620 C   0  0  0  0  0  2  0  0  0  0  0  0
  190.1380  175.9490  138.2580 C   0  0  2  0  0  3  0  0  0  0  0  0
  190.7840  173.6750  136.7430 C   0  0  0  0  0  2  0  0  0  0  0  0
  191.3600  175.2710  138.4820 O   0  0  0  0  0  0  0  0  0  0  0  0
  189.1030  175.0690  137.5120 C   0  0  2  0  0  3  0  0  0  0  0  0
  189.5460  173.7290  137.4320 O   0  0  0  0  0  0  0  0  0  0  0  0
  191.7950  174.7090  137.2650 C   0  0  0  0  0  2  0  0  0  0  0  0
  188.7580  175.5890  136.1880 N   0  0  0  0  0  2  0  0  0  0  0  0
  187.4120  175.9830  136.2200 N   0  0  0  0  0  0  0  0  0  0  0  0
  185.8850  177.1610  134.7200 C   0  0  0  0  0  2  0  0  0  0  0  0
  185.2560  175.9100  136.7930 C   0  0  0  0  0  3  0  0  0  0  0  0
  185.4520  177.2680  136.1730 C   0  0  1  0  0  3  0  0  0  0  0  0
  186.3830  175.2230  136.8220 C   0  0  0  0  0  3  0  0  0  0  0  0
  186.9370  177.2910  135.8080 C   0  0  1  0  0  3  0  0  0  0  0  0
  185.0600  178.7880  143.8540 O   0  0  0  0  0  0  0  0  0  0  0  0
  182.3550  178.5690  141.2760 C   0  0  0  0  0  3  0  0  0  0  0  0
  181.2900  178.7010  142.0740 C   0  0  0  0  0  0  0  0  0  0  0  0
  182.6770  178.8670  144.0760 C   0  0  0  0  0  3  0  0  0  0  0  0
  183.7410  178.8010  141.8140 C   0  0  0  0  0  2  0  0  0  0  0  0
  183.8390  178.3430  143.2760 C   0  0  1  0  0  3  0  0  0  0  0  0
  181.4720  178.9930  143.5100 C   0  0  0  0  0  3  0  0  0  0  0  0
  179.2640  177.4920  142.1130 O   0  0  0  0  0  1  0  0  0  0  0  0
  179.9180  178.5660  141.5090 C   0  0  0  0  0  2  0  0  0  0  0  0
  1  8  1  0  0  0  0
  1  6  1  0  0  0  0
  2 12  1  0  0  0  0
  3 14  1  0  0  0  0
  3 10  2  0  0  0  0
  4 15  1  0  0  0  0
  4  8  2  0  0  0  0
  5  1  2  0  0  0  0
  7  4  1  0  0  0  0
  9  7  2  0  0  0  0
  9  5  1  0  0  0  0
 10 11  1  0  0  0  0
 11  2  2  0  0  0  0
 11  7  1  0  0  0  0
 12 15  2  0  0  0  0
 13 35  1  0  0  0  0
 13  2  1  0  0  0  0
 14 13  2  0  0  0  0
 16 17  1  6  0  0  0
 16  3  1  0  0  0  0
 18 16  1  0  0  0  0
 19 18  1  0  0  0  0
 20 19  2  0  0  0  0
 21 19  1  0  0  0  0
 22 21  1  6  0  0  0
 22 24  1  0  0  0  0
 23 27  1  0  0  0  0
 23 26  1  0  0  0  0
 25 28  1  6  0  0  0
 25 22  1  0  0  0  0
 26 25  1  0  0  0  0
 27 24  1  0  0  0  0
 28 29  1  0  0  0  0
 29 33  1  0  0  0  0
 31 33  2  0  0  0  0
 32 30  1  6  0  0  0
 32 31  1  0  0  0  0
 34 30  1  6  0  0  0
 34 32  1  0  0  0  0
 34 29  1  0  0  0  0
 36 39  1  0  0  0  0
 36 37  2  0  0  0  0
 37 41  1  0  0  0  0
 39 40  1  0  0  0  0
 40 35  1  1  0  0  0
 40 38  1  0  0  0  0
 41 38  2  0  0  0  0
 43 37  1  0  0  0  0
 43 42  1  0  0  0  0
M  END
>  <MODEL>
4

>  <REMARK>
 VINA RESULT:      -8.7      2.047      2.802
  Name = 
  10 active torsions:
  status: ('A' for Active; 'I' for Inactive)
    1  A    between atoms: O_1  and  C_34
    2  A    between atoms: O_1  and  C_35
    3  A    between atoms: C_2  and  C_6
    4  A    between atoms: C_2  and  C_13
    5  A    between atoms: C_3  and  C_4
    6  A    between atoms: C_3  and  C_12
    7  A    between atoms: C_6  and  C_12
    8  A    between atoms: N_11  and  N_14
    9  A    between atoms: N_14  and  C_22
   10  A    between atoms: C_19  and  C_37
                            x       y       z     vdW  Elec       q    Type
                         _______ _______ _______ _____ _____    ______ ____

>  <TORSDO>
F 10

$$$$
=
 OpenBabel10262422183D

 43 49  0  0  1  0  0  0  0  0999 V2000
  184.8540  178.6680  145.2650 C   0  0  0  0  0  0  0  0  0  0  0  0
  182.2380  178.7140  140.9390 C   0  0  0  0  0  0  0  0  0  0  0  0
  183.9930  177.8750  138.9810 C   0  0  0  0  0  0  0  0  0  0  0  0
  183.1110  178.9010  143.5980 C   0  0  0  0  0  0  0  0  0  0  0  0
  185.7500  178.2490  144.2770 C   0  0  0  0  0  3  0  0  0  0  0  0
  185.3030  178.7720  146.6770 C   0  0  0  0  0  1  0  0  0  0  0  0
  184.0140  178.4770  142.5910 C   0  0  0  0  0  0  0  0  0  0  0  0
  183.5380  178.9940  144.9260 C   0  0  0  0  0  3  0  0  0  0  0  0
  185.3320  178.1540  142.9460 C   0  0  0  0  0  3  0  0  0  0  0  0
  184.4150  177.9780  140.2710 N   0  0  0  0  0  0  0  0  0  0  0  0
  183.5730  178.3850  141.2590 C   0  0  0  0  0  0  0  0  0  0  0  0
  181.3590  179.1340  141.9440 C   0  0  0  0  0  3  0  0  0  0  0  0
  181.8250  178.6100  139.6050 C   0  0  0  0  0  0  0  0  0  0  0  0
  182.7110  178.1930  138.6600 N   0  0  0  0  0  0  0  0  0  0  0  0
  181.7940  179.2260  143.2690 C   0  0  0  0  0  3  0  0  0  0  0  0
  184.9300  177.4310  137.9070 C   0  0  1  0  0  3  0  0  0  0  0  0
  184.2650  177.5680  136.5480 C   0  0  0  0  0  1  0  0  0  0  0  0
  186.2200  178.2370  137.9570 C   0  0  0  0  0  2  0  0  0  0  0  0
  187.4110  177.3760  137.6810 C   0  0  0  0  0  0  0  0  0  0  0  0
  187.6530  177.0090  136.5410 O   0  0  0  0  0  0  0  0  0  0  0  0
  188.3020  176.9680  138.8070 C   0  0  0  0  0  2  0  0  0  0  0  0
  189.6060  177.7710  138.7920 C   0  0  2  0  0  3  0  0  0  0  0  0
  192.0680  176.4250  138.7170 C   0  0  0  0  0  2  0  0  0  0  0  0
  190.3030  177.6370  137.5690 O   0  0  0  0  0  0  0  0  0  0  0  0
  190.5230  177.5510  140.0220 C   0  0  2  0  0  3  0  0  0  0  0  0
  191.8810  177.4900  139.6330 O   0  0  0  0  0  0  0  0  0  0  0  0
  191.0230  176.4260  137.5890 C   0  0  0  0  0  2  0  0  0  0  0  0
  190.1500  176.3760  140.8130 N   0  0  0  0  0  2  0  0  0  0  0  0
  190.0860  176.7690  142.1570 N   0  0  0  0  0  0  0  0  0  0  0  0
  191.2610  178.3700  143.5820 C   0  0  0  0  0  2  0  0  0  0  0  0
  189.1660  177.1300  144.1590 C   0  0  0  0  0  3  0  0  0  0  0  0
  190.6510  177.2330  144.3850 C   0  0  1  0  0  3  0  0  0  0  0  0
  188.8860  176.8480  142.9000 C   0  0  0  0  0  3  0  0  0  0  0  0
  191.2500  176.9660  143.0030 C   0  0  1  0  0  3  0  0  0  0  0  0
  180.5110  178.9350  139.2500 O   0  0  0  0  0  0  0  0  0  0  0  0
  180.4130  181.0420  136.1570 C   0  0  0  0  0  3  0  0  0  0  0  0
  180.7940  182.2110  136.6850 C   0  0  0  0  0  0  0  0  0  0  0  0
  180.9740  181.2610  138.9280 C   0  0  0  0  0  3  0  0  0  0  0  0
  180.4920  179.7790  136.9720 C   0  0  0  0  0  2  0  0  0  0  0  0
  180.1940  180.0660  138.4500 C   0  0  1  0  0  3  0  0  0  0  0  0
  181.2160  182.2820  138.0990 C   0  0  0  0  0  3  0  0  0  0  0  0
  181.5040  184.4510  136.4930 O   0  0  0  0  0  1  0  0  0  0  0  0
  180.8050  183.4370  135.8410 C   0  0  0  0  0  2  0  0  0  0  0  0
  1  6  1  0  0  0  0
  2 11  2  0  0  0  0
  2 12  1  0  0  0  0
  3 10  2  0  0  0  0
  4  8  2  0  0  0  0
  5  1  2  0  0  0  0
  7  9  2  0  0  0  0
  7  4  1  0  0  0  0
  8  1  1  0  0  0  0
  9  5  1  0  0  0  0
 10 11  1  0  0  0  0
 11  7  1  0  0  0  0
 12 15  2  0  0  0  0
 13  2  1  0  0  0  0
 14  3  1  0  0  0  0
 14 13  2  0  0  0  0
 15  4  1  0  0  0  0
 16 17  1  6  0  0  0
 16 18  1  0  0  0  0
 16  3  1  0  0  0  0
 19 18  1  0  0  0  0
 19 21  1  0  0  0  0
 20 19  2  0  0  0  0
 22 21  1  6  0  0  0
 22 25  1  0  0  0  0
 23 26  1  0  0  0  0
 24 27  1  0  0  0  0
 24 22  1  0  0  0  0
 25 28  1  6  0  0  0
 26 25  1  0  0  0  0
 27 23  1  0  0  0  0
 28 29  1  0  0  0  0
 29 33  1  0  0  0  0
 29 34  1  0  0  0  0
 31 32  1  0  0  0  0
 32 30  1  6  0  0  0
 33 31  2  0  0  0  0
 34 30  1  6  0  0  0
 34 32  1  0  0  0  0
 35 13  1  0  0  0  0
 36 37  2  0  0  0  0
 36 39  1  0  0  0  0
 37 41  1  0  0  0  0
 39 40  1  0  0  0  0
 40 38  1  0  0  0  0
 40 35  1  1  0  0  0
 41 38  2  0  0  0  0
 43 42  1  0  0  0  0
 43 37  1  0  0  0  0
M  END
>  <MODEL>
5

>  <REMARK>
 VINA RESULT:      -8.5      2.667      5.297
  Name = 
  10 active torsions:
  status: ('A' for Active; 'I' for Inactive)
    1  A    between atoms: O_1  and  C_34
    2  A    between atoms: O_1  and  C_35
    3  A    between atoms: C_2  and  C_6
    4  A    between atoms: C_2  and  C_13
    5  A    between atoms: C_3  and  C_4
    6  A    between atoms: C_3  and  C_12
    7  A    between atoms: C_6  and  C_12
    8  A    between atoms: N_11  and  N_14
    9  A    between atoms: N_14  and  C_22
   10  A    between atoms: C_19  and  C_37
                            x       y       z     vdW  Elec       q    Type
                         _______ _______ _______ _____ _____    ______ ____

>  <TORSDO>
F 10

$$$$
=
 OpenBabel10262422183D

 43 49  0  0  1  0  0  0  0  0999 V2000
  181.5050  178.9820  141.5190 C   0  0  0  0  0  0  0  0  0  0  0  0
  186.0000  178.3530  143.7460 C   0  0  0  0  0  0  0  0  0  0  0  0
  187.8430  178.1730  141.7010 C   0  0  0  0  0  0  0  0  0  0  0  0
  183.2850  178.7130  143.1410 C   0  0  0  0  0  0  0  0  0  0  0  0
  182.4330  178.8840  140.4780 C   0  0  0  0  0  3  0  0  0  0  0  0
  180.0650  179.1720  141.2140 C   0  0  0  0  0  1  0  0  0  0  0  0
  184.2310  178.6140  142.0910 C   0  0  0  0  0  0  0  0  0  0  0  0
  181.9300  178.8960  142.8480 C   0  0  0  0  0  3  0  0  0  0  0  0
  183.7900  178.7010  140.7620 C   0  0  0  0  0  3  0  0  0  0  0  0
  186.5230  178.3370  141.4110 N   0  0  0  0  0  0  0  0  0  0  0  0
  185.5910  178.4320  142.3970 C   0  0  0  0  0  0  0  0  0  0  0  0
  185.0530  178.4500  144.7730 C   0  0  0  0  0  3  0  0  0  0  0  0
  187.3610  178.1760  144.0230 C   0  0  0  0  0  0  0  0  0  0  0  0
  188.2480  178.0910  142.9950 N   0  0  0  0  0  0  0  0  0  0  0  0
  183.7010  178.6300  144.4710 C   0  0  0  0  0  3  0  0  0  0  0  0
  188.8540  178.0660  140.6070 C   0  0  1  0  0  3  0  0  0  0  0  0
  189.9690  177.1220  141.0210 C   0  0  0  0  0  1  0  0  0  0  0  0
  188.1980  177.5900  139.3180 C   0  0  0  0  0  2  0  0  0  0  0  0
  188.7950  178.2610  138.1230 C   0  0  0  0  0  0  0  0  0  0  0  0
  189.0500  179.4560  138.1520 O   0  0  0  0  0  0  0  0  0  0  0  0
  189.0780  177.4620  136.8940 C   0  0  0  0  0  2  0  0  0  0  0  0
  189.0960  175.9630  137.2080 C   0  0  2  0  0  3  0  0  0  0  0  0
  188.9220  174.1020  135.1130 C   0  0  0  0  0  2  0  0  0  0  0  0
  190.2650  175.3290  136.7230 O   0  0  0  0  0  0  0  0  0  0  0  0
  187.8050  175.1980  136.8190 C   0  0  2  0  0  3  0  0  0  0  0  0
  188.1160  173.9340  136.2660 O   0  0  0  0  0  0  0  0  0  0  0  0
  190.0980  175.0630  135.3490 C   0  0  0  0  0  2  0  0  0  0  0  0
  186.9330  175.9630  135.9250 N   0  0  0  0  0  2  0  0  0  0  0  0
  185.6540  175.9910  136.4980 N   0  0  0  0  0  0  0  0  0  0  0  0
  184.1770  174.3790  137.5910 C   0  0  0  0  0  2  0  0  0  0  0  0
  183.8730  176.8610  137.5240 C   0  0  0  0  0  3  0  0  0  0  0  0
  183.4050  175.5370  136.9800 C   0  0  1  0  0  3  0  0  0  0  0  0
  185.1350  177.0920  137.2150 C   0  0  0  0  0  3  0  0  0  0  0  0
  184.6390  174.9760  136.2730 C   0  0  1  0  0  3  0  0  0  0  0  0
  187.8020  178.0860  145.3480 O   0  0  0  0  0  0  0  0  0  0  0  0
  190.1400  176.3760  147.7200 C   0  0  0  0  0  3  0  0  0  0  0  0
  191.2360  176.3470  146.9530 C   0  0  0  0  0  0  0  0  0  0  0  0
  190.0930  177.4400  145.0930 C   0  0  0  0  0  3  0  0  0  0  0  0
  188.9350  177.1690  147.2930 C   0  0  0  0  0  2  0  0  0  0  0  0
  188.7800  177.1420  145.7650 C   0  0  1  0  0  3  0  0  0  0  0  0
  191.2400  177.0260  145.6410 C   0  0  0  0  0  3  0  0  0  0  0  0
  193.0270  176.3480  148.4890 O   0  0  0  0  0  1  0  0  0  0  0  0
  192.4570  175.6410  147.4300 C   0  0  0  0  0  2  0  0  0  0  0  0
  1  8  1  0  0  0  0
  2 13  1  0  0  0  0
  2 12  1  0  0  0  0
  3 14  1  0  0  0  0
  4 15  1  0  0  0  0
  5  9  1  0  0  0  0
  5  1  2  0  0  0  0
  6  1  1  0  0  0  0
  7 11  1  0  0  0  0
  7  4  1  0  0  0  0
  8  4  2  0  0  0  0
  9  7  2  0  0  0  0
 10  3  2  0  0  0  0
 10 11  1  0  0  0  0
 11  2  2  0  0  0  0
 13 35  1  0  0  0  0
 14 13  2  0  0  0  0
 15 12  2  0  0  0  0
 16 17  1  1  0  0  0
 16  3  1  0  0  0  0
 18 16  1  0  0  0  0
 19 20  2  0  0  0  0
 19 18  1  0  0  0  0
 21 19  1  0  0  0  0
 22 21  1  6  0  0  0
 23 27  1  0  0  0  0
 23 26  1  0  0  0  0
 24 22  1  0  0  0  0
 25 28  1  6  0  0  0
 25 22  1  0  0  0  0
 26 25  1  0  0  0  0
 27 24  1  0  0  0  0
 28 29  1  0  0  0  0
 29 33  1  0  0  0  0
 32 31  1  1  0  0  0
 32 30  1  0  0  0  0
 33 31  2  0  0  0  0
 34 29  1  0  0  0  0
 34 32  1  0  0  0  0
 34 30  1  1  0  0  0
 37 43  1  0  0  0  0
 37 36  2  0  0  0  0
 38 41  2  0  0  0  0
 38 40  1  0  0  0  0
 39 36  1  0  0  0  0
 40 35  1  1  0  0  0
 40 39  1  0  0  0  0
 41 37  1  0  0  0  0
 43 42  1  0  0  0  0
M  END
>  <MODEL>
6

>  <REMARK>
 VINA RESULT:      -8.5      2.589      6.322
  Name = 
  10 active torsions:
  status: ('A' for Active; 'I' for Inactive)
    1  A    between atoms: O_1  and  C_34
    2  A    between atoms: O_1  and  C_35
    3  A    between atoms: C_2  and  C_6
    4  A    between atoms: C_2  and  C_13
    5  A    between atoms: C_3  and  C_4
    6  A    between atoms: C_3  and  C_12
    7  A    between atoms: C_6  and  C_12
    8  A    between atoms: N_11  and  N_14
    9  A    between atoms: N_14  and  C_22
   10  A    between atoms: C_19  and  C_37
                            x       y       z     vdW  Elec       q    Type
                         _______ _______ _______ _____ _____    ______ ____

>  <TORSDO>
F 10

$$$$
=
 OpenBabel10262422183D

 43 49  0  0  1  0  0  0  0  0999 V2000
  191.6950  176.1670  147.0530 C   0  0  0  0  0  0  0  0  0  0  0  0
  187.6960  177.8250  144.4420 C   0  0  0  0  0  0  0  0  0  0  0  0
  188.3720  177.5770  141.7780 C   0  0  0  0  0  0  0  0  0  0  0  0
  189.5320  177.0560  146.4180 C   0  0  0  0  0  0  0  0  0  0  0  0
  192.0460  176.0460  145.7050 C   0  0  0  0  0  3  0  0  0  0  0  0
  192.6580  175.7640  148.1100 C   0  0  0  0  0  1  0  0  0  0  0  0
  189.8820  176.9350  145.0500 C   0  0  0  0  0  0  0  0  0  0  0  0
  190.4410  176.6710  147.4080 C   0  0  0  0  0  3  0  0  0  0  0  0
  191.1440  176.4270  144.7080 C   0  0  0  0  0  3  0  0  0  0  0  0
  189.2640  177.2150  142.7400 N   0  0  0  0  0  0  0  0  0  0  0  0
  188.9590  177.3220  144.0610 C   0  0  0  0  0  0  0  0  0  0  0  0
  187.3660  177.9400  145.7980 C   0  0  0  0  0  3  0  0  0  0  0  0
  186.7950  178.1990  143.4380 C   0  0  0  0  0  0  0  0  0  0  0  0
  187.1540  178.0650  142.1320 N   0  0  0  0  0  0  0  0  0  0  0  0
  188.2810  177.5560  146.7810 C   0  0  0  0  0  3  0  0  0  0  0  0
  188.7220  177.4570  140.3320 C   0  0  1  0  0  3  0  0  0  0  0  0
  187.7330  178.2460  139.4910 C   0  0  0  0  0  1  0  0  0  0  0  0
  190.1440  177.9430  140.0850 C   0  0  0  0  0  2  0  0  0  0  0  0
  190.9510  176.9190  139.3540 C   0  0  0  0  0  0  0  0  0  0  0  0
  192.1560  176.8400  139.5380 O   0  0  0  0  0  0  0  0  0  0  0  0
  190.2740  175.9930  138.3980 C   0  0  0  0  0  2  0  0  0  0  0  0
  190.6850  176.3010  136.9550 C   0  0  2  0  0  3  0  0  0  0  0  0
  190.2420  174.3910  134.9460 C   0  0  0  0  0  2  0  0  0  0  0  0
  189.5680  176.4230  136.0950 O   0  0  0  0  0  0  0  0  0  0  0  0
  191.7790  175.3690  136.3740 C   0  0  2  0  0  3  0  0  0  0  0  0
  191.4980  175.0410  135.0270 O   0  0  0  0  0  0  0  0  0  0  0  0
  189.1420  175.1320  135.7220 C   0  0  0  0  0  2  0  0  0  0  0  0
  191.9880  174.1620  137.1760 N   0  0  0  0  0  2  0  0  0  0  0  0
  193.3620  173.8820  137.1770 N   0  0  0  0  0  0  0  0  0  0  0  0
  195.2310  174.2390  138.7120 C   0  0  0  0  0  2  0  0  0  0  0  0
  195.2480  172.8050  136.6620 C   0  0  0  0  0  3  0  0  0  0  0  0
  195.6940  174.1080  137.2700 C   0  0  1  0  0  3  0  0  0  0  0  0
  193.9320  172.7220  136.6070 C   0  0  0  0  0  3  0  0  0  0  0  0
  194.3840  174.8260  137.5950 C   0  0  1  0  0  3  0  0  0  0  0  0
  185.5370  178.7080  143.7780 O   0  0  0  0  0  0  0  0  0  0  0  0
  182.9680  178.4690  141.0650 C   0  0  0  0  0  3  0  0  0  0  0  0
  181.8640  178.6410  141.8020 C   0  0  0  0  0  0  0  0  0  0  0  0
  183.1480  178.8350  143.8710 C   0  0  0  0  0  3  0  0  0  0  0  0
  184.3280  178.6900  141.6700 C   0  0  0  0  0  2  0  0  0  0  0  0
  184.3400  178.2700  143.1470 C   0  0  1  0  0  3  0  0  0  0  0  0
  181.9770  178.9680  143.2380 C   0  0  0  0  0  3  0  0  0  0  0  0
  180.2550  177.1750  140.8940 O   0  0  0  0  0  1  0  0  0  0  0  0
  180.5230  178.5160  141.1690 C   0  0  0  0  0  2  0  0  0  0  0  0
  1  8  1  0  0  0  0
  1  6  1  0  0  0  0
  2 12  1  0  0  0  0
  3 14  1  0  0  0  0
  3 10  2  0  0  0  0
  4 15  1  0  0  0  0
  4  8  2  0  0  0  0
  5  1  2  0  0  0  0
  7  4  1  0  0  0  0
  9  7  2  0  0  0  0
  9  5  1  0  0  0  0
 10 11  1  0  0  0  0
 11  2  2  0  0  0  0
 11  7  1  0  0  0  0
 12 15  2  0  0  0  0
 13 35  1  0  0  0  0
 13  2  1  0  0  0  0
 14 13  2  0  0  0  0
 16 17  1  6  0  0  0
 16  3  1  0  0  0  0
 18 16  1  0  0  0  0
 19 20  2  0  0  0  0
 19 18  1  0  0  0  0
 21 19  1  0  0  0  0
 22 21  1  1  0  0  0
 23 26  1  0  0  0  0
 23 27  1  0  0  0  0
 24 22  1  0  0  0  0
 25 22  1  0  0  0  0
 25 28  1  1  0  0  0
 26 25  1  0  0  0  0
 27 24  1  0  0  0  0
 28 29  1  0  0  0  0
 29 34  1  0  0  0  0
 32 31  1  6  0  0  0
 32 34  1  0  0  0  0
 32 30  1  0  0  0  0
 33 31  2  0  0  0  0
 33 29  1  0  0  0  0
 34 30  1  1  0  0  0
 36 39  1  0  0  0  0
 36 37  2  0  0  0  0
 37 41  1  0  0  0  0
 39 40  1  0  0  0  0
 40 35  1  1  0  0  0
 40 38  1  0  0  0  0
 41 38  2  0  0  0  0
 42 43  1  0  0  0  0
 43 37  1  0  0  0  0
M  END
>  <MODEL>
7

>  <REMARK>
 VINA RESULT:      -8.4      2.805      4.739
  Name = 
  10 active torsions:
  status: ('A' for Active; 'I' for Inactive)
    1  A    between atoms: O_1  and  C_34
    2  A    between atoms: O_1  and  C_35
    3  A    between atoms: C_2  and  C_6
    4  A    between atoms: C_2  and  C_13
    5  A    between atoms: C_3  and  C_4
    6  A    between atoms: C_3  and  C_12
    7  A    between atoms: C_6  and  C_12
    8  A    between atoms: N_11  and  N_14
    9  A    between atoms: N_14  and  C_22
   10  A    between atoms: C_19  and  C_37
                            x       y       z     vdW  Elec       q    Type
                         _______ _______ _______ _____ _____    ______ ____

>  <TORSDO>
F 10

$$$$
=
 OpenBabel10262422183D

 43 49  0  0  1  0  0  0  0  0999 V2000
  189.7460  177.4680  138.5420 C   0  0  0  0  0  0  0  0  0  0  0  0
  184.8980  178.6080  139.4100 C   0  0  0  0  0  0  0  0  0  0  0  0
  184.6870  179.0050  142.1320 C   0  0  0  0  0  0  0  0  0  0  0  0
  187.3820  177.9360  138.2940 C   0  0  0  0  0  0  0  0  0  0  0  0
  189.6440  177.6610  139.9230 C   0  0  0  0  0  3  0  0  0  0  0  0
  191.0550  177.1120  137.9370 C   0  0  0  0  0  1  0  0  0  0  0  0
  187.2720  178.1340  139.6930 C   0  0  0  0  0  0  0  0  0  0  0  0
  188.6180  177.6050  137.7290 C   0  0  0  0  0  3  0  0  0  0  0  0
  188.4140  177.9920  140.4960 C   0  0  0  0  0  3  0  0  0  0  0  0
  185.8880  178.6690  141.5880 N   0  0  0  0  0  0  0  0  0  0  0  0
  186.0250  178.4700  140.2490 C   0  0  0  0  0  0  0  0  0  0  0  0
  185.0230  178.4070  138.0300 C   0  0  0  0  0  3  0  0  0  0  0  0
  183.6700  178.9460  139.9900 C   0  0  0  0  0  0  0  0  0  0  0  0
  183.5950  179.1370  141.3350 N   0  0  0  0  0  0  0  0  0  0  0  0
  186.2600  178.0730  137.4750 C   0  0  0  0  0  3  0  0  0  0  0  0
  184.5520  179.2170  143.6040 C   0  0  1  0  0  3  0  0  0  0  0  0
  183.0830  179.2460  143.9920 C   0  0  0  0  0  1  0  0  0  0  0  0
  185.2870  178.1260  144.3710 C   0  0  0  0  0  2  0  0  0  0  0  0
  185.4120  178.4690  145.8200 C   0  0  0  0  0  0  0  0  0  0  0  0
  184.4220  178.4870  146.5350 O   0  0  0  0  0  0  0  0  0  0  0  0
  186.7560  178.7880  146.3890 C   0  0  0  0  0  2  0  0  0  0  0  0
  187.4480  177.5230  146.9020 C   0  0  2  0  0  3  0  0  0  0  0  0
  189.9670  177.7140  148.1270 C   0  0  0  0  0  2  0  0  0  0  0  0
  187.5530  177.5050  148.3130 O   0  0  0  0  0  0  0  0  0  0  0  0
  188.7910  177.1830  146.2050 C   0  0  2  0  0  3  0  0  0  0  0  0
  189.7420  176.7200  147.1430 O   0  0  0  0  0  0  0  0  0  0  0  0
  188.6590  178.2910  148.6930 C   0  0  0  0  0  2  0  0  0  0  0  0
  189.3260  178.2970  145.4200 N   0  0  0  0  0  2  0  0  0  0  0  0
  190.1830  177.7620  144.4480 N   0  0  0  0  0  0  0  0  0  0  0  0
  190.1710  175.8170  142.9680 C   0  0  0  0  0  2  0  0  0  0  0  0
  191.7470  177.7570  142.8560 C   0  0  0  0  0  3  0  0  0  0  0  0
  191.5810  176.3120  143.2470 C   0  0  1  0  0  3  0  0  0  0  0  0
  190.9610  178.5440  143.5660 C   0  0  0  0  0  3  0  0  0  0  0  0
  190.5180  176.3520  144.3470 C   0  0  1  0  0  3  0  0  0  0  0  0
  182.5300  179.0850  139.1900 O   0  0  0  0  0  0  0  0  0  0  0  0
  179.6320  177.2420  140.6780 C   0  0  0  0  0  3  0  0  0  0  0  0
  179.9650  175.9970  140.3190 C   0  0  0  0  0  0  0  0  0  0  0  0
  181.9890  176.7530  139.1800 C   0  0  0  0  0  3  0  0  0  0  0  0
  180.6060  178.3730  140.4910 C   0  0  0  0  0  2  0  0  0  0  0  0
  181.4530  178.1580  139.2290 C   0  0  1  0  0  3  0  0  0  0  0  0
  181.2620  175.7380  139.6610 C   0  0  0  0  0  3  0  0  0  0  0  0
  179.0570  174.5630  141.9580 O   0  0  0  0  0  1  0  0  0  0  0  0
  179.0330  174.8690  140.5970 C   0  0  0  0  0  2  0  0  0  0  0  0
  1  5  1  0  0  0  0
  2 13  1  0  0  0  0
  2 11  1  0  0  0  0
  3 16  1  0  0  0  0
  4  7  1  0  0  0  0
  5  9  2  0  0  0  0
  6  1  1  0  0  0  0
  7 11  2  0  0  0  0
  7  9  1  0  0  0  0
  8  4  1  0  0  0  0
  8  1  2  0  0  0  0
 10  3  2  0  0  0  0
 11 10  1  0  0  0  0
 12  2  2  0  0  0  0
 13 14  2  0  0  0  0
 14  3  1  0  0  0  0
 15 12  1  0  0  0  0
 15  4  2  0  0  0  0
 16 17  1  1  0  0  0
 16 18  1  0  0  0  0
 18 19  1  0  0  0  0
 19 21  1  0  0  0  0
 19 20  2  0  0  0  0
 22 21  1  6  0  0  0
 22 24  1  0  0  0  0
 23 27  1  0  0  0  0
 24 27  1  0  0  0  0
 25 28  1  1  0  0  0
 25 22  1  0  0  0  0
 25 26  1  0  0  0  0
 26 23  1  0  0  0  0
 29 28  1  0  0  0  0
 30 32  1  0  0  0  0
 31 33  2  0  0  0  0
 32 31  1  6  0  0  0
 32 34  1  0  0  0  0
 33 29  1  0  0  0  0
 34 30  1  6  0  0  0
 34 29  1  0  0  0  0
 35 13  1  0  0  0  0
 37 43  1  0  0  0  0
 37 36  2  0  0  0  0
 38 40  1  0  0  0  0
 38 41  2  0  0  0  0
 39 36  1  0  0  0  0
 40 35  1  1  0  0  0
 40 39  1  0  0  0  0
 41 37  1  0  0  0  0
 43 42  1  0  0  0  0
M  END
>  <MODEL>
8

>  <REMARK>
 VINA RESULT:      -8.4      3.349      7.921
  Name = 
  10 active torsions:
  status: ('A' for Active; 'I' for Inactive)
    1  A    between atoms: O_1  and  C_34
    2  A    between atoms: O_1  and  C_35
    3  A    between atoms: C_2  and  C_6
    4  A    between atoms: C_2  and  C_13
    5  A    between atoms: C_3  and  C_4
    6  A    between atoms: C_3  and  C_12
    7  A    between atoms: C_6  and  C_12
    8  A    between atoms: N_11  and  N_14
    9  A    between atoms: N_14  and  C_22
   10  A    between atoms: C_19  and  C_37
                            x       y       z     vdW  Elec       q    Type
                         _______ _______ _______ _____ _____    ______ ____

>  <TORSDO>
F 10

$$$$
=
 OpenBabel10262422183D

 43 49  0  0  1  0  0  0  0  0999 V2000
  191.4860  176.3710  147.0640 C   0  0  0  0  0  0  0  0  0  0  0  0
  189.3220  177.9400  142.7730 C   0  0  0  0  0  0  0  0  0  0  0  0
  186.6200  178.1170  143.3050 C   0  0  0  0  0  0  0  0  0  0  0  0
  191.0830  177.1080  144.7910 C   0  0  0  0  0  0  0  0  0  0  0  0
  190.1170  176.4510  147.3370 C   0  0  0  0  0  3  0  0  0  0  0  0
  192.4300  175.9320  148.1230 C   0  0  0  0  0  1  0  0  0  0  0  0
  189.6950  177.1930  145.0620 C   0  0  0  0  0  0  0  0  0  0  0  0
  191.9680  176.6980  145.7940 C   0  0  0  0  0  3  0  0  0  0  0  0
  189.2260  176.8610  146.3420 C   0  0  0  0  0  3  0  0  0  0  0  0
  187.4770  177.7030  144.2790 N   0  0  0  0  0  0  0  0  0  0  0  0
  188.8140  177.6090  144.0480 C   0  0  0  0  0  0  0  0  0  0  0  0
  190.6960  177.8490  142.5200 C   0  0  0  0  0  3  0  0  0  0  0  0
  188.4240  178.3550  141.7820 C   0  0  0  0  0  0  0  0  0  0  0  0
  187.0970  178.4340  142.0720 N   0  0  0  0  0  0  0  0  0  0  0  0
  191.5730  177.4350  143.5260 C   0  0  0  0  0  3  0  0  0  0  0  0
  185.1540  178.2110  143.5720 C   0  0  1  0  0  3  0  0  0  0  0  0
  184.9140  178.6270  145.0130 C   0  0  0  0  0  1  0  0  0  0  0  0
  184.4990  179.1950  142.6130 C   0  0  0  0  0  2  0  0  0  0  0  0
  183.1130  178.7650  142.2540 C   0  0  0  0  0  0  0  0  0  0  0  0
  182.1840  178.9830  143.0170 O   0  0  0  0  0  0  0  0  0  0  0  0
  182.8700  178.0670  140.9570 C   0  0  0  0  0  2  0  0  0  0  0  0
  182.5780  179.0730  139.8400 C   0  0  2  0  0  3  0  0  0  0  0  0
  180.7490  178.4110  137.8160 C   0  0  0  0  0  2  0  0  0  0  0  0
  181.2520  179.5630  139.8950 O   0  0  0  0  0  0  0  0  0  0  0  0
  182.9760  178.6040  138.4170 C   0  0  2  0  0  3  0  0  0  0  0  0
  181.9970  178.9850  137.4690 O   0  0  0  0  0  0  0  0  0  0  0  0
  180.3950  178.6160  139.2970 C   0  0  0  0  0  2  0  0  0  0  0  0
  183.2500  177.1680  138.3420 N   0  0  0  0  0  2  0  0  0  0  0  0
  184.0120  176.9380  137.1890 N   0  0  0  0  0  0  0  0  0  0  0  0
  183.5890  176.8650  134.7830 C   0  0  0  0  0  2  0  0  0  0  0  0
  185.8300  176.8900  135.8940 C   0  0  0  0  0  3  0  0  0  0  0  0
  184.8110  176.0490  135.1710 C   0  0  1  0  0  3  0  0  0  0  0  0
  185.3530  177.3550  137.0340 C   0  0  0  0  0  3  0  0  0  0  0  0
  183.5880  176.0890  136.0890 C   0  0  1  0  0  3  0  0  0  0  0  0
  188.8910  178.6840  140.5050 O   0  0  0  0  0  0  0  0  0  0  0  0
  189.7890  176.0120  138.0410 C   0  0  0  0  0  3  0  0  0  0  0  0
  189.4680  176.6500  136.9100 C   0  0  0  0  0  0  0  0  0  0  0  0
  188.7300  178.6410  138.1170 C   0  0  0  0  0  3  0  0  0  0  0  0
  189.8080  176.7520  139.3510 C   0  0  0  0  0  2  0  0  0  0  0  0
  188.7130  177.8280  139.3830 C   0  0  1  0  0  3  0  0  0  0  0  0
  189.0480  178.0660  136.9520 C   0  0  0  0  0  3  0  0  0  0  0  0
  190.8730  175.6000  135.3330 O   0  0  0  0  0  1  0  0  0  0  0  0
  189.5480  175.9350  135.6070 C   0  0  0  0  0  2  0  0  0  0  0  0
  1  5  1  0  0  0  0
  1  6  1  0  0  0  0
  2 11  1  0  0  0  0
  3 16  1  0  0  0  0
  3 10  2  0  0  0  0
  4  7  1  0  0  0  0
  4  8  1  0  0  0  0
  7  9  1  0  0  0  0
  8  1  2  0  0  0  0
  9  5  2  0  0  0  0
 11 10  1  0  0  0  0
 11  7  2  0  0  0  0
 12  2  2  0  0  0  0
 12 15  1  0  0  0  0
 13 14  2  0  0  0  0
 13  2  1  0  0  0  0
 14  3  1  0  0  0  0
 15  4  2  0  0  0  0
 16 17  1  1  0  0  0
 18 16  1  0  0  0  0
 19 18  1  0  0  0  0
 19 20  2  0  0  0  0
 21 19  1  0  0  0  0
 22 24  1  0  0  0  0
 22 21  1  1  0  0  0
 23 27  1  0  0  0  0
 25 28  1  1  0  0  0
 25 22  1  0  0  0  0
 26 23  1  0  0  0  0
 26 25  1  0  0  0  0
 27 24  1  0  0  0  0
 29 28  1  0  0  0  0
 31 33  2  0  0  0  0
 32 30  1  6  0  0  0
 32 31  1  0  0  0  0
 32 34  1  0  0  0  0
 33 29  1  0  0  0  0
 34 30  1  6  0  0  0
 34 29  1  0  0  0  0
 35 13  1  0  0  0  0
 36 39  1  0  0  0  0
 37 41  1  0  0  0  0
 37 36  2  0  0  0  0
 38 40  1  0  0  0  0
 39 40  1  0  0  0  0
 40 35  1  1  0  0  0
 41 38  2  0  0  0  0
 42 43  1  0  0  0  0
 43 37  1  0  0  0  0
M  END
>  <MODEL>
9

>  <REMARK>
 VINA RESULT:      -8.3      2.054      6.367
  Name = 
  10 active torsions:
  status: ('A' for Active; 'I' for Inactive)
    1  A    between atoms: O_1  and  C_34
    2  A    between atoms: O_1  and  C_35
    3  A    between atoms: C_2  and  C_6
    4  A    between atoms: C_2  and  C_13
    5  A    between atoms: C_3  and  C_4
    6  A    between atoms: C_3  and  C_12
    7  A    between atoms: C_6  and  C_12
    8  A    between atoms: N_11  and  N_14
    9  A    between atoms: N_14  and  C_22
   10  A    between atoms: C_19  and  C_37
                            x       y       z     vdW  Elec       q    Type
                         _______ _______ _______ _____ _____    ______ ____

>  <TORSDO>
F 10

$$$$
