=
 OpenBabel10262419553D

 25 28  0  0  0  0  0  0  0  0999 V2000
  187.2870  177.8520  145.3360 C   0  0  0  0  0  0  0  0  0  0  0  0
  188.4640  177.4240  144.7230 C   0  0  0  0  0  3  0  0  0  0  0  0
  187.9090  177.9200  147.8080 C   0  0  0  0  0  3  0  0  0  0  0  0
  186.1410  178.1270  144.5670 C   0  0  0  0  0  0  0  0  0  0  0  0
  183.7090  178.7600  143.3400 C   0  0  0  0  0  3  0  0  0  0  0  0
  189.2330  177.5040  147.8380 C   0  0  0  0  0  3  0  0  0  0  0  0
  185.0520  178.5490  145.3120 C   0  0  0  0  0  0  0  0  0  0  0  0
  183.8270  178.8720  144.7330 C   0  0  0  0  0  3  0  0  0  0  0  0
  191.3220  176.7260  146.7870 C   0  0  0  0  0  0  0  0  0  0  0  0
  192.0290  176.5940  147.8610 N   0  0  0  0  0  2  0  0  0  0  0  0
  189.6690  177.1280  145.3330 C   0  0  0  0  0  0  0  0  0  0  0  0
  184.8030  178.3330  142.5650 C   0  0  0  0  0  3  0  0  0  0  0  0
  187.0610  178.0720  146.7130 C   0  0  0  0  0  0  0  0  0  0  0  0
  185.4680  178.5950  146.9300 S   0  0  0  0  0  0  0  0  0  0  0  0
  191.7810  176.4620  145.5860 O   0  0  0  0  0  0  0  0  0  0  0  0
  186.0260  178.0150  143.1740 C   0  0  0  0  0  3  0  0  0  0  0  0
  190.8340  176.6940  144.7040 C   0  0  0  0  0  0  0  0  0  0  0  0
  190.0090  177.1520  146.7460 C   0  0  0  0  0  0  0  0  0  0  0  0
  191.0320  176.4920  143.3000 N   0  0  0  0  0  2  0  0  0  0  0  0
  191.4130  177.5360  142.3590 C   0  0  0  0  0  2  0  0  0  0  0  0
  191.4930  177.2210  139.8660 C   0  0  0  0  0  0  0  0  0  0  0  0
  190.9010  177.0650  138.7640 O   0  0  0  0  0  0  0  0  0  0  0  0
  192.9160  177.2920  139.8890 N   0  0  0  0  0  1  0  0  0  0  0  0
  189.2890  177.2450  141.0600 C   0  0  0  0  0  1  0  0  0  0  0  0
  190.7410  177.3250  141.0830 N   0  0  0  0  0  0  0  0  0  0  0  0
  1 13  1  0  0  0  0
  2 11  1  0  0  0  0
  2  1  2  0  0  0  0
  3  6  1  0  0  0  0
  4  7  1  0  0  0  0
  4  1  1  0  0  0  0
  5  8  1  0  0  0  0
  7 14  1  0  0  0  0
  8  7  2  0  0  0  0
  9 10  2  0  0  0  0
 11 18  1  0  0  0  0
 12 16  1  0  0  0  0
 12  5  2  0  0  0  0
 13 14  1  0  0  0  0
 13  3  2  0  0  0  0
 15  9  1  0  0  0  0
 16  4  2  0  0  0  0
 17 11  2  0  0  0  0
 17 15  1  0  0  0  0
 18  9  1  0  0  0  0
 18  6  2  0  0  0  0
 19 17  1  0  0  0  0
 20 19  1  0  0  0  0
 21 23  1  0  0  0  0
 21 25  1  0  0  0  0
 22 21  2  0  0  0  0
 24 25  1  0  0  0  0
 25 20  1  0  0  0  0
M  END
>  <MODEL>
1

>  <REMARK>
 VINA RESULT:     -11.0      0.000      0.000
  Name = 
  3 active torsions:
  status: ('A' for Active; 'I' for Inactive)
    1  A    between atoms: N_6  and  C_15
    2  A    between atoms: N_6  and  C_23
    3  A    between atoms: C_15  and  N_25
                            x       y       z     vdW  Elec       q    Type
                         _______ _______ _______ _____ _____    ______ ____

>  <TORSDO>
F 3

$$$$
=
 OpenBabel10262419553D

 25 28  0  0  0  0  0  0  0  0999 V2000
  186.9980  177.8660  144.8880 C   0  0  0  0  0  0  0  0  0  0  0  0
  188.0230  177.4010  144.0660 C   0  0  0  0  0  3  0  0  0  0  0  0
  188.0660  177.8780  147.2040 C   0  0  0  0  0  3  0  0  0  0  0  0
  185.7410  178.1950  144.3450 C   0  0  0  0  0  0  0  0  0  0  0  0
  183.1530  178.9380  143.5920 C   0  0  0  0  0  3  0  0  0  0  0  0
  189.3550  177.4100  146.9850 C   0  0  0  0  0  3  0  0  0  0  0  0
  184.8270  178.6490  145.2810 C   0  0  0  0  0  0  0  0  0  0  0  0
  183.5300  179.0260  144.9400 C   0  0  0  0  0  3  0  0  0  0  0  0
  191.1830  176.5660  145.5630 C   0  0  0  0  0  0  0  0  0  0  0  0
  192.0690  176.3930  146.4870 N   0  0  0  0  0  2  0  0  0  0  0  0
  189.3080  177.0510  144.4410 C   0  0  0  0  0  0  0  0  0  0  0  0
  184.0670  178.4790  142.6260 C   0  0  0  0  0  3  0  0  0  0  0  0
  187.0390  178.0770  146.2850 C   0  0  0  0  0  0  0  0  0  0  0  0
  185.5350  178.6580  146.7950 S   0  0  0  0  0  0  0  0  0  0  0  0
  191.4010  176.3000  144.2960 O   0  0  0  0  0  0  0  0  0  0  0  0
  185.3680  178.1060  142.9970 C   0  0  0  0  0  3  0  0  0  0  0  0
  190.3180  176.5800  143.6060 C   0  0  0  0  0  0  0  0  0  0  0  0
  189.9030  177.0430  145.7680 C   0  0  0  0  0  0  0  0  0  0  0  0
  190.2460  176.3890  142.1870 N   0  0  0  0  0  2  0  0  0  0  0  0
  190.1950  177.4660  141.2090 C   0  0  0  0  0  2  0  0  0  0  0  0
  190.8960  176.7570  138.9010 C   0  0  0  0  0  0  0  0  0  0  0  0
  191.8000  176.5650  138.0440 O   0  0  0  0  0  0  0  0  0  0  0  0
  189.5430  176.4620  138.5650 N   0  0  0  0  0  1  0  0  0  0  0  0
  192.6070  177.5780  140.5390 C   0  0  0  0  0  1  0  0  0  0  0  0
  191.2270  177.2700  140.1990 N   0  0  0  0  0  0  0  0  0  0  0  0
  1 13  1  0  0  0  0
  2 11  1  0  0  0  0
  2  1  2  0  0  0  0
  4  1  1  0  0  0  0
  4  7  1  0  0  0  0
  5  8  1  0  0  0  0
  6  3  1  0  0  0  0
  7 14  1  0  0  0  0
  8  7  2  0  0  0  0
  9 18  1  0  0  0  0
  9 10  2  0  0  0  0
 11 18  1  0  0  0  0
 12 16  1  0  0  0  0
 12  5  2  0  0  0  0
 13 14  1  0  0  0  0
 13  3  2  0  0  0  0
 15  9  1  0  0  0  0
 16  4  2  0  0  0  0
 17 15  1  0  0  0  0
 17 11  2  0  0  0  0
 18  6  2  0  0  0  0
 19 17  1  0  0  0  0
 20 19  1  0  0  0  0
 21 25  1  0  0  0  0
 22 21  2  0  0  0  0
 23 21  1  0  0  0  0
 25 24  1  0  0  0  0
 25 20  1  0  0  0  0
M  END
>  <MODEL>
2

>  <REMARK>
 VINA RESULT:     -10.3      1.067      1.369
  Name = 
  3 active torsions:
  status: ('A' for Active; 'I' for Inactive)
    1  A    between atoms: N_6  and  C_15
    2  A    between atoms: N_6  and  C_23
    3  A    between atoms: C_15  and  N_25
                            x       y       z     vdW  Elec       q    Type
                         _______ _______ _______ _____ _____    ______ ____

>  <TORSDO>
F 3

$$$$
=
 OpenBabel10262419553D

 25 28  0  0  0  0  0  0  0  0999 V2000
  188.0130  177.6310  145.5330 C   0  0  0  0  0  0  0  0  0  0  0  0
  187.5940  177.8070  144.2150 C   0  0  0  0  0  3  0  0  0  0  0  0
  185.9340  178.2180  146.8880 C   0  0  0  0  0  3  0  0  0  0  0  0
  189.3280  177.2150  145.8150 C   0  0  0  0  0  0  0  0  0  0  0  0
  191.8470  176.3980  146.7110 C   0  0  0  0  0  3  0  0  0  0  0  0
  184.9870  178.5540  145.9300 C   0  0  0  0  0  3  0  0  0  0  0  0
  189.5950  177.0760  147.1670 C   0  0  0  0  0  0  0  0  0  0  0  0
  190.8390  176.6720  147.6470 C   0  0  0  0  0  3  0  0  0  0  0  0
  184.2220  178.8960  143.6120 C   0  0  0  0  0  0  0  0  0  0  0  0
  183.0170  179.2820  143.8730 N   0  0  0  0  0  2  0  0  0  0  0  0
  186.3410  178.1950  143.7760 C   0  0  0  0  0  0  0  0  0  0  0  0
  191.5960  176.5340  145.3340 C   0  0  0  0  0  3  0  0  0  0  0  0
  187.2550  177.8140  146.7120 C   0  0  0  0  0  0  0  0  0  0  0  0
  188.2280  177.4590  148.0480 S   0  0  0  0  0  0  0  0  0  0  0  0
  184.6980  178.7900  142.3930 O   0  0  0  0  0  0  0  0  0  0  0  0
  190.3340  176.9420  144.8770 C   0  0  0  0  0  3  0  0  0  0  0  0
  185.9440  178.3740  142.4530 C   0  0  0  0  0  0  0  0  0  0  0  0
  185.1670  178.5470  144.5570 C   0  0  0  0  0  0  0  0  0  0  0  0
  186.7360  178.1670  141.2780 N   0  0  0  0  0  2  0  0  0  0  0  0
  187.9600  178.8940  140.9660 C   0  0  0  0  0  2  0  0  0  0  0  0
  189.3700  178.1390  139.0270 C   0  0  0  0  0  0  0  0  0  0  0  0
  190.2010  177.3320  138.5280 O   0  0  0  0  0  0  0  0  0  0  0  0
  188.8640  179.2020  138.2260 N   0  0  0  0  0  1  0  0  0  0  0  0
  189.4660  176.9050  141.2070 C   0  0  0  0  0  1  0  0  0  0  0  0
  188.9420  177.9870  140.3880 N   0  0  0  0  0  0  0  0  0  0  0  0
  1  4  1  0  0  0  0
  1 13  1  0  0  0  0
  2  1  2  0  0  0  0
  4  7  1  0  0  0  0
  5  8  1  0  0  0  0
  6  3  1  0  0  0  0
  7  8  2  0  0  0  0
  7 14  1  0  0  0  0
  9 10  2  0  0  0  0
  9 18  1  0  0  0  0
 11  2  1  0  0  0  0
 11 18  1  0  0  0  0
 12  5  2  0  0  0  0
 13  3  2  0  0  0  0
 13 14  1  0  0  0  0
 15 17  1  0  0  0  0
 15  9  1  0  0  0  0
 16 12  1  0  0  0  0
 16  4  2  0  0  0  0
 17 11  2  0  0  0  0
 18  6  2  0  0  0  0
 19 17  1  0  0  0  0
 20 19  1  0  0  0  0
 21 25  1  0  0  0  0
 22 21  2  0  0  0  0
 23 21  1  0  0  0  0
 25 20  1  0  0  0  0
 25 24  1  0  0  0  0
M  END
>  <MODEL>
3

>  <REMARK>
 VINA RESULT:     -10.1      2.768      5.256
  Name = 
  3 active torsions:
  status: ('A' for Active; 'I' for Inactive)
    1  A    between atoms: N_6  and  C_15
    2  A    between atoms: N_6  and  C_23
    3  A    between atoms: C_15  and  N_25
                            x       y       z     vdW  Elec       q    Type
                         _______ _______ _______ _____ _____    ______ ____

>  <TORSDO>
F 3

$$$$
=
 OpenBabel10262419553D

 25 28  0  0  0  0  0  0  0  0999 V2000
  188.3310  177.6990  144.3000 C   0  0  0  0  0  0  0  0  0  0  0  0
  188.5620  177.8720  142.9360 C   0  0  0  0  0  3  0  0  0  0  0  0
  185.8420  178.1970  144.5390 C   0  0  0  0  0  3  0  0  0  0  0  0
  189.3830  177.3290  145.1590 C   0  0  0  0  0  0  0  0  0  0  0  0
  191.2330  176.5970  147.1240 C   0  0  0  0  0  3  0  0  0  0  0  0
  185.4320  178.5070  143.2490 C   0  0  0  0  0  3  0  0  0  0  0  0
  189.0020  177.1870  146.4840 C   0  0  0  0  0  0  0  0  0  0  0  0
  189.8980  176.8250  147.4860 C   0  0  0  0  0  3  0  0  0  0  0  0
  185.8100  178.8420  140.8370 C   0  0  0  0  0  0  0  0  0  0  0  0
  184.6070  179.1820  140.5090 N   0  0  0  0  0  2  0  0  0  0  0  0
  187.6390  178.2180  141.9650 C   0  0  0  0  0  0  0  0  0  0  0  0
  191.6410  176.7360  145.7850 C   0  0  0  0  0  3  0  0  0  0  0  0
  187.1100  177.8430  144.9950 C   0  0  0  0  0  0  0  0  0  0  0  0
  187.3690  177.5120  146.6320 S   0  0  0  0  0  0  0  0  0  0  0  0
  186.7970  178.7660  139.9750 O   0  0  0  0  0  0  0  0  0  0  0  0
  190.7170  177.1020  144.7940 C   0  0  0  0  0  3  0  0  0  0  0  0
  187.8900  178.3950  140.6060 C   0  0  0  0  0  0  0  0  0  0  0  0
  186.2250  178.5190  142.1140 C   0  0  0  0  0  0  0  0  0  0  0  0
  189.1420  178.2280  139.9310 N   0  0  0  0  0  2  0  0  0  0  0  0
  189.7430  176.9420  139.6080 C   0  0  0  0  0  2  0  0  0  0  0  0
  192.0440  176.6970  138.6250 C   0  0  0  0  0  0  0  0  0  0  0  0
  193.2980  176.7470  138.7500 O   0  0  0  0  0  0  0  0  0  0  0  0
  191.4840  176.3130  137.3720 N   0  0  0  0  0  1  0  0  0  0  0  0
  191.7650  177.4240  141.0070 C   0  0  0  0  0  1  0  0  0  0  0  0
  191.1930  177.0260  139.7320 N   0  0  0  0  0  0  0  0  0  0  0  0
  1 13  1  0  0  0  0
  1  4  1  0  0  0  0
  2  1  2  0  0  0  0
  3 13  2  0  0  0  0
  4  7  1  0  0  0  0
  5  8  1  0  0  0  0
  6  3  1  0  0  0  0
  7 14  1  0  0  0  0
  7  8  2  0  0  0  0
  9 18  1  0  0  0  0
 10  9  2  0  0  0  0
 11 18  1  0  0  0  0
 11  2  1  0  0  0  0
 12  5  2  0  0  0  0
 13 14  1  0  0  0  0
 15 17  1  0  0  0  0
 15  9  1  0  0  0  0
 16  4  2  0  0  0  0
 16 12  1  0  0  0  0
 17 11  2  0  0  0  0
 18  6  2  0  0  0  0
 19 17  1  0  0  0  0
 20 25  1  0  0  0  0
 20 19  1  0  0  0  0
 21 22  2  0  0  0  0
 21 25  1  0  0  0  0
 23 21  1  0  0  0  0
 25 24  1  0  0  0  0
M  END
>  <MODEL>
4

>  <REMARK>
 VINA RESULT:      -9.9      2.611      5.251
  Name = 
  3 active torsions:
  status: ('A' for Active; 'I' for Inactive)
    1  A    between atoms: N_6  and  C_15
    2  A    between atoms: N_6  and  C_23
    3  A    between atoms: C_15  and  N_25
                            x       y       z     vdW  Elec       q    Type
                         _______ _______ _______ _____ _____    ______ ____

>  <TORSDO>
F 3

$$$$
=
 OpenBabel10262419553D

 25 28  0  0  0  0  0  0  0  0999 V2000
  186.7990  178.2200  144.5810 C   0  0  0  0  0  0  0  0  0  0  0  0
  187.3450  178.2620  143.2990 C   0  0  0  0  0  3  0  0  0  0  0  0
  184.3310  178.7240  144.1810 C   0  0  0  0  0  3  0  0  0  0  0  0
  187.6140  177.9430  145.6950 C   0  0  0  0  0  0  0  0  0  0  0  0
  188.9400  177.4160  148.1000 C   0  0  0  0  0  3  0  0  0  0  0  0
  184.2400  178.9040  142.8080 C   0  0  0  0  0  3  0  0  0  0  0  0
  186.9310  177.9270  146.9010 C   0  0  0  0  0  0  0  0  0  0  0  0
  187.5610  177.6700  148.1160 C   0  0  0  0  0  3  0  0  0  0  0  0
  185.1770  179.0060  140.5300 C   0  0  0  0  0  0  0  0  0  0  0  0
  184.0910  179.3040  139.8980 N   0  0  0  0  0  2  0  0  0  0  0  0
  186.6810  178.5060  142.1110 C   0  0  0  0  0  0  0  0  0  0  0  0
  189.6520  177.4270  146.8870 C   0  0  0  0  0  3  0  0  0  0  0  0
  185.4510  178.4240  144.9540 C   0  0  0  0  0  0  0  0  0  0  0  0
  185.3150  178.2540  146.6300 S   0  0  0  0  0  0  0  0  0  0  0  0
  186.3380  178.8520  139.9360 O   0  0  0  0  0  0  0  0  0  0  0  0
  188.9920  177.6890  145.6760 C   0  0  0  0  0  3  0  0  0  0  0  0
  187.2460  178.5510  140.8380 C   0  0  0  0  0  0  0  0  0  0  0  0
  185.2760  178.8110  141.8940 C   0  0  0  0  0  0  0  0  0  0  0  0
  188.6190  178.3270  140.4950 N   0  0  0  0  0  2  0  0  0  0  0  0
  189.2260  177.0150  140.3270 C   0  0  0  0  0  2  0  0  0  0  0  0
  190.3230  176.2240  142.4470 C   0  0  0  0  0  0  0  0  0  0  0  0
  191.3370  176.1530  143.1920 O   0  0  0  0  0  0  0  0  0  0  0  0
  189.1010  175.6290  142.8740 N   0  0  0  0  0  1  0  0  0  0  0  0
  191.6490  177.4990  140.7450 C   0  0  0  0  0  1  0  0  0  0  0  0
  190.4000  176.8980  141.1830 N   0  0  0  0  0  0  0  0  0  0  0  0
  1 13  1  0  0  0  0
  1  4  1  0  0  0  0
  2  1  2  0  0  0  0
  3 13  2  0  0  0  0
  4  7  1  0  0  0  0
  5  8  1  0  0  0  0
  6  3  1  0  0  0  0
  7  8  2  0  0  0  0
  9 18  1  0  0  0  0
 10  9  2  0  0  0  0
 11  2  1  0  0  0  0
 12  5  2  0  0  0  0
 13 14  1  0  0  0  0
 14  7  1  0  0  0  0
 15  9  1  0  0  0  0
 15 17  1  0  0  0  0
 16  4  2  0  0  0  0
 16 12  1  0  0  0  0
 17 11  2  0  0  0  0
 18 11  1  0  0  0  0
 18  6  2  0  0  0  0
 19 17  1  0  0  0  0
 20 19  1  0  0  0  0
 20 25  1  0  0  0  0
 21 23  1  0  0  0  0
 21 22  2  0  0  0  0
 24 25  1  0  0  0  0
 25 21  1  0  0  0  0
M  END
>  <MODEL>
5

>  <REMARK>
 VINA RESULT:      -9.6      2.148      5.325
  Name = 
  3 active torsions:
  status: ('A' for Active; 'I' for Inactive)
    1  A    between atoms: N_6  and  C_15
    2  A    between atoms: N_6  and  C_23
    3  A    between atoms: C_15  and  N_25
                            x       y       z     vdW  Elec       q    Type
                         _______ _______ _______ _____ _____    ______ ____

>  <TORSDO>
F 3

$$$$
=
 OpenBabel10262419553D

 25 28  0  0  0  0  0  0  0  0999 V2000
  188.2740  177.6790  144.3420 C   0  0  0  0  0  0  0  0  0  0  0  0
  188.4400  177.7910  142.9620 C   0  0  0  0  0  3  0  0  0  0  0  0
  185.8360  178.3380  144.6910 C   0  0  0  0  0  3  0  0  0  0  0  0
  189.3470  177.2740  145.1590 C   0  0  0  0  0  0  0  0  0  0  0  0
  191.2530  176.4960  147.0500 C   0  0  0  0  0  3  0  0  0  0  0  0
  185.3760  178.6290  143.4140 C   0  0  0  0  0  3  0  0  0  0  0  0
  189.0300  177.2010  146.5060 C   0  0  0  0  0  0  0  0  0  0  0  0
  189.9560  176.8180  147.4730 C   0  0  0  0  0  3  0  0  0  0  0  0
  185.6420  178.8570  140.9740 C   0  0  0  0  0  0  0  0  0  0  0  0
  184.4450  179.2590  140.6970 N   0  0  0  0  0  2  0  0  0  0  0  0
  187.4890  178.1600  142.0290 C   0  0  0  0  0  0  0  0  0  0  0  0
  191.5950  176.5630  145.6880 C   0  0  0  0  0  3  0  0  0  0  0  0
  187.1030  177.9220  145.0940 C   0  0  0  0  0  0  0  0  0  0  0  0
  187.4310  177.6310  146.7270 S   0  0  0  0  0  0  0  0  0  0  0  0
  186.5750  178.6900  140.0660 O   0  0  0  0  0  0  0  0  0  0  0  0
  190.6430  176.9520  144.7330 C   0  0  0  0  0  3  0  0  0  0  0  0
  187.6760  178.2740  140.6530 C   0  0  0  0  0  0  0  0  0  0  0  0
  186.1050  178.5530  142.2400 C   0  0  0  0  0  0  0  0  0  0  0  0
  188.8770  178.0070  139.9200 N   0  0  0  0  0  2  0  0  0  0  0  0
  189.3250  178.7650  138.7600 C   0  0  0  0  0  2  0  0  0  0  0  0
  188.2750  178.1020  136.5740 C   0  0  0  0  0  0  0  0  0  0  0  0
  188.2380  177.3500  135.5630 O   0  0  0  0  0  0  0  0  0  0  0  0
  187.3000  179.1310  136.7130 N   0  0  0  0  0  1  0  0  0  0  0  0
  190.2890  176.8760  137.4250 C   0  0  0  0  0  1  0  0  0  0  0  0
  189.2900  177.9230  137.5720 N   0  0  0  0  0  0  0  0  0  0  0  0
  1 13  1  0  0  0  0
  1  4  1  0  0  0  0
  2  1  2  0  0  0  0
  3 13  2  0  0  0  0
  4  7  1  0  0  0  0
  5  8  1  0  0  0  0
  6  3  1  0  0  0  0
  7 14  1  0  0  0  0
  7  8  2  0  0  0  0
  9 18  1  0  0  0  0
 10  9  2  0  0  0  0
 11 18  1  0  0  0  0
 11  2  1  0  0  0  0
 12  5  2  0  0  0  0
 13 14  1  0  0  0  0
 15 17  1  0  0  0  0
 15  9  1  0  0  0  0
 16  4  2  0  0  0  0
 16 12  1  0  0  0  0
 17 11  2  0  0  0  0
 18  6  2  0  0  0  0
 19 17  1  0  0  0  0
 20 19  1  0  0  0  0
 21 23  1  0  0  0  0
 21 25  1  0  0  0  0
 22 21  2  0  0  0  0
 24 25  1  0  0  0  0
 25 20  1  0  0  0  0
M  END
>  <MODEL>
6

>  <REMARK>
 VINA RESULT:      -9.6      3.079      5.603
  Name = 
  3 active torsions:
  status: ('A' for Active; 'I' for Inactive)
    1  A    between atoms: N_6  and  C_15
    2  A    between atoms: N_6  and  C_23
    3  A    between atoms: C_15  and  N_25
                            x       y       z     vdW  Elec       q    Type
                         _______ _______ _______ _____ _____    ______ ____

>  <TORSDO>
F 3

$$$$
=
 OpenBabel10262419553D

 25 28  0  0  0  0  0  0  0  0999 V2000
  186.4740  177.9670  144.0710 C   0  0  0  0  0  0  0  0  0  0  0  0
  187.4440  177.5790  143.1480 C   0  0  0  0  0  3  0  0  0  0  0  0
  187.7230  177.8980  146.2940 C   0  0  0  0  0  3  0  0  0  0  0  0
  185.1690  178.2800  143.6460 C   0  0  0  0  0  0  0  0  0  0  0  0
  182.5090  178.9720  143.1380 C   0  0  0  0  0  3  0  0  0  0  0  0
  189.0040  177.4860  145.9510 C   0  0  0  0  0  3  0  0  0  0  0  0
  184.3190  178.6550  144.6740 C   0  0  0  0  0  0  0  0  0  0  0  0
  182.9890  179.0040  144.4550 C   0  0  0  0  0  3  0  0  0  0  0  0
  190.7370  176.7780  144.3470 C   0  0  0  0  0  0  0  0  0  0  0  0
  191.6990  176.5880  145.1890 N   0  0  0  0  0  2  0  0  0  0  0  0
  188.7650  177.2550  143.4030 C   0  0  0  0  0  0  0  0  0  0  0  0
  183.3560  178.5940  142.0800 C   0  0  0  0  0  3  0  0  0  0  0  0
  186.6200  178.1080  145.4700 C   0  0  0  0  0  0  0  0  0  0  0  0
  185.1450  178.6110  146.1250 S   0  0  0  0  0  0  0  0  0  0  0  0
  190.8620  176.5840  143.0550 O   0  0  0  0  0  0  0  0  0  0  0  0
  184.6930  178.2460  142.3280 C   0  0  0  0  0  3  0  0  0  0  0  0
  189.7190  176.8620  142.4670 C   0  0  0  0  0  0  0  0  0  0  0  0
  189.4630  177.2000  144.6760 C   0  0  0  0  0  0  0  0  0  0  0  0
  189.5400  176.7400  141.0510 N   0  0  0  0  0  2  0  0  0  0  0  0
  189.4400  177.8640  140.1300 C   0  0  0  0  0  2  0  0  0  0  0  0
  187.5560  177.7890  138.4670 C   0  0  0  0  0  0  0  0  0  0  0  0
  187.0750  177.3750  137.3780 O   0  0  0  0  0  0  0  0  0  0  0  0
  186.7660  178.6310  139.3020 N   0  0  0  0  0  1  0  0  0  0  0  0
  189.6930  176.5640  138.0020 C   0  0  0  0  0  1  0  0  0  0  0  0
  188.8850  177.4170  138.8590 N   0  0  0  0  0  0  0  0  0  0  0  0
  1 13  1  0  0  0  0
  2 11  1  0  0  0  0
  2  1  2  0  0  0  0
  4  1  1  0  0  0  0
  4  7  1  0  0  0  0
  5  8  1  0  0  0  0
  6  3  1  0  0  0  0
  7 14  1  0  0  0  0
  8  7  2  0  0  0  0
  9 18  1  0  0  0  0
  9 10  2  0  0  0  0
 11 18  1  0  0  0  0
 12 16  1  0  0  0  0
 12  5  2  0  0  0  0
 13 14  1  0  0  0  0
 13  3  2  0  0  0  0
 15  9  1  0  0  0  0
 16  4  2  0  0  0  0
 17 15  1  0  0  0  0
 17 11  2  0  0  0  0
 18  6  2  0  0  0  0
 19 17  1  0  0  0  0
 20 19  1  0  0  0  0
 21 25  1  0  0  0  0
 21 23  1  0  0  0  0
 22 21  2  0  0  0  0
 24 25  1  0  0  0  0
 25 20  1  0  0  0  0
M  END
>  <MODEL>
7

>  <REMARK>
 VINA RESULT:      -9.6      1.928      2.605
  Name = 
  3 active torsions:
  status: ('A' for Active; 'I' for Inactive)
    1  A    between atoms: N_6  and  C_15
    2  A    between atoms: N_6  and  C_23
    3  A    between atoms: C_15  and  N_25
                            x       y       z     vdW  Elec       q    Type
                         _______ _______ _______ _____ _____    ______ ____

>  <TORSDO>
F 3

$$$$
=
 OpenBabel10262419553D

 25 28  0  0  0  0  0  0  0  0999 V2000
  187.8120  177.6950  145.3850 C   0  0  0  0  0  0  0  0  0  0  0  0
  187.3300  177.9090  144.0950 C   0  0  0  0  0  3  0  0  0  0  0  0
  185.7880  178.1920  146.8550 C   0  0  0  0  0  3  0  0  0  0  0  0
  189.1470  177.2970  145.5910 C   0  0  0  0  0  0  0  0  0  0  0  0
  191.7200  176.5010  146.3420 C   0  0  0  0  0  3  0  0  0  0  0  0
  184.7920  178.5410  145.9530 C   0  0  0  0  0  3  0  0  0  0  0  0
  189.4790  177.1160  146.9240 C   0  0  0  0  0  0  0  0  0  0  0  0
  190.7510  176.7210  147.3310 C   0  0  0  0  0  3  0  0  0  0  0  0
  183.9140  178.9490  143.6870 C   0  0  0  0  0  0  0  0  0  0  0  0
  182.7150  179.3010  144.0150 N   0  0  0  0  0  2  0  0  0  0  0  0
  186.0510  178.2870  143.7280 C   0  0  0  0  0  0  0  0  0  0  0  0
  191.4030  176.6790  144.9830 C   0  0  0  0  0  3  0  0  0  0  0  0
  187.1070  177.8210  146.6030 C   0  0  0  0  0  0  0  0  0  0  0  0
  188.1480  177.4390  147.8800 S   0  0  0  0  0  0  0  0  0  0  0  0
  184.3340  178.8970  142.4440 O   0  0  0  0  0  0  0  0  0  0  0  0
  190.1130  177.0780  144.5990 C   0  0  0  0  0  3  0  0  0  0  0  0
  185.5890  178.5040  142.4320 C   0  0  0  0  0  0  0  0  0  0  0  0
  184.9080  178.5860  144.5740 C   0  0  0  0  0  0  0  0  0  0  0  0
  186.3300  178.3550  141.2150 N   0  0  0  0  0  2  0  0  0  0  0  0
  185.8020  178.6280  139.8850 C   0  0  0  0  0  2  0  0  0  0  0  0
  186.2380  177.6110  137.6280 C   0  0  0  0  0  0  0  0  0  0  0  0
  187.0440  177.1610  136.7690 O   0  0  0  0  0  0  0  0  0  0  0  0
  184.8420  177.5990  137.3470 N   0  0  0  0  0  1  0  0  0  0  0  0
  188.1510  178.1520  139.1550 C   0  0  0  0  0  1  0  0  0  0  0  0
  186.7250  178.1330  138.8730 N   0  0  0  0  0  0  0  0  0  0  0  0
  1  4  1  0  0  0  0
  1 13  1  0  0  0  0
  2  1  2  0  0  0  0
  4  7  1  0  0  0  0
  5  8  1  0  0  0  0
  6  3  1  0  0  0  0
  7  8  2  0  0  0  0
  7 14  1  0  0  0  0
  9 10  2  0  0  0  0
  9 18  1  0  0  0  0
 11  2  1  0  0  0  0
 11 18  1  0  0  0  0
 12  5  2  0  0  0  0
 13  3  2  0  0  0  0
 13 14  1  0  0  0  0
 15  9  1  0  0  0  0
 16 12  1  0  0  0  0
 16  4  2  0  0  0  0
 17 15  1  0  0  0  0
 17 11  2  0  0  0  0
 18  6  2  0  0  0  0
 19 17  1  0  0  0  0
 20 19  1  0  0  0  0
 21 25  1  0  0  0  0
 22 21  2  0  0  0  0
 23 21  1  0  0  0  0
 25 24  1  0  0  0  0
 25 20  1  0  0  0  0
M  END
>  <MODEL>
8

>  <REMARK>
 VINA RESULT:      -9.4      3.490      5.799
  Name = 
  3 active torsions:
  status: ('A' for Active; 'I' for Inactive)
    1  A    between atoms: N_6  and  C_15
    2  A    between atoms: N_6  and  C_23
    3  A    between atoms: C_15  and  N_25
                            x       y       z     vdW  Elec       q    Type
                         _______ _______ _______ _____ _____    ______ ____

>  <TORSDO>
F 3

$$$$
=
 OpenBabel10262419553D

 25 28  0  0  0  0  0  0  0  0999 V2000
  185.6230  178.0890  143.6700 C   0  0  0  0  0  0  0  0  0  0  0  0
  186.7930  177.6370  143.0620 C   0  0  0  0  0  3  0  0  0  0  0  0
  186.2880  178.3090  146.1220 C   0  0  0  0  0  3  0  0  0  0  0  0
  184.4600  178.3060  142.9080 C   0  0  0  0  0  0  0  0  0  0  0  0
  181.9990  178.8420  141.6920 C   0  0  0  0  0  3  0  0  0  0  0  0
  187.6170  177.9080  146.1510 C   0  0  0  0  0  3  0  0  0  0  0  0
  183.3800  178.7610  143.6480 C   0  0  0  0  0  0  0  0  0  0  0  0
  182.1420  179.0370  143.0730 C   0  0  0  0  0  3  0  0  0  0  0  0
  189.6960  177.0900  145.1090 C   0  0  0  0  0  0  0  0  0  0  0  0
  190.4230  177.0290  146.1750 N   0  0  0  0  0  2  0  0  0  0  0  0
  188.0120  177.3890  143.6650 C   0  0  0  0  0  0  0  0  0  0  0  0
  183.0830  178.3800  140.9230 C   0  0  0  0  0  3  0  0  0  0  0  0
  185.4190  178.3880  145.0360 C   0  0  0  0  0  0  0  0  0  0  0  0
  183.8250  178.9070  145.2520 S   0  0  0  0  0  0  0  0  0  0  0  0
  190.1360  176.7600  143.9170 O   0  0  0  0  0  0  0  0  0  0  0  0
  184.3210  178.1100  141.5270 C   0  0  0  0  0  3  0  0  0  0  0  0
  189.1700  176.9300  143.0410 C   0  0  0  0  0  0  0  0  0  0  0  0
  188.3770  177.5000  145.0680 C   0  0  0  0  0  0  0  0  0  0  0  0
  189.3450  176.6470  141.6470 N   0  0  0  0  0  2  0  0  0  0  0  0
  189.7460  177.6270  140.6480 C   0  0  0  0  0  2  0  0  0  0  0  0
  188.2010  177.5370  138.6670 C   0  0  0  0  0  0  0  0  0  0  0  0
  187.9140  177.0890  137.5240 O   0  0  0  0  0  0  0  0  0  0  0  0
  187.3060  178.4430  139.3050 N   0  0  0  0  0  1  0  0  0  0  0  0
  190.3350  176.2220  138.6590 C   0  0  0  0  0  1  0  0  0  0  0  0
  189.4180  177.1400  139.3150 N   0  0  0  0  0  0  0  0  0  0  0  0
  1 13  1  0  0  0  0
  2 11  1  0  0  0  0
  2  1  2  0  0  0  0
  3  6  1  0  0  0  0
  4  7  1  0  0  0  0
  4  1  1  0  0  0  0
  5  8  1  0  0  0  0
  7 14  1  0  0  0  0
  8  7  2  0  0  0  0
  9 10  2  0  0  0  0
 11 18  1  0  0  0  0
 12 16  1  0  0  0  0
 12  5  2  0  0  0  0
 13 14  1  0  0  0  0
 13  3  2  0  0  0  0
 15  9  1  0  0  0  0
 16  4  2  0  0  0  0
 17 11  2  0  0  0  0
 17 15  1  0  0  0  0
 18  9  1  0  0  0  0
 18  6  2  0  0  0  0
 19 17  1  0  0  0  0
 20 19  1  0  0  0  0
 21 23  1  0  0  0  0
 21 25  1  0  0  0  0
 22 21  2  0  0  0  0
 24 25  1  0  0  0  0
 25 20  1  0  0  0  0
M  END
>  <MODEL>
9

>  <REMARK>
 VINA RESULT:      -9.2      1.858      2.692
  Name = 
  3 active torsions:
  status: ('A' for Active; 'I' for Inactive)
    1  A    between atoms: N_6  and  C_15
    2  A    between atoms: N_6  and  C_23
    3  A    between atoms: C_15  and  N_25
                            x       y       z     vdW  Elec       q    Type
                         _______ _______ _______ _____ _____    ______ ____

>  <TORSDO>
F 3

$$$$
