=
 OpenBabel10262419463D

 25 27  0  0  1  0  0  0  0  0999 V2000
  187.2470  177.7280  145.9320 N   0  0  0  0  0  0  0  0  0  0  0  0
  188.6440  177.7450  145.4670 C   0  0  2  0  0  3  0  0  0  0  0  0
  187.9010  177.3010  148.1670 C   0  0  0  0  0  3  0  0  0  0  0  0
  189.2350  177.0250  147.7320 N   0  0  0  0  0  0  0  0  0  0  0  0
  190.9390  176.7720  146.0380 C   0  0  0  0  0  0  0  0  0  0  0  0
  192.0710  176.6330  146.9970 C   0  0  0  0  0  1  0  0  0  0  0  0
  188.8230  177.0540  144.1360 C   0  0  0  0  0  3  0  0  0  0  0  0
  186.9780  177.6170  147.3110 N   0  0  0  0  0  0  0  0  0  0  0  0
  191.1230  176.4660  144.7510 C   0  0  0  0  0  3  0  0  0  0  0  0
  190.0010  176.5230  143.7850 C   0  0  0  0  0  0  0  0  0  0  0  0
  189.5930  177.1740  146.4930 C   0  0  0  0  0  0  0  0  0  0  0  0
  186.1760  178.1430  145.0600 C   0  0  0  0  0  0  0  0  0  0  0  0
  184.1160  178.9650  143.3330 C   0  0  0  0  0  3  0  0  0  0  0  0
  185.0590  178.8420  145.5630 C   0  0  0  0  0  0  0  0  0  0  0  0
  184.0390  179.2500  144.6970 C   0  0  0  0  0  3  0  0  0  0  0  0
  185.2140  178.2690  142.8260 C   0  0  0  0  0  3  0  0  0  0  0  0
  184.9440  179.1220  146.9190 O   0  0  0  0  0  1  0  0  0  0  0  0
  186.2380  177.8620  143.6840 C   0  0  0  0  0  3  0  0  0  0  0  0
  190.1760  175.9480  142.4210 C   0  0  0  0  0  2  0  0  0  0  0  0
  190.4830  177.0280  141.4350 C   0  0  0  0  0  0  0  0  0  0  0  0
  191.5180  177.6680  141.5380 O   0  0  0  0  0  0  0  0  0  0  0  0
  189.5050  177.3290  140.3390 C   0  0  2  0  0  3  0  0  0  0  0  0
  190.1740  177.7400  139.1840 O   0  0  0  0  0  1  0  0  0  0  0  0
  187.4810  178.5110  139.7920 O   0  0  0  0  0  1  0  0  0  0  0  0
  188.4750  178.3710  140.7630 C   0  0  0  0  0  2  0  0  0  0  0  0
  1  8  1  0  0  0  0
  2  7  1  6  0  0  0
  2  1  1  0  0  0  0
  2 11  1  0  0  0  0
  4  3  1  0  0  0  0
  5 11  1  0  0  0  0
  5  6  1  0  0  0  0
  8  3  2  0  0  0  0
  9  5  2  0  0  0  0
 10  7  2  0  0  0  0
 10  9  1  0  0  0  0
 11  4  2  0  0  0  0
 12 14  1  0  0  0  0
 12  1  1  0  0  0  0
 13 15  1  0  0  0  0
 14 17  1  0  0  0  0
 15 14  2  0  0  0  0
 16 13  2  0  0  0  0
 16 18  1  0  0  0  0
 18 12  2  0  0  0  0
 19 10  1  0  0  0  0
 20 21  2  0  0  0  0
 20 19  1  0  0  0  0
 22 23  1  6  0  0  0
 22 25  1  0  0  0  0
 22 20  1  0  0  0  0
 24 25  1  0  0  0  0
M  END
>  <MODEL>
1

>  <REMARK>
 VINA RESULT:      -9.1      0.000      0.000
  Name = 
  5 active torsions:
  status: ('A' for Active; 'I' for Inactive)
    1  A    between atoms: N_1  and  C_5
    2  A    between atoms: C_2  and  C_15
    3  A    between atoms: C_2  and  C_21
    4  A    between atoms: C_6  and  C_15
    5  A    between atoms: C_6  and  C_23
                            x       y       z     vdW  Elec       q    Type
                         _______ _______ _______ _____ _____    ______ ____

>  <TORSDO>
F 5

$$$$
=
 OpenBabel10262419463D

 25 27  0  0  1  0  0  0  0  0999 V2000
  187.2930  177.7270  145.8570 N   0  0  0  0  0  0  0  0  0  0  0  0
  188.7060  177.7470  145.4400 C   0  0  2  0  0  3  0  0  0  0  0  0
  187.8670  177.2210  148.0970 C   0  0  0  0  0  3  0  0  0  0  0  0
  189.2130  176.9460  147.6980 N   0  0  0  0  0  0  0  0  0  0  0  0
  190.9710  176.7340  146.0560 C   0  0  0  0  0  0  0  0  0  0  0  0
  192.0690  176.5530  147.0480 C   0  0  0  0  0  1  0  0  0  0  0  0
  188.9240  177.0990  144.0940 C   0  0  0  0  0  3  0  0  0  0  0  0
  186.9770  177.5730  147.2210 N   0  0  0  0  0  0  0  0  0  0  0  0
  191.1970  176.4690  144.7660 C   0  0  0  0  0  3  0  0  0  0  0  0
  190.1100  176.5680  143.7650 C   0  0  0  0  0  0  0  0  0  0  0  0
  189.6150  177.1330  146.4780 C   0  0  0  0  0  0  0  0  0  0  0  0
  186.2560  178.1810  144.9630 C   0  0  0  0  0  0  0  0  0  0  0  0
  184.2630  179.0740  143.1930 C   0  0  0  0  0  3  0  0  0  0  0  0
  185.2140  179.0130  145.4220 C   0  0  0  0  0  0  0  0  0  0  0  0
  184.2270  179.4560  144.5360 C   0  0  0  0  0  3  0  0  0  0  0  0
  185.2870  178.2480  142.7300 C   0  0  0  0  0  3  0  0  0  0  0  0
  185.1390  179.3920  146.7580 O   0  0  0  0  0  1  0  0  0  0  0  0
  186.2780  177.8050  143.6090 C   0  0  0  0  0  3  0  0  0  0  0  0
  190.3260  176.0380  142.3890 C   0  0  0  0  0  2  0  0  0  0  0  0
  190.8740  177.1050  141.4980 C   0  0  0  0  0  0  0  0  0  0  0  0
  191.9310  177.6480  141.7810 O   0  0  0  0  0  0  0  0  0  0  0  0
  190.1090  177.5130  140.2750 C   0  0  2  0  0  3  0  0  0  0  0  0
  188.7880  177.0660  140.3510 O   0  0  0  0  0  1  0  0  0  0  0  0
  190.6180  175.6360  138.8590 O   0  0  0  0  0  1  0  0  0  0  0  0
  190.7710  177.0170  138.9950 C   0  0  0  0  0  2  0  0  0  0  0  0
  1  8  1  0  0  0  0
  2  7  1  6  0  0  0
  2  1  1  0  0  0  0
  2 11  1  0  0  0  0
  4  3  1  0  0  0  0
  5 11  1  0  0  0  0
  5  6  1  0  0  0  0
  8  3  2  0  0  0  0
  9  5  2  0  0  0  0
 10  7  2  0  0  0  0
 10  9  1  0  0  0  0
 11  4  2  0  0  0  0
 12 14  1  0  0  0  0
 12  1  1  0  0  0  0
 13 15  1  0  0  0  0
 14 17  1  0  0  0  0
 15 14  2  0  0  0  0
 16 13  2  0  0  0  0
 16 18  1  0  0  0  0
 18 12  2  0  0  0  0
 19 10  1  0  0  0  0
 20 21  2  0  0  0  0
 20 19  1  0  0  0  0
 22 23  1  1  0  0  0
 22 20  1  0  0  0  0
 24 25  1  0  0  0  0
 25 22  1  0  0  0  0
M  END
>  <MODEL>
2

>  <REMARK>
 VINA RESULT:      -8.8      0.729      1.171
  Name = 
  5 active torsions:
  status: ('A' for Active; 'I' for Inactive)
    1  A    between atoms: N_1  and  C_5
    2  A    between atoms: C_2  and  C_15
    3  A    between atoms: C_2  and  C_21
    4  A    between atoms: C_6  and  C_15
    5  A    between atoms: C_6  and  C_23
                            x       y       z     vdW  Elec       q    Type
                         _______ _______ _______ _____ _____    ______ ____

>  <TORSDO>
F 5

$$$$
=
 OpenBabel10262419463D

 25 27  0  0  1  0  0  0  0  0999 V2000
  186.9520  178.1580  142.8410 N   0  0  0  0  0  0  0  0  0  0  0  0
  188.2190  177.4210  142.6960 C   0  0  0  0  0  0  0  0  0  0  0  0
  186.7730  178.4900  140.5040 C   0  0  0  0  0  3  0  0  0  0  0  0
  188.1200  178.0420  140.3290 N   0  0  0  0  0  0  0  0  0  0  0  0
  190.2470  177.2440  141.1490 C   0  0  1  0  0  3  0  0  0  0  0  0
  190.8120  176.9430  139.8040 C   0  0  0  0  0  1  0  0  0  0  0  0
  189.2240  177.7750  143.7660 C   0  0  0  0  0  3  0  0  0  0  0  0
  186.2440  178.5510  141.6880 N   0  0  0  0  0  0  0  0  0  0  0  0
  191.0540  177.2670  142.2140 C   0  0  0  0  0  3  0  0  0  0  0  0
  190.5390  177.6340  143.5540 C   0  0  0  0  0  0  0  0  0  0  0  0
  188.8230  177.5910  141.3230 C   0  0  0  0  0  0  0  0  0  0  0  0
  186.2670  178.2010  144.1090 C   0  0  0  0  0  0  0  0  0  0  0  0
  184.9370  178.2450  146.5860 C   0  0  0  0  0  3  0  0  0  0  0  0
  185.0500  178.9000  144.2540 C   0  0  0  0  0  0  0  0  0  0  0  0
  184.3930  178.9150  145.4880 C   0  0  0  0  0  3  0  0  0  0  0  0
  186.1420  177.5550  146.4540 C   0  0  0  0  0  3  0  0  0  0  0  0
  184.4940  179.5940  143.1860 O   0  0  0  0  0  1  0  0  0  0  0  0
  186.8020  177.5330  145.2230 C   0  0  0  0  0  3  0  0  0  0  0  0
  191.4990  177.8860  144.6660 C   0  0  0  0  0  2  0  0  0  0  0  0
  191.6210  176.6750  145.5340 C   0  0  0  0  0  0  0  0  0  0  0  0
  191.9540  175.6070  145.0420 O   0  0  0  0  0  0  0  0  0  0  0  0
  191.3130  176.7790  146.9970 C   0  0  2  0  0  3  0  0  0  0  0  0
  191.9470  175.7550  147.7040 O   0  0  0  0  0  1  0  0  0  0  0  0
  189.4280  177.9100  147.9760 O   0  0  0  0  0  1  0  0  0  0  0  0
  189.8130  176.7690  147.2670 C   0  0  0  0  0  2  0  0  0  0  0  0
  1 12  1  0  0  0  0
  2  1  1  0  0  0  0
  2  7  2  0  0  0  0
  3  8  2  0  0  0  0
  4  3  1  0  0  0  0
  4 11  2  0  0  0  0
  5  6  1  6  0  0  0
  5 11  1  0  0  0  0
  5  9  1  0  0  0  0
  8  1  1  0  0  0  0
  9 10  2  0  0  0  0
 10  7  1  0  0  0  0
 10 19  1  0  0  0  0
 11  2  1  0  0  0  0
 12 14  2  0  0  0  0
 12 18  1  0  0  0  0
 14 15  1  0  0  0  0
 15 13  2  0  0  0  0
 16 13  1  0  0  0  0
 17 14  1  0  0  0  0
 18 16  2  0  0  0  0
 19 20  1  0  0  0  0
 20 22  1  0  0  0  0
 21 20  2  0  0  0  0
 22 25  1  0  0  0  0
 22 23  1  1  0  0  0
 25 24  1  0  0  0  0
M  END
>  <MODEL>
3

>  <REMARK>
 VINA RESULT:      -8.8      2.688      4.988
  Name = 
  5 active torsions:
  status: ('A' for Active; 'I' for Inactive)
    1  A    between atoms: N_1  and  C_5
    2  A    between atoms: C_2  and  C_15
    3  A    between atoms: C_2  and  C_21
    4  A    between atoms: C_6  and  C_15
    5  A    between atoms: C_6  and  C_23
                            x       y       z     vdW  Elec       q    Type
                         _______ _______ _______ _____ _____    ______ ____

>  <TORSDO>
F 5

$$$$
=
 OpenBabel10262419463D

 25 27  0  0  1  0  0  0  0  0999 V2000
  183.9550  178.4260  142.6780 N   0  0  0  0  0  0  0  0  0  0  0  0
  185.1980  178.6550  143.4340 C   0  0  2  0  0  3  0  0  0  0  0  0
  182.6110  178.9860  144.5450 C   0  0  0  0  0  3  0  0  0  0  0  0
  183.7600  178.9450  145.3950 N   0  0  0  0  0  0  0  0  0  0  0  0
  186.1100  178.5900  145.8220 C   0  0  0  0  0  0  0  0  0  0  0  0
  186.0770  179.0980  147.2220 C   0  0  0  0  0  1  0  0  0  0  0  0
  186.2590  177.6230  143.1350 C   0  0  0  0  0  3  0  0  0  0  0  0
  182.7150  178.7290  143.2770 N   0  0  0  0  0  0  0  0  0  0  0  0
  187.1830  177.9210  145.3880 C   0  0  0  0  0  3  0  0  0  0  0  0
  187.2190  177.3390  144.0250 C   0  0  0  0  0  0  0  0  0  0  0  0
  184.9520  178.7480  144.9210 C   0  0  0  0  0  0  0  0  0  0  0  0
  183.9890  178.2130  141.2520 C   0  0  0  0  0  0  0  0  0  0  0  0
  184.0550  177.7560  138.4790 C   0  0  0  0  0  3  0  0  0  0  0  0
  184.8880  178.9260  140.4320 C   0  0  0  0  0  0  0  0  0  0  0  0
  184.9170  178.6920  139.0540 C   0  0  0  0  0  3  0  0  0  0  0  0
  183.1590  177.0480  139.2810 C   0  0  0  0  0  3  0  0  0  0  0  0
  185.7430  179.8800  140.9720 O   0  0  0  0  0  1  0  0  0  0  0  0
  183.1270  177.2740  140.6590 C   0  0  0  0  0  3  0  0  0  0  0  0
  188.3150  176.3990  143.6570 C   0  0  0  0  0  2  0  0  0  0  0  0
  189.5540  177.1550  143.3040 C   0  0  0  0  0  0  0  0  0  0  0  0
  189.5250  177.9850  142.4090 O   0  0  0  0  0  0  0  0  0  0  0  0
  190.8300  176.8700  144.0400 C   0  0  2  0  0  3  0  0  0  0  0  0
  191.3250  175.6120  143.6920 O   0  0  0  0  0  1  0  0  0  0  0  0
  191.8900  176.9300  146.1990 O   0  0  0  0  0  1  0  0  0  0  0  0
  190.6540  176.9800  145.5510 C   0  0  0  0  0  2  0  0  0  0  0  0
  1  8  1  0  0  0  0
  1  2  1  0  0  0  0
  2  7  1  1  0  0  0
  2 11  1  0  0  0  0
  3  4  1  0  0  0  0
  5  6  1  0  0  0  0
  7 10  2  0  0  0  0
  8  3  2  0  0  0  0
  9  5  2  0  0  0  0
 10  9  1  0  0  0  0
 11  4  2  0  0  0  0
 11  5  1  0  0  0  0
 12  1  1  0  0  0  0
 13 15  2  0  0  0  0
 13 16  1  0  0  0  0
 14 17  1  0  0  0  0
 14 12  2  0  0  0  0
 15 14  1  0  0  0  0
 16 18  2  0  0  0  0
 18 12  1  0  0  0  0
 19 10  1  0  0  0  0
 20 19  1  0  0  0  0
 20 22  1  0  0  0  0
 21 20  2  0  0  0  0
 22 23  1  1  0  0  0
 22 25  1  0  0  0  0
 25 24  1  0  0  0  0
M  END
>  <MODEL>
4

>  <REMARK>
 VINA RESULT:      -8.7      2.785      4.954
  Name = 
  5 active torsions:
  status: ('A' for Active; 'I' for Inactive)
    1  A    between atoms: N_1  and  C_5
    2  A    between atoms: C_2  and  C_15
    3  A    between atoms: C_2  and  C_21
    4  A    between atoms: C_6  and  C_15
    5  A    between atoms: C_6  and  C_23
                            x       y       z     vdW  Elec       q    Type
                         _______ _______ _______ _____ _____    ______ ____

>  <TORSDO>
F 5

$$$$
=
 OpenBabel10262419463D

 25 27  0  0  1  0  0  0  0  0999 V2000
  188.9880  177.9110  141.6040 N   0  0  0  0  0  0  0  0  0  0  0  0
  187.7110  178.6230  141.7830 C   0  0  0  0  0  0  0  0  0  0  0  0
  188.7000  177.7940  139.2580 C   0  0  0  0  0  3  0  0  0  0  0  0
  187.3410  178.2180  139.3960 N   0  0  0  0  0  0  0  0  0  0  0  0
  185.4130  178.8790  140.6910 C   0  0  1  0  0  3  0  0  0  0  0  0
  184.5870  179.2830  139.5180 C   0  0  0  0  0  1  0  0  0  0  0  0
  186.9430  178.1460  142.9920 C   0  0  0  0  0  3  0  0  0  0  0  0
  189.4550  177.6430  140.3020 N   0  0  0  0  0  0  0  0  0  0  0  0
  184.8350  178.7390  141.8880 C   0  0  0  0  0  3  0  0  0  0  0  0
  185.6110  178.2690  143.0590 C   0  0  0  0  0  0  0  0  0  0  0  0
  186.8460  178.5590  140.5460 C   0  0  0  0  0  0  0  0  0  0  0  0
  189.9130  177.7750  142.7020 C   0  0  0  0  0  0  0  0  0  0  0  0
  191.7430  177.5350  144.8240 C   0  0  0  0  0  3  0  0  0  0  0  0
  190.2400  176.5050  143.2240 C   0  0  0  0  0  0  0  0  0  0  0  0
  191.1520  176.3940  144.2780 C   0  0  0  0  0  3  0  0  0  0  0  0
  191.4230  178.7950  144.3180 C   0  0  0  0  0  3  0  0  0  0  0  0
  189.6530  175.3530  142.7150 O   0  0  0  0  0  1  0  0  0  0  0  0
  190.5150  178.9140  143.2630 C   0  0  0  0  0  3  0  0  0  0  0  0
  184.8960  177.8920  144.3120 C   0  0  0  0  0  2  0  0  0  0  0  0
  185.0680  178.9530  145.3500 C   0  0  0  0  0  0  0  0  0  0  0  0
  184.7630  180.1080  145.0950 O   0  0  0  0  0  0  0  0  0  0  0  0
  185.6360  178.5920  146.6900 C   0  0  2  0  0  3  0  0  0  0  0  0
  185.7610  179.7280  147.4910 O   0  0  0  0  0  1  0  0  0  0  0  0
  187.5410  177.6590  147.8260 O   0  0  0  0  0  1  0  0  0  0  0  0
  186.9740  177.8710  146.5670 C   0  0  0  0  0  2  0  0  0  0  0  0
  1  2  1  0  0  0  0
  1 12  1  0  0  0  0
  2  7  2  0  0  0  0
  3  4  1  0  0  0  0
  3  8  2  0  0  0  0
  4 11  2  0  0  0  0
  5  6  1  6  0  0  0
  5  9  1  0  0  0  0
  7 10  1  0  0  0  0
  8  1  1  0  0  0  0
  9 10  2  0  0  0  0
 10 19  1  0  0  0  0
 11  5  1  0  0  0  0
 11  2  1  0  0  0  0
 12 14  2  0  0  0  0
 12 18  1  0  0  0  0
 14 15  1  0  0  0  0
 15 13  2  0  0  0  0
 16 13  1  0  0  0  0
 17 14  1  0  0  0  0
 18 16  2  0  0  0  0
 19 20  1  0  0  0  0
 20 22  1  0  0  0  0
 21 20  2  0  0  0  0
 22 23  1  1  0  0  0
 25 22  1  0  0  0  0
 25 24  1  0  0  0  0
M  END
>  <MODEL>
5

>  <REMARK>
 VINA RESULT:      -8.6      2.771      7.066
  Name = 
  5 active torsions:
  status: ('A' for Active; 'I' for Inactive)
    1  A    between atoms: N_1  and  C_5
    2  A    between atoms: C_2  and  C_15
    3  A    between atoms: C_2  and  C_21
    4  A    between atoms: C_6  and  C_15
    5  A    between atoms: C_6  and  C_23
                            x       y       z     vdW  Elec       q    Type
                         _______ _______ _______ _____ _____    ______ ____

>  <TORSDO>
F 5

$$$$
=
 OpenBabel10262419463D

 25 27  0  0  1  0  0  0  0  0999 V2000
  187.6320  178.1790  141.0650 N   0  0  0  0  0  0  0  0  0  0  0  0
  188.9040  177.4730  141.2950 C   0  0  0  0  0  0  0  0  0  0  0  0
  188.0070  178.2820  138.7300 C   0  0  0  0  0  3  0  0  0  0  0  0
  189.3610  177.8630  138.9210 N   0  0  0  0  0  0  0  0  0  0  0  0
  191.2420  177.2170  140.2910 C   0  0  1  0  0  3  0  0  0  0  0  0
  192.1120  176.8080  139.1520 C   0  0  0  0  0  1  0  0  0  0  0  0
  189.6250  177.9600  142.5290 C   0  0  0  0  0  3  0  0  0  0  0  0
  187.2130  178.4370  139.7440 N   0  0  0  0  0  0  0  0  0  0  0  0
  191.7750  177.3660  141.5080 C   0  0  0  0  0  3  0  0  0  0  0  0
  190.9540  177.8420  142.6460 C   0  0  0  0  0  0  0  0  0  0  0  0
  189.8140  177.5320  140.0910 C   0  0  0  0  0  0  0  0  0  0  0  0
  186.6660  178.3200  142.1260 C   0  0  0  0  0  0  0  0  0  0  0  0
  184.7870  178.5540  144.2040 C   0  0  0  0  0  3  0  0  0  0  0  0
  185.4740  179.0470  141.9320 C   0  0  0  0  0  0  0  0  0  0  0  0
  184.5420  179.1570  142.9690 C   0  0  0  0  0  3  0  0  0  0  0  0
  185.9650  177.8360  144.4080 C   0  0  0  0  0  3  0  0  0  0  0  0
  185.2120  179.6770  140.7200 O   0  0  0  0  0  1  0  0  0  0  0  0
  186.8990  177.7190  143.3750 C   0  0  0  0  0  3  0  0  0  0  0  0
  191.6210  178.2290  143.9220 C   0  0  0  0  0  2  0  0  0  0  0  0
  191.5180  177.1230  144.9210 C   0  0  0  0  0  0  0  0  0  0  0  0
  191.8180  175.9840  144.5980 O   0  0  0  0  0  0  0  0  0  0  0  0
  191.0250  177.4200  146.3060 C   0  0  2  0  0  3  0  0  0  0  0  0
  191.8300  176.7910  147.2570 O   0  0  0  0  0  1  0  0  0  0  0  0
  189.1180  177.3520  147.7720 O   0  0  0  0  0  1  0  0  0  0  0  0
  189.5650  177.0240  146.4900 C   0  0  0  0  0  2  0  0  0  0  0  0
  1  2  1  0  0  0  0
  1 12  1  0  0  0  0
  2  7  2  0  0  0  0
  3  4  1  0  0  0  0
  3  8  2  0  0  0  0
  4 11  2  0  0  0  0
  5  6  1  6  0  0  0
  5  9  1  0  0  0  0
  7 10  1  0  0  0  0
  8  1  1  0  0  0  0
  9 10  2  0  0  0  0
 10 19  1  0  0  0  0
 11  5  1  0  0  0  0
 11  2  1  0  0  0  0
 12 18  1  0  0  0  0
 13 16  1  0  0  0  0
 14 12  2  0  0  0  0
 14 15  1  0  0  0  0
 15 13  2  0  0  0  0
 17 14  1  0  0  0  0
 18 16  2  0  0  0  0
 19 20  1  0  0  0  0
 20 22  1  0  0  0  0
 21 20  2  0  0  0  0
 22 25  1  0  0  0  0
 22 23  1  1  0  0  0
 25 24  1  0  0  0  0
M  END
>  <MODEL>
6

>  <REMARK>
 VINA RESULT:      -8.6      3.004      5.435
  Name = 
  5 active torsions:
  status: ('A' for Active; 'I' for Inactive)
    1  A    between atoms: N_1  and  C_5
    2  A    between atoms: C_2  and  C_15
    3  A    between atoms: C_2  and  C_21
    4  A    between atoms: C_6  and  C_15
    5  A    between atoms: C_6  and  C_23
                            x       y       z     vdW  Elec       q    Type
                         _______ _______ _______ _____ _____    ______ ____

>  <TORSDO>
F 5

$$$$
=
 OpenBabel10262419463D

 25 27  0  0  1  0  0  0  0  0999 V2000
  189.7000  177.9590  142.7390 N   0  0  0  0  0  0  0  0  0  0  0  0
  189.1380  177.2570  143.9050 C   0  0  2  0  0  3  0  0  0  0  0  0
  191.6660  178.5410  143.9220 C   0  0  0  0  0  3  0  0  0  0  0  0
  191.0580  178.1300  145.1500 N   0  0  0  0  0  0  0  0  0  0  0  0
  189.2200  177.2730  146.4610 C   0  0  0  0  0  0  0  0  0  0  0  0
  190.0020  177.1260  147.7210 C   0  0  0  0  0  1  0  0  0  0  0  0
  187.6590  177.5050  144.0770 C   0  0  0  0  0  3  0  0  0  0  0  0
  191.0130  178.4660  142.8030 N   0  0  0  0  0  0  0  0  0  0  0  0
  187.8870  177.1890  146.4990 C   0  0  0  0  0  3  0  0  0  0  0  0
  187.0740  177.4030  145.2780 C   0  0  0  0  0  0  0  0  0  0  0  0
  189.8820  177.5820  145.1790 C   0  0  0  0  0  0  0  0  0  0  0  0
  189.0710  177.8560  141.4450 C   0  0  0  0  0  0  0  0  0  0  0  0
  187.8090  177.6520  138.9420 C   0  0  0  0  0  3  0  0  0  0  0  0
  189.6060  177.0210  140.4420 C   0  0  0  0  0  0  0  0  0  0  0  0
  188.9720  176.9230  139.2000 C   0  0  0  0  0  3  0  0  0  0  0  0
  187.2750  178.4840  139.9250 C   0  0  0  0  0  3  0  0  0  0  0  0
  190.7740  176.3000  140.6620 O   0  0  0  0  0  1  0  0  0  0  0  0
  187.9020  178.5850  141.1700 C   0  0  0  0  0  3  0  0  0  0  0  0
  185.5950  177.5430  145.3950 C   0  0  0  0  0  2  0  0  0  0  0  0
  185.2050  178.9850  145.3860 C   0  0  0  0  0  0  0  0  0  0  0  0
  185.6500  179.7390  146.2380 O   0  0  0  0  0  0  0  0  0  0  0  0
  184.2530  179.4880  144.3430 C   0  0  2  0  0  3  0  0  0  0  0  0
  183.0120  178.8610  144.4690 O   0  0  0  0  0  1  0  0  0  0  0  0
  184.1760  178.2430  142.2840 O   0  0  0  0  0  1  0  0  0  0  0  0
  184.8040  179.3100  142.9320 C   0  0  0  0  0  2  0  0  0  0  0  0
  1  8  1  0  0  0  0
  1  2  1  0  0  0  0
  2  7  1  1  0  0  0
  2 11  1  0  0  0  0
  3  4  1  0  0  0  0
  4 11  2  0  0  0  0
  5  9  2  0  0  0  0
  5  6  1  0  0  0  0
  7 10  2  0  0  0  0
  8  3  2  0  0  0  0
 10 19  1  0  0  0  0
 10  9  1  0  0  0  0
 11  5  1  0  0  0  0
 12  1  1  0  0  0  0
 13 15  2  0  0  0  0
 13 16  1  0  0  0  0
 14 17  1  0  0  0  0
 14 12  2  0  0  0  0
 15 14  1  0  0  0  0
 16 18  2  0  0  0  0
 18 12  1  0  0  0  0
 20 19  1  0  0  0  0
 20 21  2  0  0  0  0
 22 23  1  6  0  0  0
 22 20  1  0  0  0  0
 24 25  1  0  0  0  0
 25 22  1  0  0  0  0
M  END
>  <MODEL>
7

>  <REMARK>
 VINA RESULT:      -8.6      2.090      5.345
  Name = 
  5 active torsions:
  status: ('A' for Active; 'I' for Inactive)
    1  A    between atoms: N_1  and  C_5
    2  A    between atoms: C_2  and  C_15
    3  A    between atoms: C_2  and  C_21
    4  A    between atoms: C_6  and  C_15
    5  A    between atoms: C_6  and  C_23
                            x       y       z     vdW  Elec       q    Type
                         _______ _______ _______ _____ _____    ______ ____

>  <TORSDO>
F 5

$$$$
=
 OpenBabel10262419463D

 25 27  0  0  1  0  0  0  0  0999 V2000
  187.7220  177.8760  145.4310 N   0  0  0  0  0  0  0  0  0  0  0  0
  187.1770  177.6310  144.0850 C   0  0  0  0  0  0  0  0  0  0  0  0
  185.6180  178.5830  146.2530 C   0  0  0  0  0  3  0  0  0  0  0  0
  185.1060  178.6370  144.9190 N   0  0  0  0  0  0  0  0  0  0  0  0
  185.3160  178.4250  142.5220 C   0  0  1  0  0  3  0  0  0  0  0  0
  183.8620  178.5910  142.2380 C   0  0  0  0  0  1  0  0  0  0  0  0
  188.1150  178.0750  142.9880 C   0  0  0  0  0  3  0  0  0  0  0  0
  186.8480  178.2370  146.4770 N   0  0  0  0  0  0  0  0  0  0  0  0
  186.1960  178.4980  141.5200 C   0  0  0  0  0  3  0  0  0  0  0  0
  187.6530  178.4100  141.7760 C   0  0  0  0  0  0  0  0  0  0  0  0
  185.8130  178.2520  143.9010 C   0  0  0  0  0  0  0  0  0  0  0  0
  189.0550  177.4470  145.7750 C   0  0  0  0  0  0  0  0  0  0  0  0
  191.6580  176.5920  146.4080 C   0  0  0  0  0  3  0  0  0  0  0  0
  189.3340  176.8820  147.0370 C   0  0  0  0  0  0  0  0  0  0  0  0
  190.6300  176.4560  147.3440 C   0  0  0  0  0  3  0  0  0  0  0  0
  191.3940  177.1540  145.1590 C   0  0  0  0  0  3  0  0  0  0  0  0
  188.3370  176.7530  147.9970 O   0  0  0  0  0  1  0  0  0  0  0  0
  190.1000  177.5780  144.8440 C   0  0  0  0  0  3  0  0  0  0  0  0
  188.6130  178.7350  140.6830 C   0  0  0  0  0  2  0  0  0  0  0  0
  188.9740  177.5010  139.9220 C   0  0  0  0  0  0  0  0  0  0  0  0
  188.2120  177.0690  139.0700 O   0  0  0  0  0  0  0  0  0  0  0  0
  190.2600  176.7930  140.2260 C   0  0  2  0  0  3  0  0  0  0  0  0
  190.9940  177.5000  141.1800 O   0  0  0  0  0  1  0  0  0  0  0  0
  190.9310  175.2520  138.5040 O   0  0  0  0  0  1  0  0  0  0  0  0
  191.0940  176.5580  138.9720 C   0  0  0  0  0  2  0  0  0  0  0  0
  1 12  1  0  0  0  0
  1  8  1  0  0  0  0
  2  1  1  0  0  0  0
  3  8  2  0  0  0  0
  4  3  1  0  0  0  0
  5  6  1  1  0  0  0
  5 11  1  0  0  0  0
  7  2  2  0  0  0  0
  9 10  2  0  0  0  0
  9  5  1  0  0  0  0
 10  7  1  0  0  0  0
 11  2  1  0  0  0  0
 11  4  2  0  0  0  0
 12 14  1  0  0  0  0
 13 15  1  0  0  0  0
 14 15  2  0  0  0  0
 14 17  1  0  0  0  0
 16 13  2  0  0  0  0
 18 16  1  0  0  0  0
 18 12  2  0  0  0  0
 19 10  1  0  0  0  0
 20 22  1  0  0  0  0
 20 19  1  0  0  0  0
 21 20  2  0  0  0  0
 22 23  1  1  0  0  0
 24 25  1  0  0  0  0
 25 22  1  0  0  0  0
M  END
>  <MODEL>
8

>  <REMARK>
 VINA RESULT:      -8.5      1.596      4.830
  Name = 
  5 active torsions:
  status: ('A' for Active; 'I' for Inactive)
    1  A    between atoms: N_1  and  C_5
    2  A    between atoms: C_2  and  C_15
    3  A    between atoms: C_2  and  C_21
    4  A    between atoms: C_6  and  C_15
    5  A    between atoms: C_6  and  C_23
                            x       y       z     vdW  Elec       q    Type
                         _______ _______ _______ _____ _____    ______ ____

>  <TORSDO>
F 5

$$$$
=
 OpenBabel10262419463D

 25 27  0  0  1  0  0  0  0  0999 V2000
  183.9220  178.4510  142.7170 N   0  0  0  0  0  0  0  0  0  0  0  0
  185.1720  178.6580  143.4680 C   0  0  2  0  0  3  0  0  0  0  0  0
  182.5950  179.0030  144.5980 C   0  0  0  0  0  3  0  0  0  0  0  0
  183.7480  178.9390  145.4410 N   0  0  0  0  0  0  0  0  0  0  0  0
  186.0970  178.5550  145.8500 C   0  0  0  0  0  0  0  0  0  0  0  0
  186.0770  179.0460  147.2560 C   0  0  0  0  0  1  0  0  0  0  0  0
  186.2200  177.6180  143.1510 C   0  0  0  0  0  3  0  0  0  0  0  0
  182.6890  178.7600  143.3260 N   0  0  0  0  0  0  0  0  0  0  0  0
  187.1600  177.8790  145.4020 C   0  0  0  0  0  3  0  0  0  0  0  0
  187.1820  177.3130  144.0320 C   0  0  0  0  0  0  0  0  0  0  0  0
  184.9360  178.7360  144.9570 C   0  0  0  0  0  0  0  0  0  0  0  0
  183.9460  178.2540  141.2890 C   0  0  0  0  0  0  0  0  0  0  0  0
  183.9880  177.8300  138.5100 C   0  0  0  0  0  3  0  0  0  0  0  0
  184.9130  178.8910  140.4840 C   0  0  0  0  0  0  0  0  0  0  0  0
  184.9300  178.6740  139.1020 C   0  0  0  0  0  3  0  0  0  0  0  0
  183.0240  177.1990  139.2960 C   0  0  0  0  0  3  0  0  0  0  0  0
  185.8500  179.7530  141.0410 O   0  0  0  0  0  1  0  0  0  0  0  0
  183.0040  177.4090  140.6780 C   0  0  0  0  0  3  0  0  0  0  0  0
  188.2660  176.3660  143.6460 C   0  0  0  0  0  2  0  0  0  0  0  0
  189.2640  177.0460  142.7660 C   0  0  0  0  0  0  0  0  0  0  0  0
  190.0500  177.8480  143.2470 O   0  0  0  0  0  0  0  0  0  0  0  0
  189.2760  176.7530  141.2960 C   0  0  2  0  0  3  0  0  0  0  0  0
  190.5560  176.3790  140.8820 O   0  0  0  0  0  1  0  0  0  0  0  0
  189.6270  178.1990  139.4050 O   0  0  0  0  0  1  0  0  0  0  0  0
  188.7690  177.9330  140.4740 C   0  0  0  0  0  2  0  0  0  0  0  0
  1  8  1  0  0  0  0
  1  2  1  0  0  0  0
  2  7  1  1  0  0  0
  2 11  1  0  0  0  0
  3  4  1  0  0  0  0
  5  6  1  0  0  0  0
  7 10  2  0  0  0  0
  8  3  2  0  0  0  0
  9  5  2  0  0  0  0
 10  9  1  0  0  0  0
 11  4  2  0  0  0  0
 11  5  1  0  0  0  0
 12  1  1  0  0  0  0
 13 15  2  0  0  0  0
 13 16  1  0  0  0  0
 14 17  1  0  0  0  0
 14 12  2  0  0  0  0
 15 14  1  0  0  0  0
 16 18  2  0  0  0  0
 18 12  1  0  0  0  0
 19 10  1  0  0  0  0
 20 21  2  0  0  0  0
 20 19  1  0  0  0  0
 22 23  1  6  0  0  0
 22 20  1  0  0  0  0
 24 25  1  0  0  0  0
 25 22  1  0  0  0  0
M  END
>  <MODEL>
9

>  <REMARK>
 VINA RESULT:      -8.5      2.748      4.418
  Name = 
  5 active torsions:
  status: ('A' for Active; 'I' for Inactive)
    1  A    between atoms: N_1  and  C_5
    2  A    between atoms: C_2  and  C_15
    3  A    between atoms: C_2  and  C_21
    4  A    between atoms: C_6  and  C_15
    5  A    between atoms: C_6  and  C_23
                            x       y       z     vdW  Elec       q    Type
                         _______ _______ _______ _____ _____    ______ ____

>  <TORSDO>
F 5

$$$$
