=
 OpenBabel10262422493D

 37 42  0  0  1  0  0  0  0  0999 V2000
  184.3510  176.2920  137.2710 C   0  0  0  0  0  2  0  0  0  0  0  0
  181.0610  177.0480  140.7280 C   0  0  0  0  0  0  0  0  0  0  0  0
  185.7050  176.4520  136.5860 C   0  0  0  0  0  2  0  0  0  0  0  0
  183.9040  179.4790  140.3530 O   0  0  0  0  0  0  0  0  0  0  0  0
  181.1840  175.1790  139.1510 C   0  0  0  0  0  2  0  0  0  0  0  0
  182.4150  177.5230  140.2710 C   0  0  2  0  0  3  0  0  0  0  0  0
  187.1410  178.0280  137.8930 C   0  0  2  0  0  3  0  0  0  0  0  0
  180.4900  175.9510  140.1970 C   0  0  0  0  0  0  0  0  0  0  0  0
  182.6430  178.9890  140.7200 C   0  0  1  0  0  3  0  0  0  0  0  0
  179.2450  175.8630  140.5860 O   0  0  0  0  0  0  0  0  0  0  0  0
  186.8500  176.5600  137.5800 C   0  0  2  0  0  3  0  0  0  0  0  0
  181.8050  176.2040  138.1760 C   0  0  2  0  0  3  0  0  0  0  0  0
  180.0130  179.0700  141.9090 C   0  0  0  0  0  2  0  0  0  0  0  0
  178.9310  176.8860  141.3320 N   0  0  0  0  0  0  0  0  0  0  0  0
  186.1040  178.6350  138.8300 C   0  0  0  0  0  2  0  0  0  0  0  0
  183.8830  179.7250  138.9780 C   0  0  0  0  0  2  0  0  0  0  0  0
  180.0350  177.6560  141.4300 C   0  0  0  0  0  0  0  0  0  0  0  0
  182.5900  177.3200  138.7970 N   0  0  2  0  0  0  0  0  0  0  0  0
  182.4970  179.0810  142.1860 N   0  0  0  0  0  0  0  0  0  0  0  0
  184.6750  178.6290  138.2740 C   0  0  2  0  0  3  0  0  0  0  0  0
  187.2580  178.7910  136.7250 O   0  0  0  0  0  1  0  0  0  0  0  0
  184.0400  177.2330  138.4680 C   0  0  2  0  0  3  0  0  0  0  0  0
  181.2040  179.3850  142.8060 C   0  0  0  0  0  2  0  0  0  0  0  0
  183.4590  178.9470  144.4480 C   0  0  0  0  0  3  0  0  0  0  0  0
  183.5770  178.7260  143.0680 C   0  0  0  0  0  0  0  0  0  0  0  0
  184.7760  178.2000  142.5630 C   0  0  0  0  0  3  0  0  0  0  0  0
  186.9860  177.3850  142.9230 F   0  0  0  0  0  0  0  0  0  0  0  0
  185.7010  178.1050  144.7940 C   0  0  0  0  0  3  0  0  0  0  0  0
  185.8330  177.8870  143.4210 C   0  0  0  0  0  0  0  0  0  0  0  0
  184.5150  178.6330  145.3070 C   0  0  0  0  0  3  0  0  0  0  0  0
  189.1680  176.0800  137.8770 O   0  0  0  0  0  1  0  0  0  0  0  0
  188.0930  175.9040  137.0050 C   0  0  0  0  0  2  0  0  0  0  0  0
  180.7560  176.7890  137.2420 C   0  0  0  0  0  2  0  0  0  0  0  0
  180.8170  178.2740  137.2350 C   0  0  0  0  0  0  0  0  0  0  0  0
  181.5630  178.8590  136.4070 O   0  0  0  0  0  0  0  0  0  0  0  0
  180.0110  179.0000  138.1100 O   0  0  0  0  0  0  0  0  0  0  0  0
  180.2050  180.3910  138.3270 C   0  0  0  0  0  1  0  0  0  0  0  0
  1 22  1  0  0  0  0
  2 17  1  0  0  0  0
  3  1  1  0  0  0  0
  3 11  1  0  0  0  0
  5  8  1  0  0  0  0
  6  9  1  0  0  0  0
  6  2  1  6  0  0  0
  7 21  1  6  0  0  0
  7 15  1  0  0  0  0
  8 10  1  0  0  0  0
  8  2  2  0  0  0  0
  9  4  1  1  0  0  0
  9 19  1  0  0  0  0
 10 14  1  0  0  0  0
 11 32  1  6  0  0  0
 11  7  1  0  0  0  0
 12 33  1  1  0  0  0
 12 18  1  0  0  0  0
 12  5  1  0  0  0  0
 13 23  1  0  0  0  0
 14 17  2  0  0  0  0
 16  4  1  0  0  0  0
 17 13  1  0  0  0  0
 18  6  1  0  0  0  0
 19 23  1  0  0  0  0
 19 25  1  0  0  0  0
 20 22  1  0  0  0  0
 20 15  1  0  0  0  0
 20 16  1  0  0  0  0
 22 18  1  0  0  0  0
 24 30  1  0  0  0  0
 25 24  2  0  0  0  0
 26 25  1  0  0  0  0
 26 29  2  0  0  0  0
 27 29  1  0  0  0  0
 28 30  2  0  0  0  0
 29 28  1  0  0  0  0
 32 31  1  0  0  0  0
 34 33  1  0  0  0  0
 34 36  1  0  0  0  0
 35 34  2  0  0  0  0
 36 37  1  0  0  0  0
M  END
>  <MODEL>
1

>  <REMARK>
 VINA RESULT:      -7.1      0.000      0.000
  Name = 
  5 active torsions:
  status: ('A' for Active; 'I' for Inactive)
    1  A    between atoms: O_3  and  C_21
    2  A    between atoms: C_6  and  N_31
    3  A    between atoms: C_17  and  C_23
    4  A    between atoms: C_20  and  C_25
    5  A    between atoms: C_21  and  C_25
                            x       y       z     vdW  Elec       q    Type
                         _______ _______ _______ _____ _____    ______ ____

>  <TORSDO>
F 5

$$$$
=
 OpenBabel10262422493D

 37 42  0  0  1  0  0  0  0  0999 V2000
  184.4180  176.1620  137.2250 C   0  0  0  0  0  2  0  0  0  0  0  0
  181.0690  176.9830  140.6090 C   0  0  0  0  0  0  0  0  0  0  0  0
  185.7810  176.3160  136.5560 C   0  0  0  0  0  2  0  0  0  0  0  0
  183.8950  179.4290  140.2090 O   0  0  0  0  0  0  0  0  0  0  0  0
  181.2330  175.0720  139.0870 C   0  0  0  0  0  2  0  0  0  0  0  0
  182.4250  177.4580  140.1590 C   0  0  2  0  0  3  0  0  0  0  0  0
  187.1820  177.9410  137.8400 C   0  0  2  0  0  3  0  0  0  0  0  0
  180.5150  175.8660  140.1000 C   0  0  0  0  0  0  0  0  0  0  0  0
  182.6330  178.9380  140.5710 C   0  0  1  0  0  3  0  0  0  0  0  0
  179.2660  175.7770  140.4730 O   0  0  0  0  0  0  0  0  0  0  0  0
  186.9090  176.4620  137.5640 C   0  0  2  0  0  3  0  0  0  0  0  0
  181.8590  176.0760  138.0930 C   0  0  2  0  0  3  0  0  0  0  0  0
  179.9840  179.0270  141.7170 C   0  0  0  0  0  2  0  0  0  0  0  0
  178.9310  176.8180  141.1840 N   0  0  0  0  0  0  0  0  0  0  0  0
  186.1250  178.5640  138.7440 C   0  0  0  0  0  2  0  0  0  0  0  0
  183.8930  179.6360  138.8280 C   0  0  0  0  0  2  0  0  0  0  0  0
  180.0260  177.6000  141.2780 C   0  0  0  0  0  0  0  0  0  0  0  0
  182.6250  177.2150  138.6950 N   0  0  2  0  0  0  0  0  0  0  0  0
  182.4630  179.0690  142.0310 N   0  0  0  0  0  0  0  0  0  0  0  0
  184.7050  178.5290  138.1670 C   0  0  2  0  0  3  0  0  0  0  0  0
  187.3110  178.6720  136.6540 O   0  0  0  0  0  1  0  0  0  0  0  0
  184.0810  177.1330  138.3900 C   0  0  2  0  0  3  0  0  0  0  0  0
  181.1590  179.3780  142.6230 C   0  0  0  0  0  2  0  0  0  0  0  0
  183.3790  178.9770  144.3140 C   0  0  0  0  0  3  0  0  0  0  0  0
  183.5320  178.7490  142.9390 C   0  0  0  0  0  0  0  0  0  0  0  0
  184.7560  178.2500  142.4640 C   0  0  0  0  0  3  0  0  0  0  0  0
  186.9770  177.4950  142.8780 F   0  0  0  0  0  0  0  0  0  0  0  0
  185.6340  178.1960  144.7150 C   0  0  0  0  0  3  0  0  0  0  0  0
  185.8010  177.9710  143.3470 C   0  0  0  0  0  0  0  0  0  0  0  0
  184.4250  178.6980  145.1990 C   0  0  0  0  0  3  0  0  0  0  0  0
  189.1920  175.8980  137.9690 O   0  0  0  0  0  1  0  0  0  0  0  0
  188.1680  175.8020  137.0260 C   0  0  0  0  0  2  0  0  0  0  0  0
  180.8200  176.6240  137.1270 C   0  0  0  0  0  2  0  0  0  0  0  0
  180.9900  176.0380  135.7720 C   0  0  0  0  0  0  0  0  0  0  0  0
  180.8010  174.8060  135.6010 O   0  0  0  0  0  0  0  0  0  0  0  0
  181.3080  176.8680  134.6980 O   0  0  0  0  0  0  0  0  0  0  0  0
  181.8960  178.1470  134.8880 C   0  0  0  0  0  1  0  0  0  0  0  0
  1 22  1  0  0  0  0
  2 17  1  0  0  0  0
  3  1  1  0  0  0  0
  3 11  1  0  0  0  0
  5  8  1  0  0  0  0
  6  9  1  0  0  0  0
  6  2  1  6  0  0  0
  7 21  1  6  0  0  0
  7 15  1  0  0  0  0
  8 10  1  0  0  0  0
  8  2  2  0  0  0  0
  9  4  1  1  0  0  0
  9 19  1  0  0  0  0
 10 14  1  0  0  0  0
 11 32  1  6  0  0  0
 11  7  1  0  0  0  0
 12 33  1  1  0  0  0
 12 18  1  0  0  0  0
 12  5  1  0  0  0  0
 13 23  1  0  0  0  0
 14 17  2  0  0  0  0
 16  4  1  0  0  0  0
 17 13  1  0  0  0  0
 18  6  1  0  0  0  0
 19 23  1  0  0  0  0
 19 25  1  0  0  0  0
 20 22  1  0  0  0  0
 20 15  1  0  0  0  0
 20 16  1  0  0  0  0
 22 18  1  0  0  0  0
 24 30  1  0  0  0  0
 25 24  2  0  0  0  0
 26 25  1  0  0  0  0
 26 29  2  0  0  0  0
 27 29  1  0  0  0  0
 28 30  2  0  0  0  0
 29 28  1  0  0  0  0
 32 31  1  0  0  0  0
 34 33  1  0  0  0  0
 35 34  2  0  0  0  0
 36 37  1  0  0  0  0
 36 34  1  0  0  0  0
M  END
>  <MODEL>
2

>  <REMARK>
 VINA RESULT:      -6.8      1.040      1.307
  Name = 
  5 active torsions:
  status: ('A' for Active; 'I' for Inactive)
    1  A    between atoms: O_3  and  C_21
    2  A    between atoms: C_6  and  N_31
    3  A    between atoms: C_17  and  C_23
    4  A    between atoms: C_20  and  C_25
    5  A    between atoms: C_21  and  C_25
                            x       y       z     vdW  Elec       q    Type
                         _______ _______ _______ _____ _____    ______ ____

>  <TORSDO>
F 5

$$$$
=
 OpenBabel10262422493D

 37 42  0  0  1  0  0  0  0  0999 V2000
  186.9150  175.0980  136.6010 C   0  0  0  0  0  2  0  0  0  0  0  0
  182.7520  176.4080  138.6750 C   0  0  0  0  0  0  0  0  0  0  0  0
  188.4190  175.1540  136.3550 C   0  0  0  0  0  2  0  0  0  0  0  0
  185.6690  178.7760  138.7870 O   0  0  0  0  0  0  0  0  0  0  0  0
  183.2790  174.2900  137.5660 C   0  0  0  0  0  2  0  0  0  0  0  0
  184.1990  176.8140  138.5870 C   0  0  2  0  0  3  0  0  0  0  0  0
  189.4450  176.9590  137.7490 C   0  0  2  0  0  3  0  0  0  0  0  0
  182.3280  175.2250  138.1920 C   0  0  0  0  0  0  0  0  0  0  0  0
  184.3370  178.3400  138.8220 C   0  0  1  0  0  3  0  0  0  0  0  0
  181.0210  175.1880  138.1830 O   0  0  0  0  0  0  0  0  0  0  0  0
  189.2050  175.4550  137.6210 C   0  0  2  0  0  3  0  0  0  0  0  0
  184.2120  175.1340  136.6690 C   0  0  2  0  0  3  0  0  0  0  0  0
  181.4740  178.5910  139.1000 C   0  0  0  0  0  2  0  0  0  0  0  0
  180.5340  176.3230  138.6040 N   0  0  0  0  0  0  0  0  0  0  0  0
  188.1950  177.7080  138.1960 C   0  0  0  0  0  2  0  0  0  0  0  0
  186.0840  178.7720  137.4530 C   0  0  0  0  0  2  0  0  0  0  0  0
  181.5840  177.1150  138.9060 C   0  0  0  0  0  0  0  0  0  0  0  0
  184.8120  176.3540  137.3000 N   0  0  2  0  0  0  0  0  0  0  0  0
  183.7490  178.6890  140.1300 N   0  0  0  0  0  0  0  0  0  0  0  0
  187.0090  177.5810  137.2320 C   0  0  2  0  0  3  0  0  0  0  0  0
  189.9480  177.5040  136.5620 O   0  0  0  0  0  1  0  0  0  0  0  0
  186.2880  176.2320  137.4590 C   0  0  2  0  0  3  0  0  0  0  0  0
  182.3420  179.0790  140.2540 C   0  0  0  0  0  2  0  0  0  0  0  0
  183.8130  178.4590  142.5800 C   0  0  0  0  0  3  0  0  0  0  0  0
  184.4880  178.5140  141.3530 C   0  0  0  0  0  0  0  0  0  0  0  0
  185.8900  178.4430  141.3420 C   0  0  0  0  0  3  0  0  0  0  0  0
  187.9540  178.2410  142.5140 F   0  0  0  0  0  0  0  0  0  0  0  0
  185.9200  178.2430  143.7510 C   0  0  0  0  0  3  0  0  0  0  0  0
  186.6030  178.3050  142.5350 C   0  0  0  0  0  0  0  0  0  0  0  0
  184.5260  178.3200  143.7740 C   0  0  0  0  0  3  0  0  0  0  0  0
  190.3400  173.3990  137.2000 O   0  0  0  0  0  1  0  0  0  0  0  0
  190.5370  174.7260  137.5850 C   0  0  0  0  0  2  0  0  0  0  0  0
  183.5280  175.5270  135.3690 C   0  0  0  0  0  2  0  0  0  0  0  0
  183.6000  176.9960  135.1500 C   0  0  0  0  0  0  0  0  0  0  0  0
  184.6200  177.4910  134.6040 O   0  0  0  0  0  0  0  0  0  0  0  0
  182.5190  177.7980  135.5080 O   0  0  0  0  0  0  0  0  0  0  0  0
  181.1840  177.4520  135.1670 C   0  0  0  0  0  1  0  0  0  0  0  0
  1 22  1  0  0  0  0
  2 17  1  0  0  0  0
  3  1  1  0  0  0  0
  3 11  1  0  0  0  0
  5  8  1  0  0  0  0
  6  2  1  6  0  0  0
  6  9  1  0  0  0  0
  7 21  1  6  0  0  0
  7 15  1  0  0  0  0
  8  2  2  0  0  0  0
  9  4  1  1  0  0  0
  9 19  1  0  0  0  0
 10  8  1  0  0  0  0
 10 14  1  0  0  0  0
 11 32  1  6  0  0  0
 11  7  1  0  0  0  0
 12 33  1  6  0  0  0
 12 18  1  0  0  0  0
 12  5  1  0  0  0  0
 13 23  1  0  0  0  0
 14 17  2  0  0  0  0
 16  4  1  0  0  0  0
 17 13  1  0  0  0  0
 18 22  1  0  0  0  0
 18  6  1  0  0  0  0
 19 23  1  0  0  0  0
 19 25  1  0  0  0  0
 20 16  1  0  0  0  0
 20 22  1  0  0  0  0
 20 15  1  0  0  0  0
 24 30  1  0  0  0  0
 25 24  2  0  0  0  0
 26 25  1  0  0  0  0
 26 29  2  0  0  0  0
 27 29  1  0  0  0  0
 28 30  2  0  0  0  0
 29 28  1  0  0  0  0
 31 32  1  0  0  0  0
 34 33  1  0  0  0  0
 34 36  1  0  0  0  0
 35 34  2  0  0  0  0
 37 36  1  0  0  0  0
M  END
>  <MODEL>
3

>  <REMARK>
 VINA RESULT:      -5.8      1.912      2.800
  Name = 
  5 active torsions:
  status: ('A' for Active; 'I' for Inactive)
    1  A    between atoms: O_3  and  C_21
    2  A    between atoms: C_6  and  N_31
    3  A    between atoms: C_17  and  C_23
    4  A    between atoms: C_20  and  C_25
    5  A    between atoms: C_21  and  C_25
                            x       y       z     vdW  Elec       q    Type
                         _______ _______ _______ _____ _____    ______ ____

>  <TORSDO>
F 5

$$$$
=
 OpenBabel10262422493D

 37 42  0  0  1  0  0  0  0  0999 V2000
  188.0430  175.0200  137.2460 C   0  0  0  0  0  2  0  0  0  0  0  0
  183.3420  173.9250  137.0140 C   0  0  0  0  0  0  0  0  0  0  0  0
  189.2450  175.9450  137.4060 C   0  0  0  0  0  2  0  0  0  0  0  0
  184.4160  177.4830  136.4540 O   0  0  0  0  0  0  0  0  0  0  0  0
  185.2110  172.4320  137.5370 C   0  0  0  0  0  2  0  0  0  0  0  0
  184.2710  175.1090  137.0760 C   0  0  2  0  0  3  0  0  0  0  0  0
  188.4720  178.3070  137.6800 C   0  0  2  0  0  3  0  0  0  0  0  0
  183.7900  172.6740  137.2290 C   0  0  0  0  0  0  0  0  0  0  0  0
  183.6120  176.3370  136.3970 C   0  0  1  0  0  3  0  0  0  0  0  0
  182.8650  171.8070  136.9110 O   0  0  0  0  0  0  0  0  0  0  0  0
  188.9890  177.0630  138.4040 C   0  0  2  0  0  3  0  0  0  0  0  0
  186.0350  173.3330  136.5900 C   0  0  2  0  0  3  0  0  0  0  0  0
  181.2830  174.7640  135.7360 C   0  0  0  0  0  2  0  0  0  0  0  0
  181.8120  172.4210  136.4450 N   0  0  0  0  0  0  0  0  0  0  0  0
  187.0120  178.1700  137.2680 C   0  0  0  0  0  2  0  0  0  0  0  0
  185.4560  177.3220  135.5360 C   0  0  0  0  0  2  0  0  0  0  0  0
  182.0790  173.7430  136.4800 C   0  0  0  0  0  0  0  0  0  0  0  0
  185.6170  174.7700  136.5120 N   0  0  2  0  0  0  0  0  0  0  0  0
  182.3190  176.6210  137.0490 N   0  0  0  0  0  0  0  0  0  0  0  0
  186.7390  177.0130  136.2990 C   0  0  2  0  0  3  0  0  0  0  0  0
  189.2690  178.6310  136.5770 O   0  0  0  0  0  1  0  0  0  0  0  0
  186.6480  175.6830  137.0820 C   0  0  2  0  0  3  0  0  0  0  0  0
  181.0710  176.0300  136.5580 C   0  0  0  0  0  2  0  0  0  0  0  0
  181.3440  178.4260  138.4100 C   0  0  0  0  0  3  0  0  0  0  0  0
  182.2490  177.3630  138.2800 C   0  0  0  0  0  0  0  0  0  0  0  0
  183.1130  177.0700  139.3480 C   0  0  0  0  0  3  0  0  0  0  0  0
  183.9010  177.5250  141.5490 F   0  0  0  0  0  0  0  0  0  0  0  0
  182.1510  178.8650  140.6490 C   0  0  0  0  0  3  0  0  0  0  0  0
  183.0620  177.8140  140.5280 C   0  0  0  0  0  0  0  0  0  0  0  0
  181.2920  179.1710  139.5920 C   0  0  0  0  0  3  0  0  0  0  0  0
  190.6300  176.3370  139.9760 O   0  0  0  0  0  1  0  0  0  0  0  0
  190.2740  177.3980  139.1420 C   0  0  0  0  0  2  0  0  0  0  0  0
  186.0980  172.7520  135.1860 C   0  0  0  0  0  2  0  0  0  0  0  0
  186.9780  171.5550  135.1420 C   0  0  0  0  0  0  0  0  0  0  0  0
  188.1320  171.6160  135.6410 O   0  0  0  0  0  0  0  0  0  0  0  0
  186.4980  170.3670  134.5950 O   0  0  0  0  0  0  0  0  0  0  0  0
  185.1530  169.9470  134.7790 C   0  0  0  0  0  1  0  0  0  0  0  0
  1  3  1  0  0  0  0
  2  8  2  0  0  0  0
  3 11  1  0  0  0  0
  6  2  1  6  0  0  0
  7 21  1  6  0  0  0
  7 11  1  0  0  0  0
  8  5  1  0  0  0  0
  9  4  1  1  0  0  0
  9 19  1  0  0  0  0
  9  6  1  0  0  0  0
 10  8  1  0  0  0  0
 11 32  1  6  0  0  0
 12 33  1  6  0  0  0
 12  5  1  0  0  0  0
 13 17  1  0  0  0  0
 13 23  1  0  0  0  0
 14 17  2  0  0  0  0
 14 10  1  0  0  0  0
 15  7  1  0  0  0  0
 16 20  1  0  0  0  0
 16  4  1  0  0  0  0
 17  2  1  0  0  0  0
 18 12  1  0  0  0  0
 18  6  1  0  0  0  0
 18 22  1  0  0  0  0
 19 25  1  0  0  0  0
 20 22  1  0  0  0  0
 20 15  1  0  0  0  0
 22  1  1  0  0  0  0
 23 19  1  0  0  0  0
 24 30  1  0  0  0  0
 25 24  2  0  0  0  0
 25 26  1  0  0  0  0
 26 29  2  0  0  0  0
 29 28  1  0  0  0  0
 29 27  1  0  0  0  0
 30 28  2  0  0  0  0
 32 31  1  0  0  0  0
 34 33  1  0  0  0  0
 34 35  2  0  0  0  0
 36 37  1  0  0  0  0
 36 34  1  0  0  0  0
M  END
>  <MODEL>
4

>  <REMARK>
 VINA RESULT:      -5.8      3.248      5.872
  Name = 
  5 active torsions:
  status: ('A' for Active; 'I' for Inactive)
    1  A    between atoms: O_3  and  C_21
    2  A    between atoms: C_6  and  N_31
    3  A    between atoms: C_17  and  C_23
    4  A    between atoms: C_20  and  C_25
    5  A    between atoms: C_21  and  C_25
                            x       y       z     vdW  Elec       q    Type
                         _______ _______ _______ _____ _____    ______ ____

>  <TORSDO>
F 5

$$$$
=
 OpenBabel10262422493D

 37 42  0  0  1  0  0  0  0  0999 V2000
  190.6630  176.3720  140.9480 C   0  0  0  0  0  2  0  0  0  0  0  0
  188.4420  175.7330  136.7040 C   0  0  0  0  0  0  0  0  0  0  0  0
  190.8160  176.9180  142.3640 C   0  0  0  0  0  2  0  0  0  0  0  0
  187.4420  178.6410  138.8660 O   0  0  0  0  0  0  0  0  0  0  0  0
  190.1630  174.3250  137.7290 C   0  0  0  0  0  2  0  0  0  0  0  0
  188.3340  176.5280  137.9780 C   0  0  2  0  0  3  0  0  0  0  0  0
  188.8680  178.3780  142.9320 C   0  0  2  0  0  3  0  0  0  0  0  0
  189.3030  174.7040  136.5940 C   0  0  0  0  0  0  0  0  0  0  0  0
  187.6050  177.8690  137.7070 C   0  0  1  0  0  3  0  0  0  0  0  0
  189.3760  174.3140  135.3480 O   0  0  0  0  0  0  0  0  0  0  0  0
  189.4910  176.9930  143.1050 C   0  0  2  0  0  3  0  0  0  0  0  0
  190.6950  175.6380  138.3460 C   0  0  2  0  0  3  0  0  0  0  0  0
  187.3750  177.2170  134.9040 C   0  0  0  0  0  2  0  0  0  0  0  0
  188.6260  175.0690  134.5940 N   0  0  0  0  0  0  0  0  0  0  0  0
  188.2500  178.5640  141.5510 C   0  0  0  0  0  2  0  0  0  0  0  0
  188.6850  179.1880  139.1930 C   0  0  0  0  0  2  0  0  0  0  0  0
  188.0390  175.9750  135.4030 C   0  0  0  0  0  0  0  0  0  0  0  0
  189.6750  176.7010  138.6230 N   0  0  2  0  0  0  0  0  0  0  0  0
  186.2800  177.5960  137.1180 N   0  0  0  0  0  0  0  0  0  0  0  0
  189.2480  178.4380  140.3940 C   0  0  2  0  0  3  0  0  0  0  0  0
  189.7890  179.3960  143.2030 O   0  0  0  0  0  1  0  0  0  0  0  0
  189.5050  176.9450  140.0830 C   0  0  2  0  0  3  0  0  0  0  0  0
  186.0910  177.5200  135.6670 C   0  0  0  0  0  2  0  0  0  0  0  0
  184.4620  176.0460  137.7100 C   0  0  0  0  0  3  0  0  0  0  0  0
  185.1540  177.2420  137.9420 C   0  0  0  0  0  0  0  0  0  0  0  0
  184.7040  178.1040  138.9540 C   0  0  0  0  0  3  0  0  0  0  0  0
  183.1640  178.6100  140.7000 F   0  0  0  0  0  0  0  0  0  0  0  0
  182.9140  176.5730  139.4950 C   0  0  0  0  0  3  0  0  0  0  0  0
  183.5920  177.7700  139.7300 C   0  0  0  0  0  0  0  0  0  0  0  0
  183.3490  175.7100  138.4860 C   0  0  0  0  0  3  0  0  0  0  0  0
  188.5150  176.8850  145.2800 O   0  0  0  0  0  1  0  0  0  0  0  0
  189.7110  176.7120  144.5820 C   0  0  0  0  0  2  0  0  0  0  0  0
  191.8210  176.2290  137.5110 C   0  0  0  0  0  2  0  0  0  0  0  0
  193.1440  175.9550  138.1310 C   0  0  0  0  0  0  0  0  0  0  0  0
  193.6090  176.7600  138.9790 O   0  0  0  0  0  0  0  0  0  0  0  0
  193.8300  174.7880  137.8010 O   0  0  0  0  0  0  0  0  0  0  0  0
  195.0820  174.4630  138.3900 C   0  0  0  0  0  1  0  0  0  0  0  0
  1  3  1  0  0  0  0
  3 11  1  0  0  0  0
  4 16  1  0  0  0  0
  5 12  1  0  0  0  0
  6  2  1  6  0  0  0
  6 18  1  0  0  0  0
  7 11  1  0  0  0  0
  7 21  1  6  0  0  0
  8  2  2  0  0  0  0
  8  5  1  0  0  0  0
  9  6  1  0  0  0  0
  9  4  1  1  0  0  0
 10  8  1  0  0  0  0
 11 32  1  1  0  0  0
 12 33  1  6  0  0  0
 12 18  1  0  0  0  0
 13 17  1  0  0  0  0
 13 23  1  0  0  0  0
 14 10  1  0  0  0  0
 14 17  2  0  0  0  0
 15  7  1  0  0  0  0
 16 20  1  0  0  0  0
 17  2  1  0  0  0  0
 18 22  1  0  0  0  0
 19  9  1  0  0  0  0
 19 25  1  0  0  0  0
 20 15  1  0  0  0  0
 22 20  1  0  0  0  0
 22  1  1  0  0  0  0
 23 19  1  0  0  0  0
 24 25  2  0  0  0  0
 24 30  1  0  0  0  0
 25 26  1  0  0  0  0
 26 29  2  0  0  0  0
 28 29  1  0  0  0  0
 29 27  1  0  0  0  0
 30 28  2  0  0  0  0
 32 31  1  0  0  0  0
 33 34  1  0  0  0  0
 34 35  2  0  0  0  0
 36 34  1  0  0  0  0
 36 37  1  0  0  0  0
M  END
>  <MODEL>
5

>  <REMARK>
 VINA RESULT:      -5.7      3.958      8.461
  Name = 
  5 active torsions:
  status: ('A' for Active; 'I' for Inactive)
    1  A    between atoms: O_3  and  C_21
    2  A    between atoms: C_6  and  N_31
    3  A    between atoms: C_17  and  C_23
    4  A    between atoms: C_20  and  C_25
    5  A    between atoms: C_21  and  C_25
                            x       y       z     vdW  Elec       q    Type
                         _______ _______ _______ _____ _____    ______ ____

>  <TORSDO>
F 5

$$$$
=
 OpenBabel10262422493D

 37 42  0  0  1  0  0  0  0  0999 V2000
  186.5880  178.0650  140.6900 C   0  0  0  0  0  2  0  0  0  0  0  0
  183.9860  176.8860  136.7930 C   0  0  0  0  0  0  0  0  0  0  0  0
  186.7990  178.4840  142.1410 C   0  0  0  0  0  2  0  0  0  0  0  0
  182.3360  178.7990  139.5760 O   0  0  0  0  0  0  0  0  0  0  0  0
  186.3230  176.3290  137.2670 C   0  0  0  0  0  2  0  0  0  0  0  0
  183.8300  177.4200  138.1920 C   0  0  2  0  0  3  0  0  0  0  0  0
  184.5890  178.8330  143.2580 C   0  0  2  0  0  3  0  0  0  0  0  0
  185.1580  176.3780  136.3650 C   0  0  0  0  0  0  0  0  0  0  0  0
  182.5570  178.3000  138.2850 C   0  0  1  0  0  3  0  0  0  0  0  0
  185.1160  176.1840  135.0730 O   0  0  0  0  0  0  0  0  0  0  0  0
  185.7680  177.8760  143.0780 C   0  0  2  0  0  3  0  0  0  0  0  0
  186.3610  177.6760  138.0240 C   0  0  2  0  0  3  0  0  0  0  0  0
  182.0200  177.8810  135.4790 C   0  0  0  0  0  2  0  0  0  0  0  0
  183.9690  176.5810  134.5940 N   0  0  0  0  0  0  0  0  0  0  0  0
  183.6660  178.8460  142.0460 C   0  0  0  0  0  2  0  0  0  0  0  0
  183.2630  179.8190  139.8030 C   0  0  0  0  0  2  0  0  0  0  0  0
  183.2440  177.0390  135.6350 C   0  0  0  0  0  0  0  0  0  0  0  0
  185.0720  178.1240  138.6440 N   0  0  2  0  0  0  0  0  0  0  0  0
  181.3830  177.5090  137.8670 N   0  0  0  0  0  0  0  0  0  0  0  0
  184.3410  179.2990  140.7460 C   0  0  2  0  0  3  0  0  0  0  0  0
  185.0190  180.1290  143.5660 O   0  0  0  0  0  1  0  0  0  0  0  0
  185.1390  178.1250  140.1320 C   0  0  2  0  0  3  0  0  0  0  0  0
  180.9320  177.4920  136.4720 C   0  0  0  0  0  2  0  0  0  0  0  0
  180.2020  177.0800  139.9840 C   0  0  0  0  0  3  0  0  0  0  0  0
  180.7290  176.6040  138.7750 C   0  0  0  0  0  0  0  0  0  0  0  0
  180.6480  175.2320  138.4900 C   0  0  0  0  0  3  0  0  0  0  0  0
  179.9700  173.0330  139.1080 F   0  0  0  0  0  0  0  0  0  0  0  0
  179.5120  174.8400  140.5880 C   0  0  0  0  0  3  0  0  0  0  0  0
  180.0390  174.3540  139.3900 C   0  0  0  0  0  0  0  0  0  0  0  0
  179.5930  176.2020  140.8850 C   0  0  0  0  0  3  0  0  0  0  0  0
  187.6290  176.9440  144.2450 O   0  0  0  0  0  1  0  0  0  0  0  0
  186.4050  177.5890  144.4270 C   0  0  0  0  0  2  0  0  0  0  0  0
  186.9110  178.7910  137.1490 C   0  0  0  0  0  2  0  0  0  0  0  0
  188.3980  178.7680  137.1270 C   0  0  0  0  0  0  0  0  0  0  0  0
  189.0390  179.3390  138.0480 O   0  0  0  0  0  0  0  0  0  0  0  0
  189.0610  178.0750  136.1170 O   0  0  0  0  0  0  0  0  0  0  0  0
  189.9030  176.9660  136.3970 C   0  0  0  0  0  1  0  0  0  0  0  0
  1  3  1  0  0  0  0
  3 11  1  0  0  0  0
  4 16  1  0  0  0  0
  5 12  1  0  0  0  0
  6  2  1  6  0  0  0
  6  9  1  0  0  0  0
  6 18  1  0  0  0  0
  7 21  1  6  0  0  0
  8  2  2  0  0  0  0
  8  5  1  0  0  0  0
  9  4  1  1  0  0  0
 10  8  1  0  0  0  0
 11  7  1  0  0  0  0
 11 32  1  1  0  0  0
 12 33  1  6  0  0  0
 12 18  1  0  0  0  0
 13 17  1  0  0  0  0
 13 23  1  0  0  0  0
 14 10  1  0  0  0  0
 14 17  2  0  0  0  0
 15  7  1  0  0  0  0
 16 20  1  0  0  0  0
 17  2  1  0  0  0  0
 18 22  1  0  0  0  0
 19  9  1  0  0  0  0
 19 25  1  0  0  0  0
 20 15  1  0  0  0  0
 22  1  1  0  0  0  0
 22 20  1  0  0  0  0
 23 19  1  0  0  0  0
 24 30  1  0  0  0  0
 25 24  2  0  0  0  0
 26 25  1  0  0  0  0
 26 29  2  0  0  0  0
 27 29  1  0  0  0  0
 28 30  2  0  0  0  0
 29 28  1  0  0  0  0
 31 32  1  0  0  0  0
 34 33  1  0  0  0  0
 34 35  2  0  0  0  0
 36 37  1  0  0  0  0
 36 34  1  0  0  0  0
M  END
>  <MODEL>
6

>  <REMARK>
 VINA RESULT:      -5.7      2.533      6.296
  Name = 
  5 active torsions:
  status: ('A' for Active; 'I' for Inactive)
    1  A    between atoms: O_3  and  C_21
    2  A    between atoms: C_6  and  N_31
    3  A    between atoms: C_17  and  C_23
    4  A    between atoms: C_20  and  C_25
    5  A    between atoms: C_21  and  C_25
                            x       y       z     vdW  Elec       q    Type
                         _______ _______ _______ _____ _____    ______ ____

>  <TORSDO>
F 5

$$$$
=
 OpenBabel10262422493D

 37 42  0  0  1  0  0  0  0  0999 V2000
  182.3020  178.0850  141.8320 C   0  0  0  0  0  2  0  0  0  0  0  0
  187.1200  177.8510  141.5520 C   0  0  0  0  0  0  0  0  0  0  0  0
  180.8810  178.1320  141.2780 C   0  0  0  0  0  2  0  0  0  0  0  0
  185.1700  178.9540  138.5340 O   0  0  0  0  0  0  0  0  0  0  0  0
  185.6920  177.2600  143.4520 C   0  0  0  0  0  2  0  0  0  0  0  0
  185.8990  178.0110  140.6850 C   0  0  2  0  0  3  0  0  0  0  0  0
  180.9400  178.1250  138.7780 C   0  0  2  0  0  3  0  0  0  0  0  0
  187.0150  177.5010  142.8490 C   0  0  0  0  0  0  0  0  0  0  0  0
  186.2600  178.8020  139.4020 C   0  0  1  0  0  3  0  0  0  0  0  0
  188.1710  177.6370  143.4430 O   0  0  0  0  0  0  0  0  0  0  0  0
  180.7150  177.2780  140.0310 C   0  0  2  0  0  3  0  0  0  0  0  0
  184.7540  178.3730  142.9340 C   0  0  2  0  0  3  0  0  0  0  0  0
  188.9880  179.0880  140.3040 C   0  0  0  0  0  2  0  0  0  0  0  0
  189.0560  178.1090  142.6080 N   0  0  0  0  0  0  0  0  0  0  0  0
  182.4160  178.4160  138.5350 C   0  0  0  0  0  2  0  0  0  0  0  0
  184.3140  179.9100  139.0870 C   0  0  0  0  0  2  0  0  0  0  0  0
  188.4320  178.2690  141.4220 C   0  0  0  0  0  0  0  0  0  0  0  0
  184.7640  178.6140  141.4540 N   0  0  2  0  0  0  0  0  0  0  0  0
  187.3510  178.1080  138.6900 N   0  0  0  0  0  0  0  0  0  0  0  0
  183.0960  179.2000  139.6640 C   0  0  2  0  0  3  0  0  0  0  0  0
  180.2020  179.3130  138.8190 O   0  0  0  0  0  1  0  0  0  0  0  0
  183.4690  178.2420  140.8190 C   0  0  2  0  0  3  0  0  0  0  0  0
  188.7570  178.4300  138.9480 C   0  0  0  0  0  2  0  0  0  0  0  0
  188.0810  176.0240  137.6010 C   0  0  0  0  0  3  0  0  0  0  0  0
  187.0860  176.9860  137.8280 C   0  0  0  0  0  0  0  0  0  0  0  0
  185.8540  176.8590  137.1690 C   0  0  0  0  0  3  0  0  0  0  0  0
  184.4240  175.6750  135.6760 F   0  0  0  0  0  0  0  0  0  0  0  0
  186.6090  174.8290  136.0960 C   0  0  0  0  0  3  0  0  0  0  0  0
  185.6140  175.7850  136.3090 C   0  0  0  0  0  0  0  0  0  0  0  0
  187.8420  174.9480  136.7410 C   0  0  0  0  0  3  0  0  0  0  0  0
  178.9630  176.2440  141.2770 O   0  0  0  0  0  1  0  0  0  0  0  0
  179.3190  176.6790  140.0000 C   0  0  0  0  0  2  0  0  0  0  0  0
  184.9970  179.6880  143.6580 C   0  0  0  0  0  2  0  0  0  0  0  0
  184.6370  179.5790  145.0960 C   0  0  0  0  0  0  0  0  0  0  0  0
  183.4550  179.2920  145.4190 O   0  0  0  0  0  0  0  0  0  0  0  0
  185.6220  179.7490  146.0670 O   0  0  0  0  0  0  0  0  0  0  0  0
  186.0090  178.6930  146.9350 C   0  0  0  0  0  1  0  0  0  0  0  0
  2  8  2  0  0  0  0
  3  1  1  0  0  0  0
  4 16  1  0  0  0  0
  6 18  1  0  0  0  0
  6  2  1  1  0  0  0
  7 21  1  1  0  0  0
  7 11  1  0  0  0  0
  8 10  1  0  0  0  0
  8  5  1  0  0  0  0
  9  4  1  6  0  0  0
  9  6  1  0  0  0  0
 11 32  1  6  0  0  0
 11  3  1  0  0  0  0
 12  5  1  0  0  0  0
 12 33  1  1  0  0  0
 13 17  1  0  0  0  0
 14 10  1  0  0  0  0
 15  7  1  0  0  0  0
 15 20  1  0  0  0  0
 16 20  1  0  0  0  0
 17  2  1  0  0  0  0
 17 14  2  0  0  0  0
 18 12  1  0  0  0  0
 19 23  1  0  0  0  0
 19  9  1  0  0  0  0
 20 22  1  0  0  0  0
 22 18  1  0  0  0  0
 22  1  1  0  0  0  0
 23 13  1  0  0  0  0
 24 25  1  0  0  0  0
 25 19  1  0  0  0  0
 26 25  2  0  0  0  0
 27 29  1  0  0  0  0
 28 29  2  0  0  0  0
 28 30  1  0  0  0  0
 29 26  1  0  0  0  0
 30 24  2  0  0  0  0
 32 31  1  0  0  0  0
 33 34  1  0  0  0  0
 34 35  2  0  0  0  0
 34 36  1  0  0  0  0
 36 37  1  0  0  0  0
M  END
>  <MODEL>
7

>  <REMARK>
 VINA RESULT:      -5.3      2.857      7.367
  Name = 
  5 active torsions:
  status: ('A' for Active; 'I' for Inactive)
    1  A    between atoms: O_3  and  C_21
    2  A    between atoms: C_6  and  N_31
    3  A    between atoms: C_17  and  C_23
    4  A    between atoms: C_20  and  C_25
    5  A    between atoms: C_21  and  C_25
                            x       y       z     vdW  Elec       q    Type
                         _______ _______ _______ _____ _____    ______ ____

>  <TORSDO>
F 5

$$$$
=
 OpenBabel10262422493D

 37 42  0  0  1  0  0  0  0  0999 V2000
  190.3130  176.6260  141.2260 C   0  0  0  0  0  2  0  0  0  0  0  0
  189.2980  175.6550  136.6030 C   0  0  0  0  0  0  0  0  0  0  0  0
  190.0150  177.1300  142.6350 C   0  0  0  0  0  2  0  0  0  0  0  0
  187.1700  178.1390  138.4540 O   0  0  0  0  0  0  0  0  0  0  0  0
  191.0450  174.6600  138.0010 C   0  0  0  0  0  2  0  0  0  0  0  0
  188.7230  176.3440  137.8120 C   0  0  2  0  0  3  0  0  0  0  0  0
  187.6930  178.0510  142.7380 C   0  0  2  0  0  3  0  0  0  0  0  0
  190.3870  174.8690  136.6990 C   0  0  0  0  0  0  0  0  0  0  0  0
  187.7660  177.4810  137.3700 C   0  0  1  0  0  3  0  0  0  0  0  0
  190.8240  174.5630  135.5050 O   0  0  0  0  0  0  0  0  0  0  0  0
  188.5830  176.8510  143.0620 C   0  0  2  0  0  3  0  0  0  0  0  0
  191.0910  176.0350  138.7050 C   0  0  2  0  0  3  0  0  0  0  0  0
  188.3200  176.9140  134.5940 C   0  0  0  0  0  2  0  0  0  0  0  0
  190.0950  175.1470  134.5940 N   0  0  0  0  0  0  0  0  0  0  0  0
  187.3650  178.1430  141.2530 C   0  0  0  0  0  2  0  0  0  0  0  0
  188.1390  178.9550  139.0430 C   0  0  0  0  0  2  0  0  0  0  0  0
  189.1420  175.8490  135.2410 C   0  0  0  0  0  0  0  0  0  0  0  0
  189.8060  176.8070  138.7370 N   0  0  2  0  0  0  0  0  0  0  0  0
  186.7090  176.9220  136.5040 N   0  0  0  0  0  0  0  0  0  0  0  0
  188.5910  178.3110  140.3480 C   0  0  2  0  0  3  0  0  0  0  0  0
  188.2540  179.2480  143.1950 O   0  0  0  0  0  1  0  0  0  0  0  0
  189.2680  176.9400  140.1190 C   0  0  2  0  0  3  0  0  0  0  0  0
  186.8660  176.8660  135.0480 C   0  0  0  0  0  2  0  0  0  0  0  0
  184.4770  177.0350  137.5360 C   0  0  0  0  0  3  0  0  0  0  0  0
  185.5520  176.2710  137.0610 C   0  0  0  0  0  0  0  0  0  0  0  0
  185.5000  174.8740  137.1810 C   0  0  0  0  0  3  0  0  0  0  0  0
  184.3510  172.9020  137.8650 F   0  0  0  0  0  0  0  0  0  0  0  0
  183.3200  175.0200  138.2140 C   0  0  0  0  0  3  0  0  0  0  0  0
  184.3880  174.2500  137.7510 C   0  0  0  0  0  0  0  0  0  0  0  0
  183.3640  176.4110  138.1070 C   0  0  0  0  0  3  0  0  0  0  0  0
  189.1290  177.6210  145.2530 O   0  0  0  0  0  1  0  0  0  0  0  0
  188.5370  176.5680  144.5540 C   0  0  0  0  0  2  0  0  0  0  0  0
  192.1920  176.9150  138.1350 C   0  0  0  0  0  2  0  0  0  0  0  0
  193.5080  176.5840  138.7410 C   0  0  0  0  0  0  0  0  0  0  0  0
  193.8020  177.0450  139.8750 O   0  0  0  0  0  0  0  0  0  0  0  0
  194.3790  175.7280  138.0700 O   0  0  0  0  0  0  0  0  0  0  0  0
  194.3110  175.5420  136.6630 C   0  0  0  0  0  1  0  0  0  0  0  0
  1  3  1  0  0  0  0
  2  8  2  0  0  0  0
  3 11  1  0  0  0  0
  4 16  1  0  0  0  0
  5 12  1  0  0  0  0
  6  2  1  6  0  0  0
  6 18  1  0  0  0  0
  7 11  1  0  0  0  0
  7 21  1  6  0  0  0
  8  5  1  0  0  0  0
  9  6  1  0  0  0  0
  9  4  1  1  0  0  0
 10  8  1  0  0  0  0
 11 32  1  1  0  0  0
 12 33  1  6  0  0  0
 12 18  1  0  0  0  0
 13 23  1  0  0  0  0
 13 17  1  0  0  0  0
 14 17  2  0  0  0  0
 14 10  1  0  0  0  0
 15  7  1  0  0  0  0
 16 20  1  0  0  0  0
 17  2  1  0  0  0  0
 18 22  1  0  0  0  0
 19 25  1  0  0  0  0
 19  9  1  0  0  0  0
 20 15  1  0  0  0  0
 22 20  1  0  0  0  0
 22  1  1  0  0  0  0
 23 19  1  0  0  0  0
 24 30  1  0  0  0  0
 25 26  1  0  0  0  0
 25 24  2  0  0  0  0
 26 29  2  0  0  0  0
 29 27  1  0  0  0  0
 29 28  1  0  0  0  0
 30 28  2  0  0  0  0
 32 31  1  0  0  0  0
 33 34  1  0  0  0  0
 34 35  2  0  0  0  0
 36 34  1  0  0  0  0
 37 36  1  0  0  0  0
M  END
>  <MODEL>
8

>  <REMARK>
 VINA RESULT:      -5.2      4.327      8.910
  Name = 
  5 active torsions:
  status: ('A' for Active; 'I' for Inactive)
    1  A    between atoms: O_3  and  C_21
    2  A    between atoms: C_6  and  N_31
    3  A    between atoms: C_17  and  C_23
    4  A    between atoms: C_20  and  C_25
    5  A    between atoms: C_21  and  C_25
                            x       y       z     vdW  Elec       q    Type
                         _______ _______ _______ _____ _____    ______ ____

>  <TORSDO>
F 5

$$$$
=
 OpenBabel10262422493D

 37 42  0  0  1  0  0  0  0  0999 V2000
  179.7240  178.6400  136.7990 C   0  0  0  0  0  2  0  0  0  0  0  0
  182.4540  174.7690  135.8490 C   0  0  0  0  0  0  0  0  0  0  0  0
  179.4360  180.0310  137.3550 C   0  0  0  0  0  2  0  0  0  0  0  0
  183.5300  177.1370  138.5620 O   0  0  0  0  0  0  0  0  0  0  0  0
  180.4040  175.4790  134.7140 C   0  0  0  0  0  2  0  0  0  0  0  0
  182.4810  176.0660  136.6120 C   0  0  2  0  0  3  0  0  0  0  0  0
  181.4690  180.9300  138.5000 C   0  0  2  0  0  3  0  0  0  0  0  0
  181.4760  174.5000  134.9630 C   0  0  0  0  0  0  0  0  0  0  0  0
  183.4340  175.9470  137.8290 C   0  0  1  0  0  3  0  0  0  0  0  0
  181.5400  173.2470  134.5940 O   0  0  0  0  0  0  0  0  0  0  0  0
  180.6260  180.9680  137.2240 C   0  0  2  0  0  3  0  0  0  0  0  0
  179.9850  176.0450  136.0900 C   0  0  2  0  0  3  0  0  0  0  0  0
  183.9960  173.1950  137.1620 C   0  0  0  0  0  2  0  0  0  0  0  0
  182.5020  172.6370  135.2300 N   0  0  0  0  0  0  0  0  0  0  0  0
  182.3130  179.6660  138.5960 C   0  0  0  0  0  2  0  0  0  0  0  0
  182.3470  177.2870  139.2890 C   0  0  0  0  0  2  0  0  0  0  0  0
  183.0850  173.5510  136.0330 C   0  0  0  0  0  0  0  0  0  0  0  0
  181.0970  176.5040  136.9840 N   0  0  2  0  0  0  0  0  0  0  0  0
  184.7790  175.5590  137.3600 N   0  0  0  0  0  0  0  0  0  0  0  0
  181.4990  178.3670  138.6280 C   0  0  2  0  0  3  0  0  0  0  0  0
  180.6790  181.0860  139.6450 O   0  0  0  0  0  1  0  0  0  0  0  0
  181.0730  177.9790  137.1930 C   0  0  2  0  0  3  0  0  0  0  0  0
  185.1770  174.1520  137.2630 C   0  0  0  0  0  2  0  0  0  0  0  0
  185.6760  176.8600  135.4720 C   0  0  0  0  0  3  0  0  0  0  0  0
  185.6980  176.5350  136.8360 C   0  0  0  0  0  0  0  0  0  0  0  0
  186.6570  177.1390  137.6650 C   0  0  0  0  0  3  0  0  0  0  0  0
  188.4890  178.6350  137.9500 F   0  0  0  0  0  0  0  0  0  0  0  0
  187.5310  178.3830  135.7850 C   0  0  0  0  0  3  0  0  0  0  0  0
  187.5670  178.0620  137.1440 C   0  0  0  0  0  0  0  0  0  0  0  0
  186.5860  177.7840  134.9500 C   0  0  0  0  0  3  0  0  0  0  0  0
  181.1670  183.2920  137.2460 O   0  0  0  0  0  1  0  0  0  0  0  0
  180.1400  182.3850  136.9740 C   0  0  0  0  0  2  0  0  0  0  0  0
  179.1030  175.0650  136.8480 C   0  0  0  0  0  2  0  0  0  0  0  0
  179.5830  174.8860  138.2440 C   0  0  0  0  0  0  0  0  0  0  0  0
  179.2100  175.6930  139.1360 O   0  0  0  0  0  0  0  0  0  0  0  0
  180.3990  173.8010  138.5580 O   0  0  0  0  0  0  0  0  0  0  0  0
  180.2000  172.5200  137.9760 C   0  0  0  0  0  1  0  0  0  0  0  0
  1 22  1  0  0  0  0
  1  3  1  0  0  0  0
  2 17  1  0  0  0  0
  4 16  1  0  0  0  0
  5  8  1  0  0  0  0
  5 12  1  0  0  0  0
  6  2  1  1  0  0  0
  6 18  1  0  0  0  0
  6  9  1  0  0  0  0
  7 15  1  0  0  0  0
  7 21  1  1  0  0  0
  8  2  2  0  0  0  0
  9  4  1  6  0  0  0
 10  8  1  0  0  0  0
 10 14  1  0  0  0  0
 11 32  1  1  0  0  0
 11  3  1  0  0  0  0
 11  7  1  0  0  0  0
 12 33  1  1  0  0  0
 12 18  1  0  0  0  0
 13 23  1  0  0  0  0
 14 17  2  0  0  0  0
 15 20  1  0  0  0  0
 17 13  1  0  0  0  0
 18 22  1  0  0  0  0
 19  9  1  0  0  0  0
 20 16  1  0  0  0  0
 22 20  1  0  0  0  0
 23 19  1  0  0  0  0
 24 25  1  0  0  0  0
 25 19  1  0  0  0  0
 25 26  2  0  0  0  0
 28 29  2  0  0  0  0
 29 26  1  0  0  0  0
 29 27  1  0  0  0  0
 30 24  2  0  0  0  0
 30 28  1  0  0  0  0
 32 31  1  0  0  0  0
 33 34  1  0  0  0  0
 34 36  1  0  0  0  0
 34 35  2  0  0  0  0
 37 36  1  0  0  0  0
M  END
>  <MODEL>
9

>  <REMARK>
 VINA RESULT:      -5.2      3.473      6.508
  Name = 
  5 active torsions:
  status: ('A' for Active; 'I' for Inactive)
    1  A    between atoms: O_3  and  C_21
    2  A    between atoms: C_6  and  N_31
    3  A    between atoms: C_17  and  C_23
    4  A    between atoms: C_20  and  C_25
    5  A    between atoms: C_21  and  C_25
                            x       y       z     vdW  Elec       q    Type
                         _______ _______ _______ _____ _____    ______ ____

>  <TORSDO>
F 5

$$$$
