=
 OpenBabel10262419593D

 27 31  0  0  1  0  0  0  0  0999 V2000
  187.5540  179.0470  141.9810 O   0  0  0  0  0  0  0  0  0  0  0  0
  187.4000  177.6210  143.8870 C   0  0  0  0  0  0  0  0  0  0  0  0
  189.6910  177.3970  142.8950 N   0  0  0  0  0  2  0  0  0  0  0  0
  189.2450  176.7560  147.6540 C   0  0  0  0  0  2  0  0  0  0  0  0
  191.5090  177.6610  147.8290 N   0  0  0  0  0  1  0  0  0  0  0  0
  186.5770  177.5510  145.0350 C   0  0  0  0  0  3  0  0  0  0  0  0
  190.6570  176.8580  145.7220 C   0  0  0  0  0  0  0  0  0  0  0  0
  189.9780  176.3130  139.3450 C   0  0  0  0  0  2  0  0  0  0  0  0
  191.6550  176.8130  144.9570 O   0  0  0  0  0  0  0  0  0  0  0  0
  189.6520  177.2840  138.2060 C   0  0  0  0  0  2  0  0  0  0  0  0
  189.3010  177.1260  145.3010 C   0  0  0  0  0  0  0  0  0  0  0  0
  186.8200  177.9810  142.5350 C   0  0  1  0  0  3  0  0  0  0  0  0
  190.7110  176.6250  147.1960 C   0  0  2  0  0  3  0  0  0  0  0  0
  188.4880  177.0670  146.4030 C   0  0  0  0  0  0  0  0  0  0  0  0
  188.4940  178.5430  141.0510 C   0  0  2  0  0  3  0  0  0  0  0  0
  188.7950  177.3820  144.0190 C   0  0  0  0  0  0  0  0  0  0  0  0
  190.4570  177.0010  140.6150 C   0  0  0  0  0  2  0  0  0  0  0  0
  187.1160  177.2700  146.2970 C   0  0  0  0  0  3  0  0  0  0  0  0
  188.9440  178.5830  138.6110 C   0  0  0  0  0  2  0  0  0  0  0  0
  187.8680  178.3830  139.6680 C   0  0  0  0  0  2  0  0  0  0  0  0
  189.2590  177.2820  141.5080 C   0  0  1  0  0  3  0  0  0  0  0  0
  182.6070  178.8470  142.5250 C   0  0  0  0  0  3  0  0  0  0  0  0
  185.3540  178.3000  142.5410 C   0  0  0  0  0  0  0  0  0  0  0  0
  184.5880  178.0190  141.4040 C   0  0  0  0  0  3  0  0  0  0  0  0
  183.2170  178.2930  141.3950 C   0  0  0  0  0  3  0  0  0  0  0  0
  183.3680  179.1260  143.6640 C   0  0  0  0  0  3  0  0  0  0  0  0
  184.7380  178.8510  143.6740 C   0  0  0  0  0  3  0  0  0  0  0  0
  1 12  1  0  0  0  0
  2 16  2  0  0  0  0
  2  6  1  0  0  0  0
  3 16  1  0  0  0  0
  6 18  2  0  0  0  0
  7 13  1  0  0  0  0
  8 17  1  0  0  0  0
  9  7  2  0  0  0  0
 10 19  1  0  0  0  0
 10  8  1  0  0  0  0
 11  7  1  0  0  0  0
 11 14  2  0  0  0  0
 12 23  1  1  0  0  0
 12  2  1  0  0  0  0
 13  4  1  0  0  0  0
 13  5  1  1  0  0  0
 14  4  1  0  0  0  0
 15 20  1  6  0  0  0
 15 21  1  0  0  0  0
 15  1  1  0  0  0  0
 16 11  1  0  0  0  0
 18 14  1  0  0  0  0
 19 20  1  0  0  0  0
 21 17  1  6  0  0  0
 21  3  1  0  0  0  0
 22 26  1  0  0  0  0
 23 27  1  0  0  0  0
 24 23  2  0  0  0  0
 25 24  1  0  0  0  0
 25 22  2  0  0  0  0
 26 27  2  0  0  0  0
M  END
>  <MODEL>
1

>  <REMARK>
 VINA RESULT:     -10.5      0.000      0.000
  Name = 
  1 active torsions:
  status: ('A' for Active; 'I' for Inactive)
    1  A    between atoms: C_9  and  C_15
                            x       y       z     vdW  Elec       q    Type
                         _______ _______ _______ _____ _____    ______ ____

>  <TORSDO>
F 1

$$$$
=
 OpenBabel10262419593D

 27 31  0  0  1  0  0  0  0  0999 V2000
  187.5630  176.6350  143.9640 O   0  0  0  0  0  0  0  0  0  0  0  0
  185.8760  178.2820  144.3280 C   0  0  0  0  0  0  0  0  0  0  0  0
  186.1260  177.9150  141.8620 N   0  0  0  0  0  2  0  0  0  0  0  0
  181.7760  179.2020  143.4990 C   0  0  0  0  0  2  0  0  0  0  0  0
  180.8660  177.8850  141.6510 N   0  0  0  0  0  1  0  0  0  0  0  0
  185.0420  178.6540  145.4080 C   0  0  0  0  0  3  0  0  0  0  0  0
  183.1720  178.5830  141.6530 C   0  0  0  0  0  0  0  0  0  0  0  0
  189.4690  178.4830  140.3240 C   0  0  0  0  0  2  0  0  0  0  0  0
  183.5950  178.3330  140.4940 O   0  0  0  0  0  0  0  0  0  0  0  0
  190.5990  177.4670  140.5220 C   0  0  0  0  0  2  0  0  0  0  0  0
  183.9740  178.5470  142.8540 C   0  0  0  0  0  0  0  0  0  0  0  0
  187.3190  177.8860  144.5610 C   0  0  1  0  0  3  0  0  0  0  0  0
  181.7680  178.9770  141.9740 C   0  0  2  0  0  3  0  0  0  0  0  0
  183.1800  178.9020  143.9140 C   0  0  0  0  0  0  0  0  0  0  0  0
  188.1840  176.8220  142.7070 C   0  0  2  0  0  3  0  0  0  0  0  0
  185.3340  178.2470  143.0140 C   0  0  0  0  0  0  0  0  0  0  0  0
  188.0780  177.8700  140.4020 C   0  0  0  0  0  2  0  0  0  0  0  0
  183.6920  178.9700  145.2060 C   0  0  0  0  0  3  0  0  0  0  0  0
  190.3620  176.3980  141.5950 C   0  0  0  0  0  2  0  0  0  0  0  0
  189.6990  176.9380  142.8540 C   0  0  0  0  0  2  0  0  0  0  0  0
  187.5830  177.9480  141.8380 C   0  0  1  0  0  3  0  0  0  0  0  0
  188.5950  177.8750  148.6690 C   0  0  0  0  0  3  0  0  0  0  0  0
  187.7470  177.8750  145.9990 C   0  0  0  0  0  0  0  0  0  0  0  0
  189.0570  177.5020  146.3210 C   0  0  0  0  0  3  0  0  0  0  0  0
  189.4800  177.5000  147.6530 C   0  0  0  0  0  3  0  0  0  0  0  0
  187.2860  178.2520  148.3520 C   0  0  0  0  0  3  0  0  0  0  0  0
  186.8630  178.2550  147.0190 C   0  0  0  0  0  3  0  0  0  0  0  0
  1 12  1  0  0  0  0
  2 12  1  0  0  0  0
  2  6  1  0  0  0  0
  3 16  1  0  0  0  0
  4 14  1  0  0  0  0
  7 13  1  0  0  0  0
  7 11  1  0  0  0  0
  8 17  1  0  0  0  0
  8 10  1  0  0  0  0
  9  7  2  0  0  0  0
 10 19  1  0  0  0  0
 11 16  1  0  0  0  0
 11 14  2  0  0  0  0
 12 23  1  1  0  0  0
 13  5  1  1  0  0  0
 13  4  1  0  0  0  0
 14 18  1  0  0  0  0
 15 20  1  1  0  0  0
 15  1  1  0  0  0  0
 16  2  2  0  0  0  0
 18  6  2  0  0  0  0
 19 20  1  0  0  0  0
 21 17  1  6  0  0  0
 21  3  1  0  0  0  0
 21 15  1  0  0  0  0
 23 24  2  0  0  0  0
 23 27  1  0  0  0  0
 24 25  1  0  0  0  0
 25 22  2  0  0  0  0
 26 22  1  0  0  0  0
 27 26  2  0  0  0  0
M  END
>  <MODEL>
2

>  <REMARK>
 VINA RESULT:     -10.5      2.397      6.005
  Name = 
  1 active torsions:
  status: ('A' for Active; 'I' for Inactive)
    1  A    between atoms: C_9  and  C_15
                            x       y       z     vdW  Elec       q    Type
                         _______ _______ _______ _____ _____    ______ ____

>  <TORSDO>
F 1

$$$$
=
 OpenBabel10262419593D

 27 31  0  0  1  0  0  0  0  0999 V2000
  187.4040  176.9710  143.1220 O   0  0  0  0  0  0  0  0  0  0  0  0
  186.8600  178.3070  141.2230 C   0  0  0  0  0  0  0  0  0  0  0  0
  189.2880  177.7000  141.1110 N   0  0  0  0  0  2  0  0  0  0  0  0
  186.9530  178.3450  136.9420 C   0  0  0  0  0  2  0  0  0  0  0  0
  188.4720  176.6700  136.0130 N   0  0  0  0  0  1  0  0  0  0  0  0
  185.6730  178.6460  140.5310 C   0  0  0  0  0  3  0  0  0  0  0  0
  188.9750  177.7790  138.0920 C   0  0  0  0  0  0  0  0  0  0  0  0
  191.4860  178.6890  143.9490 C   0  0  0  0  0  2  0  0  0  0  0  0
  190.1690  177.4740  138.3500 O   0  0  0  0  0  0  0  0  0  0  0  0
  191.4270  177.9320  145.2790 C   0  0  0  0  0  2  0  0  0  0  0  0
  187.9540  178.0370  139.0810 C   0  0  0  0  0  0  0  0  0  0  0  0
  186.8790  178.2180  142.7350 C   0  0  1  0  0  3  0  0  0  0  0  0
  188.4230  177.9410  136.7150 C   0  0  2  0  0  3  0  0  0  0  0  0
  186.7940  178.3630  138.4270 C   0  0  0  0  0  0  0  0  0  0  0  0
  188.7690  177.1170  143.4640 C   0  0  2  0  0  3  0  0  0  0  0  0
  188.0360  178.0150  140.4810 C   0  0  0  0  0  0  0  0  0  0  0  0
  191.0900  177.8420  142.7480 C   0  0  0  0  0  2  0  0  0  0  0  0
  185.6360  178.6800  139.1310 C   0  0  0  0  0  3  0  0  0  0  0  0
  190.2430  176.9740  145.4560 C   0  0  0  0  0  2  0  0  0  0  0  0
  188.9290  177.5290  144.9250 C   0  0  0  0  0  2  0  0  0  0  0  0
  189.5970  177.9990  142.5040 C   0  0  1  0  0  3  0  0  0  0  0  0
  183.1070  178.9460  144.6720 C   0  0  0  0  0  3  0  0  0  0  0  0
  185.5550  178.4580  143.3990 C   0  0  0  0  0  0  0  0  0  0  0  0
  185.5060  178.6270  144.7870 C   0  0  0  0  0  3  0  0  0  0  0  0
  184.2850  178.8690  145.4230 C   0  0  0  0  0  3  0  0  0  0  0  0
  183.1520  178.7810  143.2840 C   0  0  0  0  0  3  0  0  0  0  0  0
  184.3730  178.5410  142.6480 C   0  0  0  0  0  3  0  0  0  0  0  0
  1 15  1  0  0  0  0
  2 12  1  0  0  0  0
  3 21  1  0  0  0  0
  4 14  1  0  0  0  0
  6  2  1  0  0  0  0
  7  9  2  0  0  0  0
  7 11  1  0  0  0  0
  8 10  1  0  0  0  0
 10 19  1  0  0  0  0
 11 16  1  0  0  0  0
 12  1  1  0  0  0  0
 12 23  1  6  0  0  0
 13  5  1  6  0  0  0
 13  4  1  0  0  0  0
 13  7  1  0  0  0  0
 14 11  2  0  0  0  0
 14 18  1  0  0  0  0
 15 20  1  1  0  0  0
 16  3  1  0  0  0  0
 16  2  2  0  0  0  0
 17  8  1  0  0  0  0
 18  6  2  0  0  0  0
 20 19  1  0  0  0  0
 21 17  1  6  0  0  0
 21 15  1  0  0  0  0
 22 25  1  0  0  0  0
 23 24  1  0  0  0  0
 24 25  2  0  0  0  0
 26 22  2  0  0  0  0
 27 26  1  0  0  0  0
 27 23  2  0  0  0  0
M  END
>  <MODEL>
3

>  <REMARK>
 VINA RESULT:      -9.9      2.208      5.873
  Name = 
  1 active torsions:
  status: ('A' for Active; 'I' for Inactive)
    1  A    between atoms: C_9  and  C_15
                            x       y       z     vdW  Elec       q    Type
                         _______ _______ _______ _____ _____    ______ ____

>  <TORSDO>
F 1

$$$$
=
 OpenBabel10262419593D

 27 31  0  0  1  0  0  0  0  0999 V2000
  185.0050  179.5750  143.4250 O   0  0  0  0  0  0  0  0  0  0  0  0
  186.7210  178.1820  142.5280 C   0  0  0  0  0  0  0  0  0  0  0  0
  185.0070  178.5980  140.7470 N   0  0  0  0  0  2  0  0  0  0  0  0
  189.5670  177.9050  139.3400 C   0  0  0  0  0  2  0  0  0  0  0  0
  189.0550  179.4080  137.4810 N   0  0  0  0  0  1  0  0  0  0  0  0
  188.0670  177.8960  142.8560 C   0  0  0  0  0  3  0  0  0  0  0  0
  187.2920  178.3790  138.7610 C   0  0  0  0  0  0  0  0  0  0  0  0
  181.4830  177.6020  141.4230 C   0  0  0  0  0  2  0  0  0  0  0  0
  186.2360  178.6060  138.1130 O   0  0  0  0  0  0  0  0  0  0  0  0
  180.6080  178.4320  142.3670 C   0  0  0  0  0  2  0  0  0  0  0  0
  187.3720  178.2530  140.1980 C   0  0  0  0  0  0  0  0  0  0  0  0
  185.6760  178.3520  143.6110 C   0  0  1  0  0  3  0  0  0  0  0  0
  188.6370  178.1850  138.1430 C   0  0  2  0  0  3  0  0  0  0  0  0
  188.6720  177.9800  140.5350 C   0  0  0  0  0  0  0  0  0  0  0  0
  183.7750  179.3450  142.7650 C   0  0  2  0  0  3  0  0  0  0  0  0
  186.3590  178.3440  141.1630 C   0  0  0  0  0  0  0  0  0  0  0  0
  182.5760  178.4090  140.7370 C   0  0  0  0  0  2  0  0  0  0  0  0
  189.0480  177.7900  141.8610 C   0  0  0  0  0  3  0  0  0  0  0  0
  181.3370  179.4850  143.2100 C   0  0  0  0  0  2  0  0  0  0  0  0
  182.6710  179.0030  143.7620 C   0  0  0  0  0  2  0  0  0  0  0  0
  183.8390  178.3520  141.5830 C   0  0  1  0  0  3  0  0  0  0  0  0
  187.1210  178.0540  147.6520 C   0  0  0  0  0  3  0  0  0  0  0  0
  186.1980  178.2480  145.0140 C   0  0  0  0  0  0  0  0  0  0  0  0
  185.5960  179.0030  146.0270 C   0  0  0  0  0  3  0  0  0  0  0  0
  186.0560  178.9070  147.3430 C   0  0  0  0  0  3  0  0  0  0  0  0
  187.7230  177.2960  146.6440 C   0  0  0  0  0  3  0  0  0  0  0  0
  187.2620  177.3900  145.3280 C   0  0  0  0  0  3  0  0  0  0  0  0
  1 12  1  0  0  0  0
  2  6  1  0  0  0  0
  2 12  1  0  0  0  0
  3 16  1  0  0  0  0
  3 21  1  0  0  0  0
  4 14  1  0  0  0  0
  7 11  1  0  0  0  0
  8 10  1  0  0  0  0
  9  7  2  0  0  0  0
 10 19  1  0  0  0  0
 11 14  2  0  0  0  0
 11 16  1  0  0  0  0
 12 23  1  1  0  0  0
 13  5  1  1  0  0  0
 13  7  1  0  0  0  0
 13  4  1  0  0  0  0
 14 18  1  0  0  0  0
 15  1  1  0  0  0  0
 15 20  1  1  0  0  0
 16  2  2  0  0  0  0
 17  8  1  0  0  0  0
 18  6  2  0  0  0  0
 19 20  1  0  0  0  0
 21 17  1  6  0  0  0
 21 15  1  0  0  0  0
 23 27  2  0  0  0  0
 23 24  1  0  0  0  0
 24 25  2  0  0  0  0
 25 22  1  0  0  0  0
 26 22  2  0  0  0  0
 27 26  1  0  0  0  0
M  END
>  <MODEL>
4

>  <REMARK>
 VINA RESULT:      -9.9      2.933      6.549
  Name = 
  1 active torsions:
  status: ('A' for Active; 'I' for Inactive)
    1  A    between atoms: C_9  and  C_15
                            x       y       z     vdW  Elec       q    Type
                         _______ _______ _______ _____ _____    ______ ____

>  <TORSDO>
F 1

$$$$
=
 OpenBabel10262419593D

 27 31  0  0  1  0  0  0  0  0999 V2000
  186.6860  176.8840  144.4810 O   0  0  0  0  0  0  0  0  0  0  0  0
  187.2850  178.0850  142.5090 C   0  0  0  0  0  0  0  0  0  0  0  0
  189.3790  177.3910  143.6960 N   0  0  0  0  0  2  0  0  0  0  0  0
  189.5600  177.7860  138.8930 C   0  0  0  0  0  2  0  0  0  0  0  0
  191.2210  175.9940  138.9660 N   0  0  0  0  0  1  0  0  0  0  0  0
  186.6470  178.4090  141.2880 C   0  0  0  0  0  3  0  0  0  0  0  0
  190.6630  177.2450  140.9490 C   0  0  0  0  0  0  0  0  0  0  0  0
  189.8760  178.5250  147.2080 C   0  0  0  0  0  2  0  0  0  0  0  0
  191.5320  176.9210  141.8000 O   0  0  0  0  0  0  0  0  0  0  0  0
  189.0910  177.8760  148.3530 C   0  0  0  0  0  2  0  0  0  0  0  0
  189.3000  177.6120  141.2550 C   0  0  0  0  0  0  0  0  0  0  0  0
  186.5200  178.1130  143.8160 C   0  0  1  0  0  3  0  0  0  0  0  0
  190.9070  177.3170  139.4780 C   0  0  2  0  0  3  0  0  0  0  0  0
  188.6640  177.9250  140.0810 C   0  0  0  0  0  0  0  0  0  0  0  0
  187.6900  177.0110  145.4700 C   0  0  2  0  0  3  0  0  0  0  0  0
  188.6520  177.6970  142.4950 C   0  0  0  0  0  0  0  0  0  0  0  0
  190.0930  177.6010  146.0180 C   0  0  0  0  0  2  0  0  0  0  0  0
  187.3340  178.3340  140.0700 C   0  0  0  0  0  3  0  0  0  0  0  0
  187.9210  176.9750  147.9410 C   0  0  0  0  0  2  0  0  0  0  0  0
  187.1060  177.5290  146.7820 C   0  0  0  0  0  2  0  0  0  0  0  0
  188.9510  177.7880  145.0310 C   0  0  1  0  0  3  0  0  0  0  0  0
  182.3510  179.1210  143.4850 C   0  0  0  0  0  3  0  0  0  0  0  0
  185.0630  178.4490  143.6900 C   0  0  0  0  0  0  0  0  0  0  0  0
  184.3710  178.9260  144.8080 C   0  0  0  0  0  3  0  0  0  0  0  0
  183.0170  179.2600  144.7070 C   0  0  0  0  0  3  0  0  0  0  0  0
  183.0400  178.6470  142.3640 C   0  0  0  0  0  3  0  0  0  0  0  0
  184.3940  178.3140  142.4640 C   0  0  0  0  0  3  0  0  0  0  0  0
  1 15  1  0  0  0  0
  2 12  1  0  0  0  0
  3 21  1  0  0  0  0
  4 13  1  0  0  0  0
  4 14  1  0  0  0  0
  6  2  2  0  0  0  0
  7 11  1  0  0  0  0
  7  9  2  0  0  0  0
  8 10  1  0  0  0  0
 11 16  2  0  0  0  0
 12 23  1  6  0  0  0
 12  1  1  0  0  0  0
 13  5  1  6  0  0  0
 13  7  1  0  0  0  0
 14 11  1  0  0  0  0
 15 20  1  1  0  0  0
 16  2  1  0  0  0  0
 16  3  1  0  0  0  0
 17  8  1  0  0  0  0
 18 14  2  0  0  0  0
 18  6  1  0  0  0  0
 19 10  1  0  0  0  0
 20 19  1  0  0  0  0
 21 15  1  0  0  0  0
 21 17  1  1  0  0  0
 22 25  1  0  0  0  0
 23 24  1  0  0  0  0
 25 24  2  0  0  0  0
 26 27  1  0  0  0  0
 26 22  2  0  0  0  0
 27 23  2  0  0  0  0
M  END
>  <MODEL>
5

>  <REMARK>
 VINA RESULT:      -9.8      1.574      5.416
  Name = 
  1 active torsions:
  status: ('A' for Active; 'I' for Inactive)
    1  A    between atoms: C_9  and  C_15
                            x       y       z     vdW  Elec       q    Type
                         _______ _______ _______ _____ _____    ______ ____

>  <TORSDO>
F 1

$$$$
=
 OpenBabel10262419593D

 27 31  0  0  1  0  0  0  0  0999 V2000
  187.9460  176.6190  142.9990 O   0  0  0  0  0  0  0  0  0  0  0  0
  187.6860  177.9580  141.0420 C   0  0  0  0  0  0  0  0  0  0  0  0
  190.0830  177.2480  141.2210 N   0  0  0  0  0  2  0  0  0  0  0  0
  188.2840  177.9500  136.8020 C   0  0  0  0  0  2  0  0  0  0  0  0
  189.8290  176.2030  136.0670 N   0  0  0  0  0  1  0  0  0  0  0  0
  186.6050  178.3400  140.2130 C   0  0  0  0  0  3  0  0  0  0  0  0
  190.1310  177.3110  138.1860 C   0  0  0  0  0  0  0  0  0  0  0  0
  191.9720  178.1720  144.2930 C   0  0  0  0  0  2  0  0  0  0  0  0
  191.2720  176.9590  138.5840 O   0  0  0  0  0  0  0  0  0  0  0  0
  191.7230  177.4310  145.6110 C   0  0  0  0  0  2  0  0  0  0  0  0
  189.0120  177.6210  139.0460 C   0  0  0  0  0  0  0  0  0  0  0  0
  187.5230  177.8820  142.5460 C   0  0  1  0  0  3  0  0  0  0  0  0
  189.7520  177.4820  136.7520 C   0  0  2  0  0  3  0  0  0  0  0  0
  187.9530  177.9890  138.2580 C   0  0  0  0  0  0  0  0  0  0  0  0
  189.2660  176.7110  143.4990 C   0  0  2  0  0  3  0  0  0  0  0  0
  188.9280  177.6100  140.4450 C   0  0  0  0  0  0  0  0  0  0  0  0
  191.6830  177.3310  143.0580 C   0  0  0  0  0  2  0  0  0  0  0  0
  186.7340  178.3610  138.8180 C   0  0  0  0  0  3  0  0  0  0  0  0
  190.4870  176.5260  145.6520 C   0  0  0  0  0  2  0  0  0  0  0  0
  189.2700  177.1290  144.9670 C   0  0  0  0  0  2  0  0  0  0  0  0
  190.2380  177.5480  142.6390 C   0  0  1  0  0  3  0  0  0  0  0  0
  183.5420  178.7120  143.9500 C   0  0  0  0  0  3  0  0  0  0  0  0
  186.1420  178.1850  143.0480 C   0  0  0  0  0  0  0  0  0  0  0  0
  185.0840  178.2660  142.1350 C   0  0  0  0  0  3  0  0  0  0  0  0
  183.7870  178.5300  142.5850 C   0  0  0  0  0  3  0  0  0  0  0  0
  184.5960  178.6290  144.8660 C   0  0  0  0  0  3  0  0  0  0  0  0
  185.8930  178.3630  144.4170 C   0  0  0  0  0  3  0  0  0  0  0  0
  1 15  1  0  0  0  0
  2 12  1  0  0  0  0
  3 21  1  0  0  0  0
  4 14  1  0  0  0  0
  6  2  2  0  0  0  0
  7  9  2  0  0  0  0
  7 11  1  0  0  0  0
  8 10  1  0  0  0  0
 10 19  1  0  0  0  0
 11 16  2  0  0  0  0
 12  1  1  0  0  0  0
 12 23  1  6  0  0  0
 13  5  1  6  0  0  0
 13  4  1  0  0  0  0
 13  7  1  0  0  0  0
 14 18  2  0  0  0  0
 14 11  1  0  0  0  0
 15 20  1  1  0  0  0
 16  2  1  0  0  0  0
 16  3  1  0  0  0  0
 17  8  1  0  0  0  0
 18  6  1  0  0  0  0
 20 19  1  0  0  0  0
 21 17  1  1  0  0  0
 21 15  1  0  0  0  0
 22 26  1  0  0  0  0
 23 27  1  0  0  0  0
 24 25  1  0  0  0  0
 24 23  2  0  0  0  0
 25 22  2  0  0  0  0
 27 26  2  0  0  0  0
M  END
>  <MODEL>
6

>  <REMARK>
 VINA RESULT:      -9.0      2.173      5.781
  Name = 
  1 active torsions:
  status: ('A' for Active; 'I' for Inactive)
    1  A    between atoms: C_9  and  C_15
                            x       y       z     vdW  Elec       q    Type
                         _______ _______ _______ _____ _____    ______ ____

>  <TORSDO>
F 1

$$$$
=
 OpenBabel10262419593D

 27 31  0  0  1  0  0  0  0  0999 V2000
  187.2590  176.8630  142.4950 O   0  0  0  0  0  0  0  0  0  0  0  0
  189.4080  177.4280  143.3620 C   0  0  0  0  0  0  0  0  0  0  0  0
  187.7310  177.5500  145.2210 N   0  0  0  0  0  2  0  0  0  0  0  0
  192.2590  176.3550  146.3720 C   0  0  0  0  0  2  0  0  0  0  0  0
  191.2810  175.0130  148.1660 N   0  0  0  0  0  1  0  0  0  0  0  0
  190.7480  177.2100  142.9660 C   0  0  0  0  0  3  0  0  0  0  0  0
  189.9980  176.7310  147.0660 C   0  0  0  0  0  0  0  0  0  0  0  0
  184.8320  179.8540  144.8320 C   0  0  0  0  0  2  0  0  0  0  0  0
  188.9600  176.8680  147.7650 O   0  0  0  0  0  0  0  0  0  0  0  0
  183.6720  179.4940  143.8990 C   0  0  0  0  0  2  0  0  0  0  0  0
  190.0670  176.9310  145.6370 C   0  0  0  0  0  0  0  0  0  0  0  0
  188.3390  177.7520  142.3400 C   0  0  1  0  0  3  0  0  0  0  0  0
  191.3370  176.3530  147.6080 C   0  0  2  0  0  3  0  0  0  0  0  0
  191.3600  176.7190  145.2350 C   0  0  0  0  0  0  0  0  0  0  0  0
  186.2340  177.4870  143.2450 C   0  0  2  0  0  3  0  0  0  0  0  0
  189.0620  177.3070  144.7350 C   0  0  0  0  0  0  0  0  0  0  0  0
  185.5580  178.6410  145.3980 C   0  0  0  0  0  2  0  0  0  0  0  0
  191.7310  176.8580  143.9010 C   0  0  0  0  0  3  0  0  0  0  0  0
  183.9130  178.3150  142.9490 C   0  0  0  0  0  2  0  0  0  0  0  0
  185.3090  178.2990  142.3430 C   0  0  0  0  0  2  0  0  0  0  0  0
  186.7150  178.2850  144.4770 C   0  0  1  0  0  3  0  0  0  0  0  0
  189.6900  177.7270  138.2560 C   0  0  0  0  0  3  0  0  0  0  0  0
  188.8090  177.7630  140.9150 C   0  0  0  0  0  0  0  0  0  0  0  0
  189.8080  176.8660  140.5160 C   0  0  0  0  0  3  0  0  0  0  0  0
  190.2480  176.8490  139.1900 C   0  0  0  0  0  3  0  0  0  0  0  0
  188.6900  178.6220  138.6480 C   0  0  0  0  0  3  0  0  0  0  0  0
  188.2480  178.6390  139.9740 C   0  0  0  0  0  3  0  0  0  0  0  0
  1 15  1  0  0  0  0
  2 16  1  0  0  0  0
  4 13  1  0  0  0  0
  6  2  2  0  0  0  0
  6 18  1  0  0  0  0
  7 13  1  0  0  0  0
  7  9  2  0  0  0  0
  8 17  1  0  0  0  0
 10  8  1  0  0  0  0
 11  7  1  0  0  0  0
 12 23  1  6  0  0  0
 12  1  1  0  0  0  0
 12  2  1  0  0  0  0
 13  5  1  6  0  0  0
 14 11  1  0  0  0  0
 14  4  1  0  0  0  0
 15 20  1  6  0  0  0
 15 21  1  0  0  0  0
 16  3  1  0  0  0  0
 16 11  2  0  0  0  0
 18 14  2  0  0  0  0
 19 10  1  0  0  0  0
 20 19  1  0  0  0  0
 21  3  1  0  0  0  0
 21 17  1  1  0  0  0
 22 26  2  0  0  0  0
 22 25  1  0  0  0  0
 24 23  1  0  0  0  0
 25 24  2  0  0  0  0
 26 27  1  0  0  0  0
 27 23  2  0  0  0  0
M  END
>  <MODEL>
7

>  <REMARK>
 VINA RESULT:      -8.7      1.546      4.885
  Name = 
  1 active torsions:
  status: ('A' for Active; 'I' for Inactive)
    1  A    between atoms: C_9  and  C_15
                            x       y       z     vdW  Elec       q    Type
                         _______ _______ _______ _____ _____    ______ ____

>  <TORSDO>
F 1

$$$$
=
 OpenBabel10262419593D

 27 31  0  0  1  0  0  0  0  0999 V2000
  190.6090  178.0920  140.6490 O   0  0  0  0  0  0  0  0  0  0  0  0
  188.7120  177.3000  139.4390 C   0  0  0  0  0  0  0  0  0  0  0  0
  187.9410  178.2050  141.6450 N   0  0  0  0  0  2  0  0  0  0  0  0
  184.8940  178.5040  137.9190 C   0  0  0  0  0  2  0  0  0  0  0  0
  184.0580  180.5470  138.9700 N   0  0  0  0  0  1  0  0  0  0  0  0
  188.4180  177.0320  138.0810 C   0  0  0  0  0  3  0  0  0  0  0  0
  185.3670  178.9580  140.2220 C   0  0  0  0  0  0  0  0  0  0  0  0
  189.3540  176.7190  144.7520 C   0  0  0  0  0  2  0  0  0  0  0  0
  185.2650  179.3190  141.4240 O   0  0  0  0  0  0  0  0  0  0  0  0
  190.7840  177.0490  145.1920 C   0  0  0  0  0  2  0  0  0  0  0  0
  186.5210  178.3050  139.6480 C   0  0  0  0  0  0  0  0  0  0  0  0
  190.0660  176.9540  140.0230 C   0  0  1  0  0  3  0  0  0  0  0  0
  184.2980  179.1320  139.1940 C   0  0  2  0  0  3  0  0  0  0  0  0
  186.2540  178.0410  138.3290 C   0  0  0  0  0  0  0  0  0  0  0  0
  190.3810  178.0210  142.0430 C   0  0  2  0  0  3  0  0  0  0  0  0
  187.7310  177.9340  140.2490 C   0  0  0  0  0  0  0  0  0  0  0  0
  188.7000  177.8200  143.9300 C   0  0  0  0  0  2  0  0  0  0  0  0
  187.1860  177.3980  137.5220 C   0  0  0  0  0  3  0  0  0  0  0  0
  191.6590  177.7650  144.1560 C   0  0  0  0  0  2  0  0  0  0  0  0
  191.4840  177.2300  142.7410 C   0  0  0  0  0  2  0  0  0  0  0  0
  188.9660  177.5590  142.4550 C   0  0  1  0  0  3  0  0  0  0  0  0
  192.9160  175.2960  137.2610 C   0  0  0  0  0  3  0  0  0  0  0  0
  191.0460  176.3740  139.0460 C   0  0  0  0  0  0  0  0  0  0  0  0
  192.3230  176.9360  138.9420 C   0  0  0  0  0  3  0  0  0  0  0  0
  193.2570  176.3990  138.0500 C   0  0  0  0  0  3  0  0  0  0  0  0
  191.6430  174.7290  137.3650 C   0  0  0  0  0  3  0  0  0  0  0  0
  190.7100  175.2640  138.2570 C   0  0  0  0  0  3  0  0  0  0  0  0
  1 15  1  0  0  0  0
  2 12  1  0  0  0  0
  2 16  1  0  0  0  0
  3 21  1  0  0  0  0
  4 14  1  0  0  0  0
  4 13  1  0  0  0  0
  6  2  2  0  0  0  0
  7  9  2  0  0  0  0
  8 10  1  0  0  0  0
 11  7  1  0  0  0  0
 11 16  2  0  0  0  0
 12 23  1  6  0  0  0
 12  1  1  0  0  0  0
 13  5  1  6  0  0  0
 13  7  1  0  0  0  0
 14 11  1  0  0  0  0
 15 21  1  0  0  0  0
 15 20  1  1  0  0  0
 16  3  1  0  0  0  0
 17  8  1  0  0  0  0
 18  6  1  0  0  0  0
 18 14  2  0  0  0  0
 19 10  1  0  0  0  0
 20 19  1  0  0  0  0
 21 17  1  1  0  0  0
 22 26  2  0  0  0  0
 22 25  1  0  0  0  0
 24 23  1  0  0  0  0
 25 24  2  0  0  0  0
 26 27  1  0  0  0  0
 27 23  2  0  0  0  0
M  END
>  <MODEL>
8

>  <REMARK>
 VINA RESULT:      -8.4      2.622      7.583
  Name = 
  1 active torsions:
  status: ('A' for Active; 'I' for Inactive)
    1  A    between atoms: C_9  and  C_15
                            x       y       z     vdW  Elec       q    Type
                         _______ _______ _______ _____ _____    ______ ____

>  <TORSDO>
F 1

$$$$
=
 OpenBabel10262419593D

 27 31  0  0  1  0  0  0  0  0999 V2000
  185.9720  179.5480  141.7870 O   0  0  0  0  0  0  0  0  0  0  0  0
  187.6020  177.8960  142.3390 C   0  0  0  0  0  0  0  0  0  0  0  0
  187.5510  178.1780  139.8490 N   0  0  0  0  0  2  0  0  0  0  0  0
  191.7400  176.9000  141.8680 C   0  0  0  0  0  2  0  0  0  0  0  0
  192.8110  178.1400  140.0540 N   0  0  0  0  0  1  0  0  0  0  0  0
  188.3430  177.5520  143.4940 C   0  0  0  0  0  3  0  0  0  0  0  0
  190.5020  177.4680  139.8980 C   0  0  0  0  0  0  0  0  0  0  0  0
  184.3310  177.5940  138.0730 C   0  0  0  0  0  2  0  0  0  0  0  0
  190.1750  177.6820  138.7010 O   0  0  0  0  0  0  0  0  0  0  0  0
  183.2040  178.6290  138.1470 C   0  0  0  0  0  2  0  0  0  0  0  0
  189.6090  177.5570  141.0300 C   0  0  0  0  0  0  0  0  0  0  0  0
  186.1500  178.3160  142.4440 C   0  0  1  0  0  3  0  0  0  0  0  0
  191.8710  177.0700  140.3410 C   0  0  2  0  0  3  0  0  0  0  0  0
  190.3120  177.2300  142.1600 C   0  0  0  0  0  0  0  0  0  0  0  0
  185.4480  179.3240  140.4910 C   0  0  2  0  0  3  0  0  0  0  0  0
  188.2450  177.8780  141.0710 C   0  0  0  0  0  0  0  0  0  0  0  0
  185.7200  178.1940  138.2390 C   0  0  0  0  0  2  0  0  0  0  0  0
  189.7000  177.2140  143.4090 C   0  0  0  0  0  3  0  0  0  0  0  0
  183.3700  179.7330  139.1970 C   0  0  0  0  0  2  0  0  0  0  0  0
  183.9250  179.2310  140.5220 C   0  0  0  0  0  2  0  0  0  0  0  0
  186.1000  178.1610  139.7120 C   0  0  1  0  0  3  0  0  0  0  0  0
  184.5540  178.4960  146.4340 C   0  0  0  0  0  3  0  0  0  0  0  0
  185.6110  178.3840  143.8420 C   0  0  0  0  0  0  0  0  0  0  0  0
  184.3480  178.9450  144.0630 C   0  0  0  0  0  3  0  0  0  0  0  0
  183.8210  179.0030  145.3560 C   0  0  0  0  0  3  0  0  0  0  0  0
  185.8150  177.9310  146.2180 C   0  0  0  0  0  3  0  0  0  0  0  0
  186.3420  177.8720  144.9240 C   0  0  0  0  0  3  0  0  0  0  0  0
  1 12  1  0  0  0  0
  2 12  1  0  0  0  0
  2  6  1  0  0  0  0
  3 16  1  0  0  0  0
  4 14  1  0  0  0  0
  7 13  1  0  0  0  0
  7 11  1  0  0  0  0
  8 10  1  0  0  0  0
  8 17  1  0  0  0  0
  9  7  2  0  0  0  0
 10 19  1  0  0  0  0
 11 16  1  0  0  0  0
 11 14  2  0  0  0  0
 12 23  1  1  0  0  0
 13  5  1  1  0  0  0
 13  4  1  0  0  0  0
 14 18  1  0  0  0  0
 15 20  1  1  0  0  0
 15  1  1  0  0  0  0
 16  2  2  0  0  0  0
 18  6  2  0  0  0  0
 19 20  1  0  0  0  0
 21 17  1  6  0  0  0
 21  3  1  0  0  0  0
 21 15  1  0  0  0  0
 23 24  2  0  0  0  0
 23 27  1  0  0  0  0
 24 25  1  0  0  0  0
 25 22  2  0  0  0  0
 26 22  1  0  0  0  0
 27 26  2  0  0  0  0
M  END
>  <MODEL>
9

>  <REMARK>
 VINA RESULT:      -8.3      2.734      4.568
  Name = 
  1 active torsions:
  status: ('A' for Active; 'I' for Inactive)
    1  A    between atoms: C_9  and  C_15
                            x       y       z     vdW  Elec       q    Type
                         _______ _______ _______ _____ _____    ______ ____

>  <TORSDO>
F 1

$$$$
