=
 OpenBabel10262423333D

 34 39  0  0  0  0  0  0  0  0999 V2000
  187.3780  177.8710  144.8820 C   0  0  0  0  0  0  0  0  0  0  0  0
  183.7340  178.8360  145.6760 C   0  0  0  0  0  3  0  0  0  0  0  0
  185.6910  178.4760  147.0440 C   0  0  0  0  0  3  0  0  0  0  0  0
  189.7020  177.2570  144.3600 C   0  0  0  0  0  0  0  0  0  0  0  0
  188.3750  177.5470  143.9310 C   0  0  0  0  0  3  0  0  0  0  0  0
  189.0270  177.6220  146.6340 C   0  0  0  0  0  0  0  0  0  0  0  0
  189.0660  177.7340  147.9800 N   0  0  0  0  0  0  0  0  0  0  0  0
  190.0440  177.2990  145.7370 C   0  0  0  0  0  3  0  0  0  0  0  0
  186.9960  178.1700  147.2140 N   0  0  0  0  0  0  0  0  0  0  0  0
  187.7840  177.8850  146.1980 C   0  0  0  0  0  0  0  0  0  0  0  0
  187.7810  178.0770  148.3130 C   0  0  0  0  0  3  0  0  0  0  0  0
  182.9110  178.9510  144.6410 C   0  0  0  0  0  3  0  0  0  0  0  0
  183.1700  178.7640  143.2090 C   0  0  0  0  0  0  0  0  0  0  0  0
  184.3480  178.4280  142.6840 C   0  0  0  0  0  3  0  0  0  0  0  0
  185.1590  178.4910  145.7300 C   0  0  0  0  0  0  0  0  0  0  0  0
  185.6370  178.1660  143.3310 C   0  0  0  0  0  3  0  0  0  0  0  0
  186.0170  178.1830  144.6150 C   0  0  0  0  0  0  0  0  0  0  0  0
  182.0330  178.9640  142.2850 C   0  0  0  0  0  0  0  0  0  0  0  0
  180.9140  179.7540  142.6800 N   0  0  0  0  0  1  0  0  0  0  0  0
  182.0370  178.4420  141.1380 O   0  0  0  0  0  0  0  0  0  0  0  0
  190.7520  176.9440  143.3480 C   0  0  0  0  0  2  0  0  0  0  0  0
  188.8210  178.3710  140.4250 C   0  0  0  0  0  3  0  0  0  0  0  0
  190.7150  176.3830  140.9100 C   0  0  0  0  0  3  0  0  0  0  0  0
  188.1990  176.7170  137.3700 N   0  0  0  0  0  0  0  0  0  0  0  0
  189.0950  175.6960  136.9280 C   0  0  0  0  0  0  0  0  0  0  0  0
  188.7410  177.9120  138.0020 C   0  0  0  0  0  2  0  0  0  0  0  0
  188.6660  174.6700  136.3340 O   0  0  0  0  0  0  0  0  0  0  0  0
  189.2890  177.5950  139.3590 C   0  0  0  0  0  0  0  0  0  0  0  0
  186.7600  176.5780  137.2220 C   0  0  0  0  0  1  0  0  0  0  0  0
  190.7950  175.7410  138.6080 O   0  0  0  0  0  0  0  0  0  0  0  0
  190.2610  176.5840  139.6010 C   0  0  0  0  0  0  0  0  0  0  0  0
  190.5520  175.8390  137.2080 C   0  0  0  0  0  2  0  0  0  0  0  0
  190.2330  177.1580  141.9660 C   0  0  0  0  0  0  0  0  0  0  0  0
  189.2880  178.1570  141.7210 C   0  0  0  0  0  3  0  0  0  0  0  0
  1 10  1  0  0  0  0
  2 15  1  0  0  0  0
  3  9  1  0  0  0  0
  4  8  2  0  0  0  0
  5  4  1  0  0  0  0
  5  1  2  0  0  0  0
  6  7  1  0  0  0  0
  7 11  2  0  0  0  0
  8  6  1  0  0  0  0
  9 11  1  0  0  0  0
 10  6  2  0  0  0  0
 10  9  1  0  0  0  0
 12  2  2  0  0  0  0
 13 12  1  0  0  0  0
 14 13  2  0  0  0  0
 14 16  1  0  0  0  0
 15  3  2  0  0  0  0
 16 17  2  0  0  0  0
 17  1  1  0  0  0  0
 17 15  1  0  0  0  0
 18 19  1  0  0  0  0
 18 13  1  0  0  0  0
 20 18  2  0  0  0  0
 21  4  1  0  0  0  0
 22 34  1  0  0  0  0
 23 33  1  0  0  0  0
 24 26  1  0  0  0  0
 25 32  1  0  0  0  0
 25 24  1  0  0  0  0
 26 28  1  0  0  0  0
 27 25  2  0  0  0  0
 28 31  1  0  0  0  0
 28 22  2  0  0  0  0
 29 24  1  0  0  0  0
 30 31  1  0  0  0  0
 31 23  2  0  0  0  0
 32 30  1  0  0  0  0
 33 21  1  0  0  0  0
 34 33  2  0  0  0  0
M  END
>  <MODEL>
1

>  <REMARK>
 VINA RESULT:     -11.9      0.000      0.000
  Name = 
  3 active torsions:
  status: ('A' for Active; 'I' for Inactive)
    1  A    between atoms: C_3  and  C_25
    2  A    between atoms: C_8  and  C_18
    3  A    between atoms: C_18  and  C_30
                            x       y       z     vdW  Elec       q    Type
                         _______ _______ _______ _____ _____    ______ ____

>  <TORSDO>
F 3

$$$$
=
 OpenBabel10262423333D

 34 39  0  0  0  0  0  0  0  0999 V2000
  187.3660  177.8800  144.6920 C   0  0  0  0  0  0  0  0  0  0  0  0
  190.6800  176.7710  143.0710 C   0  0  0  0  0  3  0  0  0  0  0  0
  189.9480  177.0020  145.3610 C   0  0  0  0  0  3  0  0  0  0  0  0
  185.2420  178.5880  145.7130 C   0  0  0  0  0  0  0  0  0  0  0  0
  186.0300  178.3290  144.5550 C   0  0  0  0  0  3  0  0  0  0  0  0
  187.0970  177.9510  147.0950 C   0  0  0  0  0  0  0  0  0  0  0  0
  187.8530  177.6830  148.1830 N   0  0  0  0  0  0  0  0  0  0  0  0
  185.7780  178.3920  147.0120 C   0  0  0  0  0  3  0  0  0  0  0  0
  189.0260  177.3070  146.3000 N   0  0  0  0  0  0  0  0  0  0  0  0
  187.8160  177.7200  145.9830 C   0  0  0  0  0  0  0  0  0  0  0  0
  189.0520  177.2830  147.6540 C   0  0  0  0  0  3  0  0  0  0  0  0
  190.7190  176.7650  141.7450 C   0  0  0  0  0  3  0  0  0  0  0  0
  189.6800  177.1210  140.7710 C   0  0  0  0  0  0  0  0  0  0  0  0
  188.4520  177.5340  141.0840 C   0  0  0  0  0  3  0  0  0  0  0  0
  189.5960  177.1300  143.9930 C   0  0  0  0  0  0  0  0  0  0  0  0
  187.8220  177.7400  142.3910 C   0  0  0  0  0  3  0  0  0  0  0  0
  188.2740  177.5800  143.6410 C   0  0  0  0  0  0  0  0  0  0  0  0
  190.0300  177.0110  139.3390 C   0  0  0  0  0  0  0  0  0  0  0  0
  190.6680  175.8380  138.8410 N   0  0  0  0  0  1  0  0  0  0  0  0
  189.7710  177.9510  138.5400 O   0  0  0  0  0  0  0  0  0  0  0  0
  183.8280  179.0340  145.5570 C   0  0  0  0  0  2  0  0  0  0  0  0
  181.6430  178.4770  142.5200 C   0  0  0  0  0  3  0  0  0  0  0  0
  184.2900  179.1330  143.1000 C   0  0  0  0  0  3  0  0  0  0  0  0
  182.7920  177.6610  139.2850 N   0  0  0  0  0  0  0  0  0  0  0  0
  184.1100  178.0420  138.8890 C   0  0  0  0  0  0  0  0  0  0  0  0
  181.9950  178.5830  140.0800 C   0  0  0  0  0  2  0  0  0  0  0  0
  184.8110  177.2890  138.1610 O   0  0  0  0  0  0  0  0  0  0  0  0
  182.5400  178.6970  141.4700 C   0  0  0  0  0  0  0  0  0  0  0  0
  182.2390  176.3640  138.9270 C   0  0  0  0  0  1  0  0  0  0  0  0
  184.8790  179.2760  140.7870 O   0  0  0  0  0  0  0  0  0  0  0  0
  183.8910  179.0400  141.7610 C   0  0  0  0  0  0  0  0  0  0  0  0
  184.6690  179.3340  139.3790 C   0  0  0  0  0  2  0  0  0  0  0  0
  183.3860  178.9010  144.1380 C   0  0  0  0  0  0  0  0  0  0  0  0
  182.0600  178.5770  143.8470 C   0  0  0  0  0  3  0  0  0  0  0  0
  1 10  1  0  0  0  0
  2 15  1  0  0  0  0
  3  9  1  0  0  0  0
  4  8  2  0  0  0  0
  5  1  2  0  0  0  0
  5  4  1  0  0  0  0
  6  7  1  0  0  0  0
  8  6  1  0  0  0  0
  9 11  1  0  0  0  0
 10  9  1  0  0  0  0
 10  6  2  0  0  0  0
 11  7  2  0  0  0  0
 12  2  2  0  0  0  0
 13 14  2  0  0  0  0
 13 12  1  0  0  0  0
 14 16  1  0  0  0  0
 15  3  2  0  0  0  0
 16 17  2  0  0  0  0
 17 15  1  0  0  0  0
 17  1  1  0  0  0  0
 18 13  1  0  0  0  0
 19 18  1  0  0  0  0
 20 18  2  0  0  0  0
 21  4  1  0  0  0  0
 22 34  1  0  0  0  0
 23 33  1  0  0  0  0
 24 26  1  0  0  0  0
 25 24  1  0  0  0  0
 25 32  1  0  0  0  0
 26 28  1  0  0  0  0
 27 25  2  0  0  0  0
 28 31  1  0  0  0  0
 28 22  2  0  0  0  0
 29 24  1  0  0  0  0
 30 31  1  0  0  0  0
 31 23  2  0  0  0  0
 32 30  1  0  0  0  0
 33 21  1  0  0  0  0
 34 33  2  0  0  0  0
M  END
>  <MODEL>
2

>  <REMARK>
 VINA RESULT:     -11.7      1.938      6.062
  Name = 
  3 active torsions:
  status: ('A' for Active; 'I' for Inactive)
    1  A    between atoms: C_3  and  C_25
    2  A    between atoms: C_8  and  C_18
    3  A    between atoms: C_18  and  C_30
                            x       y       z     vdW  Elec       q    Type
                         _______ _______ _______ _____ _____    ______ ____

>  <TORSDO>
F 3

$$$$
=
 OpenBabel10262423333D

 34 39  0  0  0  0  0  0  0  0999 V2000
  188.4110  177.7560  144.1840 C   0  0  0  0  0  0  0  0  0  0  0  0
  191.1780  177.0890  141.5890 C   0  0  0  0  0  3  0  0  0  0  0  0
  191.0590  176.8430  143.9880 C   0  0  0  0  0  3  0  0  0  0  0  0
  186.6330  178.1850  145.8300 C   0  0  0  0  0  0  0  0  0  0  0  0
  187.0940  178.1830  144.4830 C   0  0  0  0  0  3  0  0  0  0  0  0
  188.7650  177.3450  146.5410 C   0  0  0  0  0  0  0  0  0  0  0  0
  189.7680  176.8910  147.3270 N   0  0  0  0  0  0  0  0  0  0  0  0
  187.4780  177.7530  146.8860 C   0  0  0  0  0  3  0  0  0  0  0  0
  190.4140  176.9290  145.1720 N   0  0  0  0  0  0  0  0  0  0  0  0
  189.1720  177.3590  145.2610 C   0  0  0  0  0  0  0  0  0  0  0  0
  190.7840  176.6400  146.4420 C   0  0  0  0  0  3  0  0  0  0  0  0
  190.8780  177.3450  140.3220 C   0  0  0  0  0  3  0  0  0  0  0  0
  189.6320  177.8540  139.7350 C   0  0  0  0  0  0  0  0  0  0  0  0
  188.5340  178.1600  140.4240 C   0  0  0  0  0  3  0  0  0  0  0  0
  190.3730  177.2270  142.8080 C   0  0  0  0  0  0  0  0  0  0  0  0
  188.2620  178.0850  141.8620 C   0  0  0  0  0  3  0  0  0  0  0  0
  189.0140  177.6960  142.8990 C   0  0  0  0  0  0  0  0  0  0  0  0
  189.6040  178.0390  138.2680 C   0  0  0  0  0  0  0  0  0  0  0  0
  188.8530  179.1040  137.6900 N   0  0  0  0  0  1  0  0  0  0  0  0
  190.2410  177.2590  137.5100 O   0  0  0  0  0  0  0  0  0  0  0  0
  185.2360  178.6090  146.1310 C   0  0  0  0  0  2  0  0  0  0  0  0
  182.2770  178.7780  143.7800 C   0  0  0  0  0  3  0  0  0  0  0  0
  185.0620  178.7810  143.6400 C   0  0  0  0  0  3  0  0  0  0  0  0
  182.3330  177.9630  140.3470 N   0  0  0  0  0  0  0  0  0  0  0  0
  183.5570  178.0670  139.6180 C   0  0  0  0  0  0  0  0  0  0  0  0
  182.0060  178.9810  141.3350 C   0  0  0  0  0  2  0  0  0  0  0  0
  183.8500  177.2310  138.7210 O   0  0  0  0  0  0  0  0  0  0  0  0
  182.9010  178.8680  142.5310 C   0  0  0  0  0  0  0  0  0  0  0  0
  181.4170  176.8530  140.1360 C   0  0  0  0  0  1  0  0  0  0  0  0
  185.0540  178.9560  141.2560 O   0  0  0  0  0  0  0  0  0  0  0  0
  184.3220  178.8770  142.4550 C   0  0  0  0  0  0  0  0  0  0  0  0
  184.5100  179.1620  139.9550 C   0  0  0  0  0  2  0  0  0  0  0  0
  184.4260  178.6820  144.8800 C   0  0  0  0  0  0  0  0  0  0  0  0
  183.0320  178.6860  144.9490 C   0  0  0  0  0  3  0  0  0  0  0  0
  1  5  2  0  0  0  0
  1 10  1  0  0  0  0
  2 15  1  0  0  0  0
  3  9  1  0  0  0  0
  4 21  1  0  0  0  0
  4  8  2  0  0  0  0
  5  4  1  0  0  0  0
  6  8  1  0  0  0  0
  6  7  1  0  0  0  0
  9 10  1  0  0  0  0
  9 11  1  0  0  0  0
 10  6  2  0  0  0  0
 11  7  2  0  0  0  0
 12  2  2  0  0  0  0
 13 12  1  0  0  0  0
 13 14  2  0  0  0  0
 14 16  1  0  0  0  0
 15 17  1  0  0  0  0
 15  3  2  0  0  0  0
 16 17  2  0  0  0  0
 17  1  1  0  0  0  0
 18 13  1  0  0  0  0
 19 18  1  0  0  0  0
 20 18  2  0  0  0  0
 22 34  1  0  0  0  0
 23 33  1  0  0  0  0
 24 26  1  0  0  0  0
 25 32  1  0  0  0  0
 25 24  1  0  0  0  0
 26 28  1  0  0  0  0
 27 25  2  0  0  0  0
 28 22  2  0  0  0  0
 29 24  1  0  0  0  0
 30 31  1  0  0  0  0
 31 28  1  0  0  0  0
 31 23  2  0  0  0  0
 32 30  1  0  0  0  0
 33 34  2  0  0  0  0
 33 21  1  0  0  0  0
M  END
>  <MODEL>
3

>  <REMARK>
 VINA RESULT:     -11.7      1.696      6.189
  Name = 
  3 active torsions:
  status: ('A' for Active; 'I' for Inactive)
    1  A    between atoms: C_3  and  C_25
    2  A    between atoms: C_8  and  C_18
    3  A    between atoms: C_18  and  C_30
                            x       y       z     vdW  Elec       q    Type
                         _______ _______ _______ _____ _____    ______ ____

>  <TORSDO>
F 3

$$$$
=
 OpenBabel10262423333D

 34 39  0  0  0  0  0  0  0  0999 V2000
  187.6530  177.8520  144.7840 C   0  0  0  0  0  0  0  0  0  0  0  0
  190.9880  176.8940  143.1110 C   0  0  0  0  0  3  0  0  0  0  0  0
  190.2930  177.1280  145.4120 C   0  0  0  0  0  3  0  0  0  0  0  0
  185.5160  178.4640  145.8390 C   0  0  0  0  0  0  0  0  0  0  0  0
  186.2920  178.2260  144.6690 C   0  0  0  0  0  3  0  0  0  0  0  0
  187.4320  177.9540  147.1910 C   0  0  0  0  0  0  0  0  0  0  0  0
  188.2240  177.7480  148.2670 N   0  0  0  0  0  0  0  0  0  0  0  0
  186.0890  178.3210  147.1300 C   0  0  0  0  0  3  0  0  0  0  0  0
  189.3760  177.4000  146.3660 N   0  0  0  0  0  0  0  0  0  0  0  0
  188.1390  177.7410  146.0680 C   0  0  0  0  0  0  0  0  0  0  0  0
  189.4320  177.4040  147.7180 C   0  0  0  0  0  3  0  0  0  0  0  0
  190.9990  176.8650  141.7840 C   0  0  0  0  0  3  0  0  0  0  0  0
  189.9220  177.1460  140.8280 C   0  0  0  0  0  0  0  0  0  0  0  0
  188.6810  177.4980  141.1600 C   0  0  0  0  0  3  0  0  0  0  0  0
  189.9060  177.2120  144.0500 C   0  0  0  0  0  0  0  0  0  0  0  0
  188.0680  177.6930  142.4770 C   0  0  0  0  0  3  0  0  0  0  0  0
  188.5540  177.5820  143.7190 C   0  0  0  0  0  0  0  0  0  0  0  0
  190.2480  177.0280  139.3910 C   0  0  0  0  0  0  0  0  0  0  0  0
  190.9300  175.8780  138.8980 N   0  0  0  0  0  1  0  0  0  0  0  0
  189.9260  177.9400  138.5820 O   0  0  0  0  0  0  0  0  0  0  0  0
  184.0770  178.8290  145.7070 C   0  0  0  0  0  2  0  0  0  0  0  0
  184.1280  178.2530  141.9690 C   0  0  0  0  0  3  0  0  0  0  0  0
  182.3310  179.0850  143.9320 C   0  0  0  0  0  3  0  0  0  0  0  0
  181.8930  179.6800  139.6400 N   0  0  0  0  0  0  0  0  0  0  0  0
  180.5880  180.0750  140.0670 C   0  0  0  0  0  0  0  0  0  0  0  0
  182.4650  178.4440  140.1560 C   0  0  0  0  0  2  0  0  0  0  0  0
  180.0420  181.1130  139.6060 O   0  0  0  0  0  0  0  0  0  0  0  0
  182.8190  178.5850  141.6040 C   0  0  0  0  0  0  0  0  0  0  0  0
  182.6670  180.4950  138.7190 C   0  0  0  0  0  1  0  0  0  0  0  0
  180.5600  179.3670  142.3510 O   0  0  0  0  0  0  0  0  0  0  0  0
  181.8960  179.0030  142.6040 C   0  0  0  0  0  0  0  0  0  0  0  0
  179.8870  179.2610  141.1000 C   0  0  0  0  0  2  0  0  0  0  0  0
  183.6440  178.7600  144.2810 C   0  0  0  0  0  0  0  0  0  0  0  0
  184.5410  178.3390  143.2980 C   0  0  0  0  0  3  0  0  0  0  0  0
  1 10  1  0  0  0  0
  2 15  1  0  0  0  0
  3  9  1  0  0  0  0
  4  8  2  0  0  0  0
  5  1  2  0  0  0  0
  5  4  1  0  0  0  0
  6  7  1  0  0  0  0
  8  6  1  0  0  0  0
  9 11  1  0  0  0  0
 10  9  1  0  0  0  0
 10  6  2  0  0  0  0
 11  7  2  0  0  0  0
 12  2  2  0  0  0  0
 13 14  2  0  0  0  0
 13 12  1  0  0  0  0
 14 16  1  0  0  0  0
 15  3  2  0  0  0  0
 16 17  2  0  0  0  0
 17 15  1  0  0  0  0
 17  1  1  0  0  0  0
 18 13  1  0  0  0  0
 19 18  1  0  0  0  0
 20 18  2  0  0  0  0
 21  4  1  0  0  0  0
 22 34  1  0  0  0  0
 23 33  1  0  0  0  0
 24 25  1  0  0  0  0
 24 26  1  0  0  0  0
 25 32  1  0  0  0  0
 26 28  1  0  0  0  0
 27 25  2  0  0  0  0
 28 22  2  0  0  0  0
 28 31  1  0  0  0  0
 29 24  1  0  0  0  0
 30 31  1  0  0  0  0
 31 23  2  0  0  0  0
 32 30  1  0  0  0  0
 33 21  1  0  0  0  0
 34 33  2  0  0  0  0
M  END
>  <MODEL>
4

>  <REMARK>
 VINA RESULT:     -11.6      1.737      6.921
  Name = 
  3 active torsions:
  status: ('A' for Active; 'I' for Inactive)
    1  A    between atoms: C_3  and  C_25
    2  A    between atoms: C_8  and  C_18
    3  A    between atoms: C_18  and  C_30
                            x       y       z     vdW  Elec       q    Type
                         _______ _______ _______ _____ _____    ______ ____

>  <TORSDO>
F 3

$$$$
=
 OpenBabel10262423333D

 34 39  0  0  0  0  0  0  0  0999 V2000
  188.9050  177.5140  143.5650 C   0  0  0  0  0  0  0  0  0  0  0  0
  185.8700  178.0750  145.8710 C   0  0  0  0  0  3  0  0  0  0  0  0
  188.1920  177.5550  146.2820 C   0  0  0  0  0  3  0  0  0  0  0  0
  190.8350  177.1610  142.0810 C   0  0  0  0  0  0  0  0  0  0  0  0
  189.4530  177.4540  142.2620 C   0  0  0  0  0  3  0  0  0  0  0  0
  191.0930  177.0050  144.4610 C   0  0  0  0  0  0  0  0  0  0  0  0
  191.6480  176.8370  145.6830 N   0  0  0  0  0  0  0  0  0  0  0  0
  191.6790  176.9360  143.1990 C   0  0  0  0  0  3  0  0  0  0  0  0
  189.4540  177.2980  145.8730 N   0  0  0  0  0  0  0  0  0  0  0  0
  189.7850  177.2790  144.5980 C   0  0  0  0  0  0  0  0  0  0  0  0
  190.5990  177.0270  146.5430 C   0  0  0  0  0  3  0  0  0  0  0  0
  184.7160  178.3530  145.2770 C   0  0  0  0  0  3  0  0  0  0  0  0
  184.4010  178.4830  143.8490 C   0  0  0  0  0  0  0  0  0  0  0  0
  185.2790  178.3350  142.8580 C   0  0  0  0  0  3  0  0  0  0  0  0
  187.1970  177.8120  145.3040 C   0  0  0  0  0  0  0  0  0  0  0  0
  186.7110  178.0210  142.8950 C   0  0  0  0  0  3  0  0  0  0  0  0
  187.5540  177.7940  143.9090 C   0  0  0  0  0  0  0  0  0  0  0  0
  183.0030  178.8030  143.4930 C   0  0  0  0  0  0  0  0  0  0  0  0
  182.6320  179.0000  142.1310 N   0  0  0  0  0  1  0  0  0  0  0  0
  182.1190  178.9060  144.3870 O   0  0  0  0  0  0  0  0  0  0  0  0
  191.4070  177.1280  140.7050 C   0  0  0  0  0  2  0  0  0  0  0  0
  188.4440  178.2880  138.6600 C   0  0  0  0  0  3  0  0  0  0  0  0
  190.2060  176.1290  138.7490 C   0  0  0  0  0  3  0  0  0  0  0  0
  186.3670  176.2170  136.6970 N   0  0  0  0  0  0  0  0  0  0  0  0
  186.8830  174.9910  136.1780 C   0  0  0  0  0  0  0  0  0  0  0  0
  187.2190  177.3980  136.7110 C   0  0  0  0  0  2  0  0  0  0  0  0
  186.1590  173.9620  136.1060 O   0  0  0  0  0  0  0  0  0  0  0  0
  188.3100  177.2540  137.7260 C   0  0  0  0  0  0  0  0  0  0  0  0
  185.0160  176.3050  137.2290 C   0  0  0  0  0  1  0  0  0  0  0  0
  189.1670  175.0580  136.8820 O   0  0  0  0  0  0  0  0  0  0  0  0
  189.2120  176.1540  137.7640 C   0  0  0  0  0  0  0  0  0  0  0  0
  188.3100  174.9290  135.7510 C   0  0  0  0  0  2  0  0  0  0  0  0
  190.3230  177.1630  139.6810 C   0  0  0  0  0  0  0  0  0  0  0  0
  189.4430  178.2450  139.6320 C   0  0  0  0  0  3  0  0  0  0  0  0
  1 17  1  0  0  0  0
  1 10  1  0  0  0  0
  4  5  1  0  0  0  0
  4  8  2  0  0  0  0
  5  1  2  0  0  0  0
  6 10  2  0  0  0  0
  6  7  1  0  0  0  0
  7 11  2  0  0  0  0
  8  6  1  0  0  0  0
  9  3  1  0  0  0  0
  9 11  1  0  0  0  0
 10  9  1  0  0  0  0
 12  2  2  0  0  0  0
 13 12  1  0  0  0  0
 14 16  1  0  0  0  0
 14 13  2  0  0  0  0
 15  2  1  0  0  0  0
 15  3  2  0  0  0  0
 16 17  2  0  0  0  0
 17 15  1  0  0  0  0
 18 13  1  0  0  0  0
 18 20  2  0  0  0  0
 19 18  1  0  0  0  0
 21  4  1  0  0  0  0
 22 34  1  0  0  0  0
 23 33  1  0  0  0  0
 24 26  1  0  0  0  0
 24 29  1  0  0  0  0
 25 24  1  0  0  0  0
 26 28  1  0  0  0  0
 27 25  2  0  0  0  0
 28 31  1  0  0  0  0
 28 22  2  0  0  0  0
 30 31  1  0  0  0  0
 31 23  2  0  0  0  0
 32 25  1  0  0  0  0
 32 30  1  0  0  0  0
 33 21  1  0  0  0  0
 34 33  2  0  0  0  0
M  END
>  <MODEL>
5

>  <REMARK>
 VINA RESULT:     -11.2      1.433      2.375
  Name = 
  3 active torsions:
  status: ('A' for Active; 'I' for Inactive)
    1  A    between atoms: C_3  and  C_25
    2  A    between atoms: C_8  and  C_18
    3  A    between atoms: C_18  and  C_30
                            x       y       z     vdW  Elec       q    Type
                         _______ _______ _______ _____ _____    ______ ____

>  <TORSDO>
F 3

$$$$
=
 OpenBabel10262423333D

 34 39  0  0  0  0  0  0  0  0999 V2000
  188.1140  177.8650  144.4400 C   0  0  0  0  0  0  0  0  0  0  0  0
  184.5240  178.3390  145.7560 C   0  0  0  0  0  3  0  0  0  0  0  0
  186.6370  177.8760  146.8290 C   0  0  0  0  0  3  0  0  0  0  0  0
  190.4020  177.5670  143.5860 C   0  0  0  0  0  0  0  0  0  0  0  0
  189.0210  177.8240  143.3540 C   0  0  0  0  0  3  0  0  0  0  0  0
  189.9570  177.4070  145.9390 C   0  0  0  0  0  0  0  0  0  0  0  0
  190.1350  177.2480  147.2690 N   0  0  0  0  0  0  0  0  0  0  0  0
  190.8880  177.3590  144.9030 C   0  0  0  0  0  3  0  0  0  0  0  0
  187.9700  177.6530  146.8080 N   0  0  0  0  0  0  0  0  0  0  0  0
  188.6590  177.6470  145.6850 C   0  0  0  0  0  0  0  0  0  0  0  0
  188.8750  177.4080  147.7850 C   0  0  0  0  0  3  0  0  0  0  0  0
  183.5890  178.5900  144.8490 C   0  0  0  0  0  3  0  0  0  0  0  0
  183.7010  178.7190  143.3910 C   0  0  0  0  0  0  0  0  0  0  0  0
  184.8340  178.5970  142.7010 C   0  0  0  0  0  3  0  0  0  0  0  0
  185.9660  178.1120  145.6020 C   0  0  0  0  0  0  0  0  0  0  0  0
  186.2000  178.3190  143.1550 C   0  0  0  0  0  3  0  0  0  0  0  0
  186.7150  178.1090  144.3720 C   0  0  0  0  0  0  0  0  0  0  0  0
  182.4600  179.0050  142.6410 C   0  0  0  0  0  0  0  0  0  0  0  0
  182.3350  178.6110  141.2770 N   0  0  0  0  0  1  0  0  0  0  0  0
  181.4970  179.6000  143.1950 O   0  0  0  0  0  0  0  0  0  0  0  0
  191.3530  177.5540  142.4380 C   0  0  0  0  0  2  0  0  0  0  0  0
  190.4540  176.1200  139.0550 C   0  0  0  0  0  3  0  0  0  0  0  0
  189.4250  177.9490  140.8910 C   0  0  0  0  0  3  0  0  0  0  0  0
  188.2920  177.6130  136.7000 N   0  0  0  0  0  0  0  0  0  0  0  0
  187.2760  178.5120  137.1470 C   0  0  0  0  0  0  0  0  0  0  0  0
  188.5770  176.4190  137.4810 C   0  0  0  0  0  2  0  0  0  0  0  0
  186.9690  179.5310  136.4720 O   0  0  0  0  0  0  0  0  0  0  0  0
  189.2500  176.7740  138.7700 C   0  0  0  0  0  0  0  0  0  0  0  0
  189.0580  177.8770  135.4930 C   0  0  0  0  0  1  0  0  0  0  0  0
  187.5220  178.4210  139.5230 O   0  0  0  0  0  0  0  0  0  0  0  0
  188.7180  177.7030  139.7080 C   0  0  0  0  0  0  0  0  0  0  0  0
  186.6010  178.2520  138.4500 C   0  0  0  0  0  2  0  0  0  0  0  0
  190.6310  177.2960  141.1580 C   0  0  0  0  0  0  0  0  0  0  0  0
  191.1420  176.3770  140.2400 C   0  0  0  0  0  3  0  0  0  0  0  0
  1 10  1  0  0  0  0
  4  8  2  0  0  0  0
  5  4  1  0  0  0  0
  5  1  2  0  0  0  0
  6  7  1  0  0  0  0
  7 11  2  0  0  0  0
  8  6  1  0  0  0  0
  9  3  1  0  0  0  0
  9 11  1  0  0  0  0
 10  6  2  0  0  0  0
 10  9  1  0  0  0  0
 12  2  2  0  0  0  0
 13 12  1  0  0  0  0
 14 16  1  0  0  0  0
 14 13  2  0  0  0  0
 15  2  1  0  0  0  0
 15  3  2  0  0  0  0
 16 17  2  0  0  0  0
 17  1  1  0  0  0  0
 17 15  1  0  0  0  0
 18 20  2  0  0  0  0
 18 13  1  0  0  0  0
 19 18  1  0  0  0  0
 21  4  1  0  0  0  0
 22 34  1  0  0  0  0
 23 33  1  0  0  0  0
 24 25  1  0  0  0  0
 24 26  1  0  0  0  0
 25 32  1  0  0  0  0
 26 28  1  0  0  0  0
 27 25  2  0  0  0  0
 28 22  2  0  0  0  0
 28 31  1  0  0  0  0
 29 24  1  0  0  0  0
 30 31  1  0  0  0  0
 31 23  2  0  0  0  0
 32 30  1  0  0  0  0
 33 21  1  0  0  0  0
 34 33  2  0  0  0  0
M  END
>  <MODEL>
6

>  <REMARK>
 VINA RESULT:     -11.2      1.650      2.109
  Name = 
  3 active torsions:
  status: ('A' for Active; 'I' for Inactive)
    1  A    between atoms: C_3  and  C_25
    2  A    between atoms: C_8  and  C_18
    3  A    between atoms: C_18  and  C_30
                            x       y       z     vdW  Elec       q    Type
                         _______ _______ _______ _____ _____    ______ ____

>  <TORSDO>
F 3

$$$$
=
 OpenBabel10262423333D

 34 39  0  0  0  0  0  0  0  0999 V2000
  184.3700  178.6390  142.3540 C   0  0  0  0  0  0  0  0  0  0  0  0
  184.5740  178.6070  138.5070 C   0  0  0  0  0  3  0  0  0  0  0  0
  182.7500  178.8530  140.0700 C   0  0  0  0  0  3  0  0  0  0  0  0
  184.2540  178.6590  144.8110 C   0  0  0  0  0  0  0  0  0  0  0  0
  185.0150  178.5570  143.6110 C   0  0  0  0  0  3  0  0  0  0  0  0
  182.2600  178.9240  143.5030 C   0  0  0  0  0  0  0  0  0  0  0  0
  180.9640  179.1010  143.1630 N   0  0  0  0  0  0  0  0  0  0  0  0
  182.8490  178.8520  144.7640 C   0  0  0  0  0  3  0  0  0  0  0  0
  182.2420  178.9220  141.3200 N   0  0  0  0  0  0  0  0  0  0  0  0
  183.0050  178.8190  142.3900 C   0  0  0  0  0  0  0  0  0  0  0  0
  180.9850  179.0950  141.7930 C   0  0  0  0  0  3  0  0  0  0  0  0
  185.7800  178.4480  137.9780 C   0  0  0  0  0  3  0  0  0  0  0  0
  187.0810  178.2770  138.6360 C   0  0  0  0  0  0  0  0  0  0  0  0
  187.2710  178.2530  139.9550 C   0  0  0  0  0  3  0  0  0  0  0  0
  184.1460  178.6660  139.9090 C   0  0  0  0  0  0  0  0  0  0  0  0
  186.3110  178.3810  141.0560 C   0  0  0  0  0  3  0  0  0  0  0  0
  184.9850  178.5560  141.0750 C   0  0  0  0  0  0  0  0  0  0  0  0
  188.2640  178.1200  137.7640 C   0  0  0  0  0  0  0  0  0  0  0  0
  189.0550  179.2520  137.4100 N   0  0  0  0  0  1  0  0  0  0  0  0
  188.5900  176.9850  137.3210 O   0  0  0  0  0  0  0  0  0  0  0  0
  184.9470  178.6010  146.1300 C   0  0  0  0  0  2  0  0  0  0  0  0
  188.6500  178.1840  146.7850 C   0  0  0  0  0  3  0  0  0  0  0  0
  186.7830  177.5030  144.8300 C   0  0  0  0  0  3  0  0  0  0  0  0
  191.1090  177.5440  144.3370 N   0  0  0  0  0  0  0  0  0  0  0  0
  190.7400  176.8900  143.1220 C   0  0  0  0  0  0  0  0  0  0  0  0
  190.5170  177.1010  145.5910 C   0  0  0  0  0  2  0  0  0  0  0  0
  191.2680  177.2160  142.0240 O   0  0  0  0  0  0  0  0  0  0  0  0
  189.0680  177.4720  145.6560 C   0  0  0  0  0  0  0  0  0  0  0  0
  192.0470  178.6550  144.3440 C   0  0  0  0  0  1  0  0  0  0  0  0
  188.4260  176.4080  143.4820 O   0  0  0  0  0  0  0  0  0  0  0  0
  188.1170  177.1160  144.6590 C   0  0  0  0  0  0  0  0  0  0  0  0
  189.6890  175.8340  143.1580 C   0  0  0  0  0  2  0  0  0  0  0  0
  186.3800  178.2230  145.9570 C   0  0  0  0  0  0  0  0  0  0  0  0
  187.3150  178.5590  146.9370 C   0  0  0  0  0  3  0  0  0  0  0  0
  1 10  2  0  0  0  0
  1  5  1  0  0  0  0
  2 15  1  0  0  0  0
  3  9  1  0  0  0  0
  4 21  1  0  0  0  0
  5  4  2  0  0  0  0
  6  8  2  0  0  0  0
  7  6  1  0  0  0  0
  8  4  1  0  0  0  0
  9 11  1  0  0  0  0
  9 10  1  0  0  0  0
 10  6  1  0  0  0  0
 11  7  2  0  0  0  0
 12  2  2  0  0  0  0
 12 13  1  0  0  0  0
 13 14  2  0  0  0  0
 14 16  1  0  0  0  0
 15  3  2  0  0  0  0
 15 17  1  0  0  0  0
 16 17  2  0  0  0  0
 17  1  1  0  0  0  0
 18 13  1  0  0  0  0
 19 18  1  0  0  0  0
 20 18  2  0  0  0  0
 22 34  1  0  0  0  0
 23 33  1  0  0  0  0
 24 29  1  0  0  0  0
 24 26  1  0  0  0  0
 25 32  1  0  0  0  0
 25 24  1  0  0  0  0
 26 28  1  0  0  0  0
 27 25  2  0  0  0  0
 28 22  2  0  0  0  0
 30 31  1  0  0  0  0
 31 23  2  0  0  0  0
 31 28  1  0  0  0  0
 32 30  1  0  0  0  0
 33 21  1  0  0  0  0
 33 34  2  0  0  0  0
M  END
>  <MODEL>
7

>  <REMARK>
 VINA RESULT:     -11.1      2.312      6.727
  Name = 
  3 active torsions:
  status: ('A' for Active; 'I' for Inactive)
    1  A    between atoms: C_3  and  C_25
    2  A    between atoms: C_8  and  C_18
    3  A    between atoms: C_18  and  C_30
                            x       y       z     vdW  Elec       q    Type
                         _______ _______ _______ _____ _____    ______ ____

>  <TORSDO>
F 3

$$$$
=
 OpenBabel10262423333D

 34 39  0  0  0  0  0  0  0  0999 V2000
  188.9610  177.7290  143.7530 C   0  0  0  0  0  0  0  0  0  0  0  0
  185.6670  178.0380  145.7260 C   0  0  0  0  0  3  0  0  0  0  0  0
  187.9500  177.5830  146.3690 C   0  0  0  0  0  3  0  0  0  0  0  0
  191.0580  177.5370  142.4800 C   0  0  0  0  0  0  0  0  0  0  0  0
  189.6520  177.7660  142.5180 C   0  0  0  0  0  3  0  0  0  0  0  0
  191.0570  177.2510  144.8620 C   0  0  0  0  0  0  0  0  0  0  0  0
  191.4800  177.0340  146.1280 N   0  0  0  0  0  0  0  0  0  0  0  0
  191.7820  177.2800  143.6730 C   0  0  0  0  0  3  0  0  0  0  0  0
  189.2600  177.3990  146.0930 N   0  0  0  0  0  0  0  0  0  0  0  0
  189.7300  177.4670  144.8640 C   0  0  0  0  0  0  0  0  0  0  0  0
  190.3330  177.1320  146.8730 C   0  0  0  0  0  3  0  0  0  0  0  0
  184.5750  178.3060  145.0210 C   0  0  0  0  0  3  0  0  0  0  0  0
  184.4150  178.5080  143.5760 C   0  0  0  0  0  0  0  0  0  0  0  0
  185.4040  178.4510  142.6840 C   0  0  0  0  0  3  0  0  0  0  0  0
  187.0590  177.8590  145.3000 C   0  0  0  0  0  0  0  0  0  0  0  0
  186.8350  178.1910  142.8660 C   0  0  0  0  0  3  0  0  0  0  0  0
  187.5690  177.9360  143.9550 C   0  0  0  0  0  0  0  0  0  0  0  0
  183.0520  178.7950  143.0810 C   0  0  0  0  0  0  0  0  0  0  0  0
  182.7440  178.6610  141.6960 N   0  0  0  0  0  1  0  0  0  0  0  0
  182.1440  179.1600  143.8760 O   0  0  0  0  0  0  0  0  0  0  0  0
  191.7810  177.6070  141.1780 C   0  0  0  0  0  2  0  0  0  0  0  0
  190.3710  175.6960  138.2330 C   0  0  0  0  0  3  0  0  0  0  0  0
  189.7020  177.8930  139.8140 C   0  0  0  0  0  3  0  0  0  0  0  0
  188.0270  176.9420  135.9080 N   0  0  0  0  0  0  0  0  0  0  0  0
  187.1360  177.9880  136.2980 C   0  0  0  0  0  0  0  0  0  0  0  0
  188.3320  175.8790  136.8550 C   0  0  0  0  0  2  0  0  0  0  0  0
  186.8120  178.8980  135.4890 O   0  0  0  0  0  0  0  0  0  0  0  0
  189.1850  176.3910  137.9740 C   0  0  0  0  0  0  0  0  0  0  0  0
  188.6500  176.9290  134.5940 C   0  0  0  0  0  1  0  0  0  0  0  0
  187.6750  178.2850  138.6080 O   0  0  0  0  0  0  0  0  0  0  0  0
  188.8360  177.5090  138.7830 C   0  0  0  0  0  0  0  0  0  0  0  0
  186.6160  178.0130  137.6950 C   0  0  0  0  0  2  0  0  0  0  0  0
  190.8870  177.1960  140.0560 C   0  0  0  0  0  0  0  0  0  0  0  0
  191.2190  176.0930  139.2670 C   0  0  0  0  0  3  0  0  0  0  0  0
  1 17  1  0  0  0  0
  1 10  1  0  0  0  0
  4  5  1  0  0  0  0
  4  8  2  0  0  0  0
  5  1  2  0  0  0  0
  6 10  2  0  0  0  0
  6  7  1  0  0  0  0
  7 11  2  0  0  0  0
  8  6  1  0  0  0  0
  9  3  1  0  0  0  0
  9 11  1  0  0  0  0
 10  9  1  0  0  0  0
 12  2  2  0  0  0  0
 13 12  1  0  0  0  0
 14 16  1  0  0  0  0
 14 13  2  0  0  0  0
 15  2  1  0  0  0  0
 15  3  2  0  0  0  0
 16 17  2  0  0  0  0
 17 15  1  0  0  0  0
 18 13  1  0  0  0  0
 18 20  2  0  0  0  0
 19 18  1  0  0  0  0
 21  4  1  0  0  0  0
 22 34  1  0  0  0  0
 23 33  1  0  0  0  0
 24 25  1  0  0  0  0
 24 26  1  0  0  0  0
 25 32  1  0  0  0  0
 26 28  1  0  0  0  0
 27 25  2  0  0  0  0
 28 22  2  0  0  0  0
 28 31  1  0  0  0  0
 29 24  1  0  0  0  0
 30 31  1  0  0  0  0
 31 23  2  0  0  0  0
 32 30  1  0  0  0  0
 33 21  1  0  0  0  0
 34 33  2  0  0  0  0
M  END
>  <MODEL>
8

>  <REMARK>
 VINA RESULT:     -11.1      1.732      2.641
  Name = 
  3 active torsions:
  status: ('A' for Active; 'I' for Inactive)
    1  A    between atoms: C_3  and  C_25
    2  A    between atoms: C_8  and  C_18
    3  A    between atoms: C_18  and  C_30
                            x       y       z     vdW  Elec       q    Type
                         _______ _______ _______ _____ _____    ______ ____

>  <TORSDO>
F 3

$$$$
=
 OpenBabel10262423333D

 34 39  0  0  0  0  0  0  0  0999 V2000
  186.1870  178.2250  143.7690 C   0  0  0  0  0  0  0  0  0  0  0  0
  189.9260  177.3500  144.0810 C   0  0  0  0  0  3  0  0  0  0  0  0
  188.1880  177.8080  145.6950 C   0  0  0  0  0  3  0  0  0  0  0  0
  183.8000  178.7810  143.5550 C   0  0  0  0  0  0  0  0  0  0  0  0
  185.0530  178.4660  142.9570 C   0  0  0  0  0  3  0  0  0  0  0  0
  184.8130  178.6050  145.7230 C   0  0  0  0  0  0  0  0  0  0  0  0
  184.9770  178.6020  147.0650 N   0  0  0  0  0  0  0  0  0  0  0  0
  183.6680  178.8490  144.9660 C   0  0  0  0  0  3  0  0  0  0  0  0
  186.9180  178.1190  146.0340 N   0  0  0  0  0  0  0  0  0  0  0  0
  185.9820  178.3150  145.1280 C   0  0  0  0  0  0  0  0  0  0  0  0
  186.3030  178.2940  147.2270 C   0  0  0  0  0  3  0  0  0  0  0  0
  190.5870  177.1580  142.9470 C   0  0  0  0  0  3  0  0  0  0  0  0
  190.1140  177.2270  141.5590 C   0  0  0  0  0  0  0  0  0  0  0  0
  188.8640  177.5120  141.1930 C   0  0  0  0  0  3  0  0  0  0  0  0
  188.5180  177.6900  144.3210 C   0  0  0  0  0  0  0  0  0  0  0  0
  187.6820  177.8170  142.0030 C   0  0  0  0  0  3  0  0  0  0  0  0
  187.4980  177.9010  143.3260 C   0  0  0  0  0  0  0  0  0  0  0  0
  191.1040  176.9590  140.4940 C   0  0  0  0  0  0  0  0  0  0  0  0
  190.7690  176.1180  139.3930 N   0  0  0  0  0  1  0  0  0  0  0  0
  192.2550  177.4710  140.5450 O   0  0  0  0  0  0  0  0  0  0  0  0
  182.6060  179.0060  142.6910 C   0  0  0  0  0  2  0  0  0  0  0  0
  182.0800  177.3260  139.3420 C   0  0  0  0  0  3  0  0  0  0  0  0
  184.0630  178.7670  140.6700 C   0  0  0  0  0  3  0  0  0  0  0  0
  184.6360  176.2630  137.1540 N   0  0  0  0  0  0  0  0  0  0  0  0
  185.9110  176.9050  137.1970 C   0  0  0  0  0  0  0  0  0  0  0  0
  183.4310  177.0680  137.2940 C   0  0  0  0  0  2  0  0  0  0  0  0
  186.9740  176.2460  137.0310 O   0  0  0  0  0  0  0  0  0  0  0  0
  183.2930  177.5810  138.6940 C   0  0  0  0  0  0  0  0  0  0  0  0
  184.5180  174.8230  136.9940 C   0  0  0  0  0  1  0  0  0  0  0  0
  185.5630  178.6310  138.8130 O   0  0  0  0  0  0  0  0  0  0  0  0
  184.3050  178.3230  139.3650 C   0  0  0  0  0  0  0  0  0  0  0  0
  185.9780  178.3670  137.4770 C   0  0  0  0  0  2  0  0  0  0  0  0
  182.8520  178.4980  141.3100 C   0  0  0  0  0  0  0  0  0  0  0  0
  181.8580  177.7800  140.6420 C   0  0  0  0  0  3  0  0  0  0  0  0
  1 10  1  0  0  0  0
  2 15  1  0  0  0  0
  3  9  1  0  0  0  0
  4  8  2  0  0  0  0
  5  4  1  0  0  0  0
  5  1  2  0  0  0  0
  6  7  1  0  0  0  0
  7 11  2  0  0  0  0
  8  6  1  0  0  0  0
  9 11  1  0  0  0  0
 10  6  2  0  0  0  0
 10  9  1  0  0  0  0
 12  2  2  0  0  0  0
 13 12  1  0  0  0  0
 14 13  2  0  0  0  0
 14 16  1  0  0  0  0
 15  3  2  0  0  0  0
 16 17  2  0  0  0  0
 17  1  1  0  0  0  0
 17 15  1  0  0  0  0
 18 20  2  0  0  0  0
 18 13  1  0  0  0  0
 19 18  1  0  0  0  0
 21  4  1  0  0  0  0
 22 34  1  0  0  0  0
 23 33  1  0  0  0  0
 24 25  1  0  0  0  0
 24 26  1  0  0  0  0
 25 32  1  0  0  0  0
 26 28  1  0  0  0  0
 27 25  2  0  0  0  0
 28 22  2  0  0  0  0
 28 31  1  0  0  0  0
 29 24  1  0  0  0  0
 30 31  1  0  0  0  0
 31 23  2  0  0  0  0
 32 30  1  0  0  0  0
 33 21  1  0  0  0  0
 34 33  2  0  0  0  0
M  END
>  <MODEL>
9

>  <REMARK>
 VINA RESULT:     -11.1      2.073      5.856
  Name = 
  3 active torsions:
  status: ('A' for Active; 'I' for Inactive)
    1  A    between atoms: C_3  and  C_25
    2  A    between atoms: C_8  and  C_18
    3  A    between atoms: C_18  and  C_30
                            x       y       z     vdW  Elec       q    Type
                         _______ _______ _______ _____ _____    ______ ____

>  <TORSDO>
F 3

$$$$
