=
 OpenBabel10262419123D

 34 38  0  0  1  0  0  0  0  0999 V2000
  190.5260  176.0470  142.9060 C   0  0  2  0  0  3  0  0  0  0  0  0
  189.8840  177.7910  144.6880 C   0  0  2  0  0  3  0  0  0  0  0  0
  188.4600  177.4880  142.6370 N   0  0  0  0  0  0  0  0  0  0  0  0
  186.2530  178.5900  142.2080 C   0  0  0  0  0  0  0  0  0  0  0  0
  191.9180  176.5130  144.9590 C   0  0  0  0  0  2  0  0  0  0  0  0
  190.7650  177.1060  145.6460 N   0  0  0  0  0  2  0  0  0  0  0  0
  186.7350  177.5620  144.3500 C   0  0  0  0  0  3  0  0  0  0  0  0
  189.3930  176.8300  143.5780 C   0  0  1  0  0  3  0  0  0  0  0  0
  185.3910  177.9370  144.8220 C   0  0  0  0  0  3  0  0  0  0  0  0
  184.9680  179.1890  142.7150 C   0  0  0  0  0  2  0  0  0  0  0  0
  191.4660  175.4490  143.9570 C   0  0  0  0  0  2  0  0  0  0  0  0
  188.7350  177.6360  141.2110 C   0  0  0  0  0  0  0  0  0  0  0  0
  191.4330  177.1040  141.7500 S   0  0  0  0  0  0  0  0  0  0  0  0
  190.5150  179.0790  144.1690 C   0  0  0  0  0  1  0  0  0  0  0  0
  186.5760  178.7220  140.9590 N   0  0  0  0  0  0  0  0  0  0  0  0
  187.7860  178.1810  140.3920 C   0  0  0  0  0  0  0  0  0  0  0  0
  184.5620  178.6740  144.0840 C   0  0  0  0  0  0  0  0  0  0  0  0
  187.1610  177.8810  143.1220 C   0  0  0  0  0  0  0  0  0  0  0  0
  190.0050  177.0860  140.6170 C   0  0  0  0  0  2  0  0  0  0  0  0
  187.0470  177.6760  136.7110 C   0  0  0  0  0  0  0  0  0  0  0  0
  188.2060  178.1750  136.1100 C   0  0  0  0  0  3  0  0  0  0  0  0
  187.9170  178.2560  138.9110 C   0  0  0  0  0  0  0  0  0  0  0  0
  189.2210  178.7170  136.9030 C   0  0  0  0  0  3  0  0  0  0  0  0
  186.9100  177.6980  138.1020 C   0  0  0  0  0  3  0  0  0  0  0  0
  189.0800  178.7500  138.2950 C   0  0  0  0  0  3  0  0  0  0  0  0
  185.9640  177.1000  135.8770 C   0  0  0  0  0  1  0  0  0  0  0  0
  183.1940  178.9410  144.6400 C   0  0  0  0  0  2  0  0  0  0  0  0
  182.2690  179.6510  143.6470 C   0  0  0  0  0  2  0  0  0  0  0  0
  181.2160  178.6570  143.1630 C   0  0  2  0  0  3  0  0  0  0  0  0
  182.1560  178.8770  140.9850 F   0  0  0  0  0  0  0  0  0  0  0  0
  180.0040  179.8440  141.2460 C   0  0  0  0  0  1  0  0  0  0  0  0
  180.9570  178.7310  141.6560 C   0  0  2  0  0  3  0  0  0  0  0  0
  179.9270  178.6660  144.0010 C   0  0  0  0  0  2  0  0  0  0  0  0
  179.5940  177.3770  144.4210 O   0  0  0  0  0  1  0  0  0  0  0  0
  1  8  1  0  0  0  0
  1 11  1  1  0  0  0
  2 14  1  6  0  0  0
  2  6  1  0  0  0  0
  3 18  1  0  0  0  0
  4 10  1  0  0  0  0
  4 18  1  0  0  0  0
  5  6  1  0  0  0  0
  7  9  1  0  0  0  0
  8  3  1  6  0  0  0
  8  2  1  0  0  0  0
 10 17  1  0  0  0  0
 11  5  1  0  0  0  0
 12  3  1  0  0  0  0
 13  1  1  0  0  0  0
 15  4  2  0  0  0  0
 16 15  1  0  0  0  0
 16 12  2  0  0  0  0
 17 27  1  0  0  0  0
 17  9  2  0  0  0  0
 18  7  2  0  0  0  0
 19 12  1  0  0  0  0
 19 13  1  0  0  0  0
 20 24  1  0  0  0  0
 21 20  2  0  0  0  0
 21 23  1  0  0  0  0
 22 16  1  0  0  0  0
 23 25  2  0  0  0  0
 24 22  2  0  0  0  0
 25 22  1  0  0  0  0
 26 20  1  0  0  0  0
 28 27  1  0  0  0  0
 29 28  1  1  0  0  0
 29 33  1  0  0  0  0
 30 32  1  0  0  0  0
 32 31  1  1  0  0  0
 32 29  1  0  0  0  0
 33 34  1  0  0  0  0
M  END
>  <MODEL>
1

>  <REMARK>
 VINA RESULT:      -9.4      0.000      0.000
  Name = 
  6 active torsions:
  status: ('A' for Active; 'I' for Inactive)
    1  A    between atoms: C_3  and  C_13
    2  A    between atoms: C_3  and  C_29
    3  A    between atoms: C_12  and  C_28
    4  A    between atoms: C_13  and  C_22
    5  A    between atoms: C_20  and  C_22
    6  A    between atoms: C_22  and  C_33
                            x       y       z     vdW  Elec       q    Type
                         _______ _______ _______ _____ _____    ______ ____

>  <TORSDO>
F 6

$$$$
=
 OpenBabel10262419123D

 34 38  0  0  1  0  0  0  0  0999 V2000
  188.0580  177.4810  135.2960 C   0  0  2  0  0  3  0  0  0  0  0  0
  186.5610  176.7140  137.2450 C   0  0  2  0  0  3  0  0  0  0  0  0
  189.0490  176.9200  137.5590 N   0  0  0  0  0  0  0  0  0  0  0  0
  190.2800  176.6620  139.7230 C   0  0  0  0  0  0  0  0  0  0  0  0
  185.5660  177.1450  135.0850 C   0  0  0  0  0  2  0  0  0  0  0  0
  185.3950  177.2620  136.5370 N   0  0  0  0  0  2  0  0  0  0  0  0
  188.2680  178.0080  139.5890 C   0  0  0  0  0  3  0  0  0  0  0  0
  187.8710  177.4190  136.8150 C   0  0  1  0  0  3  0  0  0  0  0  0
  188.3960  178.3250  141.0220 C   0  0  0  0  0  3  0  0  0  0  0  0
  190.3270  176.7710  141.2240 C   0  0  0  0  0  3  0  0  0  0  0  0
  186.7740  177.9580  134.6130 C   0  0  0  0  0  2  0  0  0  0  0  0
  190.1850  176.2690  136.9120 C   0  0  0  0  0  0  0  0  0  0  0  0
  188.5780  175.8720  134.6510 S   0  0  0  0  0  0  0  0  0  0  0  0
  186.6090  175.1920  137.1520 C   0  0  0  0  0  1  0  0  0  0  0  0
  191.2380  176.0590  139.0910 N   0  0  0  0  0  0  0  0  0  0  0  0
  191.2730  175.9100  137.6590 C   0  0  0  0  0  0  0  0  0  0  0  0
  189.3390  177.7760  141.7860 C   0  0  0  0  0  0  0  0  0  0  0  0
  189.1430  177.2080  138.9680 C   0  0  1  0  0  3  0  0  0  0  0  0
  190.2170  176.0970  135.4170 C   0  0  0  0  0  2  0  0  0  0  0  0
  193.9110  173.4240  136.5560 C   0  0  0  0  0  0  0  0  0  0  0  0
  194.9650  174.2630  136.1870 C   0  0  0  0  0  3  0  0  0  0  0  0
  192.5280  175.3620  137.0770 C   0  0  0  0  0  0  0  0  0  0  0  0
  194.8070  175.6500  136.2590 C   0  0  0  0  0  3  0  0  0  0  0  0
  192.7070  173.9670  137.0160 C   0  0  0  0  0  3  0  0  0  0  0  0
  193.6000  176.1950  136.7080 C   0  0  0  0  0  3  0  0  0  0  0  0
  194.0690  171.9510  136.4820 C   0  0  0  0  0  1  0  0  0  0  0  0
  189.4130  178.2220  143.2180 C   0  0  0  0  0  2  0  0  0  0  0  0
  188.6600  177.2950  144.1770 C   0  0  0  0  0  2  0  0  0  0  0  0
  189.5440  177.0280  145.3930 C   0  0  2  0  0  3  0  0  0  0  0  0
  188.9880  176.3920  147.6200 F   0  0  0  0  0  0  0  0  0  0  0  0
  187.4430  177.8710  146.5890 C   0  0  0  0  0  1  0  0  0  0  0  0
  188.8960  177.4360  146.7190 C   0  0  2  0  0  3  0  0  0  0  0  0
  190.9820  177.5490  145.2370 C   0  0  0  0  0  2  0  0  0  0  0  0
  191.7970  177.0890  146.2740 O   0  0  0  0  0  1  0  0  0  0  0  0
  1 11  1  6  0  0  0
  1  8  1  0  0  0  0
  2 14  1  6  0  0  0
  3 18  1  0  0  0  0
  4 10  1  0  0  0  0
  5  6  1  0  0  0  0
  6  2  1  0  0  0  0
  7  9  2  0  0  0  0
  8  2  1  0  0  0  0
  8  3  1  1  0  0  0
  9 17  1  0  0  0  0
 10 17  2  0  0  0  0
 11  5  1  0  0  0  0
 12  3  1  0  0  0  0
 12 16  2  0  0  0  0
 13  1  1  0  0  0  0
 13 19  1  0  0  0  0
 15  4  2  0  0  0  0
 16 15  1  0  0  0  0
 17 27  1  0  0  0  0
 18  7  1  6  0  0  0
 18  4  1  0  0  0  0
 19 12  1  0  0  0  0
 20 24  1  0  0  0  0
 21 23  1  0  0  0  0
 21 20  2  0  0  0  0
 22 16  1  0  0  0  0
 23 25  2  0  0  0  0
 24 22  2  0  0  0  0
 25 22  1  0  0  0  0
 26 20  1  0  0  0  0
 27 28  1  0  0  0  0
 29 28  1  6  0  0  0
 29 32  1  0  0  0  0
 32 31  1  6  0  0  0
 32 30  1  0  0  0  0
 33 29  1  0  0  0  0
 33 34  1  0  0  0  0
M  END
>  <MODEL>
2

>  <REMARK>
 VINA RESULT:      -8.3      4.787      7.807
  Name = 
  6 active torsions:
  status: ('A' for Active; 'I' for Inactive)
    1  A    between atoms: C_3  and  C_13
    2  A    between atoms: C_3  and  C_29
    3  A    between atoms: C_12  and  C_28
    4  A    between atoms: C_13  and  C_22
    5  A    between atoms: C_20  and  C_22
    6  A    between atoms: C_22  and  C_33
                            x       y       z     vdW  Elec       q    Type
                         _______ _______ _______ _____ _____    ______ ____

>  <TORSDO>
F 6

$$$$
=
 OpenBabel10262419123D

 34 38  0  0  1  0  0  0  0  0999 V2000
  187.3670  176.2160  136.5830 C   0  0  2  0  0  3  0  0  0  0  0  0
  189.4620  177.5930  137.1680 C   0  0  2  0  0  3  0  0  0  0  0  0
  187.5040  177.5280  138.7460 N   0  0  0  0  0  0  0  0  0  0  0  0
  187.4380  178.5240  141.0420 C   0  0  0  0  0  0  0  0  0  0  0  0
  189.3570  176.4390  135.0470 C   0  0  0  0  0  2  0  0  0  0  0  0
  190.2200  176.8260  136.1680 N   0  0  0  0  0  2  0  0  0  0  0  0
  189.3320  177.1960  140.3160 C   0  0  0  0  0  3  0  0  0  0  0  0
  188.2460  176.7940  137.6970 C   0  0  1  0  0  3  0  0  0  0  0  0
  189.9620  177.3900  141.6330 C   0  0  0  0  0  3  0  0  0  0  0  0
  188.1360  178.9370  142.3110 C   0  0  0  0  0  3  0  0  0  0  0  0
  188.2260  175.5240  135.5220 C   0  0  0  0  0  2  0  0  0  0  0  0
  186.1070  177.9280  138.6050 C   0  0  0  0  0  0  0  0  0  0  0  0
  186.3410  177.5110  135.8440 S   0  0  0  0  0  0  0  0  0  0  0  0
  189.1220  178.9920  136.6610 C   0  0  0  0  0  1  0  0  0  0  0  0
  186.2090  178.8810  140.8380 N   0  0  0  0  0  0  0  0  0  0  0  0
  185.4670  178.5300  139.6530 C   0  0  0  0  0  0  0  0  0  0  0  0
  189.4250  178.1760  142.5650 C   0  0  0  0  0  0  0  0  0  0  0  0
  188.1470  177.7420  140.0180 C   0  0  1  0  0  3  0  0  0  0  0  0
  185.3340  177.5760  137.3620 C   0  0  0  0  0  2  0  0  0  0  0  0
  182.2190  180.3750  139.0210 C   0  0  0  0  0  0  0  0  0  0  0  0
  181.3150  179.6480  139.8000 C   0  0  0  0  0  3  0  0  0  0  0  0
  184.0150  178.8560  139.6570 C   0  0  0  0  0  0  0  0  0  0  0  0
  181.7540  178.5260  140.5080 C   0  0  0  0  0  3  0  0  0  0  0  0
  183.5640  179.9940  138.9630 C   0  0  0  0  0  3  0  0  0  0  0  0
  183.0960  178.1370  140.4420 C   0  0  0  0  0  3  0  0  0  0  0  0
  181.7620  181.5660  138.2640 C   0  0  0  0  0  1  0  0  0  0  0  0
  190.1210  178.2490  143.8920 C   0  0  0  0  0  2  0  0  0  0  0  0
  189.6810  177.1500  144.8640 C   0  0  0  0  0  2  0  0  0  0  0  0
  188.8180  177.7800  145.9550 C   0  0  2  0  0  3  0  0  0  0  0  0
  189.8420  176.2600  147.4770 F   0  0  0  0  0  0  0  0  0  0  0  0
  188.3450  177.8120  148.4710 C   0  0  0  0  0  1  0  0  0  0  0  0
  189.3610  177.5510  147.3690 C   0  0  2  0  0  3  0  0  0  0  0  0
  187.3210  177.4560  145.8220 C   0  0  0  0  0  2  0  0  0  0  0  0
  186.5830  178.6080  145.5400 O   0  0  0  0  0  1  0  0  0  0  0  0
  1 11  1  6  0  0  0
  1  8  1  0  0  0  0
  2 14  1  6  0  0  0
  2  8  1  0  0  0  0
  3 18  1  0  0  0  0
  4 10  1  0  0  0  0
  5 11  1  0  0  0  0
  5  6  1  0  0  0  0
  6  2  1  0  0  0  0
  7  9  2  0  0  0  0
  8  3  1  6  0  0  0
  9 17  1  0  0  0  0
 10 17  2  0  0  0  0
 12  3  1  0  0  0  0
 12 16  2  0  0  0  0
 13  1  1  0  0  0  0
 13 19  1  0  0  0  0
 15  4  2  0  0  0  0
 16 22  1  0  0  0  0
 16 15  1  0  0  0  0
 17 27  1  0  0  0  0
 18  7  1  1  0  0  0
 18  4  1  0  0  0  0
 19 12  1  0  0  0  0
 20 21  1  0  0  0  0
 21 23  2  0  0  0  0
 22 25  2  0  0  0  0
 24 20  2  0  0  0  0
 24 22  1  0  0  0  0
 25 23  1  0  0  0  0
 26 20  1  0  0  0  0
 27 28  1  0  0  0  0
 29 28  1  6  0  0  0
 29 32  1  0  0  0  0
 32 30  1  0  0  0  0
 32 31  1  1  0  0  0
 33 29  1  0  0  0  0
 34 33  1  0  0  0  0
M  END
>  <MODEL>
3

>  <REMARK>
 VINA RESULT:      -8.3      3.451      6.913
  Name = 
  6 active torsions:
  status: ('A' for Active; 'I' for Inactive)
    1  A    between atoms: C_3  and  C_13
    2  A    between atoms: C_3  and  C_29
    3  A    between atoms: C_12  and  C_28
    4  A    between atoms: C_13  and  C_22
    5  A    between atoms: C_20  and  C_22
    6  A    between atoms: C_22  and  C_33
                            x       y       z     vdW  Elec       q    Type
                         _______ _______ _______ _____ _____    ______ ____

>  <TORSDO>
F 6

$$$$
=
 OpenBabel10262419123D

 34 38  0  0  1  0  0  0  0  0999 V2000
  182.3820  179.8420  139.2240 C   0  0  2  0  0  3  0  0  0  0  0  0
  181.6130  178.2630  141.1080 C   0  0  2  0  0  3  0  0  0  0  0  0
  184.0430  178.8670  140.8710 N   0  0  0  0  0  0  0  0  0  0  0  0
  185.8690  178.2540  142.4700 C   0  0  0  0  0  0  0  0  0  0  0  0
  179.9920  179.0850  139.5140 C   0  0  0  0  0  2  0  0  0  0  0  0
  180.2360  178.7450  140.9190 N   0  0  0  0  0  2  0  0  0  0  0  0
  183.7620  179.1490  143.2700 C   0  0  0  0  0  3  0  0  0  0  0  0
  182.6510  179.3110  140.6360 C   0  0  1  0  0  3  0  0  0  0  0  0
  184.2620  179.0620  144.6530 C   0  0  0  0  0  3  0  0  0  0  0  0
  186.3350  177.9360  143.8660 C   0  0  0  0  0  3  0  0  0  0  0  0
  180.9090  180.2250  139.0630 C   0  0  0  0  0  2  0  0  0  0  0  0
  185.0110  178.6710  139.7950 C   0  0  0  0  0  0  0  0  0  0  0  0
  182.8760  178.6230  137.9800 S   0  0  0  0  0  0  0  0  0  0  0  0
  181.8080  176.8730  140.5090 C   0  0  0  0  0  1  0  0  0  0  0  0
  186.6670  178.0630  141.4660 N   0  0  0  0  0  0  0  0  0  0  0  0
  186.3020  178.3410  140.1000 C   0  0  0  0  0  0  0  0  0  0  0  0
  185.4420  178.5190  144.9470 C   0  0  0  0  0  0  0  0  0  0  0  0
  184.5070  178.7530  142.2300 C   0  0  1  0  0  3  0  0  0  0  0  0
  184.6290  178.9450  138.3650 C   0  0  0  0  0  2  0  0  0  0  0  0
  188.0970  177.6360  136.8390 C   0  0  0  0  0  0  0  0  0  0  0  0
  189.4330  177.8420  137.1920 C   0  0  0  0  0  3  0  0  0  0  0  0
  187.3910  178.2460  139.0890 C   0  0  0  0  0  0  0  0  0  0  0  0
  189.7540  178.2500  138.4890 C   0  0  0  0  0  3  0  0  0  0  0  0
  187.0830  177.8180  137.7840 C   0  0  0  0  0  3  0  0  0  0  0  0
  188.7400  178.4440  139.4330 C   0  0  0  0  0  3  0  0  0  0  0  0
  187.7470  177.2040  135.4640 C   0  0  0  0  0  1  0  0  0  0  0  0
  185.8750  178.5420  146.3830 C   0  0  0  0  0  2  0  0  0  0  0  0
  186.8240  177.3950  146.7440 C   0  0  0  0  0  2  0  0  0  0  0  0
  188.2440  177.9470  146.8420 C   0  0  2  0  0  3  0  0  0  0  0  0
  190.2010  176.5930  146.9250 F   0  0  0  0  0  0  0  0  0  0  0  0
  189.9850  177.9160  144.9650 C   0  0  0  0  0  1  0  0  0  0  0  0
  189.2710  177.1290  146.0550 C   0  0  2  0  0  3  0  0  0  0  0  0
  188.6890  178.2540  148.2820 C   0  0  0  0  0  2  0  0  0  0  0  0
  187.9270  177.5340  149.2050 O   0  0  0  0  0  1  0  0  0  0  0  0
  1 11  1  1  0  0  0
  1  8  1  0  0  0  0
  2 14  1  6  0  0  0
  3 18  1  0  0  0  0
  4 10  1  0  0  0  0
  5  6  1  0  0  0  0
  6  2  1  0  0  0  0
  7  9  2  0  0  0  0
  8  3  1  6  0  0  0
  8  2  1  0  0  0  0
  9 17  1  0  0  0  0
 10 17  2  0  0  0  0
 11  5  1  0  0  0  0
 12 16  2  0  0  0  0
 12  3  1  0  0  0  0
 13 19  1  0  0  0  0
 13  1  1  0  0  0  0
 15  4  2  0  0  0  0
 16 15  1  0  0  0  0
 17 27  1  0  0  0  0
 18  4  1  0  0  0  0
 18  7  1  6  0  0  0
 19 12  1  0  0  0  0
 20 21  2  0  0  0  0
 20 24  1  0  0  0  0
 21 23  1  0  0  0  0
 22 25  1  0  0  0  0
 22 16  1  0  0  0  0
 23 25  2  0  0  0  0
 24 22  2  0  0  0  0
 26 20  1  0  0  0  0
 27 28  1  0  0  0  0
 29 28  1  1  0  0  0
 29 33  1  0  0  0  0
 32 31  1  6  0  0  0
 32 29  1  0  0  0  0
 32 30  1  0  0  0  0
 33 34  1  0  0  0  0
M  END
>  <MODEL>
4

>  <REMARK>
 VINA RESULT:      -7.8      3.528      6.918
  Name = 
  6 active torsions:
  status: ('A' for Active; 'I' for Inactive)
    1  A    between atoms: C_3  and  C_13
    2  A    between atoms: C_3  and  C_29
    3  A    between atoms: C_12  and  C_28
    4  A    between atoms: C_13  and  C_22
    5  A    between atoms: C_20  and  C_22
    6  A    between atoms: C_22  and  C_33
                            x       y       z     vdW  Elec       q    Type
                         _______ _______ _______ _____ _____    ______ ____

>  <TORSDO>
F 6

$$$$
=
 OpenBabel10262419123D

 34 38  0  0  1  0  0  0  0  0999 V2000
  180.9870  178.0790  140.0050 C   0  0  2  0  0  3  0  0  0  0  0  0
  182.0350  179.4770  138.1140 C   0  0  2  0  0  3  0  0  0  0  0  0
  183.4910  178.4470  139.8890 N   0  0  0  0  0  0  0  0  0  0  0  0
  185.9940  178.4400  139.9090 C   0  0  0  0  0  0  0  0  0  0  0  0
  179.6320  179.2410  138.2210 C   0  0  0  0  0  2  0  0  0  0  0  0
  180.7990  179.3110  137.3360 N   0  0  0  0  0  2  0  0  0  0  0  0
  184.7650  177.8690  137.8990 C   0  0  0  0  0  3  0  0  0  0  0  0
  182.2230  178.3280  139.1350 C   0  0  1  0  0  3  0  0  0  0  0  0
  186.0390  177.6470  137.1940 C   0  0  0  0  0  3  0  0  0  0  0  0
  187.3100  178.4460  139.1770 C   0  0  0  0  0  2  0  0  0  0  0  0
  179.7230  178.0230  139.1440 C   0  0  0  0  0  2  0  0  0  0  0  0
  183.5460  178.6070  141.3390 C   0  0  0  0  0  0  0  0  0  0  0  0
  180.8440  179.3490  141.2870 S   0  0  0  0  0  0  0  0  0  0  0  0
  182.1340  180.8750  138.7180 C   0  0  0  0  0  1  0  0  0  0  0  0
  185.9710  178.6180  141.1930 N   0  0  0  0  0  0  0  0  0  0  0  0
  184.7580  178.6270  141.9710 C   0  0  0  0  0  0  0  0  0  0  0  0
  187.2160  177.8960  137.7650 C   0  0  0  0  0  0  0  0  0  0  0  0
  184.7310  178.2620  139.1790 C   0  0  0  0  0  0  0  0  0  0  0  0
  182.2800  178.6330  142.1530 C   0  0  0  0  0  2  0  0  0  0  0  0
  186.2230  178.0520  145.4170 C   0  0  0  0  0  0  0  0  0  0  0  0
  185.1870  178.4840  146.2500 C   0  0  0  0  0  3  0  0  0  0  0  0
  184.9170  178.6550  143.4500 C   0  0  0  0  0  0  0  0  0  0  0  0
  184.0160  179.0020  145.6900 C   0  0  0  0  0  3  0  0  0  0  0  0
  186.0840  178.1190  144.0280 C   0  0  0  0  0  3  0  0  0  0  0  0
  183.8800  179.0800  144.3000 C   0  0  0  0  0  3  0  0  0  0  0  0
  187.4700  177.5020  146.0030 C   0  0  0  0  0  1  0  0  0  0  0  0
  188.4500  177.5720  136.9750 C   0  0  0  0  0  2  0  0  0  0  0  0
  189.7370  177.6700  137.8000 C   0  0  0  0  0  2  0  0  0  0  0  0
  190.1730  176.2610  138.1940 C   0  0  2  0  0  3  0  0  0  0  0  0
  191.7860  177.1380  139.7120 F   0  0  0  0  0  0  0  0  0  0  0  0
  192.6710  176.3790  137.6430 C   0  0  0  0  0  1  0  0  0  0  0  0
  191.6100  176.1930  138.7190 C   0  0  2  0  0  3  0  0  0  0  0  0
  189.8680  175.1990  137.1260 C   0  0  0  0  0  2  0  0  0  0  0  0
  190.1690  173.9180  137.5930 O   0  0  0  0  0  1  0  0  0  0  0  0
  1 11  1  6  0  0  0
  1 13  1  0  0  0  0
  2 14  1  1  0  0  0
  2  8  1  0  0  0  0
  3 12  1  0  0  0  0
  4 15  2  0  0  0  0
  5 11  1  0  0  0  0
  6  2  1  0  0  0  0
  6  5  1  0  0  0  0
  7 18  2  0  0  0  0
  8  3  1  1  0  0  0
  8  1  1  0  0  0  0
  9 17  2  0  0  0  0
  9  7  1  0  0  0  0
 10  4  1  0  0  0  0
 12 16  2  0  0  0  0
 12 19  1  0  0  0  0
 13 19  1  0  0  0  0
 15 16  1  0  0  0  0
 16 22  1  0  0  0  0
 17 10  1  0  0  0  0
 18  3  1  0  0  0  0
 18  4  1  0  0  0  0
 20 26  1  0  0  0  0
 20 21  1  0  0  0  0
 22 24  1  0  0  0  0
 22 25  2  0  0  0  0
 23 21  2  0  0  0  0
 24 20  2  0  0  0  0
 25 23  1  0  0  0  0
 27 17  1  0  0  0  0
 27 28  1  0  0  0  0
 28 29  1  0  0  0  0
 29 33  1  6  0  0  0
 29 32  1  0  0  0  0
 32 31  1  6  0  0  0
 32 30  1  0  0  0  0
 33 34  1  0  0  0  0
M  END
>  <MODEL>
5

>  <REMARK>
 VINA RESULT:      -7.7      4.174      9.306
  Name = 
  6 active torsions:
  status: ('A' for Active; 'I' for Inactive)
    1  A    between atoms: C_3  and  C_13
    2  A    between atoms: C_3  and  C_29
    3  A    between atoms: C_12  and  C_28
    4  A    between atoms: C_13  and  C_22
    5  A    between atoms: C_20  and  C_22
    6  A    between atoms: C_22  and  C_33
                            x       y       z     vdW  Elec       q    Type
                         _______ _______ _______ _____ _____    ______ ____

>  <TORSDO>
F 6

$$$$
=
 OpenBabel10262419123D

 34 38  0  0  1  0  0  0  0  0999 V2000
  189.6750  178.2170  144.4590 C   0  0  2  0  0  3  0  0  0  0  0  0
  190.4110  176.6340  142.5670 C   0  0  2  0  0  3  0  0  0  0  0  0
  188.3390  178.0390  142.3140 N   0  0  0  0  0  0  0  0  0  0  0  0
  186.9560  178.2500  140.2380 C   0  0  0  0  0  0  0  0  0  0  0  0
  191.6770  176.6900  144.6260 C   0  0  0  0  0  2  0  0  0  0  0  0
  191.7530  176.5780  143.1650 N   0  0  0  0  0  2  0  0  0  0  0  0
  189.3740  178.4040  140.1430 C   0  0  0  0  0  3  0  0  0  0  0  0
  189.6700  177.9380  142.9530 C   0  0  1  0  0  3  0  0  0  0  0  0
  189.2940  178.6170  138.6880 C   0  0  0  0  0  3  0  0  0  0  0  0
  186.8360  178.2370  138.7370 C   0  0  0  0  0  2  0  0  0  0  0  0
  191.0810  178.0380  145.0370 C   0  0  0  0  0  2  0  0  0  0  0  0
  187.0930  178.1080  143.0710 C   0  0  0  0  0  0  0  0  0  0  0  0
  188.4830  177.1530  145.3090 S   0  0  0  0  0  0  0  0  0  0  0  0
  189.6200  175.3580  142.8430 C   0  0  0  0  0  1  0  0  0  0  0  0
  185.8850  178.2700  140.9690 N   0  0  0  0  0  0  0  0  0  0  0  0
  185.9090  178.2840  142.4100 C   0  0  0  0  0  0  0  0  0  0  0  0
  188.1400  178.5540  138.0260 C   0  0  0  0  0  0  0  0  0  0  0  0
  188.2760  178.2110  140.8850 C   0  0  0  0  0  0  0  0  0  0  0  0
  187.1130  178.1070  144.5770 C   0  0  0  0  0  2  0  0  0  0  0  0
  182.2100  178.9160  142.9310 C   0  0  0  0  0  0  0  0  0  0  0  0
  182.1400  179.1120  144.3120 C   0  0  0  0  0  3  0  0  0  0  0  0
  184.6050  178.4960  143.0940 C   0  0  0  0  0  0  0  0  0  0  0  0
  183.2970  179.0010  145.0890 C   0  0  0  0  0  3  0  0  0  0  0  0
  183.4360  178.6280  142.3210 C   0  0  0  0  0  3  0  0  0  0  0  0
  184.5210  178.7030  144.4830 C   0  0  0  0  0  3  0  0  0  0  0  0
  180.9880  179.0300  142.0980 C   0  0  0  0  0  1  0  0  0  0  0  0
  188.1690  178.8500  136.5550 C   0  0  0  0  0  2  0  0  0  0  0  0
  189.0570  177.8840  135.7640 C   0  0  0  0  0  2  0  0  0  0  0  0
  188.5470  176.4620  135.9830 C   0  0  2  0  0  3  0  0  0  0  0  0
  189.3400  175.3560  137.9380 F   0  0  0  0  0  0  0  0  0  0  0  0
  191.0310  175.9960  136.3980 C   0  0  0  0  0  1  0  0  0  0  0  0
  189.5960  175.5260  136.5910 C   0  0  2  0  0  3  0  0  0  0  0  0
  187.8400  175.8640  134.7560 C   0  0  0  0  0  2  0  0  0  0  0  0
  186.4560  176.0210  134.8490 O   0  0  0  0  0  1  0  0  0  0  0  0
  1 11  1  1  0  0  0
  1 13  1  0  0  0  0
  2 14  1  1  0  0  0
  2  8  1  0  0  0  0
  2  6  1  0  0  0  0
  3 12  1  0  0  0  0
  4 18  1  0  0  0  0
  4 15  2  0  0  0  0
  5 11  1  0  0  0  0
  6  5  1  0  0  0  0
  7 18  2  0  0  0  0
  8  3  1  1  0  0  0
  8  1  1  0  0  0  0
  9  7  1  0  0  0  0
 10  4  1  0  0  0  0
 12 19  1  0  0  0  0
 15 16  1  0  0  0  0
 16 12  2  0  0  0  0
 16 22  1  0  0  0  0
 17  9  2  0  0  0  0
 17 10  1  0  0  0  0
 18  3  1  0  0  0  0
 19 13  1  0  0  0  0
 20 21  1  0  0  0  0
 21 23  2  0  0  0  0
 22 25  2  0  0  0  0
 24 20  2  0  0  0  0
 24 22  1  0  0  0  0
 25 23  1  0  0  0  0
 26 20  1  0  0  0  0
 27 17  1  0  0  0  0
 28 29  1  0  0  0  0
 28 27  1  0  0  0  0
 29 33  1  6  0  0  0
 29 32  1  0  0  0  0
 32 31  1  1  0  0  0
 32 30  1  0  0  0  0
 33 34  1  0  0  0  0
M  END
>  <MODEL>
6

>  <REMARK>
 VINA RESULT:      -7.5      2.932      7.022
  Name = 
  6 active torsions:
  status: ('A' for Active; 'I' for Inactive)
    1  A    between atoms: C_3  and  C_13
    2  A    between atoms: C_3  and  C_29
    3  A    between atoms: C_12  and  C_28
    4  A    between atoms: C_13  and  C_22
    5  A    between atoms: C_20  and  C_22
    6  A    between atoms: C_22  and  C_33
                            x       y       z     vdW  Elec       q    Type
                         _______ _______ _______ _____ _____    ______ ____

>  <TORSDO>
F 6

$$$$
=
 OpenBabel10262419123D

 34 38  0  0  1  0  0  0  0  0999 V2000
  189.3210  178.1270  137.5040 C   0  0  2  0  0  3  0  0  0  0  0  0
  187.1770  176.8310  136.9120 C   0  0  2  0  0  3  0  0  0  0  0  0
  187.3690  178.0270  139.1170 N   0  0  0  0  0  0  0  0  0  0  0  0
  185.5370  178.3010  140.8010 C   0  0  0  0  0  0  0  0  0  0  0  0
  189.0380  176.8110  135.3700 C   0  0  0  0  0  2  0  0  0  0  0  0
  187.5770  176.8570  135.4970 N   0  0  0  0  0  2  0  0  0  0  0  0
  185.1360  178.7180  138.4460 C   0  0  0  0  0  3  0  0  0  0  0  0
  187.8070  178.0030  137.7030 C   0  0  1  0  0  3  0  0  0  0  0  0
  183.7390  179.0680  138.7570 C   0  0  0  0  0  3  0  0  0  0  0  0
  184.0750  178.4270  141.1360 C   0  0  0  0  0  3  0  0  0  0  0  0
  189.6790  178.0400  136.0190 C   0  0  0  0  0  2  0  0  0  0  0  0
  188.2900  177.8870  140.2410 C   0  0  0  0  0  0  0  0  0  0  0  0
  190.1950  176.8610  138.4590 S   0  0  0  0  0  0  0  0  0  0  0  0
  187.4070  175.4580  137.5350 C   0  0  0  0  0  1  0  0  0  0  0  0
  186.4030  178.1330  141.7510 N   0  0  0  0  0  0  0  0  0  0  0  0
  187.8190  178.0020  141.5190 C   0  0  0  0  0  0  0  0  0  0  0  0
  183.2360  178.9510  139.9840 C   0  0  0  0  0  0  0  0  0  0  0  0
  185.9910  178.3360  139.4030 C   0  0  1  0  0  3  0  0  0  0  0  0
  189.7690  177.7340  140.0020 C   0  0  0  0  0  2  0  0  0  0  0  0
  188.9130  177.7670  145.1380 C   0  0  0  0  0  0  0  0  0  0  0  0
  190.2400  178.1990  145.0700 C   0  0  0  0  0  3  0  0  0  0  0  0
  188.6930  178.0050  142.7240 C   0  0  0  0  0  0  0  0  0  0  0  0
  190.8000  178.5330  143.8330 C   0  0  0  0  0  3  0  0  0  0  0  0
  188.1380  177.6880  143.9770 C   0  0  0  0  0  3  0  0  0  0  0  0
  190.0290  178.4440  142.6700 C   0  0  0  0  0  3  0  0  0  0  0  0
  188.3120  177.4090  146.4460 C   0  0  0  0  0  1  0  0  0  0  0  0
  181.8180  179.3970  140.1960 C   0  0  0  0  0  2  0  0  0  0  0  0
  181.0560  178.5240  141.1970 C   0  0  0  0  0  2  0  0  0  0  0  0
  180.8310  179.3280  142.4750 C   0  0  2  0  0  3  0  0  0  0  0  0
  180.2740  178.7380  144.7140 F   0  0  0  0  0  0  0  0  0  0  0  0
  182.5970  179.0120  144.3030 C   0  0  0  0  0  1  0  0  0  0  0  0
  181.2480  178.5820  143.7450 C   0  0  2  0  0  3  0  0  0  0  0  0
  179.4300  179.9540  142.5720 C   0  0  0  0  0  2  0  0  0  0  0  0
  179.4250  181.2540  142.0610 O   0  0  0  0  0  1  0  0  0  0  0  0
  1 11  1  6  0  0  0
  1  8  1  0  0  0  0
  1 13  1  0  0  0  0
  2 14  1  1  0  0  0
  2  8  1  0  0  0  0
  3 18  1  0  0  0  0
  3 12  1  0  0  0  0
  4 10  1  0  0  0  0
  4 15  2  0  0  0  0
  5  6  1  0  0  0  0
  5 11  1  0  0  0  0
  6  2  1  0  0  0  0
  7  9  2  0  0  0  0
  8  3  1  1  0  0  0
  9 17  1  0  0  0  0
 12 16  2  0  0  0  0
 13 19  1  0  0  0  0
 16 15  1  0  0  0  0
 16 22  1  0  0  0  0
 17 27  1  0  0  0  0
 17 10  2  0  0  0  0
 18  7  1  1  0  0  0
 18  4  1  0  0  0  0
 19 12  1  0  0  0  0
 20 26  1  0  0  0  0
 21 20  1  0  0  0  0
 22 24  1  0  0  0  0
 23 21  2  0  0  0  0
 24 20  2  0  0  0  0
 25 22  2  0  0  0  0
 25 23  1  0  0  0  0
 27 28  1  0  0  0  0
 29 28  1  6  0  0  0
 29 33  1  0  0  0  0
 29 32  1  0  0  0  0
 32 31  1  1  0  0  0
 32 30  1  0  0  0  0
 34 33  1  0  0  0  0
M  END
>  <MODEL>
7

>  <REMARK>
 VINA RESULT:      -7.4      2.181      5.788
  Name = 
  6 active torsions:
  status: ('A' for Active; 'I' for Inactive)
    1  A    between atoms: C_3  and  C_13
    2  A    between atoms: C_3  and  C_29
    3  A    between atoms: C_12  and  C_28
    4  A    between atoms: C_13  and  C_22
    5  A    between atoms: C_20  and  C_22
    6  A    between atoms: C_22  and  C_33
                            x       y       z     vdW  Elec       q    Type
                         _______ _______ _______ _____ _____    ______ ____

>  <TORSDO>
F 6

$$$$
=
 OpenBabel10262419123D

 34 38  0  0  1  0  0  0  0  0999 V2000
  188.9350  178.7320  138.5700 C   0  0  2  0  0  3  0  0  0  0  0  0
  186.8900  177.5330  137.5660 C   0  0  2  0  0  3  0  0  0  0  0  0
  186.8580  178.3110  139.9580 N   0  0  0  0  0  0  0  0  0  0  0  0
  184.8820  178.2470  141.4950 C   0  0  0  0  0  0  0  0  0  0  0  0
  188.8750  177.8210  136.2170 C   0  0  0  0  0  2  0  0  0  0  0  0
  187.4080  177.8210  136.2210 N   0  0  0  0  0  2  0  0  0  0  0  0
  184.6690  179.0790  139.2270 C   0  0  0  0  0  3  0  0  0  0  0  0
  187.4140  178.5510  138.6080 C   0  0  1  0  0  3  0  0  0  0  0  0
  183.2410  179.3460  139.4700 C   0  0  0  0  0  3  0  0  0  0  0  0
  183.3940  178.2890  141.7160 C   0  0  0  0  0  3  0  0  0  0  0  0
  189.4200  178.9210  137.1310 C   0  0  0  0  0  2  0  0  0  0  0  0
  187.6850  177.9830  141.1160 C   0  0  0  0  0  0  0  0  0  0  0  0
  189.7640  177.3270  139.3550 S   0  0  0  0  0  0  0  0  0  0  0  0
  187.1090  176.0730  137.9500 C   0  0  0  0  0  1  0  0  0  0  0  0
  185.6700  177.9220  142.4720 N   0  0  0  0  0  0  0  0  0  0  0  0
  187.1040  177.8580  142.3470 C   0  0  0  0  0  0  0  0  0  0  0  0
  182.6390  179.0000  140.6070 C   0  0  0  0  0  0  0  0  0  0  0  0
  185.4510  178.5420  140.1720 C   0  0  1  0  0  3  0  0  0  0  0  0
  189.1820  177.8990  140.9860 C   0  0  0  0  0  2  0  0  0  0  0  0
  187.9520  177.7620  146.0380 C   0  0  0  0  0  0  0  0  0  0  0  0
  189.3230  177.4950  146.0150 C   0  0  0  0  0  3  0  0  0  0  0  0
  187.8720  177.6550  143.6060 C   0  0  0  0  0  0  0  0  0  0  0  0
  189.9740  177.3070  144.7930 C   0  0  0  0  0  3  0  0  0  0  0  0
  187.2330  177.8600  144.8430 C   0  0  0  0  0  3  0  0  0  0  0  0
  189.2540  177.3930  143.5960 C   0  0  0  0  0  3  0  0  0  0  0  0
  187.2530  177.9620  147.3310 C   0  0  0  0  0  1  0  0  0  0  0  0
  181.1960  179.3790  140.7690 C   0  0  0  0  0  2  0  0  0  0  0  0
  180.2550  178.5540  139.8860 C   0  0  0  0  0  2  0  0  0  0  0  0
  180.2790  177.1050  140.3670 C   0  0  2  0  0  3  0  0  0  0  0  0
  182.1060  175.6720  139.8400 F   0  0  0  0  0  0  0  0  0  0  0  0
  181.1000  176.7350  137.9700 C   0  0  0  0  0  1  0  0  0  0  0  0
  180.8990  176.1370  139.3550 C   0  0  2  0  0  3  0  0  0  0  0  0
  178.9310  176.6170  140.9230 C   0  0  0  0  0  2  0  0  0  0  0  0
  179.0290  175.3080  141.3980 O   0  0  0  0  0  1  0  0  0  0  0  0
  1 11  1  6  0  0  0
  1  8  1  0  0  0  0
  1 13  1  0  0  0  0
  2 14  1  1  0  0  0
  2  8  1  0  0  0  0
  3 18  1  0  0  0  0
  3 12  1  0  0  0  0
  4 10  1  0  0  0  0
  4 15  2  0  0  0  0
  5  6  1  0  0  0  0
  5 11  1  0  0  0  0
  6  2  1  0  0  0  0
  7  9  2  0  0  0  0
  8  3  1  1  0  0  0
  9 17  1  0  0  0  0
 12 16  2  0  0  0  0
 13 19  1  0  0  0  0
 16 15  1  0  0  0  0
 16 22  1  0  0  0  0
 17 27  1  0  0  0  0
 17 10  2  0  0  0  0
 18  7  1  1  0  0  0
 18  4  1  0  0  0  0
 19 12  1  0  0  0  0
 20 26  1  0  0  0  0
 21 20  1  0  0  0  0
 22 24  1  0  0  0  0
 23 21  2  0  0  0  0
 24 20  2  0  0  0  0
 25 22  2  0  0  0  0
 25 23  1  0  0  0  0
 28 27  1  0  0  0  0
 29 28  1  6  0  0  0
 29 33  1  0  0  0  0
 32 31  1  6  0  0  0
 32 30  1  0  0  0  0
 32 29  1  0  0  0  0
 33 34  1  0  0  0  0
M  END
>  <MODEL>
8

>  <REMARK>
 VINA RESULT:      -7.4      2.228      5.866
  Name = 
  6 active torsions:
  status: ('A' for Active; 'I' for Inactive)
    1  A    between atoms: C_3  and  C_13
    2  A    between atoms: C_3  and  C_29
    3  A    between atoms: C_12  and  C_28
    4  A    between atoms: C_13  and  C_22
    5  A    between atoms: C_20  and  C_22
    6  A    between atoms: C_22  and  C_33
                            x       y       z     vdW  Elec       q    Type
                         _______ _______ _______ _____ _____    ______ ____

>  <TORSDO>
F 6

$$$$
=
 OpenBabel10262419123D

 34 38  0  0  1  0  0  0  0  0999 V2000
  188.9810  178.4380  137.4540 C   0  0  2  0  0  3  0  0  0  0  0  0
  186.7880  177.0970  137.3000 C   0  0  2  0  0  3  0  0  0  0  0  0
  187.5310  178.0670  139.4990 N   0  0  0  0  0  0  0  0  0  0  0  0
  186.2070  178.0670  141.6240 C   0  0  0  0  0  0  0  0  0  0  0  0
  188.1720  177.3370  135.3320 C   0  0  0  0  0  2  0  0  0  0  0  0
  186.7970  177.2910  135.8430 N   0  0  0  0  0  2  0  0  0  0  0  0
  185.1840  178.7040  139.5200 C   0  0  0  0  0  3  0  0  0  0  0  0
  187.5770  178.2130  138.0270 C   0  0  1  0  0  3  0  0  0  0  0  0
  183.9120  178.9440  140.2230 C   0  0  0  0  0  3  0  0  0  0  0  0
  184.8840  178.0800  142.3420 C   0  0  0  0  0  3  0  0  0  0  0  0
  188.9330  178.5240  135.9270 C   0  0  0  0  0  2  0  0  0  0  0  0
  188.7220  177.8610  140.3190 C   0  0  0  0  0  0  0  0  0  0  0  0
  190.1070  177.1290  137.9960 S   0  0  0  0  0  0  0  0  0  0  0  0
  187.2090  175.6810  137.6800 C   0  0  0  0  0  1  0  0  0  0  0  0
  187.2990  177.8480  142.2890 N   0  0  0  0  0  0  0  0  0  0  0  0
  188.6050  177.8180  141.6810 C   0  0  0  0  0  0  0  0  0  0  0  0
  183.7570  178.6740  141.5180 C   0  0  0  0  0  0  0  0  0  0  0  0
  186.2720  178.2710  140.1700 C   0  0  1  0  0  3  0  0  0  0  0  0
  190.0860  177.8130  139.6850 C   0  0  0  0  0  2  0  0  0  0  0  0
  191.3150  176.3770  143.9010 C   0  0  0  0  0  0  0  0  0  0  0  0
  191.8260  177.5220  144.5180 C   0  0  0  0  0  3  0  0  0  0  0  0
  189.7670  177.7430  142.6070 C   0  0  0  0  0  0  0  0  0  0  0  0
  191.3130  178.7790  144.1830 C   0  0  0  0  0  3  0  0  0  0  0  0
  190.2810  176.4830  142.9660 C   0  0  0  0  0  3  0  0  0  0  0  0
  190.2860  178.8870  143.2400 C   0  0  0  0  0  3  0  0  0  0  0  0
  191.8550  175.0400  144.2480 C   0  0  0  0  0  1  0  0  0  0  0  0
  182.4360  179.0190  142.1430 C   0  0  0  0  0  2  0  0  0  0  0  0
  181.2870  179.0690  141.1320 C   0  0  0  0  0  2  0  0  0  0  0  0
  180.0100  178.5910  141.8190 C   0  0  2  0  0  3  0  0  0  0  0  0
  179.9520  177.4780  143.9250 F   0  0  0  0  0  0  0  0  0  0  0  0
  178.9750  179.6420  143.9120 C   0  0  0  0  0  1  0  0  0  0  0  0
  180.0520  178.7290  143.3440 C   0  0  2  0  0  3  0  0  0  0  0  0
  179.5380  177.2050  141.3490 C   0  0  0  0  0  2  0  0  0  0  0  0
  180.3400  176.7280  140.3100 O   0  0  0  0  0  1  0  0  0  0  0  0
  1 11  1  6  0  0  0
  1 13  1  0  0  0  0
  1  8  1  0  0  0  0
  2 14  1  6  0  0  0
  2  8  1  0  0  0  0
  3 18  1  0  0  0  0
  3 12  1  0  0  0  0
  4 15  2  0  0  0  0
  4 10  1  0  0  0  0
  5  6  1  0  0  0  0
  5 11  1  0  0  0  0
  6  2  1  0  0  0  0
  7  9  2  0  0  0  0
  8  3  1  1  0  0  0
  9 17  1  0  0  0  0
 12 16  2  0  0  0  0
 13 19  1  0  0  0  0
 16 15  1  0  0  0  0
 16 22  1  0  0  0  0
 17 27  1  0  0  0  0
 17 10  2  0  0  0  0
 18  7  1  1  0  0  0
 18  4  1  0  0  0  0
 19 12  1  0  0  0  0
 20 26  1  0  0  0  0
 20 21  1  0  0  0  0
 22 24  1  0  0  0  0
 22 25  2  0  0  0  0
 23 21  2  0  0  0  0
 24 20  2  0  0  0  0
 25 23  1  0  0  0  0
 28 27  1  0  0  0  0
 29 28  1  1  0  0  0
 29 32  1  0  0  0  0
 32 31  1  1  0  0  0
 32 30  1  0  0  0  0
 33 29  1  0  0  0  0
 34 33  1  0  0  0  0
M  END
>  <MODEL>
9

>  <REMARK>
 VINA RESULT:      -7.4      1.965      5.641
  Name = 
  6 active torsions:
  status: ('A' for Active; 'I' for Inactive)
    1  A    between atoms: C_3  and  C_13
    2  A    between atoms: C_3  and  C_29
    3  A    between atoms: C_12  and  C_28
    4  A    between atoms: C_13  and  C_22
    5  A    between atoms: C_20  and  C_22
    6  A    between atoms: C_22  and  C_33
                            x       y       z     vdW  Elec       q    Type
                         _______ _______ _______ _____ _____    ______ ____

>  <TORSDO>
F 6

$$$$
