=
 OpenBabel10262423203D

 34 37  0  0  1  0  0  0  0  0999 V2000
  188.1340  178.3360  142.5290 C   0  0  2  0  0  3  0  0  0  0  0  0
  186.7310  177.7340  142.5370 C   0  0  0  0  0  2  0  0  0  0  0  0
  185.8180  178.5250  141.7070 C   0  0  0  0  0  0  0  0  0  0  0  0
  185.0660  179.1750  141.0250 C   0  0  0  0  0  3  0  0  0  0  0  0
  188.7220  178.2360  141.1260 C   0  0  0  0  0  2  0  0  0  0  0  0
  189.5270  176.9570  140.9900 C   0  0  0  0  0  2  0  0  0  0  0  0
  190.5350  177.0830  139.8590 C   0  0  0  0  0  2  0  0  0  0  0  0
  189.1500  178.4040  137.5230 C   0  0  0  0  0  2  0  0  0  0  0  0
  191.8710  175.9950  137.1250 C   0  0  2  0  0  0  0  0  0  0  0  0
  191.1950  175.4280  138.3670 C   0  0  0  0  0  2  0  0  0  0  0  0
  190.0970  176.3090  138.7020 N   0  0  0  0  0  0  0  0  0  0  0  0
  191.1400  177.1080  136.6760 O   0  0  0  0  0  0  0  0  0  0  0  0
  190.0460  177.1840  137.5440 C   0  0  0  0  0  0  0  0  0  0  0  0
  191.8850  175.0210  136.1250 O   0  0  0  0  0  1  0  0  0  0  0  0
  188.7200  177.1190  136.8230 C   0  0  0  0  0  2  0  0  0  0  0  0
  193.2770  176.3960  137.4590 C   0  0  0  0  0  0  0  0  0  0  0  0
  193.6730  176.4000  138.6560 O   0  0  0  0  0  1  0  0  0  0  0  0
  194.1710  176.7090  136.4420 O   0  0  0  0  0  0  0  0  0  0  0  0
  189.0350  177.6140  143.5370 C   0  0  1  0  0  3  0  0  0  0  0  0
  190.9920  178.9930  143.3570 O   0  0  0  0  0  0  0  0  0  0  0  0
  191.3690  178.1790  144.4410 C   0  0  1  0  0  3  0  0  0  0  0  0
  189.9550  178.6200  144.2340 C   0  0  2  0  0  3  0  0  0  0  0  0
  192.1920  174.4560  144.3330 N   0  0  0  0  0  1  0  0  0  0  0  0
  191.9730  175.7620  144.8520 C   0  0  0  0  0  0  0  0  0  0  0  0
  192.0850  175.9700  146.0890 O   0  0  0  0  0  0  0  0  0  0  0  0
  191.6290  176.8250  143.9650 N   0  0  0  0  0  2  0  0  0  0  0  0
  188.2410  176.9660  144.5250 O   0  0  0  0  0  0  0  0  0  0  0  0
  189.0900  177.0700  146.7520 C   0  0  0  0  0  3  0  0  0  0  0  0
  187.9020  178.1530  148.5580 C   0  0  0  0  0  3  0  0  0  0  0  0
  189.0110  177.4450  148.0950 C   0  0  0  0  0  3  0  0  0  0  0  0
  186.9400  178.1190  146.3270 C   0  0  0  0  0  0  0  0  0  0  0  0
  188.0680  177.3960  145.8520 C   0  0  0  0  0  0  0  0  0  0  0  0
  186.8740  178.4870  147.6760 C   0  0  0  0  0  3  0  0  0  0  0  0
  185.7930  178.5160  145.4650 C   0  0  0  0  0  1  0  0  0  0  0  0
  1  5  1  6  0  0  0
  1  2  1  0  0  0  0
  1 19  1  0  0  0  0
  3  2  1  0  0  0  0
  4  3  3  0  0  0  0
  6  5  1  0  0  0  0
  7  6  1  0  0  0  0
  8 13  1  0  0  0  0
  9 14  1  6  0  0  0
  9 16  1  0  0  0  0
  9 10  1  0  0  0  0
 10 11  1  0  0  0  0
 11  7  1  0  0  0  0
 12  9  1  0  0  0  0
 12 13  1  0  0  0  0
 13 11  1  0  0  0  0
 15  8  1  0  0  0  0
 15 13  1  0  0  0  0
 16 17  1  0  0  0  0
 18 16  2  0  0  0  0
 19 27  1  1  0  0  0
 20 22  1  0  0  0  0
 20 21  1  0  0  0  0
 21 26  1  6  0  0  0
 22 19  1  6  0  0  0
 22 21  1  0  0  0  0
 23 24  1  0  0  0  0
 24 25  2  0  0  0  0
 26 24  1  0  0  0  0
 27 32  1  0  0  0  0
 28 30  1  0  0  0  0
 30 29  2  0  0  0  0
 31 33  2  0  0  0  0
 32 31  1  0  0  0  0
 32 28  2  0  0  0  0
 33 29  1  0  0  0  0
 34 31  1  0  0  0  0
M  END
>  <MODEL>
1

>  <REMARK>
 VINA RESULT:      -7.6      0.000      0.000
  Name = 
  12 active torsions:
  status: ('A' for Active; 'I' for Inactive)
    1  A    between atoms: O_1  and  C_20
    2  A    between atoms: O_1  and  C_34
    3  A    between atoms: C_4  and  N_16
    4  A    between atoms: C_4  and  C_31
    5  A    between atoms: C_5  and  C_18
    6  A    between atoms: C_5  and  C_33
    7  A    between atoms: C_5  and  C_34
    8  A    between atoms: C_7  and  C_11
    9  A    between atoms: C_8  and  C_18
   10  A    between atoms: C_23  and  N_27
   11  A    between atoms: C_31  and  C_33
   12  A    between atoms: C_32  and  C_34
                            x       y       z     vdW  Elec       q    Type
                         _______ _______ _______ _____ _____    ______ ____

>  <TORSDO>
F 12

$$$$
=
 OpenBabel10262423203D

 34 37  0  0  1  0  0  0  0  0999 V2000
  187.5120  178.2540  142.4560 C   0  0  2  0  0  3  0  0  0  0  0  0
  187.1500  177.0710  143.3510 C   0  0  0  0  0  2  0  0  0  0  0  0
  187.5770  177.3110  144.7330 C   0  0  0  0  0  0  0  0  0  0  0  0
  187.9280  177.5060  145.8700 C   0  0  0  0  0  3  0  0  0  0  0  0
  186.2390  178.8600  141.8760 C   0  0  0  0  0  2  0  0  0  0  0  0
  185.0310  178.0610  142.3270 C   0  0  0  0  0  2  0  0  0  0  0  0
  183.7720  178.9090  142.2400 C   0  0  0  0  0  2  0  0  0  0  0  0
  180.8700  179.3660  142.9400 C   0  0  0  0  0  2  0  0  0  0  0  0
  182.0850  179.1800  139.4970 C   0  0  2  0  0  0  0  0  0  0  0  0
  183.0240  178.1830  140.1630 C   0  0  0  0  0  2  0  0  0  0  0  0
  182.7070  178.1660  141.5750 N   0  0  0  0  0  0  0  0  0  0  0  0
  181.1740  179.6590  140.4540 O   0  0  0  0  0  0  0  0  0  0  0  0
  181.4860  178.9530  141.6200 C   0  0  0  0  0  0  0  0  0  0  0  0
  181.3820  178.5380  138.4760 O   0  0  0  0  0  1  0  0  0  0  0  0
  180.3120  178.1750  142.1670 C   0  0  0  0  0  2  0  0  0  0  0  0
  182.8820  180.3140  138.9250 C   0  0  0  0  0  0  0  0  0  0  0  0
  182.3010  181.3250  138.4450 O   0  0  0  0  0  0  0  0  0  0  0  0
  184.2710  180.2850  138.9770 O   0  0  0  0  0  1  0  0  0  0  0  0
  188.4510  177.8090  141.3310 C   0  0  1  0  0  3  0  0  0  0  0  0
  187.2790  177.8660  139.2350 O   0  0  0  0  0  0  0  0  0  0  0  0
  188.6030  177.9740  138.7740 C   0  0  1  0  0  3  0  0  0  0  0  0
  188.1560  178.6030  140.0550 C   0  0  2  0  0  3  0  0  0  0  0  0
  190.9660  175.0120  138.3250 N   0  0  0  0  0  1  0  0  0  0  0  0
  190.3140  176.2520  138.0770 C   0  0  0  0  0  0  0  0  0  0  0  0
  190.6460  176.9440  137.0780 O   0  0  0  0  0  0  0  0  0  0  0  0
  189.2900  176.7010  138.9630 N   0  0  0  0  0  2  0  0  0  0  0  0
  189.8060  178.0380  141.7040 O   0  0  0  0  0  0  0  0  0  0  0  0
  190.5910  176.0580  142.7770 C   0  0  0  0  0  3  0  0  0  0  0  0
  191.7430  176.0860  144.9010 C   0  0  0  0  0  3  0  0  0  0  0  0
  191.2240  175.3770  143.8180 C   0  0  0  0  0  3  0  0  0  0  0  0
  190.9980  178.1710  143.9020 C   0  0  0  0  0  0  0  0  0  0  0  0
  190.4670  177.4520  142.7960 C   0  0  0  0  0  0  0  0  0  0  0  0
  191.6300  177.4770  144.9390 C   0  0  0  0  0  3  0  0  0  0  0  0
  190.9210  179.6530  144.0350 C   0  0  0  0  0  1  0  0  0  0  0  0
  1  5  1  6  0  0  0
  1  2  1  0  0  0  0
  2  3  1  0  0  0  0
  3  4  3  0  0  0  0
  5  6  1  0  0  0  0
  7  6  1  0  0  0  0
  9 14  1  6  0  0  0
  9 10  1  0  0  0  0
  9 12  1  0  0  0  0
 10 11  1  0  0  0  0
 11 13  1  0  0  0  0
 11  7  1  0  0  0  0
 12 13  1  0  0  0  0
 13 15  1  0  0  0  0
 13  8  1  0  0  0  0
 15  8  1  0  0  0  0
 16 18  1  0  0  0  0
 16  9  1  0  0  0  0
 17 16  2  0  0  0  0
 19 27  1  1  0  0  0
 19  1  1  0  0  0  0
 20 22  1  0  0  0  0
 21 26  1  1  0  0  0
 21 20  1  0  0  0  0
 21 22  1  0  0  0  0
 22 19  1  1  0  0  0
 24 23  1  0  0  0  0
 24 26  1  0  0  0  0
 25 24  2  0  0  0  0
 27 32  1  0  0  0  0
 28 32  2  0  0  0  0
 28 30  1  0  0  0  0
 29 33  1  0  0  0  0
 30 29  2  0  0  0  0
 31 34  1  0  0  0  0
 31 33  2  0  0  0  0
 32 31  1  0  0  0  0
M  END
>  <MODEL>
2

>  <REMARK>
 VINA RESULT:      -7.5      3.908      7.307
  Name = 
  12 active torsions:
  status: ('A' for Active; 'I' for Inactive)
    1  A    between atoms: O_1  and  C_20
    2  A    between atoms: O_1  and  C_34
    3  A    between atoms: C_4  and  N_16
    4  A    between atoms: C_4  and  C_31
    5  A    between atoms: C_5  and  C_18
    6  A    between atoms: C_5  and  C_33
    7  A    between atoms: C_5  and  C_34
    8  A    between atoms: C_7  and  C_11
    9  A    between atoms: C_8  and  C_18
   10  A    between atoms: C_23  and  N_27
   11  A    between atoms: C_31  and  C_33
   12  A    between atoms: C_32  and  C_34
                            x       y       z     vdW  Elec       q    Type
                         _______ _______ _______ _____ _____    ______ ____

>  <TORSDO>
F 12

$$$$
=
 OpenBabel10262423203D

 34 37  0  0  1  0  0  0  0  0999 V2000
  189.3640  177.1720  141.5710 C   0  0  2  0  0  3  0  0  0  0  0  0
  190.7240  177.0930  140.8840 C   0  0  0  0  0  2  0  0  0  0  0  0
  190.6070  176.4720  139.5610 C   0  0  0  0  0  0  0  0  0  0  0  0
  190.5120  175.9630  138.4730 C   0  0  0  0  0  3  0  0  0  0  0  0
  188.7210  178.5210  141.2710 C   0  0  0  0  0  2  0  0  0  0  0  0
  188.1740  178.5340  139.8560 C   0  0  0  0  0  2  0  0  0  0  0  0
  186.7030  178.1540  139.8520 C   0  0  0  0  0  2  0  0  0  0  0  0
  187.0510  176.6570  137.2520 C   0  0  0  0  0  2  0  0  0  0  0  0
  183.8060  177.8350  138.4550 C   0  0  2  0  0  0  0  0  0  0  0  0
  184.7020  178.9500  138.9770 C   0  0  0  0  0  2  0  0  0  0  0  0
  186.0640  178.6120  138.6230 N   0  0  0  0  0  0  0  0  0  0  0  0
  184.5890  176.9230  137.7250 O   0  0  0  0  0  0  0  0  0  0  0  0
  185.8740  177.4750  137.7390 C   0  0  0  0  0  0  0  0  0  0  0  0
  182.8360  178.3810  137.6130 O   0  0  0  0  0  1  0  0  0  0  0  0
  186.4230  177.7160  136.3520 C   0  0  0  0  0  2  0  0  0  0  0  0
  183.1430  177.1430  139.6080 C   0  0  0  0  0  0  0  0  0  0  0  0
  182.4650  176.0970  139.4210 O   0  0  0  0  0  0  0  0  0  0  0  0
  183.3220  177.6190  140.9020 O   0  0  0  0  0  1  0  0  0  0  0  0
  189.5130  176.9780  143.0840 C   0  0  1  0  0  3  0  0  0  0  0  0
  191.1900  178.6590  143.4400 O   0  0  0  0  0  0  0  0  0  0  0  0
  190.9570  178.2640  144.7700 C   0  0  1  0  0  3  0  0  0  0  0  0
  189.8620  178.3110  143.7530 C   0  0  2  0  0  3  0  0  0  0  0  0
  192.3340  175.1170  146.4280 N   0  0  0  0  0  1  0  0  0  0  0  0
  191.8350  176.4410  146.2790 C   0  0  0  0  0  0  0  0  0  0  0  0
  191.6980  177.1750  147.2940 O   0  0  0  0  0  0  0  0  0  0  0  0
  191.4950  176.9260  144.9820 N   0  0  0  0  0  2  0  0  0  0  0  0
  188.2920  176.4990  143.6380 O   0  0  0  0  0  0  0  0  0  0  0  0
  186.3180  177.8160  143.3920 C   0  0  0  0  0  3  0  0  0  0  0  0
  185.2330  178.9110  145.2540 C   0  0  0  0  0  3  0  0  0  0  0  0
  185.2910  178.6200  143.8910 C   0  0  0  0  0  3  0  0  0  0  0  0
  187.2350  177.5880  145.6300 C   0  0  0  0  0  0  0  0  0  0  0  0
  187.2990  177.2890  144.2420 C   0  0  0  0  0  0  0  0  0  0  0  0
  186.2010  178.3950  146.1170 C   0  0  0  0  0  3  0  0  0  0  0  0
  188.2230  177.0890  146.6260 C   0  0  0  0  0  1  0  0  0  0  0  0
  1  2  1  6  0  0  0
  1 19  1  0  0  0  0
  3  2  1  0  0  0  0
  4  3  3  0  0  0  0
  5  1  1  0  0  0  0
  6  5  1  0  0  0  0
  7  6  1  0  0  0  0
  8 13  1  0  0  0  0
  9 14  1  6  0  0  0
  9 10  1  0  0  0  0
  9 16  1  0  0  0  0
 11 10  1  0  0  0  0
 11  7  1  0  0  0  0
 12 13  1  0  0  0  0
 12  9  1  0  0  0  0
 13 11  1  0  0  0  0
 15  8  1  0  0  0  0
 15 13  1  0  0  0  0
 16 18  1  0  0  0  0
 17 16  2  0  0  0  0
 19 27  1  1  0  0  0
 20 22  1  0  0  0  0
 20 21  1  0  0  0  0
 21 26  1  6  0  0  0
 22 19  1  6  0  0  0
 22 21  1  0  0  0  0
 24 23  1  0  0  0  0
 24 25  2  0  0  0  0
 26 24  1  0  0  0  0
 27 32  1  0  0  0  0
 28 30  2  0  0  0  0
 28 32  1  0  0  0  0
 29 33  2  0  0  0  0
 30 29  1  0  0  0  0
 31 33  1  0  0  0  0
 31 34  1  0  0  0  0
 32 31  2  0  0  0  0
M  END
>  <MODEL>
3

>  <REMARK>
 VINA RESULT:      -7.3      3.020      5.184
  Name = 
  12 active torsions:
  status: ('A' for Active; 'I' for Inactive)
    1  A    between atoms: O_1  and  C_20
    2  A    between atoms: O_1  and  C_34
    3  A    between atoms: C_4  and  N_16
    4  A    between atoms: C_4  and  C_31
    5  A    between atoms: C_5  and  C_18
    6  A    between atoms: C_5  and  C_33
    7  A    between atoms: C_5  and  C_34
    8  A    between atoms: C_7  and  C_11
    9  A    between atoms: C_8  and  C_18
   10  A    between atoms: C_23  and  N_27
   11  A    between atoms: C_31  and  C_33
   12  A    between atoms: C_32  and  C_34
                            x       y       z     vdW  Elec       q    Type
                         _______ _______ _______ _____ _____    ______ ____

>  <TORSDO>
F 12

$$$$
=
 OpenBabel10262423203D

 34 37  0  0  1  0  0  0  0  0999 V2000
  187.4280  178.2440  142.3790 C   0  0  2  0  0  3  0  0  0  0  0  0
  187.0800  177.0580  143.2730 C   0  0  0  0  0  2  0  0  0  0  0  0
  187.5160  177.2960  144.6520 C   0  0  0  0  0  0  0  0  0  0  0  0
  187.8750  177.4910  145.7860 C   0  0  0  0  0  3  0  0  0  0  0  0
  186.1560  178.7890  141.7390 C   0  0  0  0  0  2  0  0  0  0  0  0
  184.9380  178.2620  142.4740 C   0  0  0  0  0  2  0  0  0  0  0  0
  183.8660  177.8340  141.4840 C   0  0  0  0  0  2  0  0  0  0  0  0
  183.9950  178.7870  138.6210 C   0  0  0  0  0  2  0  0  0  0  0  0
  180.8560  178.3980  140.4540 C   0  0  2  0  0  0  0  0  0  0  0  0
  181.7720  178.8370  141.5890 C   0  0  0  0  0  2  0  0  0  0  0  0
  183.1000  178.9930  141.0360 N   0  0  0  0  0  0  0  0  0  0  0  0
  181.5850  178.3980  139.2520 O   0  0  0  0  0  0  0  0  0  0  0  0
  182.8520  178.8690  139.6100 C   0  0  0  0  0  0  0  0  0  0  0  0
  179.7950  179.3000  140.3460 O   0  0  0  0  0  1  0  0  0  0  0  0
  183.2570  180.1040  138.8390 C   0  0  0  0  0  2  0  0  0  0  0  0
  180.3240  177.0260  140.7400 C   0  0  0  0  0  0  0  0  0  0  0  0
  179.3940  176.8620  141.5760 O   0  0  0  0  0  1  0  0  0  0  0  0
  180.8140  175.9290  140.0410 O   0  0  0  0  0  0  0  0  0  0  0  0
  188.4310  177.8280  141.2980 C   0  0  1  0  0  3  0  0  0  0  0  0
  187.5210  177.7380  139.0780 O   0  0  0  0  0  0  0  0  0  0  0  0
  188.8520  178.0840  138.7800 C   0  0  1  0  0  3  0  0  0  0  0  0
  188.1550  178.5930  140.0010 C   0  0  2  0  0  3  0  0  0  0  0  0
  190.9550  174.9330  138.3320 N   0  0  0  0  0  1  0  0  0  0  0  0
  190.0840  176.0140  138.0220 C   0  0  0  0  0  0  0  0  0  0  0  0
  189.6390  176.1420  136.8510 O   0  0  0  0  0  0  0  0  0  0  0  0
  189.7210  176.9430  139.0420 N   0  0  0  0  0  2  0  0  0  0  0  0
  189.7580  178.1210  141.7230 O   0  0  0  0  0  0  0  0  0  0  0  0
  190.5400  176.1040  142.7280 C   0  0  0  0  0  3  0  0  0  0  0  0
  191.7430  176.0640  144.8240 C   0  0  0  0  0  3  0  0  0  0  0  0
  191.1880  175.3890  143.7360 C   0  0  0  0  0  3  0  0  0  0  0  0
  191.0040  178.1830  143.8950 C   0  0  0  0  0  0  0  0  0  0  0  0
  190.4370  177.4990  142.7850 C   0  0  0  0  0  0  0  0  0  0  0  0
  191.6500  177.4540  144.8990 C   0  0  0  0  0  3  0  0  0  0  0  0
  190.9510  179.6610  144.0660 C   0  0  0  0  0  1  0  0  0  0  0  0
  1  5  1  6  0  0  0
  1  2  1  0  0  0  0
  2  3  1  0  0  0  0
  3  4  3  0  0  0  0
  5  6  1  0  0  0  0
  7  6  1  0  0  0  0
  8 15  1  0  0  0  0
  8 13  1  0  0  0  0
  9 14  1  6  0  0  0
  9 16  1  0  0  0  0
  9 10  1  0  0  0  0
 11  7  1  0  0  0  0
 11 10  1  0  0  0  0
 12 13  1  0  0  0  0
 12  9  1  0  0  0  0
 13 11  1  0  0  0  0
 15 13  1  0  0  0  0
 16 17  1  0  0  0  0
 18 16  2  0  0  0  0
 19 27  1  1  0  0  0
 19  1  1  0  0  0  0
 20 22  1  0  0  0  0
 21 26  1  1  0  0  0
 21 20  1  0  0  0  0
 21 22  1  0  0  0  0
 22 19  1  1  0  0  0
 24 23  1  0  0  0  0
 24 26  1  0  0  0  0
 25 24  2  0  0  0  0
 27 32  1  0  0  0  0
 28 32  2  0  0  0  0
 28 30  1  0  0  0  0
 29 33  1  0  0  0  0
 30 29  2  0  0  0  0
 31 34  1  0  0  0  0
 31 33  2  0  0  0  0
 32 31  1  0  0  0  0
M  END
>  <MODEL>
4

>  <REMARK>
 VINA RESULT:      -7.2      3.952      7.531
  Name = 
  12 active torsions:
  status: ('A' for Active; 'I' for Inactive)
    1  A    between atoms: O_1  and  C_20
    2  A    between atoms: O_1  and  C_34
    3  A    between atoms: C_4  and  N_16
    4  A    between atoms: C_4  and  C_31
    5  A    between atoms: C_5  and  C_18
    6  A    between atoms: C_5  and  C_33
    7  A    between atoms: C_5  and  C_34
    8  A    between atoms: C_7  and  C_11
    9  A    between atoms: C_8  and  C_18
   10  A    between atoms: C_23  and  N_27
   11  A    between atoms: C_31  and  C_33
   12  A    between atoms: C_32  and  C_34
                            x       y       z     vdW  Elec       q    Type
                         _______ _______ _______ _____ _____    ______ ____

>  <TORSDO>
F 12

$$$$
=
 OpenBabel10262423203D

 34 37  0  0  1  0  0  0  0  0999 V2000
  188.1400  178.0570  142.4180 C   0  0  2  0  0  3  0  0  0  0  0  0
  186.6390  178.0530  142.6970 C   0  0  0  0  0  2  0  0  0  0  0  0
  185.8920  178.5850  141.5540 C   0  0  0  0  0  0  0  0  0  0  0  0
  185.2790  179.0230  140.6140 C   0  0  0  0  0  3  0  0  0  0  0  0
  188.4230  177.2570  141.1510 C   0  0  0  0  0  2  0  0  0  0  0  0
  189.7800  177.6380  140.5890 C   0  0  0  0  0  2  0  0  0  0  0  0
  190.3020  176.5410  139.6750 C   0  0  0  0  0  2  0  0  0  0  0  0
  191.5580  174.8120  137.5400 C   0  0  0  0  0  2  0  0  0  0  0  0
  189.0000  177.3240  136.8220 C   0  0  2  0  0  0  0  0  0  0  0  0
  189.7320  178.0110  137.9680 C   0  0  0  0  0  2  0  0  0  0  0  0
  190.7730  177.1120  138.4170 N   0  0  0  0  0  0  0  0  0  0  0  0
  189.6470  176.1100  136.5300 O   0  0  0  0  0  0  0  0  0  0  0  0
  190.7460  176.0810  137.3940 C   0  0  0  0  0  0  0  0  0  0  0  0
  189.0370  178.1450  135.6950 O   0  0  0  0  0  1  0  0  0  0  0  0
  192.0620  175.9530  136.6630 C   0  0  0  0  0  2  0  0  0  0  0  0
  187.5760  177.0710  137.2180 C   0  0  0  0  0  0  0  0  0  0  0  0
  187.1420  175.8920  137.3240 O   0  0  0  0  0  0  0  0  0  0  0  0
  186.7400  178.1370  137.5290 O   0  0  0  0  0  1  0  0  0  0  0  0
  188.9100  177.4660  143.6040 C   0  0  1  0  0  3  0  0  0  0  0  0
  190.7800  178.9430  143.3070 O   0  0  0  0  0  0  0  0  0  0  0  0
  191.2460  178.1780  144.3920 C   0  0  1  0  0  3  0  0  0  0  0  0
  189.8020  178.5370  144.2370 C   0  0  2  0  0  3  0  0  0  0  0  0
  192.2140  174.4880  144.3390 N   0  0  0  0  0  1  0  0  0  0  0  0
  191.9440  175.7920  144.8390 C   0  0  0  0  0  0  0  0  0  0  0  0
  192.0460  176.0230  146.0730 O   0  0  0  0  0  0  0  0  0  0  0  0
  191.5590  176.8280  143.9360 N   0  0  0  0  0  2  0  0  0  0  0  0
  187.9990  176.9930  144.5910 O   0  0  0  0  0  0  0  0  0  0  0  0
  188.9670  177.1060  146.7690 C   0  0  0  0  0  3  0  0  0  0  0  0
  187.9180  178.2670  148.6110 C   0  0  0  0  0  3  0  0  0  0  0  0
  188.9730  177.5080  148.1060 C   0  0  0  0  0  3  0  0  0  0  0  0
  186.8390  178.2290  146.4350 C   0  0  0  0  0  0  0  0  0  0  0  0
  187.9130  177.4550  145.9160 C   0  0  0  0  0  0  0  0  0  0  0  0
  186.8570  178.6240  147.7770 C   0  0  0  0  0  3  0  0  0  0  0  0
  185.6640  178.6540  145.6250 C   0  0  0  0  0  1  0  0  0  0  0  0
  1  5  1  6  0  0  0
  1  2  1  0  0  0  0
  1 19  1  0  0  0  0
  3  2  1  0  0  0  0
  4  3  3  0  0  0  0
  6  5  1  0  0  0  0
  7  6  1  0  0  0  0
  9 14  1  6  0  0  0
  9 16  1  0  0  0  0
  9 10  1  0  0  0  0
 10 11  1  0  0  0  0
 11  7  1  0  0  0  0
 12  9  1  0  0  0  0
 12 13  1  0  0  0  0
 13  8  1  0  0  0  0
 13 11  1  0  0  0  0
 15 13  1  0  0  0  0
 15  8  1  0  0  0  0
 16 17  2  0  0  0  0
 16 18  1  0  0  0  0
 19 27  1  1  0  0  0
 20 22  1  0  0  0  0
 20 21  1  0  0  0  0
 21 26  1  6  0  0  0
 22 19  1  6  0  0  0
 22 21  1  0  0  0  0
 23 24  1  0  0  0  0
 24 25  2  0  0  0  0
 26 24  1  0  0  0  0
 27 32  1  0  0  0  0
 28 30  1  0  0  0  0
 30 29  2  0  0  0  0
 31 33  2  0  0  0  0
 32 31  1  0  0  0  0
 32 28  2  0  0  0  0
 33 29  1  0  0  0  0
 34 31  1  0  0  0  0
M  END
>  <MODEL>
5

>  <REMARK>
 VINA RESULT:      -7.2      1.339      2.507
  Name = 
  12 active torsions:
  status: ('A' for Active; 'I' for Inactive)
    1  A    between atoms: O_1  and  C_20
    2  A    between atoms: O_1  and  C_34
    3  A    between atoms: C_4  and  N_16
    4  A    between atoms: C_4  and  C_31
    5  A    between atoms: C_5  and  C_18
    6  A    between atoms: C_5  and  C_33
    7  A    between atoms: C_5  and  C_34
    8  A    between atoms: C_7  and  C_11
    9  A    between atoms: C_8  and  C_18
   10  A    between atoms: C_23  and  N_27
   11  A    between atoms: C_31  and  C_33
   12  A    between atoms: C_32  and  C_34
                            x       y       z     vdW  Elec       q    Type
                         _______ _______ _______ _____ _____    ______ ____

>  <TORSDO>
F 12

$$$$
=
 OpenBabel10262423203D

 34 37  0  0  1  0  0  0  0  0999 V2000
  185.0440  178.1240  142.8020 C   0  0  2  0  0  3  0  0  0  0  0  0
  184.2600  179.0560  143.7240 C   0  0  0  0  0  2  0  0  0  0  0  0
  184.6050  178.8140  145.1280 C   0  0  0  0  0  0  0  0  0  0  0  0
  184.8890  178.6150  146.2820 C   0  0  0  0  0  3  0  0  0  0  0  0
  186.5340  178.4180  142.9310 C   0  0  0  0  0  2  0  0  0  0  0  0
  187.3070  177.1230  143.1000 C   0  0  0  0  0  2  0  0  0  0  0  0
  187.5790  176.8560  144.5710 C   0  0  0  0  0  2  0  0  0  0  0  0
  188.4690  176.7850  147.4570 C   0  0  0  0  0  2  0  0  0  0  0  0
  190.7870  177.2280  144.6650 C   0  0  2  0  0  0  0  0  0  0  0  0
  189.5710  177.9630  144.1170 C   0  0  0  0  0  2  0  0  0  0  0  0
  188.5150  177.8430  145.1000 N   0  0  0  0  0  0  0  0  0  0  0  0
  190.5030  176.7800  145.9670 O   0  0  0  0  0  0  0  0  0  0  0  0
  189.2180  177.2640  146.2320 C   0  0  0  0  0  0  0  0  0  0  0  0
  191.8730  178.1050  144.7100 O   0  0  0  0  0  1  0  0  0  0  0  0
  189.1650  178.1420  147.4600 C   0  0  0  0  0  2  0  0  0  0  0  0
  191.1130  176.0660  143.7750 C   0  0  0  0  0  0  0  0  0  0  0  0
  190.5420  175.9370  142.6590 O   0  0  0  0  0  0  0  0  0  0  0  0
  192.0930  175.1540  144.1500 O   0  0  0  0  0  1  0  0  0  0  0  0
  184.5910  178.2990  141.3490 C   0  0  1  0  0  3  0  0  0  0  0  0
  182.2600  178.5260  141.8820 O   0  0  0  0  0  0  0  0  0  0  0  0
  182.2040  178.6710  140.4840 C   0  0  1  0  0  3  0  0  0  0  0  0
  183.3490  179.1940  141.2890 C   0  0  2  0  0  3  0  0  0  0  0  0
  181.7670  175.2790  138.7930 N   0  0  0  0  0  1  0  0  0  0  0  0
  181.4370  176.5090  139.4280 C   0  0  0  0  0  0  0  0  0  0  0  0
  180.2290  176.8130  139.6130 O   0  0  0  0  0  0  0  0  0  0  0  0
  182.4800  177.3870  139.8500 N   0  0  0  0  0  2  0  0  0  0  0  0
  185.6250  178.9070  140.5830 O   0  0  0  0  0  0  0  0  0  0  0  0
  185.2080  178.1550  138.3590 C   0  0  0  0  0  3  0  0  0  0  0  0
  186.9670  177.4340  136.8670 C   0  0  0  0  0  3  0  0  0  0  0  0
  185.6140  177.6650  137.1170 C   0  0  0  0  0  3  0  0  0  0  0  0
  187.5170  178.1880  139.1090 C   0  0  0  0  0  0  0  0  0  0  0  0
  186.1400  178.4240  139.3680 C   0  0  0  0  0  0  0  0  0  0  0  0
  187.9120  177.6950  137.8600 C   0  0  0  0  0  3  0  0  0  0  0  0
  188.5970  178.4320  140.1070 C   0  0  0  0  0  1  0  0  0  0  0  0
  1  5  1  6  0  0  0
  1  2  1  0  0  0  0
  2  3  1  0  0  0  0
  3  4  3  0  0  0  0
  5  6  1  0  0  0  0
  6  7  1  0  0  0  0
  7 11  1  0  0  0  0
  8 15  1  0  0  0  0
  9 14  1  1  0  0  0
  9 12  1  0  0  0  0
 10  9  1  0  0  0  0
 10 11  1  0  0  0  0
 11 13  1  0  0  0  0
 12 13  1  0  0  0  0
 13  8  1  0  0  0  0
 13 15  1  0  0  0  0
 16 18  1  0  0  0  0
 16  9  1  0  0  0  0
 17 16  2  0  0  0  0
 19 27  1  6  0  0  0
 19  1  1  0  0  0  0
 21 26  1  6  0  0  0
 21 22  1  0  0  0  0
 21 20  1  0  0  0  0
 22 19  1  6  0  0  0
 22 20  1  0  0  0  0
 23 24  1  0  0  0  0
 24 25  2  0  0  0  0
 24 26  1  0  0  0  0
 28 32  1  0  0  0  0
 29 30  1  0  0  0  0
 29 33  2  0  0  0  0
 30 28  2  0  0  0  0
 31 32  2  0  0  0  0
 31 34  1  0  0  0  0
 32 27  1  0  0  0  0
 33 31  1  0  0  0  0
M  END
>  <MODEL>
6

>  <REMARK>
 VINA RESULT:      -7.2      3.490      8.213
  Name = 
  12 active torsions:
  status: ('A' for Active; 'I' for Inactive)
    1  A    between atoms: O_1  and  C_20
    2  A    between atoms: O_1  and  C_34
    3  A    between atoms: C_4  and  N_16
    4  A    between atoms: C_4  and  C_31
    5  A    between atoms: C_5  and  C_18
    6  A    between atoms: C_5  and  C_33
    7  A    between atoms: C_5  and  C_34
    8  A    between atoms: C_7  and  C_11
    9  A    between atoms: C_8  and  C_18
   10  A    between atoms: C_23  and  N_27
   11  A    between atoms: C_31  and  C_33
   12  A    between atoms: C_32  and  C_34
                            x       y       z     vdW  Elec       q    Type
                         _______ _______ _______ _____ _____    ______ ____

>  <TORSDO>
F 12

$$$$
=
 OpenBabel10262423203D

 34 37  0  0  1  0  0  0  0  0999 V2000
  186.0170  178.4120  142.6360 C   0  0  2  0  0  3  0  0  0  0  0  0
  185.6450  178.2550  144.1080 C   0  0  0  0  0  2  0  0  0  0  0  0
  184.2580  178.6660  144.3450 C   0  0  0  0  0  0  0  0  0  0  0  0
  183.1180  179.0040  144.5400 C   0  0  0  0  0  3  0  0  0  0  0  0
  184.8350  178.0000  141.7660 C   0  0  0  0  0  2  0  0  0  0  0  0
  184.7440  178.9030  140.5500 C   0  0  0  0  0  2  0  0  0  0  0  0
  183.6720  178.4020  139.5970 C   0  0  0  0  0  2  0  0  0  0  0  0
  181.0680  179.3770  140.7770 C   0  0  0  0  0  2  0  0  0  0  0  0
  181.3280  176.3410  138.7570 C   0  0  2  0  0  0  0  0  0  0  0  0
  182.6780  176.3050  139.4630 C   0  0  0  0  0  2  0  0  0  0  0  0
  182.7650  177.4910  140.2890 N   0  0  0  0  0  0  0  0  0  0  0  0
  180.5970  177.4470  139.2250 O   0  0  0  0  0  0  0  0  0  0  0  0
  181.4140  178.0190  140.2050 C   0  0  0  0  0  0  0  0  0  0  0  0
  180.6260  175.1710  139.0500 O   0  0  0  0  0  1  0  0  0  0  0  0
  180.7390  178.1060  141.5530 C   0  0  0  0  0  2  0  0  0  0  0  0
  181.5400  176.4470  137.2760 C   0  0  0  0  0  0  0  0  0  0  0  0
  181.3680  177.5460  136.6840 O   0  0  0  0  0  1  0  0  0  0  0  0
  181.9870  175.3450  136.5570 O   0  0  0  0  0  0  0  0  0  0  0  0
  187.2480  177.5650  142.2990 C   0  0  1  0  0  3  0  0  0  0  0  0
  187.9570  179.4380  140.9730 O   0  0  0  0  0  0  0  0  0  0  0  0
  188.7910  178.4370  140.4430 C   0  0  1  0  0  3  0  0  0  0  0  0
  188.4130  178.4700  141.8890 C   0  0  2  0  0  3  0  0  0  0  0  0
  186.8380  176.8250  137.5890 N   0  0  0  0  0  1  0  0  0  0  0  0
  187.5970  177.7850  138.3150 C   0  0  0  0  0  0  0  0  0  0  0  0
  187.9140  178.8740  137.7690 O   0  0  0  0  0  0  0  0  0  0  0  0
  187.9920  177.5030  139.6570 N   0  0  0  0  0  2  0  0  0  0  0  0
  187.6440  176.8030  143.4340 O   0  0  0  0  0  0  0  0  0  0  0  0
  189.9150  176.1280  143.1580 C   0  0  0  0  0  3  0  0  0  0  0  0
  191.6030  176.4820  144.8520 C   0  0  0  0  0  3  0  0  0  0  0  0
  191.2350  176.0020  143.5940 C   0  0  0  0  0  3  0  0  0  0  0  0
  189.3220  177.2210  145.2450 C   0  0  0  0  0  0  0  0  0  0  0  0
  188.9430  176.7340  143.9640 C   0  0  0  0  0  0  0  0  0  0  0  0
  190.6490  177.0880  145.6700 C   0  0  0  0  0  3  0  0  0  0  0  0
  188.3760  177.8770  146.1890 C   0  0  0  0  0  1  0  0  0  0  0  0
  1  5  1  6  0  0  0
  1  2  1  0  0  0  0
  2  3  1  0  0  0  0
  3  4  3  0  0  0  0
  6  5  1  0  0  0  0
  7 11  1  0  0  0  0
  7  6  1  0  0  0  0
  8 15  1  0  0  0  0
  9 14  1  1  0  0  0
  9 12  1  0  0  0  0
  9 10  1  0  0  0  0
 10 11  1  0  0  0  0
 12 13  1  0  0  0  0
 13 11  1  0  0  0  0
 13  8  1  0  0  0  0
 13 15  1  0  0  0  0
 16  9  1  0  0  0  0
 17 16  1  0  0  0  0
 18 16  2  0  0  0  0
 19  1  1  0  0  0  0
 19 27  1  1  0  0  0
 20 22  1  0  0  0  0
 21 26  1  6  0  0  0
 21 20  1  0  0  0  0
 21 22  1  0  0  0  0
 22 19  1  6  0  0  0
 23 24  1  0  0  0  0
 24 26  1  0  0  0  0
 25 24  2  0  0  0  0
 27 32  1  0  0  0  0
 28 30  2  0  0  0  0
 28 32  1  0  0  0  0
 29 33  2  0  0  0  0
 30 29  1  0  0  0  0
 31 33  1  0  0  0  0
 31 34  1  0  0  0  0
 32 31  2  0  0  0  0
M  END
>  <MODEL>
7

>  <REMARK>
 VINA RESULT:      -7.1      4.324      7.180
  Name = 
  12 active torsions:
  status: ('A' for Active; 'I' for Inactive)
    1  A    between atoms: O_1  and  C_20
    2  A    between atoms: O_1  and  C_34
    3  A    between atoms: C_4  and  N_16
    4  A    between atoms: C_4  and  C_31
    5  A    between atoms: C_5  and  C_18
    6  A    between atoms: C_5  and  C_33
    7  A    between atoms: C_5  and  C_34
    8  A    between atoms: C_7  and  C_11
    9  A    between atoms: C_8  and  C_18
   10  A    between atoms: C_23  and  N_27
   11  A    between atoms: C_31  and  C_33
   12  A    between atoms: C_32  and  C_34
                            x       y       z     vdW  Elec       q    Type
                         _______ _______ _______ _____ _____    ______ ____

>  <TORSDO>
F 12

$$$$
=
 OpenBabel10262423203D

 34 37  0  0  1  0  0  0  0  0999 V2000
  189.5170  177.7950  142.5300 C   0  0  2  0  0  3  0  0  0  0  0  0
  190.1020  179.2040  142.5170 C   0  0  0  0  0  2  0  0  0  0  0  0
  191.0760  179.3770  143.6000 C   0  0  0  0  0  0  0  0  0  0  0  0
  191.8750  179.5180  144.4900 C   0  0  0  0  0  3  0  0  0  0  0  0
  188.9600  177.4640  141.1500 C   0  0  0  0  0  2  0  0  0  0  0  0
  190.0760  176.9860  140.2390 C   0  0  0  0  0  2  0  0  0  0  0  0
  189.8080  177.4110  138.8050 C   0  0  0  0  0  2  0  0  0  0  0  0
  189.0300  177.6550  135.8970 C   0  0  0  0  0  2  0  0  0  0  0  0
  191.9360  175.7490  137.0300 C   0  0  2  0  0  0  0  0  0  0  0  0
  190.9880  175.5040  138.1960 C   0  0  0  0  0  2  0  0  0  0  0  0
  189.7740  176.2440  137.9290 N   0  0  0  0  0  0  0  0  0  0  0  0
  191.2740  176.5160  136.0560 O   0  0  0  0  0  0  0  0  0  0  0  0
  189.9790  176.6790  136.5580 C   0  0  0  0  0  0  0  0  0  0  0  0
  192.3060  174.5230  136.4730 O   0  0  0  0  0  1  0  0  0  0  0  0
  188.9160  176.1600  135.6180 C   0  0  0  0  0  2  0  0  0  0  0  0
  193.1570  176.4700  137.5190 C   0  0  0  0  0  0  0  0  0  0  0  0
  193.2790  176.7630  138.7390 O   0  0  0  0  0  1  0  0  0  0  0  0
  194.1900  176.7670  136.6380 O   0  0  0  0  0  0  0  0  0  0  0  0
  188.4170  177.6780  143.5900 C   0  0  1  0  0  3  0  0  0  0  0  0
  186.3830  178.6140  142.7210 O   0  0  0  0  0  0  0  0  0  0  0  0
  185.8560  177.7670  143.7130 C   0  0  1  0  0  3  0  0  0  0  0  0
  187.0690  177.3990  142.9200 C   0  0  2  0  0  3  0  0  0  0  0  0
  185.5340  179.4110  147.1400 N   0  0  0  0  0  1  0  0  0  0  0  0
  185.1770  178.9230  145.8530 C   0  0  0  0  0  0  0  0  0  0  0  0
  183.9890  179.0370  145.4490 O   0  0  0  0  0  0  0  0  0  0  0  0
  186.1670  178.3080  145.0310 N   0  0  0  0  0  2  0  0  0  0  0  0
  188.7100  176.6080  144.4820 O   0  0  0  0  0  0  0  0  0  0  0  0
  189.2870  177.1260  146.7380 C   0  0  0  0  0  3  0  0  0  0  0  0
  191.4990  176.7590  147.6420 C   0  0  0  0  0  3  0  0  0  0  0  0
  190.1830  177.1930  147.8060 C   0  0  0  0  0  3  0  0  0  0  0  0
  191.0270  176.1830  145.3300 C   0  0  0  0  0  0  0  0  0  0  0  0
  189.6860  176.6250  145.4930 C   0  0  0  0  0  0  0  0  0  0  0  0
  191.9150  176.2570  146.4080 C   0  0  0  0  0  3  0  0  0  0  0  0
  191.5650  175.6370  144.0530 C   0  0  0  0  0  1  0  0  0  0  0  0
  1  5  1  6  0  0  0
  1 19  1  0  0  0  0
  2  1  1  0  0  0  0
  2  3  1  0  0  0  0
  3  4  3  0  0  0  0
  6  5  1  0  0  0  0
  7  6  1  0  0  0  0
  8 13  1  0  0  0  0
  9 14  1  6  0  0  0
  9 16  1  0  0  0  0
  9 10  1  0  0  0  0
 11 10  1  0  0  0  0
 11  7  1  0  0  0  0
 12 13  1  0  0  0  0
 12  9  1  0  0  0  0
 13 11  1  0  0  0  0
 15  8  1  0  0  0  0
 15 13  1  0  0  0  0
 16 17  1  0  0  0  0
 18 16  2  0  0  0  0
 19 27  1  1  0  0  0
 20 22  1  0  0  0  0
 20 21  1  0  0  0  0
 21 26  1  1  0  0  0
 22 19  1  1  0  0  0
 22 21  1  0  0  0  0
 24 23  1  0  0  0  0
 25 24  2  0  0  0  0
 26 24  1  0  0  0  0
 27 32  1  0  0  0  0
 28 30  1  0  0  0  0
 29 30  2  0  0  0  0
 31 32  1  0  0  0  0
 31 33  2  0  0  0  0
 32 28  2  0  0  0  0
 33 29  1  0  0  0  0
 34 31  1  0  0  0  0
M  END
>  <MODEL>
8

>  <REMARK>
 VINA RESULT:      -7.0      2.187      4.001
  Name = 
  12 active torsions:
  status: ('A' for Active; 'I' for Inactive)
    1  A    between atoms: O_1  and  C_20
    2  A    between atoms: O_1  and  C_34
    3  A    between atoms: C_4  and  N_16
    4  A    between atoms: C_4  and  C_31
    5  A    between atoms: C_5  and  C_18
    6  A    between atoms: C_5  and  C_33
    7  A    between atoms: C_5  and  C_34
    8  A    between atoms: C_7  and  C_11
    9  A    between atoms: C_8  and  C_18
   10  A    between atoms: C_23  and  N_27
   11  A    between atoms: C_31  and  C_33
   12  A    between atoms: C_32  and  C_34
                            x       y       z     vdW  Elec       q    Type
                         _______ _______ _______ _____ _____    ______ ____

>  <TORSDO>
F 12

$$$$
=
 OpenBabel10262423203D

 34 37  0  0  1  0  0  0  0  0999 V2000
  186.8190  178.8400  141.3090 C   0  0  2  0  0  3  0  0  0  0  0  0
  185.9450  178.0960  140.3020 C   0  0  0  0  0  2  0  0  0  0  0  0
  184.9780  179.0030  139.6780 C   0  0  0  0  0  0  0  0  0  0  0  0
  184.1820  179.7490  139.1650 C   0  0  0  0  0  3  0  0  0  0  0  0
  188.2860  178.6720  140.9310 C   0  0  0  0  0  2  0  0  0  0  0  0
  188.4150  178.4410  139.4370 C   0  0  0  0  0  2  0  0  0  0  0  0
  189.7910  177.8880  139.1030 C   0  0  0  0  0  2  0  0  0  0  0  0
  188.9810  177.7870  136.1940 C   0  0  0  0  0  2  0  0  0  0  0  0
  191.7790  175.8660  137.5530 C   0  0  2  0  0  0  0  0  0  0  0  0
  190.8370  175.8430  138.7500 C   0  0  0  0  0  2  0  0  0  0  0  0
  189.6670  176.6180  138.3940 N   0  0  0  0  0  0  0  0  0  0  0  0
  191.1500  176.5370  136.4900 O   0  0  0  0  0  0  0  0  0  0  0  0
  189.8770  176.8500  136.9750 C   0  0  0  0  0  0  0  0  0  0  0  0
  192.0610  174.5550  137.1650 O   0  0  0  0  0  1  0  0  0  0  0  0
  188.7680  176.2790  136.1220 C   0  0  0  0  0  2  0  0  0  0  0  0
  193.0510  176.5660  137.9300 C   0  0  0  0  0  0  0  0  0  0  0  0
  193.9560  176.7510  137.0720 O   0  0  0  0  0  0  0  0  0  0  0  0
  193.2140  177.0700  139.2150 O   0  0  0  0  0  1  0  0  0  0  0  0
  186.5710  178.3150  142.7270 C   0  0  1  0  0  3  0  0  0  0  0  0
  184.2800  179.0160  142.9030 O   0  0  0  0  0  0  0  0  0  0  0  0
  184.4180  178.3310  144.1230 C   0  0  1  0  0  3  0  0  0  0  0  0
  185.1110  177.8780  142.8780 C   0  0  2  0  0  3  0  0  0  0  0  0
  186.0560  179.7550  147.2600 N   0  0  0  0  0  1  0  0  0  0  0  0
  185.1740  179.0000  146.4380 C   0  0  0  0  0  0  0  0  0  0  0  0
  184.3110  178.2520  146.9680 O   0  0  0  0  0  0  0  0  0  0  0  0
  185.2770  179.0980  145.0180 N   0  0  0  0  0  2  0  0  0  0  0  0
  187.4090  177.1940  142.9870 O   0  0  0  0  0  0  0  0  0  0  0  0
  188.0540  177.5310  145.2590 C   0  0  0  0  0  3  0  0  0  0  0  0
  190.2900  177.0940  146.0650 C   0  0  0  0  0  3  0  0  0  0  0  0
  188.9810  177.5130  146.3020 C   0  0  0  0  0  3  0  0  0  0  0  0
  189.7490  176.7030  143.7290 C   0  0  0  0  0  0  0  0  0  0  0  0
  188.4140  177.1300  143.9660 C   0  0  0  0  0  0  0  0  0  0  0  0
  190.6690  176.6910  144.7830 C   0  0  0  0  0  3  0  0  0  0  0  0
  190.2480  176.2600  142.3970 C   0  0  0  0  0  1  0  0  0  0  0  0
  1  2  1  6  0  0  0
  1 19  1  0  0  0  0
  3  2  1  0  0  0  0
  4  3  3  0  0  0  0
  5  1  1  0  0  0  0
  6  5  1  0  0  0  0
  7  6  1  0  0  0  0
  8 13  1  0  0  0  0
  9 14  1  6  0  0  0
  9 16  1  0  0  0  0
  9 10  1  0  0  0  0
 11 10  1  0  0  0  0
 11  7  1  0  0  0  0
 12 13  1  0  0  0  0
 12  9  1  0  0  0  0
 13 11  1  0  0  0  0
 15  8  1  0  0  0  0
 15 13  1  0  0  0  0
 16 18  1  0  0  0  0
 17 16  2  0  0  0  0
 19 27  1  6  0  0  0
 20 21  1  0  0  0  0
 21 26  1  1  0  0  0
 22 19  1  1  0  0  0
 22 20  1  0  0  0  0
 22 21  1  0  0  0  0
 24 25  2  0  0  0  0
 24 23  1  0  0  0  0
 26 24  1  0  0  0  0
 27 32  1  0  0  0  0
 28 30  1  0  0  0  0
 29 30  2  0  0  0  0
 31 32  1  0  0  0  0
 31 33  2  0  0  0  0
 32 28  2  0  0  0  0
 33 29  1  0  0  0  0
 34 31  1  0  0  0  0
M  END
>  <MODEL>
9

>  <REMARK>
 VINA RESULT:      -7.0      2.341      3.919
  Name = 
  12 active torsions:
  status: ('A' for Active; 'I' for Inactive)
    1  A    between atoms: O_1  and  C_20
    2  A    between atoms: O_1  and  C_34
    3  A    between atoms: C_4  and  N_16
    4  A    between atoms: C_4  and  C_31
    5  A    between atoms: C_5  and  C_18
    6  A    between atoms: C_5  and  C_33
    7  A    between atoms: C_5  and  C_34
    8  A    between atoms: C_7  and  C_11
    9  A    between atoms: C_8  and  C_18
   10  A    between atoms: C_23  and  N_27
   11  A    between atoms: C_31  and  C_33
   12  A    between atoms: C_32  and  C_34
                            x       y       z     vdW  Elec       q    Type
                         _______ _______ _______ _____ _____    ______ ____

>  <TORSDO>
F 12

$$$$
