=
 OpenBabel10262420493D

 28 33  0  0  1  0  0  0  0  0999 V2000
  187.3410  177.5190  144.3030 C   0  0  0  0  0  0  0  0  0  0  0  0
  188.7010  176.8440  144.3130 C   0  0  1  0  0  3  0  0  0  0  0  0
  188.8040  177.1320  141.8320 C   0  0  2  0  0  3  0  0  0  0  0  0
  186.7010  177.9310  138.1690 C   0  0  0  0  0  2  0  0  0  0  0  0
  183.4350  179.3480  144.3860 C   0  0  0  0  0  1  0  0  0  0  0  0
  190.8510  179.0250  144.6060 C   0  0  0  0  0  2  0  0  0  0  0  0
  189.5820  177.3130  143.1360 C   0  0  1  0  0  3  0  0  0  0  0  0
  190.9050  176.6460  145.6060 C   0  0  0  0  0  2  0  0  0  0  0  0
  189.6820  177.4470  138.1120 C   0  0  0  0  0  2  0  0  0  0  0  0
  186.8840  178.3250  140.6640 C   0  0  0  0  0  0  0  0  0  0  0  0
  189.3970  176.8980  145.6870 C   0  0  0  0  0  2  0  0  0  0  0  0
  187.4380  177.5720  136.8670 C   0  0  2  0  0  0  0  0  0  0  0  0
  187.6310  178.2690  139.3470 C   0  0  1  0  0  3  0  0  0  0  0  0
  189.6490  177.4790  140.6100 C   0  0  0  0  0  2  0  0  0  0  0  0
  188.9140  177.9930  136.8970 C   0  0  0  0  0  2  0  0  0  0  0  0
  185.4950  178.6020  143.1070 C   0  0  0  0  0  0  0  0  0  0  0  0
  187.4740  177.8610  141.8640 C   0  0  0  0  0  0  0  0  0  0  0  0
  188.8100  177.2890  139.3610 C   0  0  2  0  0  3  0  0  0  0  0  0
  185.3390  178.2120  145.4960 C   0  0  0  0  0  3  0  0  0  0  0  0
  184.9500  179.0930  141.9150 C   0  0  0  0  0  3  0  0  0  0  0  0
  184.7850  178.7130  144.3180 C   0  0  0  0  0  0  0  0  0  0  0  0
  191.7110  177.8500  145.0840 C   0  0  0  0  0  2  0  0  0  0  0  0
  186.8100  178.2270  135.8090 O   0  0  0  0  0  1  0  0  0  0  0  0
  187.3360  176.0750  136.6350 C   0  0  0  0  0  1  0  0  0  0  0  0
  185.6410  178.9660  140.7130 C   0  0  0  0  0  3  0  0  0  0  0  0
  186.5990  177.6180  145.4880 C   0  0  0  0  0  3  0  0  0  0  0  0
  186.7730  177.9860  143.0900 C   0  0  0  0  0  0  0  0  0  0  0  0
  190.1250  178.7480  143.2850 C   0  0  0  0  0  2  0  0  0  0  0  0
  1  2  1  0  0  0  0
  1 26  1  0  0  0  0
  2 11  1  1  0  0  0
  3 14  1  6  0  0  0
  3 17  1  0  0  0  0
  3  7  1  0  0  0  0
  6 22  1  0  0  0  0
  7 28  1  1  0  0  0
  7  2  1  0  0  0  0
  8 11  1  0  0  0  0
 10 25  1  0  0  0  0
 10 17  2  0  0  0  0
 12 24  1  6  0  0  0
 12 15  1  0  0  0  0
 12  4  1  0  0  0  0
 13  4  1  6  0  0  0
 13 18  1  0  0  0  0
 13 10  1  0  0  0  0
 15  9  1  0  0  0  0
 16 21  2  0  0  0  0
 17 27  1  0  0  0  0
 18  9  1  6  0  0  0
 18 14  1  0  0  0  0
 20 16  1  0  0  0  0
 21  5  1  0  0  0  0
 21 19  1  0  0  0  0
 22  8  1  0  0  0  0
 23 12  1  0  0  0  0
 25 20  2  0  0  0  0
 26 19  2  0  0  0  0
 27 16  1  0  0  0  0
 27  1  2  0  0  0  0
 28  6  1  0  0  0  0
M  END
>  <MODEL>
1

>  <REMARK>
 VINA RESULT:     -11.6      0.000      0.000
  Name = 
  0 active torsions:
  status: ('A' for Active; 'I' for Inactive)
                            x       y       z     vdW  Elec       q    Type
                         _______ _______ _______ _____ _____    ______ ____

>  <TORSDO>
F 0

$$$$
=
 OpenBabel10262420493D

 28 33  0  0  1  0  0  0  0  0999 V2000
  188.1030  177.0790  144.5590 C   0  0  0  0  0  0  0  0  0  0  0  0
  188.1790  176.6310  143.1110 C   0  0  1  0  0  3  0  0  0  0  0  0
  185.8530  177.4820  142.7790 C   0  0  2  0  0  3  0  0  0  0  0  0
  182.1560  178.7620  144.5590 C   0  0  0  0  0  2  0  0  0  0  0  0
  187.9700  178.2380  148.7120 C   0  0  0  0  0  1  0  0  0  0  0  0
  189.2280  178.9860  141.4320 C   0  0  0  0  0  2  0  0  0  0  0  0
  187.2680  177.4790  142.1990 C   0  0  1  0  0  3  0  0  0  0  0  0
  189.7210  176.4780  141.0690 C   0  0  0  0  0  2  0  0  0  0  0  0
  182.4490  178.7540  141.5530 C   0  0  0  0  0  2  0  0  0  0  0  0
  184.6770  178.6070  144.7350 C   0  0  0  0  0  0  0  0  0  0  0  0
  189.6240  176.4770  142.5960 C   0  0  0  0  0  2  0  0  0  0  0  0
  180.9330  178.8200  143.6260 C   0  0  2  0  0  0  0  0  0  0  0  0
  183.5030  178.9610  143.8450 C   0  0  1  0  0  3  0  0  0  0  0  0
  184.8680  178.2170  141.8750 C   0  0  0  0  0  2  0  0  0  0  0  0
  181.2700  179.4390  142.2620 C   0  0  0  0  0  2  0  0  0  0  0  0
  186.8890  178.1160  146.4200 C   0  0  0  0  0  0  0  0  0  0  0  0
  185.8320  177.9770  144.2120 C   0  0  0  0  0  0  0  0  0  0  0  0
  183.4950  178.1910  142.5190 C   0  0  2  0  0  3  0  0  0  0  0  0
  189.0990  177.1790  146.7750 C   0  0  0  0  0  3  0  0  0  0  0  0
  185.7540  178.7750  146.9050 C   0  0  0  0  0  3  0  0  0  0  0  0
  187.9780  177.8430  147.2720 C   0  0  0  0  0  0  0  0  0  0  0  0
  189.5810  177.8750  140.4360 C   0  0  0  0  0  2  0  0  0  0  0  0
  179.9480  179.5940  144.2360 O   0  0  0  0  0  1  0  0  0  0  0  0
  180.3900  177.4150  143.4330 C   0  0  0  0  0  1  0  0  0  0  0  0
  184.6690  179.0270  146.0690 C   0  0  0  0  0  3  0  0  0  0  0  0
  189.1590  176.7970  145.4370 C   0  0  0  0  0  3  0  0  0  0  0  0
  186.9390  177.7170  145.0590 C   0  0  0  0  0  0  0  0  0  0  0  0
  187.7860  178.9080  141.9410 C   0  0  0  0  0  2  0  0  0  0  0  0
  1 27  2  0  0  0  0
  1 26  1  0  0  0  0
  2 11  1  6  0  0  0
  2  1  1  0  0  0  0
  3 14  1  6  0  0  0
  3 17  1  0  0  0  0
  6 28  1  0  0  0  0
  7 28  1  1  0  0  0
  7  3  1  0  0  0  0
  7  2  1  0  0  0  0
  8 11  1  0  0  0  0
  9 15  1  0  0  0  0
 10 25  1  0  0  0  0
 12 24  1  6  0  0  0
 12 23  1  0  0  0  0
 12  4  1  0  0  0  0
 13  4  1  1  0  0  0
 13 10  1  0  0  0  0
 14 18  1  0  0  0  0
 15 12  1  0  0  0  0
 16 20  1  0  0  0  0
 16 21  2  0  0  0  0
 17 10  2  0  0  0  0
 17 27  1  0  0  0  0
 18  9  1  6  0  0  0
 18 13  1  0  0  0  0
 19 21  1  0  0  0  0
 21  5  1  0  0  0  0
 22  8  1  0  0  0  0
 22  6  1  0  0  0  0
 25 20  2  0  0  0  0
 26 19  2  0  0  0  0
 27 16  1  0  0  0  0
M  END
>  <MODEL>
2

>  <REMARK>
 VINA RESULT:     -10.3      2.918      5.694
  Name = 
  0 active torsions:
  status: ('A' for Active; 'I' for Inactive)
                            x       y       z     vdW  Elec       q    Type
                         _______ _______ _______ _____ _____    ______ ____

>  <TORSDO>
F 0

$$$$
=
 OpenBabel10262420493D

 28 33  0  0  1  0  0  0  0  0999 V2000
  188.8800  177.0230  145.4570 C   0  0  0  0  0  0  0  0  0  0  0  0
  189.5290  176.5390  144.1740 C   0  0  1  0  0  3  0  0  0  0  0  0
  187.5460  177.3850  142.9110 C   0  0  2  0  0  3  0  0  0  0  0  0
  183.4600  178.7160  143.0150 C   0  0  0  0  0  2  0  0  0  0  0  0
  187.0930  178.2850  149.1750 C   0  0  0  0  0  1  0  0  0  0  0  0
  191.1950  178.8490  143.0110 C   0  0  0  0  0  2  0  0  0  0  0  0
  189.0750  177.3650  142.9530 C   0  0  1  0  0  3  0  0  0  0  0  0
  191.7630  176.3320  142.9330 C   0  0  0  0  0  2  0  0  0  0  0  0
  184.9430  178.6330  140.3860 C   0  0  0  0  0  2  0  0  0  0  0  0
  185.6940  178.5610  144.1990 C   0  0  0  0  0  0  0  0  0  0  0  0
  191.0570  176.3690  144.2910 C   0  0  0  0  0  2  0  0  0  0  0  0
  182.7200  178.7530  141.6660 C   0  0  2  0  0  0  0  0  0  0  0  0
  184.9830  178.8950  142.9030 C   0  0  1  0  0  3  0  0  0  0  0  0
  187.0190  178.1000  141.6700 C   0  0  0  0  0  2  0  0  0  0  0  0
  183.5860  179.3380  140.5420 C   0  0  0  0  0  2  0  0  0  0  0  0
  187.0290  178.1070  146.6450 C   0  0  0  0  0  0  0  0  0  0  0  0
  186.9540  177.9160  144.2020 C   0  0  0  0  0  0  0  0  0  0  0  0
  185.5030  178.0920  141.7040 C   0  0  2  0  0  3  0  0  0  0  0  0
  188.8960  177.1760  147.8840 C   0  0  0  0  0  3  0  0  0  0  0  0
  185.8030  178.7810  146.6150 C   0  0  0  0  0  3  0  0  0  0  0  0
  187.6770  177.8540  147.8700 C   0  0  0  0  0  0  0  0  0  0  0  0
  191.9080  177.7130  142.2680 C   0  0  0  0  0  2  0  0  0  0  0  0
  181.5820  179.5450  141.8090 O   0  0  0  0  0  1  0  0  0  0  0  0
  182.2840  177.3450  141.3010 C   0  0  0  0  0  1  0  0  0  0  0  0
  185.1510  179.0140  145.4060 C   0  0  0  0  0  3  0  0  0  0  0  0
  189.4870  176.7600  146.6930 C   0  0  0  0  0  3  0  0  0  0  0  0
  187.6200  177.6750  145.4300 C   0  0  0  0  0  0  0  0  0  0  0  0
  189.6690  178.7870  142.8950 C   0  0  0  0  0  2  0  0  0  0  0  0
  1 26  1  0  0  0  0
  2 11  1  1  0  0  0
  2  1  1  0  0  0  0
  3 14  1  6  0  0  0
  3  7  1  0  0  0  0
  3 17  1  0  0  0  0
  7 28  1  1  0  0  0
  7  2  1  0  0  0  0
  8 11  1  0  0  0  0
  9 15  1  0  0  0  0
 10 17  2  0  0  0  0
 10 25  1  0  0  0  0
 12 24  1  6  0  0  0
 12 23  1  0  0  0  0
 12  4  1  0  0  0  0
 13  4  1  1  0  0  0
 13 10  1  0  0  0  0
 14 18  1  0  0  0  0
 15 12  1  0  0  0  0
 16 21  2  0  0  0  0
 17 27  1  0  0  0  0
 18  9  1  6  0  0  0
 18 13  1  0  0  0  0
 20 16  1  0  0  0  0
 21 19  1  0  0  0  0
 21  5  1  0  0  0  0
 22  8  1  0  0  0  0
 22  6  1  0  0  0  0
 25 20  2  0  0  0  0
 26 19  2  0  0  0  0
 27  1  2  0  0  0  0
 27 16  1  0  0  0  0
 28  6  1  0  0  0  0
M  END
>  <MODEL>
3

>  <REMARK>
 VINA RESULT:      -9.6      2.723      4.312
  Name = 
  0 active torsions:
  status: ('A' for Active; 'I' for Inactive)
                            x       y       z     vdW  Elec       q    Type
                         _______ _______ _______ _____ _____    ______ ____

>  <TORSDO>
F 0

$$$$
=
 OpenBabel10262420493D

 28 33  0  0  1  0  0  0  0  0999 V2000
  188.2920  177.2270  145.0090 C   0  0  0  0  0  0  0  0  0  0  0  0
  189.1860  176.6340  143.9350 C   0  0  1  0  0  3  0  0  0  0  0  0
  187.5590  177.4330  142.2130 C   0  0  2  0  0  3  0  0  0  0  0  0
  183.6040  178.8630  141.3290 C   0  0  0  0  0  2  0  0  0  0  0  0
  185.7900  178.8020  148.1510 C   0  0  0  0  0  1  0  0  0  0  0  0
  191.1540  178.8130  143.0150 C   0  0  0  0  0  2  0  0  0  0  0  0
  189.0400  177.3800  142.5920 C   0  0  1  0  0  3  0  0  0  0  0  0
  191.6260  176.2840  143.2320 C   0  0  0  0  0  2  0  0  0  0  0  0
  185.6190  178.5520  139.1010 C   0  0  0  0  0  2  0  0  0  0  0  0
  185.5180  178.7430  142.9820 C   0  0  0  0  0  0  0  0  0  0  0  0
  190.6430  176.4380  144.3960 C   0  0  0  0  0  2  0  0  0  0  0  0
  183.1760  178.8180  139.8510 C   0  0  2  0  0  0  0  0  0  0  0  0
  185.1210  178.9980  141.5420 C   0  0  1  0  0  3  0  0  0  0  0  0
  187.3430  178.0660  140.8420 C   0  0  0  0  0  2  0  0  0  0  0  0
  184.2890  179.2980  138.9080 C   0  0  0  0  0  2  0  0  0  0  0  0
  186.2710  178.4400  145.6860 C   0  0  0  0  0  0  0  0  0  0  0  0
  186.7210  178.0710  143.3040 C   0  0  0  0  0  0  0  0  0  0  0  0
  185.8560  178.0960  140.5430 C   0  0  2  0  0  3  0  0  0  0  0  0
  187.7860  177.5580  147.3640 C   0  0  0  0  0  3  0  0  0  0  0  0
  185.1090  179.1380  145.3420 C   0  0  0  0  0  3  0  0  0  0  0  0
  186.6270  178.2620  147.0380 C   0  0  0  0  0  0  0  0  0  0  0  0
  191.9660  177.6090  142.5240 C   0  0  0  0  0  2  0  0  0  0  0  0
  182.0660  179.6450  139.6870 O   0  0  0  0  0  1  0  0  0  0  0  0
  182.7760  177.3980  139.4930 C   0  0  0  0  0  1  0  0  0  0  0  0
  184.7450  179.2970  144.0080 C   0  0  0  0  0  3  0  0  0  0  0  0
  188.6060  177.0420  146.3630 C   0  0  0  0  0  3  0  0  0  0  0  0
  187.0950  177.9050  144.6620 C   0  0  0  0  0  0  0  0  0  0  0  0
  189.6880  178.7780  142.5710 C   0  0  0  0  0  2  0  0  0  0  0  0
  1 26  1  0  0  0  0
  2 11  1  1  0  0  0
  2  1  1  0  0  0  0
  3 14  1  6  0  0  0
  3  7  1  0  0  0  0
  3 17  1  0  0  0  0
  7 28  1  1  0  0  0
  7  2  1  0  0  0  0
  8 11  1  0  0  0  0
 10 17  2  0  0  0  0
 10 25  1  0  0  0  0
 12 24  1  6  0  0  0
 12  4  1  0  0  0  0
 13  4  1  1  0  0  0
 13 10  1  0  0  0  0
 15  9  1  0  0  0  0
 15 12  1  0  0  0  0
 16 21  2  0  0  0  0
 17 27  1  0  0  0  0
 18  9  1  6  0  0  0
 18 14  1  0  0  0  0
 18 13  1  0  0  0  0
 20 16  1  0  0  0  0
 21 19  1  0  0  0  0
 21  5  1  0  0  0  0
 22  6  1  0  0  0  0
 22  8  1  0  0  0  0
 23 12  1  0  0  0  0
 25 20  2  0  0  0  0
 26 19  2  0  0  0  0
 27  1  2  0  0  0  0
 27 16  1  0  0  0  0
 28  6  1  0  0  0  0
M  END
>  <MODEL>
4

>  <REMARK>
 VINA RESULT:      -9.1      2.112      3.311
  Name = 
  0 active torsions:
  status: ('A' for Active; 'I' for Inactive)
                            x       y       z     vdW  Elec       q    Type
                         _______ _______ _______ _____ _____    ______ ____

>  <TORSDO>
F 0

$$$$
