=
 OpenBabel10262423223D

 34 39  0  0  0  0  0  0  0  0999 V2000
  188.7380  177.6940  144.1190 C   0  0  0  0  0  0  0  0  0  0  0  0
  191.9000  177.0880  142.4430 C   0  0  0  0  0  2  0  0  0  0  0  0
  190.7600  176.8760  144.6470 C   0  0  0  0  0  0  0  0  0  0  0  0
  187.0050  178.0290  145.8270 N   0  0  0  0  0  0  0  0  0  0  0  0
  187.3120  178.0920  144.3830 C   0  0  0  0  0  2  0  0  0  0  0  0
  189.1800  177.1780  146.4200 C   0  0  0  0  0  0  0  0  0  0  0  0
  190.1180  176.7160  147.2960 N   0  0  0  0  0  0  0  0  0  0  0  0
  187.9570  177.5520  146.8070 C   0  0  0  0  0  3  0  0  0  0  0  0
  191.7060  176.4180  145.5590 C   0  0  0  0  0  3  0  0  0  0  0  0
  189.5260  177.2610  145.0860 C   0  0  0  0  0  0  0  0  0  0  0  0
  191.3410  176.3510  146.8760 N   0  0  0  0  0  0  0  0  0  0  0  0
  191.9020  177.6570  141.0600 C   0  0  0  0  0  2  0  0  0  0  0  0
  190.8690  177.0720  140.1460 C   0  0  0  0  0  0  0  0  0  0  0  0
  189.5510  177.1370  140.3910 C   0  0  0  0  0  3  0  0  0  0  0  0
  190.8120  177.1020  143.2070 C   0  0  0  0  0  0  0  0  0  0  0  0
  188.8910  177.5580  141.6420 C   0  0  0  0  0  2  0  0  0  0  0  0
  189.4650  177.5780  142.8490 C   0  0  0  0  0  0  0  0  0  0  0  0
  191.3450  176.5580  138.8260 C   0  0  0  0  0  3  0  0  0  0  0  0
  192.7370  176.6250  138.7530 O   0  0  0  0  0  1  0  0  0  0  0  0
  190.9250  175.2410  138.6330 O   0  0  0  0  0  1  0  0  0  0  0  0
  185.7070  178.4960  146.2850 C   0  0  0  0  0  2  0  0  0  0  0  0
  182.5110  178.9100  144.2910 C   0  0  0  0  0  3  0  0  0  0  0  0
  185.2400  178.4610  143.8250 C   0  0  0  0  0  3  0  0  0  0  0  0
  182.5640  178.7010  140.5910 C   0  0  0  0  0  0  0  0  0  0  0  0
  182.0940  178.8460  141.9040 C   0  0  0  0  0  3  0  0  0  0  0  0
  182.9800  178.7680  142.9820 C   0  0  0  0  0  0  0  0  0  0  0  0
  184.8230  178.3950  141.4410 C   0  0  0  0  0  3  0  0  0  0  0  0
  184.3550  178.5410  142.7480 C   0  0  0  0  0  0  0  0  0  0  0  0
  183.9300  178.4750  140.3660 C   0  0  0  0  0  3  0  0  0  0  0  0
  184.7660  178.6120  145.1340 C   0  0  0  0  0  0  0  0  0  0  0  0
  183.4020  178.8290  145.3650 C   0  0  0  0  0  3  0  0  0  0  0  0
  181.6260  178.7840  139.4600 C   0  0  0  0  0  0  0  0  0  0  0  0
  180.3910  178.6070  139.6420 O   0  0  0  0  0  1  0  0  0  0  0  0
  182.0930  179.0570  138.1800 O   0  0  0  0  0  0  0  0  0  0  0  0
  1  5  1  0  0  0  0
  1 10  2  0  0  0  0
  2 15  1  0  0  0  0
  3 10  1  0  0  0  0
  3  9  2  0  0  0  0
  4 21  1  0  0  0  0
  4  8  1  0  0  0  0
  5  4  1  0  0  0  0
  6  8  2  0  0  0  0
  6  7  1  0  0  0  0
  9 11  1  0  0  0  0
 10  6  1  0  0  0  0
 11  7  2  0  0  0  0
 12  2  1  0  0  0  0
 13 14  2  0  0  0  0
 13 12  1  0  0  0  0
 14 16  1  0  0  0  0
 15  3  1  0  0  0  0
 16 17  1  0  0  0  0
 17 15  2  0  0  0  0
 17  1  1  0  0  0  0
 18 13  1  0  0  0  0
 19 18  1  0  0  0  0
 20 18  1  0  0  0  0
 22 31  1  0  0  0  0
 23 30  1  0  0  0  0
 24 25  2  0  0  0  0
 25 26  1  0  0  0  0
 26 22  2  0  0  0  0
 27 28  1  0  0  0  0
 28 26  1  0  0  0  0
 28 23  2  0  0  0  0
 29 24  1  0  0  0  0
 29 27  2  0  0  0  0
 30 31  2  0  0  0  0
 30 21  1  0  0  0  0
 32 33  1  0  0  0  0
 32 24  1  0  0  0  0
 34 32  2  0  0  0  0
M  END
>  <MODEL>
1

>  <REMARK>
 VINA RESULT:     -11.5      0.000      0.000
  Name = 
  4 active torsions:
  status: ('A' for Active; 'I' for Inactive)
    1  A    between atoms: C_3  and  C_25
    2  A    between atoms: C_7  and  C_11
    3  A    between atoms: N_8  and  C_18
    4  A    between atoms: C_18  and  C_30
                            x       y       z     vdW  Elec       q    Type
                         _______ _______ _______ _____ _____    ______ ____

>  <TORSDO>
F 4

$$$$
=
 OpenBabel10262423223D

 34 39  0  0  0  0  0  0  0  0999 V2000
  187.3970  178.1050  143.9310 C   0  0  0  0  0  0  0  0  0  0  0  0
  188.4610  177.8200  147.3900 C   0  0  0  0  0  2  0  0  0  0  0  0
  186.4390  178.0920  145.9610 C   0  0  0  0  0  0  0  0  0  0  0  0
  186.0860  178.5380  141.8990 N   0  0  0  0  0  0  0  0  0  0  0  0
  187.4170  178.1740  142.4290 C   0  0  0  0  0  2  0  0  0  0  0  0
  185.0450  178.5580  144.0720 C   0  0  0  0  0  0  0  0  0  0  0  0
  183.9880  178.6970  144.9230 N   0  0  0  0  0  0  0  0  0  0  0  0
  184.9270  178.7020  142.7490 C   0  0  0  0  0  3  0  0  0  0  0  0
  185.3500  178.2480  146.8130 C   0  0  0  0  0  3  0  0  0  0  0  0
  186.2790  178.2610  144.6160 C   0  0  0  0  0  0  0  0  0  0  0  0
  184.1390  178.5480  146.2490 N   0  0  0  0  0  0  0  0  0  0  0  0
  189.9510  177.8520  147.5060 C   0  0  0  0  0  2  0  0  0  0  0  0
  190.6540  176.7340  146.7990 C   0  0  0  0  0  0  0  0  0  0  0  0
  190.5580  176.5260  145.4760 C   0  0  0  0  0  3  0  0  0  0  0  0
  187.8490  177.8080  146.2100 C   0  0  0  0  0  0  0  0  0  0  0  0
  189.6160  177.1640  144.5350 C   0  0  0  0  0  2  0  0  0  0  0  0
  188.4660  177.7530  144.8740 C   0  0  0  0  0  0  0  0  0  0  0  0
  191.6380  175.9390  147.5950 C   0  0  0  0  0  3  0  0  0  0  0  0
  192.4510  175.1860  146.7480 O   0  0  0  0  0  1  0  0  0  0  0  0
  192.4270  176.7820  148.3800 O   0  0  0  0  0  1  0  0  0  0  0  0
  185.9440  178.7700  140.4710 C   0  0  0  0  0  2  0  0  0  0  0  0
  188.1290  177.3300  137.7300 C   0  0  0  0  0  3  0  0  0  0  0  0
  188.3640  178.1300  140.4080 C   0  0  0  0  0  3  0  0  0  0  0  0
  191.7010  176.5800  138.3730 C   0  0  0  0  0  0  0  0  0  0  0  0
  190.4690  176.6990  137.7140 C   0  0  0  0  0  3  0  0  0  0  0  0
  189.3580  177.2140  138.3860 C   0  0  0  0  0  0  0  0  0  0  0  0
  190.7020  177.4960  140.3930 C   0  0  0  0  0  3  0  0  0  0  0  0
  189.4760  177.6160  139.7360 C   0  0  0  0  0  0  0  0  0  0  0  0
  191.8100  176.9800  139.7130 C   0  0  0  0  0  3  0  0  0  0  0  0
  187.1380  178.2510  139.7440 C   0  0  0  0  0  0  0  0  0  0  0  0
  187.0210  177.8460  138.4090 C   0  0  0  0  0  3  0  0  0  0  0  0
  192.8680  176.0360  137.6600 C   0  0  0  0  0  0  0  0  0  0  0  0
  193.7410  176.8090  137.1820 O   0  0  0  0  0  0  0  0  0  0  0  0
  193.0170  174.6630  137.5040 O   0  0  0  0  0  1  0  0  0  0  0  0
  1 10  2  0  0  0  0
  1 17  1  0  0  0  0
  2 12  1  0  0  0  0
  3 15  1  0  0  0  0
  3  9  2  0  0  0  0
  4  5  1  0  0  0  0
  4  8  1  0  0  0  0
  5  1  1  0  0  0  0
  6 10  1  0  0  0  0
  6  7  1  0  0  0  0
  7 11  2  0  0  0  0
  8  6  2  0  0  0  0
 10  3  1  0  0  0  0
 11  9  1  0  0  0  0
 13 12  1  0  0  0  0
 13 18  1  0  0  0  0
 14 13  2  0  0  0  0
 15  2  1  0  0  0  0
 16 17  1  0  0  0  0
 16 14  1  0  0  0  0
 17 15  2  0  0  0  0
 18 20  1  0  0  0  0
 19 18  1  0  0  0  0
 21  4  1  0  0  0  0
 22 26  2  0  0  0  0
 22 31  1  0  0  0  0
 24 29  1  0  0  0  0
 25 24  2  0  0  0  0
 25 26  1  0  0  0  0
 26 28  1  0  0  0  0
 28 27  1  0  0  0  0
 28 23  2  0  0  0  0
 29 27  2  0  0  0  0
 30 23  1  0  0  0  0
 30 21  1  0  0  0  0
 31 30  2  0  0  0  0
 32 24  1  0  0  0  0
 33 32  2  0  0  0  0
 34 32  1  0  0  0  0
M  END
>  <MODEL>
2

>  <REMARK>
 VINA RESULT:     -11.4      3.906      7.209
  Name = 
  4 active torsions:
  status: ('A' for Active; 'I' for Inactive)
    1  A    between atoms: C_3  and  C_25
    2  A    between atoms: C_7  and  C_11
    3  A    between atoms: N_8  and  C_18
    4  A    between atoms: C_18  and  C_30
                            x       y       z     vdW  Elec       q    Type
                         _______ _______ _______ _____ _____    ______ ____

>  <TORSDO>
F 4

$$$$
=
 OpenBabel10262423223D

 34 39  0  0  0  0  0  0  0  0999 V2000
  189.0010  177.9120  142.9080 C   0  0  0  0  0  0  0  0  0  0  0  0
  188.8890  177.6000  146.5220 C   0  0  0  0  0  2  0  0  0  0  0  0
  187.4350  177.7530  144.5070 C   0  0  0  0  0  0  0  0  0  0  0  0
  188.3990  178.3040  140.5590 N   0  0  0  0  0  0  0  0  0  0  0  0
  189.5080  178.0330  141.4970 C   0  0  0  0  0  2  0  0  0  0  0  0
  186.7030  178.1650  142.2650 C   0  0  0  0  0  0  0  0  0  0  0  0
  185.4170  178.1880  142.7200 N   0  0  0  0  0  0  0  0  0  0  0  0
  187.0140  178.3430  140.9780 C   0  0  0  0  0  3  0  0  0  0  0  0
  186.1170  177.7900  144.9520 C   0  0  0  0  0  3  0  0  0  0  0  0
  187.7110  177.9530  143.1850 C   0  0  0  0  0  0  0  0  0  0  0  0
  185.1370  178.0080  144.0210 N   0  0  0  0  0  0  0  0  0  0  0  0
  190.2500  177.7500  147.1240 C   0  0  0  0  0  2  0  0  0  0  0  0
  191.2420  176.7180  146.6840 C   0  0  0  0  0  0  0  0  0  0  0  0
  191.6050  176.5470  145.4040 C   0  0  0  0  0  3  0  0  0  0  0  0
  188.7030  177.5780  145.2060 C   0  0  0  0  0  0  0  0  0  0  0  0
  190.9720  177.1370  144.2070 C   0  0  0  0  0  2  0  0  0  0  0  0
  189.7270  177.6170  144.1490 C   0  0  0  0  0  0  0  0  0  0  0  0
  191.9760  175.9810  147.7580 C   0  0  0  0  0  3  0  0  0  0  0  0
  192.9320  175.1340  147.1960 O   0  0  0  0  0  1  0  0  0  0  0  0
  192.5940  176.8760  148.6320 O   0  0  0  0  0  1  0  0  0  0  0  0
  188.7140  178.5710  139.1650 C   0  0  0  0  0  2  0  0  0  0  0  0
  189.3170  175.2580  137.4270 C   0  0  0  0  0  3  0  0  0  0  0  0
  190.8080  177.3100  138.6250 C   0  0  0  0  0  3  0  0  0  0  0  0
  192.7620  173.9600  136.9990 C   0  0  0  0  0  0  0  0  0  0  0  0
  191.3640  174.0540  136.9430 C   0  0  0  0  0  3  0  0  0  0  0  0
  190.7110  175.1660  137.4800 C   0  0  0  0  0  0  0  0  0  0  0  0
  192.8530  176.1050  138.1430 C   0  0  0  0  0  3  0  0  0  0  0  0
  191.4620  176.1990  138.0850 C   0  0  0  0  0  0  0  0  0  0  0  0
  193.5010  174.9890  137.6020 C   0  0  0  0  0  3  0  0  0  0  0  0
  189.4130  177.4010  138.5610 C   0  0  0  0  0  0  0  0  0  0  0  0
  188.6690  176.3730  137.9680 C   0  0  0  0  0  3  0  0  0  0  0  0
  193.4440  172.7870  136.4300 C   0  0  0  0  0  0  0  0  0  0  0  0
  194.6960  172.6710  136.5180 O   0  0  0  0  0  1  0  0  0  0  0  0
  192.7130  171.7940  135.7880 O   0  0  0  0  0  0  0  0  0  0  0  0
  1 10  2  0  0  0  0
  1 17  1  0  0  0  0
  2 12  1  0  0  0  0
  3  9  2  0  0  0  0
  3 15  1  0  0  0  0
  4  8  1  0  0  0  0
  4  5  1  0  0  0  0
  5  1  1  0  0  0  0
  6  7  1  0  0  0  0
  6 10  1  0  0  0  0
  7 11  2  0  0  0  0
  8  6  2  0  0  0  0
 10  3  1  0  0  0  0
 11  9  1  0  0  0  0
 13 12  1  0  0  0  0
 13 18  1  0  0  0  0
 14 13  2  0  0  0  0
 15  2  1  0  0  0  0
 16 14  1  0  0  0  0
 17 16  1  0  0  0  0
 17 15  2  0  0  0  0
 18 20  1  0  0  0  0
 19 18  1  0  0  0  0
 21  4  1  0  0  0  0
 22 26  2  0  0  0  0
 22 31  1  0  0  0  0
 24 29  1  0  0  0  0
 25 24  2  0  0  0  0
 25 26  1  0  0  0  0
 26 28  1  0  0  0  0
 28 27  1  0  0  0  0
 28 23  2  0  0  0  0
 29 27  2  0  0  0  0
 30 23  1  0  0  0  0
 30 21  1  0  0  0  0
 31 30  2  0  0  0  0
 32 33  1  0  0  0  0
 32 24  1  0  0  0  0
 34 32  2  0  0  0  0
M  END
>  <MODEL>
3

>  <REMARK>
 VINA RESULT:     -11.3      4.488      8.230
  Name = 
  4 active torsions:
  status: ('A' for Active; 'I' for Inactive)
    1  A    between atoms: C_3  and  C_25
    2  A    between atoms: C_7  and  C_11
    3  A    between atoms: N_8  and  C_18
    4  A    between atoms: C_18  and  C_30
                            x       y       z     vdW  Elec       q    Type
                         _______ _______ _______ _____ _____    ______ ____

>  <TORSDO>
F 4

$$$$
=
 OpenBabel10262423223D

 34 39  0  0  0  0  0  0  0  0999 V2000
  188.1550  177.7650  141.4560 C   0  0  0  0  0  0  0  0  0  0  0  0
  188.2020  177.2870  145.0530 C   0  0  0  0  0  2  0  0  0  0  0  0
  189.6930  177.5610  143.0780 C   0  0  0  0  0  0  0  0  0  0  0  0
  188.7990  177.8860  139.0880 N   0  0  0  0  0  0  0  0  0  0  0  0
  187.6740  177.9570  140.0440 C   0  0  0  0  0  2  0  0  0  0  0  0
  190.4640  177.6360  140.8120 C   0  0  0  0  0  0  0  0  0  0  0  0
  191.7410  177.5030  141.2720 N   0  0  0  0  0  0  0  0  0  0  0  0
  190.1750  177.7430  139.5120 C   0  0  0  0  0  3  0  0  0  0  0  0
  191.0020  177.4150  143.5260 C   0  0  0  0  0  3  0  0  0  0  0  0
  189.4400  177.6530  141.7390 C   0  0  0  0  0  0  0  0  0  0  0  0
  191.9980  177.3950  142.5870 N   0  0  0  0  0  0  0  0  0  0  0  0
  186.8300  177.0230  145.5850 C   0  0  0  0  0  2  0  0  0  0  0  0
  185.8510  178.1350  145.3630 C   0  0  0  0  0  0  0  0  0  0  0  0
  185.5130  178.5820  144.1440 C   0  0  0  0  0  3  0  0  0  0  0  0
  188.4130  177.5920  143.7770 C   0  0  0  0  0  0  0  0  0  0  0  0
  186.1650  178.2600  142.8580 C   0  0  0  0  0  2  0  0  0  0  0  0
  187.4080  177.7910  142.7190 C   0  0  0  0  0  0  0  0  0  0  0  0
  185.1020  178.6290  146.5580 C   0  0  0  0  0  3  0  0  0  0  0  0
  185.7660  179.7140  147.1310 O   0  0  0  0  0  1  0  0  0  0  0  0
  183.8050  179.0030  146.2030 O   0  0  0  0  0  1  0  0  0  0  0  0
  188.5080  177.9290  137.6640 C   0  0  0  0  0  2  0  0  0  0  0  0
  184.9980  176.8210  136.7630 C   0  0  0  0  0  3  0  0  0  0  0  0
  187.4670  175.6650  137.4200 C   0  0  0  0  0  3  0  0  0  0  0  0
  184.1420  173.2170  136.6220 C   0  0  0  0  0  0  0  0  0  0  0  0
  184.0190  174.6130  136.5590 C   0  0  0  0  0  3  0  0  0  0  0  0
  185.1220  175.4300  136.8230 C   0  0  0  0  0  0  0  0  0  0  0  0
  186.4880  173.4590  137.2190 C   0  0  0  0  0  3  0  0  0  0  0  0
  186.3660  174.8480  137.1550 C   0  0  0  0  0  0  0  0  0  0  0  0
  185.3810  172.6470  136.9530 C   0  0  0  0  0  3  0  0  0  0  0  0
  187.3400  177.0570  137.3510 C   0  0  0  0  0  0  0  0  0  0  0  0
  186.1040  177.6330  137.0290 C   0  0  0  0  0  3  0  0  0  0  0  0
  182.9770  172.3630  136.3430 C   0  0  0  0  0  0  0  0  0  0  0  0
  182.0400  172.7810  135.6120 O   0  0  0  0  0  0  0  0  0  0  0  0
  182.8990  171.0850  136.8860 O   0  0  0  0  0  1  0  0  0  0  0  0
  1 10  2  0  0  0  0
  1 17  1  0  0  0  0
  2 12  1  0  0  0  0
  3  9  2  0  0  0  0
  3 15  1  0  0  0  0
  4  8  1  0  0  0  0
  4  5  1  0  0  0  0
  5  1  1  0  0  0  0
  6  7  1  0  0  0  0
  6 10  1  0  0  0  0
  7 11  2  0  0  0  0
  8  6  2  0  0  0  0
 10  3  1  0  0  0  0
 11  9  1  0  0  0  0
 13 12  1  0  0  0  0
 13 18  1  0  0  0  0
 14 13  2  0  0  0  0
 15  2  1  0  0  0  0
 16 14  1  0  0  0  0
 17 16  1  0  0  0  0
 17 15  2  0  0  0  0
 18 19  1  0  0  0  0
 20 18  1  0  0  0  0
 21  4  1  0  0  0  0
 22 26  2  0  0  0  0
 22 31  1  0  0  0  0
 24 29  1  0  0  0  0
 25 24  2  0  0  0  0
 25 26  1  0  0  0  0
 26 28  1  0  0  0  0
 28 27  1  0  0  0  0
 28 23  2  0  0  0  0
 29 27  2  0  0  0  0
 30 23  1  0  0  0  0
 30 21  1  0  0  0  0
 31 30  2  0  0  0  0
 32 24  1  0  0  0  0
 32 34  1  0  0  0  0
 33 32  2  0  0  0  0
M  END
>  <MODEL>
4

>  <REMARK>
 VINA RESULT:     -11.2      4.533      6.839
  Name = 
  4 active torsions:
  status: ('A' for Active; 'I' for Inactive)
    1  A    between atoms: C_3  and  C_25
    2  A    between atoms: C_7  and  C_11
    3  A    between atoms: N_8  and  C_18
    4  A    between atoms: C_18  and  C_30
                            x       y       z     vdW  Elec       q    Type
                         _______ _______ _______ _____ _____    ______ ____

>  <TORSDO>
F 4

$$$$
=
 OpenBabel10262423223D

 34 39  0  0  0  0  0  0  0  0999 V2000
  185.1760  178.6360  142.2680 C   0  0  0  0  0  0  0  0  0  0  0  0
  184.9070  178.6480  145.8880 C   0  0  0  0  0  2  0  0  0  0  0  0
  183.5410  178.6280  143.8060 C   0  0  0  0  0  0  0  0  0  0  0  0
  184.6780  178.8200  139.8690 N   0  0  0  0  0  0  0  0  0  0  0  0
  185.7430  178.6280  140.8750 C   0  0  0  0  0  2  0  0  0  0  0  0
  182.9090  178.8430  141.5060 C   0  0  0  0  0  0  0  0  0  0  0  0
  181.6060  178.9140  141.9010 N   0  0  0  0  0  0  0  0  0  0  0  0
  183.2770  178.9050  140.2240 C   0  0  0  0  0  3  0  0  0  0  0  0
  182.2060  178.7120  144.1880 C   0  0  0  0  0  3  0  0  0  0  0  0
  183.8750  178.7080  142.4840 C   0  0  0  0  0  0  0  0  0  0  0  0
  181.2680  178.8520  143.2000 N   0  0  0  0  0  0  0  0  0  0  0  0
  186.2420  178.8430  146.5320 C   0  0  0  0  0  2  0  0  0  0  0  0
  187.2430  177.7710  146.2290 C   0  0  0  0  0  0  0  0  0  0  0  0
  187.6580  177.4840  144.9850 C   0  0  0  0  0  3  0  0  0  0  0  0
  184.7770  178.5090  144.5720 C   0  0  0  0  0  0  0  0  0  0  0  0
  187.0830  177.9680  143.7140 C   0  0  0  0  0  2  0  0  0  0  0  0
  185.8460  178.4490  143.5610 C   0  0  0  0  0  0  0  0  0  0  0  0
  187.9230  177.1280  147.3940 C   0  0  0  0  0  3  0  0  0  0  0  0
  189.2300  176.7720  147.0560 O   0  0  0  0  0  1  0  0  0  0  0  0
  187.9380  177.9920  148.4900 O   0  0  0  0  0  1  0  0  0  0  0  0
  185.0540  178.9610  138.4730 C   0  0  0  0  0  2  0  0  0  0  0  0
  186.7370  175.8160  137.1910 C   0  0  0  0  0  3  0  0  0  0  0  0
  187.4450  178.2180  138.4540 C   0  0  0  0  0  3  0  0  0  0  0  0
  190.4000  175.3690  137.5390 C   0  0  0  0  0  0  0  0  0  0  0  0
  189.0590  175.1210  137.2130 C   0  0  0  0  0  3  0  0  0  0  0  0
  188.0740  176.0660  137.5140 C   0  0  0  0  0  0  0  0  0  0  0  0
  189.7650  177.5220  138.4780 C   0  0  0  0  0  3  0  0  0  0  0  0
  188.4300  177.2750  138.1510 C   0  0  0  0  0  0  0  0  0  0  0  0
  190.7460  176.5720  138.1720 C   0  0  0  0  0  3  0  0  0  0  0  0
  186.1090  177.9670  138.1210 C   0  0  0  0  0  0  0  0  0  0  0  0
  185.7560  176.7650  137.4960 C   0  0  0  0  0  3  0  0  0  0  0  0
  191.4320  174.3710  137.2190 C   0  0  0  0  0  0  0  0  0  0  0  0
  191.1560  173.3790  136.4920 O   0  0  0  0  0  0  0  0  0  0  0  0
  192.7220  174.5110  137.7170 O   0  0  0  0  0  1  0  0  0  0  0  0
  1 10  2  0  0  0  0
  1 17  1  0  0  0  0
  2 12  1  0  0  0  0
  3  9  2  0  0  0  0
  3 15  1  0  0  0  0
  4  8  1  0  0  0  0
  4  5  1  0  0  0  0
  5  1  1  0  0  0  0
  6  7  1  0  0  0  0
  6 10  1  0  0  0  0
  7 11  2  0  0  0  0
  8  6  2  0  0  0  0
 10  3  1  0  0  0  0
 11  9  1  0  0  0  0
 13 12  1  0  0  0  0
 13 18  1  0  0  0  0
 14 13  2  0  0  0  0
 15  2  1  0  0  0  0
 16 14  1  0  0  0  0
 17 16  1  0  0  0  0
 17 15  2  0  0  0  0
 18 20  1  0  0  0  0
 19 18  1  0  0  0  0
 21  4  1  0  0  0  0
 22 31  2  0  0  0  0
 22 26  1  0  0  0  0
 24 29  1  0  0  0  0
 25 26  1  0  0  0  0
 25 24  2  0  0  0  0
 26 28  2  0  0  0  0
 28 23  1  0  0  0  0
 28 27  1  0  0  0  0
 29 27  2  0  0  0  0
 30 23  2  0  0  0  0
 30 21  1  0  0  0  0
 31 30  1  0  0  0  0
 32 24  1  0  0  0  0
 32 34  1  0  0  0  0
 33 32  2  0  0  0  0
M  END
>  <MODEL>
5

>  <REMARK>
 VINA RESULT:     -11.2      4.228      8.108
  Name = 
  4 active torsions:
  status: ('A' for Active; 'I' for Inactive)
    1  A    between atoms: C_3  and  C_25
    2  A    between atoms: C_7  and  C_11
    3  A    between atoms: N_8  and  C_18
    4  A    between atoms: C_18  and  C_30
                            x       y       z     vdW  Elec       q    Type
                         _______ _______ _______ _____ _____    ______ ____

>  <TORSDO>
F 4

$$$$
=
 OpenBabel10262423223D

 34 39  0  0  0  0  0  0  0  0999 V2000
  186.2530  178.3080  142.9300 C   0  0  0  0  0  0  0  0  0  0  0  0
  188.2590  177.8520  145.9210 C   0  0  0  0  0  2  0  0  0  0  0  0
  185.9220  178.2330  145.1490 C   0  0  0  0  0  0  0  0  0  0  0  0
  184.4290  178.8590  141.3810 N   0  0  0  0  0  0  0  0  0  0  0  0
  185.8420  178.4400  141.4900 C   0  0  0  0  0  2  0  0  0  0  0  0
  184.0590  178.8130  143.7610 C   0  0  0  0  0  0  0  0  0  0  0  0
  183.2990  178.9420  144.8860 N   0  0  0  0  0  0  0  0  0  0  0  0
  183.5700  179.0160  142.5350 C   0  0  0  0  0  3  0  0  0  0  0  0
  185.1310  178.3810  146.2840 C   0  0  0  0  0  3  0  0  0  0  0  0
  185.3870  178.4630  143.9140 C   0  0  0  0  0  0  0  0  0  0  0  0
  183.8210  178.7340  146.1060 N   0  0  0  0  0  0  0  0  0  0  0  0
  189.7190  177.8410  145.6010 C   0  0  0  0  0  2  0  0  0  0  0  0
  190.1470  176.7370  144.6840 C   0  0  0  0  0  0  0  0  0  0  0  0
  189.6660  176.5870  143.4400 C   0  0  0  0  0  3  0  0  0  0  0  0
  187.3320  177.9050  144.9690 C   0  0  0  0  0  0  0  0  0  0  0  0
  188.5160  177.2870  142.8340 C   0  0  0  0  0  2  0  0  0  0  0  0
  187.5350  177.8900  143.5110 C   0  0  0  0  0  0  0  0  0  0  0  0
  191.2900  175.8850  145.1350 C   0  0  0  0  0  3  0  0  0  0  0  0
  192.0520  175.4790  144.0390 O   0  0  0  0  0  1  0  0  0  0  0  0
  192.0950  176.5830  146.0370 O   0  0  0  0  0  1  0  0  0  0  0  0
  183.8890  179.1550  140.0640 C   0  0  0  0  0  2  0  0  0  0  0  0
  183.5280  176.1990  137.7200 C   0  0  0  0  0  3  0  0  0  0  0  0
  182.1820  177.3310  139.9050 C   0  0  0  0  0  3  0  0  0  0  0  0
  180.6610  173.8740  138.0560 C   0  0  0  0  0  0  0  0  0  0  0  0
  181.8420  174.4630  137.5820 C   0  0  0  0  0  3  0  0  0  0  0  0
  182.3520  175.6110  138.1940 C   0  0  0  0  0  0  0  0  0  0  0  0
  180.4960  175.5970  139.7650 C   0  0  0  0  0  3  0  0  0  0  0  0
  181.6730  176.1820  139.2950 C   0  0  0  0  0  0  0  0  0  0  0  0
  179.9930  174.4470  139.1480 C   0  0  0  0  0  3  0  0  0  0  0  0
  183.3640  177.9110  139.4310 C   0  0  0  0  0  0  0  0  0  0  0  0
  184.0320  177.3490  138.3360 C   0  0  0  0  0  3  0  0  0  0  0  0
  180.1300  172.6650  137.4070 C   0  0  0  0  0  0  0  0  0  0  0  0
  180.4900  171.5210  137.7950 O   0  0  0  0  0  1  0  0  0  0  0  0
  179.2270  172.7730  136.3560 O   0  0  0  0  0  0  0  0  0  0  0  0
  1 17  1  0  0  0  0
  1 10  2  0  0  0  0
  3  9  2  0  0  0  0
  4  5  1  0  0  0  0
  4  8  1  0  0  0  0
  5  1  1  0  0  0  0
  6 10  1  0  0  0  0
  6  7  1  0  0  0  0
  7 11  2  0  0  0  0
  8  6  2  0  0  0  0
 10  3  1  0  0  0  0
 11  9  1  0  0  0  0
 12  2  1  0  0  0  0
 13 18  1  0  0  0  0
 13 12  1  0  0  0  0
 14 13  2  0  0  0  0
 15  3  1  0  0  0  0
 15  2  1  0  0  0  0
 16 14  1  0  0  0  0
 16 17  1  0  0  0  0
 17 15  2  0  0  0  0
 18 20  1  0  0  0  0
 19 18  1  0  0  0  0
 21  4  1  0  0  0  0
 22 26  2  0  0  0  0
 22 31  1  0  0  0  0
 24 29  1  0  0  0  0
 25 24  2  0  0  0  0
 25 26  1  0  0  0  0
 26 28  1  0  0  0  0
 28 27  1  0  0  0  0
 28 23  2  0  0  0  0
 29 27  2  0  0  0  0
 30 23  1  0  0  0  0
 30 21  1  0  0  0  0
 31 30  2  0  0  0  0
 32 33  1  0  0  0  0
 32 24  1  0  0  0  0
 34 32  2  0  0  0  0
M  END
>  <MODEL>
6

>  <REMARK>
 VINA RESULT:     -11.1      3.500      5.724
  Name = 
  4 active torsions:
  status: ('A' for Active; 'I' for Inactive)
    1  A    between atoms: C_3  and  C_25
    2  A    between atoms: C_7  and  C_11
    3  A    between atoms: N_8  and  C_18
    4  A    between atoms: C_18  and  C_30
                            x       y       z     vdW  Elec       q    Type
                         _______ _______ _______ _____ _____    ______ ____

>  <TORSDO>
F 4

$$$$
=
 OpenBabel10262423223D

 34 39  0  0  0  0  0  0  0  0999 V2000
  186.1640  178.2750  142.9670 C   0  0  0  0  0  0  0  0  0  0  0  0
  188.2760  177.8770  145.8930 C   0  0  0  0  0  2  0  0  0  0  0  0
  185.9140  178.2480  145.1980 C   0  0  0  0  0  0  0  0  0  0  0  0
  184.2860  178.7980  141.4730 N   0  0  0  0  0  0  0  0  0  0  0  0
  185.7010  178.3780  141.5400 C   0  0  0  0  0  2  0  0  0  0  0  0
  184.0030  178.8030  143.8660 C   0  0  0  0  0  0  0  0  0  0  0  0
  183.2840  178.9580  145.0140 N   0  0  0  0  0  0  0  0  0  0  0  0
  183.4700  178.9810  142.6540 C   0  0  0  0  0  3  0  0  0  0  0  0
  185.1650  178.4210  146.3570 C   0  0  0  0  0  3  0  0  0  0  0  0
  185.3340  178.4530  143.9780 C   0  0  0  0  0  0  0  0  0  0  0  0
  183.8490  178.7740  146.2190 N   0  0  0  0  0  0  0  0  0  0  0  0
  189.7240  177.8560  145.5200 C   0  0  0  0  0  2  0  0  0  0  0  0
  190.1170  176.7310  144.6120 C   0  0  0  0  0  0  0  0  0  0  0  0
  189.5910  176.5560  143.3900 C   0  0  0  0  0  3  0  0  0  0  0  0
  187.3160  177.9120  144.9740 C   0  0  0  0  0  0  0  0  0  0  0  0
  188.4210  177.2470  142.8110 C   0  0  0  0  0  2  0  0  0  0  0  0
  187.4660  177.8660  143.5100 C   0  0  0  0  0  0  0  0  0  0  0  0
  191.2740  175.8860  145.0390 C   0  0  0  0  0  3  0  0  0  0  0  0
  192.0630  175.5540  143.9380 O   0  0  0  0  0  1  0  0  0  0  0  0
  192.0460  176.5570  145.9880 O   0  0  0  0  0  1  0  0  0  0  0  0
  183.7000  179.0670  140.1710 C   0  0  0  0  0  2  0  0  0  0  0  0
  182.5320  175.6190  139.1190 C   0  0  0  0  0  3  0  0  0  0  0  0
  184.3610  177.5710  138.2750 C   0  0  0  0  0  3  0  0  0  0  0  0
  184.0140  173.9550  136.1570 C   0  0  0  0  0  0  0  0  0  0  0  0
  183.2150  174.1880  137.2860 C   0  0  0  0  0  3  0  0  0  0  0  0
  183.3260  175.3880  137.9920 C   0  0  0  0  0  0  0  0  0  0  0  0
  185.0450  176.1390  136.4450 C   0  0  0  0  0  3  0  0  0  0  0  0
  184.2490  176.3720  137.5680 C   0  0  0  0  0  0  0  0  0  0  0  0
  184.9280  174.9350  135.7430 C   0  0  0  0  0  3  0  0  0  0  0  0
  183.5570  177.8000  139.3980 C   0  0  0  0  0  0  0  0  0  0  0  0
  182.6490  176.8220  139.8220 C   0  0  0  0  0  3  0  0  0  0  0  0
  183.8910  172.6880  135.4180 C   0  0  0  0  0  0  0  0  0  0  0  0
  182.9220  172.4970  134.6350 O   0  0  0  0  0  0  0  0  0  0  0  0
  184.8450  171.6890  135.5770 O   0  0  0  0  0  1  0  0  0  0  0  0
  1 17  1  0  0  0  0
  1 10  2  0  0  0  0
  3  9  2  0  0  0  0
  4  5  1  0  0  0  0
  4  8  1  0  0  0  0
  5  1  1  0  0  0  0
  6 10  1  0  0  0  0
  6  7  1  0  0  0  0
  7 11  2  0  0  0  0
  8  6  2  0  0  0  0
 10  3  1  0  0  0  0
 11  9  1  0  0  0  0
 12  2  1  0  0  0  0
 13 18  1  0  0  0  0
 13 12  1  0  0  0  0
 14 13  2  0  0  0  0
 15  3  1  0  0  0  0
 15  2  1  0  0  0  0
 16 14  1  0  0  0  0
 16 17  1  0  0  0  0
 17 15  2  0  0  0  0
 18 20  1  0  0  0  0
 19 18  1  0  0  0  0
 21  4  1  0  0  0  0
 22 31  1  0  0  0  0
 23 30  1  0  0  0  0
 24 25  2  0  0  0  0
 25 26  1  0  0  0  0
 26 22  2  0  0  0  0
 27 28  1  0  0  0  0
 28 26  1  0  0  0  0
 28 23  2  0  0  0  0
 29 24  1  0  0  0  0
 29 27  2  0  0  0  0
 30 31  2  0  0  0  0
 30 21  1  0  0  0  0
 32 34  1  0  0  0  0
 32 24  1  0  0  0  0
 33 32  2  0  0  0  0
M  END
>  <MODEL>
7

>  <REMARK>
 VINA RESULT:     -11.1      3.811      5.843
  Name = 
  4 active torsions:
  status: ('A' for Active; 'I' for Inactive)
    1  A    between atoms: C_3  and  C_25
    2  A    between atoms: C_7  and  C_11
    3  A    between atoms: N_8  and  C_18
    4  A    between atoms: C_18  and  C_30
                            x       y       z     vdW  Elec       q    Type
                         _______ _______ _______ _____ _____    ______ ____

>  <TORSDO>
F 4

$$$$
=
 OpenBabel10262423223D

 34 39  0  0  0  0  0  0  0  0999 V2000
  185.2560  178.4830  141.6710 C   0  0  0  0  0  0  0  0  0  0  0  0
  185.8610  177.8450  138.1490 C   0  0  0  0  0  2  0  0  0  0  0  0
  184.0880  178.5380  139.7550 C   0  0  0  0  0  0  0  0  0  0  0  0
  184.1720  178.8610  143.8430 N   0  0  0  0  0  0  0  0  0  0  0  0
  185.4600  178.6360  143.1530 C   0  0  0  0  0  2  0  0  0  0  0  0
  182.8950  178.8950  141.8000 C   0  0  0  0  0  0  0  0  0  0  0  0
  181.7470  179.0220  141.0740 N   0  0  0  0  0  0  0  0  0  0  0  0
  182.9200  179.0020  143.1310 C   0  0  0  0  0  3  0  0  0  0  0  0
  182.9040  178.6610  139.0340 C   0  0  0  0  0  3  0  0  0  0  0  0
  184.0680  178.6410  141.1160 C   0  0  0  0  0  0  0  0  0  0  0  0
  181.7540  178.9070  139.7360 N   0  0  0  0  0  0  0  0  0  0  0  0
  187.2190  177.2590  137.9270 C   0  0  0  0  0  2  0  0  0  0  0  0
  188.3530  178.1400  138.3540 C   0  0  0  0  0  0  0  0  0  0  0  0
  188.5190  178.5630  139.6170 C   0  0  0  0  0  3  0  0  0  0  0  0
  185.4600  178.2530  139.3490 C   0  0  0  0  0  0  0  0  0  0  0  0
  187.5560  178.4570  140.7310 C   0  0  0  0  0  2  0  0  0  0  0  0
  186.2390  178.2800  140.5990 C   0  0  0  0  0  0  0  0  0  0  0  0
  189.4290  178.3970  137.3490 C   0  0  0  0  0  3  0  0  0  0  0  0
  190.4850  177.5040  137.5320 O   0  0  0  0  0  1  0  0  0  0  0  0
  188.9260  178.2750  136.0520 O   0  0  0  0  0  1  0  0  0  0  0  0
  184.1590  178.9110  145.2950 C   0  0  0  0  0  2  0  0  0  0  0  0
  187.0040  178.2590  147.7130 C   0  0  0  0  0  3  0  0  0  0  0  0
  186.4650  177.9910  144.9730 C   0  0  0  0  0  3  0  0  0  0  0  0
  190.2240  176.8840  146.4980 C   0  0  0  0  0  0  0  0  0  0  0  0
  189.2380  177.3880  147.3580 C   0  0  0  0  0  3  0  0  0  0  0  0
  187.9860  177.7550  146.8560 C   0  0  0  0  0  0  0  0  0  0  0  0
  188.6980  177.1220  144.6190 C   0  0  0  0  0  3  0  0  0  0  0  0
  187.7150  177.6210  145.4750 C   0  0  0  0  0  0  0  0  0  0  0  0
  189.9480  176.7550  145.1290 C   0  0  0  0  0  3  0  0  0  0  0  0
  185.4820  178.4880  145.8370 C   0  0  0  0  0  0  0  0  0  0  0  0
  185.7550  178.6270  147.2040 C   0  0  0  0  0  3  0  0  0  0  0  0
  191.5400  176.4990  147.0340 C   0  0  0  0  0  0  0  0  0  0  0  0
  192.2150  175.5930  146.4760 O   0  0  0  0  0  0  0  0  0  0  0  0
  192.0490  177.1290  148.1630 O   0  0  0  0  0  1  0  0  0  0  0  0
  1  5  1  0  0  0  0
  2 15  1  0  0  0  0
  3 10  1  0  0  0  0
  4 21  1  0  0  0  0
  5  4  1  0  0  0  0
  6  8  2  0  0  0  0
  7  6  1  0  0  0  0
  8  4  1  0  0  0  0
  9 11  1  0  0  0  0
  9  3  2  0  0  0  0
 10  1  2  0  0  0  0
 10  6  1  0  0  0  0
 11  7  2  0  0  0  0
 12  2  1  0  0  0  0
 12 13  1  0  0  0  0
 13 14  2  0  0  0  0
 14 16  1  0  0  0  0
 15  3  1  0  0  0  0
 15 17  2  0  0  0  0
 17 16  1  0  0  0  0
 17  1  1  0  0  0  0
 18 19  1  0  0  0  0
 18 13  1  0  0  0  0
 20 18  1  0  0  0  0
 21 30  1  0  0  0  0
 23 28  2  0  0  0  0
 23 30  1  0  0  0  0
 24 32  1  0  0  0  0
 24 25  2  0  0  0  0
 26 25  1  0  0  0  0
 26 22  2  0  0  0  0
 27 29  2  0  0  0  0
 27 28  1  0  0  0  0
 28 26  1  0  0  0  0
 29 24  1  0  0  0  0
 30 31  2  0  0  0  0
 31 22  1  0  0  0  0
 32 34  1  0  0  0  0
 33 32  2  0  0  0  0
M  END
>  <MODEL>
8

>  <REMARK>
 VINA RESULT:     -11.1      3.307      7.252
  Name = 
  4 active torsions:
  status: ('A' for Active; 'I' for Inactive)
    1  A    between atoms: C_3  and  C_25
    2  A    between atoms: C_7  and  C_11
    3  A    between atoms: N_8  and  C_18
    4  A    between atoms: C_18  and  C_30
                            x       y       z     vdW  Elec       q    Type
                         _______ _______ _______ _____ _____    ______ ____

>  <TORSDO>
F 4

$$$$
=
 OpenBabel10262423223D

 34 39  0  0  0  0  0  0  0  0999 V2000
  185.0030  178.3150  143.1210 C   0  0  0  0  0  0  0  0  0  0  0  0
  188.3580  177.4870  144.2300 C   0  0  0  0  0  2  0  0  0  0  0  0
  187.0660  178.2470  142.2410 C   0  0  0  0  0  0  0  0  0  0  0  0
  183.0340  178.8010  141.7340 N   0  0  0  0  0  0  0  0  0  0  0  0
  183.5180  178.5550  143.1090 C   0  0  0  0  0  2  0  0  0  0  0  0
  185.2380  178.7030  140.7640 C   0  0  0  0  0  0  0  0  0  0  0  0
  186.1270  178.7730  139.7320 N   0  0  0  0  0  0  0  0  0  0  0  0
  183.9250  178.8850  140.5970 C   0  0  0  0  0  3  0  0  0  0  0  0
  187.9550  178.3120  141.1730 C   0  0  0  0  0  3  0  0  0  0  0  0
  185.7300  178.4260  142.0250 C   0  0  0  0  0  0  0  0  0  0  0  0
  187.4410  178.5820  139.9330 N   0  0  0  0  0  0  0  0  0  0  0  0
  188.3490  176.9090  145.6090 C   0  0  0  0  0  2  0  0  0  0  0  0
  187.8150  177.8270  146.6650 C   0  0  0  0  0  0  0  0  0  0  0  0
  186.5690  178.3240  146.6450 C   0  0  0  0  0  3  0  0  0  0  0  0
  187.2540  177.9570  143.6590 C   0  0  0  0  0  0  0  0  0  0  0  0
  185.5990  178.2680  145.5330 C   0  0  0  0  0  2  0  0  0  0  0  0
  185.9090  178.0660  144.2490 C   0  0  0  0  0  0  0  0  0  0  0  0
  188.6690  178.0410  147.8730 C   0  0  0  0  0  3  0  0  0  0  0  0
  187.9750  177.6770  149.0280 O   0  0  0  0  0  1  0  0  0  0  0  0
  189.8480  177.3000  147.7770 O   0  0  0  0  0  1  0  0  0  0  0  0
  181.6040  178.9330  141.5120 C   0  0  0  0  0  2  0  0  0  0  0  0
  179.3550  176.0790  140.4350 C   0  0  0  0  0  3  0  0  0  0  0  0
  181.8680  177.1410  139.7840 C   0  0  0  0  0  3  0  0  0  0  0  0
  180.4340  173.7380  137.7730 C   0  0  0  0  0  0  0  0  0  0  0  0
  179.6570  174.3450  138.7700 C   0  0  0  0  0  3  0  0  0  0  0  0
  180.1290  175.4770  139.4400 C   0  0  0  0  0  0  0  0  0  0  0  0
  182.1700  175.4050  138.1210 C   0  0  0  0  0  3  0  0  0  0  0  0
  181.3960  176.0110  139.1120 C   0  0  0  0  0  0  0  0  0  0  0  0
  181.6910  174.2730  137.4540 C   0  0  0  0  0  3  0  0  0  0  0  0
  181.0860  177.7460  140.7740 C   0  0  0  0  0  0  0  0  0  0  0  0
  179.8340  177.2110  141.1030 C   0  0  0  0  0  3  0  0  0  0  0  0
  179.9310  172.5460  137.0710 C   0  0  0  0  0  0  0  0  0  0  0  0
  180.0890  171.3990  137.5680 O   0  0  0  0  0  1  0  0  0  0  0  0
  179.2770  172.6750  135.8510 O   0  0  0  0  0  0  0  0  0  0  0  0
  1 17  1  0  0  0  0
  2 12  1  0  0  0  0
  3 15  1  0  0  0  0
  4  5  1  0  0  0  0
  5  1  1  0  0  0  0
  6 10  1  0  0  0  0
  7 11  2  0  0  0  0
  7  6  1  0  0  0  0
  8  6  2  0  0  0  0
  8  4  1  0  0  0  0
  9  3  2  0  0  0  0
 10  3  1  0  0  0  0
 10  1  2  0  0  0  0
 11  9  1  0  0  0  0
 12 13  1  0  0  0  0
 13 18  1  0  0  0  0
 14 13  2  0  0  0  0
 15  2  1  0  0  0  0
 15 17  2  0  0  0  0
 16 14  1  0  0  0  0
 17 16  1  0  0  0  0
 18 19  1  0  0  0  0
 20 18  1  0  0  0  0
 21  4  1  0  0  0  0
 22 31  1  0  0  0  0
 23 30  1  0  0  0  0
 24 25  2  0  0  0  0
 25 26  1  0  0  0  0
 26 22  2  0  0  0  0
 27 28  1  0  0  0  0
 28 26  1  0  0  0  0
 28 23  2  0  0  0  0
 29 24  1  0  0  0  0
 29 27  2  0  0  0  0
 30 31  2  0  0  0  0
 30 21  1  0  0  0  0
 32 33  1  0  0  0  0
 32 24  1  0  0  0  0
 34 32  2  0  0  0  0
M  END
>  <MODEL>
9

>  <REMARK>
 VINA RESULT:     -11.0      4.303      6.495
  Name = 
  4 active torsions:
  status: ('A' for Active; 'I' for Inactive)
    1  A    between atoms: C_3  and  C_25
    2  A    between atoms: C_7  and  C_11
    3  A    between atoms: N_8  and  C_18
    4  A    between atoms: C_18  and  C_30
                            x       y       z     vdW  Elec       q    Type
                         _______ _______ _______ _____ _____    ______ ____

>  <TORSDO>
F 4

$$$$
