=
 OpenBabel10262423353D

 34 38  0  0  1  0  0  0  0  0999 V2000
  188.9560  177.2920  138.6310 C   0  0  1  0  0  0  0  0  0  0  0  0
  190.1240  173.3210  136.2700 O   0  0  0  0  0  0  0  0  0  0  0  0
  188.1880  175.7160  137.0430 C   0  0  1  0  0  3  0  0  0  0  0  0
  189.5120  178.5860  138.6540 O   0  0  0  0  0  1  0  0  0  0  0  0
  188.0610  177.1150  137.4660 N   0  0  2  0  0  0  0  0  0  0  0  0
  190.3030  174.4910  136.7030 C   0  0  0  0  0  0  0  0  0  0  0  0
  191.3960  175.2960  136.2460 N   0  0  0  0  0  0  0  0  0  0  0  0
  191.3550  176.6280  136.5160 O   0  0  0  0  0  0  0  0  0  0  0  0
  189.3840  175.0770  137.7300 C   0  0  1  0  0  3  0  0  0  0  0  0
  191.3780  176.7210  137.9170 C   0  0  0  0  0  2  0  0  0  0  0  0
  190.0440  176.2100  138.5240 C   0  0  1  0  0  3  0  0  0  0  0  0
  192.4880  174.7360  135.4530 C   0  0  0  0  0  3  0  0  0  0  0  0
  193.6700  175.6900  135.4440 C   0  0  0  0  0  2  0  0  0  0  0  0
  193.6920  174.4730  136.3400 C   0  0  0  0  0  2  0  0  0  0  0  0
  187.3590  177.9550  135.2800 C   0  0  0  0  0  2  0  0  0  0  0  0
  188.4650  177.9380  136.3230 C   0  0  0  0  0  3  0  0  0  0  0  0
  187.5380  179.1350  136.2060 C   0  0  0  0  0  2  0  0  0  0  0  0
  186.9030  174.9390  137.3130 C   0  0  0  0  0  2  0  0  0  0  0  0
  186.4580  174.2870  136.1620 O   0  0  0  0  0  1  0  0  0  0  0  0
  188.1730  177.0950  139.7980 O   0  0  0  0  0  0  0  0  0  0  0  0
  188.7640  177.7420  140.9010 C   0  0  2  0  0  3  0  0  0  0  0  0
  189.1710  176.5010  142.1710 S   0  0  0  0  0  0  0  0  0  0  0  0
  188.6220  177.5560  143.5550 C   0  0  1  0  0  3  0  0  0  0  0  0
  186.6170  177.7670  145.0130 C   0  0  0  0  0  2  0  0  0  0  0  0
  187.4090  177.0090  144.2550 C   0  0  0  0  0  3  0  0  0  0  0  0
  189.7650  177.9120  144.5080 C   0  0  0  0  0  2  0  0  0  0  0  0
  191.7310  176.5710  144.6850 O   0  0  0  0  0  0  0  0  0  0  0  0
  191.5510  177.1000  145.9750 C   0  0  1  0  0  3  0  0  0  0  0  0
  190.4050  176.6860  145.1400 C   0  0  1  0  0  3  0  0  0  0  0  0
  192.4190  176.6060  148.1310 O   0  0  0  0  0  1  0  0  0  0  0  0
  191.8510  176.0250  146.9980 C   0  0  0  0  0  2  0  0  0  0  0  0
  187.7870  178.7490  141.4840 C   0  0  0  0  0  2  0  0  0  0  0  0
  185.3480  179.0540  141.7400 C   0  0  0  0  0  1  0  0  0  0  0  0
  186.4470  178.6430  140.7850 C   0  0  0  0  0  2  0  0  0  0  0  0
  1  4  1  6  0  0  0
  1 20  1  0  0  0  0
  2  6  2  0  0  0  0
  3 18  1  1  0  0  0
  3  5  1  0  0  0  0
  3  9  1  0  0  0  0
  5 16  1  6  0  0  0
  5  1  1  0  0  0  0
  7  8  1  0  0  0  0
  7  6  1  0  0  0  0
  8 10  1  0  0  0  0
  9  6  1  6  0  0  0
  9 11  1  0  0  0  0
 11 10  1  6  0  0  0
 11  1  1  0  0  0  0
 12  7  1  0  0  0  0
 12 14  1  0  0  0  0
 13 12  1  0  0  0  0
 13 14  1  0  0  0  0
 15 17  1  0  0  0  0
 15 16  1  0  0  0  0
 17 16  1  0  0  0  0
 19 18  1  0  0  0  0
 20 21  1  0  0  0  0
 21 32  1  1  0  0  0
 21 22  1  0  0  0  0
 22 23  1  0  0  0  0
 23 25  1  1  0  0  0
 23 26  1  0  0  0  0
 25 24  2  0  0  0  0
 27 29  1  0  0  0  0
 27 28  1  0  0  0  0
 28 31  1  1  0  0  0
 29 26  1  6  0  0  0
 29 28  1  0  0  0  0
 31 30  1  0  0  0  0
 34 32  1  0  0  0  0
 34 33  1  0  0  0  0
M  END
>  <MODEL>
1

>  <REMARK>
 VINA RESULT:      -5.7      0.000      0.000
  Name = 
  13 active torsions:
  status: ('A' for Active; 'I' for Inactive)
    1  A    between atoms: C_1  and  O_8
    2  A    between atoms: C_3  and  N_25
    3  A    between atoms: C_5  and  C_19
    4  A    between atoms: S_6  and  C_18
    5  A    between atoms: S_6  and  C_28
    6  A    between atoms: O_8  and  C_18
    7  A    between atoms: C_11  and  C_21
    8  A    between atoms: C_12  and  N_20
    9  A    between atoms: C_16  and  C_28
   10  A    between atoms: C_18  and  C_30
   11  A    between atoms: C_26  and  C_28
   12  A    between atoms: C_26  and  C_29
   13  A    between atoms: C_30  and  C_31
                            x       y       z     vdW  Elec       q    Type
                         _______ _______ _______ _____ _____    ______ ____

>  <TORSDO>
F 13

$$$$
=
 OpenBabel10262423353D

 34 38  0  0  1  0  0  0  0  0999 V2000
  190.5110  176.6480  139.3760 C   0  0  1  0  0  0  0  0  0  0  0  0
  191.5180  173.8110  135.6810 O   0  0  0  0  0  0  0  0  0  0  0  0
  189.6360  175.7180  137.3840 C   0  0  1  0  0  3  0  0  0  0  0  0
  191.0630  177.8640  139.8210 O   0  0  0  0  0  1  0  0  0  0  0  0
  189.5350  176.8710  138.2850 N   0  0  2  0  0  0  0  0  0  0  0  0
  191.7250  174.7550  136.4900 C   0  0  0  0  0  0  0  0  0  0  0  0
  192.7790  175.7010  136.2790 N   0  0  0  0  0  0  0  0  0  0  0  0
  192.7530  176.8480  137.0080 O   0  0  0  0  0  0  0  0  0  0  0  0
  190.8800  174.9110  137.7170 C   0  0  1  0  0  3  0  0  0  0  0  0
  192.8770  176.4370  138.3460 C   0  0  0  0  0  2  0  0  0  0  0  0
  191.5920  175.7060  138.8180 C   0  0  1  0  0  3  0  0  0  0  0  0
  193.8130  175.4920  135.2680 C   0  0  0  0  0  3  0  0  0  0  0  0
  194.9180  176.5200  135.4300 C   0  0  0  0  0  2  0  0  0  0  0  0
  195.1230  175.1120  135.9360 C   0  0  0  0  0  2  0  0  0  0  0  0
  188.6720  178.4170  136.6010 C   0  0  0  0  0  2  0  0  0  0  0  0
  189.8530  178.0580  137.4870 C   0  0  0  0  0  3  0  0  0  0  0  0
  188.9210  179.1940  137.8730 C   0  0  0  0  0  2  0  0  0  0  0  0
  188.3760  174.8590  137.4440 C   0  0  0  0  0  2  0  0  0  0  0  0
  187.2360  175.6500  137.6000 O   0  0  0  0  0  1  0  0  0  0  0  0
  189.8150  176.0260  140.4440 O   0  0  0  0  0  0  0  0  0  0  0  0
  189.8700  176.8300  141.6000 C   0  0  2  0  0  3  0  0  0  0  0  0
  190.3840  175.8040  143.0150 S   0  0  0  0  0  0  0  0  0  0  0  0
  191.4920  177.0830  143.6990 C   0  0  1  0  0  3  0  0  0  0  0  0
  191.0630  179.5180  143.9760 C   0  0  0  0  0  2  0  0  0  0  0  0
  191.1800  178.4580  143.1760 C   0  0  0  0  0  3  0  0  0  0  0  0
  191.5870  177.0190  145.2240 C   0  0  0  0  0  2  0  0  0  0  0  0
  190.5450  176.1700  147.1950 O   0  0  0  0  0  0  0  0  0  0  0  0
  189.9910  177.4520  147.0320 C   0  0  1  0  0  3  0  0  0  0  0  0
  190.2860  176.5800  145.8750 C   0  0  1  0  0  3  0  0  0  0  0  0
  188.2760  178.0030  148.5810 O   0  0  0  0  0  1  0  0  0  0  0  0
  188.5110  177.3970  147.3480 C   0  0  0  0  0  2  0  0  0  0  0  0
  188.4960  177.4130  141.8810 C   0  0  0  0  0  2  0  0  0  0  0  0
  187.1030  177.6850  143.9050 C   0  0  0  0  0  1  0  0  0  0  0  0
  187.8470  176.6880  143.0430 C   0  0  0  0  0  2  0  0  0  0  0  0
  1  4  1  1  0  0  0
  1 20  1  0  0  0  0
  2  6  2  0  0  0  0
  3 18  1  1  0  0  0
  3  9  1  0  0  0  0
  3  5  1  0  0  0  0
  5 16  1  6  0  0  0
  5  1  1  0  0  0  0
  7  6  1  0  0  0  0
  7  8  1  0  0  0  0
  8 10  1  0  0  0  0
  9  6  1  6  0  0  0
  9 11  1  0  0  0  0
 11 10  1  6  0  0  0
 11  1  1  0  0  0  0
 12 13  1  0  0  0  0
 12 14  1  0  0  0  0
 12  7  1  0  0  0  0
 13 14  1  0  0  0  0
 15 16  1  0  0  0  0
 15 17  1  0  0  0  0
 16 17  1  0  0  0  0
 18 19  1  0  0  0  0
 20 21  1  0  0  0  0
 21 32  1  1  0  0  0
 21 22  1  0  0  0  0
 22 23  1  0  0  0  0
 23 25  1  1  0  0  0
 23 26  1  0  0  0  0
 25 24  2  0  0  0  0
 28 27  1  0  0  0  0
 28 31  1  1  0  0  0
 29 26  1  6  0  0  0
 29 28  1  0  0  0  0
 29 27  1  0  0  0  0
 31 30  1  0  0  0  0
 32 34  1  0  0  0  0
 34 33  1  0  0  0  0
M  END
>  <MODEL>
2

>  <REMARK>
 VINA RESULT:      -5.6      1.746      2.342
  Name = 
  13 active torsions:
  status: ('A' for Active; 'I' for Inactive)
    1  A    between atoms: C_1  and  O_8
    2  A    between atoms: C_3  and  N_25
    3  A    between atoms: C_5  and  C_19
    4  A    between atoms: S_6  and  C_18
    5  A    between atoms: S_6  and  C_28
    6  A    between atoms: O_8  and  C_18
    7  A    between atoms: C_11  and  C_21
    8  A    between atoms: C_12  and  N_20
    9  A    between atoms: C_16  and  C_28
   10  A    between atoms: C_18  and  C_30
   11  A    between atoms: C_26  and  C_28
   12  A    between atoms: C_26  and  C_29
   13  A    between atoms: C_30  and  C_31
                            x       y       z     vdW  Elec       q    Type
                         _______ _______ _______ _____ _____    ______ ____

>  <TORSDO>
F 13

$$$$
=
 OpenBabel10262423353D

 34 38  0  0  1  0  0  0  0  0999 V2000
  183.8680  179.2900  139.7730 C   0  0  1  0  0  0  0  0  0  0  0  0
  181.4260  175.2410  139.1760 O   0  0  0  0  0  0  0  0  0  0  0  0
  181.7220  178.3080  139.9420 C   0  0  1  0  0  3  0  0  0  0  0  0
  184.5900  180.1080  138.8820 O   0  0  0  0  0  1  0  0  0  0  0  0
  182.4180  179.5790  139.7090 N   0  0  2  0  0  0  0  0  0  0  0  0
  182.2250  176.1570  138.8430 C   0  0  0  0  0  0  0  0  0  0  0  0
  182.7120  176.2690  137.5000 N   0  0  0  0  0  0  0  0  0  0  0  0
  183.3140  177.4340  137.1420 O   0  0  0  0  0  0  0  0  0  0  0  0
  182.7090  177.1560  139.8480 C   0  0  1  0  0  3  0  0  0  0  0  0
  184.4490  177.5310  137.9650 C   0  0  0  0  0  2  0  0  0  0  0  0
  184.0390  177.7990  139.4370 C   0  0  1  0  0  3  0  0  0  0  0  0
  182.5120  175.2080  136.5160 C   0  0  0  0  0  3  0  0  0  0  0  0
  183.5960  175.2690  135.4540 C   0  0  0  0  0  2  0  0  0  0  0  0
  183.6790  174.2370  136.5540 C   0  0  0  0  0  2  0  0  0  0  0  0
  180.5790  180.5820  138.4490 C   0  0  0  0  0  2  0  0  0  0  0  0
  182.0010  180.0490  138.3850 C   0  0  0  0  0  3  0  0  0  0  0  0
  181.7430  181.5450  138.4360 C   0  0  0  0  0  2  0  0  0  0  0  0
  180.9940  178.3160  141.2830 C   0  0  0  0  0  2  0  0  0  0  0  0
  180.9520  179.6030  141.8240 O   0  0  0  0  0  1  0  0  0  0  0  0
  184.2920  179.5510  141.1010 O   0  0  0  0  0  0  0  0  0  0  0  0
  185.1180  178.5100  141.5680 C   0  0  2  0  0  3  0  0  0  0  0  0
  184.4650  177.8960  143.1540 S   0  0  0  0  0  0  0  0  0  0  0  0
  185.9100  178.4690  144.1110 C   0  0  1  0  0  3  0  0  0  0  0  0
  184.7150  178.6530  146.2860 C   0  0  0  0  0  2  0  0  0  0  0  0
  185.5200  179.1920  145.3710 C   0  0  0  0  0  3  0  0  0  0  0  0
  186.9360  177.3580  144.3410 C   0  0  0  0  0  2  0  0  0  0  0  0
  188.6300  176.9940  145.9810 O   0  0  0  0  0  0  0  0  0  0  0  0
  189.3030  176.8790  144.7520 C   0  0  1  0  0  3  0  0  0  0  0  0
  188.2270  177.8710  144.9580 C   0  0  1  0  0  3  0  0  0  0  0  0
  191.5170  176.7620  145.6070 O   0  0  0  0  0  1  0  0  0  0  0  0
  190.6510  177.5590  144.8590 C   0  0  0  0  0  2  0  0  0  0  0  0
  186.5280  179.0340  141.7790 C   0  0  0  0  0  2  0  0  0  0  0  0
  188.7210  178.0160  141.2600 C   0  0  0  0  0  1  0  0  0  0  0  0
  187.4370  178.5540  140.6650 C   0  0  0  0  0  2  0  0  0  0  0  0
  1  4  1  6  0  0  0
  1 20  1  0  0  0  0
  3 18  1  1  0  0  0
  5 16  1  6  0  0  0
  5  1  1  0  0  0  0
  5  3  1  0  0  0  0
  6  2  2  0  0  0  0
  7  6  1  0  0  0  0
  8  7  1  0  0  0  0
  8 10  1  0  0  0  0
  9  6  1  6  0  0  0
  9  3  1  0  0  0  0
 11 10  1  6  0  0  0
 11  1  1  0  0  0  0
 11  9  1  0  0  0  0
 12 14  1  0  0  0  0
 12  7  1  0  0  0  0
 13 12  1  0  0  0  0
 13 14  1  0  0  0  0
 16 17  1  0  0  0  0
 16 15  1  0  0  0  0
 17 15  1  0  0  0  0
 18 19  1  0  0  0  0
 20 21  1  0  0  0  0
 21 32  1  1  0  0  0
 21 22  1  0  0  0  0
 22 23  1  0  0  0  0
 23 26  1  1  0  0  0
 23 25  1  0  0  0  0
 25 24  2  0  0  0  0
 28 31  1  1  0  0  0
 28 29  1  0  0  0  0
 28 27  1  0  0  0  0
 29 26  1  6  0  0  0
 29 27  1  0  0  0  0
 31 30  1  0  0  0  0
 34 33  1  0  0  0  0
 34 32  1  0  0  0  0
M  END
>  <MODEL>
3

>  <REMARK>
 VINA RESULT:      -5.5      4.592      6.339
  Name = 
  13 active torsions:
  status: ('A' for Active; 'I' for Inactive)
    1  A    between atoms: C_1  and  O_8
    2  A    between atoms: C_3  and  N_25
    3  A    between atoms: C_5  and  C_19
    4  A    between atoms: S_6  and  C_18
    5  A    between atoms: S_6  and  C_28
    6  A    between atoms: O_8  and  C_18
    7  A    between atoms: C_11  and  C_21
    8  A    between atoms: C_12  and  N_20
    9  A    between atoms: C_16  and  C_28
   10  A    between atoms: C_18  and  C_30
   11  A    between atoms: C_26  and  C_28
   12  A    between atoms: C_26  and  C_29
   13  A    between atoms: C_30  and  C_31
                            x       y       z     vdW  Elec       q    Type
                         _______ _______ _______ _____ _____    ______ ____

>  <TORSDO>
F 13

$$$$
=
 OpenBabel10262423353D

 34 38  0  0  1  0  0  0  0  0999 V2000
  189.0340  177.2390  138.4890 C   0  0  1  0  0  0  0  0  0  0  0  0
  190.1310  173.1950  136.2180 O   0  0  0  0  0  0  0  0  0  0  0  0
  188.2240  175.6220  136.9640 C   0  0  1  0  0  3  0  0  0  0  0  0
  189.5970  178.5300  138.4620 O   0  0  0  0  0  1  0  0  0  0  0  0
  188.1130  177.0330  137.3490 N   0  0  2  0  0  0  0  0  0  0  0  0
  190.3250  174.3760  136.6140 C   0  0  0  0  0  0  0  0  0  0  0  0
  191.4120  175.1610  136.1090 N   0  0  0  0  0  0  0  0  0  0  0  0
  191.3820  176.5010  136.3410 O   0  0  0  0  0  0  0  0  0  0  0  0
  189.4320  174.9960  137.6430 C   0  0  1  0  0  3  0  0  0  0  0  0
  191.4370  176.6340  137.7380 C   0  0  0  0  0  2  0  0  0  0  0  0
  190.1150  176.1490  138.3890 C   0  0  1  0  0  3  0  0  0  0  0  0
  192.4830  174.5740  135.3080 C   0  0  0  0  0  3  0  0  0  0  0  0
  193.7300  175.4360  135.3910 C   0  0  0  0  0  2  0  0  0  0  0  0
  193.6390  174.1670  136.2060 C   0  0  0  0  0  2  0  0  0  0  0  0
  187.3660  177.8150  135.1570 C   0  0  0  0  0  2  0  0  0  0  0  0
  188.4960  177.8210  136.1740 C   0  0  0  0  0  3  0  0  0  0  0  0
  187.5720  179.0200  136.0440 C   0  0  0  0  0  2  0  0  0  0  0  0
  186.9420  174.8600  137.2850 C   0  0  0  0  0  2  0  0  0  0  0  0
  185.8370  175.7140  137.2850 O   0  0  0  0  0  1  0  0  0  0  0  0
  188.2770  177.0800  139.6780 O   0  0  0  0  0  0  0  0  0  0  0  0
  187.8520  178.3330  140.1620 C   0  0  2  0  0  3  0  0  0  0  0  0
  188.6760  178.6680  141.7520 S   0  0  0  0  0  0  0  0  0  0  0  0
  188.7820  176.9040  142.2100 C   0  0  1  0  0  3  0  0  0  0  0  0
  191.2460  177.1680  141.9830 C   0  0  0  0  0  2  0  0  0  0  0  0
  190.1880  176.3740  142.1500 C   0  0  0  0  0  3  0  0  0  0  0  0
  188.0720  176.6000  143.5300 C   0  0  0  0  0  2  0  0  0  0  0  0
  187.1700  178.0180  145.2230 O   0  0  0  0  0  0  0  0  0  0  0  0
  187.9660  177.0970  145.9260 C   0  0  1  0  0  3  0  0  0  0  0  0
  188.3730  177.6280  144.6090 C   0  0  1  0  0  3  0  0  0  0  0  0
  187.9050  177.9250  148.1530 O   0  0  0  0  0  1  0  0  0  0  0  0
  188.7150  177.8260  147.0220 C   0  0  0  0  0  2  0  0  0  0  0  0
  186.3480  178.3130  140.3740 C   0  0  0  0  0  2  0  0  0  0  0  0
  184.9220  178.3270  142.3940 C   0  0  0  0  0  1  0  0  0  0  0  0
  185.9870  179.0830  141.6290 C   0  0  0  0  0  2  0  0  0  0  0  0
  1  4  1  6  0  0  0
  1 20  1  0  0  0  0
  2  6  2  0  0  0  0
  3 18  1  1  0  0  0
  3  5  1  0  0  0  0
  3  9  1  0  0  0  0
  5 16  1  6  0  0  0
  5  1  1  0  0  0  0
  7  8  1  0  0  0  0
  7  6  1  0  0  0  0
  8 10  1  0  0  0  0
  9  6  1  6  0  0  0
  9 11  1  0  0  0  0
 11 10  1  6  0  0  0
 11  1  1  0  0  0  0
 12 13  1  0  0  0  0
 12  7  1  0  0  0  0
 12 14  1  0  0  0  0
 13 14  1  0  0  0  0
 15 17  1  0  0  0  0
 15 16  1  0  0  0  0
 17 16  1  0  0  0  0
 18 19  1  0  0  0  0
 20 21  1  0  0  0  0
 21 32  1  1  0  0  0
 21 22  1  0  0  0  0
 22 23  1  0  0  0  0
 23 25  1  1  0  0  0
 23 26  1  0  0  0  0
 24 25  2  0  0  0  0
 27 28  1  0  0  0  0
 28 31  1  1  0  0  0
 29 26  1  6  0  0  0
 29 27  1  0  0  0  0
 29 28  1  0  0  0  0
 31 30  1  0  0  0  0
 32 34  1  0  0  0  0
 34 33  1  0  0  0  0
M  END
>  <MODEL>
4

>  <REMARK>
 VINA RESULT:      -5.4      1.668      2.064
  Name = 
  13 active torsions:
  status: ('A' for Active; 'I' for Inactive)
    1  A    between atoms: C_1  and  O_8
    2  A    between atoms: C_3  and  N_25
    3  A    between atoms: C_5  and  C_19
    4  A    between atoms: S_6  and  C_18
    5  A    between atoms: S_6  and  C_28
    6  A    between atoms: O_8  and  C_18
    7  A    between atoms: C_11  and  C_21
    8  A    between atoms: C_12  and  N_20
    9  A    between atoms: C_16  and  C_28
   10  A    between atoms: C_18  and  C_30
   11  A    between atoms: C_26  and  C_28
   12  A    between atoms: C_26  and  C_29
   13  A    between atoms: C_30  and  C_31
                            x       y       z     vdW  Elec       q    Type
                         _______ _______ _______ _____ _____    ______ ____

>  <TORSDO>
F 13

$$$$
=
 OpenBabel10262423353D

 34 38  0  0  1  0  0  0  0  0999 V2000
  183.7600  178.8600  140.3230 C   0  0  1  0  0  0  0  0  0  0  0  0
  182.0020  175.2550  137.7480 O   0  0  0  0  0  0  0  0  0  0  0  0
  181.7710  177.9310  139.4420 C   0  0  1  0  0  3  0  0  0  0  0  0
  184.6700  179.8920  140.0210 O   0  0  0  0  0  1  0  0  0  0  0  0
  182.3970  179.1930  139.8510 N   0  0  2  0  0  0  0  0  0  0  0  0
  182.7890  176.2080  137.9980 C   0  0  0  0  0  0  0  0  0  0  0  0
  183.6880  176.7130  137.0040 N   0  0  0  0  0  0  0  0  0  0  0  0
  184.2770  177.9150  137.2390 O   0  0  0  0  0  0  0  0  0  0  0  0
  182.8230  176.8370  139.3570 C   0  0  1  0  0  3  0  0  0  0  0  0
  185.0580  177.7250  138.3920 C   0  0  0  0  0  2  0  0  0  0  0  0
  184.1560  177.5390  139.6410 C   0  0  1  0  0  3  0  0  0  0  0  0
  183.9190  176.0110  135.7440 C   0  0  0  0  0  3  0  0  0  0  0  0
  185.1380  176.5830  135.0420 C   0  0  0  0  0  2  0  0  0  0  0  0
  185.2480  175.2770  135.7940 C   0  0  0  0  0  2  0  0  0  0  0  0
  181.0130  180.1670  138.0880 C   0  0  0  0  0  2  0  0  0  0  0  0
  182.4140  180.0570  138.6680 C   0  0  0  0  0  3  0  0  0  0  0  0
  181.5680  181.2920  138.9290 C   0  0  0  0  0  2  0  0  0  0  0  0
  180.6360  177.5470  140.3870 C   0  0  0  0  0  2  0  0  0  0  0  0
  180.3220  178.6000  141.2490 O   0  0  0  0  0  1  0  0  0  0  0  0
  183.6900  178.6900  141.7300 O   0  0  0  0  0  0  0  0  0  0  0  0
  184.9070  179.0670  142.3320 C   0  0  2  0  0  3  0  0  0  0  0  0
  185.8610  177.5680  142.7350 S   0  0  0  0  0  0  0  0  0  0  0  0
  187.4730  178.3530  142.3970 C   0  0  1  0  0  3  0  0  0  0  0  0
  188.5170  177.6380  144.5400 C   0  0  0  0  0  2  0  0  0  0  0  0
  188.5880  177.7610  143.2150 C   0  0  0  0  0  3  0  0  0  0  0  0
  187.7870  178.4250  140.9020 C   0  0  0  0  0  2  0  0  0  0  0  0
  188.6210  177.1920  139.0380 O   0  0  0  0  0  0  0  0  0  0  0  0
  189.7530  177.8400  139.5630 C   0  0  1  0  0  3  0  0  0  0  0  0
  188.6940  177.2960  140.4380 C   0  0  1  0  0  3  0  0  0  0  0  0
  192.0420  177.5020  140.1050 O   0  0  0  0  0  1  0  0  0  0  0  0
  190.9290  176.8860  139.5340 C   0  0  0  0  0  2  0  0  0  0  0  0
  184.6250  179.8370  143.6110 C   0  0  0  0  0  2  0  0  0  0  0  0
  184.7900  178.7770  145.8380 C   0  0  0  0  0  1  0  0  0  0  0  0
  183.9180  178.9460  144.6130 C   0  0  0  0  0  2  0  0  0  0  0  0
  1  4  1  6  0  0  0
  1 20  1  0  0  0  0
  2  6  2  0  0  0  0
  3  5  1  0  0  0  0
  3 18  1  1  0  0  0
  5 16  1  6  0  0  0
  5  1  1  0  0  0  0
  7  8  1  0  0  0  0
  7  6  1  0  0  0  0
  8 10  1  0  0  0  0
  9  6  1  6  0  0  0
  9  3  1  0  0  0  0
  9 11  1  0  0  0  0
 11 10  1  6  0  0  0
 11  1  1  0  0  0  0
 12 14  1  0  0  0  0
 12  7  1  0  0  0  0
 13 12  1  0  0  0  0
 13 14  1  0  0  0  0
 15 16  1  0  0  0  0
 15 17  1  0  0  0  0
 16 17  1  0  0  0  0
 18 19  1  0  0  0  0
 20 21  1  0  0  0  0
 21 22  1  0  0  0  0
 21 32  1  1  0  0  0
 23 26  1  6  0  0  0
 23 22  1  0  0  0  0
 23 25  1  0  0  0  0
 25 24  2  0  0  0  0
 27 28  1  0  0  0  0
 27 29  1  0  0  0  0
 28 31  1  1  0  0  0
 28 29  1  0  0  0  0
 29 26  1  6  0  0  0
 31 30  1  0  0  0  0
 32 34  1  0  0  0  0
 34 33  1  0  0  0  0
M  END
>  <MODEL>
5

>  <REMARK>
 VINA RESULT:      -5.2      3.727      6.435
  Name = 
  13 active torsions:
  status: ('A' for Active; 'I' for Inactive)
    1  A    between atoms: C_1  and  O_8
    2  A    between atoms: C_3  and  N_25
    3  A    between atoms: C_5  and  C_19
    4  A    between atoms: S_6  and  C_18
    5  A    between atoms: S_6  and  C_28
    6  A    between atoms: O_8  and  C_18
    7  A    between atoms: C_11  and  C_21
    8  A    between atoms: C_12  and  N_20
    9  A    between atoms: C_16  and  C_28
   10  A    between atoms: C_18  and  C_30
   11  A    between atoms: C_26  and  C_28
   12  A    between atoms: C_26  and  C_29
   13  A    between atoms: C_30  and  C_31
                            x       y       z     vdW  Elec       q    Type
                         _______ _______ _______ _____ _____    ______ ____

>  <TORSDO>
F 13

$$$$
=
 OpenBabel10262423353D

 34 38  0  0  1  0  0  0  0  0999 V2000
  183.2990  177.1710  138.0520 C   0  0  1  0  0  0  0  0  0  0  0  0
  180.5630  180.8110  139.4600 O   0  0  0  0  0  0  0  0  0  0  0  0
  181.3380  178.3950  137.5510 C   0  0  1  0  0  3  0  0  0  0  0  0
  183.6590  175.9560  138.6670 O   0  0  0  0  0  1  0  0  0  0  0  0
  181.9640  177.0750  137.4190 N   0  0  2  0  0  0  0  0  0  0  0  0
  181.2220  179.7470  139.6120 C   0  0  0  0  0  0  0  0  0  0  0  0
  181.1420  178.9870  140.8240 N   0  0  0  0  0  0  0  0  0  0  0  0
  181.6270  177.7170  140.8050 O   0  0  0  0  0  0  0  0  0  0  0  0
  182.1290  179.2460  138.5300 C   0  0  1  0  0  3  0  0  0  0  0  0
  182.9990  177.8500  140.5320 C   0  0  0  0  0  2  0  0  0  0  0  0
  183.2250  178.3210  139.0720 C   0  0  1  0  0  3  0  0  0  0  0  0
  180.4990  179.5150  142.0250 C   0  0  0  0  0  3  0  0  0  0  0  0
  180.2780  178.4000  143.0320 C   0  0  0  0  0  2  0  0  0  0  0  0
  181.4260  179.3650  143.2190 C   0  0  0  0  0  2  0  0  0  0  0  0
  179.9520  175.7070  137.1890 C   0  0  0  0  0  2  0  0  0  0  0  0
  181.0880  176.1230  138.1080 C   0  0  0  0  0  3  0  0  0  0  0  0
  181.1300  174.7850  137.3920 C   0  0  0  0  0  2  0  0  0  0  0  0
  181.2040  179.0790  136.1930 C   0  0  0  0  0  2  0  0  0  0  0  0
  181.6140  178.2320  135.1610 O   0  0  0  0  0  1  0  0  0  0  0  0
  184.2310  177.4750  137.0270 O   0  0  0  0  0  0  0  0  0  0  0  0
  185.5040  176.9650  137.3530 C   0  0  2  0  0  3  0  0  0  0  0  0
  186.6870  178.3460  137.4700 S   0  0  0  0  0  0  0  0  0  0  0  0
  187.7650  177.4830  138.6640 C   0  0  1  0  0  3  0  0  0  0  0  0
  189.5470  177.5950  136.9310 C   0  0  0  0  0  2  0  0  0  0  0  0
  189.0790  177.0680  138.0620 C   0  0  0  0  0  3  0  0  0  0  0  0
  187.9140  178.2510  139.9780 C   0  0  0  0  0  2  0  0  0  0  0  0
  189.0790  178.3390  142.0580 O   0  0  0  0  0  0  0  0  0  0  0  0
  187.9520  177.5420  142.3220 C   0  0  1  0  0  3  0  0  0  0  0  0
  188.6730  177.4650  141.0350 C   0  0  1  0  0  3  0  0  0  0  0  0
  188.4880  176.8220  144.5220 O   0  0  0  0  0  1  0  0  0  0  0  0
  188.3610  176.3820  143.2050 C   0  0  0  0  0  2  0  0  0  0  0  0
  185.9620  176.0080  136.2660 C   0  0  0  0  0  2  0  0  0  0  0  0
  187.5900  174.1540  136.4230 C   0  0  0  0  0  1  0  0  0  0  0  0
  186.2210  174.6350  136.8530 C   0  0  0  0  0  2  0  0  0  0  0  0
  1  4  1  1  0  0  0
  1 11  1  0  0  0  0
  2  6  2  0  0  0  0
  3 18  1  6  0  0  0
  3  9  1  0  0  0  0
  5  3  1  0  0  0  0
  5  1  1  0  0  0  0
  5 16  1  1  0  0  0
  6  7  1  0  0  0  0
  7 12  1  0  0  0  0
  8  7  1  0  0  0  0
  9 11  1  0  0  0  0
  9  6  1  1  0  0  0
 10  8  1  0  0  0  0
 11 10  1  1  0  0  0
 12 13  1  0  0  0  0
 12 14  1  0  0  0  0
 13 14  1  0  0  0  0
 15 17  1  0  0  0  0
 15 16  1  0  0  0  0
 17 16  1  0  0  0  0
 19 18  1  0  0  0  0
 20 21  1  0  0  0  0
 20  1  1  0  0  0  0
 21 32  1  6  0  0  0
 21 22  1  0  0  0  0
 22 23  1  0  0  0  0
 23 25  1  6  0  0  0
 23 26  1  0  0  0  0
 24 25  2  0  0  0  0
 27 28  1  0  0  0  0
 28 31  1  1  0  0  0
 29 26  1  6  0  0  0
 29 27  1  0  0  0  0
 29 28  1  0  0  0  0
 31 30  1  0  0  0  0
 32 34  1  0  0  0  0
 33 34  1  0  0  0  0
M  END
>  <MODEL>
6

>  <REMARK>
 VINA RESULT:      -4.6      4.546      8.290
  Name = 
  13 active torsions:
  status: ('A' for Active; 'I' for Inactive)
    1  A    between atoms: C_1  and  O_8
    2  A    between atoms: C_3  and  N_25
    3  A    between atoms: C_5  and  C_19
    4  A    between atoms: S_6  and  C_18
    5  A    between atoms: S_6  and  C_28
    6  A    between atoms: O_8  and  C_18
    7  A    between atoms: C_11  and  C_21
    8  A    between atoms: C_12  and  N_20
    9  A    between atoms: C_16  and  C_28
   10  A    between atoms: C_18  and  C_30
   11  A    between atoms: C_26  and  C_28
   12  A    between atoms: C_26  and  C_29
   13  A    between atoms: C_30  and  C_31
                            x       y       z     vdW  Elec       q    Type
                         _______ _______ _______ _____ _____    ______ ____

>  <TORSDO>
F 13

$$$$
=
 OpenBabel10262423353D

 34 38  0  0  1  0  0  0  0  0999 V2000
  189.9250  177.4140  141.1830 C   0  0  1  0  0  0  0  0  0  0  0  0
  187.0330  176.0100  144.7020 O   0  0  0  0  0  0  0  0  0  0  0  0
  189.8600  176.7180  143.4440 C   0  0  1  0  0  3  0  0  0  0  0  0
  190.0190  178.6110  140.4480 O   0  0  0  0  0  1  0  0  0  0  0  0
  190.6190  177.5300  142.4860 N   0  0  2  0  0  0  0  0  0  0  0  0
  187.4130  176.7580  143.7610 C   0  0  0  0  0  0  0  0  0  0  0  0
  186.7980  178.0300  143.5240 N   0  0  0  0  0  0  0  0  0  0  0  0
  187.4470  178.9010  142.7060 O   0  0  0  0  0  0  0  0  0  0  0  0
  188.5180  176.3330  142.8440 C   0  0  1  0  0  3  0  0  0  0  0  0
  187.4950  178.2660  141.4540 C   0  0  0  0  0  2  0  0  0  0  0  0
  188.4610  177.0530  141.4910 C   0  0  1  0  0  3  0  0  0  0  0  0
  185.5570  178.4220  144.1860 C   0  0  0  0  0  3  0  0  0  0  0  0
  184.9530  179.6300  143.4910 C   0  0  0  0  0  2  0  0  0  0  0  0
  184.3850  178.2540  143.2340 C   0  0  0  0  0  2  0  0  0  0  0  0
  190.4000  178.8900  144.5050 C   0  0  0  0  0  2  0  0  0  0  0  0
  190.6120  178.9030  143.0000 C   0  0  0  0  0  3  0  0  0  0  0  0
  191.7860  179.0980  143.9430 C   0  0  0  0  0  2  0  0  0  0  0  0
  190.6560  175.4900  143.8760 C   0  0  0  0  0  2  0  0  0  0  0  0
  192.0250  175.7640  143.9080 O   0  0  0  0  0  1  0  0  0  0  0  0
  190.5540  176.3670  140.4620 O   0  0  0  0  0  0  0  0  0  0  0  0
  190.8310  176.7760  139.1430 C   0  0  2  0  0  3  0  0  0  0  0  0
  190.0270  175.6260  137.9810 S   0  0  0  0  0  0  0  0  0  0  0  0
  189.2170  176.9570  137.0310 C   0  0  1  0  0  3  0  0  0  0  0  0
  189.7200  176.1280  134.7390 C   0  0  0  0  0  2  0  0  0  0  0  0
  189.7820  177.1040  135.6440 C   0  0  0  0  0  3  0  0  0  0  0  0
  187.6920  176.8510  137.0570 C   0  0  0  0  0  2  0  0  0  0  0  0
  186.8110  179.0020  137.5920 O   0  0  0  0  0  0  0  0  0  0  0  0
  185.7080  178.1370  137.6980 C   0  0  1  0  0  3  0  0  0  0  0  0
  187.0610  177.7270  138.1270 C   0  0  1  0  0  3  0  0  0  0  0  0
  184.5550  179.8800  138.8290 O   0  0  0  0  0  1  0  0  0  0  0  0
  184.8860  178.5270  138.9080 C   0  0  0  0  0  2  0  0  0  0  0  0
  192.3320  176.7530  138.9080 C   0  0  0  0  0  2  0  0  0  0  0  0
  193.5530  176.3780  136.7910 C   0  0  0  0  0  1  0  0  0  0  0  0
  192.6790  175.7310  137.8430 C   0  0  0  0  0  2  0  0  0  0  0  0
  1  4  1  6  0  0  0
  1 11  1  0  0  0  0
  1  5  1  0  0  0  0
  3 18  1  6  0  0  0
  5 16  1  1  0  0  0
  5  3  1  0  0  0  0
  6  2  2  0  0  0  0
  7  6  1  0  0  0  0
  7 12  1  0  0  0  0
  8  7  1  0  0  0  0
  9  3  1  0  0  0  0
  9  6  1  1  0  0  0
 10  8  1  0  0  0  0
 11 10  1  1  0  0  0
 11  9  1  0  0  0  0
 13 12  1  0  0  0  0
 14 13  1  0  0  0  0
 14 12  1  0  0  0  0
 16 17  1  0  0  0  0
 16 15  1  0  0  0  0
 17 15  1  0  0  0  0
 18 19  1  0  0  0  0
 20  1  1  0  0  0  0
 21 32  1  6  0  0  0
 21 20  1  0  0  0  0
 22 21  1  0  0  0  0
 23 25  1  6  0  0  0
 23 26  1  0  0  0  0
 23 22  1  0  0  0  0
 24 25  2  0  0  0  0
 27 28  1  0  0  0  0
 27 29  1  0  0  0  0
 28 29  1  0  0  0  0
 28 31  1  1  0  0  0
 29 26  1  6  0  0  0
 30 31  1  0  0  0  0
 33 34  1  0  0  0  0
 34 32  1  0  0  0  0
M  END
>  <MODEL>
7

>  <REMARK>
 VINA RESULT:      -4.6      2.836      8.248
  Name = 
  13 active torsions:
  status: ('A' for Active; 'I' for Inactive)
    1  A    between atoms: C_1  and  O_8
    2  A    between atoms: C_3  and  N_25
    3  A    between atoms: C_5  and  C_19
    4  A    between atoms: S_6  and  C_18
    5  A    between atoms: S_6  and  C_28
    6  A    between atoms: O_8  and  C_18
    7  A    between atoms: C_11  and  C_21
    8  A    between atoms: C_12  and  N_20
    9  A    between atoms: C_16  and  C_28
   10  A    between atoms: C_18  and  C_30
   11  A    between atoms: C_26  and  C_28
   12  A    between atoms: C_26  and  C_29
   13  A    between atoms: C_30  and  C_31
                            x       y       z     vdW  Elec       q    Type
                         _______ _______ _______ _____ _____    ______ ____

>  <TORSDO>
F 13

$$$$
=
 OpenBabel10262423353D

 34 38  0  0  1  0  0  0  0  0999 V2000
  181.4610  176.7700  138.6260 C   0  0  1  0  0  0  0  0  0  0  0  0
  184.4350  180.4770  138.9760 O   0  0  0  0  0  0  0  0  0  0  0  0
  181.5950  179.1300  138.5310 C   0  0  1  0  0  3  0  0  0  0  0  0
  181.0750  175.7680  139.5380 O   0  0  0  0  0  1  0  0  0  0  0  0
  180.6920  178.0160  138.8430 N   0  0  2  0  0  0  0  0  0  0  0  0
  183.9110  179.3900  139.3400 C   0  0  0  0  0  0  0  0  0  0  0  0
  184.1570  178.8430  140.6420 N   0  0  0  0  0  0  0  0  0  0  0  0
  183.3360  177.8490  141.0730 O   0  0  0  0  0  0  0  0  0  0  0  0
  183.0220  178.6200  138.4140 C   0  0  1  0  0  3  0  0  0  0  0  0
  183.5360  176.7890  140.1740 C   0  0  0  0  0  2  0  0  0  0  0  0
  182.9480  177.1330  138.7800 C   0  0  1  0  0  3  0  0  0  0  0  0
  185.2010  179.3710  141.5160 C   0  0  0  0  0  3  0  0  0  0  0  0
  184.7340  179.3480  142.9610 C   0  0  0  0  0  2  0  0  0  0  0  0
  185.6850  178.2860  142.4620 C   0  0  0  0  0  2  0  0  0  0  0  0
  179.0230  179.0260  140.3160 C   0  0  0  0  0  2  0  0  0  0  0  0
  180.2860  178.1830  140.2420 C   0  0  0  0  0  3  0  0  0  0  0  0
  178.9350  177.5250  140.4600 C   0  0  0  0  0  2  0  0  0  0  0  0
  181.1530  179.8590  137.2660 C   0  0  0  0  0  2  0  0  0  0  0  0
  180.1950  180.8330  137.5550 O   0  0  0  0  0  1  0  0  0  0  0  0
  181.1900  176.3330  137.3030 O   0  0  0  0  0  0  0  0  0  0  0  0
  181.8610  175.1230  137.0390 C   0  0  2  0  0  3  0  0  0  0  0  0
  182.9390  175.3430  135.5870 S   0  0  0  0  0  0  0  0  0  0  0  0
  184.4770  175.3070  136.5690 C   0  0  1  0  0  3  0  0  0  0  0  0
  185.0930  173.1520  137.6500 C   0  0  0  0  0  2  0  0  0  0  0  0
  185.1230  173.9490  136.5820 C   0  0  0  0  0  3  0  0  0  0  0  0
  185.4390  176.4340  136.1910 C   0  0  0  0  0  2  0  0  0  0  0  0
  187.6180  177.3320  136.5640 O   0  0  0  0  0  0  0  0  0  0  0  0
  186.8040  177.9850  137.5060 C   0  0  1  0  0  3  0  0  0  0  0  0
  186.6020  176.5630  137.1610 C   0  0  1  0  0  3  0  0  0  0  0  0
  188.6250  178.9670  138.6750 O   0  0  0  0  0  1  0  0  0  0  0  0
  187.5520  178.0890  138.8190 C   0  0  0  0  0  2  0  0  0  0  0  0
  180.8450  174.0320  136.7440 C   0  0  0  0  0  2  0  0  0  0  0  0
  181.7930  171.7670  136.4640 C   0  0  0  0  0  1  0  0  0  0  0  0
  181.4130  173.0430  135.7460 C   0  0  0  0  0  2  0  0  0  0  0  0
  1 11  1  0  0  0  0
  1  5  1  0  0  0  0
  1  4  1  1  0  0  0
  2  6  2  0  0  0  0
  3 18  1  6  0  0  0
  3  5  1  0  0  0  0
  5 16  1  1  0  0  0
  6  7  1  0  0  0  0
  7  8  1  0  0  0  0
  7 12  1  0  0  0  0
  9  3  1  0  0  0  0
  9 11  1  0  0  0  0
  9  6  1  1  0  0  0
 10  8  1  0  0  0  0
 11 10  1  1  0  0  0
 12 14  1  0  0  0  0
 12 13  1  0  0  0  0
 14 13  1  0  0  0  0
 15 17  1  0  0  0  0
 16 15  1  0  0  0  0
 16 17  1  0  0  0  0
 18 19  1  0  0  0  0
 20  1  1  0  0  0  0
 21 32  1  6  0  0  0
 21 20  1  0  0  0  0
 22 23  1  0  0  0  0
 22 21  1  0  0  0  0
 23 26  1  6  0  0  0
 23 25  1  0  0  0  0
 25 24  2  0  0  0  0
 27 29  1  0  0  0  0
 27 28  1  0  0  0  0
 28 31  1  1  0  0  0
 29 26  1  6  0  0  0
 29 28  1  0  0  0  0
 30 31  1  0  0  0  0
 34 33  1  0  0  0  0
 34 32  1  0  0  0  0
M  END
>  <MODEL>
8

>  <REMARK>
 VINA RESULT:      -4.5      4.979      9.062
  Name = 
  13 active torsions:
  status: ('A' for Active; 'I' for Inactive)
    1  A    between atoms: C_1  and  O_8
    2  A    between atoms: C_3  and  N_25
    3  A    between atoms: C_5  and  C_19
    4  A    between atoms: S_6  and  C_18
    5  A    between atoms: S_6  and  C_28
    6  A    between atoms: O_8  and  C_18
    7  A    between atoms: C_11  and  C_21
    8  A    between atoms: C_12  and  N_20
    9  A    between atoms: C_16  and  C_28
   10  A    between atoms: C_18  and  C_30
   11  A    between atoms: C_26  and  C_28
   12  A    between atoms: C_26  and  C_29
   13  A    between atoms: C_30  and  C_31
                            x       y       z     vdW  Elec       q    Type
                         _______ _______ _______ _____ _____    ______ ____

>  <TORSDO>
F 13

$$$$
=
 OpenBabel10262423353D

 34 38  0  0  1  0  0  0  0  0999 V2000
  183.2030  178.5170  140.5190 C   0  0  1  0  0  0  0  0  0  0  0  0
  181.8780  175.0510  137.5270 O   0  0  0  0  0  0  0  0  0  0  0  0
  181.3370  177.3540  139.6450 C   0  0  1  0  0  3  0  0  0  0  0  0
  183.8730  179.7400  140.3230 O   0  0  0  0  0  1  0  0  0  0  0  0
  181.7610  178.6410  140.2070 N   0  0  2  0  0  0  0  0  0  0  0  0
  182.5000  176.0920  137.8710 C   0  0  0  0  0  0  0  0  0  0  0  0
  183.1850  176.9030  136.9090 N   0  0  0  0  0  0  0  0  0  0  0  0
  183.5660  178.1510  137.2930 O   0  0  0  0  0  0  0  0  0  0  0  0
  182.5570  176.5120  139.3080 C   0  0  1  0  0  3  0  0  0  0  0  0
  184.4810  177.9520  138.3400 C   0  0  0  0  0  2  0  0  0  0  0  0
  183.7610  177.4130  139.6040 C   0  0  1  0  0  3  0  0  0  0  0  0
  183.4100  176.4510  135.5390 C   0  0  0  0  0  3  0  0  0  0  0  0
  184.7310  176.9920  135.0200 C   0  0  0  0  0  2  0  0  0  0  0  0
  184.6360  175.5560  135.4820 C   0  0  0  0  0  2  0  0  0  0  0  0
  180.0170  179.6730  138.8410 C   0  0  0  0  0  2  0  0  0  0  0  0
  181.4980  179.6540  139.1820 C   0  0  0  0  0  3  0  0  0  0  0  0
  180.5920  180.7310  139.7530 C   0  0  0  0  0  2  0  0  0  0  0  0
  180.3940  176.6210  140.5950 C   0  0  0  0  0  2  0  0  0  0  0  0
  179.5210  175.7880  139.8930 O   0  0  0  0  0  1  0  0  0  0  0  0
  183.3080  178.1340  141.8810 O   0  0  0  0  0  0  0  0  0  0  0  0
  182.9880  179.2170  142.7220 C   0  0  2  0  0  3  0  0  0  0  0  0
  184.5210  179.8840  143.4450 S   0  0  0  0  0  0  0  0  0  0  0  0
  185.1980  178.2360  143.8420 C   0  0  1  0  0  3  0  0  0  0  0  0
  186.7660  178.6150  141.9480 C   0  0  0  0  0  2  0  0  0  0  0  0
  186.3810  177.8750  142.9870 C   0  0  0  0  0  3  0  0  0  0  0  0
  185.4510  178.0530  145.3390 C   0  0  0  0  0  2  0  0  0  0  0  0
  187.6870  178.5940  145.9700 O   0  0  0  0  0  0  0  0  0  0  0  0
  187.1990  177.8230  147.0400 C   0  0  1  0  0  3  0  0  0  0  0  0
  186.8420  177.5200  145.6380 C   0  0  1  0  0  3  0  0  0  0  0  0
  189.4480  177.5980  147.7730 O   0  0  0  0  0  1  0  0  0  0  0  0
  188.2850  176.8760  147.5050 C   0  0  0  0  0  2  0  0  0  0  0  0
  182.0770  178.7400  143.8410 C   0  0  0  0  0  2  0  0  0  0  0  0
  179.6730  178.9990  144.3550 C   0  0  0  0  0  1  0  0  0  0  0  0
  180.6690  178.5330  143.3170 C   0  0  0  0  0  2  0  0  0  0  0  0
  1  4  1  6  0  0  0
  1 20  1  0  0  0  0
  2  6  2  0  0  0  0
  3  5  1  0  0  0  0
  3 18  1  1  0  0  0
  5 16  1  6  0  0  0
  5  1  1  0  0  0  0
  7  8  1  0  0  0  0
  7  6  1  0  0  0  0
  8 10  1  0  0  0  0
  9  6  1  6  0  0  0
  9 11  1  0  0  0  0
  9  3  1  0  0  0  0
 11 10  1  6  0  0  0
 11  1  1  0  0  0  0
 12  7  1  0  0  0  0
 13 14  1  0  0  0  0
 13 12  1  0  0  0  0
 14 12  1  0  0  0  0
 15 16  1  0  0  0  0
 15 17  1  0  0  0  0
 16 17  1  0  0  0  0
 19 18  1  0  0  0  0
 20 21  1  0  0  0  0
 21 22  1  0  0  0  0
 21 32  1  1  0  0  0
 22 23  1  0  0  0  0
 23 25  1  6  0  0  0
 23 26  1  0  0  0  0
 24 25  2  0  0  0  0
 27 28  1  0  0  0  0
 28 31  1  6  0  0  0
 29 26  1  1  0  0  0
 29 27  1  0  0  0  0
 29 28  1  0  0  0  0
 31 30  1  0  0  0  0
 34 32  1  0  0  0  0
 34 33  1  0  0  0  0
M  END
>  <MODEL>
9

>  <REMARK>
 VINA RESULT:      -4.5      5.078      6.648
  Name = 
  13 active torsions:
  status: ('A' for Active; 'I' for Inactive)
    1  A    between atoms: C_1  and  O_8
    2  A    between atoms: C_3  and  N_25
    3  A    between atoms: C_5  and  C_19
    4  A    between atoms: S_6  and  C_18
    5  A    between atoms: S_6  and  C_28
    6  A    between atoms: O_8  and  C_18
    7  A    between atoms: C_11  and  C_21
    8  A    between atoms: C_12  and  N_20
    9  A    between atoms: C_16  and  C_28
   10  A    between atoms: C_18  and  C_30
   11  A    between atoms: C_26  and  C_28
   12  A    between atoms: C_26  and  C_29
   13  A    between atoms: C_30  and  C_31
                            x       y       z     vdW  Elec       q    Type
                         _______ _______ _______ _____ _____    ______ ____

>  <TORSDO>
F 13

$$$$
