=
 OpenBabel10262423253D

 34 38  0  0  1  0  0  0  0  0999 V2000
  187.1240  177.4810  144.6620 C   0  0  0  0  0  0  0  0  0  0  0  0
  183.6180  179.0390  145.0490 C   0  0  0  0  0  2  0  0  0  0  0  0
  185.4690  178.5000  146.6240 O   0  0  0  0  0  0  0  0  0  0  0  0
  189.1890  177.5970  143.1670 C   0  0  2  0  0  3  0  0  0  0  0  0
  187.9500  176.7920  143.6040 C   0  0  0  0  0  2  0  0  0  0  0  0
  190.1440  177.7670  145.5550 C   0  0  0  0  0  2  0  0  0  0  0  0
  189.2480  176.8850  147.7240 C   0  0  0  0  0  1  0  0  0  0  0  0
  189.7780  178.5010  144.2590 C   0  0  0  0  0  2  0  0  0  0  0  0
  186.8580  178.3970  146.9420 C   0  0  0  0  0  2  0  0  0  0  0  0
  187.6110  177.5900  145.9150 C   0  0  0  0  0  0  0  0  0  0  0  0
  188.9810  177.0250  146.2350 C   0  0  1  0  0  3  0  0  0  0  0  0
  183.0610  178.6380  143.6840 C   0  0  2  0  0  3  0  0  0  0  0  0
  184.1170  178.8450  142.6090 C   0  0  0  0  0  2  0  0  0  0  0  0
  184.9990  178.4960  145.3070 C   0  0  0  0  0  0  0  0  0  0  0  0
  185.2970  177.9270  142.8940 C   0  0  0  0  0  2  0  0  0  0  0  0
  185.7940  178.0380  144.3160 C   0  0  0  0  0  0  0  0  0  0  0  0
  188.8630  178.4520  141.9500 C   0  0  0  0  0  2  0  0  0  0  0  0
  190.5730  176.2510  139.3920 C   0  0  0  0  0  3  0  0  0  0  0  0
  188.2870  177.8370  139.5910 C   0  0  0  0  0  3  0  0  0  0  0  0
  189.7260  176.3820  138.2790 C   0  0  0  0  0  0  0  0  0  0  0  0
  188.5570  177.1650  138.3880 C   0  0  0  0  0  0  0  0  0  0  0  0
  189.1520  177.7220  140.6820 C   0  0  0  0  0  0  0  0  0  0  0  0
  190.2920  176.9230  140.5820 C   0  0  0  0  0  3  0  0  0  0  0  0
  190.6540  174.4300  137.3190 N   0  0  0  0  0  0  0  0  0  0  0  0
  189.2890  174.4600  136.9670 C   0  0  0  0  0  0  0  0  0  0  0  0
  190.0260  175.6070  137.0210 C   0  0  1  0  0  3  0  0  0  0  0  0
  187.9710  172.3500  136.8930 C   0  0  0  0  0  1  0  0  0  0  0  0
  188.0560  173.7890  136.7370 N   0  0  0  0  0  2  0  0  0  0  0  0
  187.6800  177.2600  137.3010 O   0  0  0  0  0  0  0  0  0  0  0  0
  186.3050  177.5880  137.4460 C   0  0  0  0  0  1  0  0  0  0  0  0
  181.7830  179.4080  143.3630 C   0  0  0  0  0  2  0  0  0  0  0  0
  179.6860  178.7230  144.1260 C   0  0  0  0  0  1  0  0  0  0  0  0
  180.0720  178.9520  141.8420 C   0  0  0  0  0  1  0  0  0  0  0  0
  180.6750  178.5050  143.0850 N   0  0  0  0  0  0  0  0  0  0  0  0
  1 10  2  0  0  0  0
  2 14  1  0  0  0  0
  3  9  1  0  0  0  0
  4 17  1  6  0  0  0
  4  5  1  0  0  0  0
  4  8  1  0  0  0  0
  5  1  1  0  0  0  0
  6 11  1  0  0  0  0
  8  6  1  0  0  0  0
 10 11  1  0  0  0  0
 10  9  1  0  0  0  0
 11  7  1  1  0  0  0
 12 31  1  6  0  0  0
 12  2  1  0  0  0  0
 13 15  1  0  0  0  0
 13 12  1  0  0  0  0
 14  3  1  0  0  0  0
 15 16  1  0  0  0  0
 16  1  1  0  0  0  0
 16 14  2  0  0  0  0
 18 23  1  0  0  0  0
 19 22  1  0  0  0  0
 20 21  1  0  0  0  0
 20 18  2  0  0  0  0
 21 19  2  0  0  0  0
 22 17  1  0  0  0  0
 23 22  2  0  0  0  0
 25 26  1  0  0  0  0
 25 24  2  0  0  0  0
 26 24  1  0  0  0  0
 26 20  1  1  0  0  0
 28 27  1  0  0  0  0
 28 25  1  0  0  0  0
 29 30  1  0  0  0  0
 29 21  1  0  0  0  0
 33 34  1  0  0  0  0
 34 31  1  0  0  0  0
 34 32  1  0  0  0  0
M  END
>  <MODEL>
1

>  <REMARK>
 VINA RESULT:     -10.3      0.000      0.000
  Name = 
  6 active torsions:
  status: ('A' for Active; 'I' for Inactive)
    1  A    between atoms: C_8  and  C_18
    2  A    between atoms: C_14  and  C_16
    3  A    between atoms: C_18  and  C_30
    4  A    between atoms: C_23  and  N_24
    5  A    between atoms: C_23  and  C_25
    6  A    between atoms: O_26  and  C_28
                            x       y       z     vdW  Elec       q    Type
                         _______ _______ _______ _____ _____    ______ ____

>  <TORSDO>
F 6

$$$$
=
 OpenBabel10262423253D

 34 38  0  0  1  0  0  0  0  0999 V2000
  188.4680  177.5240  138.2260 C   0  0  0  0  0  0  0  0  0  0  0  0
  185.5410  176.1620  136.1170 C   0  0  0  0  0  2  0  0  0  0  0  0
  187.9920  175.7310  136.1810 O   0  0  0  0  0  0  0  0  0  0  0  0
  189.0780  178.0840  140.6400 C   0  0  2  0  0  3  0  0  0  0  0  0
  188.7300  178.6150  139.2360 C   0  0  0  0  0  2  0  0  0  0  0  0
  191.0700  176.6740  139.8100 C   0  0  0  0  0  2  0  0  0  0  0  0
  191.9870  176.3710  137.4970 C   0  0  0  0  0  1  0  0  0  0  0  0
  189.7860  176.7220  140.6490 C   0  0  0  0  0  2  0  0  0  0  0  0
  189.2250  175.5890  136.8880 C   0  0  0  0  0  2  0  0  0  0  0  0
  189.4960  176.7680  137.7880 C   0  0  0  0  0  0  0  0  0  0  0  0
  190.8910  177.0230  138.3230 C   0  0  1  0  0  3  0  0  0  0  0  0
  184.5100  177.2300  136.4810 C   0  0  2  0  0  3  0  0  0  0  0  0
  184.5890  177.5470  137.9660 C   0  0  0  0  0  2  0  0  0  0  0  0
  186.9010  176.4290  136.7080 C   0  0  0  0  0  0  0  0  0  0  0  0
  185.9600  178.1330  138.2730 C   0  0  0  0  0  2  0  0  0  0  0  0
  187.0900  177.2880  137.7330 C   0  0  0  0  0  0  0  0  0  0  0  0
  187.8220  177.9860  141.4960 C   0  0  0  0  0  2  0  0  0  0  0  0
  189.8090  177.9560  144.7160 C   0  0  0  0  0  3  0  0  0  0  0  0
  187.1540  177.7140  143.8950 C   0  0  0  0  0  3  0  0  0  0  0  0
  188.8090  177.7280  145.6760 C   0  0  0  0  0  0  0  0  0  0  0  0
  187.4630  177.6300  145.2630 C   0  0  0  0  0  0  0  0  0  0  0  0
  188.1600  177.9140  142.9470 C   0  0  0  0  0  0  0  0  0  0  0  0
  189.4880  178.0400  143.3610 C   0  0  0  0  0  3  0  0  0  0  0  0
  189.0800  176.4180  147.6270 N   0  0  0  0  0  0  0  0  0  0  0  0
  190.3330  176.9940  147.3330 C   0  0  0  0  0  0  0  0  0  0  0  0
  189.1760  177.6910  147.1370 C   0  0  1  0  0  3  0  0  0  0  0  0
  192.4220  175.6880  147.6870 C   0  0  0  0  0  1  0  0  0  0  0  0
  191.7520  176.9060  147.2740 N   0  0  0  0  0  2  0  0  0  0  0  0
  186.4540  177.4550  146.2170 O   0  0  0  0  0  0  0  0  0  0  0  0
  185.5500  178.4890  146.5820 C   0  0  0  0  0  1  0  0  0  0  0  0
  183.1030  176.7950  136.0780 C   0  0  0  0  0  2  0  0  0  0  0  0
  181.0410  176.9410  137.1620 C   0  0  0  0  0  1  0  0  0  0  0  0
  182.1330  174.8910  137.0170 C   0  0  0  0  0  1  0  0  0  0  0  0
  182.3480  176.3110  137.2250 N   0  0  0  0  0  0  0  0  0  0  0  0
  1  5  1  0  0  0  0
  2 12  1  0  0  0  0
  2 14  1  0  0  0  0
  3 14  1  0  0  0  0
  3  9  1  0  0  0  0
  4  8  1  0  0  0  0
  4 17  1  1  0  0  0
  5  4  1  0  0  0  0
  6  8  1  0  0  0  0
  9 10  1  0  0  0  0
 10  1  2  0  0  0  0
 10 11  1  0  0  0  0
 11  7  1  6  0  0  0
 11  6  1  0  0  0  0
 12 31  1  1  0  0  0
 12 13  1  0  0  0  0
 13 15  1  0  0  0  0
 14 16  2  0  0  0  0
 16  1  1  0  0  0  0
 16 15  1  0  0  0  0
 17 22  1  0  0  0  0
 18 20  1  0  0  0  0
 19 21  1  0  0  0  0
 21 20  2  0  0  0  0
 21 29  1  0  0  0  0
 22 23  1  0  0  0  0
 22 19  2  0  0  0  0
 23 18  2  0  0  0  0
 25 24  2  0  0  0  0
 26 20  1  6  0  0  0
 26 25  1  0  0  0  0
 26 24  1  0  0  0  0
 28 25  1  0  0  0  0
 28 27  1  0  0  0  0
 29 30  1  0  0  0  0
 31 34  1  0  0  0  0
 32 34  1  0  0  0  0
 33 34  1  0  0  0  0
M  END
>  <MODEL>
2

>  <REMARK>
 VINA RESULT:      -8.2      3.247      7.840
  Name = 
  6 active torsions:
  status: ('A' for Active; 'I' for Inactive)
    1  A    between atoms: C_8  and  C_18
    2  A    between atoms: C_14  and  C_16
    3  A    between atoms: C_18  and  C_30
    4  A    between atoms: C_23  and  N_24
    5  A    between atoms: C_23  and  C_25
    6  A    between atoms: O_26  and  C_28
                            x       y       z     vdW  Elec       q    Type
                         _______ _______ _______ _____ _____    ______ ____

>  <TORSDO>
F 6

$$$$
=
 OpenBabel10262423253D

 34 38  0  0  1  0  0  0  0  0999 V2000
  180.9960  179.2800  141.3020 C   0  0  0  0  0  0  0  0  0  0  0  0
  179.7180  182.0120  138.9000 C   0  0  0  0  0  2  0  0  0  0  0  0
  179.0250  181.2070  141.1520 O   0  0  0  0  0  0  0  0  0  0  0  0
  183.1680  178.3430  142.2610 C   0  0  2  0  0  3  0  0  0  0  0  0
  181.9810  178.1360  141.3010 C   0  0  0  0  0  2  0  0  0  0  0  0
  181.6690  178.6710  144.3320 C   0  0  0  0  0  2  0  0  0  0  0  0
  179.1700  178.6430  144.5430 C   0  0  0  0  0  1  0  0  0  0  0  0
  182.8450  179.1930  143.4980 C   0  0  0  0  0  2  0  0  0  0  0  0
  179.3260  180.6940  142.4500 C   0  0  0  0  0  2  0  0  0  0  0  0
  180.2100  179.4750  142.3810 C   0  0  0  0  0  0  0  0  0  0  0  0
  180.3370  178.5470  143.5730 C   0  0  1  0  0  3  0  0  0  0  0  0
  180.4620  181.5510  137.6470 C   0  0  2  0  0  3  0  0  0  0  0  0
  181.8820  181.1410  138.0050 C   0  0  0  0  0  2  0  0  0  0  0  0
  179.9080  181.0870  140.0740 C   0  0  0  0  0  0  0  0  0  0  0  0
  181.8270  179.9500  138.9520 C   0  0  0  0  0  2  0  0  0  0  0  0
  180.9070  180.1800  140.1280 C   0  0  0  0  0  0  0  0  0  0  0  0
  184.3410  178.9770  141.5250 C   0  0  0  0  0  2  0  0  0  0  0  0
  186.9390  177.6500  143.9330 C   0  0  0  0  0  3  0  0  0  0  0  0
  186.7940  178.5340  141.2910 C   0  0  0  0  0  3  0  0  0  0  0  0
  188.1080  177.6900  143.1560 C   0  0  0  0  0  0  0  0  0  0  0  0
  188.0300  178.1150  141.8120 C   0  0  0  0  0  0  0  0  0  0  0  0
  185.6440  178.5150  142.0830 C   0  0  0  0  0  0  0  0  0  0  0  0
  185.7170  178.0670  143.4030 C   0  0  0  0  0  3  0  0  0  0  0  0
  190.1390  178.2220  144.2450 N   0  0  0  0  0  0  0  0  0  0  0  0
  189.4270  177.3470  145.0920 C   0  0  0  0  0  0  0  0  0  0  0  0
  189.4040  177.1870  143.7360 C   0  0  1  0  0  3  0  0  0  0  0  0
  189.4790  177.6780  147.5580 C   0  0  0  0  0  1  0  0  0  0  0  0
  189.0250  176.9410  146.3940 N   0  0  0  0  0  2  0  0  0  0  0  0
  189.1800  178.1100  141.0140 O   0  0  0  0  0  0  0  0  0  0  0  0
  189.1320  178.1110  139.5930 C   0  0  0  0  0  1  0  0  0  0  0  0
  180.4500  182.6330  136.5710 C   0  0  0  0  0  2  0  0  0  0  0  0
  181.4900  184.6490  137.1210 C   0  0  0  0  0  1  0  0  0  0  0  0
  179.3410  184.6580  136.2280 C   0  0  0  0  0  1  0  0  0  0  0  0
  180.2170  183.9500  137.1440 N   0  0  0  0  0  0  0  0  0  0  0  0
  1 10  2  0  0  0  0
  2 14  1  0  0  0  0
  3  9  1  0  0  0  0
  4 17  1  6  0  0  0
  4  8  1  0  0  0  0
  5  1  1  0  0  0  0
  5  4  1  0  0  0  0
  8  6  1  0  0  0  0
 10  9  1  0  0  0  0
 10 11  1  0  0  0  0
 11  6  1  0  0  0  0
 11  7  1  1  0  0  0
 12 31  1  6  0  0  0
 12 13  1  0  0  0  0
 12  2  1  0  0  0  0
 13 15  1  0  0  0  0
 14 16  2  0  0  0  0
 14  3  1  0  0  0  0
 15 16  1  0  0  0  0
 16  1  1  0  0  0  0
 17 22  1  0  0  0  0
 19 21  2  0  0  0  0
 19 22  1  0  0  0  0
 20 18  2  0  0  0  0
 21 20  1  0  0  0  0
 22 23  2  0  0  0  0
 23 18  1  0  0  0  0
 24 25  2  0  0  0  0
 25 28  1  0  0  0  0
 26 20  1  6  0  0  0
 26 24  1  0  0  0  0
 26 25  1  0  0  0  0
 28 27  1  0  0  0  0
 29 21  1  0  0  0  0
 30 29  1  0  0  0  0
 31 34  1  0  0  0  0
 32 34  1  0  0  0  0
 33 34  1  0  0  0  0
M  END
>  <MODEL>
3

>  <REMARK>
 VINA RESULT:      -8.1      4.158      7.389
  Name = 
  6 active torsions:
  status: ('A' for Active; 'I' for Inactive)
    1  A    between atoms: C_8  and  C_18
    2  A    between atoms: C_14  and  C_16
    3  A    between atoms: C_18  and  C_30
    4  A    between atoms: C_23  and  N_24
    5  A    between atoms: C_23  and  C_25
    6  A    between atoms: O_26  and  C_28
                            x       y       z     vdW  Elec       q    Type
                         _______ _______ _______ _____ _____    ______ ____

>  <TORSDO>
F 6

$$$$
=
 OpenBabel10262423253D

 34 38  0  0  1  0  0  0  0  0999 V2000
  187.8710  178.2420  142.1240 C   0  0  0  0  0  0  0  0  0  0  0  0
  190.5590  176.3120  140.1440 C   0  0  0  0  0  2  0  0  0  0  0  0
  189.8160  176.3230  142.5200 O   0  0  0  0  0  0  0  0  0  0  0  0
  185.4360  178.9860  141.9510 C   0  0  2  0  0  3  0  0  0  0  0  0
  186.9210  179.3970  141.9210 C   0  0  0  0  0  2  0  0  0  0  0  0
  185.5930  177.9210  144.2940 C   0  0  0  0  0  2  0  0  0  0  0  0
  187.5500  177.7030  145.8450 C   0  0  0  0  0  1  0  0  0  0  0  0
  185.1300  177.7720  142.8390 C   0  0  0  0  0  2  0  0  0  0  0  0
  188.7990  176.4250  143.5180 C   0  0  0  0  0  2  0  0  0  0  0  0
  187.9600  177.6650  143.3400 C   0  0  0  0  0  0  0  0  0  0  0  0
  187.0980  178.1800  144.4750 C   0  0  1  0  0  3  0  0  0  0  0  0
  190.5680  177.1930  138.8950 C   0  0  2  0  0  3  0  0  0  0  0  0
  189.1460  177.5720  138.5130 C   0  0  0  0  0  2  0  0  0  0  0  0
  189.6540  176.8360  141.2290 C   0  0  0  0  0  0  0  0  0  0  0  0
  188.5370  178.4010  139.6350 C   0  0  0  0  0  2  0  0  0  0  0  0
  188.6890  177.7500  140.9900 C   0  0  0  0  0  0  0  0  0  0  0  0
  184.9360  178.6990  140.5420 C   0  0  0  0  0  2  0  0  0  0  0  0
  181.7540  176.8060  139.7660 C   0  0  0  0  0  3  0  0  0  0  0  0
  182.5740  178.9630  141.3320 C   0  0  0  0  0  3  0  0  0  0  0  0
  180.8020  177.5070  140.5250 C   0  0  0  0  0  0  0  0  0  0  0  0
  181.2220  178.5820  141.3370 C   0  0  0  0  0  0  0  0  0  0  0  0
  183.5060  178.2760  140.5510 C   0  0  0  0  0  0  0  0  0  0  0  0
  183.0940  177.1930  139.7720 C   0  0  0  0  0  3  0  0  0  0  0  0
  179.1740  176.0610  139.6020 N   0  0  0  0  0  0  0  0  0  0  0  0
  179.2840  175.7450  140.9720 C   0  0  0  0  0  0  0  0  0  0  0  0
  179.3700  177.0370  140.5390 C   0  0  1  0  0  3  0  0  0  0  0  0
  179.1370  173.3780  141.7250 C   0  0  0  0  0  1  0  0  0  0  0  0
  179.3020  174.7870  142.0230 N   0  0  0  0  0  2  0  0  0  0  0  0
  180.2900  179.2540  142.1370 O   0  0  0  0  0  0  0  0  0  0  0  0
  179.6800  180.4770  141.7490 C   0  0  0  0  0  1  0  0  0  0  0  0
  191.2900  176.5030  137.7410 C   0  0  0  0  0  2  0  0  0  0  0  0
  190.4940  174.4370  137.0040 C   0  0  0  0  0  1  0  0  0  0  0  0
  192.7360  174.6770  137.5820 C   0  0  0  0  0  1  0  0  0  0  0  0
  191.3890  175.0670  137.9580 N   0  0  0  0  0  0  0  0  0  0  0  0
  1 10  2  0  0  0  0
  2 14  1  0  0  0  0
  3  9  1  0  0  0  0
  4 17  1  6  0  0  0
  4  8  1  0  0  0  0
  5  4  1  0  0  0  0
  5  1  1  0  0  0  0
  6 11  1  0  0  0  0
  8  6  1  0  0  0  0
 10  9  1  0  0  0  0
 10 11  1  0  0  0  0
 11  7  1  1  0  0  0
 12 31  1  6  0  0  0
 12  2  1  0  0  0  0
 13 12  1  0  0  0  0
 13 15  1  0  0  0  0
 14  3  1  0  0  0  0
 15 16  1  0  0  0  0
 16 14  2  0  0  0  0
 16  1  1  0  0  0  0
 17 22  1  0  0  0  0
 18 23  2  0  0  0  0
 18 20  1  0  0  0  0
 19 21  1  0  0  0  0
 20 21  2  0  0  0  0
 21 29  1  0  0  0  0
 22 19  2  0  0  0  0
 23 22  1  0  0  0  0
 24 26  1  0  0  0  0
 24 25  2  0  0  0  0
 25 28  1  0  0  0  0
 26 20  1  6  0  0  0
 26 25  1  0  0  0  0
 27 28  1  0  0  0  0
 30 29  1  0  0  0  0
 31 34  1  0  0  0  0
 32 34  1  0  0  0  0
 33 34  1  0  0  0  0
M  END
>  <MODEL>
4

>  <REMARK>
 VINA RESULT:      -7.5      2.662      8.100
  Name = 
  6 active torsions:
  status: ('A' for Active; 'I' for Inactive)
    1  A    between atoms: C_8  and  C_18
    2  A    between atoms: C_14  and  C_16
    3  A    between atoms: C_18  and  C_30
    4  A    between atoms: C_23  and  N_24
    5  A    between atoms: C_23  and  C_25
    6  A    between atoms: O_26  and  C_28
                            x       y       z     vdW  Elec       q    Type
                         _______ _______ _______ _____ _____    ______ ____

>  <TORSDO>
F 6

$$$$
=
 OpenBabel10262423253D

 34 38  0  0  1  0  0  0  0  0999 V2000
  188.4890  177.3570  137.7770 C   0  0  0  0  0  0  0  0  0  0  0  0
  185.5330  176.0200  135.6920 C   0  0  0  0  0  2  0  0  0  0  0  0
  187.9870  175.5960  135.7100 O   0  0  0  0  0  0  0  0  0  0  0  0
  189.1340  177.8800  140.1890 C   0  0  2  0  0  3  0  0  0  0  0  0
  188.7620  178.4320  138.8000 C   0  0  0  0  0  2  0  0  0  0  0  0
  191.1180  176.4910  139.3060 C   0  0  0  0  0  2  0  0  0  0  0  0
  191.9990  176.2290  136.9730 C   0  0  0  0  0  1  0  0  0  0  0  0
  189.8470  176.5210  140.1650 C   0  0  0  0  0  2  0  0  0  0  0  0
  189.2310  175.4470  136.3960 C   0  0  0  0  0  2  0  0  0  0  0  0
  189.5110  176.6120  137.3100 C   0  0  0  0  0  0  0  0  0  0  0  0
  190.9140  176.8630  137.8280 C   0  0  1  0  0  3  0  0  0  0  0  0
  184.5040  177.0770  136.0890 C   0  0  2  0  0  3  0  0  0  0  0  0
  184.6050  177.3710  137.5780 C   0  0  0  0  0  2  0  0  0  0  0  0
  186.9010  176.2820  136.2660 C   0  0  0  0  0  0  0  0  0  0  0  0
  185.9800  177.9560  137.8730 C   0  0  0  0  0  2  0  0  0  0  0  0
  187.1040  177.1250  137.3010 C   0  0  0  0  0  0  0  0  0  0  0  0
  187.8930  177.7640  141.0640 C   0  0  0  0  0  2  0  0  0  0  0  0
  187.7620  177.1310  144.7910 C   0  0  0  0  0  3  0  0  0  0  0  0
  189.3830  178.4620  142.9520 C   0  0  0  0  0  3  0  0  0  0  0  0
  188.8850  177.8400  145.2490 C   0  0  0  0  0  0  0  0  0  0  0  0
  189.7180  178.4920  144.3160 C   0  0  0  0  0  0  0  0  0  0  0  0
  188.2470  177.7770  142.5120 C   0  0  0  0  0  0  0  0  0  0  0  0
  187.4410  177.1070  143.4340 C   0  0  0  0  0  3  0  0  0  0  0  0
  189.0160  176.5640  147.2370 N   0  0  0  0  0  0  0  0  0  0  0  0
  190.3200  177.0110  146.9400 C   0  0  0  0  0  0  0  0  0  0  0  0
  189.2360  177.8080  146.7150 C   0  0  1  0  0  3  0  0  0  0  0  0
  192.2730  175.5240  147.3490 C   0  0  0  0  0  1  0  0  0  0  0  0
  191.7250  176.7870  146.8980 N   0  0  0  0  0  2  0  0  0  0  0  0
  190.8680  179.1580  144.7570 O   0  0  0  0  0  0  0  0  0  0  0  0
  192.1180  179.0630  144.0870 C   0  0  0  0  0  1  0  0  0  0  0  0
  183.0930  176.6440  135.7020 C   0  0  0  0  0  2  0  0  0  0  0  0
  181.5440  178.2820  135.0970 C   0  0  0  0  0  1  0  0  0  0  0  0
  181.0150  176.7430  136.7610 C   0  0  0  0  0  1  0  0  0  0  0  0
  182.0920  177.5600  136.2310 N   0  0  0  0  0  0  0  0  0  0  0  0
  1  5  1  0  0  0  0
  2 12  1  0  0  0  0
  2 14  1  0  0  0  0
  3 14  1  0  0  0  0
  3  9  1  0  0  0  0
  4 17  1  1  0  0  0
  5  4  1  0  0  0  0
  6  8  1  0  0  0  0
  8  4  1  0  0  0  0
  9 10  1  0  0  0  0
 10  1  2  0  0  0  0
 10 11  1  0  0  0  0
 11  7  1  6  0  0  0
 11  6  1  0  0  0  0
 12 31  1  1  0  0  0
 12 13  1  0  0  0  0
 13 15  1  0  0  0  0
 14 16  2  0  0  0  0
 16  1  1  0  0  0  0
 16 15  1  0  0  0  0
 17 22  1  0  0  0  0
 18 20  1  0  0  0  0
 19 21  1  0  0  0  0
 21 29  1  0  0  0  0
 21 20  2  0  0  0  0
 22 19  2  0  0  0  0
 22 23  1  0  0  0  0
 23 18  2  0  0  0  0
 25 24  2  0  0  0  0
 26 20  1  6  0  0  0
 26 25  1  0  0  0  0
 26 24  1  0  0  0  0
 28 25  1  0  0  0  0
 28 27  1  0  0  0  0
 30 29  1  0  0  0  0
 31 34  1  0  0  0  0
 32 34  1  0  0  0  0
 34 33  1  0  0  0  0
M  END
>  <MODEL>
5

>  <REMARK>
 VINA RESULT:      -7.5      3.683      7.978
  Name = 
  6 active torsions:
  status: ('A' for Active; 'I' for Inactive)
    1  A    between atoms: C_8  and  C_18
    2  A    between atoms: C_14  and  C_16
    3  A    between atoms: C_18  and  C_30
    4  A    between atoms: C_23  and  N_24
    5  A    between atoms: C_23  and  C_25
    6  A    between atoms: O_26  and  C_28
                            x       y       z     vdW  Elec       q    Type
                         _______ _______ _______ _____ _____    ______ ____

>  <TORSDO>
F 6

$$$$
=
 OpenBabel10262423253D

 34 38  0  0  1  0  0  0  0  0999 V2000
  190.0190  176.1950  137.3470 C   0  0  0  0  0  0  0  0  0  0  0  0
  193.0790  175.4720  135.1140 C   0  0  0  0  0  2  0  0  0  0  0  0
  190.8020  176.3930  134.7070 O   0  0  0  0  0  0  0  0  0  0  0  0
  189.4120  177.2200  139.6040 C   0  0  2  0  0  3  0  0  0  0  0  0
  189.5590  175.9380  138.7620 C   0  0  0  0  0  2  0  0  0  0  0  0
  187.7670  178.3290  137.9580 C   0  0  0  0  0  2  0  0  0  0  0  0
  186.8360  177.4890  135.7870 C   0  0  0  0  0  1  0  0  0  0  0  0
  189.0430  178.4730  138.7980 C   0  0  0  0  0  2  0  0  0  0  0  0
  189.6720  177.1710  135.1030 C   0  0  0  0  0  2  0  0  0  0  0  0
  189.1770  176.7840  136.4740 C   0  0  0  0  0  0  0  0  0  0  0  0
  187.7880  177.1840  136.9320 C   0  0  1  0  0  3  0  0  0  0  0  0
  193.8480  174.5900  136.0970 C   0  0  2  0  0  3  0  0  0  0  0  0
  193.7690  175.1780  137.4980 C   0  0  0  0  0  2  0  0  0  0  0  0
  191.7240  175.8850  135.6280 C   0  0  0  0  0  0  0  0  0  0  0  0
  192.3150  175.1800  137.9490 C   0  0  0  0  0  2  0  0  0  0  0  0
  191.3890  175.8070  136.9340 C   0  0  0  0  0  0  0  0  0  0  0  0
  190.6950  177.4980  140.3760 C   0  0  0  0  0  2  0  0  0  0  0  0
  191.2580  177.8730  144.0980 C   0  0  0  0  0  3  0  0  0  0  0  0
  189.1820  177.2230  142.3520 C   0  0  0  0  0  3  0  0  0  0  0  0
  189.9970  177.5400  144.6200 C   0  0  0  0  0  0  0  0  0  0  0  0
  188.9410  177.2350  143.7360 C   0  0  0  0  0  0  0  0  0  0  0  0
  190.4470  177.5290  141.8460 C   0  0  0  0  0  0  0  0  0  0  0  0
  191.4830  177.8590  142.7210 C   0  0  0  0  0  3  0  0  0  0  0  0
  189.4370  176.3800  146.6040 N   0  0  0  0  0  0  0  0  0  0  0  0
  190.7280  176.9180  146.7850 C   0  0  0  0  0  0  0  0  0  0  0  0
  189.7670  177.6110  146.1080 C   0  0  1  0  0  3  0  0  0  0  0  0
  192.4620  175.6200  148.0110 C   0  0  0  0  0  1  0  0  0  0  0  0
  192.0540  176.8100  147.2900 N   0  0  0  0  0  2  0  0  0  0  0  0
  187.6670  176.9530  144.2440 O   0  0  0  0  0  0  0  0  0  0  0  0
  186.5910  177.8790  144.1860 C   0  0  0  0  0  1  0  0  0  0  0  0
  195.2970  174.4060  135.6530 C   0  0  0  0  0  2  0  0  0  0  0  0
  197.2050  174.5500  136.9880 C   0  0  0  0  0  1  0  0  0  0  0  0
  196.8570  176.1040  135.2920 C   0  0  0  0  0  1  0  0  0  0  0  0
  196.1840  175.3420  136.3280 N   0  0  0  0  0  0  0  0  0  0  0  0
  1  5  1  0  0  0  0
  2 14  1  0  0  0  0
  2 12  1  0  0  0  0
  3  9  1  0  0  0  0
  3 14  1  0  0  0  0
  4 17  1  6  0  0  0
  5  4  1  0  0  0  0
  6  8  1  0  0  0  0
  8  4  1  0  0  0  0
  9 10  1  0  0  0  0
 10 11  1  0  0  0  0
 10  1  2  0  0  0  0
 11  7  1  6  0  0  0
 11  6  1  0  0  0  0
 12 31  1  6  0  0  0
 12 13  1  0  0  0  0
 13 15  1  0  0  0  0
 14 16  2  0  0  0  0
 16  1  1  0  0  0  0
 16 15  1  0  0  0  0
 17 22  1  0  0  0  0
 18 20  1  0  0  0  0
 19 21  1  0  0  0  0
 21 29  1  0  0  0  0
 21 20  2  0  0  0  0
 22 19  2  0  0  0  0
 22 23  1  0  0  0  0
 23 18  2  0  0  0  0
 24 25  2  0  0  0  0
 25 28  1  0  0  0  0
 26 20  1  6  0  0  0
 26 24  1  0  0  0  0
 26 25  1  0  0  0  0
 28 27  1  0  0  0  0
 30 29  1  0  0  0  0
 31 34  1  0  0  0  0
 33 34  1  0  0  0  0
 34 32  1  0  0  0  0
M  END
>  <MODEL>
6

>  <REMARK>
 VINA RESULT:      -7.3      3.838     10.505
  Name = 
  6 active torsions:
  status: ('A' for Active; 'I' for Inactive)
    1  A    between atoms: C_8  and  C_18
    2  A    between atoms: C_14  and  C_16
    3  A    between atoms: C_18  and  C_30
    4  A    between atoms: C_23  and  N_24
    5  A    between atoms: C_23  and  C_25
    6  A    between atoms: O_26  and  C_28
                            x       y       z     vdW  Elec       q    Type
                         _______ _______ _______ _____ _____    ______ ____

>  <TORSDO>
F 6

$$$$
=
 OpenBabel10262423253D

 34 38  0  0  1  0  0  0  0  0999 V2000
  190.0370  176.2730  137.1330 C   0  0  0  0  0  0  0  0  0  0  0  0
  193.2800  175.4270  135.2250 C   0  0  0  0  0  2  0  0  0  0  0  0
  191.1090  176.4730  134.5960 O   0  0  0  0  0  0  0  0  0  0  0  0
  189.2420  177.2900  139.3330 C   0  0  2  0  0  3  0  0  0  0  0  0
  189.4140  176.0170  138.4840 C   0  0  0  0  0  2  0  0  0  0  0  0
  187.8420  178.5110  137.5460 C   0  0  0  0  0  2  0  0  0  0  0  0
  187.1100  177.7570  135.2700 C   0  0  0  0  0  1  0  0  0  0  0  0
  189.0250  178.5740  138.5200 C   0  0  0  0  0  2  0  0  0  0  0  0
  189.9830  177.3030  134.8870 C   0  0  0  0  0  2  0  0  0  0  0  0
  189.3240  176.9190  136.1880 C   0  0  0  0  0  0  0  0  0  0  0  0
  187.9160  177.3840  136.5030 C   0  0  1  0  0  3  0  0  0  0  0  0
  193.8930  174.4910  136.2640 C   0  0  2  0  0  3  0  0  0  0  0  0
  193.6930  175.0580  137.6610 C   0  0  0  0  0  2  0  0  0  0  0  0
  191.9000  175.9020  135.5990 C   0  0  0  0  0  0  0  0  0  0  0  0
  192.2000  175.1290  137.9540 C   0  0  0  0  0  2  0  0  0  0  0  0
  191.4220  175.8200  136.8600 C   0  0  0  0  0  0  0  0  0  0  0  0
  190.4470  177.4870  140.2440 C   0  0  0  0  0  2  0  0  0  0  0  0
  188.3520  177.2350  143.3850 C   0  0  0  0  0  3  0  0  0  0  0  0
  191.0470  177.3500  142.6720 C   0  0  0  0  0  3  0  0  0  0  0  0
  189.3320  177.2310  144.3910 C   0  0  0  0  0  0  0  0  0  0  0  0
  190.6950  177.2640  144.0290 C   0  0  0  0  0  0  0  0  0  0  0  0
  190.0620  177.3810  141.6810 C   0  0  0  0  0  0  0  0  0  0  0  0
  188.7150  177.3180  142.0400 C   0  0  0  0  0  3  0  0  0  0  0  0
  188.9800  178.2970  146.4730 N   0  0  0  0  0  0  0  0  0  0  0  0
  187.7440  177.7510  146.0700 C   0  0  0  0  0  0  0  0  0  0  0  0
  188.9150  177.0910  145.8330 C   0  0  1  0  0  3  0  0  0  0  0  0
  185.6300  178.9890  146.5030 C   0  0  0  0  0  1  0  0  0  0  0  0
  186.3270  177.8350  145.9720 N   0  0  0  0  0  2  0  0  0  0  0  0
  191.6800  177.2080  145.0230 O   0  0  0  0  0  0  0  0  0  0  0  0
  191.8180  176.1070  145.9110 C   0  0  0  0  0  1  0  0  0  0  0  0
  195.3700  174.2380  135.9730 C   0  0  0  0  0  2  0  0  0  0  0  0
  197.2320  174.5070  137.3550 C   0  0  0  0  0  1  0  0  0  0  0  0
  196.9070  175.9440  135.5540 C   0  0  0  0  0  1  0  0  0  0  0  0
  196.2160  175.2340  136.6150 N   0  0  0  0  0  0  0  0  0  0  0  0
  1  5  1  0  0  0  0
  2 14  1  0  0  0  0
  2 12  1  0  0  0  0
  3  9  1  0  0  0  0
  3 14  1  0  0  0  0
  4 17  1  6  0  0  0
  5  4  1  0  0  0  0
  6  8  1  0  0  0  0
  8  4  1  0  0  0  0
  9 10  1  0  0  0  0
 10 11  1  0  0  0  0
 10  1  2  0  0  0  0
 11  7  1  6  0  0  0
 11  6  1  0  0  0  0
 12 31  1  6  0  0  0
 12 13  1  0  0  0  0
 13 15  1  0  0  0  0
 14 16  2  0  0  0  0
 16  1  1  0  0  0  0
 16 15  1  0  0  0  0
 17 22  1  0  0  0  0
 18 20  1  0  0  0  0
 19 21  1  0  0  0  0
 21 20  2  0  0  0  0
 21 29  1  0  0  0  0
 22 23  1  0  0  0  0
 22 19  2  0  0  0  0
 23 18  2  0  0  0  0
 25 24  2  0  0  0  0
 26 20  1  6  0  0  0
 26 25  1  0  0  0  0
 26 24  1  0  0  0  0
 28 25  1  0  0  0  0
 28 27  1  0  0  0  0
 29 30  1  0  0  0  0
 31 34  1  0  0  0  0
 33 34  1  0  0  0  0
 34 32  1  0  0  0  0
M  END
>  <MODEL>
7

>  <REMARK>
 VINA RESULT:      -7.3      3.649     10.634
  Name = 
  6 active torsions:
  status: ('A' for Active; 'I' for Inactive)
    1  A    between atoms: C_8  and  C_18
    2  A    between atoms: C_14  and  C_16
    3  A    between atoms: C_18  and  C_30
    4  A    between atoms: C_23  and  N_24
    5  A    between atoms: C_23  and  C_25
    6  A    between atoms: O_26  and  C_28
                            x       y       z     vdW  Elec       q    Type
                         _______ _______ _______ _____ _____    ______ ____

>  <TORSDO>
F 6

$$$$
