=
 OpenBabel10262420073D

 27 31  0  0  1  0  0  0  0  0999 V2000
  189.9970  177.8230  141.2440 N   0  0  0  0  0  2  0  0  0  0  0  0
  187.5580  177.8690  141.4060 C   0  0  0  0  0  0  0  0  0  0  0  0
  188.2670  176.3800  143.2880 C   0  0  0  0  0  2  0  0  0  0  0  0
  184.2580  179.4500  143.6440 C   0  0  0  0  0  2  0  0  0  0  0  0
  183.1840  179.2910  145.7680 O   0  0  0  0  0  0  0  0  0  0  0  0
  186.7090  178.8570  140.8870 C   0  0  0  0  0  3  0  0  0  0  0  0
  186.0200  177.4270  144.7910 N   0  0  0  0  0  0  0  0  0  0  0  0
  191.3190  177.3970  145.2580 C   0  0  0  0  0  0  0  0  0  0  0  0
  185.0460  177.8640  145.5270 C   0  0  0  0  0  3  0  0  0  0  0  0
  191.7710  177.2780  146.5650 O   0  0  0  0  0  1  0  0  0  0  0  0
  186.2580  177.8990  143.4560 C   0  0  0  0  0  0  0  0  0  0  0  0
  188.7530  177.3480  140.6450 C   0  0  1  0  0  3  0  0  0  0  0  0
  184.1160  178.8850  145.0260 C   0  0  0  0  0  0  0  0  0  0  0  0
  185.4230  178.8800  142.8850 C   0  0  0  0  0  0  0  0  0  0  0  0
  190.4060  177.6370  142.6100 C   0  0  0  0  0  0  0  0  0  0  0  0
  187.3310  177.3950  142.7050 C   0  0  0  0  0  0  0  0  0  0  0  0
  190.0750  176.8750  144.9010 C   0  0  0  0  0  3  0  0  0  0  0  0
  185.6720  179.3290  141.6260 N   0  0  0  0  0  0  0  0  0  0  0  0
  192.1060  178.0360  144.3010 C   0  0  0  0  0  3  0  0  0  0  0  0
  191.6500  178.1560  142.9870 C   0  0  0  0  0  3  0  0  0  0  0  0
  189.6030  176.9890  143.5880 C   0  0  0  0  0  0  0  0  0  0  0  0
  188.5980  178.1180  136.4150 C   0  0  0  0  0  3  0  0  0  0  0  0
  188.7220  177.6240  139.1700 C   0  0  0  0  0  0  0  0  0  0  0  0
  188.1720  176.6680  138.3090 C   0  0  0  0  0  3  0  0  0  0  0  0
  188.1130  176.9130  136.9330 C   0  0  0  0  0  3  0  0  0  0  0  0
  189.1410  179.0790  137.2720 C   0  0  0  0  0  3  0  0  0  0  0  0
  189.2010  178.8350  138.6470 C   0  0  0  0  0  3  0  0  0  0  0  0
  1 15  1  0  0  0  0
  2 16  1  0  0  0  0
  3 21  1  0  0  0  0
  4 13  1  0  0  0  0
  6  2  2  0  0  0  0
  6 18  1  0  0  0  0
  7  9  2  0  0  0  0
  8 10  1  0  0  0  0
 11  7  1  0  0  0  0
 12 23  1  6  0  0  0
 12  1  1  0  0  0  0
 12  2  1  0  0  0  0
 13  9  1  0  0  0  0
 13  5  2  0  0  0  0
 14 11  1  0  0  0  0
 14  4  1  0  0  0  0
 15 20  2  0  0  0  0
 15 21  1  0  0  0  0
 16  3  1  0  0  0  0
 16 11  2  0  0  0  0
 17  8  1  0  0  0  0
 18 14  2  0  0  0  0
 19  8  2  0  0  0  0
 20 19  1  0  0  0  0
 21 17  2  0  0  0  0
 22 25  2  0  0  0  0
 22 26  1  0  0  0  0
 24 23  2  0  0  0  0
 25 24  1  0  0  0  0
 26 27  2  0  0  0  0
 27 23  1  0  0  0  0
M  END
>  <MODEL>
1

>  <REMARK>
 VINA RESULT:      -9.1      0.000      0.000
  Name = 
  1 active torsions:
  status: ('A' for Active; 'I' for Inactive)
    1  A    between atoms: C_9  and  C_15
                            x       y       z     vdW  Elec       q    Type
                         _______ _______ _______ _____ _____    ______ ____

>  <TORSDO>
F 1

$$$$
=
 OpenBabel10262420073D

 27 31  0  0  1  0  0  0  0  0999 V2000
  187.0680  178.1950  142.0500 N   0  0  0  0  0  2  0  0  0  0  0  0
  187.4640  177.5420  144.3730 C   0  0  0  0  0  0  0  0  0  0  0  0
  188.8470  175.9360  143.0430 C   0  0  0  0  0  2  0  0  0  0  0  0
  190.3200  177.6530  147.5720 C   0  0  0  0  0  2  0  0  0  0  0  0
  192.4300  176.7600  148.2340 O   0  0  0  0  0  0  0  0  0  0  0  0
  187.2850  178.3490  145.5050 C   0  0  0  0  0  3  0  0  0  0  0  0
  190.7640  175.9890  145.2160 N   0  0  0  0  0  0  0  0  0  0  0  0
  190.7130  177.3010  140.0620 C   0  0  0  0  0  0  0  0  0  0  0  0
  191.6740  175.9780  146.1420 C   0  0  0  0  0  3  0  0  0  0  0  0
  191.9020  177.0340  139.3980 O   0  0  0  0  0  1  0  0  0  0  0  0
  189.5710  176.7810  145.3090 C   0  0  0  0  0  0  0  0  0  0  0  0
  186.4900  177.5390  143.2200 C   0  0  1  0  0  3  0  0  0  0  0  0
  191.5270  176.7900  147.3570 C   0  0  0  0  0  0  0  0  0  0  0  0
  189.3390  177.5960  146.4340 C   0  0  0  0  0  0  0  0  0  0  0  0
  188.3030  177.8410  141.4030 C   0  0  0  0  0  0  0  0  0  0  0  0
  188.6220  176.7590  144.2750 C   0  0  0  0  0  0  0  0  0  0  0  0
  190.3560  176.5490  141.1820 C   0  0  0  0  0  3  0  0  0  0  0  0
  188.2110  178.3530  146.4990 N   0  0  0  0  0  0  0  0  0  0  0  0
  189.8740  178.3180  139.6100 C   0  0  0  0  0  3  0  0  0  0  0  0
  188.6780  178.5860  140.2790 C   0  0  0  0  0  3  0  0  0  0  0  0
  189.1620  176.8060  141.8640 C   0  0  0  0  0  0  0  0  0  0  0  0
  182.5850  179.1100  144.1090 C   0  0  0  0  0  3  0  0  0  0  0  0
  185.1380  178.1030  143.5440 C   0  0  0  0  0  0  0  0  0  0  0  0
  184.2170  178.3060  142.5100 C   0  0  0  0  0  3  0  0  0  0  0  0
  182.9440  178.8110  142.7910 C   0  0  0  0  0  3  0  0  0  0  0  0
  183.4980  178.9020  145.1470 C   0  0  0  0  0  3  0  0  0  0  0  0
  184.7710  178.3970  144.8670 C   0  0  0  0  0  3  0  0  0  0  0  0
  1 12  1  0  0  0  0
  2  6  1  0  0  0  0
  3 16  1  0  0  0  0
  6 18  2  0  0  0  0
  7 11  1  0  0  0  0
  7  9  2  0  0  0  0
  8 17  1  0  0  0  0
  9 13  1  0  0  0  0
 10  8  1  0  0  0  0
 11 14  2  0  0  0  0
 12 23  1  1  0  0  0
 12  2  1  0  0  0  0
 13  4  1  0  0  0  0
 13  5  2  0  0  0  0
 14 18  1  0  0  0  0
 14  4  1  0  0  0  0
 15 21  1  0  0  0  0
 15  1  1  0  0  0  0
 16  2  2  0  0  0  0
 16 11  1  0  0  0  0
 17 21  2  0  0  0  0
 19  8  2  0  0  0  0
 19 20  1  0  0  0  0
 20 15  2  0  0  0  0
 21  3  1  0  0  0  0
 22 26  1  0  0  0  0
 23 27  1  0  0  0  0
 24 25  1  0  0  0  0
 24 23  2  0  0  0  0
 25 22  2  0  0  0  0
 27 26  2  0  0  0  0
M  END
>  <MODEL>
2

>  <REMARK>
 VINA RESULT:      -8.9      2.719      5.935
  Name = 
  1 active torsions:
  status: ('A' for Active; 'I' for Inactive)
    1  A    between atoms: C_9  and  C_15
                            x       y       z     vdW  Elec       q    Type
                         _______ _______ _______ _____ _____    ______ ____

>  <TORSDO>
F 1

$$$$
=
 OpenBabel10262420073D

 27 31  0  0  1  0  0  0  0  0999 V2000
  185.9940  178.3810  141.7990 N   0  0  0  0  0  2  0  0  0  0  0  0
  185.6810  178.1110  144.2090 C   0  0  0  0  0  0  0  0  0  0  0  0
  187.4510  176.4390  143.6320 C   0  0  0  0  0  2  0  0  0  0  0  0
  187.4180  178.9160  148.0470 C   0  0  0  0  0  2  0  0  0  0  0  0
  189.2510  178.2980  149.4430 O   0  0  0  0  0  0  0  0  0  0  0  0
  185.1410  179.0600  145.0880 C   0  0  0  0  0  3  0  0  0  0  0  0
  188.6100  176.9610  146.2370 N   0  0  0  0  0  0  0  0  0  0  0  0
  190.0980  177.4890  141.1570 C   0  0  0  0  0  0  0  0  0  0  0  0
  189.1930  177.1580  147.3800 C   0  0  0  0  0  3  0  0  0  0  0  0
  191.4400  177.2210  140.9300 O   0  0  0  0  0  1  0  0  0  0  0  0
  187.4230  177.6630  145.8390 C   0  0  0  0  0  0  0  0  0  0  0  0
  185.1060  177.8610  142.8350 C   0  0  1  0  0  3  0  0  0  0  0  0
  188.6590  178.1270  148.3460 C   0  0  0  0  0  0  0  0  0  0  0  0
  186.8340  178.6150  146.6950 C   0  0  0  0  0  0  0  0  0  0  0  0
  187.3780  178.0320  141.6150 C   0  0  0  0  0  0  0  0  0  0  0  0
  186.8360  177.4150  144.5890 C   0  0  0  0  0  0  0  0  0  0  0  0
  189.4380  176.8850  142.2290 C   0  0  0  0  0  3  0  0  0  0  0  0
  185.7190  179.2830  146.2970 N   0  0  0  0  0  0  0  0  0  0  0  0
  189.4070  178.3600  140.3160 C   0  0  0  0  0  3  0  0  0  0  0  0
  188.0560  178.6290  140.5460 C   0  0  0  0  0  3  0  0  0  0  0  0
  188.0850  177.1470  142.4730 C   0  0  0  0  0  0  0  0  0  0  0  0
  181.0750  179.2430  142.2460 C   0  0  0  0  0  3  0  0  0  0  0  0
  183.7040  178.3610  142.6460 C   0  0  0  0  0  0  0  0  0  0  0  0
  183.2010  178.5080  141.3490 C   0  0  0  0  0  3  0  0  0  0  0  0
  181.8900  178.9510  141.1480 C   0  0  0  0  0  3  0  0  0  0  0  0
  181.5690  179.0900  143.5450 C   0  0  0  0  0  3  0  0  0  0  0  0
  182.8800  178.6470  143.7460 C   0  0  0  0  0  3  0  0  0  0  0  0
  1 12  1  0  0  0  0
  2 16  2  0  0  0  0
  2  6  1  0  0  0  0
  3 16  1  0  0  0  0
  4 13  1  0  0  0  0
  6 18  2  0  0  0  0
  7  9  2  0  0  0  0
  8 17  1  0  0  0  0
  9 13  1  0  0  0  0
 10  8  1  0  0  0  0
 11  7  1  0  0  0  0
 11 14  2  0  0  0  0
 12 23  1  1  0  0  0
 12  2  1  0  0  0  0
 13  5  2  0  0  0  0
 14  4  1  0  0  0  0
 15  1  1  0  0  0  0
 15 21  1  0  0  0  0
 16 11  1  0  0  0  0
 17 21  2  0  0  0  0
 18 14  1  0  0  0  0
 19 20  1  0  0  0  0
 19  8  2  0  0  0  0
 20 15  2  0  0  0  0
 21  3  1  0  0  0  0
 22 26  1  0  0  0  0
 23 27  1  0  0  0  0
 24 23  2  0  0  0  0
 25 24  1  0  0  0  0
 25 22  2  0  0  0  0
 26 27  2  0  0  0  0
M  END
>  <MODEL>
3

>  <REMARK>
 VINA RESULT:      -8.8      2.694      5.320
  Name = 
  1 active torsions:
  status: ('A' for Active; 'I' for Inactive)
    1  A    between atoms: C_9  and  C_15
                            x       y       z     vdW  Elec       q    Type
                         _______ _______ _______ _____ _____    ______ ____

>  <TORSDO>
F 1

$$$$
=
 OpenBabel10262420073D

 27 31  0  0  1  0  0  0  0  0999 V2000
  190.1320  177.0190  141.9420 N   0  0  0  0  0  2  0  0  0  0  0  0
  188.0440  177.9630  142.7960 C   0  0  0  0  0  0  0  0  0  0  0  0
  188.4670  179.2310  140.6820 C   0  0  0  0  0  2  0  0  0  0  0  0
  183.7930  178.0610  142.2330 C   0  0  0  0  0  2  0  0  0  0  0  0
  182.1180  178.8500  140.7290 O   0  0  0  0  0  0  0  0  0  0  0  0
  187.1580  177.3450  143.6900 C   0  0  0  0  0  3  0  0  0  0  0  0
  185.5940  179.3230  140.3140 N   0  0  0  0  0  0  0  0  0  0  0  0
  189.7690  177.2930  137.7190 C   0  0  0  0  0  0  0  0  0  0  0  0
  184.3190  179.3870  140.0770 C   0  0  0  0  0  3  0  0  0  0  0  0
  189.6620  177.3550  136.3360 O   0  0  0  0  0  1  0  0  0  0  0  0
  186.1370  178.6610  141.4660 C   0  0  0  0  0  0  0  0  0  0  0  0
  189.5430  177.8860  142.9590 C   0  0  1  0  0  3  0  0  0  0  0  0
  183.3470  178.7740  140.9910 C   0  0  0  0  0  0  0  0  0  0  0  0
  185.2870  178.0400  142.4020 C   0  0  0  0  0  0  0  0  0  0  0  0
  189.9910  177.1660  140.5180 C   0  0  0  0  0  0  0  0  0  0  0  0
  187.5240  178.6180  141.6720 C   0  0  0  0  0  0  0  0  0  0  0  0
  189.1020  178.2270  138.5130 C   0  0  0  0  0  3  0  0  0  0  0  0
  185.8180  177.4030  143.4790 N   0  0  0  0  0  0  0  0  0  0  0  0
  190.5440  176.2990  138.3150 C   0  0  0  0  0  3  0  0  0  0  0  0
  190.6520  176.2370  139.7060 C   0  0  0  0  0  3  0  0  0  0  0  0
  189.1980  178.1760  139.9080 C   0  0  0  0  0  0  0  0  0  0  0  0
  190.9200  176.7850  146.8840 C   0  0  0  0  0  3  0  0  0  0  0  0
  190.0010  177.4950  144.3340 C   0  0  0  0  0  0  0  0  0  0  0  0
  191.1770  176.7500  144.4750 C   0  0  0  0  0  3  0  0  0  0  0  0
  191.6350  176.3940  145.7480 C   0  0  0  0  0  3  0  0  0  0  0  0
  189.7490  177.5360  146.7490 C   0  0  0  0  0  3  0  0  0  0  0  0
  189.2910  177.8940  145.4780 C   0  0  0  0  0  3  0  0  0  0  0  0
  1 12  1  0  0  0  0
  2 12  1  0  0  0  0
  2  6  1  0  0  0  0
  3 16  1  0  0  0  0
  4 14  1  0  0  0  0
  5 13  2  0  0  0  0
  7 11  1  0  0  0  0
  8 19  2  0  0  0  0
  8 17  1  0  0  0  0
  9  7  2  0  0  0  0
  9 13  1  0  0  0  0
 10  8  1  0  0  0  0
 11 16  1  0  0  0  0
 11 14  2  0  0  0  0
 12 23  1  1  0  0  0
 13  4  1  0  0  0  0
 14 18  1  0  0  0  0
 15  1  1  0  0  0  0
 16  2  2  0  0  0  0
 17 21  2  0  0  0  0
 18  6  2  0  0  0  0
 19 20  1  0  0  0  0
 20 15  2  0  0  0  0
 21 15  1  0  0  0  0
 21  3  1  0  0  0  0
 23 24  2  0  0  0  0
 23 27  1  0  0  0  0
 24 25  1  0  0  0  0
 25 22  2  0  0  0  0
 26 22  1  0  0  0  0
 27 26  2  0  0  0  0
M  END
>  <MODEL>
4

>  <REMARK>
 VINA RESULT:      -8.4      2.702      5.662
  Name = 
  1 active torsions:
  status: ('A' for Active; 'I' for Inactive)
    1  A    between atoms: C_9  and  C_15
                            x       y       z     vdW  Elec       q    Type
                         _______ _______ _______ _____ _____    ______ ____

>  <TORSDO>
F 1

$$$$
=
 OpenBabel10262420073D

 27 31  0  0  1  0  0  0  0  0999 V2000
  187.9180  177.3570  145.8430 N   0  0  0  0  0  2  0  0  0  0  0  0
  188.2180  177.9750  143.4960 C   0  0  0  0  0  0  0  0  0  0  0  0
  190.3970  178.5750  144.5690 C   0  0  0  0  0  2  0  0  0  0  0  0
  190.1180  176.8380  139.8220 C   0  0  0  0  0  2  0  0  0  0  0  0
  192.2630  176.6730  138.7930 O   0  0  0  0  0  0  0  0  0  0  0  0
  187.4940  177.4730  142.4060 C   0  0  0  0  0  3  0  0  0  0  0  0
  191.6800  177.8340  142.0770 N   0  0  0  0  0  0  0  0  0  0  0  0
  191.7920  176.1860  147.1330 C   0  0  0  0  0  0  0  0  0  0  0  0
  192.3220  177.5030  140.9990 C   0  0  0  0  0  3  0  0  0  0  0  0
  193.0460  175.7800  147.5690 O   0  0  0  0  0  1  0  0  0  0  0  0
  190.2530  177.7250  142.1970 C   0  0  0  0  0  0  0  0  0  0  0  0
  187.5630  178.3260  144.8100 C   0  0  1  0  0  3  0  0  0  0  0  0
  191.6100  176.9900  139.8210 C   0  0  0  0  0  0  0  0  0  0  0  0
  189.4800  177.2410  141.1230 C   0  0  0  0  0  0  0  0  0  0  0  0
  189.2510  177.0080  146.2550 C   0  0  0  0  0  0  0  0  0  0  0  0
  189.6100  178.0930  143.3880 C   0  0  0  0  0  0  0  0  0  0  0  0
  191.6810  177.1270  146.1090 C   0  0  0  0  0  3  0  0  0  0  0  0
  188.1320  177.1290  141.2580 N   0  0  0  0  0  0  0  0  0  0  0  0
  190.6440  175.6550  147.7190 C   0  0  0  0  0  3  0  0  0  0  0  0
  189.3830  176.0630  147.2800 C   0  0  0  0  0  3  0  0  0  0  0  0
  190.4240  177.5450  145.6570 C   0  0  0  0  0  0  0  0  0  0  0  0
  183.3030  178.9090  144.6470 C   0  0  0  0  0  3  0  0  0  0  0  0
  186.0760  178.5150  144.7340 C   0  0  0  0  0  0  0  0  0  0  0  0
  185.3170  178.4340  145.9070 C   0  0  0  0  0  3  0  0  0  0  0  0
  183.9330  178.6280  145.8640 C   0  0  0  0  0  3  0  0  0  0  0  0
  184.0580  178.9990  143.4740 C   0  0  0  0  0  3  0  0  0  0  0  0
  185.4410  178.8060  143.5160 C   0  0  0  0  0  3  0  0  0  0  0  0
  1 15  1  0  0  0  0
  2 12  1  0  0  0  0
  3 21  1  0  0  0  0
  4 14  1  0  0  0  0
  5 13  2  0  0  0  0
  6  2  2  0  0  0  0
  7 11  1  0  0  0  0
  8 10  1  0  0  0  0
  8 19  1  0  0  0  0
  9  7  2  0  0  0  0
 11 16  2  0  0  0  0
 12 23  1  6  0  0  0
 12  1  1  0  0  0  0
 13  4  1  0  0  0  0
 13  9  1  0  0  0  0
 14 18  2  0  0  0  0
 14 11  1  0  0  0  0
 15 20  1  0  0  0  0
 16  2  1  0  0  0  0
 16  3  1  0  0  0  0
 17  8  2  0  0  0  0
 18  6  1  0  0  0  0
 20 19  2  0  0  0  0
 21 17  1  0  0  0  0
 21 15  2  0  0  0  0
 22 25  1  0  0  0  0
 23 24  1  0  0  0  0
 25 24  2  0  0  0  0
 26 27  1  0  0  0  0
 26 22  2  0  0  0  0
 27 23  2  0  0  0  0
M  END
>  <MODEL>
5

>  <REMARK>
 VINA RESULT:      -8.3      2.823      6.101
  Name = 
  1 active torsions:
  status: ('A' for Active; 'I' for Inactive)
    1  A    between atoms: C_9  and  C_15
                            x       y       z     vdW  Elec       q    Type
                         _______ _______ _______ _____ _____    ______ ____

>  <TORSDO>
F 1

$$$$
=
 OpenBabel10262420073D

 27 31  0  0  1  0  0  0  0  0999 V2000
  188.6360  177.7480  146.4900 N   0  0  0  0  0  2  0  0  0  0  0  0
  190.0690  177.0150  144.6490 C   0  0  0  0  0  0  0  0  0  0  0  0
  187.7690  176.3270  143.9440 C   0  0  0  0  0  2  0  0  0  0  0  0
  191.2560  177.8780  140.6190 C   0  0  0  0  0  2  0  0  0  0  0  0
  190.4370  177.8660  138.3790 O   0  0  0  0  0  0  0  0  0  0  0  0
  191.3410  177.5150  144.3370 C   0  0  0  0  0  3  0  0  0  0  0  0
  188.5790  176.8820  141.2170 N   0  0  0  0  0  0  0  0  0  0  0  0
  184.9440  178.7310  144.6320 C   0  0  0  0  0  0  0  0  0  0  0  0
  188.8670  177.1280  139.9760 C   0  0  0  0  0  3  0  0  0  0  0  0
  183.7360  179.0760  144.0420 O   0  0  0  0  0  1  0  0  0  0  0  0
  189.5150  177.0840  142.2870 C   0  0  0  0  0  0  0  0  0  0  0  0
  189.6260  176.7610  146.0700 C   0  0  1  0  0  3  0  0  0  0  0  0
  190.1910  177.6340  139.5910 C   0  0  0  0  0  0  0  0  0  0  0  0
  190.8110  177.5700  142.0210 C   0  0  0  0  0  0  0  0  0  0  0  0
  187.3890  178.0310  145.8320 C   0  0  0  0  0  0  0  0  0  0  0  0
  189.1490  176.8070  143.6120 C   0  0  0  0  0  0  0  0  0  0  0  0
  185.7530  177.7560  144.0470 C   0  0  0  0  0  3  0  0  0  0  0  0
  191.6800  177.7710  143.0470 N   0  0  0  0  0  0  0  0  0  0  0  0
  185.3500  179.3560  145.8110 C   0  0  0  0  0  3  0  0  0  0  0  0
  186.5650  179.0080  146.4040 C   0  0  0  0  0  3  0  0  0  0  0  0
  186.9750  177.3980  144.6280 C   0  0  0  0  0  0  0  0  0  0  0  0
  192.8810  176.4640  148.8670 C   0  0  0  0  0  3  0  0  0  0  0  0
  190.7460  176.6610  147.0640 C   0  0  0  0  0  0  0  0  0  0  0  0
  191.6810  175.6280  146.9360 C   0  0  0  0  0  3  0  0  0  0  0  0
  192.7450  175.5270  147.8380 C   0  0  0  0  0  3  0  0  0  0  0  0
  191.9540  177.5030  148.9940 C   0  0  0  0  0  3  0  0  0  0  0  0
  190.8900  177.6040  148.0940 C   0  0  0  0  0  3  0  0  0  0  0  0
  2 12  1  0  0  0  0
  3 21  1  0  0  0  0
  4 14  1  0  0  0  0
  5 13  2  0  0  0  0
  6  2  1  0  0  0  0
  7 11  1  0  0  0  0
  8 19  1  0  0  0  0
  9  7  2  0  0  0  0
 10  8  1  0  0  0  0
 11 16  1  0  0  0  0
 12  1  1  0  0  0  0
 12 23  1  1  0  0  0
 13  9  1  0  0  0  0
 13  4  1  0  0  0  0
 14 11  2  0  0  0  0
 14 18  1  0  0  0  0
 15 20  1  0  0  0  0
 15  1  1  0  0  0  0
 16  3  1  0  0  0  0
 16  2  2  0  0  0  0
 17 21  1  0  0  0  0
 17  8  2  0  0  0  0
 18  6  2  0  0  0  0
 19 20  2  0  0  0  0
 21 15  2  0  0  0  0
 22 26  1  0  0  0  0
 23 27  1  0  0  0  0
 24 23  2  0  0  0  0
 24 25  1  0  0  0  0
 25 22  2  0  0  0  0
 27 26  2  0  0  0  0
M  END
>  <MODEL>
6

>  <REMARK>
 VINA RESULT:      -8.0      2.592      7.388
  Name = 
  1 active torsions:
  status: ('A' for Active; 'I' for Inactive)
    1  A    between atoms: C_9  and  C_15
                            x       y       z     vdW  Elec       q    Type
                         _______ _______ _______ _____ _____    ______ ____

>  <TORSDO>
F 1

$$$$
=
 OpenBabel10262420073D

 27 31  0  0  1  0  0  0  0  0999 V2000
  187.7260  177.7140  143.8330 N   0  0  0  0  0  2  0  0  0  0  0  0
  188.5930  177.9690  141.5610 C   0  0  0  0  0  0  0  0  0  0  0  0
  190.4240  178.8590  143.0160 C   0  0  0  0  0  2  0  0  0  0  0  0
  191.3710  176.3780  138.7070 C   0  0  0  0  0  2  0  0  0  0  0  0
  193.7090  176.1780  138.2740 O   0  0  0  0  0  0  0  0  0  0  0  0
  188.1740  177.2590  140.4270 C   0  0  0  0  0  3  0  0  0  0  0  0
  192.3020  177.8090  141.0740 N   0  0  0  0  0  0  0  0  0  0  0  0
  191.1730  176.9920  146.2070 C   0  0  0  0  0  0  0  0  0  0  0  0
  193.1980  177.3490  140.2570 C   0  0  0  0  0  3  0  0  0  0  0  0
  192.2850  176.7350  146.9980 O   0  0  0  0  0  1  0  0  0  0  0  0
  190.8930  177.6360  140.8590 C   0  0  0  0  0  0  0  0  0  0  0  0
  187.6240  178.4850  142.5970 C   0  0  1  0  0  3  0  0  0  0  0  0
  192.8140  176.6150  139.0440 C   0  0  0  0  0  0  0  0  0  0  0  0
  190.4220  176.9440  139.7250 C   0  0  0  0  0  0  0  0  0  0  0  0
  188.9200  177.5140  144.6110 C   0  0  0  0  0  0  0  0  0  0  0  0
  189.9660  178.1500  141.7780 C   0  0  0  0  0  0  0  0  0  0  0  0
  191.3060  177.7510  145.0440 C   0  0  0  0  0  3  0  0  0  0  0  0
  189.0850  176.7750  139.5450 N   0  0  0  0  0  0  0  0  0  0  0  0
  189.9240  176.4940  146.5760 C   0  0  0  0  0  3  0  0  0  0  0  0
  188.8070  176.7530  145.7800 C   0  0  0  0  0  3  0  0  0  0  0  0
  190.1950  178.0170  144.2350 C   0  0  0  0  0  0  0  0  0  0  0  0
  183.5260  178.7670  141.3170 C   0  0  0  0  0  3  0  0  0  0  0  0
  186.2000  178.5720  142.1300 C   0  0  0  0  0  0  0  0  0  0  0  0
  185.1690  178.2510  143.0200 C   0  0  0  0  0  3  0  0  0  0  0  0
  183.8350  178.3450  142.6140 C   0  0  0  0  0  3  0  0  0  0  0  0
  184.5520  179.0970  140.4260 C   0  0  0  0  0  3  0  0  0  0  0  0
  185.8860  179.0030  140.8310 C   0  0  0  0  0  3  0  0  0  0  0  0
  1 15  1  0  0  0  0
  2 16  1  0  0  0  0
  2 12  1  0  0  0  0
  3 21  1  0  0  0  0
  4 13  1  0  0  0  0
  4 14  1  0  0  0  0
  5 13  2  0  0  0  0
  6  2  2  0  0  0  0
  8 19  1  0  0  0  0
  8 10  1  0  0  0  0
  9  7  2  0  0  0  0
 11  7  1  0  0  0  0
 11 16  2  0  0  0  0
 12 23  1  6  0  0  0
 12  1  1  0  0  0  0
 13  9  1  0  0  0  0
 14 11  1  0  0  0  0
 15 20  1  0  0  0  0
 16  3  1  0  0  0  0
 17  8  2  0  0  0  0
 18 14  2  0  0  0  0
 18  6  1  0  0  0  0
 20 19  2  0  0  0  0
 21 15  2  0  0  0  0
 21 17  1  0  0  0  0
 22 25  1  0  0  0  0
 23 24  1  0  0  0  0
 25 24  2  0  0  0  0
 26 27  1  0  0  0  0
 26 22  2  0  0  0  0
 27 23  2  0  0  0  0
M  END
>  <MODEL>
7

>  <REMARK>
 VINA RESULT:      -7.5      2.700      5.774
  Name = 
  1 active torsions:
  status: ('A' for Active; 'I' for Inactive)
    1  A    between atoms: C_9  and  C_15
                            x       y       z     vdW  Elec       q    Type
                         _______ _______ _______ _____ _____    ______ ____

>  <TORSDO>
F 1

$$$$
=
 OpenBabel10262420073D

 27 31  0  0  1  0  0  0  0  0999 V2000
  183.8150  178.4160  142.9890 N   0  0  0  0  0  2  0  0  0  0  0  0
  183.0060  178.2560  140.6870 C   0  0  0  0  0  0  0  0  0  0  0  0
  185.2890  179.2550  140.4630 C   0  0  0  0  0  2  0  0  0  0  0  0
  183.3910  176.0700  137.0170 C   0  0  0  0  0  2  0  0  0  0  0  0
  184.9130  175.6660  135.2250 O   0  0  0  0  0  0  0  0  0  0  0  0
  181.9990  177.4010  140.2190 C   0  0  0  0  0  3  0  0  0  0  0  0
  185.5390  177.8010  137.9690 N   0  0  0  0  0  0  0  0  0  0  0  0
  188.0170  177.8780  142.6750 C   0  0  0  0  0  0  0  0  0  0  0  0
  185.7270  177.1650  136.8530 C   0  0  0  0  0  3  0  0  0  0  0  0
  189.3890  177.6850  142.5960 O   0  0  0  0  0  1  0  0  0  0  0  0
  184.3330  177.6800  138.7380 C   0  0  0  0  0  0  0  0  0  0  0  0
  182.9000  178.9860  142.0040 C   0  0  1  0  0  3  0  0  0  0  0  0
  184.6970  176.2720  136.3070 C   0  0  0  0  0  0  0  0  0  0  0  0
  183.2860  176.8450  138.3000 C   0  0  0  0  0  0  0  0  0  0  0  0
  185.2390  178.2720  142.8390 C   0  0  0  0  0  0  0  0  0  0  0  0
  184.1840  178.3870  139.9410 C   0  0  0  0  0  0  0  0  0  0  0  0
  187.3280  178.4340  141.5960 C   0  0  0  0  0  3  0  0  0  0  0  0
  182.1570  176.7290  139.0490 N   0  0  0  0  0  0  0  0  0  0  0  0
  187.3270  177.5190  143.8310 C   0  0  0  0  0  3  0  0  0  0  0  0
  185.9460  177.7140  143.9100 C   0  0  0  0  0  3  0  0  0  0  0  0
  185.9440  178.6330  141.6590 C   0  0  0  0  0  0  0  0  0  0  0  0
  178.9310  179.2780  143.6390 C   0  0  0  0  0  3  0  0  0  0  0  0
  181.5060  179.0810  142.5530 C   0  0  0  0  0  0  0  0  0  0  0  0
  181.2240  178.5170  143.8020 C   0  0  0  0  0  3  0  0  0  0  0  0
  179.9380  178.6130  144.3430 C   0  0  0  0  0  3  0  0  0  0  0  0
  179.2080  179.8500  142.3940 C   0  0  0  0  0  3  0  0  0  0  0  0
  180.4930  179.7550  141.8530 C   0  0  0  0  0  3  0  0  0  0  0  0
  2 12  1  0  0  0  0
  3 21  1  0  0  0  0
  4 14  1  0  0  0  0
  5 13  2  0  0  0  0
  6  2  1  0  0  0  0
  7 11  1  0  0  0  0
  8 19  1  0  0  0  0
  9  7  2  0  0  0  0
 10  8  1  0  0  0  0
 11 16  1  0  0  0  0
 12 23  1  1  0  0  0
 12  1  1  0  0  0  0
 13  9  1  0  0  0  0
 13  4  1  0  0  0  0
 14 11  2  0  0  0  0
 14 18  1  0  0  0  0
 15  1  1  0  0  0  0
 15 20  1  0  0  0  0
 16  3  1  0  0  0  0
 16  2  2  0  0  0  0
 17 21  1  0  0  0  0
 17  8  2  0  0  0  0
 18  6  2  0  0  0  0
 19 20  2  0  0  0  0
 21 15  2  0  0  0  0
 22 25  1  0  0  0  0
 23 24  1  0  0  0  0
 24 25  2  0  0  0  0
 26 22  2  0  0  0  0
 27 26  1  0  0  0  0
 27 23  2  0  0  0  0
M  END
>  <MODEL>
8

>  <REMARK>
 VINA RESULT:      -7.2      4.004      7.296
  Name = 
  1 active torsions:
  status: ('A' for Active; 'I' for Inactive)
    1  A    between atoms: C_9  and  C_15
                            x       y       z     vdW  Elec       q    Type
                         _______ _______ _______ _____ _____    ______ ____

>  <TORSDO>
F 1

$$$$
=
 OpenBabel10262420073D

 27 31  0  0  1  0  0  0  0  0999 V2000
  188.0050  177.4550  142.3360 N   0  0  0  0  0  2  0  0  0  0  0  0
  190.2470  176.9960  143.1980 C   0  0  0  0  0  0  0  0  0  0  0  0
  189.3210  178.7000  144.7790 C   0  0  0  0  0  2  0  0  0  0  0  0
  192.4300  175.0100  146.3100 C   0  0  0  0  0  2  0  0  0  0  0  0
  192.8700  175.1130  148.6520 O   0  0  0  0  0  0  0  0  0  0  0  0
  191.0110  175.8460  142.9560 C   0  0  0  0  0  3  0  0  0  0  0  0
  190.8190  177.3760  146.8780 N   0  0  0  0  0  0  0  0  0  0  0  0
  185.7040  178.3520  145.7920 C   0  0  0  0  0  0  0  0  0  0  0  0
  191.4480  176.8230  147.8700 C   0  0  0  0  0  3  0  0  0  0  0  0
  184.9310  178.6280  146.9100 O   0  0  0  0  0  1  0  0  0  0  0  0
  190.8850  176.8690  145.5370 C   0  0  0  0  0  0  0  0  0  0  0  0
  189.4330  177.6690  142.1190 C   0  0  1  0  0  3  0  0  0  0  0  0
  192.2770  175.6280  147.6690 C   0  0  0  0  0  0  0  0  0  0  0  0
  191.6530  175.7250  145.2410 C   0  0  0  0  0  0  0  0  0  0  0  0
  187.2680  177.7930  143.5240 C   0  0  0  0  0  0  0  0  0  0  0  0
  190.1810  177.5040  144.5020 C   0  0  0  0  0  0  0  0  0  0  0  0
  187.0730  178.6270  145.8050 C   0  0  0  0  0  3  0  0  0  0  0  0
  191.6920  175.2490  143.9680 N   0  0  0  0  0  0  0  0  0  0  0  0
  185.1160  177.8000  144.6550 C   0  0  0  0  0  3  0  0  0  0  0  0
  185.8950  177.5220  143.5300 C   0  0  0  0  0  3  0  0  0  0  0  0
  187.8660  178.3520  144.6860 C   0  0  0  0  0  0  0  0  0  0  0  0
  190.5250  176.6600  138.0810 C   0  0  0  0  0  3  0  0  0  0  0  0
  189.8290  177.3000  140.7190 C   0  0  0  0  0  0  0  0  0  0  0  0
  188.8350  177.1500  139.7460 C   0  0  0  0  0  3  0  0  0  0  0  0
  189.1810  176.8290  138.4300 C   0  0  0  0  0  3  0  0  0  0  0  0
  191.5230  176.8150  139.0480 C   0  0  0  0  0  3  0  0  0  0  0  0
  191.1770  177.1370  140.3630 C   0  0  0  0  0  3  0  0  0  0  0  0
  1 15  1  0  0  0  0
  2 16  1  0  0  0  0
  4 13  1  0  0  0  0
  6  2  2  0  0  0  0
  6 18  1  0  0  0  0
  7  9  2  0  0  0  0
  8 17  1  0  0  0  0
  8 10  1  0  0  0  0
 11  7  1  0  0  0  0
 12 23  1  6  0  0  0
 12  1  1  0  0  0  0
 12  2  1  0  0  0  0
 13  9  1  0  0  0  0
 13  5  2  0  0  0  0
 14 11  1  0  0  0  0
 14  4  1  0  0  0  0
 15 20  2  0  0  0  0
 15 21  1  0  0  0  0
 16  3  1  0  0  0  0
 16 11  2  0  0  0  0
 18 14  2  0  0  0  0
 19  8  2  0  0  0  0
 20 19  1  0  0  0  0
 21  3  1  0  0  0  0
 21 17  2  0  0  0  0
 22 25  2  0  0  0  0
 22 26  1  0  0  0  0
 24 23  2  0  0  0  0
 25 24  1  0  0  0  0
 26 27  2  0  0  0  0
 27 23  1  0  0  0  0
M  END
>  <MODEL>
9

>  <REMARK>
 VINA RESULT:      -7.1      2.256      5.508
  Name = 
  1 active torsions:
  status: ('A' for Active; 'I' for Inactive)
    1  A    between atoms: C_9  and  C_15
                            x       y       z     vdW  Elec       q    Type
                         _______ _______ _______ _____ _____    ______ ____

>  <TORSDO>
F 1

$$$$
