=
 OpenBabel10262420103D

 27 30  0  0  1  0  0  0  0  0999 V2000
  189.4380  178.5100  140.7690 C   0  0  0  0  0  2  0  0  0  0  0  0
  187.1020  178.3800  141.6440 C   0  0  0  0  0  0  0  0  0  0  0  0
  188.1870  176.6130  142.9910 N   0  0  0  0  0  0  0  0  0  0  0  0
  186.0960  179.2800  141.4730 N   0  0  0  0  0  0  0  0  0  0  0  0
  191.0080  175.9280  144.3280 C   0  0  0  0  0  2  0  0  0  0  0  0
  191.7460  177.2700  144.3320 C   0  0  0  0  0  2  0  0  0  0  0  0
  186.1950  177.8250  143.8350 C   0  0  0  0  0  0  0  0  0  0  0  0
  188.0320  178.1560  140.5740 N   0  0  0  0  0  0  0  0  0  0  0  0
  185.1770  178.7650  143.6090 C   0  0  0  0  0  0  0  0  0  0  0  0
  190.0410  177.9360  142.0490 C   0  0  1  0  0  3  0  0  0  0  0  0
  187.1810  177.6280  142.8340 C   0  0  0  0  0  0  0  0  0  0  0  0
  190.3710  175.6000  142.9760 C   0  0  0  0  0  2  0  0  0  0  0  0
  185.1520  179.4900  142.4200 C   0  0  0  0  0  3  0  0  0  0  0  0
  190.7560  178.4280  144.4740 C   0  0  0  0  0  2  0  0  0  0  0  0
  190.2700  178.9950  143.1300 C   0  0  0  0  0  2  0  0  0  0  0  0
  189.4180  176.6720  142.5710 C   0  0  0  0  0  0  0  0  0  0  0  0
  186.6800  177.0770  136.6840 C   0  0  0  0  0  3  0  0  0  0  0  0
  187.5680  177.7780  139.2610 C   0  0  0  0  0  0  0  0  0  0  0  0
  188.3520  176.9580  138.4290 C   0  0  0  0  0  3  0  0  0  0  0  0
  187.9100  176.6090  137.1510 C   0  0  0  0  0  3  0  0  0  0  0  0
  185.8920  177.8960  137.4960 C   0  0  0  0  0  3  0  0  0  0  0  0
  186.3350  178.2460  138.7750 C   0  0  0  0  0  3  0  0  0  0  0  0
  186.1800  177.1330  145.0600 O   0  0  0  0  0  0  0  0  0  0  0  0
  186.9200  177.4910  146.2180 C   0  0  0  0  0  1  0  0  0  0  0  0
  184.1370  179.0380  144.6440 C   0  0  0  0  0  2  0  0  0  0  0  0
  182.0240  178.7820  144.0650 C   0  0  0  0  0  1  0  0  0  0  0  0
  183.0620  179.7130  144.0640 O   0  0  0  0  0  0  0  0  0  0  0  0
  2 11  1  0  0  0  0
  4  2  2  0  0  0  0
  4 13  1  0  0  0  0
  5  6  1  0  0  0  0
  6 14  1  0  0  0  0
  7 23  1  0  0  0  0
  8  1  1  0  0  0  0
  8  2  1  0  0  0  0
  9  7  1  0  0  0  0
  9 25  1  0  0  0  0
 10  1  1  6  0  0  0
 10 16  1  0  0  0  0
 10 15  1  0  0  0  0
 11  3  1  0  0  0  0
 11  7  2  0  0  0  0
 12  5  1  0  0  0  0
 13  9  2  0  0  0  0
 15 14  1  0  0  0  0
 16 12  1  0  0  0  0
 16  3  2  0  0  0  0
 17 20  2  0  0  0  0
 17 21  1  0  0  0  0
 18  8  1  0  0  0  0
 19 18  2  0  0  0  0
 20 19  1  0  0  0  0
 21 22  2  0  0  0  0
 22 18  1  0  0  0  0
 23 24  1  0  0  0  0
 27 26  1  0  0  0  0
 27 25  1  0  0  0  0
M  END
>  <MODEL>
1

>  <REMARK>
 VINA RESULT:      -6.9      0.000      0.000
  Name = 
  4 active torsions:
  status: ('A' for Active; 'I' for Inactive)
    1  A    between atoms: C_4  and  O_16
    2  A    between atoms: C_4  and  C_17
    3  A    between atoms: O_8  and  C_14
    4  A    between atoms: C_9  and  N_15
                            x       y       z     vdW  Elec       q    Type
                         _______ _______ _______ _____ _____    ______ ____

>  <TORSDO>
F 4

$$$$
=
 OpenBabel10262420103D

 27 30  0  0  1  0  0  0  0  0999 V2000
  188.6490  178.3880  139.3330 C   0  0  0  0  0  2  0  0  0  0  0  0
  190.6770  176.9300  139.3250 C   0  0  0  0  0  0  0  0  0  0  0  0
  189.1910  175.6430  137.8260 N   0  0  0  0  0  0  0  0  0  0  0  0
  191.9280  177.2390  139.7610 N   0  0  0  0  0  0  0  0  0  0  0  0
  186.8880  176.1080  135.6590 C   0  0  0  0  0  2  0  0  0  0  0  0
  187.0180  177.5910  135.3000 C   0  0  0  0  0  2  0  0  0  0  0  0
  191.6570  175.4860  137.6270 C   0  0  0  0  0  0  0  0  0  0  0  0
  189.5400  177.4560  140.0250 N   0  0  0  0  0  0  0  0  0  0  0  0
  192.9260  175.8360  138.1160 C   0  0  0  0  0  0  0  0  0  0  0  0
  188.1760  177.8840  137.9720 C   0  0  1  0  0  3  0  0  0  0  0  0
  190.5070  176.0450  138.2400 C   0  0  0  0  0  0  0  0  0  0  0  0
  186.8850  175.8560  137.1690 C   0  0  0  0  0  2  0  0  0  0  0  0
  193.0390  176.7250  139.1820 C   0  0  0  0  0  3  0  0  0  0  0  0
  188.4730  178.0470  135.4190 C   0  0  0  0  0  2  0  0  0  0  0  0
  188.8320  178.6180  136.8000 C   0  0  0  0  0  2  0  0  0  0  0  0
  188.1270  176.3920  137.7930 C   0  0  0  0  0  0  0  0  0  0  0  0
  189.0410  176.7790  144.1980 C   0  0  0  0  0  3  0  0  0  0  0  0
  189.3800  177.2370  141.4420 C   0  0  0  0  0  0  0  0  0  0  0  0
  190.2410  176.3690  142.1370 C   0  0  0  0  0  3  0  0  0  0  0  0
  190.0740  176.1430  143.5060 C   0  0  0  0  0  3  0  0  0  0  0  0
  188.1750  177.6400  143.5210 C   0  0  0  0  0  3  0  0  0  0  0  0
  188.3420  177.8650  142.1510 C   0  0  0  0  0  3  0  0  0  0  0  0
  191.6040  174.5960  136.5380 O   0  0  0  0  0  0  0  0  0  0  0  0
  191.3680  174.9620  135.1860 C   0  0  0  0  0  1  0  0  0  0  0  0
  194.1690  175.3060  137.4820 C   0  0  0  0  0  2  0  0  0  0  0  0
  195.3490  173.7980  138.5780 C   0  0  0  0  0  1  0  0  0  0  0  0
  195.1690  175.1740  138.4470 O   0  0  0  0  0  0  0  0  0  0  0  0
  1  8  1  0  0  0  0
  2  4  1  0  0  0  0
  2  8  1  0  0  0  0
  3 11  1  0  0  0  0
  5 12  1  0  0  0  0
  6 14  1  0  0  0  0
  6  5  1  0  0  0  0
  7  9  2  0  0  0  0
  7 11  1  0  0  0  0
  8 18  1  0  0  0  0
  9 13  1  0  0  0  0
 10 15  1  6  0  0  0
 10  1  1  0  0  0  0
 11  2  2  0  0  0  0
 12 16  1  0  0  0  0
 13  4  2  0  0  0  0
 14 15  1  0  0  0  0
 16  3  2  0  0  0  0
 16 10  1  0  0  0  0
 18 19  2  0  0  0  0
 18 22  1  0  0  0  0
 19 20  1  0  0  0  0
 20 17  2  0  0  0  0
 21 17  1  0  0  0  0
 22 21  2  0  0  0  0
 23  7  1  0  0  0  0
 24 23  1  0  0  0  0
 25  9  1  0  0  0  0
 25 27  1  0  0  0  0
 27 26  1  0  0  0  0
M  END
>  <MODEL>
2

>  <REMARK>
 VINA RESULT:      -6.9      4.172      8.264
  Name = 
  4 active torsions:
  status: ('A' for Active; 'I' for Inactive)
    1  A    between atoms: C_4  and  O_16
    2  A    between atoms: C_4  and  C_17
    3  A    between atoms: O_8  and  C_14
    4  A    between atoms: C_9  and  N_15
                            x       y       z     vdW  Elec       q    Type
                         _______ _______ _______ _____ _____    ______ ____

>  <TORSDO>
F 4

$$$$
=
 OpenBabel10262420103D

 27 30  0  0  1  0  0  0  0  0999 V2000
  191.0240  177.8740  141.0050 C   0  0  0  0  0  2  0  0  0  0  0  0
  188.5300  177.7290  141.0300 C   0  0  0  0  0  0  0  0  0  0  0  0
  189.0850  176.2900  142.9630 N   0  0  0  0  0  0  0  0  0  0  0  0
  187.6420  178.5160  140.3650 N   0  0  0  0  0  0  0  0  0  0  0  0
  191.2620  176.0340  145.2890 C   0  0  0  0  0  2  0  0  0  0  0  0
  191.9430  177.4060  145.3060 C   0  0  0  0  0  2  0  0  0  0  0  0
  186.9160  177.4850  142.8370 C   0  0  0  0  0  0  0  0  0  0  0  0
  189.7780  177.3950  140.4050 N   0  0  0  0  0  0  0  0  0  0  0  0
  186.0350  178.3010  142.1100 C   0  0  0  0  0  0  0  0  0  0  0  0
  191.1430  177.5630  142.4950 C   0  0  1  0  0  3  0  0  0  0  0  0
  188.1920  177.1930  142.2900 C   0  0  0  0  0  0  0  0  0  0  0  0
  191.1420  175.4430  143.8820 C   0  0  0  0  0  2  0  0  0  0  0  0
  186.4240  178.8150  140.8750 C   0  0  0  0  0  3  0  0  0  0  0  0
  190.9590  178.4990  144.8880 C   0  0  0  0  0  2  0  0  0  0  0  0
  190.9710  178.8000  143.3800 C   0  0  0  0  0  2  0  0  0  0  0  0
  190.3850  176.3630  142.9890 C   0  0  0  0  0  0  0  0  0  0  0  0
  189.8590  175.5230  136.5830 C   0  0  0  0  0  3  0  0  0  0  0  0
  189.8070  176.7740  139.1030 C   0  0  0  0  0  0  0  0  0  0  0  0
  188.6310  176.6370  138.3450 C   0  0  0  0  0  3  0  0  0  0  0  0
  188.6570  176.0170  137.0930 C   0  0  0  0  0  3  0  0  0  0  0  0
  191.0350  175.6470  137.3260 C   0  0  0  0  0  3  0  0  0  0  0  0
  191.0090  176.2650  138.5790 C   0  0  0  0  0  3  0  0  0  0  0  0
  186.4770  177.0050  144.0860 O   0  0  0  0  0  0  0  0  0  0  0  0
  186.8770  177.5130  145.3500 C   0  0  0  0  0  1  0  0  0  0  0  0
  184.6960  178.6690  142.6570 C   0  0  0  0  0  2  0  0  0  0  0  0
  183.8520  179.6140  144.4630 C   0  0  0  0  0  1  0  0  0  0  0  0
  184.8160  179.7950  143.4720 O   0  0  0  0  0  0  0  0  0  0  0  0
  2 11  1  0  0  0  0
  3 16  2  0  0  0  0
  4 13  1  0  0  0  0
  4  2  2  0  0  0  0
  5  6  1  0  0  0  0
  7 23  1  0  0  0  0
  8  1  1  0  0  0  0
  8  2  1  0  0  0  0
  9 25  1  0  0  0  0
  9  7  1  0  0  0  0
 10  1  1  6  0  0  0
 10 16  1  0  0  0  0
 10 15  1  0  0  0  0
 11  7  2  0  0  0  0
 11  3  1  0  0  0  0
 12  5  1  0  0  0  0
 13  9  2  0  0  0  0
 14  6  1  0  0  0  0
 15 14  1  0  0  0  0
 16 12  1  0  0  0  0
 17 20  2  0  0  0  0
 17 21  1  0  0  0  0
 18  8  1  0  0  0  0
 19 18  2  0  0  0  0
 20 19  1  0  0  0  0
 21 22  2  0  0  0  0
 22 18  1  0  0  0  0
 23 24  1  0  0  0  0
 25 27  1  0  0  0  0
 27 26  1  0  0  0  0
M  END
>  <MODEL>
3

>  <REMARK>
 VINA RESULT:      -6.9      1.382      2.137
  Name = 
  4 active torsions:
  status: ('A' for Active; 'I' for Inactive)
    1  A    between atoms: C_4  and  O_16
    2  A    between atoms: C_4  and  C_17
    3  A    between atoms: O_8  and  C_14
    4  A    between atoms: C_9  and  N_15
                            x       y       z     vdW  Elec       q    Type
                         _______ _______ _______ _____ _____    ______ ____

>  <TORSDO>
F 4

$$$$
=
 OpenBabel10262420103D

 27 30  0  0  1  0  0  0  0  0999 V2000
  181.6250  178.9670  141.1210 C   0  0  0  0  0  2  0  0  0  0  0  0
  183.8540  178.4540  140.1150 C   0  0  0  0  0  0  0  0  0  0  0  0
  182.5970  176.4190  139.4880 N   0  0  0  0  0  0  0  0  0  0  0  0
  184.8900  179.3090  139.9040 N   0  0  0  0  0  0  0  0  0  0  0  0
  179.6380  175.5050  138.6990 C   0  0  0  0  0  2  0  0  0  0  0  0
  178.9310  176.8180  138.3490 C   0  0  0  0  0  2  0  0  0  0  0  0
  184.5130  177.2100  138.1280 C   0  0  0  0  0  0  0  0  0  0  0  0
  183.0360  178.6160  141.2830 N   0  0  0  0  0  0  0  0  0  0  0  0
  185.5690  178.1190  137.9560 C   0  0  0  0  0  0  0  0  0  0  0  0
  180.8800  178.0610  140.1440 C   0  0  1  0  0  3  0  0  0  0  0  0
  183.6340  177.3790  139.2280 C   0  0  0  0  0  0  0  0  0  0  0  0
  180.4060  175.5740  140.0210 C   0  0  0  0  0  2  0  0  0  0  0  0
  185.7340  179.1700  138.8540 C   0  0  0  0  0  3  0  0  0  0  0  0
  179.9240  177.8240  137.7640 C   0  0  0  0  0  2  0  0  0  0  0  0
  180.5600  178.7480  138.8140 C   0  0  0  0  0  2  0  0  0  0  0  0
  181.4180  176.6670  139.9820 C   0  0  0  0  0  0  0  0  0  0  0  0
  184.7670  178.6310  145.1730 C   0  0  0  0  0  3  0  0  0  0  0  0
  183.6280  178.6340  142.6000 C   0  0  0  0  0  0  0  0  0  0  0  0
  184.9690  178.2570  142.7910 C   0  0  0  0  0  3  0  0  0  0  0  0
  185.5350  178.2570  144.0680 C   0  0  0  0  0  3  0  0  0  0  0  0
  183.4320  179.0030  145.0000 C   0  0  0  0  0  3  0  0  0  0  0  0
  182.8660  179.0020  143.7220 C   0  0  0  0  0  3  0  0  0  0  0  0
  184.3850  176.1760  137.1820 O   0  0  0  0  0  0  0  0  0  0  0  0
  183.4730  176.1630  136.0940 C   0  0  0  0  0  1  0  0  0  0  0  0
  186.5000  178.0070  136.7940 C   0  0  0  0  0  2  0  0  0  0  0  0
  188.6750  178.3730  136.8440 C   0  0  0  0  0  1  0  0  0  0  0  0
  187.4460  179.0320  136.8510 O   0  0  0  0  0  0  0  0  0  0  0  0
  1  8  1  0  0  0  0
  2  8  1  0  0  0  0
  3 16  2  0  0  0  0
  4  2  1  0  0  0  0
  5 12  1  0  0  0  0
  6  5  1  0  0  0  0
  7 11  1  0  0  0  0
  8 18  1  0  0  0  0
  9  7  2  0  0  0  0
  9 13  1  0  0  0  0
 10 15  1  6  0  0  0
 10  1  1  0  0  0  0
 11  3  1  0  0  0  0
 11  2  2  0  0  0  0
 13  4  2  0  0  0  0
 14  6  1  0  0  0  0
 14 15  1  0  0  0  0
 16 12  1  0  0  0  0
 16 10  1  0  0  0  0
 18 19  2  0  0  0  0
 18 22  1  0  0  0  0
 19 20  1  0  0  0  0
 20 17  2  0  0  0  0
 21 17  1  0  0  0  0
 22 21  2  0  0  0  0
 23  7  1  0  0  0  0
 24 23  1  0  0  0  0
 25 27  1  0  0  0  0
 25  9  1  0  0  0  0
 26 27  1  0  0  0  0
M  END
>  <MODEL>
4

>  <REMARK>
 VINA RESULT:      -6.4      4.074      8.325
  Name = 
  4 active torsions:
  status: ('A' for Active; 'I' for Inactive)
    1  A    between atoms: C_4  and  O_16
    2  A    between atoms: C_4  and  C_17
    3  A    between atoms: O_8  and  C_14
    4  A    between atoms: C_9  and  N_15
                            x       y       z     vdW  Elec       q    Type
                         _______ _______ _______ _____ _____    ______ ____

>  <TORSDO>
F 4

$$$$
=
 OpenBabel10262420103D

 27 30  0  0  1  0  0  0  0  0999 V2000
  189.6370  176.5000  140.5500 C   0  0  0  0  0  2  0  0  0  0  0  0
  187.8160  177.6500  141.8170 C   0  0  0  0  0  0  0  0  0  0  0  0
  187.9360  179.0780  139.8010 N   0  0  0  0  0  0  0  0  0  0  0  0
  187.1220  177.1810  142.8880 N   0  0  0  0  0  0  0  0  0  0  0  0
  188.5540  178.8660  136.6730 C   0  0  0  0  0  2  0  0  0  0  0  0
  188.4440  177.3660  136.3800 C   0  0  0  0  0  2  0  0  0  0  0  0
  185.8350  178.8710  141.1010 C   0  0  0  0  0  0  0  0  0  0  0  0
  189.2070  177.3200  141.6820 N   0  0  0  0  0  0  0  0  0  0  0  0
  185.1630  178.3620  142.2240 C   0  0  0  0  0  0  0  0  0  0  0  0
  189.1400  177.0140  139.2010 C   0  0  1  0  0  3  0  0  0  0  0  0
  187.1890  178.5080  140.8890 C   0  0  0  0  0  0  0  0  0  0  0  0
  189.4120  179.1730  137.9020 C   0  0  0  0  0  2  0  0  0  0  0  0
  185.8250  177.5090  143.1020 C   0  0  0  0  0  3  0  0  0  0  0  0
  187.4200  176.7110  137.3080 C   0  0  0  0  0  2  0  0  0  0  0  0
  188.0280  176.1490  138.6030 C   0  0  0  0  0  2  0  0  0  0  0  0
  188.8660  178.4890  139.1080 C   0  0  0  0  0  0  0  0  0  0  0  0
  191.9260  178.1940  144.8390 C   0  0  0  0  0  3  0  0  0  0  0  0
  190.1390  177.6140  142.7430 C   0  0  0  0  0  0  0  0  0  0  0  0
  190.6880  176.5820  143.5250 C   0  0  0  0  0  3  0  0  0  0  0  0
  191.5770  176.8700  144.5650 C   0  0  0  0  0  3  0  0  0  0  0  0
  191.3850  179.2300  144.0750 C   0  0  0  0  0  3  0  0  0  0  0  0
  190.4960  178.9420  143.0360 C   0  0  0  0  0  3  0  0  0  0  0  0
  185.1120  179.7170  140.2400 O   0  0  0  0  0  0  0  0  0  0  0  0
  184.4470  179.3100  139.0530 C   0  0  0  0  0  1  0  0  0  0  0  0
  183.7270  178.6840  142.4740 C   0  0  0  0  0  2  0  0  0  0  0  0
  182.2100  178.8380  144.0680 C   0  0  0  0  0  1  0  0  0  0  0  0
  183.5570  179.0780  143.8020 O   0  0  0  0  0  0  0  0  0  0  0  0
  1  8  1  0  0  0  0
  2  4  1  0  0  0  0
  3 11  1  0  0  0  0
  4 13  2  0  0  0  0
  5 12  1  0  0  0  0
  6  5  1  0  0  0  0
  6 14  1  0  0  0  0
  7  9  2  0  0  0  0
  8  2  1  0  0  0  0
  8 18  1  0  0  0  0
  9 25  1  0  0  0  0
  9 13  1  0  0  0  0
 10 15  1  1  0  0  0
 10  1  1  0  0  0  0
 11  7  1  0  0  0  0
 11  2  2  0  0  0  0
 12 16  1  0  0  0  0
 14 15  1  0  0  0  0
 16 10  1  0  0  0  0
 16  3  2  0  0  0  0
 18 22  2  0  0  0  0
 18 19  1  0  0  0  0
 19 20  2  0  0  0  0
 20 17  1  0  0  0  0
 21 17  2  0  0  0  0
 22 21  1  0  0  0  0
 23  7  1  0  0  0  0
 24 23  1  0  0  0  0
 25 27  1  0  0  0  0
 27 26  1  0  0  0  0
M  END
>  <MODEL>
5

>  <REMARK>
 VINA RESULT:      -6.4      1.559      5.397
  Name = 
  4 active torsions:
  status: ('A' for Active; 'I' for Inactive)
    1  A    between atoms: C_4  and  O_16
    2  A    between atoms: C_4  and  C_17
    3  A    between atoms: O_8  and  C_14
    4  A    between atoms: C_9  and  N_15
                            x       y       z     vdW  Elec       q    Type
                         _______ _______ _______ _____ _____    ______ ____

>  <TORSDO>
F 4

$$$$
=
 OpenBabel10262420103D

 27 30  0  0  1  0  0  0  0  0999 V2000
  189.8260  174.0500  136.8240 C   0  0  0  0  0  2  0  0  0  0  0  0
  190.0250  175.9920  138.3830 C   0  0  0  0  0  0  0  0  0  0  0  0
  188.4470  176.9120  136.7150 N   0  0  0  0  0  0  0  0  0  0  0  0
  190.5520  176.0040  139.6370 N   0  0  0  0  0  0  0  0  0  0  0  0
  186.0880  175.9620  134.7800 C   0  0  0  0  0  2  0  0  0  0  0  0
  185.6980  174.5850  135.3280 C   0  0  0  0  0  2  0  0  0  0  0  0
  188.4540  177.7260  139.0570 C   0  0  0  0  0  0  0  0  0  0  0  0
  190.6140  175.1490  137.3820 N   0  0  0  0  0  0  0  0  0  0  0  0
  189.0340  177.7010  140.3350 C   0  0  0  0  0  0  0  0  0  0  0  0
  188.4450  174.4780  136.3300 C   0  0  1  0  0  3  0  0  0  0  0  0
  188.9550  176.8530  138.0580 C   0  0  0  0  0  0  0  0  0  0  0  0
  187.5990  176.1280  134.6030 C   0  0  0  0  0  2  0  0  0  0  0  0
  190.0800  176.8230  140.6070 C   0  0  0  0  0  3  0  0  0  0  0  0
  185.9210  174.5260  136.8400 C   0  0  0  0  0  2  0  0  0  0  0  0
  187.3100  174.0030  137.2410 C   0  0  0  0  0  2  0  0  0  0  0  0
  188.3060  175.9100  135.8960 C   0  0  0  0  0  0  0  0  0  0  0  0
  194.7550  175.4120  136.4290 C   0  0  0  0  0  3  0  0  0  0  0  0
  192.0190  175.2470  137.0700 C   0  0  0  0  0  0  0  0  0  0  0  0
  192.5000  176.2670  136.2290 C   0  0  0  0  0  3  0  0  0  0  0  0
  193.8580  176.3500  135.9120 C   0  0  0  0  0  3  0  0  0  0  0  0
  194.2920  174.3900  137.2610 C   0  0  0  0  0  3  0  0  0  0  0  0
  192.9330  174.3070  137.5770 C   0  0  0  0  0  3  0  0  0  0  0  0
  187.3900  178.6230  138.8440 O   0  0  0  0  0  0  0  0  0  0  0  0
  186.0260  178.2610  138.6920 C   0  0  0  0  0  1  0  0  0  0  0  0
  188.5190  178.5730  141.4320 C   0  0  0  0  0  2  0  0  0  0  0  0
  186.8840  177.8830  142.7430 C   0  0  0  0  0  1  0  0  0  0  0  0
  188.2650  177.8000  142.5660 O   0  0  0  0  0  0  0  0  0  0  0  0
  1  8  1  0  0  0  0
  2  4  1  0  0  0  0
  3 11  1  0  0  0  0
  4 13  2  0  0  0  0
  5  6  1  0  0  0  0
  6 14  1  0  0  0  0
  7  9  2  0  0  0  0
  8  2  1  0  0  0  0
  9 13  1  0  0  0  0
  9 25  1  0  0  0  0
 10  1  1  1  0  0  0
 10 15  1  0  0  0  0
 11  2  2  0  0  0  0
 11  7  1  0  0  0  0
 12  5  1  0  0  0  0
 12 16  1  0  0  0  0
 14 15  1  0  0  0  0
 16 10  1  0  0  0  0
 16  3  2  0  0  0  0
 17 21  1  0  0  0  0
 18  8  1  0  0  0  0
 18 22  1  0  0  0  0
 19 18  2  0  0  0  0
 20 19  1  0  0  0  0
 20 17  2  0  0  0  0
 21 22  2  0  0  0  0
 23  7  1  0  0  0  0
 24 23  1  0  0  0  0
 25 27  1  0  0  0  0
 27 26  1  0  0  0  0
M  END
>  <MODEL>
6

>  <REMARK>
 VINA RESULT:      -5.9      3.691      7.056
  Name = 
  4 active torsions:
  status: ('A' for Active; 'I' for Inactive)
    1  A    between atoms: C_4  and  O_16
    2  A    between atoms: C_4  and  C_17
    3  A    between atoms: O_8  and  C_14
    4  A    between atoms: C_9  and  N_15
                            x       y       z     vdW  Elec       q    Type
                         _______ _______ _______ _____ _____    ______ ____

>  <TORSDO>
F 4

$$$$
=
 OpenBabel10262420103D

 27 30  0  0  1  0  0  0  0  0999 V2000
  189.0810  178.5690  138.4920 C   0  0  0  0  0  2  0  0  0  0  0  0
  190.3430  176.4120  138.4520 C   0  0  0  0  0  0  0  0  0  0  0  0
  188.1710  175.6820  137.5210 N   0  0  0  0  0  0  0  0  0  0  0  0
  191.6820  176.2270  138.6010 N   0  0  0  0  0  0  0  0  0  0  0  0
  185.7760  176.7880  135.7170 C   0  0  0  0  0  2  0  0  0  0  0  0
  186.3690  178.0270  135.0410 C   0  0  0  0  0  2  0  0  0  0  0  0
  190.2720  174.4940  136.9530 C   0  0  0  0  0  0  0  0  0  0  0  0
  189.6890  177.4440  139.2050 N   0  0  0  0  0  0  0  0  0  0  0  0
  191.6550  174.3440  137.1420 C   0  0  0  0  0  0  0  0  0  0  0  0
  188.1460  178.1410  137.3630 C   0  0  1  0  0  3  0  0  0  0  0  0
  189.5990  175.5510  137.6190 C   0  0  0  0  0  0  0  0  0  0  0  0
  186.0330  176.7490  137.2250 C   0  0  0  0  0  2  0  0  0  0  0  0
  192.3440  175.2310  137.9660 C   0  0  0  0  0  3  0  0  0  0  0  0
  187.8730  177.8500  134.8190 C   0  0  0  0  0  2  0  0  0  0  0  0
  188.7360  178.3860  135.9720 C   0  0  0  0  0  2  0  0  0  0  0  0
  187.4950  176.7950  137.5090 C   0  0  0  0  0  0  0  0  0  0  0  0
  190.0110  177.6160  143.4470 C   0  0  0  0  0  3  0  0  0  0  0  0
  189.7970  177.4880  140.6430 C   0  0  0  0  0  0  0  0  0  0  0  0
  188.6460  177.5450  141.4500 C   0  0  0  0  0  3  0  0  0  0  0  0
  188.7520  177.6060  142.8420 C   0  0  0  0  0  3  0  0  0  0  0  0
  191.1630  177.5660  142.6590 C   0  0  0  0  0  3  0  0  0  0  0  0
  191.0570  177.5050  141.2670 C   0  0  0  0  0  3  0  0  0  0  0  0
  189.6300  173.5800  136.0980 O   0  0  0  0  0  0  0  0  0  0  0  0
  188.6800  172.6030  136.5000 C   0  0  0  0  0  1  0  0  0  0  0  0
  192.4170  173.2730  136.4360 C   0  0  0  0  0  2  0  0  0  0  0  0
  193.2890  174.1170  134.5940 C   0  0  0  0  0  1  0  0  0  0  0  0
  193.5990  173.8020  135.9160 O   0  0  0  0  0  0  0  0  0  0  0  0
  1  8  1  0  0  0  0
  2  4  1  0  0  0  0
  2  8  1  0  0  0  0
  3 11  1  0  0  0  0
  5 12  1  0  0  0  0
  6  5  1  0  0  0  0
  7  9  2  0  0  0  0
  7 11  1  0  0  0  0
  8 18  1  0  0  0  0
  9 13  1  0  0  0  0
 10 15  1  6  0  0  0
 10 16  1  0  0  0  0
 10  1  1  0  0  0  0
 11  2  2  0  0  0  0
 12 16  1  0  0  0  0
 13  4  2  0  0  0  0
 14  6  1  0  0  0  0
 14 15  1  0  0  0  0
 16  3  2  0  0  0  0
 18 22  2  0  0  0  0
 18 19  1  0  0  0  0
 19 20  2  0  0  0  0
 20 17  1  0  0  0  0
 21 17  2  0  0  0  0
 22 21  1  0  0  0  0
 23 24  1  0  0  0  0
 23  7  1  0  0  0  0
 25  9  1  0  0  0  0
 26 27  1  0  0  0  0
 27 25  1  0  0  0  0
M  END
>  <MODEL>
7

>  <REMARK>
 VINA RESULT:      -5.6      4.203      8.476
  Name = 
  4 active torsions:
  status: ('A' for Active; 'I' for Inactive)
    1  A    between atoms: C_4  and  O_16
    2  A    between atoms: C_4  and  C_17
    3  A    between atoms: O_8  and  C_14
    4  A    between atoms: C_9  and  N_15
                            x       y       z     vdW  Elec       q    Type
                         _______ _______ _______ _____ _____    ______ ____

>  <TORSDO>
F 4

$$$$
=
 OpenBabel10262420103D

 27 30  0  0  1  0  0  0  0  0999 V2000
  180.7680  178.1420  137.6080 C   0  0  0  0  0  2  0  0  0  0  0  0
  182.6450  179.1230  138.9330 C   0  0  0  0  0  0  0  0  0  0  0  0
  181.1590  178.3560  140.7550 N   0  0  0  0  0  0  0  0  0  0  0  0
  183.8840  179.4730  138.4930 N   0  0  0  0  0  0  0  0  0  0  0  0
  179.0780  176.0200  141.4080 C   0  0  0  0  0  2  0  0  0  0  0  0
  179.3740  174.9590  140.3430 C   0  0  0  0  0  2  0  0  0  0  0  0
  183.6070  178.5480  141.0950 C   0  0  0  0  0  0  0  0  0  0  0  0
  181.5140  179.3130  138.0710 N   0  0  0  0  0  0  0  0  0  0  0  0
  184.8640  178.9230  140.5920 C   0  0  0  0  0  0  0  0  0  0  0  0
  180.3520  177.1990  138.7340 C   0  0  1  0  0  3  0  0  0  0  0  0
  182.4730  178.6460  140.2490 C   0  0  0  0  0  0  0  0  0  0  0  0
  178.9390  177.4280  140.8250 C   0  0  0  0  0  2  0  0  0  0  0  0
  184.9800  179.3760  139.2810 C   0  0  0  0  0  3  0  0  0  0  0  0
  180.8530  174.9860  139.9540 C   0  0  0  0  0  2  0  0  0  0  0  0
  181.1610  175.8990  138.7560 C   0  0  0  0  0  2  0  0  0  0  0  0
  180.1760  177.8180  140.0920 C   0  0  0  0  0  0  0  0  0  0  0  0
  180.6330  183.1310  136.4070 C   0  0  0  0  0  3  0  0  0  0  0  0
  181.2290  180.6090  137.5030 C   0  0  0  0  0  0  0  0  0  0  0  0
  181.4000  181.7800  138.2620 C   0  0  0  0  0  3  0  0  0  0  0  0
  181.1060  183.0330  137.7170 C   0  0  0  0  0  3  0  0  0  0  0  0
  180.4530  181.9770  135.6420 C   0  0  0  0  0  3  0  0  0  0  0  0
  180.7470  180.7240  136.1870 C   0  0  0  0  0  3  0  0  0  0  0  0
  183.5510  178.0830  142.4220 O   0  0  0  0  0  0  0  0  0  0  0  0
  183.2710  178.8810  143.5630 C   0  0  0  0  0  1  0  0  0  0  0  0
  186.0940  178.8030  141.4280 C   0  0  0  0  0  2  0  0  0  0  0  0
  188.2100  178.1770  141.4400 C   0  0  0  0  0  1  0  0  0  0  0  0
  187.2120  178.6730  140.6030 O   0  0  0  0  0  0  0  0  0  0  0  0
  1  8  1  0  0  0  0
  2 11  1  0  0  0  0
  4  2  2  0  0  0  0
  4 13  1  0  0  0  0
  6  5  1  0  0  0  0
  7 23  1  0  0  0  0
  8  2  1  0  0  0  0
  9  7  1  0  0  0  0
  9 25  1  0  0  0  0
 10  1  1  6  0  0  0
 10 15  1  0  0  0  0
 10 16  1  0  0  0  0
 11  3  1  0  0  0  0
 11  7  2  0  0  0  0
 12  5  1  0  0  0  0
 13  9  2  0  0  0  0
 14  6  1  0  0  0  0
 15 14  1  0  0  0  0
 16  3  2  0  0  0  0
 16 12  1  0  0  0  0
 17 20  1  0  0  0  0
 18  8  1  0  0  0  0
 18 19  1  0  0  0  0
 20 19  2  0  0  0  0
 21 22  1  0  0  0  0
 21 17  2  0  0  0  0
 22 18  2  0  0  0  0
 23 24  1  0  0  0  0
 27 25  1  0  0  0  0
 27 26  1  0  0  0  0
M  END
>  <MODEL>
8

>  <REMARK>
 VINA RESULT:      -5.4      4.797      7.952
  Name = 
  4 active torsions:
  status: ('A' for Active; 'I' for Inactive)
    1  A    between atoms: C_4  and  O_16
    2  A    between atoms: C_4  and  C_17
    3  A    between atoms: O_8  and  C_14
    4  A    between atoms: C_9  and  N_15
                            x       y       z     vdW  Elec       q    Type
                         _______ _______ _______ _____ _____    ______ ____

>  <TORSDO>
F 4

$$$$
=
 OpenBabel10262420103D

 27 30  0  0  1  0  0  0  0  0999 V2000
  188.6910  174.7590  134.7300 C   0  0  0  0  0  2  0  0  0  0  0  0
  188.2230  175.7480  136.9760 C   0  0  0  0  0  0  0  0  0  0  0  0
  190.3230  174.5300  137.4470 N   0  0  0  0  0  0  0  0  0  0  0  0
  187.3400  176.7350  137.2850 N   0  0  0  0  0  0  0  0  0  0  0  0
  193.0530  173.6930  136.0110 C   0  0  0  0  0  2  0  0  0  0  0  0
  193.1110  174.6010  134.7790 C   0  0  0  0  0  2  0  0  0  0  0  0
  189.6800  176.5310  138.7630 C   0  0  0  0  0  0  0  0  0  0  0  0
  187.8870  174.8000  135.9510 N   0  0  0  0  0  0  0  0  0  0  0  0
  188.7350  177.5300  139.0440 C   0  0  0  0  0  0  0  0  0  0  0  0
  190.1930  174.6630  134.9900 C   0  0  1  0  0  3  0  0  0  0  0  0
  189.4230  175.6200  137.7060 C   0  0  0  0  0  0  0  0  0  0  0  0
  191.6950  173.0080  136.1840 C   0  0  0  0  0  2  0  0  0  0  0  0
  187.5720  177.6200  138.2830 C   0  0  0  0  0  3  0  0  0  0  0  0
  192.4280  175.9400  135.0650 C   0  0  0  0  0  2  0  0  0  0  0  0
  190.9370  175.9670  134.6930 C   0  0  0  0  0  2  0  0  0  0  0  0
  190.6060  174.0190  136.2840 C   0  0  0  0  0  0  0  0  0  0  0  0
  184.2990  172.5170  136.1530 C   0  0  0  0  0  3  0  0  0  0  0  0
  186.6640  174.0380  136.0250 C   0  0  0  0  0  0  0  0  0  0  0  0
  186.3020  173.3710  137.2090 C   0  0  0  0  0  3  0  0  0  0  0  0
  185.1270  172.6170  137.2730 C   0  0  0  0  0  3  0  0  0  0  0  0
  184.6480  173.1700  134.9680 C   0  0  0  0  0  3  0  0  0  0  0  0
  185.8240  173.9230  134.9040 C   0  0  0  0  0  3  0  0  0  0  0  0
  190.8440  176.4970  139.5540 O   0  0  0  0  0  0  0  0  0  0  0  0
  192.1290  176.9450  139.1470 C   0  0  0  0  0  1  0  0  0  0  0  0
  188.9740  178.5360  140.1200 C   0  0  0  0  0  2  0  0  0  0  0  0
  188.3990  177.7470  142.0980 C   0  0  0  0  0  1  0  0  0  0  0  0
  187.9190  178.5070  141.0330 O   0  0  0  0  0  0  0  0  0  0  0  0
  1 10  1  0  0  0  0
  1  8  1  0  0  0  0
  2  4  2  0  0  0  0
  2 11  1  0  0  0  0
  3 11  1  0  0  0  0
  4 13  1  0  0  0  0
  5 12  1  0  0  0  0
  6 14  1  0  0  0  0
  6  5  1  0  0  0  0
  7  9  1  0  0  0  0
  7 23  1  0  0  0  0
  8 18  1  0  0  0  0
  8  2  1  0  0  0  0
  9 25  1  0  0  0  0
 10 15  1  1  0  0  0
 10 16  1  0  0  0  0
 11  7  2  0  0  0  0
 12 16  1  0  0  0  0
 13  9  2  0  0  0  0
 15 14  1  0  0  0  0
 16  3  2  0  0  0  0
 17 20  1  0  0  0  0
 18 19  1  0  0  0  0
 19 20  2  0  0  0  0
 21 17  2  0  0  0  0
 22 21  1  0  0  0  0
 22 18  2  0  0  0  0
 24 23  1  0  0  0  0
 25 27  1  0  0  0  0
 27 26  1  0  0  0  0
M  END
>  <MODEL>
9

>  <REMARK>
 VINA RESULT:      -5.4      4.125      6.798
  Name = 
  4 active torsions:
  status: ('A' for Active; 'I' for Inactive)
    1  A    between atoms: C_4  and  O_16
    2  A    between atoms: C_4  and  C_17
    3  A    between atoms: O_8  and  C_14
    4  A    between atoms: C_9  and  N_15
                            x       y       z     vdW  Elec       q    Type
                         _______ _______ _______ _____ _____    ______ ____

>  <TORSDO>
F 4

$$$$
