=
 OpenBabel10262420443D

 28 29  0  0  1  0  0  0  0  0999 V2000
  184.4940  178.2460  142.7380 C   0  0  2  0  0  3  0  0  0  0  0  0
  186.4590  178.1770  147.2970 O   0  0  0  0  0  1  0  0  0  0  0  0
  187.9470  176.9860  143.9430 C   0  0  0  0  0  2  0  0  0  0  0  0
  185.5220  178.1030  145.1210 C   0  0  0  0  0  0  0  0  0  0  0  0
  187.0120  177.8500  143.1130 C   0  0  0  0  0  2  0  0  0  0  0  0
  183.2270  179.1130  144.6470 C   0  0  0  0  0  2  0  0  0  0  0  0
  186.5660  177.8780  145.9410 C   0  0  0  0  0  0  0  0  0  0  0  0
  184.3250  178.8450  145.6700 C   0  0  0  0  0  2  0  0  0  0  0  0
  187.8960  177.3500  145.4330 C   0  0  2  0  0  3  0  0  0  0  0  0
  183.8290  179.4880  143.3080 C   0  0  0  0  0  2  0  0  0  0  0  0
  185.6010  177.6830  143.6600 C   0  0  2  0  0  3  0  0  0  0  0  0
  184.9580  178.4960  141.4340 O   0  0  0  0  0  0  0  0  0  0  0  0
  183.8590  178.6060  140.5470 C   0  0  1  0  0  3  0  0  0  0  0  0
  183.0460  180.2520  138.7750 C   0  0  0  0  0  1  0  0  0  0  0  0
  184.1630  179.3210  139.2140 C   0  0  2  0  0  3  0  0  0  0  0  0
  185.9890  178.1560  137.9740 C   0  0  0  0  0  1  0  0  0  0  0  0
  184.4890  178.3360  138.1020 C   0  0  0  0  0  2  0  0  0  0  0  0
  183.0190  177.3310  140.4200 C   0  0  0  0  0  2  0  0  0  0  0  0
  181.5470  177.6480  140.5870 C   0  0  0  0  0  1  0  0  0  0  0  0
  189.1020  178.2000  145.8530 C   0  0  0  0  0  2  0  0  0  0  0  0
  190.2800  178.1880  144.8730 C   0  0  0  0  0  2  0  0  0  0  0  0
  191.4860  176.6810  146.3220 C   0  0  0  0  0  3  0  0  0  0  0  0
  191.1830  177.0140  145.0580 C   0  0  0  0  0  0  0  0  0  0  0  0
  191.4890  176.7310  142.5980 C   0  0  0  0  0  2  0  0  0  0  0  0
  191.6370  176.2950  143.8430 C   0  0  0  0  0  3  0  0  0  0  0  0
  192.3280  175.5230  146.7510 C   0  0  0  0  0  2  0  0  0  0  0  0
  192.7220  175.6790  148.2060 C   0  0  0  0  0  2  0  0  0  0  0  0
  192.5860  177.0140  148.5840 O   0  0  0  0  0  1  0  0  0  0  0  0
  1 12  1  6  0  0  0
  1 10  1  0  0  0  0
  1 11  1  0  0  0  0
  3  9  1  0  0  0  0
  4  8  1  0  0  0  0
  4  7  2  0  0  0  0
  5  3  1  0  0  0  0
  6  8  1  0  0  0  0
  7  2  1  0  0  0  0
  9 20  1  6  0  0  0
  9  7  1  0  0  0  0
 10  6  1  0  0  0  0
 11  5  1  6  0  0  0
 11  4  1  0  0  0  0
 13 18  1  6  0  0  0
 13 12  1  0  0  0  0
 15 14  1  6  0  0  0
 15 13  1  0  0  0  0
 16 17  1  0  0  0  0
 17 15  1  0  0  0  0
 18 19  1  0  0  0  0
 21 23  1  0  0  0  0
 21 20  1  0  0  0  0
 22 26  1  0  0  0  0
 23 22  2  0  0  0  0
 24 25  2  0  0  0  0
 25 23  1  0  0  0  0
 26 27  1  0  0  0  0
 27 28  1  0  0  0  0
M  END
>  <MODEL>
1

>  <REMARK>
 VINA RESULT:      -7.9      0.000      0.000
  Name = 
  11 active torsions:
  status: ('A' for Active; 'I' for Inactive)
    1  A    between atoms: C_1  and  O_2
    2  A    between atoms: O_2  and  C_3
    3  A    between atoms: C_3  and  C_7
    4  A    between atoms: C_3  and  C_11
    5  A    between atoms: C_4  and  C_24
    6  A    between atoms: C_11  and  C_22
    7  A    between atoms: C_12  and  C_24
    8  A    between atoms: C_13  and  C_15
    9  A    between atoms: C_13  and  C_18
   10  A    between atoms: C_14  and  C_18
   11  A    between atoms: C_14  and  C_25
                            x       y       z     vdW  Elec       q    Type
                         _______ _______ _______ _____ _____    ______ ____

>  <TORSDO>
F 11

$$$$
=
 OpenBabel10262420443D

 28 29  0  0  1  0  0  0  0  0999 V2000
  187.3630  177.9710  145.3380 C   0  0  2  0  0  3  0  0  0  0  0  0
  182.8990  179.4250  143.7230 O   0  0  0  0  0  1  0  0  0  0  0  0
  186.0930  178.5760  141.7340 C   0  0  0  0  0  2  0  0  0  0  0  0
  185.0710  178.8220  144.4560 C   0  0  0  0  0  0  0  0  0  0  0  0
  186.6890  177.7480  142.8610 C   0  0  0  0  0  2  0  0  0  0  0  0
  185.5540  178.4130  146.9280 C   0  0  0  0  0  2  0  0  0  0  0  0
  184.2160  179.0670  143.4440 C   0  0  0  0  0  0  0  0  0  0  0  0
  184.5220  178.7670  145.8630 C   0  0  0  0  0  2  0  0  0  0  0  0
  184.6200  178.9180  141.9890 C   0  0  2  0  0  3  0  0  0  0  0  0
  186.4980  177.3440  146.4170 C   0  0  0  0  0  2  0  0  0  0  0  0
  186.5360  178.5310  144.1570 C   0  0  2  0  0  3  0  0  0  0  0  0
  188.3520  177.0630  144.9150 O   0  0  0  0  0  0  0  0  0  0  0  0
  189.6270  177.5140  145.3370 C   0  0  1  0  0  3  0  0  0  0  0  0
  189.9490  177.5710  147.8680 C   0  0  0  0  0  1  0  0  0  0  0  0
  190.1930  176.8000  146.5820 C   0  0  2  0  0  3  0  0  0  0  0  0
  192.2120  175.8470  147.6990 C   0  0  0  0  0  1  0  0  0  0  0  0
  191.6750  176.4890  146.4340 C   0  0  0  0  0  2  0  0  0  0  0  0
  190.6320  177.7240  144.2000 C   0  0  0  0  0  2  0  0  0  0  0  0
  190.9050  179.2020  144.0020 C   0  0  0  0  0  1  0  0  0  0  0  0
  183.6770  178.0250  141.1720 C   0  0  0  0  0  2  0  0  0  0  0  0
  183.2520  178.5960  139.8150 C   0  0  0  0  0  2  0  0  0  0  0  0
  185.0490  178.2090  138.2510 C   0  0  0  0  0  3  0  0  0  0  0  0
  183.8240  177.8450  138.6590 C   0  0  0  0  0  0  0  0  0  0  0  0
  183.0090  175.4910  138.5270 C   0  0  0  0  0  2  0  0  0  0  0  0
  183.0160  176.7420  138.0840 C   0  0  0  0  0  3  0  0  0  0  0  0
  185.8370  177.5750  137.1510 C   0  0  0  0  0  2  0  0  0  0  0  0
  187.2920  177.9870  137.2490 C   0  0  0  0  0  2  0  0  0  0  0  0
  187.5220  178.5870  138.4870 O   0  0  0  0  0  1  0  0  0  0  0  0
  1 12  1  6  0  0  0
  1 10  1  0  0  0  0
  3  9  1  0  0  0  0
  3  5  1  0  0  0  0
  4  8  1  0  0  0  0
  7  2  1  0  0  0  0
  7  4  2  0  0  0  0
  8  6  1  0  0  0  0
  9 20  1  1  0  0  0
  9  7  1  0  0  0  0
 10  6  1  0  0  0  0
 11  5  1  6  0  0  0
 11  4  1  0  0  0  0
 11  1  1  0  0  0  0
 12 13  1  0  0  0  0
 13 18  1  6  0  0  0
 13 15  1  0  0  0  0
 15 14  1  1  0  0  0
 17 15  1  0  0  0  0
 17 16  1  0  0  0  0
 19 18  1  0  0  0  0
 21 20  1  0  0  0  0
 22 23  2  0  0  0  0
 23 21  1  0  0  0  0
 25 24  2  0  0  0  0
 25 23  1  0  0  0  0
 26 27  1  0  0  0  0
 26 22  1  0  0  0  0
 27 28  1  0  0  0  0
M  END
>  <MODEL>
2

>  <REMARK>
 VINA RESULT:      -7.6      1.790      8.093
  Name = 
  11 active torsions:
  status: ('A' for Active; 'I' for Inactive)
    1  A    between atoms: C_1  and  O_2
    2  A    between atoms: O_2  and  C_3
    3  A    between atoms: C_3  and  C_7
    4  A    between atoms: C_3  and  C_11
    5  A    between atoms: C_4  and  C_24
    6  A    between atoms: C_11  and  C_22
    7  A    between atoms: C_12  and  C_24
    8  A    between atoms: C_13  and  C_15
    9  A    between atoms: C_13  and  C_18
   10  A    between atoms: C_14  and  C_18
   11  A    between atoms: C_14  and  C_25
                            x       y       z     vdW  Elec       q    Type
                         _______ _______ _______ _____ _____    ______ ____

>  <TORSDO>
F 11

$$$$
=
 OpenBabel10262420443D

 28 29  0  0  1  0  0  0  0  0999 V2000
  187.3800  177.9860  145.3500 C   0  0  2  0  0  3  0  0  0  0  0  0
  182.9210  179.4490  143.7300 O   0  0  0  0  0  1  0  0  0  0  0  0
  186.0960  178.5300  141.7420 C   0  0  0  0  0  2  0  0  0  0  0  0
  185.0910  178.8410  144.4640 C   0  0  0  0  0  0  0  0  0  0  0  0
  186.6900  177.7190  142.8820 C   0  0  0  0  0  2  0  0  0  0  0  0
  185.5830  178.4770  146.9410 C   0  0  0  0  0  2  0  0  0  0  0  0
  184.2330  179.0740  143.4520 C   0  0  0  0  0  0  0  0  0  0  0  0
  184.5490  178.8190  145.8740 C   0  0  0  0  0  2  0  0  0  0  0  0
  184.6270  178.8920  141.9980 C   0  0  2  0  0  3  0  0  0  0  0  0
  186.5150  177.3890  146.4470 C   0  0  0  0  0  2  0  0  0  0  0  0
  186.5510  178.5300  144.1630 C   0  0  2  0  0  3  0  0  0  0  0  0
  188.3580  177.0600  144.9410 O   0  0  0  0  0  0  0  0  0  0  0  0
  189.6400  177.5120  145.3390 C   0  0  1  0  0  3  0  0  0  0  0  0
  189.9640  177.5930  147.8690 C   0  0  0  0  0  1  0  0  0  0  0  0
  190.2200  176.8160  146.5880 C   0  0  2  0  0  3  0  0  0  0  0  0
  192.2340  175.8130  147.6690 C   0  0  0  0  0  1  0  0  0  0  0  0
  191.7050  176.5280  146.4400 C   0  0  0  0  0  2  0  0  0  0  0  0
  190.6310  177.6990  144.1850 C   0  0  0  0  0  2  0  0  0  0  0  0
  190.9060  179.1720  143.9570 C   0  0  0  0  0  1  0  0  0  0  0  0
  183.6720  177.9910  141.2040 C   0  0  0  0  0  2  0  0  0  0  0  0
  183.0580  178.6340  139.9550 C   0  0  0  0  0  2  0  0  0  0  0  0
  180.9400  178.4380  141.0950 C   0  0  0  0  0  3  0  0  0  0  0  0
  181.6520  179.0880  140.1610 C   0  0  0  0  0  0  0  0  0  0  0  0
  181.8440  180.8040  138.3610 C   0  0  0  0  0  2  0  0  0  0  0  0
  181.1710  180.2350  139.3540 C   0  0  0  0  0  3  0  0  0  0  0  0
  179.5360  178.7440  141.5050 C   0  0  0  0  0  2  0  0  0  0  0  0
  179.5310  179.4740  142.8330 C   0  0  0  0  0  2  0  0  0  0  0  0
  179.8130  180.8230  142.6230 O   0  0  0  0  0  1  0  0  0  0  0  0
  1 12  1  6  0  0  0
  1 10  1  0  0  0  0
  3  9  1  0  0  0  0
  3  5  1  0  0  0  0
  4  8  1  0  0  0  0
  7  2  1  0  0  0  0
  7  4  2  0  0  0  0
  8  6  1  0  0  0  0
  9 20  1  1  0  0  0
  9  7  1  0  0  0  0
 10  6  1  0  0  0  0
 11  5  1  6  0  0  0
 11  4  1  0  0  0  0
 11  1  1  0  0  0  0
 12 13  1  0  0  0  0
 13 18  1  6  0  0  0
 13 15  1  0  0  0  0
 15 14  1  1  0  0  0
 17 15  1  0  0  0  0
 17 16  1  0  0  0  0
 19 18  1  0  0  0  0
 21 23  1  0  0  0  0
 21 20  1  0  0  0  0
 22 26  1  0  0  0  0
 23 22  2  0  0  0  0
 24 25  2  0  0  0  0
 25 23  1  0  0  0  0
 26 27  1  0  0  0  0
 28 27  1  0  0  0  0
M  END
>  <MODEL>
3

>  <REMARK>
 VINA RESULT:      -7.6      1.950      8.814
  Name = 
  11 active torsions:
  status: ('A' for Active; 'I' for Inactive)
    1  A    between atoms: C_1  and  O_2
    2  A    between atoms: O_2  and  C_3
    3  A    between atoms: C_3  and  C_7
    4  A    between atoms: C_3  and  C_11
    5  A    between atoms: C_4  and  C_24
    6  A    between atoms: C_11  and  C_22
    7  A    between atoms: C_12  and  C_24
    8  A    between atoms: C_13  and  C_15
    9  A    between atoms: C_13  and  C_18
   10  A    between atoms: C_14  and  C_18
   11  A    between atoms: C_14  and  C_25
                            x       y       z     vdW  Elec       q    Type
                         _______ _______ _______ _____ _____    ______ ____

>  <TORSDO>
F 11

$$$$
=
 OpenBabel10262420443D

 28 29  0  0  1  0  0  0  0  0999 V2000
  188.8080  177.4310  145.5990 C   0  0  2  0  0  3  0  0  0  0  0  0
  184.2200  179.2770  146.0270 O   0  0  0  0  0  1  0  0  0  0  0  0
  186.2710  178.4580  142.8650 C   0  0  0  0  0  2  0  0  0  0  0  0
  186.4400  178.4880  145.7780 C   0  0  0  0  0  0  0  0  0  0  0  0
  187.1890  177.4910  143.5950 C   0  0  0  0  0  2  0  0  0  0  0  0
  187.8260  177.8090  147.8100 C   0  0  0  0  0  2  0  0  0  0  0  0
  185.2800  178.8780  145.2170 C   0  0  0  0  0  0  0  0  0  0  0  0
  186.4920  178.3230  147.2790 C   0  0  0  0  0  2  0  0  0  0  0  0
  185.0570  178.8530  143.7160 C   0  0  2  0  0  3  0  0  0  0  0  0
  188.3900  176.7470  146.8890 C   0  0  0  0  0  2  0  0  0  0  0  0
  187.6340  178.1490  144.8940 C   0  0  2  0  0  3  0  0  0  0  0  0
  189.4620  176.5170  144.7520 O   0  0  0  0  0  0  0  0  0  0  0  0
  190.8510  176.7910  144.7340 C   0  0  1  0  0  3  0  0  0  0  0  0
  191.3210  179.1810  143.9730 C   0  0  0  0  0  1  0  0  0  0  0  0
  191.3210  177.7110  143.5880 C   0  0  2  0  0  3  0  0  0  0  0  0
  191.4170  177.3460  141.1200 C   0  0  0  0  0  1  0  0  0  0  0  0
  190.5050  177.5040  142.3210 C   0  0  0  0  0  2  0  0  0  0  0  0
  191.4500  177.1120  146.1070 C   0  0  0  0  0  2  0  0  0  0  0  0
  192.0810  175.8740  146.7120 C   0  0  0  0  0  1  0  0  0  0  0  0
  183.7920  178.0980  143.2890 C   0  0  0  0  0  2  0  0  0  0  0  0
  182.6730  178.9740  142.7150 C   0  0  0  0  0  2  0  0  0  0  0  0
  183.4310  178.4750  140.4790 C   0  0  0  0  0  3  0  0  0  0  0  0
  182.3760  178.6810  141.2820 C   0  0  0  0  0  0  0  0  0  0  0  0
  180.0860  177.6920  141.3000 C   0  0  0  0  0  2  0  0  0  0  0  0
  180.9530  178.6030  140.8740 C   0  0  0  0  0  3  0  0  0  0  0  0
  183.3780  178.1230  139.0270 C   0  0  0  0  0  2  0  0  0  0  0  0
  184.7460  178.3050  138.3990 C   0  0  0  0  0  2  0  0  0  0  0  0
  185.6100  178.8840  139.3280 O   0  0  0  0  0  1  0  0  0  0  0  0
  1 12  1  6  0  0  0
  1 10  1  0  0  0  0
  3  5  1  0  0  0  0
  3  9  1  0  0  0  0
  4  8  1  0  0  0  0
  7  4  2  0  0  0  0
  7  2  1  0  0  0  0
  8  6  1  0  0  0  0
  9 20  1  1  0  0  0
  9  7  1  0  0  0  0
 10  6  1  0  0  0  0
 11  5  1  6  0  0  0
 11  1  1  0  0  0  0
 11  4  1  0  0  0  0
 13 12  1  0  0  0  0
 13 18  1  1  0  0  0
 15 14  1  1  0  0  0
 15 13  1  0  0  0  0
 16 17  1  0  0  0  0
 17 15  1  0  0  0  0
 18 19  1  0  0  0  0
 21 20  1  0  0  0  0
 22 23  2  0  0  0  0
 23 21  1  0  0  0  0
 25 23  1  0  0  0  0
 25 24  2  0  0  0  0
 26 22  1  0  0  0  0
 27 26  1  0  0  0  0
 27 28  1  0  0  0  0
M  END
>  <MODEL>
4

>  <REMARK>
 VINA RESULT:      -7.3      1.592      7.969
  Name = 
  11 active torsions:
  status: ('A' for Active; 'I' for Inactive)
    1  A    between atoms: C_1  and  O_2
    2  A    between atoms: O_2  and  C_3
    3  A    between atoms: C_3  and  C_7
    4  A    between atoms: C_3  and  C_11
    5  A    between atoms: C_4  and  C_24
    6  A    between atoms: C_11  and  C_22
    7  A    between atoms: C_12  and  C_24
    8  A    between atoms: C_13  and  C_15
    9  A    between atoms: C_13  and  C_18
   10  A    between atoms: C_14  and  C_18
   11  A    between atoms: C_14  and  C_25
                            x       y       z     vdW  Elec       q    Type
                         _______ _______ _______ _____ _____    ______ ____

>  <TORSDO>
F 11

$$$$
=
 OpenBabel10262420443D

 28 29  0  0  1  0  0  0  0  0999 V2000
  184.7830  178.3980  142.8580 C   0  0  2  0  0  3  0  0  0  0  0  0
  187.1000  177.6830  147.1900 O   0  0  0  0  0  1  0  0  0  0  0  0
  188.1000  176.5650  143.6360 C   0  0  0  0  0  2  0  0  0  0  0  0
  185.9800  177.9190  145.1150 C   0  0  0  0  0  0  0  0  0  0  0  0
  187.2370  177.6180  142.9600 C   0  0  0  0  0  2  0  0  0  0  0  0
  183.8290  179.2800  144.9340 C   0  0  0  0  0  2  0  0  0  0  0  0
  187.0450  177.4810  145.8130 C   0  0  0  0  0  0  0  0  0  0  0  0
  184.9590  178.7770  145.8260 C   0  0  0  0  0  2  0  0  0  0  0  0
  188.2320  176.8130  145.1440 C   0  0  2  0  0  3  0  0  0  0  0  0
  184.3630  179.6720  143.5710 C   0  0  0  0  0  2  0  0  0  0  0  0
  185.8680  177.6100  143.6280 C   0  0  2  0  0  3  0  0  0  0  0  0
  185.1660  178.6830  141.5340 O   0  0  0  0  0  0  0  0  0  0  0  0
  184.0130  178.8310  140.7240 C   0  0  1  0  0  3  0  0  0  0  0  0
  183.1570  180.2380  138.7750 C   0  0  0  0  0  1  0  0  0  0  0  0
  184.2790  179.3580  139.2990 C   0  0  2  0  0  3  0  0  0  0  0  0
  186.0430  178.1210  138.0370 C   0  0  0  0  0  1  0  0  0  0  0  0
  184.5570  178.2290  138.3180 C   0  0  0  0  0  2  0  0  0  0  0  0
  183.0270  177.6600  140.8070 C   0  0  0  0  0  2  0  0  0  0  0  0
  181.6300  178.1650  141.1090 C   0  0  0  0  0  1  0  0  0  0  0  0
  189.5830  177.4450  145.5020 C   0  0  0  0  0  2  0  0  0  0  0  0
  190.8080  176.7480  144.9000 C   0  0  0  0  0  2  0  0  0  0  0  0
  191.5210  176.9150  142.6000 C   0  0  0  0  0  3  0  0  0  0  0  0
  191.4390  177.5250  143.7920 C   0  0  0  0  0  0  0  0  0  0  0  0
  191.1090  179.9850  144.0390 C   0  0  0  0  0  2  0  0  0  0  0  0
  191.8840  178.9080  144.0860 C   0  0  0  0  0  3  0  0  0  0  0  0
  192.0670  177.5080  141.3420 C   0  0  0  0  0  2  0  0  0  0  0  0
  191.1430  177.2030  140.1800 C   0  0  0  0  0  2  0  0  0  0  0  0
  189.8970  176.8140  140.6680 O   0  0  0  0  0  1  0  0  0  0  0  0
  1 12  1  6  0  0  0
  1 10  1  0  0  0  0
  1 11  1  0  0  0  0
  3  9  1  0  0  0  0
  4  7  2  0  0  0  0
  4  8  1  0  0  0  0
  5  3  1  0  0  0  0
  6  8  1  0  0  0  0
  7  2  1  0  0  0  0
  9 20  1  6  0  0  0
  9  7  1  0  0  0  0
 10  6  1  0  0  0  0
 11  5  1  6  0  0  0
 11  4  1  0  0  0  0
 13 18  1  6  0  0  0
 13 12  1  0  0  0  0
 15 14  1  6  0  0  0
 15 13  1  0  0  0  0
 16 17  1  0  0  0  0
 17 15  1  0  0  0  0
 18 19  1  0  0  0  0
 21 20  1  0  0  0  0
 22 23  2  0  0  0  0
 23 25  1  0  0  0  0
 23 21  1  0  0  0  0
 24 25  2  0  0  0  0
 26 22  1  0  0  0  0
 27 28  1  0  0  0  0
 27 26  1  0  0  0  0
M  END
>  <MODEL>
5

>  <REMARK>
 VINA RESULT:      -7.3      1.546      2.778
  Name = 
  11 active torsions:
  status: ('A' for Active; 'I' for Inactive)
    1  A    between atoms: C_1  and  O_2
    2  A    between atoms: O_2  and  C_3
    3  A    between atoms: C_3  and  C_7
    4  A    between atoms: C_3  and  C_11
    5  A    between atoms: C_4  and  C_24
    6  A    between atoms: C_11  and  C_22
    7  A    between atoms: C_12  and  C_24
    8  A    between atoms: C_13  and  C_15
    9  A    between atoms: C_13  and  C_18
   10  A    between atoms: C_14  and  C_18
   11  A    between atoms: C_14  and  C_25
                            x       y       z     vdW  Elec       q    Type
                         _______ _______ _______ _____ _____    ______ ____

>  <TORSDO>
F 11

$$$$
=
 OpenBabel10262420443D

 28 29  0  0  1  0  0  0  0  0999 V2000
  188.5720  177.7020  145.7780 C   0  0  2  0  0  3  0  0  0  0  0  0
  183.8940  179.3180  145.3900 O   0  0  0  0  0  1  0  0  0  0  0  0
  186.4280  178.3930  142.6330 C   0  0  0  0  0  2  0  0  0  0  0  0
  186.1590  178.6370  145.5280 C   0  0  0  0  0  0  0  0  0  0  0  0
  187.2680  177.5320  143.5620 C   0  0  0  0  0  2  0  0  0  0  0  0
  187.2560  178.1810  147.7870 C   0  0  0  0  0  2  0  0  0  0  0  0
  185.0790  178.9220  144.7760 C   0  0  0  0  0  0  0  0  0  0  0  0
  185.9940  178.5810  147.0300 C   0  0  0  0  0  2  0  0  0  0  0  0
  185.0850  178.7790  143.2650 C   0  0  2  0  0  3  0  0  0  0  0  0
  187.9980  177.0890  147.0430 C   0  0  0  0  0  2  0  0  0  0  0  0
  187.4850  178.3040  144.8570 C   0  0  2  0  0  3  0  0  0  0  0  0
  189.3850  176.7690  145.1090 O   0  0  0  0  0  0  0  0  0  0  0  0
  190.7240  177.2290  145.0870 C   0  0  1  0  0  3  0  0  0  0  0  0
  192.0450  175.0800  144.6990 C   0  0  0  0  0  1  0  0  0  0  0  0
  191.7660  176.2360  145.6450 C   0  0  2  0  0  3  0  0  0  0  0  0
  192.4400  176.0240  148.0390 C   0  0  0  0  0  1  0  0  0  0  0  0
  191.3690  175.7050  147.0140 C   0  0  0  0  0  2  0  0  0  0  0  0
  191.1320  177.9300  143.7880 C   0  0  0  0  0  2  0  0  0  0  0  0
  191.0200  179.4340  143.9400 C   0  0  0  0  0  1  0  0  0  0  0  0
  183.9320  177.9260  142.7190 C   0  0  0  0  0  2  0  0  0  0  0  0
  182.8110  178.7120  142.0290 C   0  0  0  0  0  2  0  0  0  0  0  0
  183.9260  178.3410  139.9220 C   0  0  0  0  0  3  0  0  0  0  0  0
  182.7520  178.4790  140.5560 C   0  0  0  0  0  0  0  0  0  0  0  0
  180.5220  177.4300  140.1740 C   0  0  0  0  0  2  0  0  0  0  0  0
  181.4140  178.3810  139.9260 C   0  0  0  0  0  3  0  0  0  0  0  0
  184.1150  178.0560  138.4670 C   0  0  0  0  0  2  0  0  0  0  0  0
  185.5700  178.2380  138.0860 C   0  0  0  0  0  2  0  0  0  0  0  0
  186.2970  178.6350  139.2080 O   0  0  0  0  0  1  0  0  0  0  0  0
  1 12  1  6  0  0  0
  1 10  1  0  0  0  0
  3  9  1  0  0  0  0
  3  5  1  0  0  0  0
  4  8  1  0  0  0  0
  7  2  1  0  0  0  0
  7  4  2  0  0  0  0
  8  6  1  0  0  0  0
  9 20  1  1  0  0  0
  9  7  1  0  0  0  0
 10  6  1  0  0  0  0
 11  5  1  6  0  0  0
 11  4  1  0  0  0  0
 11  1  1  0  0  0  0
 13 18  1  6  0  0  0
 13 12  1  0  0  0  0
 13 15  1  0  0  0  0
 15 14  1  6  0  0  0
 15 17  1  0  0  0  0
 17 16  1  0  0  0  0
 18 19  1  0  0  0  0
 21 20  1  0  0  0  0
 22 23  2  0  0  0  0
 23 21  1  0  0  0  0
 25 24  2  0  0  0  0
 25 23  1  0  0  0  0
 26 22  1  0  0  0  0
 27 26  1  0  0  0  0
 27 28  1  0  0  0  0
M  END
>  <MODEL>
6

>  <REMARK>
 VINA RESULT:      -7.1      1.619      8.317
  Name = 
  11 active torsions:
  status: ('A' for Active; 'I' for Inactive)
    1  A    between atoms: C_1  and  O_2
    2  A    between atoms: O_2  and  C_3
    3  A    between atoms: C_3  and  C_7
    4  A    between atoms: C_3  and  C_11
    5  A    between atoms: C_4  and  C_24
    6  A    between atoms: C_11  and  C_22
    7  A    between atoms: C_12  and  C_24
    8  A    between atoms: C_13  and  C_15
    9  A    between atoms: C_13  and  C_18
   10  A    between atoms: C_14  and  C_18
   11  A    between atoms: C_14  and  C_25
                            x       y       z     vdW  Elec       q    Type
                         _______ _______ _______ _____ _____    ______ ____

>  <TORSDO>
F 11

$$$$
=
 OpenBabel10262420443D

 28 29  0  0  1  0  0  0  0  0999 V2000
  188.2180  177.6400  144.1320 C   0  0  2  0  0  3  0  0  0  0  0  0
  186.0260  178.9270  139.8680 O   0  0  0  0  0  1  0  0  0  0  0  0
  189.6750  177.8820  140.5560 C   0  0  0  0  0  2  0  0  0  0  0  0
  187.1340  178.3990  141.8950 C   0  0  0  0  0  0  0  0  0  0  0  0
  189.3260  177.1710  141.8530 C   0  0  0  0  0  2  0  0  0  0  0  0
  185.8440  178.2390  144.0910 C   0  0  0  0  0  2  0  0  0  0  0  0
  187.1740  178.5430  140.5560 C   0  0  0  0  0  0  0  0  0  0  0  0
  185.7930  178.4850  142.5870 C   0  0  0  0  0  2  0  0  0  0  0  0
  188.4240  178.2490  139.7470 C   0  0  2  0  0  3  0  0  0  0  0  0
  186.8180  177.1240  144.4140 C   0  0  0  0  0  2  0  0  0  0  0  0
  188.4100  178.0800  142.6620 C   0  0  2  0  0  3  0  0  0  0  0  0
  189.1780  176.6940  144.5380 O   0  0  0  0  0  0  0  0  0  0  0  0
  190.1140  177.3050  145.4070 C   0  0  1  0  0  3  0  0  0  0  0  0
  189.1610  177.5290  147.7640 C   0  0  0  0  0  1  0  0  0  0  0  0
  190.1100  176.7680  146.8540 C   0  0  2  0  0  3  0  0  0  0  0  0
  192.0700  175.3390  147.4440 C   0  0  0  0  0  1  0  0  0  0  0  0
  191.5060  176.7470  147.4560 C   0  0  0  0  0  2  0  0  0  0  0  0
  191.5050  177.5080  144.7970 C   0  0  0  0  0  2  0  0  0  0  0  0
  191.6290  178.9020  144.2140 C   0  0  0  0  0  1  0  0  0  0  0  0
  188.1940  177.2780  138.5810 C   0  0  0  0  0  2  0  0  0  0  0  0
  189.3810  177.1170  137.6250 C   0  0  0  0  0  2  0  0  0  0  0  0
  189.0210  174.8010  137.0520 C   0  0  0  0  0  3  0  0  0  0  0  0
  189.8770  175.7120  137.5390 C   0  0  0  0  0  0  0  0  0  0  0  0
  192.2090  176.3730  138.1280 C   0  0  0  0  0  2  0  0  0  0  0  0
  191.2740  175.4460  137.9580 C   0  0  0  0  0  3  0  0  0  0  0  0
  189.3080  173.3510  136.8320 C   0  0  0  0  0  2  0  0  0  0  0  0
  189.8880  173.1400  135.4480 C   0  0  0  0  0  2  0  0  0  0  0  0
  191.2160  172.7310  135.5580 O   0  0  0  0  0  1  0  0  0  0  0  0
  1 10  1  0  0  0  0
  1 12  1  6  0  0  0
  2  7  1  0  0  0  0
  3  5  1  0  0  0  0
  4  8  1  0  0  0  0
  4 11  1  0  0  0  0
  6 10  1  0  0  0  0
  7  4  2  0  0  0  0
  8  6  1  0  0  0  0
  9 20  1  6  0  0  0
  9  3  1  0  0  0  0
  9  7  1  0  0  0  0
 11  5  1  6  0  0  0
 11  1  1  0  0  0  0
 12 13  1  0  0  0  0
 13 18  1  6  0  0  0
 13 15  1  0  0  0  0
 15 17  1  0  0  0  0
 15 14  1  1  0  0  0
 16 17  1  0  0  0  0
 19 18  1  0  0  0  0
 21 20  1  0  0  0  0
 22 23  2  0  0  0  0
 23 21  1  0  0  0  0
 23 25  1  0  0  0  0
 25 24  2  0  0  0  0
 26 22  1  0  0  0  0
 27 28  1  0  0  0  0
 27 26  1  0  0  0  0
M  END
>  <MODEL>
7

>  <REMARK>
 VINA RESULT:      -7.1      3.617      8.058
  Name = 
  11 active torsions:
  status: ('A' for Active; 'I' for Inactive)
    1  A    between atoms: C_1  and  O_2
    2  A    between atoms: O_2  and  C_3
    3  A    between atoms: C_3  and  C_7
    4  A    between atoms: C_3  and  C_11
    5  A    between atoms: C_4  and  C_24
    6  A    between atoms: C_11  and  C_22
    7  A    between atoms: C_12  and  C_24
    8  A    between atoms: C_13  and  C_15
    9  A    between atoms: C_13  and  C_18
   10  A    between atoms: C_14  and  C_18
   11  A    between atoms: C_14  and  C_25
                            x       y       z     vdW  Elec       q    Type
                         _______ _______ _______ _____ _____    ______ ____

>  <TORSDO>
F 11

$$$$
=
 OpenBabel10262420443D

 28 29  0  0  1  0  0  0  0  0999 V2000
  188.5030  177.5410  145.6530 C   0  0  2  0  0  3  0  0  0  0  0  0
  183.9450  179.4910  145.3960 O   0  0  0  0  0  1  0  0  0  0  0  0
  186.3140  178.3610  142.5700 C   0  0  0  0  0  2  0  0  0  0  0  0
  186.1580  178.6470  145.4700 C   0  0  0  0  0  0  0  0  0  0  0  0
  187.1190  177.4480  143.4810 C   0  0  0  0  0  2  0  0  0  0  0  0
  187.2910  178.1310  147.6970 C   0  0  0  0  0  2  0  0  0  0  0  0
  185.0780  179.0040  144.7490 C   0  0  0  0  0  0  0  0  0  0  0  0
  186.0380  178.6160  146.9770 C   0  0  0  0  0  2  0  0  0  0  0  0
  185.0240  178.8490  143.2410 C   0  0  2  0  0  3  0  0  0  0  0  0
  187.9270  176.9810  146.9420 C   0  0  0  0  0  2  0  0  0  0  0  0
  187.4330  178.2120  144.7600 C   0  0  2  0  0  3  0  0  0  0  0  0
  189.2240  176.5450  144.9680 O   0  0  0  0  0  0  0  0  0  0  0  0
  190.6100  176.8290  145.0310 C   0  0  1  0  0  3  0  0  0  0  0  0
  191.0130  179.2300  144.2650 C   0  0  0  0  0  1  0  0  0  0  0  0
  191.1380  177.7560  143.9160 C   0  0  2  0  0  3  0  0  0  0  0  0
  190.5430  176.0020  142.2430 C   0  0  0  0  0  1  0  0  0  0  0  0
  190.4660  177.4780  142.5800 C   0  0  0  0  0  2  0  0  0  0  0  0
  191.1270  177.1500  146.4370 C   0  0  0  0  0  2  0  0  0  0  0  0
  192.0020  176.0230  146.9490 C   0  0  0  0  0  1  0  0  0  0  0  0
  183.7950  178.0780  142.7400 C   0  0  0  0  0  2  0  0  0  0  0  0
  183.1700  178.6180  141.4490 C   0  0  0  0  0  2  0  0  0  0  0  0
  181.1500  179.2410  142.6140 C   0  0  0  0  0  3  0  0  0  0  0  0
  181.6810  178.6970  141.5080 C   0  0  0  0  0  0  0  0  0  0  0  0
  181.2150  177.1260  139.6260 C   0  0  0  0  0  2  0  0  0  0  0  0
  180.9160  178.2090  140.3350 C   0  0  0  0  0  3  0  0  0  0  0  0
  179.6960  179.4660  142.8750 C   0  0  0  0  0  2  0  0  0  0  0  0
  179.3400  178.9930  144.2710 C   0  0  0  0  0  2  0  0  0  0  0  0
  179.6490  177.6390  144.3950 O   0  0  0  0  0  1  0  0  0  0  0  0
  1 12  1  6  0  0  0
  1 10  1  0  0  0  0
  3  9  1  0  0  0  0
  3  5  1  0  0  0  0
  4  8  1  0  0  0  0
  7  2  1  0  0  0  0
  7  4  2  0  0  0  0
  8  6  1  0  0  0  0
  9 20  1  1  0  0  0
  9  7  1  0  0  0  0
 10  6  1  0  0  0  0
 11  5  1  6  0  0  0
 11  4  1  0  0  0  0
 11  1  1  0  0  0  0
 12 13  1  0  0  0  0
 13 18  1  1  0  0  0
 15 14  1  1  0  0  0
 15 13  1  0  0  0  0
 16 17  1  0  0  0  0
 17 15  1  0  0  0  0
 18 19  1  0  0  0  0
 21 23  1  0  0  0  0
 21 20  1  0  0  0  0
 22 26  1  0  0  0  0
 23 22  2  0  0  0  0
 24 25  2  0  0  0  0
 25 23  1  0  0  0  0
 26 27  1  0  0  0  0
 27 28  1  0  0  0  0
M  END
>  <MODEL>
8

>  <REMARK>
 VINA RESULT:      -7.1      2.164      8.286
  Name = 
  11 active torsions:
  status: ('A' for Active; 'I' for Inactive)
    1  A    between atoms: C_1  and  O_2
    2  A    between atoms: O_2  and  C_3
    3  A    between atoms: C_3  and  C_7
    4  A    between atoms: C_3  and  C_11
    5  A    between atoms: C_4  and  C_24
    6  A    between atoms: C_11  and  C_22
    7  A    between atoms: C_12  and  C_24
    8  A    between atoms: C_13  and  C_15
    9  A    between atoms: C_13  and  C_18
   10  A    between atoms: C_14  and  C_18
   11  A    between atoms: C_14  and  C_25
                            x       y       z     vdW  Elec       q    Type
                         _______ _______ _______ _____ _____    ______ ____

>  <TORSDO>
F 11

$$$$
=
 OpenBabel10262420443D

 28 29  0  0  1  0  0  0  0  0999 V2000
  187.0670  178.1120  145.4100 C   0  0  2  0  0  3  0  0  0  0  0  0
  182.5840  179.2040  143.5790 O   0  0  0  0  0  1  0  0  0  0  0  0
  185.9270  178.6170  141.7480 C   0  0  0  0  0  2  0  0  0  0  0  0
  184.7590  178.7760  144.4170 C   0  0  0  0  0  0  0  0  0  0  0  0
  186.5330  177.8380  142.9040 C   0  0  0  0  0  2  0  0  0  0  0  0
  185.1540  178.4040  146.9100 C   0  0  0  0  0  2  0  0  0  0  0  0
  183.9370  178.9540  143.3650 C   0  0  0  0  0  0  0  0  0  0  0  0
  184.1490  178.6750  145.7960 C   0  0  0  0  0  2  0  0  0  0  0  0
  184.4210  178.8400  141.9310 C   0  0  2  0  0  3  0  0  0  0  0  0
  186.2050  177.4150  146.4480 C   0  0  0  0  0  2  0  0  0  0  0  0
  186.2550  178.6050  144.1900 C   0  0  2  0  0  3  0  0  0  0  0  0
  188.1450  177.2860  145.0370 O   0  0  0  0  0  0  0  0  0  0  0  0
  189.3510  177.8070  145.5670 C   0  0  1  0  0  3  0  0  0  0  0  0
  189.3280  177.7950  148.1190 C   0  0  0  0  0  1  0  0  0  0  0  0
  189.8460  177.1230  146.8590 C   0  0  2  0  0  3  0  0  0  0  0  0
  191.7960  175.6320  147.3150 C   0  0  0  0  0  1  0  0  0  0  0  0
  191.3630  177.0260  146.9050 C   0  0  0  0  0  2  0  0  0  0  0  0
  190.4380  178.0750  144.5210 C   0  0  0  0  0  2  0  0  0  0  0  0
  190.1430  177.3140  143.2440 C   0  0  0  0  0  1  0  0  0  0  0  0
  183.5930  177.8740  141.0720 C   0  0  0  0  0  2  0  0  0  0  0  0
  183.3680  178.3220  139.6230 C   0  0  0  0  0  2  0  0  0  0  0  0
  183.0590  176.1460  138.6260 C   0  0  0  0  0  3  0  0  0  0  0  0
  183.7640  177.2870  138.6230 C   0  0  0  0  0  0  0  0  0  0  0  0
  186.0630  178.0700  138.0530 C   0  0  0  0  0  2  0  0  0  0  0  0
  184.8700  177.6150  137.6910 C   0  0  0  0  0  3  0  0  0  0  0  0
  183.2420  174.9930  137.6930 C   0  0  0  0  0  2  0  0  0  0  0  0
  182.3050  175.1290  136.5090 C   0  0  0  0  0  2  0  0  0  0  0  0
  181.0960  175.6780  136.9350 O   0  0  0  0  0  1  0  0  0  0  0  0
  1 12  1  6  0  0  0
  1 10  1  0  0  0  0
  3  9  1  0  0  0  0
  3  5  1  0  0  0  0
  4  8  1  0  0  0  0
  7  2  1  0  0  0  0
  7  4  2  0  0  0  0
  8  6  1  0  0  0  0
  9 20  1  1  0  0  0
  9  7  1  0  0  0  0
 10  6  1  0  0  0  0
 11  5  1  6  0  0  0
 11  4  1  0  0  0  0
 11  1  1  0  0  0  0
 12 13  1  0  0  0  0
 13 18  1  6  0  0  0
 13 15  1  0  0  0  0
 15 17  1  0  0  0  0
 15 14  1  1  0  0  0
 17 16  1  0  0  0  0
 19 18  1  0  0  0  0
 21 20  1  0  0  0  0
 23 22  2  0  0  0  0
 23 21  1  0  0  0  0
 25 24  2  0  0  0  0
 25 23  1  0  0  0  0
 26 22  1  0  0  0  0
 27 28  1  0  0  0  0
 27 26  1  0  0  0  0
M  END
>  <MODEL>
9

>  <REMARK>
 VINA RESULT:      -7.1      2.123      8.490
  Name = 
  11 active torsions:
  status: ('A' for Active; 'I' for Inactive)
    1  A    between atoms: C_1  and  O_2
    2  A    between atoms: O_2  and  C_3
    3  A    between atoms: C_3  and  C_7
    4  A    between atoms: C_3  and  C_11
    5  A    between atoms: C_4  and  C_24
    6  A    between atoms: C_11  and  C_22
    7  A    between atoms: C_12  and  C_24
    8  A    between atoms: C_13  and  C_15
    9  A    between atoms: C_13  and  C_18
   10  A    between atoms: C_14  and  C_18
   11  A    between atoms: C_14  and  C_25
                            x       y       z     vdW  Elec       q    Type
                         _______ _______ _______ _____ _____    ______ ____

>  <TORSDO>
F 11

$$$$
