=
 OpenBabel10262420113D

 27 30  0  0  1  0  0  0  0  0999 V2000
  187.5270  178.4970  141.5890 N   0  0  0  0  0  2  0  0  0  0  0  0
  188.0810  177.9180  143.9630 C   0  0  2  0  0  3  0  0  0  0  0  0
  189.5410  176.5170  142.5580 C   0  0  0  0  0  2  0  0  0  0  0  0
  190.5200  177.0820  138.9500 C   0  0  0  0  0  3  0  0  0  0  0  0
  189.5950  178.0400  138.5340 C   0  0  0  0  0  0  0  0  0  0  0  0
  187.0540  177.8290  142.7970 C   0  0  1  0  0  3  0  0  0  0  0  0
  188.5480  177.9940  140.7230 C   0  0  0  0  0  0  0  0  0  0  0  0
  189.4620  177.5650  143.5970 N   0  0  1  0  0  0  0  0  0  0  0  0
  190.4740  176.5880  140.2550 C   0  0  0  0  0  3  0  0  0  0  0  0
  189.6460  178.5270  137.2700 F   0  0  0  0  0  0  0  0  0  0  0  0
  188.6160  178.4950  139.4190 C   0  0  0  0  0  3  0  0  0  0  0  0
  189.4990  177.0420  141.1510 C   0  0  0  0  0  0  0  0  0  0  0  0
  184.3570  179.9740  144.4090 C   0  0  0  0  0  3  0  0  0  0  0  0
  185.7200  178.3980  143.1660 C   0  0  0  0  0  0  0  0  0  0  0  0
  184.5680  177.8980  142.5460 C   0  0  0  0  0  3  0  0  0  0  0  0
  183.3140  178.4290  142.8640 C   0  0  0  0  0  3  0  0  0  0  0  0
  183.2080  179.4640  143.7960 C   0  0  0  0  0  3  0  0  0  0  0  0
  185.6110  179.4450  144.0930 C   0  0  0  0  0  3  0  0  0  0  0  0
  191.0180  179.2120  144.4980 C   0  0  0  0  0  2  0  0  0  0  0  0
  191.7150  178.4740  143.3790 C   0  0  0  0  0  2  0  0  0  0  0  0
  190.2300  178.7700  143.2780 C   0  0  0  0  0  3  0  0  0  0  0  0
  187.6880  177.1140  145.2150 C   0  0  2  0  0  3  0  0  0  0  0  0
  186.2300  177.2930  145.6250 C   0  0  0  0  0  1  0  0  0  0  0  0
  188.5050  178.2270  147.1760 O   0  0  0  0  0  0  0  0  0  0  0  0
  188.6500  177.2770  146.3620 C   0  0  0  0  0  0  0  0  0  0  0  0
  190.8980  176.7650  147.2440 C   0  0  0  0  0  1  0  0  0  0  0  0
  189.7210  176.3990  146.5400 O   0  0  0  0  0  0  0  0  0  0  0  0
  1  6  1  0  0  0  0
  2 22  1  1  0  0  0
  3  8  1  0  0  0  0
  4  9  1  0  0  0  0
  5  4  2  0  0  0  0
  5 11  1  0  0  0  0
  6 14  1  1  0  0  0
  6  2  1  0  0  0  0
  7 12  1  0  0  0  0
  7  1  1  0  0  0  0
  8 21  1  6  0  0  0
  8  2  1  0  0  0  0
  9 12  2  0  0  0  0
 10  5  1  0  0  0  0
 11  7  2  0  0  0  0
 12  3  1  0  0  0  0
 14 18  2  0  0  0  0
 15 16  2  0  0  0  0
 15 14  1  0  0  0  0
 16 17  1  0  0  0  0
 17 13  2  0  0  0  0
 18 13  1  0  0  0  0
 20 19  1  0  0  0  0
 21 20  1  0  0  0  0
 21 19  1  0  0  0  0
 22 23  1  1  0  0  0
 22 25  1  0  0  0  0
 25 27  1  0  0  0  0
 25 24  2  0  0  0  0
 27 26  1  0  0  0  0
M  END
>  <MODEL>
1

>  <REMARK>
 VINA RESULT:      -7.8      0.000      0.000
  Name = 
  5 active torsions:
  status: ('A' for Active; 'I' for Inactive)
    1  A    between atoms: C_2  and  C_6
    2  A    between atoms: C_6  and  C_17
    3  A    between atoms: C_9  and  C_15
    4  A    between atoms: C_14  and  N_19
    5  A    between atoms: O_16  and  C_17
                            x       y       z     vdW  Elec       q    Type
                         _______ _______ _______ _____ _____    ______ ____

>  <TORSDO>
F 5

$$$$
=
 OpenBabel10262420113D

 27 30  0  0  1  0  0  0  0  0999 V2000
  185.7840  178.8030  139.9750 N   0  0  0  0  0  2  0  0  0  0  0  0
  184.4050  178.1590  137.9860 C   0  0  2  0  0  3  0  0  0  0  0  0
  183.0770  177.5460  139.9680 C   0  0  0  0  0  2  0  0  0  0  0  0
  183.4290  178.8700  143.4920 C   0  0  0  0  0  3  0  0  0  0  0  0
  184.6790  179.4890  143.4570 C   0  0  0  0  0  0  0  0  0  0  0  0
  185.6540  177.8650  138.8650 C   0  0  1  0  0  3  0  0  0  0  0  0
  184.9650  178.8030  141.1470 C   0  0  0  0  0  0  0  0  0  0  0  0
  183.1550  178.3600  138.7370 N   0  0  1  0  0  0  0  0  0  0  0  0
  182.9350  178.2300  142.3530 C   0  0  0  0  0  3  0  0  0  0  0  0
  185.1550  180.1180  144.5590 F   0  0  0  0  0  0  0  0  0  0  0  0
  185.4410  179.4570  142.2880 C   0  0  0  0  0  3  0  0  0  0  0  0
  183.6900  178.1980  141.1750 C   0  0  0  0  0  0  0  0  0  0  0  0
  188.2350  178.6410  136.1800 C   0  0  0  0  0  3  0  0  0  0  0  0
  186.9250  177.8800  138.0750 C   0  0  0  0  0  0  0  0  0  0  0  0
  188.0330  177.1650  138.5470 C   0  0  0  0  0  3  0  0  0  0  0  0
  189.2340  177.1820  137.8320 C   0  0  0  0  0  3  0  0  0  0  0  0
  189.3360  177.9170  136.6490 C   0  0  0  0  0  3  0  0  0  0  0  0
  187.0330  178.6270  136.8920 C   0  0  0  0  0  3  0  0  0  0  0  0
  181.8660  180.2870  137.9820 C   0  0  0  0  0  2  0  0  0  0  0  0
  181.4850  180.0030  139.4170 C   0  0  0  0  0  2  0  0  0  0  0  0
  182.9160  179.7880  138.9580 C   0  0  0  0  0  3  0  0  0  0  0  0
  184.1470  177.1160  136.8830 C   0  0  2  0  0  3  0  0  0  0  0  0
  182.7920  177.2690  136.2010 C   0  0  0  0  0  1  0  0  0  0  0  0
  183.6190  175.0820  138.0390 O   0  0  0  0  0  0  0  0  0  0  0  0
  184.4380  175.7020  137.3100 C   0  0  0  0  0  0  0  0  0  0  0  0
  186.1750  175.1990  135.6290 C   0  0  0  0  0  1  0  0  0  0  0  0
  185.6160  175.0570  136.9260 O   0  0  0  0  0  0  0  0  0  0  0  0
  1  7  1  0  0  0  0
  2 22  1  6  0  0  0
  2  8  1  0  0  0  0
  2  6  1  0  0  0  0
  3 12  1  0  0  0  0
  5  4  1  0  0  0  0
  5 10  1  0  0  0  0
  6 14  1  6  0  0  0
  6  1  1  0  0  0  0
  7 12  2  0  0  0  0
  7 11  1  0  0  0  0
  8 21  1  1  0  0  0
  8  3  1  0  0  0  0
  9  4  2  0  0  0  0
 11  5  2  0  0  0  0
 12  9  1  0  0  0  0
 13 17  2  0  0  0  0
 13 18  1  0  0  0  0
 14 15  1  0  0  0  0
 16 15  2  0  0  0  0
 17 16  1  0  0  0  0
 18 14  2  0  0  0  0
 19 21  1  0  0  0  0
 19 20  1  0  0  0  0
 21 20  1  0  0  0  0
 22 23  1  1  0  0  0
 22 25  1  0  0  0  0
 25 24  2  0  0  0  0
 26 27  1  0  0  0  0
 27 25  1  0  0  0  0
M  END
>  <MODEL>
2

>  <REMARK>
 VINA RESULT:      -6.8      4.832      8.306
  Name = 
  5 active torsions:
  status: ('A' for Active; 'I' for Inactive)
    1  A    between atoms: C_2  and  C_6
    2  A    between atoms: C_6  and  C_17
    3  A    between atoms: C_9  and  C_15
    4  A    between atoms: C_14  and  N_19
    5  A    between atoms: O_16  and  C_17
                            x       y       z     vdW  Elec       q    Type
                         _______ _______ _______ _____ _____    ______ ____

>  <TORSDO>
F 5

$$$$
=
 OpenBabel10262420113D

 27 30  0  0  1  0  0  0  0  0999 V2000
  192.3930  176.8620  139.1420 N   0  0  0  0  0  2  0  0  0  0  0  0
  191.0070  176.3440  137.1210 C   0  0  2  0  0  3  0  0  0  0  0  0
  189.5050  176.1130  139.0590 C   0  0  0  0  0  2  0  0  0  0  0  0
  189.9380  177.5850  142.5150 C   0  0  0  0  0  3  0  0  0  0  0  0
  191.2810  177.9660  142.5130 C   0  0  0  0  0  0  0  0  0  0  0  0
  192.1420  175.8910  138.0830 C   0  0  1  0  0  3  0  0  0  0  0  0
  191.5370  177.0880  140.2650 C   0  0  0  0  0  0  0  0  0  0  0  0
  189.7830  176.8150  137.7900 N   0  0  1  0  0  0  0  0  0  0  0  0
  189.3870  176.9690  141.3900 C   0  0  0  0  0  3  0  0  0  0  0  0
  191.8150  178.5720  143.6010 F   0  0  0  0  0  0  0  0  0  0  0  0
  192.0740  177.7210  141.3910 C   0  0  0  0  0  3  0  0  0  0  0  0
  190.1730  176.7230  140.2590 C   0  0  0  0  0  0  0  0  0  0  0  0
  195.0100  176.1250  135.5940 C   0  0  0  0  0  3  0  0  0  0  0  0
  193.4290  175.6250  137.3640 C   0  0  0  0  0  0  0  0  0  0  0  0
  194.2910  174.6340  137.8490 C   0  0  0  0  0  3  0  0  0  0  0  0
  195.5040  174.3840  137.2010 C   0  0  0  0  0  3  0  0  0  0  0  0
  195.8640  175.1270  136.0740 C   0  0  0  0  0  3  0  0  0  0  0  0
  193.7970  176.3770  136.2390 C   0  0  0  0  0  3  0  0  0  0  0  0
  188.9070  178.8880  136.8500 C   0  0  0  0  0  2  0  0  0  0  0  0
  188.4110  178.7740  138.2740 C   0  0  0  0  0  2  0  0  0  0  0  0
  189.7990  178.2750  137.9140 C   0  0  0  0  0  3  0  0  0  0  0  0
  190.6120  175.2930  136.0680 C   0  0  2  0  0  3  0  0  0  0  0  0
  189.3090  175.6130  135.3430 C   0  0  0  0  0  1  0  0  0  0  0  0
  189.7940  173.4530  137.3700 O   0  0  0  0  0  0  0  0  0  0  0  0
  190.6740  173.8770  136.5760 C   0  0  0  0  0  0  0  0  0  0  0  0
  192.3060  173.0650  134.9110 C   0  0  0  0  0  1  0  0  0  0  0  0
  191.7060  173.0150  136.1960 O   0  0  0  0  0  0  0  0  0  0  0  0
  1  7  1  0  0  0  0
  2 22  1  6  0  0  0
  2  8  1  0  0  0  0
  2  6  1  0  0  0  0
  3 12  1  0  0  0  0
  5  4  1  0  0  0  0
  5 10  1  0  0  0  0
  6 14  1  6  0  0  0
  6  1  1  0  0  0  0
  7 11  1  0  0  0  0
  8 21  1  1  0  0  0
  8  3  1  0  0  0  0
  9  4  2  0  0  0  0
 11  5  2  0  0  0  0
 12  7  2  0  0  0  0
 12  9  1  0  0  0  0
 13 17  2  0  0  0  0
 13 18  1  0  0  0  0
 14 15  1  0  0  0  0
 16 15  2  0  0  0  0
 17 16  1  0  0  0  0
 18 14  2  0  0  0  0
 19 21  1  0  0  0  0
 19 20  1  0  0  0  0
 21 20  1  0  0  0  0
 22 23  1  1  0  0  0
 22 25  1  0  0  0  0
 25 24  2  0  0  0  0
 26 27  1  0  0  0  0
 27 25  1  0  0  0  0
M  END
>  <MODEL>
3

>  <REMARK>
 VINA RESULT:      -6.5      4.780      8.963
  Name = 
  5 active torsions:
  status: ('A' for Active; 'I' for Inactive)
    1  A    between atoms: C_2  and  C_6
    2  A    between atoms: C_6  and  C_17
    3  A    between atoms: C_9  and  C_15
    4  A    between atoms: C_14  and  N_19
    5  A    between atoms: O_16  and  C_17
                            x       y       z     vdW  Elec       q    Type
                         _______ _______ _______ _____ _____    ______ ____

>  <TORSDO>
F 5

$$$$
=
 OpenBabel10262420113D

 27 30  0  0  1  0  0  0  0  0999 V2000
  185.3360  178.6470  139.6820 N   0  0  0  0  0  2  0  0  0  0  0  0
  183.7070  178.1970  137.8330 C   0  0  2  0  0  3  0  0  0  0  0  0
  182.4980  177.7530  139.9320 C   0  0  0  0  0  2  0  0  0  0  0  0
  183.3410  179.0030  143.4000 C   0  0  0  0  0  3  0  0  0  0  0  0
  184.6530  179.4540  143.2460 C   0  0  0  0  0  0  0  0  0  0  0  0
  184.9830  177.7390  138.5960 C   0  0  1  0  0  3  0  0  0  0  0  0
  184.6340  178.7480  140.9240 C   0  0  0  0  0  0  0  0  0  0  0  0
  182.5680  178.5560  138.6940 N   0  0  1  0  0  0  0  0  0  0  0  0
  182.6660  178.4380  142.3160 C   0  0  0  0  0  3  0  0  0  0  0  0
  185.3060  180.0100  144.2950 F   0  0  0  0  0  0  0  0  0  0  0  0
  185.2940  179.3290  142.0120 C   0  0  0  0  0  3  0  0  0  0  0  0
  183.2990  178.3140  141.0740 C   0  0  0  0  0  0  0  0  0  0  0  0
  187.6620  176.2200  136.3620 C   0  0  0  0  0  3  0  0  0  0  0  0
  186.1680  177.5920  137.6930 C   0  0  0  0  0  0  0  0  0  0  0  0
  186.8670  178.7370  137.2900 C   0  0  0  0  0  3  0  0  0  0  0  0
  187.9660  178.6210  136.4330 C   0  0  0  0  0  3  0  0  0  0  0  0
  188.3640  177.3640  135.9710 C   0  0  0  0  0  3  0  0  0  0  0  0
  186.5630  176.3330  137.2190 C   0  0  0  0  0  3  0  0  0  0  0  0
  181.5550  180.6520  137.9690 C   0  0  0  0  0  2  0  0  0  0  0  0
  181.1600  180.4150  139.4090 C   0  0  0  0  0  2  0  0  0  0  0  0
  182.5390  180.0020  138.9260 C   0  0  0  0  0  3  0  0  0  0  0  0
  183.2160  177.2030  136.7660 C   0  0  2  0  0  3  0  0  0  0  0  0
  182.3200  177.8350  135.7060 C   0  0  0  0  0  1  0  0  0  0  0  0
  183.4140  175.0510  137.8080 O   0  0  0  0  0  0  0  0  0  0  0  0
  182.6460  175.9340  137.3410 C   0  0  0  0  0  0  0  0  0  0  0  0
  180.6440  174.8960  138.3470 C   0  0  0  0  0  1  0  0  0  0  0  0
  181.2690  175.7000  137.3580 O   0  0  0  0  0  0  0  0  0  0  0  0
  1  7  1  0  0  0  0
  2 22  1  6  0  0  0
  2  6  1  0  0  0  0
  2  8  1  0  0  0  0
  3 12  1  0  0  0  0
  5  4  1  0  0  0  0
  5 10  1  0  0  0  0
  6 14  1  6  0  0  0
  6  1  1  0  0  0  0
  7 12  2  0  0  0  0
  7 11  1  0  0  0  0
  8 21  1  1  0  0  0
  8  3  1  0  0  0  0
  9  4  2  0  0  0  0
 11  5  2  0  0  0  0
 12  9  1  0  0  0  0
 13 18  1  0  0  0  0
 15 14  1  0  0  0  0
 16 15  2  0  0  0  0
 17 13  2  0  0  0  0
 17 16  1  0  0  0  0
 18 14  2  0  0  0  0
 19 21  1  0  0  0  0
 19 20  1  0  0  0  0
 21 20  1  0  0  0  0
 22 23  1  1  0  0  0
 22 25  1  0  0  0  0
 25 27  1  0  0  0  0
 25 24  2  0  0  0  0
 27 26  1  0  0  0  0
M  END
>  <MODEL>
4

>  <REMARK>
 VINA RESULT:      -6.4      5.221      8.733
  Name = 
  5 active torsions:
  status: ('A' for Active; 'I' for Inactive)
    1  A    between atoms: C_2  and  C_6
    2  A    between atoms: C_6  and  C_17
    3  A    between atoms: C_9  and  C_15
    4  A    between atoms: C_14  and  N_19
    5  A    between atoms: O_16  and  C_17
                            x       y       z     vdW  Elec       q    Type
                         _______ _______ _______ _____ _____    ______ ____

>  <TORSDO>
F 5

$$$$
=
 OpenBabel10262420113D

 27 30  0  0  1  0  0  0  0  0999 V2000
  182.6120  180.2030  139.0830 N   0  0  0  0  0  2  0  0  0  0  0  0
  182.4970  177.7240  138.7430 C   0  0  2  0  0  3  0  0  0  0  0  0
  180.3260  178.6180  137.9990 C   0  0  0  0  0  2  0  0  0  0  0  0
  179.5100  182.1650  136.9710 C   0  0  0  0  0  3  0  0  0  0  0  0
  180.6110  182.8770  137.4490 C   0  0  0  0  0  0  0  0  0  0  0  0
  182.5190  178.9090  139.7500 C   0  0  1  0  0  3  0  0  0  0  0  0
  181.5450  180.8340  138.3690 C   0  0  0  0  0  0  0  0  0  0  0  0
  181.5500  177.8800  137.6260 N   0  0  1  0  0  0  0  0  0  0  0  0
  179.4290  180.7860  137.1760 C   0  0  0  0  0  3  0  0  0  0  0  0
  180.6950  184.2130  137.2430 F   0  0  0  0  0  0  0  0  0  0  0  0
  181.6250  182.2120  138.1420 C   0  0  0  0  0  3  0  0  0  0  0  0
  180.4430  180.1110  137.8650 C   0  0  0  0  0  0  0  0  0  0  0  0
  184.4480  178.3990  142.9890 C   0  0  0  0  0  3  0  0  0  0  0  0
  183.6390  178.7990  140.7380 C   0  0  0  0  0  0  0  0  0  0  0  0
  184.9580  178.9500  140.2950 C   0  0  0  0  0  3  0  0  0  0  0  0
  186.0180  178.8340  141.1990 C   0  0  0  0  0  3  0  0  0  0  0  0
  185.7640  178.5610  142.5460 C   0  0  0  0  0  3  0  0  0  0  0  0
  183.3860  178.5150  142.0880 C   0  0  0  0  0  3  0  0  0  0  0  0
  182.6420  177.2930  135.5270 C   0  0  0  0  0  2  0  0  0  0  0  0
  181.4220  178.1250  135.2020 C   0  0  0  0  0  2  0  0  0  0  0  0
  182.2330  178.4260  136.4510 C   0  0  0  0  0  3  0  0  0  0  0  0
  182.2630  176.3470  139.3890 C   0  0  2  0  0  3  0  0  0  0  0  0
  182.9030  175.1940  138.6230 C   0  0  0  0  0  1  0  0  0  0  0  0
  180.3120  176.6690  140.7470 O   0  0  0  0  0  0  0  0  0  0  0  0
  180.8250  176.0880  139.7540 C   0  0  0  0  0  0  0  0  0  0  0  0
  179.4700  174.0320  139.5920 C   0  0  0  0  0  1  0  0  0  0  0  0
  180.0400  175.1980  139.0190 O   0  0  0  0  0  0  0  0  0  0  0  0
  1  6  1  0  0  0  0
  2 22  1  1  0  0  0
  2  6  1  0  0  0  0
  4  9  2  0  0  0  0
  4  5  1  0  0  0  0
  5 11  2  0  0  0  0
  6 14  1  1  0  0  0
  7  1  1  0  0  0  0
  8 21  1  6  0  0  0
  8  3  1  0  0  0  0
  8  2  1  0  0  0  0
  9 12  1  0  0  0  0
 10  5  1  0  0  0  0
 11  7  1  0  0  0  0
 12  3  1  0  0  0  0
 12  7  2  0  0  0  0
 14 18  1  0  0  0  0
 15 14  2  0  0  0  0
 15 16  1  0  0  0  0
 16 17  2  0  0  0  0
 17 13  1  0  0  0  0
 18 13  2  0  0  0  0
 19 21  1  0  0  0  0
 20 19  1  0  0  0  0
 20 21  1  0  0  0  0
 22 23  1  6  0  0  0
 22 25  1  0  0  0  0
 25 24  2  0  0  0  0
 27 26  1  0  0  0  0
 27 25  1  0  0  0  0
M  END
>  <MODEL>
5

>  <REMARK>
 VINA RESULT:      -6.4      6.317      9.150
  Name = 
  5 active torsions:
  status: ('A' for Active; 'I' for Inactive)
    1  A    between atoms: C_2  and  C_6
    2  A    between atoms: C_6  and  C_17
    3  A    between atoms: C_9  and  C_15
    4  A    between atoms: C_14  and  N_19
    5  A    between atoms: O_16  and  C_17
                            x       y       z     vdW  Elec       q    Type
                         _______ _______ _______ _____ _____    ______ ____

>  <TORSDO>
F 5

$$$$
=
 OpenBabel10262420113D

 27 30  0  0  1  0  0  0  0  0999 V2000
  191.4170  176.0900  138.7100 N   0  0  0  0  0  2  0  0  0  0  0  0
  189.0730  175.9580  137.8360 C   0  0  2  0  0  3  0  0  0  0  0  0
  190.5330  176.1050  135.8580 C   0  0  0  0  0  2  0  0  0  0  0  0
  194.2230  175.3050  135.6370 C   0  0  0  0  0  3  0  0  0  0  0  0
  194.6010  175.2610  136.9790 C   0  0  0  0  0  0  0  0  0  0  0  0
  190.1540  176.8060  138.5640 C   0  0  1  0  0  3  0  0  0  0  0  0
  192.3390  175.8340  137.6470 C   0  0  0  0  0  0  0  0  0  0  0  0
  189.5290  175.3110  136.5950 N   0  0  1  0  0  0  0  0  0  0  0  0
  192.9010  175.5980  135.2950 C   0  0  0  0  0  3  0  0  0  0  0  0
  195.8810  174.9670  137.3130 F   0  0  0  0  0  0  0  0  0  0  0  0
  193.6620  175.5210  137.9790 C   0  0  0  0  0  3  0  0  0  0  0  0
  191.9510  175.8560  136.2900 C   0  0  0  0  0  0  0  0  0  0  0  0
  188.2390  178.5780  141.3340 C   0  0  0  0  0  3  0  0  0  0  0  0
  189.7070  177.2640  139.9180 C   0  0  0  0  0  0  0  0  0  0  0  0
  190.3310  176.7410  141.0570 C   0  0  0  0  0  3  0  0  0  0  0  0
  189.9150  177.1430  142.3300 C   0  0  0  0  0  3  0  0  0  0  0  0
  188.8720  178.0620  142.4690 C   0  0  0  0  0  3  0  0  0  0  0  0
  188.6530  178.1780  140.0600 C   0  0  0  0  0  3  0  0  0  0  0  0
  188.7840  172.9890  136.6140 C   0  0  0  0  0  2  0  0  0  0  0  0
  189.8800  173.1200  135.5820 C   0  0  0  0  0  2  0  0  0  0  0  0
  189.9470  173.9320  136.8620 C   0  0  0  0  0  3  0  0  0  0  0  0
  187.7680  176.7160  137.5390 C   0  0  2  0  0  3  0  0  0  0  0  0
  186.5740  175.8030  137.2800 C   0  0  0  0  0  1  0  0  0  0  0  0
  188.3560  178.9320  136.8310 O   0  0  0  0  0  0  0  0  0  0  0  0
  187.9210  177.7970  136.5010 C   0  0  0  0  0  0  0  0  0  0  0  0
  186.3790  178.0770  134.5940 C   0  0  0  0  0  1  0  0  0  0  0  0
  187.5760  177.5740  135.1660 O   0  0  0  0  0  0  0  0  0  0  0  0
  2 22  1  6  0  0  0
  2  6  1  0  0  0  0
  3 12  1  0  0  0  0
  3  8  1  0  0  0  0
  4  5  1  0  0  0  0
  5 10  1  0  0  0  0
  5 11  2  0  0  0  0
  6  1  1  0  0  0  0
  6 14  1  1  0  0  0
  7 11  1  0  0  0  0
  7  1  1  0  0  0  0
  8 21  1  1  0  0  0
  8  2  1  0  0  0  0
  9  4  2  0  0  0  0
  9 12  1  0  0  0  0
 12  7  2  0  0  0  0
 13 17  1  0  0  0  0
 14 18  1  0  0  0  0
 14 15  2  0  0  0  0
 15 16  1  0  0  0  0
 16 17  2  0  0  0  0
 18 13  2  0  0  0  0
 19 21  1  0  0  0  0
 20 19  1  0  0  0  0
 20 21  1  0  0  0  0
 22 23  1  6  0  0  0
 25 24  2  0  0  0  0
 25 22  1  0  0  0  0
 26 27  1  0  0  0  0
 27 25  1  0  0  0  0
M  END
>  <MODEL>
6

>  <REMARK>
 VINA RESULT:      -6.3      4.734      7.599
  Name = 
  5 active torsions:
  status: ('A' for Active; 'I' for Inactive)
    1  A    between atoms: C_2  and  C_6
    2  A    between atoms: C_6  and  C_17
    3  A    between atoms: C_9  and  C_15
    4  A    between atoms: C_14  and  N_19
    5  A    between atoms: O_16  and  C_17
                            x       y       z     vdW  Elec       q    Type
                         _______ _______ _______ _____ _____    ______ ____

>  <TORSDO>
F 5

$$$$
=
 OpenBabel10262420113D

 27 30  0  0  1  0  0  0  0  0999 V2000
  183.8370  178.3940  140.0130 N   0  0  0  0  0  2  0  0  0  0  0  0
  182.3820  178.5710  137.9820 C   0  0  2  0  0  3  0  0  0  0  0  0
  180.8570  178.2590  139.8910 C   0  0  0  0  0  2  0  0  0  0  0  0
  181.5640  178.9000  143.5500 C   0  0  0  0  0  3  0  0  0  0  0  0
  182.9560  179.0030  143.5740 C   0  0  0  0  0  0  0  0  0  0  0  0
  183.4000  177.7210  138.7950 C   0  0  1  0  0  3  0  0  0  0  0  0
  183.0390  178.5560  141.1890 C   0  0  0  0  0  0  0  0  0  0  0  0
  181.2750  179.1310  138.7740 N   0  0  1  0  0  0  0  0  0  0  0  0
  180.9050  178.6410  142.3470 C   0  0  0  0  0  3  0  0  0  0  0  0
  183.5970  179.2640  144.7390 F   0  0  0  0  0  0  0  0  0  0  0  0
  183.6880  178.8340  142.3970 C   0  0  0  0  0  3  0  0  0  0  0  0
  181.6300  178.4750  141.1620 C   0  0  0  0  0  0  0  0  0  0  0  0
  185.7990  175.8360  136.5220 C   0  0  0  0  0  3  0  0  0  0  0  0
  184.6100  177.3560  137.9920 C   0  0  0  0  0  0  0  0  0  0  0  0
  185.6840  178.2530  137.9270 C   0  0  0  0  0  3  0  0  0  0  0  0
  186.8150  177.9370  137.1680 C   0  0  0  0  0  3  0  0  0  0  0  0
  186.8740  176.7290  136.4670 C   0  0  0  0  0  3  0  0  0  0  0  0
  184.6680  176.1500  137.2790 C   0  0  0  0  0  3  0  0  0  0  0  0
  181.0170  181.4770  138.1610 C   0  0  0  0  0  2  0  0  0  0  0  0
  180.2930  181.2530  139.4690 C   0  0  0  0  0  2  0  0  0  0  0  0
  181.5820  180.5040  139.1810 C   0  0  0  0  0  3  0  0  0  0  0  0
  181.7890  177.8490  136.7590 C   0  0  2  0  0  3  0  0  0  0  0  0
  181.2550  178.7960  135.6890 C   0  0  0  0  0  1  0  0  0  0  0  0
  179.5830  176.9230  136.9410 O   0  0  0  0  0  0  0  0  0  0  0  0
  180.8190  176.7540  137.1170 C   0  0  0  0  0  0  0  0  0  0  0  0
  180.4320  174.7300  138.4760 C   0  0  0  0  0  1  0  0  0  0  0  0
  181.2590  175.5450  137.6600 O   0  0  0  0  0  0  0  0  0  0  0  0
  1  7  1  0  0  0  0
  2 22  1  6  0  0  0
  2  8  1  0  0  0  0
  2  6  1  0  0  0  0
  3 12  1  0  0  0  0
  4  5  1  0  0  0  0
  5 10  1  0  0  0  0
  6 14  1  6  0  0  0
  6  1  1  0  0  0  0
  7 11  1  0  0  0  0
  8 21  1  1  0  0  0
  8  3  1  0  0  0  0
  9  4  2  0  0  0  0
 11  5  2  0  0  0  0
 12  7  2  0  0  0  0
 12  9  1  0  0  0  0
 13 18  1  0  0  0  0
 15 14  1  0  0  0  0
 16 15  2  0  0  0  0
 17 13  2  0  0  0  0
 17 16  1  0  0  0  0
 18 14  2  0  0  0  0
 19 21  1  0  0  0  0
 19 20  1  0  0  0  0
 21 20  1  0  0  0  0
 22 23  1  6  0  0  0
 22 25  1  0  0  0  0
 24 25  2  0  0  0  0
 25 27  1  0  0  0  0
 27 26  1  0  0  0  0
M  END
>  <MODEL>
7

>  <REMARK>
 VINA RESULT:      -6.3      6.023      9.429
  Name = 
  5 active torsions:
  status: ('A' for Active; 'I' for Inactive)
    1  A    between atoms: C_2  and  C_6
    2  A    between atoms: C_6  and  C_17
    3  A    between atoms: C_9  and  C_15
    4  A    between atoms: C_14  and  N_19
    5  A    between atoms: O_16  and  C_17
                            x       y       z     vdW  Elec       q    Type
                         _______ _______ _______ _____ _____    ______ ____

>  <TORSDO>
F 5

$$$$
=
 OpenBabel10262420113D

 27 30  0  0  1  0  0  0  0  0999 V2000
  192.2900  176.7530  139.1300 N   0  0  0  0  0  2  0  0  0  0  0  0
  190.8810  176.3600  137.0970 C   0  0  2  0  0  3  0  0  0  0  0  0
  189.3560  176.2070  139.0260 C   0  0  0  0  0  2  0  0  0  0  0  0
  189.8740  177.5970  142.5040 C   0  0  0  0  0  3  0  0  0  0  0  0
  191.2400  177.8840  142.5130 C   0  0  0  0  0  0  0  0  0  0  0  0
  191.9770  175.8160  138.0560 C   0  0  1  0  0  3  0  0  0  0  0  0
  191.4460  177.0220  140.2530 C   0  0  0  0  0  0  0  0  0  0  0  0
  189.6890  176.9060  137.7680 N   0  0  1  0  0  0  0  0  0  0  0  0
  189.2870  177.0360  141.3680 C   0  0  0  0  0  3  0  0  0  0  0  0
  191.8090  178.4370  143.6110 F   0  0  0  0  0  0  0  0  0  0  0  0
  192.0200  177.6000  141.3900 C   0  0  0  0  0  3  0  0  0  0  0  0
  190.0600  176.7530  140.2370 C   0  0  0  0  0  0  0  0  0  0  0  0
  195.0630  173.9370  136.8650 C   0  0  0  0  0  3  0  0  0  0  0  0
  193.2460  175.4720  137.3390 C   0  0  0  0  0  0  0  0  0  0  0  0
  193.7740  176.3780  136.4110 C   0  0  0  0  0  3  0  0  0  0  0  0
  194.9480  176.0660  135.7190 C   0  0  0  0  0  3  0  0  0  0  0  0
  195.5940  174.8480  135.9460 C   0  0  0  0  0  3  0  0  0  0  0  0
  193.8900  174.2450  137.5580 C   0  0  0  0  0  3  0  0  0  0  0  0
  188.9760  179.0470  136.8440 C   0  0  0  0  0  2  0  0  0  0  0  0
  188.4500  178.9490  138.2580 C   0  0  0  0  0  2  0  0  0  0  0  0
  189.8060  178.3590  137.9130 C   0  0  0  0  0  3  0  0  0  0  0  0
  190.4190  175.3540  136.0270 C   0  0  2  0  0  3  0  0  0  0  0  0
  189.9970  176.0070  134.7150 C   0  0  0  0  0  1  0  0  0  0  0  0
  189.8060  173.3780  137.2410 O   0  0  0  0  0  0  0  0  0  0  0  0
  189.4210  174.3490  136.5360 C   0  0  0  0  0  0  0  0  0  0  0  0
  187.0530  173.8380  137.0130 C   0  0  0  0  0  1  0  0  0  0  0  0
  188.0620  174.4580  136.2310 O   0  0  0  0  0  0  0  0  0  0  0  0
  1  7  1  0  0  0  0
  2 22  1  6  0  0  0
  2  8  1  0  0  0  0
  2  6  1  0  0  0  0
  3 12  1  0  0  0  0
  4  5  1  0  0  0  0
  5 10  1  0  0  0  0
  6 14  1  6  0  0  0
  6  1  1  0  0  0  0
  7 11  1  0  0  0  0
  8 21  1  1  0  0  0
  8  3  1  0  0  0  0
  9  4  2  0  0  0  0
 11  5  2  0  0  0  0
 12  7  2  0  0  0  0
 12  9  1  0  0  0  0
 13 18  1  0  0  0  0
 14 18  2  0  0  0  0
 15 14  1  0  0  0  0
 16 17  1  0  0  0  0
 16 15  2  0  0  0  0
 17 13  2  0  0  0  0
 19 21  1  0  0  0  0
 19 20  1  0  0  0  0
 21 20  1  0  0  0  0
 22 23  1  6  0  0  0
 22 25  1  0  0  0  0
 25 24  2  0  0  0  0
 27 25  1  0  0  0  0
 27 26  1  0  0  0  0
M  END
>  <MODEL>
8

>  <REMARK>
 VINA RESULT:      -6.3      4.773      8.864
  Name = 
  5 active torsions:
  status: ('A' for Active; 'I' for Inactive)
    1  A    between atoms: C_2  and  C_6
    2  A    between atoms: C_6  and  C_17
    3  A    between atoms: C_9  and  C_15
    4  A    between atoms: C_14  and  N_19
    5  A    between atoms: O_16  and  C_17
                            x       y       z     vdW  Elec       q    Type
                         _______ _______ _______ _____ _____    ______ ____

>  <TORSDO>
F 5

$$$$
=
 OpenBabel10262420113D

 27 30  0  0  1  0  0  0  0  0999 V2000
  181.5770  180.6770  139.1490 N   0  0  0  0  0  2  0  0  0  0  0  0
  180.8950  178.3000  138.7500 C   0  0  2  0  0  3  0  0  0  0  0  0
  179.4210  179.6800  137.3390 C   0  0  0  0  0  2  0  0  0  0  0  0
  180.0020  183.2240  136.1550 C   0  0  0  0  0  3  0  0  0  0  0  0
  181.0400  183.6520  136.9840 C   0  0  0  0  0  0  0  0  0  0  0  0
  180.9160  179.5110  139.7260 C   0  0  1  0  0  3  0  0  0  0  0  0
  181.0190  181.5130  138.1300 C   0  0  0  0  0  0  0  0  0  0  0  0
  180.4440  178.6160  137.3850 N   0  0  1  0  0  0  0  0  0  0  0  0
  179.4800  181.9370  136.2990 C   0  0  0  0  0  3  0  0  0  0  0  0
  181.5540  184.8970  136.8380 F   0  0  0  0  0  0  0  0  0  0  0  0
  181.5470  182.7970  137.9650 C   0  0  0  0  0  3  0  0  0  0  0  0
  179.9850  181.0720  137.2760 C   0  0  0  0  0  0  0  0  0  0  0  0
  183.5260  178.5050  142.3060 C   0  0  0  0  0  3  0  0  0  0  0  0
  181.5780  179.1850  141.0290 C   0  0  0  0  0  0  0  0  0  0  0  0
  180.8490  179.3140  142.2170 C   0  0  0  0  0  3  0  0  0  0  0  0
  181.4550  179.0310  143.4450 C   0  0  0  0  0  3  0  0  0  0  0  0
  182.7920  178.6250  143.4900 C   0  0  0  0  0  3  0  0  0  0  0  0
  182.9220  178.7880  141.0770 C   0  0  0  0  0  3  0  0  0  0  0  0
  181.8940  177.6220  135.6940 C   0  0  0  0  0  2  0  0  0  0  0  0
  181.1630  178.7840  135.0600 C   0  0  0  0  0  2  0  0  0  0  0  0
  181.5950  178.8650  136.5130 C   0  0  0  0  0  3  0  0  0  0  0  0
  180.0910  177.0910  139.2610 C   0  0  2  0  0  3  0  0  0  0  0  0
  179.0380  177.4510  140.3030 C   0  0  0  0  0  1  0  0  0  0  0  0
  180.4310  174.9180  140.2190 O   0  0  0  0  0  0  0  0  0  0  0  0
  180.9520  175.9240  139.6680 C   0  0  0  0  0  0  0  0  0  0  0  0
  182.9450  175.2810  138.3620 C   0  0  0  0  0  1  0  0  0  0  0  0
  182.3330  175.9350  139.4620 O   0  0  0  0  0  0  0  0  0  0  0  0
  1  6  1  0  0  0  0
  2 22  1  1  0  0  0
  2  6  1  0  0  0  0
  3  8  1  0  0  0  0
  4  9  2  0  0  0  0
  4  5  1  0  0  0  0
  5 11  2  0  0  0  0
  6 14  1  1  0  0  0
  7  1  1  0  0  0  0
  8 21  1  6  0  0  0
  8  2  1  0  0  0  0
  9 12  1  0  0  0  0
 10  5  1  0  0  0  0
 11  7  1  0  0  0  0
 12  3  1  0  0  0  0
 12  7  2  0  0  0  0
 13 17  1  0  0  0  0
 14 18  1  0  0  0  0
 14 15  2  0  0  0  0
 15 16  1  0  0  0  0
 16 17  2  0  0  0  0
 18 13  2  0  0  0  0
 19 21  1  0  0  0  0
 20 19  1  0  0  0  0
 20 21  1  0  0  0  0
 22 25  1  0  0  0  0
 22 23  1  1  0  0  0
 25 24  2  0  0  0  0
 26 27  1  0  0  0  0
 27 25  1  0  0  0  0
M  END
>  <MODEL>
9

>  <REMARK>
 VINA RESULT:      -6.2      6.579      9.473
  Name = 
  5 active torsions:
  status: ('A' for Active; 'I' for Inactive)
    1  A    between atoms: C_2  and  C_6
    2  A    between atoms: C_6  and  C_17
    3  A    between atoms: C_9  and  C_15
    4  A    between atoms: C_14  and  N_19
    5  A    between atoms: O_16  and  C_17
                            x       y       z     vdW  Elec       q    Type
                         _______ _______ _______ _____ _____    ______ ____

>  <TORSDO>
F 5

$$$$
