=
 OpenBabel10262423023D

 37 44  0  0  1  0  0  0  0  0999 V2000
  184.0920  175.8670  136.1340 C   0  0  0  0  0  2  0  0  0  0  0  0
  179.3090  175.1870  134.5940 C   0  0  0  0  0  1  0  0  0  0  0  0
  182.3960  176.2610  139.5380 C   0  0  2  0  0  3  0  0  0  0  0  0
  186.2580  174.5360  135.8420 C   0  0  1  0  0  3  0  0  0  0  0  0
  185.4220  178.2480  138.2350 C   0  0  0  0  0  2  0  0  0  0  0  0
  179.2550  176.3140  136.8010 C   0  0  0  0  0  2  0  0  0  0  0  0
  183.4490  176.6970  138.4930 C   0  0  2  0  0  3  0  0  0  0  0  0
  181.5000  175.2440  138.8380 C   0  0  2  0  0  3  0  0  0  0  0  0
  183.9120  178.1670  138.4630 C   0  0  1  0  0  3  0  0  0  0  0  0
  179.7560  177.7020  137.1420 C   0  0  0  0  0  2  0  0  0  0  0  0
  187.2230  175.3970  135.3020 O   0  0  0  0  0  0  0  0  0  0  0  0
  182.1010  175.0490  137.4440 C   0  0  1  0  0  3  0  0  0  0  0  0
  181.0890  174.6680  136.3680 C   0  0  1  0  0  0  0  0  0  0  0  0
  181.1430  178.9890  138.6300 C   0  0  0  0  0  3  0  0  0  0  0  0
  180.7070  177.7610  138.3040 C   0  0  0  0  0  0  0  0  0  0  0  0
  180.7120  173.2390  136.3130 C   0  0  0  0  0  2  0  0  0  0  0  0
  187.5710  176.2240  136.3800 C   0  0  2  0  0  3  0  0  0  0  0  0
  185.7640  177.7420  136.9760 O   0  0  0  0  0  0  0  0  0  0  0  0
  180.9190  176.6030  139.2740 C   0  0  2  0  0  3  0  0  0  0  0  0
  182.9780  176.2290  137.1250 C   0  0  2  0  0  3  0  0  0  0  0  0
  180.1580  175.7160  135.7430 C   0  0  1  0  0  3  0  0  0  0  0  0
  183.4780  179.0880  139.6250 C   0  0  1  0  0  3  0  0  0  0  0  0
  181.6520  173.7980  135.4180 O   0  0  0  0  0  0  0  0  0  0  0  0
  186.3180  176.4710  137.2220 C   0  0  1  0  0  3  0  0  0  0  0  0
  185.3810  175.3420  136.7950 C   0  0  1  0  0  3  0  0  0  0  0  0
  181.9720  179.2600  139.8540 C   0  0  0  0  0  2  0  0  0  0  0  0
  185.6280  178.9710  140.9590 C   0  0  0  0  0  3  0  0  0  0  0  0
  184.2310  178.8950  140.9100 C   0  0  0  0  0  0  0  0  0  0  0  0
  183.5160  178.6420  142.0830 C   0  0  0  0  0  3  0  0  0  0  0  0
  183.5220  178.2230  144.4290 F   0  0  0  0  0  0  0  0  0  0  0  0
  185.5640  178.5460  143.3090 N   0  0  0  0  0  0  0  0  0  0  0  0
  184.2070  178.4680  143.2850 C   0  0  0  0  0  0  0  0  0  0  0  0
  186.2820  178.7910  142.1800 C   0  0  0  0  0  3  0  0  0  0  0  0
  188.2610  177.4890  135.8790 C   0  0  0  0  0  2  0  0  0  0  0  0
  189.2800  177.9690  136.8940 C   0  0  0  0  0  1  0  0  0  0  0  0
  185.1420  172.5370  134.9410 C   0  0  0  0  0  2  0  0  0  0  0  0
  185.5160  173.8010  134.7640 C   0  0  0  0  0  3  0  0  0  0  0  0
  1 25  1  0  0  0  0
  1 20  1  0  0  0  0
  2 21  1  0  0  0  0
  4 25  1  0  0  0  0
  5  9  1  0  0  0  0
  6 10  1  0  0  0  0
  7  3  1  0  0  0  0
  8 19  1  0  0  0  0
  8  3  1  0  0  0  0
  9  7  1  0  0  0  0
  9 22  1  0  0  0  0
 10 15  1  0  0  0  0
 11  4  1  0  0  0  0
 11 17  1  0  0  0  0
 12  8  1  0  0  0  0
 13 12  1  0  0  0  0
 14 26  1  0  0  0  0
 15 14  2  0  0  0  0
 15 19  1  0  0  0  0
 16 13  1  0  0  0  0
 17 24  1  0  0  0  0
 18 24  1  0  0  0  0
 18  5  1  0  0  0  0
 19  3  1  0  0  0  0
 20 12  1  0  0  0  0
 20  7  1  0  0  0  0
 21 13  1  0  0  0  0
 21  6  1  0  0  0  0
 22 26  1  0  0  0  0
 22 28  1  0  0  0  0
 23 16  1  0  0  0  0
 23 13  1  0  0  0  0
 25 24  1  0  0  0  0
 27 33  1  0  0  0  0
 28 27  2  0  0  0  0
 28 29  1  0  0  0  0
 29 32  2  0  0  0  0
 32 31  1  0  0  0  0
 32 30  1  0  0  0  0
 33 31  2  0  0  0  0
 34 17  1  0  0  0  0
 34 35  1  0  0  0  0
 37 36  2  0  0  0  0
 37  4  1  0  0  0  0
M  END
>  <MODEL>
1

>  <REMARK>
 VINA RESULT:      -6.6      0.000      0.000
  Name = 
  3 active torsions:
  status: ('A' for Active; 'I' for Inactive)
    1  A    between atoms: C_5  and  C_23
    2  A    between atoms: C_6  and  C_31
    3  A    between atoms: C_11  and  C_26
                            x       y       z     vdW  Elec       q    Type
                         _______ _______ _______ _____ _____    ______ ____

>  <TORSDO>
F 3

$$$$
=
 OpenBabel10262423023D

 37 44  0  0  1  0  0  0  0  0999 V2000
  186.5650  178.5400  142.8870 C   0  0  0  0  0  2  0  0  0  0  0  0
  189.2040  178.9340  147.1980 C   0  0  0  0  0  1  0  0  0  0  0  0
  189.2240  175.9070  142.1020 C   0  0  2  0  0  3  0  0  0  0  0  0
  184.0900  178.1730  142.3470 C   0  0  1  0  0  3  0  0  0  0  0  0
  187.6610  178.4030  139.6270 C   0  0  0  0  0  2  0  0  0  0  0  0
  190.6500  177.8400  145.5070 C   0  0  0  0  0  2  0  0  0  0  0  0
  188.3310  177.0950  141.6770 C   0  0  2  0  0  3  0  0  0  0  0  0
  189.0670  175.7790  143.6150 C   0  0  2  0  0  3  0  0  0  0  0  0
  188.8170  178.0370  140.5590 C   0  0  1  0  0  3  0  0  0  0  0  0
  191.1890  178.4410  144.2250 C   0  0  0  0  0  2  0  0  0  0  0  0
  183.6800  179.2040  141.4910 O   0  0  0  0  0  0  0  0  0  0  0  0
  188.0290  176.8280  144.0160 C   0  0  1  0  0  3  0  0  0  0  0  0
  188.1940  177.3690  145.4330 C   0  0  1  0  0  0  0  0  0  0  0  0
  191.4060  178.1460  141.8460 C   0  0  0  0  0  3  0  0  0  0  0  0
  190.9150  177.6340  142.9860 C   0  0  0  0  0  0  0  0  0  0  0  0
  187.6380  176.5260  146.5140 C   0  0  0  0  0  2  0  0  0  0  0  0
  184.2650  178.8690  140.2610 C   0  0  2  0  0  3  0  0  0  0  0  0
  186.6830  179.1360  140.3080 O   0  0  0  0  0  0  0  0  0  0  0  0
  190.4280  176.1900  143.0180 C   0  0  2  0  0  3  0  0  0  0  0  0
  187.9420  177.8660  142.9300 C   0  0  2  0  0  3  0  0  0  0  0  0
  189.2710  178.4090  145.7700 C   0  0  1  0  0  3  0  0  0  0  0  0
  190.0670  177.6210  139.7520 C   0  0  1  0  0  3  0  0  0  0  0  0
  186.9500  177.6580  146.0210 O   0  0  0  0  0  0  0  0  0  0  0  0
  185.6290  178.2310  140.5350 C   0  0  1  0  0  3  0  0  0  0  0  0
  185.5330  177.8150  142.0020 C   0  0  1  0  0  3  0  0  0  0  0  0
  191.3650  177.4060  140.5390 C   0  0  0  0  0  2  0  0  0  0  0  0
  188.6150  176.4220  138.0580 C   0  0  0  0  0  3  0  0  0  0  0  0
  189.8390  176.5480  138.7270 C   0  0  0  0  0  0  0  0  0  0  0  0
  190.8770  175.6620  138.4280 C   0  0  0  0  0  3  0  0  0  0  0  0
  191.6780  173.8020  137.1730 F   0  0  0  0  0  0  0  0  0  0  0  0
  189.4790  174.5620  136.8340 N   0  0  0  0  0  0  0  0  0  0  0  0
  190.6770  174.6650  137.4700 C   0  0  0  0  0  0  0  0  0  0  0  0
  188.4530  175.4120  137.1080 C   0  0  0  0  0  3  0  0  0  0  0  0
  184.3020  180.0840  139.3410 C   0  0  0  0  0  2  0  0  0  0  0  0
  182.9240  180.3520  138.7670 C   0  0  0  0  0  1  0  0  0  0  0  0
  182.6320  178.8480  144.2100 C   0  0  0  0  0  2  0  0  0  0  0  0
  183.8510  178.5280  143.7850 C   0  0  0  0  0  3  0  0  0  0  0  0
  1 20  1  0  0  0  0
  3 19  1  0  0  0  0
  3  8  1  0  0  0  0
  4 37  1  0  0  0  0
  5 18  1  0  0  0  0
  5  9  1  0  0  0  0
  6 21  1  0  0  0  0
  7  3  1  0  0  0  0
  7 20  1  0  0  0  0
  8 12  1  0  0  0  0
  9  7  1  0  0  0  0
 10  6  1  0  0  0  0
 11  4  1  0  0  0  0
 12 13  1  0  0  0  0
 13 21  1  0  0  0  0
 13 23  1  0  0  0  0
 13 16  1  0  0  0  0
 14 15  2  0  0  0  0
 15 19  1  0  0  0  0
 15 10  1  0  0  0  0
 17 24  1  0  0  0  0
 17 11  1  0  0  0  0
 18 24  1  0  0  0  0
 19  8  1  0  0  0  0
 20 12  1  0  0  0  0
 21  2  1  0  0  0  0
 22 26  1  0  0  0  0
 22  9  1  0  0  0  0
 23 16  1  0  0  0  0
 24 25  1  0  0  0  0
 25  4  1  0  0  0  0
 25  1  1  0  0  0  0
 26 14  1  0  0  0  0
 27 28  1  0  0  0  0
 28 22  1  0  0  0  0
 29 28  2  0  0  0  0
 30 32  1  0  0  0  0
 31 33  1  0  0  0  0
 31 32  2  0  0  0  0
 32 29  1  0  0  0  0
 33 27  2  0  0  0  0
 34 17  1  0  0  0  0
 35 34  1  0  0  0  0
 37 36  2  0  0  0  0
M  END
>  <MODEL>
2

>  <REMARK>
 VINA RESULT:      -6.4      4.705      9.339
  Name = 
  3 active torsions:
  status: ('A' for Active; 'I' for Inactive)
    1  A    between atoms: C_5  and  C_23
    2  A    between atoms: C_6  and  C_31
    3  A    between atoms: C_11  and  C_26
                            x       y       z     vdW  Elec       q    Type
                         _______ _______ _______ _____ _____    ______ ____

>  <TORSDO>
F 3

$$$$
=
 OpenBabel10262423023D

 37 44  0  0  1  0  0  0  0  0999 V2000
  188.5030  176.4600  138.8660 C   0  0  0  0  0  2  0  0  0  0  0  0
  184.4270  174.5910  136.4980 C   0  0  0  0  0  1  0  0  0  0  0  0
  190.0370  176.1420  135.3780 C   0  0  2  0  0  3  0  0  0  0  0  0
  188.9130  178.5060  140.3480 C   0  0  1  0  0  3  0  0  0  0  0  0
  191.7930  175.4570  138.7320 C   0  0  0  0  0  2  0  0  0  0  0  0
  186.4200  174.0890  135.1130 C   0  0  0  0  0  2  0  0  0  0  0  0
  190.1280  175.9910  136.9140 C   0  0  2  0  0  3  0  0  0  0  0  0
  188.5790  176.4710  135.0700 C   0  0  2  0  0  3  0  0  0  0  0  0
  191.0530  174.9120  137.5090 C   0  0  1  0  0  3  0  0  0  0  0  0
  187.5830  173.1820  135.4610 C   0  0  0  0  0  2  0  0  0  0  0  0
  189.4940  178.0610  141.5430 O   0  0  0  0  0  0  0  0  0  0  0  0
  187.8830  176.5890  136.4270 C   0  0  1  0  0  3  0  0  0  0  0  0
  186.4000  176.2290  136.4090 C   0  0  1  0  0  0  0  0  0  0  0  0
  189.9800  173.0140  135.6080 C   0  0  0  0  0  3  0  0  0  0  0  0
  188.9400  173.8140  135.3220 C   0  0  0  0  0  0  0  0  0  0  0  0
  185.4840  177.2910  135.9400 C   0  0  0  0  0  2  0  0  0  0  0  0
  190.8090  177.7420  141.1750 C   0  0  2  0  0  3  0  0  0  0  0  0
  190.8970  175.7620  139.7620 O   0  0  0  0  0  0  0  0  0  0  0  0
  189.1790  175.1330  134.5940 C   0  0  2  0  0  3  0  0  0  0  0  0
  188.7130  175.8790  137.4620 C   0  0  2  0  0  3  0  0  0  0  0  0
  185.9360  174.7670  136.3770 C   0  0  1  0  0  3  0  0  0  0  0  0
  192.0260  174.1850  136.5540 C   0  0  1  0  0  3  0  0  0  0  0  0
  185.6690  177.0170  137.3140 O   0  0  0  0  0  0  0  0  0  0  0  0
  190.7850  177.1650  139.7570 C   0  0  1  0  0  3  0  0  0  0  0  0
  189.4380  177.6350  139.2100 C   0  0  1  0  0  3  0  0  0  0  0  0
  191.4070  173.4220  135.3760 C   0  0  0  0  0  2  0  0  0  0  0  0
  193.1530  176.0060  135.2020 C   0  0  0  0  0  3  0  0  0  0  0  0
  193.2360  174.9760  136.1470 C   0  0  0  0  0  0  0  0  0  0  0  0
  194.4690  174.6820  136.7350 C   0  0  0  0  0  3  0  0  0  0  0  0
  196.7990  175.1410  136.9320 F   0  0  0  0  0  0  0  0  0  0  0  0
  195.4940  176.4130  135.4470 N   0  0  0  0  0  0  0  0  0  0  0  0
  195.5980  175.4180  136.3680 C   0  0  0  0  0  0  0  0  0  0  0  0
  194.3040  176.7180  134.8620 C   0  0  0  0  0  3  0  0  0  0  0  0
  191.4490  176.8350  142.2210 C   0  0  0  0  0  2  0  0  0  0  0  0
  190.3870  176.2610  143.1390 C   0  0  0  0  0  1  0  0  0  0  0  0
  186.8250  178.5660  141.6490 C   0  0  0  0  0  2  0  0  0  0  0  0
  187.4170  178.5720  140.4580 C   0  0  0  0  0  3  0  0  0  0  0  0
  1 25  1  0  0  0  0
  3  7  1  0  0  0  0
  4 37  1  0  0  0  0
  4 11  1  0  0  0  0
  5 18  1  0  0  0  0
  6 10  1  0  0  0  0
  6 21  1  0  0  0  0
  7 20  1  0  0  0  0
  7  9  1  0  0  0  0
  8  3  1  0  0  0  0
  8 12  1  0  0  0  0
  9  5  1  0  0  0  0
 12 20  1  0  0  0  0
 13 12  1  0  0  0  0
 13 23  1  0  0  0  0
 15 10  1  0  0  0  0
 15 14  2  0  0  0  0
 16 13  1  0  0  0  0
 16 23  1  0  0  0  0
 17 11  1  0  0  0  0
 17 34  1  0  0  0  0
 19  8  1  0  0  0  0
 19 15  1  0  0  0  0
 19  3  1  0  0  0  0
 20  1  1  0  0  0  0
 21 13  1  0  0  0  0
 21  2  1  0  0  0  0
 22  9  1  0  0  0  0
 24 18  1  0  0  0  0
 24 17  1  0  0  0  0
 25 24  1  0  0  0  0
 25  4  1  0  0  0  0
 26 14  1  0  0  0  0
 26 22  1  0  0  0  0
 27 28  1  0  0  0  0
 28 22  1  0  0  0  0
 28 29  2  0  0  0  0
 31 32  2  0  0  0  0
 32 29  1  0  0  0  0
 32 30  1  0  0  0  0
 33 27  2  0  0  0  0
 33 31  1  0  0  0  0
 34 35  1  0  0  0  0
 37 36  2  0  0  0  0
M  END
>  <MODEL>
3

>  <REMARK>
 VINA RESULT:      -6.0      4.882      8.731
  Name = 
  3 active torsions:
  status: ('A' for Active; 'I' for Inactive)
    1  A    between atoms: C_5  and  C_23
    2  A    between atoms: C_6  and  C_31
    3  A    between atoms: C_11  and  C_26
                            x       y       z     vdW  Elec       q    Type
                         _______ _______ _______ _____ _____    ______ ____

>  <TORSDO>
F 3

$$$$
=
 OpenBabel10262423023D

 37 44  0  0  1  0  0  0  0  0999 V2000
  186.8360  173.9500  136.7550 C   0  0  0  0  0  2  0  0  0  0  0  0
  191.2510  175.8660  138.3520 C   0  0  0  0  0  1  0  0  0  0  0  0
  186.1150  177.6220  135.9720 C   0  0  2  0  0  3  0  0  0  0  0  0
  186.1970  172.0670  135.1440 C   0  0  1  0  0  3  0  0  0  0  0  0
  183.6190  175.0290  137.3310 C   0  0  0  0  0  2  0  0  0  0  0  0
  189.6010  177.7130  138.2540 C   0  0  0  0  0  2  0  0  0  0  0  0
  185.6740  176.2430  136.5150 C   0  0  2  0  0  3  0  0  0  0  0  0
  187.6180  177.5210  135.7300 C   0  0  2  0  0  3  0  0  0  0  0  0
  184.5890  176.1780  137.6080 C   0  0  1  0  0  3  0  0  0  0  0  0
  188.3490  177.8790  139.0920 C   0  0  0  0  0  2  0  0  0  0  0  0
  185.3410  171.1910  135.8250 O   0  0  0  0  0  0  0  0  0  0  0  0
  187.9950  176.0740  136.0510 C   0  0  1  0  0  3  0  0  0  0  0  0
  189.4260  175.8900  136.5490 C   0  0  1  0  0  0  0  0  0  0  0  0
  185.9760  178.2770  139.0370 C   0  0  0  0  0  3  0  0  0  0  0  0
  187.0890  178.1080  138.3050 C   0  0  0  0  0  0  0  0  0  0  0  0
  190.4720  175.8430  135.5040 C   0  0  0  0  0  2  0  0  0  0  0  0
  184.1300  171.8940  135.8940 C   0  0  2  0  0  3  0  0  0  0  0  0
  184.2730  173.7950  137.4070 O   0  0  0  0  0  0  0  0  0  0  0  0
  187.0800  178.4670  136.8230 C   0  0  2  0  0  3  0  0  0  0  0  0
  186.9220  175.4730  136.9170 C   0  0  2  0  0  3  0  0  0  0  0  0
  189.8180  176.2370  137.9910 C   0  0  1  0  0  3  0  0  0  0  0  0
  183.8240  177.4770  137.9490 C   0  0  1  0  0  3  0  0  0  0  0  0
  189.9700  174.6700  136.1110 O   0  0  0  0  0  0  0  0  0  0  0  0
  184.4460  173.3800  136.0730 C   0  0  1  0  0  3  0  0  0  0  0  0
  185.9020  173.4860  135.6210 C   0  0  1  0  0  3  0  0  0  0  0  0
  184.6570  178.6700  138.4330 C   0  0  0  0  0  2  0  0  0  0  0  0
  182.8130  177.4360  135.6270 C   0  0  0  0  0  3  0  0  0  0  0  0
  182.7750  177.8810  136.9540 C   0  0  0  0  0  0  0  0  0  0  0  0
  181.7330  178.7150  137.3670 C   0  0  0  0  0  3  0  0  0  0  0  0
  179.7320  179.8980  136.8420 F   0  0  0  0  0  0  0  0  0  0  0  0
  180.8060  178.6450  135.1670 N   0  0  0  0  0  0  0  0  0  0  0  0
  180.7470  179.0900  136.4500 C   0  0  0  0  0  0  0  0  0  0  0  0
  181.8110  177.8340  134.7400 C   0  0  0  0  0  3  0  0  0  0  0  0
  183.2310  171.2990  136.9720 C   0  0  0  0  0  2  0  0  0  0  0  0
  181.7720  171.4960  136.6080 C   0  0  0  0  0  1  0  0  0  0  0  0
  187.9420  170.3640  135.4730 C   0  0  0  0  0  2  0  0  0  0  0  0
  187.6300  171.6400  135.2690 C   0  0  0  0  0  3  0  0  0  0  0  0
  1 20  1  0  0  0  0
  3  7  1  0  0  0  0
  3 19  1  0  0  0  0
  4 37  1  0  0  0  0
  4 25  1  0  0  0  0
  4 11  1  0  0  0  0
  5 18  1  0  0  0  0
  5  9  1  0  0  0  0
  6 10  1  0  0  0  0
  7 20  1  0  0  0  0
  7  9  1  0  0  0  0
  8  3  1  0  0  0  0
  8 12  1  0  0  0  0
  8 19  1  0  0  0  0
  9 22  1  0  0  0  0
 11 17  1  0  0  0  0
 12 13  1  0  0  0  0
 12 20  1  0  0  0  0
 13 21  1  0  0  0  0
 15 14  2  0  0  0  0
 15 10  1  0  0  0  0
 16 23  1  0  0  0  0
 16 13  1  0  0  0  0
 17 24  1  0  0  0  0
 17 34  1  0  0  0  0
 19 15  1  0  0  0  0
 21  6  1  0  0  0  0
 21  2  1  0  0  0  0
 22 26  1  0  0  0  0
 23 13  1  0  0  0  0
 24 18  1  0  0  0  0
 25 24  1  0  0  0  0
 25  1  1  0  0  0  0
 26 14  1  0  0  0  0
 27 28  1  0  0  0  0
 28 29  2  0  0  0  0
 28 22  1  0  0  0  0
 31 32  2  0  0  0  0
 32 30  1  0  0  0  0
 32 29  1  0  0  0  0
 33 31  1  0  0  0  0
 33 27  2  0  0  0  0
 35 34  1  0  0  0  0
 37 36  2  0  0  0  0
M  END
>  <MODEL>
4

>  <REMARK>
 VINA RESULT:      -6.0      3.111      6.687
  Name = 
  3 active torsions:
  status: ('A' for Active; 'I' for Inactive)
    1  A    between atoms: C_5  and  C_23
    2  A    between atoms: C_6  and  C_31
    3  A    between atoms: C_11  and  C_26
                            x       y       z     vdW  Elec       q    Type
                         _______ _______ _______ _____ _____    ______ ____

>  <TORSDO>
F 3

$$$$
=
 OpenBabel10262423023D

 37 44  0  0  1  0  0  0  0  0999 V2000
  184.6010  178.4420  139.4220 C   0  0  0  0  0  2  0  0  0  0  0  0
  189.0600  179.4340  137.2210 C   0  0  0  0  0  1  0  0  0  0  0  0
  184.6920  175.4300  137.0680 C   0  0  2  0  0  3  0  0  0  0  0  0
  183.8260  178.2430  141.8530 C   0  0  1  0  0  3  0  0  0  0  0  0
  181.5990  177.5130  138.0170 C   0  0  0  0  0  2  0  0  0  0  0  0
  187.8150  177.8630  135.7630 C   0  0  0  0  0  2  0  0  0  0  0  0
  183.9330  176.5940  137.7460 C   0  0  2  0  0  3  0  0  0  0  0  0
  186.1670  175.6370  137.3980 C   0  0  2  0  0  3  0  0  0  0  0  0
  182.7270  177.2250  137.0240 C   0  0  1  0  0  3  0  0  0  0  0  0
  186.5210  178.1220  135.0180 C   0  0  0  0  0  2  0  0  0  0  0  0
  182.7410  179.1110  142.0310 O   0  0  0  0  0  0  0  0  0  0  0  0
  186.2210  176.8540  138.3240 C   0  0  1  0  0  3  0  0  0  0  0  0
  187.5160  177.6560  138.2390 C   0  0  1  0  0  0  0  0  0  0  0  0
  184.2920  177.3170  134.5940 C   0  0  0  0  0  3  0  0  0  0  0  0
  185.4370  177.1100  135.2650 C   0  0  0  0  0  0  0  0  0  0  0  0
  188.6580  177.1220  139.0120 C   0  0  0  0  0  2  0  0  0  0  0  0
  181.6860  178.4670  141.3700 C   0  0  2  0  0  3  0  0  0  0  0  0
  181.9930  178.4730  138.9550 O   0  0  0  0  0  0  0  0  0  0  0  0
  185.6840  175.7650  135.9400 C   0  0  2  0  0  3  0  0  0  0  0  0
  184.9520  177.6460  138.1580 C   0  0  2  0  0  3  0  0  0  0  0  0
  187.7810  178.6200  137.0740 C   0  0  1  0  0  3  0  0  0  0  0  0
  182.1840  176.5170  135.7630 C   0  0  1  0  0  3  0  0  0  0  0  0
  187.8700  178.1940  139.4880 O   0  0  0  0  0  0  0  0  0  0  0  0
  182.2530  177.7560  140.1380 C   0  0  1  0  0  3  0  0  0  0  0  0
  183.7480  177.6660  140.4420 C   0  0  1  0  0  3  0  0  0  0  0  0
  183.1600  176.3300  134.5940 C   0  0  0  0  0  2  0  0  0  0  0  0
  179.9720  175.2890  135.8800 C   0  0  0  0  0  3  0  0  0  0  0  0
  181.3650  175.2860  136.0230 C   0  0  0  0  0  0  0  0  0  0  0  0
  182.0120  174.1080  136.4060 C   0  0  0  0  0  3  0  0  0  0  0  0
  181.8770  171.8080  137.0130 F   0  0  0  0  0  0  0  0  0  0  0  0
  179.9070  172.9830  136.4980 N   0  0  0  0  0  0  0  0  0  0  0  0
  181.2580  172.9550  136.6420 C   0  0  0  0  0  0  0  0  0  0  0  0
  179.2540  174.1170  136.1260 C   0  0  0  0  0  3  0  0  0  0  0  0
  180.5610  179.4530  141.0750 C   0  0  0  0  0  2  0  0  0  0  0  0
  180.0380  180.0560  142.3640 C   0  0  0  0  0  1  0  0  0  0  0  0
  186.0620  178.2650  142.8800 C   0  0  0  0  0  2  0  0  0  0  0  0
  185.1260  178.9130  142.1920 C   0  0  0  0  0  3  0  0  0  0  0  0
  1 25  1  0  0  0  0
  3  8  1  0  0  0  0
  3  7  1  0  0  0  0
  4 11  1  0  0  0  0
  4 37  1  0  0  0  0
  5 18  1  0  0  0  0
  6 21  1  0  0  0  0
  7 20  1  0  0  0  0
  8 12  1  0  0  0  0
  9  7  1  0  0  0  0
  9  5  1  0  0  0  0
 10 15  1  0  0  0  0
 10  6  1  0  0  0  0
 13 12  1  0  0  0  0
 13 16  1  0  0  0  0
 13 23  1  0  0  0  0
 14 26  1  0  0  0  0
 14 15  2  0  0  0  0
 15 19  1  0  0  0  0
 16 23  1  0  0  0  0
 17 11  1  0  0  0  0
 18 24  1  0  0  0  0
 19  3  1  0  0  0  0
 19  8  1  0  0  0  0
 20 12  1  0  0  0  0
 20  1  1  0  0  0  0
 21  2  1  0  0  0  0
 21 13  1  0  0  0  0
 22 28  1  0  0  0  0
 22  9  1  0  0  0  0
 24 25  1  0  0  0  0
 24 17  1  0  0  0  0
 25  4  1  0  0  0  0
 26 22  1  0  0  0  0
 27 28  2  0  0  0  0
 27 33  1  0  0  0  0
 28 29  1  0  0  0  0
 29 32  2  0  0  0  0
 31 32  1  0  0  0  0
 32 30  1  0  0  0  0
 33 31  2  0  0  0  0
 34 17  1  0  0  0  0
 34 35  1  0  0  0  0
 37 36  2  0  0  0  0
M  END
>  <MODEL>
5

>  <REMARK>
 VINA RESULT:      -5.9      3.069      7.376
  Name = 
  3 active torsions:
  status: ('A' for Active; 'I' for Inactive)
    1  A    between atoms: C_5  and  C_23
    2  A    between atoms: C_6  and  C_31
    3  A    between atoms: C_11  and  C_26
                            x       y       z     vdW  Elec       q    Type
                         _______ _______ _______ _____ _____    ______ ____

>  <TORSDO>
F 3

$$$$
=
 OpenBabel10262423023D

 37 44  0  0  1  0  0  0  0  0999 V2000
  190.5860  177.2340  139.2390 C   0  0  0  0  0  2  0  0  0  0  0  0
  194.6820  176.9490  136.2630 C   0  0  0  0  0  1  0  0  0  0  0  0
  189.4360  174.3080  137.0630 C   0  0  2  0  0  3  0  0  0  0  0  0
  190.2320  177.2640  141.7740 C   0  0  1  0  0  3  0  0  0  0  0  0
  187.2450  177.1660  138.4160 C   0  0  0  0  0  2  0  0  0  0  0  0
  192.8180  175.7790  135.1220 C   0  0  0  0  0  2  0  0  0  0  0  0
  189.1550  175.6380  137.7990 C   0  0  2  0  0  3  0  0  0  0  0  0
  190.9460  174.1000  137.1260 C   0  0  2  0  0  3  0  0  0  0  0  0
  188.0560  176.5760  137.2620 C   0  0  1  0  0  3  0  0  0  0  0  0
  191.5320  176.3830  134.5950 C   0  0  0  0  0  2  0  0  0  0  0  0
  189.4730  178.3990  142.0880 O   0  0  0  0  0  0  0  0  0  0  0  0
  191.4920  175.2570  137.9660 C   0  0  1  0  0  3  0  0  0  0  0  0
  192.9190  175.6700  137.6200 C   0  0  1  0  0  0  0  0  0  0  0  0
  189.1300  176.2250  134.5990 C   0  0  0  0  0  3  0  0  0  0  0  0
  190.2760  175.7110  135.0750 C   0  0  0  0  0  0  0  0  0  0  0  0
  193.9920  174.8430  138.2140 C   0  0  0  0  0  2  0  0  0  0  0  0
  188.1820  178.0690  141.6510 C   0  0  2  0  0  3  0  0  0  0  0  0
  188.0450  177.9830  139.2220 O   0  0  0  0  0  0  0  0  0  0  0  0
  190.2650  174.3520  135.7670 C   0  0  2  0  0  3  0  0  0  0  0  0
  190.4770  176.3690  137.9770 C   0  0  2  0  0  3  0  0  0  0  0  0
  193.2250  176.5190  136.3790 C   0  0  1  0  0  3  0  0  0  0  0  0
  187.1270  176.0420  136.1500 C   0  0  1  0  0  3  0  0  0  0  0  0
  193.6220  176.0930  138.7610 O   0  0  0  0  0  0  0  0  0  0  0  0
  188.3060  177.2260  140.3790 C   0  0  1  0  0  3  0  0  0  0  0  0
  189.7500  176.7270  140.4290 C   0  0  1  0  0  3  0  0  0  0  0  0
  187.7910  175.5890  134.8430 C   0  0  0  0  0  2  0  0  0  0  0  0
  186.3710  173.7700  136.9760 C   0  0  0  0  0  3  0  0  0  0  0  0
  186.0640  175.0860  136.6080 C   0  0  0  0  0  0  0  0  0  0  0  0
  184.7390  175.5250  136.6780 C   0  0  0  0  0  3  0  0  0  0  0  0
  182.4570  175.0610  137.1820 F   0  0  0  0  0  0  0  0  0  0  0  0
  184.0670  173.3710  137.4620 N   0  0  0  0  0  0  0  0  0  0  0  0
  183.7450  174.6440  137.1110 C   0  0  0  0  0  0  0  0  0  0  0  0
  185.3490  172.9200  137.4030 C   0  0  0  0  0  3  0  0  0  0  0  0
  187.3330  179.3270  141.5010 C   0  0  0  0  0  2  0  0  0  0  0  0
  185.8740  179.0130  141.7700 C   0  0  0  0  0  1  0  0  0  0  0  0
  192.2380  178.0430  142.9640 C   0  0  0  0  0  2  0  0  0  0  0  0
  191.7030  177.5490  141.8520 C   0  0  0  0  0  3  0  0  0  0  0  0
  1 25  1  0  0  0  0
  2 21  1  0  0  0  0
  3  8  1  0  0  0  0
  3  7  1  0  0  0  0
  4 37  1  0  0  0  0
  4 11  1  0  0  0  0
  5 18  1  0  0  0  0
  6 21  1  0  0  0  0
  7 20  1  0  0  0  0
  8 12  1  0  0  0  0
  9  7  1  0  0  0  0
  9  5  1  0  0  0  0
 10 15  1  0  0  0  0
 10  6  1  0  0  0  0
 12 20  1  0  0  0  0
 13 12  1  0  0  0  0
 13 16  1  0  0  0  0
 13 23  1  0  0  0  0
 14 26  1  0  0  0  0
 14 15  2  0  0  0  0
 15 19  1  0  0  0  0
 16 23  1  0  0  0  0
 17 11  1  0  0  0  0
 18 24  1  0  0  0  0
 19  3  1  0  0  0  0
 19  8  1  0  0  0  0
 20  1  1  0  0  0  0
 21 13  1  0  0  0  0
 22 28  1  0  0  0  0
 22  9  1  0  0  0  0
 24 25  1  0  0  0  0
 24 17  1  0  0  0  0
 25  4  1  0  0  0  0
 26 22  1  0  0  0  0
 27 33  1  0  0  0  0
 28 29  1  0  0  0  0
 28 27  2  0  0  0  0
 29 32  2  0  0  0  0
 32 30  1  0  0  0  0
 32 31  1  0  0  0  0
 33 31  2  0  0  0  0
 34 17  1  0  0  0  0
 34 35  1  0  0  0  0
 37 36  2  0  0  0  0
M  END
>  <MODEL>
6

>  <REMARK>
 VINA RESULT:      -5.7      3.953      8.910
  Name = 
  3 active torsions:
  status: ('A' for Active; 'I' for Inactive)
    1  A    between atoms: C_5  and  C_23
    2  A    between atoms: C_6  and  C_31
    3  A    between atoms: C_11  and  C_26
                            x       y       z     vdW  Elec       q    Type
                         _______ _______ _______ _____ _____    ______ ____

>  <TORSDO>
F 3

$$$$
=
 OpenBabel10262423023D

 37 44  0  0  1  0  0  0  0  0999 V2000
  186.1930  174.7690  136.9560 C   0  0  0  0  0  2  0  0  0  0  0  0
  190.7440  176.3580  138.5290 C   0  0  0  0  0  1  0  0  0  0  0  0
  185.3780  178.4960  137.2000 C   0  0  2  0  0  3  0  0  0  0  0  0
  185.3950  173.3290  134.9960 C   0  0  1  0  0  3  0  0  0  0  0  0
  183.0500  175.5710  138.1080 C   0  0  0  0  0  2  0  0  0  0  0  0
  189.0850  178.1200  139.0670 C   0  0  0  0  0  2  0  0  0  0  0  0
  185.0020  177.0130  137.4190 C   0  0  2  0  0  3  0  0  0  0  0  0
  186.8480  178.5050  136.7900 C   0  0  2  0  0  3  0  0  0  0  0  0
  184.0400  176.6440  138.5650 C   0  0  1  0  0  3  0  0  0  0  0  0
  187.9280  178.0330  140.0410 C   0  0  0  0  0  2  0  0  0  0  0  0
  184.6190  172.2850  135.5170 O   0  0  0  0  0  0  0  0  0  0  0  0
  187.2630  177.0350  136.6960 C   0  0  1  0  0  3  0  0  0  0  0  0
  188.7380  176.7770  136.9840 C   0  0  1  0  0  0  0  0  0  0  0  0
  185.5600  178.3600  140.3280 C   0  0  0  0  0  3  0  0  0  0  0  0
  186.5910  178.4130  139.4690 C   0  0  0  0  0  0  0  0  0  0  0  0
  189.6690  177.0240  135.8610 C   0  0  0  0  0  2  0  0  0  0  0  0
  183.4190  172.9120  135.8830 C   0  0  2  0  0  3  0  0  0  0  0  0
  183.7140  174.3770  137.8040 O   0  0  0  0  0  0  0  0  0  0  0  0
  186.4250  179.1300  138.1330 C   0  0  2  0  0  3  0  0  0  0  0  0
  186.2890  176.2040  137.4870 C   0  0  2  0  0  3  0  0  0  0  0  0
  189.2800  176.7640  138.4200 C   0  0  1  0  0  3  0  0  0  0  0  0
  183.3100  177.7920  139.2970 C   0  0  1  0  0  3  0  0  0  0  0  0
  189.2380  175.7220  136.2000 O   0  0  0  0  0  0  0  0  0  0  0  0
  183.7470  174.3150  136.3980 C   0  0  1  0  0  3  0  0  0  0  0  0
  185.1470  174.5750  135.8420 C   0  0  1  0  0  3  0  0  0  0  0  0
  184.1840  178.8510  139.9790 C   0  0  0  0  0  2  0  0  0  0  0  0
  181.0050  177.6650  138.2540 C   0  0  0  0  0  3  0  0  0  0  0  0
  182.1600  178.4000  138.5470 C   0  0  0  0  0  0  0  0  0  0  0  0
  182.2430  179.7350  138.1430 C   0  0  0  0  0  3  0  0  0  0  0  0
  181.2460  181.6060  137.0560 F   0  0  0  0  0  0  0  0  0  0  0  0
  180.0640  179.5780  137.1770 N   0  0  0  0  0  0  0  0  0  0  0  0
  181.1750  180.3120  137.4520 C   0  0  0  0  0  0  0  0  0  0  0  0
  179.9590  178.2770  137.5610 C   0  0  0  0  0  3  0  0  0  0  0  0
  182.6410  172.0390  136.8620 C   0  0  0  0  0  2  0  0  0  0  0  0
  183.1620  170.6150  136.8260 C   0  0  0  0  0  1  0  0  0  0  0  0
  187.1820  171.6450  134.8430 C   0  0  0  0  0  2  0  0  0  0  0  0
  186.8350  172.9290  134.8640 C   0  0  0  0  0  3  0  0  0  0  0  0
  1 20  1  0  0  0  0
  3  7  1  0  0  0  0
  3 19  1  0  0  0  0
  4 11  1  0  0  0  0
  4 25  1  0  0  0  0
  5  9  1  0  0  0  0
  6 10  1  0  0  0  0
  7 20  1  0  0  0  0
  7  9  1  0  0  0  0
  8  3  1  0  0  0  0
  8 19  1  0  0  0  0
  9 22  1  0  0  0  0
 11 17  1  0  0  0  0
 12  8  1  0  0  0  0
 12 13  1  0  0  0  0
 12 20  1  0  0  0  0
 13 21  1  0  0  0  0
 15 10  1  0  0  0  0
 15 14  2  0  0  0  0
 16 23  1  0  0  0  0
 16 13  1  0  0  0  0
 17 24  1  0  0  0  0
 17 34  1  0  0  0  0
 18  5  1  0  0  0  0
 19 15  1  0  0  0  0
 21  2  1  0  0  0  0
 21  6  1  0  0  0  0
 22 26  1  0  0  0  0
 23 13  1  0  0  0  0
 24 18  1  0  0  0  0
 25 24  1  0  0  0  0
 25  1  1  0  0  0  0
 26 14  1  0  0  0  0
 27 28  1  0  0  0  0
 28 22  1  0  0  0  0
 29 28  2  0  0  0  0
 30 32  1  0  0  0  0
 31 32  2  0  0  0  0
 31 33  1  0  0  0  0
 32 29  1  0  0  0  0
 33 27  2  0  0  0  0
 35 34  1  0  0  0  0
 36 37  2  0  0  0  0
 37  4  1  0  0  0  0
M  END
>  <MODEL>
7

>  <REMARK>
 VINA RESULT:      -4.5      2.693      6.194
  Name = 
  3 active torsions:
  status: ('A' for Active; 'I' for Inactive)
    1  A    between atoms: C_5  and  C_23
    2  A    between atoms: C_6  and  C_31
    3  A    between atoms: C_11  and  C_26
                            x       y       z     vdW  Elec       q    Type
                         _______ _______ _______ _____ _____    ______ ____

>  <TORSDO>
F 3

$$$$
=
 OpenBabel10262423023D

 37 44  0  0  1  0  0  0  0  0999 V2000
  184.9240  178.3250  139.4400 C   0  0  0  0  0  2  0  0  0  0  0  0
  188.7470  178.7890  136.1410 C   0  0  0  0  0  1  0  0  0  0  0  0
  184.1400  175.2470  137.3100 C   0  0  2  0  0  3  0  0  0  0  0  0
  184.7790  178.2810  141.9950 C   0  0  1  0  0  3  0  0  0  0  0  0
  181.5920  177.6620  138.8850 C   0  0  0  0  0  2  0  0  0  0  0  0
  187.0350  177.3070  135.1320 C   0  0  0  0  0  2  0  0  0  0  0  0
  183.6870  176.5030  138.0900 C   0  0  2  0  0  3  0  0  0  0  0  0
  185.6630  175.3130  137.2480 C   0  0  2  0  0  3  0  0  0  0  0  0
  182.3990  177.2310  137.6590 C   0  0  1  0  0  3  0  0  0  0  0  0
  185.6240  177.6730  134.7200 C   0  0  0  0  0  2  0  0  0  0  0  0
  183.8580  179.2610  142.3890 O   0  0  0  0  0  0  0  0  0  0  0  0
  186.0600  176.5470  138.0630 C   0  0  1  0  0  3  0  0  0  0  0  0
  187.3580  177.2090  137.6110 C   0  0  1  0  0  0  0  0  0  0  0  0
  183.2970  177.0870  134.9130 C   0  0  0  0  0  3  0  0  0  0  0  0
  184.5510  176.7850  135.2870 C   0  0  0  0  0  0  0  0  0  0  0  0
  188.6060  176.5870  138.1030 C   0  0  0  0  0  2  0  0  0  0  0  0
  182.6150  178.7060  142.0500 C   0  0  2  0  0  3  0  0  0  0  0  0
  182.2970  178.6060  139.6390 O   0  0  0  0  0  0  0  0  0  0  0  0
  184.8390  175.4440  135.9530 C   0  0  2  0  0  3  0  0  0  0  0  0
  184.8680  177.4580  138.1750 C   0  0  2  0  0  3  0  0  0  0  0  0
  187.4050  178.1040  136.3650 C   0  0  1  0  0  3  0  0  0  0  0  0
  181.4920  176.5420  136.6150 C   0  0  1  0  0  3  0  0  0  0  0  0
  188.0660  177.7480  138.7000 O   0  0  0  0  0  0  0  0  0  0  0  0
  182.7830  177.9040  140.7580 C   0  0  1  0  0  3  0  0  0  0  0  0
  184.2920  177.6710  140.6830 C   0  0  1  0  0  3  0  0  0  0  0  0
  182.1170  176.2210  135.2520 C   0  0  0  0  0  2  0  0  0  0  0  0
  179.8040  175.5760  138.2370 C   0  0  0  0  0  3  0  0  0  0  0  0
  180.6570  175.4090  137.1400 C   0  0  0  0  0  0  0  0  0  0  0  0
  180.7300  174.1640  136.5110 C   0  0  0  0  0  3  0  0  0  0  0  0
  180.0150  171.8950  136.3830 F   0  0  0  0  0  0  0  0  0  0  0  0
  179.1300  173.2910  138.0550 N   0  0  0  0  0  0  0  0  0  0  0  0
  179.9520  173.1060  136.9870 C   0  0  0  0  0  0  0  0  0  0  0  0
  179.0420  174.4940  138.6840 C   0  0  0  0  0  3  0  0  0  0  0  0
  181.5460  179.7930  141.9910 C   0  0  0  0  0  2  0  0  0  0  0  0
  180.1730  179.1920  142.2240 C   0  0  0  0  0  1  0  0  0  0  0  0
  187.1930  178.1130  142.4380 C   0  0  0  0  0  2  0  0  0  0  0  0
  186.1770  178.8260  141.9600 C   0  0  0  0  0  3  0  0  0  0  0  0
  1 25  1  0  0  0  0
  2 21  1  0  0  0  0
  3  7  1  0  0  0  0
  4 11  1  0  0  0  0
  5 18  1  0  0  0  0
  6 21  1  0  0  0  0
  7 20  1  0  0  0  0
  8  3  1  0  0  0  0
  8 12  1  0  0  0  0
  9  7  1  0  0  0  0
  9  5  1  0  0  0  0
 10  6  1  0  0  0  0
 10 15  1  0  0  0  0
 12 20  1  0  0  0  0
 13 12  1  0  0  0  0
 13 16  1  0  0  0  0
 13 23  1  0  0  0  0
 14 26  1  0  0  0  0
 14 15  2  0  0  0  0
 15 19  1  0  0  0  0
 16 23  1  0  0  0  0
 17 11  1  0  0  0  0
 18 24  1  0  0  0  0
 19  8  1  0  0  0  0
 19  3  1  0  0  0  0
 20  1  1  0  0  0  0
 21 13  1  0  0  0  0
 22 28  1  0  0  0  0
 22  9  1  0  0  0  0
 24 17  1  0  0  0  0
 25 24  1  0  0  0  0
 25  4  1  0  0  0  0
 26 22  1  0  0  0  0
 27 33  1  0  0  0  0
 28 27  2  0  0  0  0
 29 32  2  0  0  0  0
 29 28  1  0  0  0  0
 30 32  1  0  0  0  0
 31 33  2  0  0  0  0
 32 31  1  0  0  0  0
 34 17  1  0  0  0  0
 34 35  1  0  0  0  0
 37  4  1  0  0  0  0
 37 36  2  0  0  0  0
M  END
>  <MODEL>
8

>  <REMARK>
 VINA RESULT:      -4.2      3.088      7.052
  Name = 
  3 active torsions:
  status: ('A' for Active; 'I' for Inactive)
    1  A    between atoms: C_5  and  C_23
    2  A    between atoms: C_6  and  C_31
    3  A    between atoms: C_11  and  C_26
                            x       y       z     vdW  Elec       q    Type
                         _______ _______ _______ _____ _____    ______ ____

>  <TORSDO>
F 3

$$$$
=
 OpenBabel10262423023D

 37 44  0  0  1  0  0  0  0  0999 V2000
  186.3430  176.8860  138.2670 C   0  0  0  0  0  2  0  0  0  0  0  0
  183.0630  174.3530  135.3460 C   0  0  0  0  0  1  0  0  0  0  0  0
  188.7200  176.1200  135.3720 C   0  0  2  0  0  3  0  0  0  0  0  0
  186.2970  179.1720  139.4180 C   0  0  1  0  0  3  0  0  0  0  0  0
  189.5900  176.1260  139.1190 C   0  0  0  0  0  2  0  0  0  0  0  0
  185.3570  173.7830  134.6000 C   0  0  0  0  0  2  0  0  0  0  0  0
  188.4230  176.2290  136.8850 C   0  0  2  0  0  3  0  0  0  0  0  0
  187.3780  176.2830  134.6640 C   0  0  2  0  0  3  0  0  0  0  0  0
  189.2030  175.3350  137.8690 C   0  0  1  0  0  3  0  0  0  0  0  0
  186.4220  173.0360  135.3760 C   0  0  0  0  0  2  0  0  0  0  0  0
  186.5720  178.9730  140.7780 O   0  0  0  0  0  0  0  0  0  0  0  0
  186.3570  176.5680  135.7670 C   0  0  1  0  0  3  0  0  0  0  0  0
  184.9400  176.0990  135.4520 C   0  0  1  0  0  0  0  0  0  0  0  0
  188.7080  173.0760  136.1310 C   0  0  0  0  0  3  0  0  0  0  0  0
  187.7490  173.7380  135.4620 C   0  0  0  0  0  0  0  0  0  0  0  0
  184.1390  176.9970  134.5940 C   0  0  0  0  0  2  0  0  0  0  0  0
  187.9460  178.6980  140.8040 C   0  0  2  0  0  3  0  0  0  0  0  0
  188.4530  176.5260  139.8290 O   0  0  0  0  0  0  0  0  0  0  0  0
  188.1220  174.9340  134.5940 C   0  0  2  0  0  3  0  0  0  0  0  0
  186.9210  176.1010  137.0820 C   0  0  2  0  0  3  0  0  0  0  0  0
  184.5460  174.6200  135.5670 C   0  0  1  0  0  3  0  0  0  0  0  0
  190.4090  174.5370  137.3250 C   0  0  1  0  0  3  0  0  0  0  0  0
  183.9780  176.9670  135.9970 O   0  0  0  0  0  0  0  0  0  0  0  0
  188.3010  177.8980  139.5490 C   0  0  1  0  0  3  0  0  0  0  0  0
  187.1220  178.1690  138.6160 C   0  0  1  0  0  3  0  0  0  0  0  0
  190.1330  173.5480  136.1860 C   0  0  0  0  0  2  0  0  0  0  0  0
  192.2720  175.3870  135.8360 C   0  0  0  0  0  3  0  0  0  0  0  0
  191.6560  175.3400  137.0920 C   0  0  0  0  0  0  0  0  0  0  0  0
  192.2050  176.0650  138.1530 C   0  0  0  0  0  3  0  0  0  0  0  0
  193.9010  177.5270  138.9670 F   0  0  0  0  0  0  0  0  0  0  0  0
  193.9420  176.8510  136.7150 N   0  0  0  0  0  0  0  0  0  0  0  0
  193.3610  176.8220  137.9440 C   0  0  0  0  0  0  0  0  0  0  0  0
  193.4260  176.1550  135.6670 C   0  0  0  0  0  3  0  0  0  0  0  0
  188.3290  178.0250  142.1190 C   0  0  0  0  0  2  0  0  0  0  0  0
  187.0870  177.7220  142.9350 C   0  0  0  0  0  1  0  0  0  0  0  0
  183.9580  178.8860  140.1250 C   0  0  0  0  0  2  0  0  0  0  0  0
  184.8220  179.1410  139.1470 C   0  0  0  0  0  3  0  0  0  0  0  0
  1 25  1  0  0  0  0
  2 21  1  0  0  0  0
  3  7  1  0  0  0  0
  4 11  1  0  0  0  0
  5 18  1  0  0  0  0
  6 10  1  0  0  0  0
  6 21  1  0  0  0  0
  7 20  1  0  0  0  0
  7  9  1  0  0  0  0
  8  3  1  0  0  0  0
  8 12  1  0  0  0  0
  9  5  1  0  0  0  0
 10 15  1  0  0  0  0
 11 17  1  0  0  0  0
 12 20  1  0  0  0  0
 13 21  1  0  0  0  0
 13 12  1  0  0  0  0
 13 23  1  0  0  0  0
 14 26  1  0  0  0  0
 15 14  2  0  0  0  0
 16 13  1  0  0  0  0
 16 23  1  0  0  0  0
 17 34  1  0  0  0  0
 19  8  1  0  0  0  0
 19  3  1  0  0  0  0
 19 15  1  0  0  0  0
 20  1  1  0  0  0  0
 22  9  1  0  0  0  0
 24 18  1  0  0  0  0
 24 17  1  0  0  0  0
 25  4  1  0  0  0  0
 25 24  1  0  0  0  0
 26 22  1  0  0  0  0
 27 28  1  0  0  0  0
 28 22  1  0  0  0  0
 28 29  2  0  0  0  0
 31 32  2  0  0  0  0
 32 29  1  0  0  0  0
 32 30  1  0  0  0  0
 33 27  2  0  0  0  0
 33 31  1  0  0  0  0
 34 35  1  0  0  0  0
 37  4  1  0  0  0  0
 37 36  2  0  0  0  0
M  END
>  <MODEL>
9

>  <REMARK>
 VINA RESULT:      -3.8      3.684      7.305
  Name = 
  3 active torsions:
  status: ('A' for Active; 'I' for Inactive)
    1  A    between atoms: C_5  and  C_23
    2  A    between atoms: C_6  and  C_31
    3  A    between atoms: C_11  and  C_26
                            x       y       z     vdW  Elec       q    Type
                         _______ _______ _______ _____ _____    ______ ____

>  <TORSDO>
F 3

$$$$
