=
 OpenBabel10262420303D

 55 60  0  0  1  0  0  0  0  0999 V2000
  189.3700  176.9720  138.1770 C   0  0  1  0  0  3  0  0  0  0  0  0
  189.1690  175.6640  137.4670 C   0  0  0  0  0  0  0  0  0  0  0  0
  190.2570  174.8250  137.0500 N   0  0  0  0  0  2  0  0  0  0  0  0
  187.9890  175.2500  137.3090 O   0  0  0  0  0  0  0  0  0  0  0  0
  194.5540  175.0410  136.6990 C   0  0  2  0  0  0  0  0  0  0  0  0
  191.6390  175.2620  136.9210 C   0  0  2  0  0  3  0  0  0  0  0  0
  193.9930  172.7610  137.2330 F   0  0  0  0  0  0  0  0  0  0  0  0
  193.0000  176.1610  135.1050 O   0  0  0  0  0  0  0  0  0  0  0  0
  192.0840  175.1280  135.4640 C   0  0  1  0  0  3  0  0  0  0  0  0
  192.7990  173.8150  135.4550 C   0  0  1  0  0  3  0  0  0  0  0  0
  193.4610  173.9610  136.7980 C   0  0  2  0  0  0  0  0  0  0  0  0
  195.3290  175.3160  137.8300 O   0  0  0  0  0  1  0  0  0  0  0  0
  191.8780  172.7620  135.4680 O   0  0  0  0  0  1  0  0  0  0  0  0
  192.4710  174.4180  137.6900 O   0  0  0  0  0  0  0  0  0  0  0  0
  194.1780  176.2410  135.9200 C   0  0  2  0  0  3  0  0  0  0  0  0
  195.1930  175.2980  135.3870 N   0  0  0  0  0  0  0  0  0  0  0  0
  196.4790  175.9640  135.5360 C   0  0  0  0  0  2  0  0  0  0  0  0
  197.5730  175.0810  134.9740 C   0  0  0  0  0  2  0  0  0  0  0  0
  198.2550  174.3430  136.1050 C   0  0  0  0  0  2  0  0  0  0  0  0
  197.3420  172.4400  137.3940 C   0  0  0  0  0  1  0  0  0  0  0  0
  197.8770  172.8770  136.0470 C   0  0  0  0  0  2  0  0  0  0  0  0
  188.7210  178.0990  137.3830 C   0  0  0  0  0  2  0  0  0  0  0  0
  186.2100  178.2460  137.6110 C   0  0  0  0  0  0  0  0  0  0  0  0
  187.5240  178.5540  138.0710 N   0  0  0  0  0  2  0  0  0  0  0  0
  186.0370  177.7550  136.4600 O   0  0  0  0  0  0  0  0  0  0  0  0
  185.2160  179.2150  139.5100 O   0  0  0  0  0  0  0  0  0  0  0  0
  185.0680  178.4500  138.5180 C   0  0  0  0  0  0  0  0  0  0  0  0
  183.8170  177.7630  138.3270 N   0  0  0  0  0  0  0  0  0  0  0  0
  181.9620  178.3130  136.7750 C   0  0  0  0  0  2  0  0  0  0  0  0
  181.2720  177.8720  135.5150 C   0  0  0  0  0  3  0  0  0  0  0  0
  183.2910  176.0880  136.5400 C   0  0  0  0  0  2  0  0  0  0  0  0
  181.9050  175.5830  136.1250 C   0  0  0  0  0  2  0  0  0  0  0  0
  181.2430  176.5710  135.2060 C   0  0  0  0  0  3  0  0  0  0  0  0
  183.3010  177.5770  136.9610 C   0  0  2  0  0  3  0  0  0  0  0  0
  182.5800  176.1730  139.6250 C   0  0  0  0  0  2  0  0  0  0  0  0
  183.0030  177.4220  139.4700 C   0  0  0  0  0  0  0  0  0  0  0  0
  180.8680  179.2240  142.5730 O   0  0  0  0  0  0  0  0  0  0  0  0
  184.2330  177.8670  142.1800 C   0  0  0  0  0  2  0  0  0  0  0  0
  184.8870  178.6250  143.3260 C   0  0  0  0  0  2  0  0  0  0  0  0
  182.5580  178.4750  140.4110 C   0  0  0  0  0  0  0  0  0  0  0  0
  182.0940  179.0380  142.8080 C   0  0  0  0  0  0  0  0  0  0  0  0
  181.8360  179.4110  139.9700 O   0  0  0  0  0  0  0  0  0  0  0  0
  182.6500  179.4770  144.1310 C   0  0  0  0  0  2  0  0  0  0  0  0
  183.9100  178.6930  144.4960 C   0  0  2  0  0  3  0  0  0  0  0  0
  182.9560  178.4750  141.7960 N   0  0  0  0  0  0  0  0  0  0  0  0
  184.5420  179.2070  145.7160 N   0  0  0  0  0  2  0  0  0  0  0  0
  186.6910  178.7850  146.4940 F   0  0  0  0  0  0  0  0  0  0  0  0
  185.4480  178.2190  146.2950 C   0  0  0  0  0  2  0  0  0  0  0  0
  188.8620  176.9340  139.5080 O   0  0  0  0  0  0  0  0  0  0  0  0
  191.1780  177.9500  142.8590 C   0  0  0  0  0  3  0  0  0  0  0  0
  189.6160  177.2940  140.6300 C   0  0  0  0  0  0  0  0  0  0  0  0
  191.0040  177.1300  140.5910 C   0  0  0  0  0  3  0  0  0  0  0  0
  189.7930  178.1300  142.9020 C   0  0  0  0  0  3  0  0  0  0  0  0
  191.7820  177.4540  141.7030 C   0  0  0  0  0  3  0  0  0  0  0  0
  189.0140  177.8050  141.7890 C   0  0  0  0  0  3  0  0  0  0  0  0
  1 22  1  6  0  0  0
  1 49  1  0  0  0  0
  2  1  1  0  0  0  0
  3  2  1  0  0  0  0
  4  2  2  0  0  0  0
  5 11  1  0  0  0  0
  5 12  1  1  0  0  0
  6  3  1  6  0  0  0
  6 14  1  0  0  0  0
  9  8  1  1  0  0  0
  9  6  1  0  0  0  0
 10  9  1  0  0  0  0
 10 13  1  1  0  0  0
 10 11  1  0  0  0  0
 11  7  1  1  0  0  0
 11 14  1  0  0  0  0
 15  8  1  6  0  0  0
 15  5  1  0  0  0  0
 16 17  1  0  0  0  0
 16 15  1  0  0  0  0
 16  5  1  0  0  0  0
 18 17  1  0  0  0  0
 18 19  1  0  0  0  0
 21 19  1  0  0  0  0
 21 20  1  0  0  0  0
 22 24  1  0  0  0  0
 23 24  1  0  0  0  0
 23 27  1  0  0  0  0
 25 23  2  0  0  0  0
 27 26  2  0  0  0  0
 28 27  1  0  0  0  0
 28 36  1  0  0  0  0
 29 34  1  0  0  0  0
 30 29  1  0  0  0  0
 31 34  1  0  0  0  0
 32 31  1  0  0  0  0
 33 30  2  0  0  0  0
 33 32  1  0  0  0  0
 34 28  1  1  0  0  0
 36 35  2  0  0  0  0
 36 40  1  0  0  0  0
 37 41  2  0  0  0  0
 38 39  1  0  0  0  0
 39 44  1  0  0  0  0
 40 45  1  0  0  0  0
 41 43  1  0  0  0  0
 42 40  2  0  0  0  0
 43 44  1  0  0  0  0
 44 46  1  1  0  0  0
 45 38  1  0  0  0  0
 45 41  1  0  0  0  0
 46 48  1  0  0  0  0
 48 47  1  0  0  0  0
 49 51  1  0  0  0  0
 50 53  1  0  0  0  0
 51 55  1  0  0  0  0
 52 51  2  0  0  0  0
 52 54  1  0  0  0  0
 54 50  2  0  0  0  0
 55 53  2  0  0  0  0
M  END
>  <MODEL>
1

>  <REMARK>
 VINA RESULT:      -7.6      0.000      0.000
  Name = 
  16 active torsions:
  status: ('A' for Active; 'I' for Inactive)
    1  A    between atoms: C_3  and  C_25
    2  A    between atoms: C_3  and  C_38
    3  A    between atoms: C_4  and  N_37
    4  A    between atoms: C_4  and  C_54
    5  A    between atoms: C_6  and  N_22
    6  A    between atoms: C_8  and  C_54
    7  A    between atoms: N_10  and  C_47
    8  A    between atoms: N_10  and  C_48
    9  A    between atoms: C_19  and  C_35
   10  A    between atoms: C_26  and  N_45
   11  A    between atoms: C_27  and  O_51
   12  A    between atoms: C_29  and  C_38
   13  A    between atoms: C_29  and  N_53
   14  A    between atoms: C_33  and  C_49
   15  A    between atoms: N_45  and  C_49
   16  A    between atoms: O_51  and  C_54
                            x       y       z     vdW  Elec       q    Type
                         _______ _______ _______ _____ _____    ______ ____

>  <TORSDO>
F 16

$$$$
=
 OpenBabel10262420303D

 55 60  0  0  1  0  0  0  0  0999 V2000
  186.5390  177.9520  142.8070 C   0  0  1  0  0  3  0  0  0  0  0  0
  185.2930  178.7010  143.1850 C   0  0  0  0  0  0  0  0  0  0  0  0
  184.0860  178.6520  142.4090 N   0  0  0  0  0  2  0  0  0  0  0  0
  185.2860  179.3290  144.2780 O   0  0  0  0  0  0  0  0  0  0  0  0
  182.8010  177.1290  138.5800 C   0  0  2  0  0  0  0  0  0  0  0  0
  184.0050  178.2040  141.0270 C   0  0  2  0  0  3  0  0  0  0  0  0
  181.0190  176.7200  140.1470 F   0  0  0  0  0  0  0  0  0  0  0  0
  183.9630  179.3170  138.8550 O   0  0  0  0  0  0  0  0  0  0  0  0
  183.3980  179.3110  140.1650 C   0  0  1  0  0  3  0  0  0  0  0  0
  181.9600  178.9130  140.0780 C   0  0  1  0  0  3  0  0  0  0  0  0
  182.1910  177.4310  139.9610 C   0  0  2  0  0  0  0  0  0  0  0  0
  183.0640  175.7980  138.2400 O   0  0  0  0  0  1  0  0  0  0  0  0
  181.2990  179.2190  141.2710 O   0  0  0  0  0  1  0  0  0  0  0  0
  183.1400  177.0910  140.9450 O   0  0  0  0  0  0  0  0  0  0  0  0
  183.8420  178.0820  138.1350 C   0  0  2  0  0  3  0  0  0  0  0  0
  182.5230  178.0520  137.4540 N   0  0  0  0  0  0  0  0  0  0  0  0
  182.7480  177.4130  136.1660 C   0  0  0  0  0  2  0  0  0  0  0  0
  181.9500  178.1320  135.0990 C   0  0  0  0  0  2  0  0  0  0  0  0
  180.8510  178.9410  135.7520 C   0  0  0  0  0  2  0  0  0  0  0  0
  180.5620  181.3630  136.1670 C   0  0  0  0  0  1  0  0  0  0  0  0
  180.7810  180.3080  135.1030 C   0  0  0  0  0  2  0  0  0  0  0  0
  187.2160  178.6350  141.6250 C   0  0  0  0  0  2  0  0  0  0  0  0
  188.5980  177.9460  139.6270 C   0  0  0  0  0  0  0  0  0  0  0  0
  187.7180  177.6300  140.7030 N   0  0  0  0  0  2  0  0  0  0  0  0
  188.7940  179.1500  139.2970 O   0  0  0  0  0  0  0  0  0  0  0  0
  190.3170  176.3440  139.5210 O   0  0  0  0  0  0  0  0  0  0  0  0
  189.3180  176.8560  138.9470 C   0  0  0  0  0  0  0  0  0  0  0  0
  188.9420  176.4050  137.6320 N   0  0  0  0  0  0  0  0  0  0  0  0
  187.1670  174.8940  136.7800 C   0  0  0  0  0  2  0  0  0  0  0  0
  185.8140  174.8710  136.1280 C   0  0  0  0  0  3  0  0  0  0  0  0
  187.0550  177.4620  136.3680 C   0  0  0  0  0  2  0  0  0  0  0  0
  186.4410  176.9810  135.0490 C   0  0  0  0  0  2  0  0  0  0  0  0
  185.4680  175.8630  135.3010 C   0  0  0  0  0  3  0  0  0  0  0  0
  187.5130  176.3060  137.2890 C   0  0  2  0  0  3  0  0  0  0  0  0
  190.1070  176.4480  135.5390 C   0  0  0  0  0  2  0  0  0  0  0  0
  189.9480  175.8900  136.7340 C   0  0  0  0  0  0  0  0  0  0  0  0
  192.3680  172.5230  136.2470 O   0  0  0  0  0  0  0  0  0  0  0  0
  192.8820  175.9470  137.4000 C   0  0  0  0  0  2  0  0  0  0  0  0
  194.1520  175.6980  138.2000 C   0  0  0  0  0  2  0  0  0  0  0  0
  190.7310  174.6870  137.0980 C   0  0  0  0  0  0  0  0  0  0  0  0
  192.9180  173.4930  136.8390 C   0  0  0  0  0  0  0  0  0  0  0  0
  190.1090  173.6400  137.4260 O   0  0  0  0  0  0  0  0  0  0  0  0
  194.3370  173.3440  137.3050 C   0  0  0  0  0  2  0  0  0  0  0  0
  195.0250  174.7010  137.4430 C   0  0  2  0  0  3  0  0  0  0  0  0
  192.1720  174.6950  137.1210 N   0  0  0  0  0  0  0  0  0  0  0  0
  196.3640  174.5790  138.0310 N   0  0  0  0  0  2  0  0  0  0  0  0
  197.7810  173.3750  136.6360 F   0  0  0  0  0  0  0  0  0  0  0  0
  197.3980  174.6500  137.0020 C   0  0  0  0  0  2  0  0  0  0  0  0
  187.4390  177.8350  143.9060 O   0  0  0  0  0  0  0  0  0  0  0  0
  191.3700  176.4090  143.5340 C   0  0  0  0  0  3  0  0  0  0  0  0
  188.7570  177.3860  143.7770 C   0  0  0  0  0  0  0  0  0  0  0  0
  188.9900  176.1320  143.2020 C   0  0  0  0  0  3  0  0  0  0  0  0
  191.1470  177.6670  144.0970 C   0  0  0  0  0  3  0  0  0  0  0  0
  190.2920  175.6440  143.0840 C   0  0  0  0  0  3  0  0  0  0  0  0
  189.8450  178.1560  144.2160 C   0  0  0  0  0  3  0  0  0  0  0  0
  1 22  1  6  0  0  0
  1  2  1  0  0  0  0
  1 49  1  0  0  0  0
  2  4  2  0  0  0  0
  3  2  1  0  0  0  0
  5 12  1  6  0  0  0
  5 11  1  0  0  0  0
  6  3  1  1  0  0  0
  9  8  1  6  0  0  0
  9  6  1  0  0  0  0
 10  9  1  0  0  0  0
 10 13  1  1  0  0  0
 11 10  1  0  0  0  0
 11  7  1  1  0  0  0
 11 14  1  0  0  0  0
 14  6  1  0  0  0  0
 15  5  1  0  0  0  0
 15  8  1  1  0  0  0
 16 15  1  0  0  0  0
 16  5  1  0  0  0  0
 17 16  1  0  0  0  0
 18 19  1  0  0  0  0
 18 17  1  0  0  0  0
 21 19  1  0  0  0  0
 21 20  1  0  0  0  0
 23 24  1  0  0  0  0
 24 22  1  0  0  0  0
 25 23  2  0  0  0  0
 27 26  2  0  0  0  0
 27 23  1  0  0  0  0
 28 27  1  0  0  0  0
 29 34  1  0  0  0  0
 30 29  1  0  0  0  0
 31 34  1  0  0  0  0
 32 33  1  0  0  0  0
 32 31  1  0  0  0  0
 33 30  2  0  0  0  0
 34 28  1  6  0  0  0
 35 36  2  0  0  0  0
 36 40  1  0  0  0  0
 36 28  1  0  0  0  0
 37 41  2  0  0  0  0
 38 39  1  0  0  0  0
 40 45  1  0  0  0  0
 40 42  2  0  0  0  0
 41 45  1  0  0  0  0
 41 43  1  0  0  0  0
 43 44  1  0  0  0  0
 44 46  1  1  0  0  0
 44 39  1  0  0  0  0
 45 38  1  0  0  0  0
 47 48  1  0  0  0  0
 48 46  1  0  0  0  0
 50 53  1  0  0  0  0
 51 49  1  0  0  0  0
 51 55  1  0  0  0  0
 52 51  2  0  0  0  0
 53 55  2  0  0  0  0
 54 52  1  0  0  0  0
 54 50  2  0  0  0  0
M  END
>  <MODEL>
2

>  <REMARK>
 VINA RESULT:      -7.6      2.401     10.407
  Name = 
  16 active torsions:
  status: ('A' for Active; 'I' for Inactive)
    1  A    between atoms: C_3  and  C_25
    2  A    between atoms: C_3  and  C_38
    3  A    between atoms: C_4  and  N_37
    4  A    between atoms: C_4  and  C_54
    5  A    between atoms: C_6  and  N_22
    6  A    between atoms: C_8  and  C_54
    7  A    between atoms: N_10  and  C_47
    8  A    between atoms: N_10  and  C_48
    9  A    between atoms: C_19  and  C_35
   10  A    between atoms: C_26  and  N_45
   11  A    between atoms: C_27  and  O_51
   12  A    between atoms: C_29  and  C_38
   13  A    between atoms: C_29  and  N_53
   14  A    between atoms: C_33  and  C_49
   15  A    between atoms: N_45  and  C_49
   16  A    between atoms: O_51  and  C_54
                            x       y       z     vdW  Elec       q    Type
                         _______ _______ _______ _____ _____    ______ ____

>  <TORSDO>
F 16

$$$$
=
 OpenBabel10262420303D

 55 60  0  0  1  0  0  0  0  0999 V2000
  189.1900  177.0710  138.6210 C   0  0  1  0  0  3  0  0  0  0  0  0
  190.5890  177.0390  139.1660 C   0  0  0  0  0  0  0  0  0  0  0  0
  190.8830  177.0870  140.5700 N   0  0  0  0  0  2  0  0  0  0  0  0
  191.5390  176.8760  138.3540 O   0  0  0  0  0  0  0  0  0  0  0  0
  188.0380  177.3160  143.8090 C   0  0  2  0  0  0  0  0  0  0  0  0
  189.9510  177.5270  141.5980 C   0  0  2  0  0  3  0  0  0  0  0  0
  188.2400  174.9960  143.1970 F   0  0  0  0  0  0  0  0  0  0  0  0
  190.1730  178.6020  143.7790 O   0  0  0  0  0  0  0  0  0  0  0  0
  190.6550  177.5420  142.9550 C   0  0  1  0  0  3  0  0  0  0  0  0
  190.2500  176.2330  143.5530 C   0  0  1  0  0  3  0  0  0  0  0  0
  188.8320  176.2370  143.0510 C   0  0  2  0  0  0  0  0  0  0  0  0
  186.6770  177.4690  143.5270 O   0  0  0  0  0  1  0  0  0  0  0  0
  190.9790  175.1890  142.9740 O   0  0  0  0  0  1  0  0  0  0  0  0
  188.8850  176.6050  141.6910 O   0  0  0  0  0  0  0  0  0  0  0  0
  188.7580  178.5920  144.0170 C   0  0  2  0  0  3  0  0  0  0  0  0
  188.4730  177.7030  145.1720 N   0  0  0  0  0  0  0  0  0  0  0  0
  187.4000  178.3440  145.9180 C   0  0  0  0  0  2  0  0  0  0  0  0
  187.1340  177.5650  147.1900 C   0  0  0  0  0  2  0  0  0  0  0  0
  188.3900  176.8280  147.6000 C   0  0  0  0  0  2  0  0  0  0  0  0
  190.8180  177.2670  147.7710 C   0  0  0  0  0  1  0  0  0  0  0  0
  189.4390  177.8290  148.0400 C   0  0  0  0  0  2  0  0  0  0  0  0
  188.6710  178.5030  138.6090 C   0  0  0  0  0  2  0  0  0  0  0  0
  186.2440  178.5730  139.3060 C   0  0  0  0  0  0  0  0  0  0  0  0
  187.2510  178.5050  138.2980 N   0  0  0  0  0  2  0  0  0  0  0  0
  186.5470  178.4040  140.5210 O   0  0  0  0  0  0  0  0  0  0  0  0
  184.4890  180.1030  138.9750 O   0  0  0  0  0  0  0  0  0  0  0  0
  184.8620  178.9010  138.9160 C   0  0  0  0  0  0  0  0  0  0  0  0
  183.9240  177.8800  138.5240 N   0  0  0  0  0  0  0  0  0  0  0  0
  184.5010  177.1770  136.2150 C   0  0  0  0  0  2  0  0  0  0  0  0
  184.6550  175.9790  135.3220 C   0  0  0  0  0  3  0  0  0  0  0  0
  183.5730  175.4690  137.9460 C   0  0  0  0  0  2  0  0  0  0  0  0
  182.9170  174.9080  136.6790 C   0  0  0  0  0  2  0  0  0  0  0  0
  183.8990  174.8980  135.5410 C   0  0  0  0  0  3  0  0  0  0  0  0
  184.3900  176.7580  137.6920 C   0  0  2  0  0  3  0  0  0  0  0  0
  182.0170  177.6460  139.9550 C   0  0  0  0  0  2  0  0  0  0  0  0
  182.5170  178.0560  138.7950 C   0  0  0  0  0  0  0  0  0  0  0  0
  178.9570  179.1370  136.9000 O   0  0  0  0  0  0  0  0  0  0  0  0
  181.5730  180.9130  138.7210 C   0  0  0  0  0  2  0  0  0  0  0  0
  181.3080  182.2970  138.1480 C   0  0  0  0  0  2  0  0  0  0  0  0
  181.6170  178.5970  137.7510 C   0  0  0  0  0  0  0  0  0  0  0  0
  179.6700  180.1050  137.2850 C   0  0  0  0  0  0  0  0  0  0  0  0
  181.4580  177.9340  136.6900 O   0  0  0  0  0  0  0  0  0  0  0  0
  179.1920  181.5020  137.0240 C   0  0  0  0  0  2  0  0  0  0  0  0
  179.8020  182.4960  138.0120 C   0  0  2  0  0  3  0  0  0  0  0  0
  180.9520  179.8670  137.9030 N   0  0  0  0  0  0  0  0  0  0  0  0
  179.4540  183.8820  137.6810 N   0  0  0  0  0  2  0  0  0  0  0  0
  180.1080  185.6510  136.3220 F   0  0  0  0  0  0  0  0  0  0  0  0
  180.5730  184.5650  137.0360 C   0  0  0  0  0  2  0  0  0  0  0  0
  189.1170  176.4960  137.3190 O   0  0  0  0  0  0  0  0  0  0  0  0
  187.7970  172.5640  136.6670 C   0  0  0  0  0  3  0  0  0  0  0  0
  188.6950  175.1840  137.0800 C   0  0  0  0  0  0  0  0  0  0  0  0
  187.3530  174.8560  137.2990 C   0  0  0  0  0  3  0  0  0  0  0  0
  189.1360  172.8860  136.4340 C   0  0  0  0  0  3  0  0  0  0  0  0
  186.9060  173.5500  137.0950 C   0  0  0  0  0  3  0  0  0  0  0  0
  189.5840  174.1930  136.6370 C   0  0  0  0  0  3  0  0  0  0  0  0
  1 22  1  6  0  0  0
  1  2  1  0  0  0  0
  2  3  1  0  0  0  0
  4  2  2  0  0  0  0
  5 12  1  6  0  0  0
  5 15  1  0  0  0  0
  5 16  1  0  0  0  0
  6  3  1  6  0  0  0
  6 14  1  0  0  0  0
  6  9  1  0  0  0  0
  9 10  1  0  0  0  0
  9  8  1  1  0  0  0
 10 13  1  6  0  0  0
 11  7  1  1  0  0  0
 11 10  1  0  0  0  0
 11  5  1  0  0  0  0
 14 11  1  0  0  0  0
 15  8  1  6  0  0  0
 15 16  1  0  0  0  0
 16 17  1  0  0  0  0
 17 18  1  0  0  0  0
 18 19  1  0  0  0  0
 19 21  1  0  0  0  0
 20 21  1  0  0  0  0
 23 25  2  0  0  0  0
 24 22  1  0  0  0  0
 24 23  1  0  0  0  0
 27 26  2  0  0  0  0
 27 23  1  0  0  0  0
 28 36  1  0  0  0  0
 28 27  1  0  0  0  0
 29 34  1  0  0  0  0
 30 33  2  0  0  0  0
 30 29  1  0  0  0  0
 32 31  1  0  0  0  0
 33 32  1  0  0  0  0
 34 31  1  0  0  0  0
 34 28  1  1  0  0  0
 36 35  2  0  0  0  0
 37 41  2  0  0  0  0
 39 38  1  0  0  0  0
 40 45  1  0  0  0  0
 40 36  1  0  0  0  0
 41 45  1  0  0  0  0
 42 40  2  0  0  0  0
 43 41  1  0  0  0  0
 43 44  1  0  0  0  0
 44 46  1  6  0  0  0
 44 39  1  0  0  0  0
 45 38  1  0  0  0  0
 47 48  1  0  0  0  0
 48 46  1  0  0  0  0
 49  1  1  0  0  0  0
 50 54  1  0  0  0  0
 51 52  1  0  0  0  0
 51 49  1  0  0  0  0
 53 55  1  0  0  0  0
 53 50  2  0  0  0  0
 54 52  2  0  0  0  0
 55 51  2  0  0  0  0
M  END
>  <MODEL>
3

>  <REMARK>
 VINA RESULT:      -7.6      3.919      7.706
  Name = 
  16 active torsions:
  status: ('A' for Active; 'I' for Inactive)
    1  A    between atoms: C_3  and  C_25
    2  A    between atoms: C_3  and  C_38
    3  A    between atoms: C_4  and  N_37
    4  A    between atoms: C_4  and  C_54
    5  A    between atoms: C_6  and  N_22
    6  A    between atoms: C_8  and  C_54
    7  A    between atoms: N_10  and  C_47
    8  A    between atoms: N_10  and  C_48
    9  A    between atoms: C_19  and  C_35
   10  A    between atoms: C_26  and  N_45
   11  A    between atoms: C_27  and  O_51
   12  A    between atoms: C_29  and  C_38
   13  A    between atoms: C_29  and  N_53
   14  A    between atoms: C_33  and  C_49
   15  A    between atoms: N_45  and  C_49
   16  A    between atoms: O_51  and  C_54
                            x       y       z     vdW  Elec       q    Type
                         _______ _______ _______ _____ _____    ______ ____

>  <TORSDO>
F 16

$$$$
=
 OpenBabel10262420303D

 55 60  0  0  1  0  0  0  0  0999 V2000
  184.6710  178.6470  142.1330 C   0  0  1  0  0  3  0  0  0  0  0  0
  183.1700  178.6550  142.0920 C   0  0  0  0  0  0  0  0  0  0  0  0
  182.4080  177.8530  141.1760 N   0  0  0  0  0  2  0  0  0  0  0  0
  182.5550  179.3330  142.9590 O   0  0  0  0  0  0  0  0  0  0  0  0
  183.0860  175.4090  137.6830 C   0  0  2  0  0  0  0  0  0  0  0  0
  182.9430  177.2360  139.9720 C   0  0  2  0  0  3  0  0  0  0  0  0
  181.2310  174.4480  138.8800 F   0  0  0  0  0  0  0  0  0  0  0  0
  183.1260  177.9010  137.6300 O   0  0  0  0  0  0  0  0  0  0  0  0
  182.2400  177.8150  138.7440 C   0  0  1  0  0  3  0  0  0  0  0  0
  181.1850  176.7960  138.4540 C   0  0  1  0  0  3  0  0  0  0  0  0
  182.0150  175.5830  138.7750 C   0  0  2  0  0  0  0  0  0  0  0  0
  183.9510  174.3130  137.7620 O   0  0  0  0  0  1  0  0  0  0  0  0
  180.1250  176.9250  139.3570 O   0  0  0  0  0  1  0  0  0  0  0  0
  182.6680  175.8500  139.9940 O   0  0  0  0  0  0  0  0  0  0  0  0
  183.7390  176.6620  137.2430 C   0  0  2  0  0  3  0  0  0  0  0  0
  182.8210  175.9410  136.3250 N   0  0  0  0  0  0  0  0  0  0  0  0
  183.6680  175.3080  135.3250 C   0  0  0  0  0  2  0  0  0  0  0  0
  182.8790  174.2390  134.5990 C   0  0  0  0  0  2  0  0  0  0  0  0
  183.6650  172.9460  134.5970 C   0  0  0  0  0  2  0  0  0  0  0  0
  184.0490  171.0010  136.0770 C   0  0  0  0  0  1  0  0  0  0  0  0
  183.0070  171.9570  135.5370 C   0  0  0  0  0  2  0  0  0  0  0  0
  185.2290  179.2200  140.8370 C   0  0  0  0  0  2  0  0  0  0  0  0
  187.2790  178.2640  139.7130 C   0  0  0  0  0  0  0  0  0  0  0  0
  186.6620  178.9860  140.7770 N   0  0  0  0  0  2  0  0  0  0  0  0
  186.5730  177.6050  138.8980 O   0  0  0  0  0  0  0  0  0  0  0  0
  189.1980  179.0810  138.6250 O   0  0  0  0  0  0  0  0  0  0  0  0
  188.7390  178.3480  139.5420 C   0  0  0  0  0  0  0  0  0  0  0  0
  189.6420  177.5790  140.3590 N   0  0  0  0  0  0  0  0  0  0  0  0
  189.9380  178.5700  142.6140 C   0  0  0  0  0  2  0  0  0  0  0  0
  189.9320  178.2520  144.0820 C   0  0  0  0  0  3  0  0  0  0  0  0
  189.7170  175.9960  142.3000 C   0  0  0  0  0  2  0  0  0  0  0  0
  190.7110  176.0110  143.4660 C   0  0  0  0  0  2  0  0  0  0  0  0
  190.3020  177.0340  144.4890 C   0  0  0  0  0  3  0  0  0  0  0  0
  189.3470  177.4100  141.7920 C   0  0  2  0  0  3  0  0  0  0  0  0
  192.0370  177.6170  140.3060 C   0  0  0  0  0  2  0  0  0  0  0  0
  190.9020  177.1340  139.8140 C   0  0  0  0  0  0  0  0  0  0  0  0
  191.0690  175.9180  135.8220 O   0  0  0  0  0  0  0  0  0  0  0  0
  193.4370  176.0640  138.5950 C   0  0  0  0  0  2  0  0  0  0  0  0
  194.4240  175.0330  138.0680 C   0  0  0  0  0  2  0  0  0  0  0  0
  190.9320  176.2220  138.6480 C   0  0  0  0  0  0  0  0  0  0  0  0
  192.0980  175.6510  136.5040 C   0  0  0  0  0  0  0  0  0  0  0  0
  189.8670  175.6330  138.3160 O   0  0  0  0  0  0  0  0  0  0  0  0
  193.2380  174.9370  135.8410 C   0  0  0  0  0  2  0  0  0  0  0  0
  194.5600  175.2060  136.5590 C   0  0  2  0  0  3  0  0  0  0  0  0
  192.1450  175.9670  137.9110 N   0  0  0  0  0  0  0  0  0  0  0  0
  195.6570  174.4040  136.0060 N   0  0  0  0  0  2  0  0  0  0  0  0
  197.7340  175.4010  136.3140 F   0  0  0  0  0  0  0  0  0  0  0  0
  196.8470  174.4890  136.8490 C   0  0  0  0  0  2  0  0  0  0  0  0
  185.1720  179.3630  143.2590 O   0  0  0  0  0  0  0  0  0  0  0  0
  186.6240  177.5660  146.7650 C   0  0  0  0  0  3  0  0  0  0  0  0
  185.6540  178.7390  144.4150 C   0  0  0  0  0  0  0  0  0  0  0  0
  185.2920  179.2570  145.6620 C   0  0  0  0  0  3  0  0  0  0  0  0
  186.9800  177.0350  145.5240 C   0  0  0  0  0  3  0  0  0  0  0  0
  185.7780  178.6750  146.8340 C   0  0  0  0  0  3  0  0  0  0  0  0
  186.4950  177.6180  144.3510 C   0  0  0  0  0  3  0  0  0  0  0  0
  1 22  1  6  0  0  0
  1 49  1  0  0  0  0
  2  1  1  0  0  0  0
  2  4  2  0  0  0  0
  3  2  1  0  0  0  0
  5 12  1  1  0  0  0
  5 11  1  0  0  0  0
  6 14  1  0  0  0  0
  6  3  1  1  0  0  0
  9  8  1  6  0  0  0
  9  6  1  0  0  0  0
 10  9  1  0  0  0  0
 10 11  1  0  0  0  0
 10 13  1  1  0  0  0
 11  7  1  1  0  0  0
 11 14  1  0  0  0  0
 15  8  1  1  0  0  0
 15  5  1  0  0  0  0
 16 15  1  0  0  0  0
 16  5  1  0  0  0  0
 17 16  1  0  0  0  0
 18 17  1  0  0  0  0
 19 18  1  0  0  0  0
 19 21  1  0  0  0  0
 21 20  1  0  0  0  0
 23 24  1  0  0  0  0
 24 22  1  0  0  0  0
 25 23  2  0  0  0  0
 26 27  2  0  0  0  0
 27 23  1  0  0  0  0
 27 28  1  0  0  0  0
 29 30  1  0  0  0  0
 30 33  2  0  0  0  0
 31 32  1  0  0  0  0
 32 33  1  0  0  0  0
 34 28  1  6  0  0  0
 34 31  1  0  0  0  0
 34 29  1  0  0  0  0
 36 35  2  0  0  0  0
 36 28  1  0  0  0  0
 37 41  2  0  0  0  0
 39 38  1  0  0  0  0
 40 36  1  0  0  0  0
 41 45  1  0  0  0  0
 42 40  2  0  0  0  0
 43 41  1  0  0  0  0
 43 44  1  0  0  0  0
 44 46  1  6  0  0  0
 44 39  1  0  0  0  0
 45 38  1  0  0  0  0
 45 40  1  0  0  0  0
 46 48  1  0  0  0  0
 47 48  1  0  0  0  0
 49 51  1  0  0  0  0
 50 54  1  0  0  0  0
 51 52  1  0  0  0  0
 52 54  2  0  0  0  0
 53 50  2  0  0  0  0
 55 51  2  0  0  0  0
 55 53  1  0  0  0  0
M  END
>  <MODEL>
4

>  <REMARK>
 VINA RESULT:      -7.6      2.634     10.414
  Name = 
  16 active torsions:
  status: ('A' for Active; 'I' for Inactive)
    1  A    between atoms: C_3  and  C_25
    2  A    between atoms: C_3  and  C_38
    3  A    between atoms: C_4  and  N_37
    4  A    between atoms: C_4  and  C_54
    5  A    between atoms: C_6  and  N_22
    6  A    between atoms: C_8  and  C_54
    7  A    between atoms: N_10  and  C_47
    8  A    between atoms: N_10  and  C_48
    9  A    between atoms: C_19  and  C_35
   10  A    between atoms: C_26  and  N_45
   11  A    between atoms: C_27  and  O_51
   12  A    between atoms: C_29  and  C_38
   13  A    between atoms: C_29  and  N_53
   14  A    between atoms: C_33  and  C_49
   15  A    between atoms: N_45  and  C_49
   16  A    between atoms: O_51  and  C_54
                            x       y       z     vdW  Elec       q    Type
                         _______ _______ _______ _____ _____    ______ ____

>  <TORSDO>
F 16

$$$$
=
 OpenBabel10262420303D

 55 60  0  0  1  0  0  0  0  0999 V2000
  185.0030  178.7490  143.1840 C   0  0  1  0  0  3  0  0  0  0  0  0
  183.5140  178.8310  143.3630 C   0  0  0  0  0  0  0  0  0  0  0  0
  182.5820  178.4470  142.3410 N   0  0  0  0  0  2  0  0  0  0  0  0
  183.0700  179.1710  144.4920 O   0  0  0  0  0  0  0  0  0  0  0  0
  182.9440  177.0760  138.2630 C   0  0  2  0  0  0  0  0  0  0  0  0
  182.9120  178.2880  140.9320 C   0  0  2  0  0  3  0  0  0  0  0  0
  181.8840  175.3150  139.5180 F   0  0  0  0  0  0  0  0  0  0  0  0
  182.2150  179.3830  138.8650 O   0  0  0  0  0  0  0  0  0  0  0  0
  181.7490  178.7870  140.0740 C   0  0  1  0  0  3  0  0  0  0  0  0
  181.0140  177.5270  139.7480 C   0  0  1  0  0  3  0  0  0  0  0  0
  182.2260  176.6550  139.5580 C   0  0  2  0  0  0  0  0  0  0  0  0
  184.0830  176.3680  137.8690 O   0  0  0  0  0  1  0  0  0  0  0  0
  180.2660  177.1020  140.8520 O   0  0  0  0  0  1  0  0  0  0  0  0
  183.0860  176.9160  140.6430 O   0  0  0  0  0  0  0  0  0  0  0  0
  183.0360  178.5370  138.0460 C   0  0  2  0  0  3  0  0  0  0  0  0
  182.1570  177.7110  137.1800 N   0  0  0  0  0  0  0  0  0  0  0  0
  182.8350  177.6140  135.8950 C   0  0  0  0  0  2  0  0  0  0  0  0
  181.8100  177.6500  134.7800 C   0  0  0  0  0  2  0  0  0  0  0  0
  180.4850  178.1310  135.3290 C   0  0  0  0  0  2  0  0  0  0  0  0
  180.7530  180.5890  135.2790 C   0  0  0  0  0  1  0  0  0  0  0  0
  180.0800  179.4060  134.6180 C   0  0  0  0  0  2  0  0  0  0  0  0
  185.3950  179.3190  141.8260 C   0  0  0  0  0  2  0  0  0  0  0  0
  187.2180  178.4210  140.3270 C   0  0  0  0  0  0  0  0  0  0  0  0
  186.7890  179.0110  141.5520 N   0  0  0  0  0  2  0  0  0  0  0  0
  186.3730  177.9330  139.5240 O   0  0  0  0  0  0  0  0  0  0  0  0
  189.0310  179.1680  139.0270 O   0  0  0  0  0  0  0  0  0  0  0  0
  188.6510  178.4420  139.9850 C   0  0  0  0  0  0  0  0  0  0  0  0
  189.6070  177.6200  140.6810 N   0  0  0  0  0  0  0  0  0  0  0  0
  190.1840  178.5800  142.8950 C   0  0  0  0  0  2  0  0  0  0  0  0
  190.3410  178.2460  144.3510 C   0  0  0  0  0  3  0  0  0  0  0  0
  189.8710  176.0150  142.5860 C   0  0  0  0  0  2  0  0  0  0  0  0
  190.9930  175.9950  143.6290 C   0  0  0  0  0  2  0  0  0  0  0  0
  190.7280  177.0150  144.7020 C   0  0  0  0  0  3  0  0  0  0  0  0
  189.4760  177.4420  142.1370 C   0  0  2  0  0  3  0  0  0  0  0  0
  191.9820  177.4850  140.3990 C   0  0  0  0  0  2  0  0  0  0  0  0
  190.7720  177.1280  139.9850 C   0  0  0  0  0  0  0  0  0  0  0  0
  190.1040  176.2320  135.9610 O   0  0  0  0  0  0  0  0  0  0  0  0
  193.0410  176.4960  138.1120 C   0  0  0  0  0  2  0  0  0  0  0  0
  193.9800  175.6450  137.2690 C   0  0  0  0  0  2  0  0  0  0  0  0
  190.6210  176.3130  138.7580 C   0  0  0  0  0  0  0  0  0  0  0  0
  191.2910  176.0570  136.3560 C   0  0  0  0  0  0  0  0  0  0  0  0
  189.5810  175.6120  138.6240 O   0  0  0  0  0  0  0  0  0  0  0  0
  192.3090  175.5500  135.3790 C   0  0  0  0  0  2  0  0  0  0  0  0
  193.7270  175.9420  135.7950 C   0  0  2  0  0  3  0  0  0  0  0  0
  191.6400  176.2760  137.7390 N   0  0  0  0  0  0  0  0  0  0  0  0
  194.7410  175.3340  134.9250 N   0  0  0  0  0  2  0  0  0  0  0  0
  196.3500  176.9710  135.2940 F   0  0  0  0  0  0  0  0  0  0  0  0
  196.0880  175.6200  135.4110 C   0  0  0  0  0  2  0  0  0  0  0  0
  185.6980  179.4190  144.2320 O   0  0  0  0  0  0  0  0  0  0  0  0
  187.3830  177.3540  147.4770 C   0  0  0  0  0  3  0  0  0  0  0  0
  186.2650  178.7550  145.3260 C   0  0  0  0  0  0  0  0  0  0  0  0
  186.9970  177.5860  145.1010 C   0  0  0  0  0  3  0  0  0  0  0  0
  186.6640  178.5290  147.7100 C   0  0  0  0  0  3  0  0  0  0  0  0
  187.5520  176.8860  146.1730 C   0  0  0  0  0  3  0  0  0  0  0  0
  186.1070  179.2290  146.6380 C   0  0  0  0  0  3  0  0  0  0  0  0
  1 22  1  6  0  0  0
  1  2  1  0  0  0  0
  1 49  1  0  0  0  0
  2  4  2  0  0  0  0
  3  2  1  0  0  0  0
  5 12  1  6  0  0  0
  5 11  1  0  0  0  0
  6  3  1  1  0  0  0
  9  8  1  6  0  0  0
  9  6  1  0  0  0  0
 10  9  1  0  0  0  0
 10 13  1  1  0  0  0
 11  7  1  6  0  0  0
 11 10  1  0  0  0  0
 11 14  1  0  0  0  0
 14  6  1  0  0  0  0
 15  5  1  0  0  0  0
 15  8  1  1  0  0  0
 16 15  1  0  0  0  0
 16  5  1  0  0  0  0
 17 16  1  0  0  0  0
 18 19  1  0  0  0  0
 18 17  1  0  0  0  0
 21 20  1  0  0  0  0
 21 19  1  0  0  0  0
 23 24  1  0  0  0  0
 24 22  1  0  0  0  0
 25 23  2  0  0  0  0
 26 27  2  0  0  0  0
 27 23  1  0  0  0  0
 27 28  1  0  0  0  0
 29 30  1  0  0  0  0
 30 33  2  0  0  0  0
 31 32  1  0  0  0  0
 32 33  1  0  0  0  0
 34 28  1  6  0  0  0
 34 31  1  0  0  0  0
 34 29  1  0  0  0  0
 36 35  2  0  0  0  0
 36 28  1  0  0  0  0
 37 41  2  0  0  0  0
 39 38  1  0  0  0  0
 40 36  1  0  0  0  0
 41 45  1  0  0  0  0
 42 40  2  0  0  0  0
 43 44  1  0  0  0  0
 43 41  1  0  0  0  0
 44 46  1  6  0  0  0
 44 39  1  0  0  0  0
 45 38  1  0  0  0  0
 45 40  1  0  0  0  0
 46 48  1  0  0  0  0
 47 48  1  0  0  0  0
 49 51  1  0  0  0  0
 50 53  1  0  0  0  0
 51 55  1  0  0  0  0
 52 51  2  0  0  0  0
 52 54  1  0  0  0  0
 54 50  2  0  0  0  0
 55 53  2  0  0  0  0
M  END
>  <MODEL>
5

>  <REMARK>
 VINA RESULT:      -7.3      2.507     10.945
  Name = 
  16 active torsions:
  status: ('A' for Active; 'I' for Inactive)
    1  A    between atoms: C_3  and  C_25
    2  A    between atoms: C_3  and  C_38
    3  A    between atoms: C_4  and  N_37
    4  A    between atoms: C_4  and  C_54
    5  A    between atoms: C_6  and  N_22
    6  A    between atoms: C_8  and  C_54
    7  A    between atoms: N_10  and  C_47
    8  A    between atoms: N_10  and  C_48
    9  A    between atoms: C_19  and  C_35
   10  A    between atoms: C_26  and  N_45
   11  A    between atoms: C_27  and  O_51
   12  A    between atoms: C_29  and  C_38
   13  A    between atoms: C_29  and  N_53
   14  A    between atoms: C_33  and  C_49
   15  A    between atoms: N_45  and  C_49
   16  A    between atoms: O_51  and  C_54
                            x       y       z     vdW  Elec       q    Type
                         _______ _______ _______ _____ _____    ______ ____

>  <TORSDO>
F 16

$$$$
=
 OpenBabel10262420303D

 55 60  0  0  1  0  0  0  0  0999 V2000
  186.0690  177.9160  142.4940 C   0  0  1  0  0  3  0  0  0  0  0  0
  185.2690  179.1390  142.1460 C   0  0  0  0  0  0  0  0  0  0  0  0
  183.9900  179.0780  141.4960 N   0  0  0  0  0  2  0  0  0  0  0  0
  185.7060  180.2610  142.5200 O   0  0  0  0  0  0  0  0  0  0  0  0
  181.6460  176.3270  139.1350 C   0  0  2  0  0  0  0  0  0  0  0  0
  183.4770  177.9190  140.7800 C   0  0  2  0  0  3  0  0  0  0  0  0
  180.2920  178.2830  139.5090 F   0  0  0  0  0  0  0  0  0  0  0  0
  184.0580  176.7840  138.6990 O   0  0  0  0  0  0  0  0  0  0  0  0
  183.7960  178.0550  139.2910 C   0  0  1  0  0  3  0  0  0  0  0  0
  182.5250  178.6060  138.7290 C   0  0  1  0  0  3  0  0  0  0  0  0
  181.5860  177.7980  139.5830 C   0  0  2  0  0  0  0  0  0  0  0  0
  180.8180  175.3980  139.7730 O   0  0  0  0  0  1  0  0  0  0  0  0
  182.4160  179.9690  139.0230 O   0  0  0  0  0  1  0  0  0  0  0  0
  182.0710  177.8770  140.9030 O   0  0  0  0  0  0  0  0  0  0  0  0
  183.0040  175.8190  138.8380 C   0  0  2  0  0  3  0  0  0  0  0  0
  182.0270  176.0160  137.7370 N   0  0  0  0  0  0  0  0  0  0  0  0
  181.5910  174.6840  137.3440 C   0  0  0  0  0  2  0  0  0  0  0  0
  181.7990  174.5040  135.8540 C   0  0  0  0  0  2  0  0  0  0  0  0
  182.7990  173.3940  135.6170 C   0  0  0  0  0  2  0  0  0  0  0  0
  183.2060  171.0900  136.4220 C   0  0  0  0  0  1  0  0  0  0  0  0
  182.8590  172.5030  136.8410 C   0  0  0  0  0  2  0  0  0  0  0  0
  187.5480  178.1750  142.2400 C   0  0  0  0  0  2  0  0  0  0  0  0
  188.7120  177.7090  140.0480 C   0  0  0  0  0  0  0  0  0  0  0  0
  188.0350  177.2610  141.2200 N   0  0  0  0  0  2  0  0  0  0  0  0
  188.7140  178.9350  139.7430 O   0  0  0  0  0  0  0  0  0  0  0  0
  190.4960  176.2110  139.7220 O   0  0  0  0  0  0  0  0  0  0  0  0
  189.4580  176.7330  139.2350 C   0  0  0  0  0  0  0  0  0  0  0  0
  189.0590  176.4070  137.8900 N   0  0  0  0  0  0  0  0  0  0  0  0
  187.3330  174.9300  136.8910 C   0  0  0  0  0  2  0  0  0  0  0  0
  185.9600  174.9210  136.2810 C   0  0  0  0  0  3  0  0  0  0  0  0
  187.0770  177.5200  136.8370 C   0  0  0  0  0  2  0  0  0  0  0  0
  186.4410  177.1880  135.4830 C   0  0  0  0  0  2  0  0  0  0  0  0
  185.5350  175.9950  135.6080 C   0  0  0  0  0  3  0  0  0  0  0  0
  187.6250  176.2770  137.5780 C   0  0  2  0  0  3  0  0  0  0  0  0
  190.2100  176.7800  135.8220 C   0  0  0  0  0  2  0  0  0  0  0  0
  190.0570  176.0390  136.9140 C   0  0  0  0  0  0  0  0  0  0  0  0
  192.4780  172.7970  135.8830 O   0  0  0  0  0  0  0  0  0  0  0  0
  192.9870  175.9790  137.5970 C   0  0  0  0  0  2  0  0  0  0  0  0
  194.2530  175.5980  138.3500 C   0  0  0  0  0  2  0  0  0  0  0  0
  190.8370  174.7910  137.0760 C   0  0  0  0  0  0  0  0  0  0  0  0
  193.0250  173.6540  136.6320 C   0  0  0  0  0  0  0  0  0  0  0  0
  190.2120  173.7050  137.2200 O   0  0  0  0  0  0  0  0  0  0  0  0
  194.4410  173.4270  137.0740 C   0  0  0  0  0  2  0  0  0  0  0  0
  195.1290  174.7410  137.4420 C   0  0  2  0  0  3  0  0  0  0  0  0
  192.2780  174.7930  137.1080 N   0  0  0  0  0  0  0  0  0  0  0  0
  196.4640  174.5200  138.0080 N   0  0  0  0  0  2  0  0  0  0  0  0
  198.7280  174.6280  137.4910 F   0  0  0  0  0  0  0  0  0  0  0  0
  197.4720  174.4230  136.9560 C   0  0  0  0  0  2  0  0  0  0  0  0
  185.8500  177.5090  143.8420 O   0  0  0  0  0  0  0  0  0  0  0  0
  188.7990  177.7370  146.8230 C   0  0  0  0  0  3  0  0  0  0  0  0
  186.8220  177.6100  144.8440 C   0  0  0  0  0  0  0  0  0  0  0  0
  188.1060  177.1150  144.5910 C   0  0  0  0  0  3  0  0  0  0  0  0
  187.5240  178.2450  147.0790 C   0  0  0  0  0  3  0  0  0  0  0  0
  189.0900  177.1760  145.5780 C   0  0  0  0  0  3  0  0  0  0  0  0
  186.5380  178.1840  146.0920 C   0  0  0  0  0  3  0  0  0  0  0  0
  1 22  1  1  0  0  0
  1 49  1  0  0  0  0
  2  1  1  0  0  0  0
  2  4  2  0  0  0  0
  3  2  1  0  0  0  0
  5 11  1  0  0  0  0
  5 12  1  1  0  0  0
  6 14  1  0  0  0  0
  6  3  1  1  0  0  0
  9  8  1  6  0  0  0
  9  6  1  0  0  0  0
 10 13  1  1  0  0  0
 10  9  1  0  0  0  0
 10 11  1  0  0  0  0
 11  7  1  6  0  0  0
 11 14  1  0  0  0  0
 15  8  1  6  0  0  0
 15  5  1  0  0  0  0
 16 15  1  0  0  0  0
 16  5  1  0  0  0  0
 17 16  1  0  0  0  0
 18 17  1  0  0  0  0
 19 18  1  0  0  0  0
 19 21  1  0  0  0  0
 20 21  1  0  0  0  0
 23 24  1  0  0  0  0
 24 22  1  0  0  0  0
 25 23  2  0  0  0  0
 27 26  2  0  0  0  0
 27 23  1  0  0  0  0
 28 27  1  0  0  0  0
 29 34  1  0  0  0  0
 30 29  1  0  0  0  0
 31 34  1  0  0  0  0
 32 33  1  0  0  0  0
 32 31  1  0  0  0  0
 33 30  2  0  0  0  0
 34 28  1  6  0  0  0
 35 36  2  0  0  0  0
 36 40  1  0  0  0  0
 36 28  1  0  0  0  0
 37 41  2  0  0  0  0
 38 39  1  0  0  0  0
 40 45  1  0  0  0  0
 40 42  2  0  0  0  0
 41 43  1  0  0  0  0
 41 45  1  0  0  0  0
 43 44  1  0  0  0  0
 44 46  1  1  0  0  0
 44 39  1  0  0  0  0
 45 38  1  0  0  0  0
 48 47  1  0  0  0  0
 48 46  1  0  0  0  0
 49 51  1  0  0  0  0
 50 53  1  0  0  0  0
 51 55  1  0  0  0  0
 52 51  2  0  0  0  0
 52 54  1  0  0  0  0
 54 50  2  0  0  0  0
 55 53  2  0  0  0  0
M  END
>  <MODEL>
6

>  <REMARK>
 VINA RESULT:      -7.1      2.631     10.306
  Name = 
  16 active torsions:
  status: ('A' for Active; 'I' for Inactive)
    1  A    between atoms: C_3  and  C_25
    2  A    between atoms: C_3  and  C_38
    3  A    between atoms: C_4  and  N_37
    4  A    between atoms: C_4  and  C_54
    5  A    between atoms: C_6  and  N_22
    6  A    between atoms: C_8  and  C_54
    7  A    between atoms: N_10  and  C_47
    8  A    between atoms: N_10  and  C_48
    9  A    between atoms: C_19  and  C_35
   10  A    between atoms: C_26  and  N_45
   11  A    between atoms: C_27  and  O_51
   12  A    between atoms: C_29  and  C_38
   13  A    between atoms: C_29  and  N_53
   14  A    between atoms: C_33  and  C_49
   15  A    between atoms: N_45  and  C_49
   16  A    between atoms: O_51  and  C_54
                            x       y       z     vdW  Elec       q    Type
                         _______ _______ _______ _____ _____    ______ ____

>  <TORSDO>
F 16

$$$$
=
 OpenBabel10262420303D

 55 60  0  0  1  0  0  0  0  0999 V2000
  188.6330  177.5070  143.9200 C   0  0  1  0  0  3  0  0  0  0  0  0
  187.5510  177.9150  144.8780 C   0  0  0  0  0  0  0  0  0  0  0  0
  186.1690  178.0120  144.5020 N   0  0  0  0  0  2  0  0  0  0  0  0
  187.8650  178.0950  146.0860 O   0  0  0  0  0  0  0  0  0  0  0  0
  183.7710  178.4150  140.9360 C   0  0  2  0  0  0  0  0  0  0  0  0
  185.6860  178.0930  143.1320 C   0  0  2  0  0  3  0  0  0  0  0  0
  182.2570  178.2790  142.8040 F   0  0  0  0  0  0  0  0  0  0  0  0
  185.8340  179.7530  141.3480 O   0  0  0  0  0  0  0  0  0  0  0  0
  185.5330  179.5600  142.7290 C   0  0  1  0  0  3  0  0  0  0  0  0
  184.0780  179.8160  142.9550 C   0  0  1  0  0  3  0  0  0  0  0  0
  183.5820  178.4840  142.4620 C   0  0  2  0  0  0  0  0  0  0  0  0
  183.3390  177.2710  140.2580 O   0  0  0  0  0  1  0  0  0  0  0  0
  183.8180  179.9680  144.3210 O   0  0  0  0  0  1  0  0  0  0  0  0
  184.4050  177.5030  143.0510 O   0  0  0  0  0  0  0  0  0  0  0  0
  185.0530  178.9630  140.4390 C   0  0  2  0  0  3  0  0  0  0  0  0
  183.7820  179.6760  140.1560 N   0  0  0  0  0  0  0  0  0  0  0  0
  183.4930  179.4410  138.7490 C   0  0  0  0  0  2  0  0  0  0  0  0
  182.1670  180.0790  138.3920 C   0  0  0  0  0  2  0  0  0  0  0  0
  181.3490  179.1110  137.5660 C   0  0  0  0  0  2  0  0  0  0  0  0
  181.7630  176.7030  137.1780 C   0  0  0  0  0  1  0  0  0  0  0  0
  182.2720  178.1030  136.9130 C   0  0  0  0  0  2  0  0  0  0  0  0
  188.4120  178.1800  142.5710 C   0  0  0  0  0  2  0  0  0  0  0  0
  189.0270  177.6350  140.1830 C   0  0  0  0  0  0  0  0  0  0  0  0
  188.6730  177.2290  141.5030 N   0  0  0  0  0  2  0  0  0  0  0  0
  188.9060  178.8430  139.8340 O   0  0  0  0  0  0  0  0  0  0  0  0
  190.6180  175.9990  139.6100 O   0  0  0  0  0  0  0  0  0  0  0  0
  189.5920  176.6400  139.2550 C   0  0  0  0  0  0  0  0  0  0  0  0
  189.0340  176.4260  137.9450 N   0  0  0  0  0  0  0  0  0  0  0  0
  187.0770  175.1460  137.1130 C   0  0  0  0  0  2  0  0  0  0  0  0
  185.6570  175.2840  136.6420 C   0  0  0  0  0  3  0  0  0  0  0  0
  187.0810  177.7490  137.1010 C   0  0  0  0  0  2  0  0  0  0  0  0
  186.2850  177.5050  135.8150 C   0  0  0  0  0  2  0  0  0  0  0  0
  185.2800  176.4060  136.0220 C   0  0  0  0  0  3  0  0  0  0  0  0
  187.5710  176.4450  137.7750 C   0  0  2  0  0  3  0  0  0  0  0  0
  189.9500  176.7650  135.7570 C   0  0  0  0  0  2  0  0  0  0  0  0
  189.8910  176.0210  136.8560 C   0  0  0  0  0  0  0  0  0  0  0  0
  191.9800  172.6580  135.5280 O   0  0  0  0  0  0  0  0  0  0  0  0
  192.8830  175.8180  137.1150 C   0  0  0  0  0  2  0  0  0  0  0  0
  194.2230  175.3770  137.6850 C   0  0  0  0  0  2  0  0  0  0  0  0
  190.6250  174.7370  136.9200 C   0  0  0  0  0  0  0  0  0  0  0  0
  192.6690  173.4900  136.1820 C   0  0  0  0  0  0  0  0  0  0  0  0
  189.9750  173.6840  137.1640 O   0  0  0  0  0  0  0  0  0  0  0  0
  194.1210  173.1940  136.4200 C   0  0  0  0  0  2  0  0  0  0  0  0
  194.9180  174.4740  136.6710 C   0  0  2  0  0  3  0  0  0  0  0  0
  192.0540  174.6670  136.7460 N   0  0  0  0  0  0  0  0  0  0  0  0
  196.3080  174.1890  137.0440 N   0  0  0  0  0  2  0  0  0  0  0  0
  196.8570  172.1290  137.9700 F   0  0  0  0  0  0  0  0  0  0  0  0
  196.3710  173.3870  138.2630 C   0  0  0  0  0  2  0  0  0  0  0  0
  189.9300  177.8080  144.4280 O   0  0  0  0  0  0  0  0  0  0  0  0
  192.4310  174.8730  146.0910 C   0  0  0  0  0  3  0  0  0  0  0  0
  190.7740  176.8490  145.0000 C   0  0  0  0  0  0  0  0  0  0  0  0
  191.3070  175.8470  144.1830 C   0  0  0  0  0  3  0  0  0  0  0  0
  191.9130  175.8780  146.9110 C   0  0  0  0  0  3  0  0  0  0  0  0
  192.1300  174.8600  144.7270 C   0  0  0  0  0  3  0  0  0  0  0  0
  191.0880  176.8650  146.3670 C   0  0  0  0  0  3  0  0  0  0  0  0
  1 22  1  6  0  0  0
  1 49  1  0  0  0  0
  1  2  1  0  0  0  0
  2  4  2  0  0  0  0
  3  2  1  0  0  0  0
  5 12  1  6  0  0  0
  5 11  1  0  0  0  0
  6  3  1  1  0  0  0
  9  8  1  6  0  0  0
  9 10  1  0  0  0  0
  9  6  1  0  0  0  0
 10 13  1  1  0  0  0
 11  7  1  1  0  0  0
 11 10  1  0  0  0  0
 11 14  1  0  0  0  0
 14  6  1  0  0  0  0
 15  5  1  0  0  0  0
 15  8  1  1  0  0  0
 16 15  1  0  0  0  0
 16  5  1  0  0  0  0
 17 16  1  0  0  0  0
 18 17  1  0  0  0  0
 19 18  1  0  0  0  0
 21 20  1  0  0  0  0
 21 19  1  0  0  0  0
 23 24  1  0  0  0  0
 24 22  1  0  0  0  0
 25 23  2  0  0  0  0
 27 26  2  0  0  0  0
 27 23  1  0  0  0  0
 28 27  1  0  0  0  0
 29 34  1  0  0  0  0
 30 29  1  0  0  0  0
 31 34  1  0  0  0  0
 32 33  1  0  0  0  0
 32 31  1  0  0  0  0
 33 30  2  0  0  0  0
 34 28  1  6  0  0  0
 35 36  2  0  0  0  0
 36 40  1  0  0  0  0
 36 28  1  0  0  0  0
 37 41  2  0  0  0  0
 38 39  1  0  0  0  0
 40 42  2  0  0  0  0
 41 43  1  0  0  0  0
 41 45  1  0  0  0  0
 43 44  1  0  0  0  0
 44 46  1  1  0  0  0
 44 39  1  0  0  0  0
 45 40  1  0  0  0  0
 45 38  1  0  0  0  0
 46 48  1  0  0  0  0
 47 48  1  0  0  0  0
 49 51  1  0  0  0  0
 50 53  1  0  0  0  0
 51 55  1  0  0  0  0
 52 54  1  0  0  0  0
 52 51  2  0  0  0  0
 54 50  2  0  0  0  0
 55 53  2  0  0  0  0
M  END
>  <MODEL>
7

>  <REMARK>
 VINA RESULT:      -7.0      2.574     10.370
  Name = 
  16 active torsions:
  status: ('A' for Active; 'I' for Inactive)
    1  A    between atoms: C_3  and  C_25
    2  A    between atoms: C_3  and  C_38
    3  A    between atoms: C_4  and  N_37
    4  A    between atoms: C_4  and  C_54
    5  A    between atoms: C_6  and  N_22
    6  A    between atoms: C_8  and  C_54
    7  A    between atoms: N_10  and  C_47
    8  A    between atoms: N_10  and  C_48
    9  A    between atoms: C_19  and  C_35
   10  A    between atoms: C_26  and  N_45
   11  A    between atoms: C_27  and  O_51
   12  A    between atoms: C_29  and  C_38
   13  A    between atoms: C_29  and  N_53
   14  A    between atoms: C_33  and  C_49
   15  A    between atoms: N_45  and  C_49
   16  A    between atoms: O_51  and  C_54
                            x       y       z     vdW  Elec       q    Type
                         _______ _______ _______ _____ _____    ______ ____

>  <TORSDO>
F 16

$$$$
=
 OpenBabel10262420303D

 55 60  0  0  1  0  0  0  0  0999 V2000
  184.3840  178.7480  143.4910 C   0  0  1  0  0  3  0  0  0  0  0  0
  183.0660  178.8990  144.1950 C   0  0  0  0  0  0  0  0  0  0  0  0
  181.8070  178.8960  143.5060 N   0  0  0  0  0  2  0  0  0  0  0  0
  183.0670  178.9440  145.4540 O   0  0  0  0  0  0  0  0  0  0  0  0
  180.6210  178.7000  139.3590 C   0  0  2  0  0  0  0  0  0  0  0  0
  181.6430  179.1140  142.0750 C   0  0  2  0  0  3  0  0  0  0  0  0
  179.7270  176.7500  140.4520 F   0  0  0  0  0  0  0  0  0  0  0  0
  180.5260  180.7960  140.7050 O   0  0  0  0  0  0  0  0  0  0  0  0
  180.3720  179.9250  141.8230 C   0  0  1  0  0  3  0  0  0  0  0  0
  179.3660  178.8700  141.4880 C   0  0  1  0  0  3  0  0  0  0  0  0
  180.2880  177.9920  140.6850 C   0  0  2  0  0  0  0  0  0  0  0  0
  181.4380  178.0420  138.4350 O   0  0  0  0  0  1  0  0  0  0  0  0
  178.9450  178.2150  142.6500 O   0  0  0  0  0  1  0  0  0  0  0  0
  181.4780  177.8680  141.4290 O   0  0  0  0  0  0  0  0  0  0  0  0
  180.8880  180.1510  139.4750 C   0  0  2  0  0  3  0  0  0  0  0  0
  179.6530  179.6750  138.8030 N   0  0  0  0  0  0  0  0  0  0  0  0
  179.8630  179.8880  137.3780 C   0  0  0  0  0  2  0  0  0  0  0  0
  179.4380  181.2950  137.0100 C   0  0  0  0  0  2  0  0  0  0  0  0
  180.5820  182.0000  136.3160 C   0  0  0  0  0  2  0  0  0  0  0  0
  180.5770  184.4730  136.2320 C   0  0  0  0  0  1  0  0  0  0  0  0
  180.9260  183.2650  137.0750 C   0  0  0  0  0  2  0  0  0  0  0  0
  184.3110  179.3830  142.1090 C   0  0  0  0  0  2  0  0  0  0  0  0
  185.2200  178.9450  139.7940 C   0  0  0  0  0  0  0  0  0  0  0  0
  185.0330  178.5590  141.1540 N   0  0  0  0  0  2  0  0  0  0  0  0
  184.5680  179.9130  139.3110 O   0  0  0  0  0  0  0  0  0  0  0  0
  187.3860  178.0940  139.4510 O   0  0  0  0  0  0  0  0  0  0  0  0
  186.2250  178.2390  138.9810 C   0  0  0  0  0  0  0  0  0  0  0  0
  185.9280  177.7640  137.6550 N   0  0  0  0  0  0  0  0  0  0  0  0
  184.5110  175.7530  137.9770 C   0  0  0  0  0  2  0  0  0  0  0  0
  183.3140  175.0210  137.4380 C   0  0  0  0  0  3  0  0  0  0  0  0
  184.2150  177.2820  135.8920 C   0  0  0  0  0  2  0  0  0  0  0  0
  183.9140  175.9280  135.2400 C   0  0  0  0  0  2  0  0  0  0  0  0
  183.0310  175.1020  136.1340 C   0  0  0  0  0  3  0  0  0  0  0  0
  184.6070  177.1700  137.3840 C   0  0  2  0  0  3  0  0  0  0  0  0
  187.1560  178.7440  135.8460 C   0  0  0  0  0  2  0  0  0  0  0  0
  186.9720  177.7100  136.6600 C   0  0  0  0  0  0  0  0  0  0  0  0
  189.6120  175.0030  134.8880 O   0  0  0  0  0  0  0  0  0  0  0  0
  189.7970  177.3860  137.6470 C   0  0  0  0  0  2  0  0  0  0  0  0
  190.9730  176.7530  138.3760 C   0  0  0  0  0  2  0  0  0  0  0  0
  187.7690  176.4760  136.4780 C   0  0  0  0  0  0  0  0  0  0  0  0
  190.0330  175.5400  135.9510 C   0  0  0  0  0  0  0  0  0  0  0  0
  187.1690  175.4140  136.1570 O   0  0  0  0  0  0  0  0  0  0  0  0
  191.3910  175.1590  136.4630 C   0  0  0  0  0  2  0  0  0  0  0  0
  191.9830  176.2560  137.3470 C   0  0  2  0  0  3  0  0  0  0  0  0
  189.1940  176.4510  136.6920 N   0  0  0  0  0  0  0  0  0  0  0  0
  193.2450  175.8380  137.9670 N   0  0  0  0  0  2  0  0  0  0  0  0
  194.3140  176.6740  136.0790 F   0  0  0  0  0  0  0  0  0  0  0  0
  194.2760  175.6090  136.9580 C   0  0  0  0  0  2  0  0  0  0  0  0
  185.4540  179.3060  144.2490 O   0  0  0  0  0  0  0  0  0  0  0  0
  188.5210  176.9510  145.8850 C   0  0  0  0  0  3  0  0  0  0  0  0
  186.4790  178.5400  144.8140 C   0  0  0  0  0  0  0  0  0  0  0  0
  187.3550  177.8540  143.9680 C   0  0  0  0  0  3  0  0  0  0  0  0
  187.6580  177.6440  146.7370 C   0  0  0  0  0  3  0  0  0  0  0  0
  188.3710  177.0600  144.5010 C   0  0  0  0  0  3  0  0  0  0  0  0
  186.6410  178.4380  146.2050 C   0  0  0  0  0  3  0  0  0  0  0  0
  1 22  1  6  0  0  0
  1  2  1  0  0  0  0
  1 49  1  0  0  0  0
  2  4  2  0  0  0  0
  3  2  1  0  0  0  0
  5 12  1  6  0  0  0
  5 15  1  0  0  0  0
  5 11  1  0  0  0  0
  6  3  1  1  0  0  0
  9  8  1  6  0  0  0
  9  6  1  0  0  0  0
 10  9  1  0  0  0  0
 10 13  1  1  0  0  0
 11  7  1  6  0  0  0
 11 14  1  0  0  0  0
 11 10  1  0  0  0  0
 14  6  1  0  0  0  0
 15  8  1  1  0  0  0
 16  5  1  0  0  0  0
 16 15  1  0  0  0  0
 17 16  1  0  0  0  0
 18 17  1  0  0  0  0
 19 18  1  0  0  0  0
 19 21  1  0  0  0  0
 20 21  1  0  0  0  0
 23 24  1  0  0  0  0
 24 22  1  0  0  0  0
 25 23  2  0  0  0  0
 27 26  2  0  0  0  0
 27 23  1  0  0  0  0
 28 27  1  0  0  0  0
 30 29  1  0  0  0  0
 31 34  1  0  0  0  0
 32 31  1  0  0  0  0
 32 33  1  0  0  0  0
 33 30  2  0  0  0  0
 34 28  1  6  0  0  0
 34 29  1  0  0  0  0
 35 36  2  0  0  0  0
 36 28  1  0  0  0  0
 37 41  2  0  0  0  0
 38 39  1  0  0  0  0
 40 36  1  0  0  0  0
 40 45  1  0  0  0  0
 41 43  1  0  0  0  0
 41 45  1  0  0  0  0
 42 40  2  0  0  0  0
 43 44  1  0  0  0  0
 44 46  1  1  0  0  0
 44 39  1  0  0  0  0
 45 38  1  0  0  0  0
 47 48  1  0  0  0  0
 48 46  1  0  0  0  0
 49 51  1  0  0  0  0
 50 53  1  0  0  0  0
 51 55  1  0  0  0  0
 52 54  1  0  0  0  0
 52 51  2  0  0  0  0
 54 50  2  0  0  0  0
 55 53  2  0  0  0  0
M  END
>  <MODEL>
8

>  <REMARK>
 VINA RESULT:      -6.9      2.859     10.848
  Name = 
  16 active torsions:
  status: ('A' for Active; 'I' for Inactive)
    1  A    between atoms: C_3  and  C_25
    2  A    between atoms: C_3  and  C_38
    3  A    between atoms: C_4  and  N_37
    4  A    between atoms: C_4  and  C_54
    5  A    between atoms: C_6  and  N_22
    6  A    between atoms: C_8  and  C_54
    7  A    between atoms: N_10  and  C_47
    8  A    between atoms: N_10  and  C_48
    9  A    between atoms: C_19  and  C_35
   10  A    between atoms: C_26  and  N_45
   11  A    between atoms: C_27  and  O_51
   12  A    between atoms: C_29  and  C_38
   13  A    between atoms: C_29  and  N_53
   14  A    between atoms: C_33  and  C_49
   15  A    between atoms: N_45  and  C_49
   16  A    between atoms: O_51  and  C_54
                            x       y       z     vdW  Elec       q    Type
                         _______ _______ _______ _____ _____    ______ ____

>  <TORSDO>
F 16

$$$$
=
 OpenBabel10262420303D

 55 60  0  0  1  0  0  0  0  0999 V2000
  190.1690  177.2720  138.6600 C   0  0  1  0  0  3  0  0  0  0  0  0
  190.1330  176.5160  137.3620 C   0  0  0  0  0  0  0  0  0  0  0  0
  190.9970  175.4060  137.0790 N   0  0  0  0  0  2  0  0  0  0  0  0
  189.2430  176.8220  136.5230 O   0  0  0  0  0  0  0  0  0  0  0  0
  194.9150  174.0460  138.2790 C   0  0  2  0  0  0  0  0  0  0  0  0
  192.2200  175.1000  137.8070 C   0  0  2  0  0  3  0  0  0  0  0  0
  194.4560  173.0880  136.1180 F   0  0  0  0  0  0  0  0  0  0  0  0
  194.1400  176.3980  138.5730 O   0  0  0  0  0  0  0  0  0  0  0  0
  193.2960  176.1280  137.4550 C   0  0  1  0  0  3  0  0  0  0  0  0
  194.0890  175.4300  136.3980 C   0  0  1  0  0  3  0  0  0  0  0  0
  194.0390  174.0580  137.0130 C   0  0  2  0  0  0  0  0  0  0  0  0
  195.0450  172.8520  138.9930 O   0  0  0  0  0  1  0  0  0  0  0  0
  193.4010  175.4530  135.1800 O   0  0  0  0  0  1  0  0  0  0  0  0
  192.7030  173.8360  137.4000 O   0  0  0  0  0  0  0  0  0  0  0  0
  194.7940  175.2490  139.1320 C   0  0  2  0  0  3  0  0  0  0  0  0
  196.0480  174.9970  138.3770 N   0  0  0  0  0  0  0  0  0  0  0  0
  197.0300  174.5640  139.3600 C   0  0  0  0  0  2  0  0  0  0  0  0
  198.3950  174.4870  138.7100 C   0  0  0  0  0  2  0  0  0  0  0  0
  198.2370  174.4930  137.2050 C   0  0  0  0  0  2  0  0  0  0  0  0
  197.7030  172.2870  136.2210 C   0  0  0  0  0  1  0  0  0  0  0  0
  198.8230  173.2190  136.6330 C   0  0  0  0  0  2  0  0  0  0  0  0
  189.1770  178.4260  138.6170 C   0  0  0  0  0  2  0  0  0  0  0  0
  186.7330  178.2900  137.9950 C   0  0  0  0  0  0  0  0  0  0  0  0
  187.8300  177.9210  138.8270 N   0  0  0  0  0  2  0  0  0  0  0  0
  186.8460  179.2500  137.1810 O   0  0  0  0  0  0  0  0  0  0  0  0
  185.4560  176.3860  137.4680 O   0  0  0  0  0  0  0  0  0  0  0  0
  185.4910  177.5010  138.0560 C   0  0  0  0  0  0  0  0  0  0  0  0
  184.3130  177.9940  138.7200 N   0  0  0  0  0  0  0  0  0  0  0  0
  185.2030  177.8890  141.0340 C   0  0  0  0  0  2  0  0  0  0  0  0
  185.0730  178.4890  142.4050 C   0  0  0  0  0  3  0  0  0  0  0  0
  183.1150  179.3350  140.4650 C   0  0  0  0  0  2  0  0  0  0  0  0
  182.7120  178.8740  141.8700 C   0  0  0  0  0  2  0  0  0  0  0  0
  183.8860  178.9560  142.8050 C   0  0  0  0  0  3  0  0  0  0  0  0
  184.4580  178.7350  139.9850 C   0  0  2  0  0  3  0  0  0  0  0  0
  182.2910  178.4740  137.5270 C   0  0  0  0  0  2  0  0  0  0  0  0
  183.0050  177.6120  138.2420 C   0  0  0  0  0  0  0  0  0  0  0  0
  180.0910  174.7090  138.9570 O   0  0  0  0  0  0  0  0  0  0  0  0
  182.5040  175.3680  136.3000 C   0  0  0  0  0  2  0  0  0  0  0  0
  182.5570  173.9600  135.7270 C   0  0  0  0  0  2  0  0  0  0  0  0
  182.4200  176.3080  138.6280 C   0  0  0  0  0  0  0  0  0  0  0  0
  180.8390  174.4790  137.9670 C   0  0  0  0  0  0  0  0  0  0  0  0
  182.3890  175.9990  139.8500 O   0  0  0  0  0  0  0  0  0  0  0  0
  180.6240  173.2230  137.1750 C   0  0  0  0  0  2  0  0  0  0  0  0
  181.1530  173.3640  135.7480 C   0  0  2  0  0  3  0  0  0  0  0  0
  181.9230  175.3770  137.6460 N   0  0  0  0  0  0  0  0  0  0  0  0
  181.0760  172.1000  135.0080 N   0  0  0  0  0  2  0  0  0  0  0  0
  182.6310  170.7890  136.1340 F   0  0  0  0  0  0  0  0  0  0  0  0
  181.2820  170.9580  135.8960 C   0  0  0  0  0  2  0  0  0  0  0  0
  189.9070  176.4210  139.7730 O   0  0  0  0  0  0  0  0  0  0  0  0
  190.7720  177.4570  143.7490 C   0  0  0  0  0  3  0  0  0  0  0  0
  190.2220  176.7620  141.0930 C   0  0  0  0  0  0  0  0  0  0  0  0
  189.3360  176.4040  142.1130 C   0  0  0  0  0  3  0  0  0  0  0  0
  191.6700  177.8070  142.7390 C   0  0  0  0  0  3  0  0  0  0  0  0
  189.6080  176.7520  143.4360 C   0  0  0  0  0  3  0  0  0  0  0  0
  191.3980  177.4590  141.4140 C   0  0  0  0  0  3  0  0  0  0  0  0
  1 22  1  6  0  0  0
  1 49  1  0  0  0  0
  2  1  1  0  0  0  0
  3  2  1  0  0  0  0
  4  2  2  0  0  0  0
  5 16  1  0  0  0  0
  5 12  1  1  0  0  0
  5 15  1  0  0  0  0
  6  3  1  6  0  0  0
  9  6  1  0  0  0  0
  9  8  1  1  0  0  0
 10 13  1  6  0  0  0
 10 11  1  0  0  0  0
 10  9  1  0  0  0  0
 11  7  1  6  0  0  0
 11 14  1  0  0  0  0
 11  5  1  0  0  0  0
 14  6  1  0  0  0  0
 15  8  1  6  0  0  0
 16 15  1  0  0  0  0
 16 17  1  0  0  0  0
 18 17  1  0  0  0  0
 19 18  1  0  0  0  0
 20 21  1  0  0  0  0
 21 19  1  0  0  0  0
 22 24  1  0  0  0  0
 23 27  1  0  0  0  0
 23 24  1  0  0  0  0
 25 23  2  0  0  0  0
 26 27  2  0  0  0  0
 27 28  1  0  0  0  0
 29 30  1  0  0  0  0
 30 33  2  0  0  0  0
 31 32  1  0  0  0  0
 32 33  1  0  0  0  0
 34 28  1  6  0  0  0
 34 31  1  0  0  0  0
 34 29  1  0  0  0  0
 35 36  2  0  0  0  0
 36 40  1  0  0  0  0
 36 28  1  0  0  0  0
 38 45  1  0  0  0  0
 39 44  1  0  0  0  0
 39 38  1  0  0  0  0
 40 42  2  0  0  0  0
 41 37  2  0  0  0  0
 43 41  1  0  0  0  0
 44 46  1  1  0  0  0
 44 43  1  0  0  0  0
 45 41  1  0  0  0  0
 45 40  1  0  0  0  0
 46 48  1  0  0  0  0
 48 47  1  0  0  0  0
 49 51  1  0  0  0  0
 51 55  2  0  0  0  0
 51 52  1  0  0  0  0
 52 54  2  0  0  0  0
 53 50  2  0  0  0  0
 54 50  1  0  0  0  0
 55 53  1  0  0  0  0
M  END
>  <MODEL>
9

>  <REMARK>
 VINA RESULT:      -6.5      2.715      5.084
  Name = 
  16 active torsions:
  status: ('A' for Active; 'I' for Inactive)
    1  A    between atoms: C_3  and  C_25
    2  A    between atoms: C_3  and  C_38
    3  A    between atoms: C_4  and  N_37
    4  A    between atoms: C_4  and  C_54
    5  A    between atoms: C_6  and  N_22
    6  A    between atoms: C_8  and  C_54
    7  A    between atoms: N_10  and  C_47
    8  A    between atoms: N_10  and  C_48
    9  A    between atoms: C_19  and  C_35
   10  A    between atoms: C_26  and  N_45
   11  A    between atoms: C_27  and  O_51
   12  A    between atoms: C_29  and  C_38
   13  A    between atoms: C_29  and  N_53
   14  A    between atoms: C_33  and  C_49
   15  A    between atoms: N_45  and  C_49
   16  A    between atoms: O_51  and  C_54
                            x       y       z     vdW  Elec       q    Type
                         _______ _______ _______ _____ _____    ______ ____

>  <TORSDO>
F 16

$$$$
