=
 OpenBabel10262421503D

 30 35  0  0  1  0  0  0  0  0999 V2000
  184.4750  178.1620  139.1390 C   0  0  2  0  0  3  0  0  0  0  0  0
  180.7860  181.1510  138.6490 S   0  0  0  0  0  1  0  0  0  0  0  0
  183.1860  179.0650  139.1320 C   0  0  1  0  0  0  0  0  0  0  0  0
  185.4260  178.4000  140.3420 C   0  0  0  0  0  2  0  0  0  0  0  0
  182.9180  178.8910  143.0550 C   0  0  0  0  0  2  0  0  0  0  0  0
  180.2730  178.1660  139.3490 C   0  0  1  0  0  3  0  0  0  0  0  0
  183.3310  178.5110  141.6440 C   0  0  2  0  0  3  0  0  0  0  0  0
  185.2840  179.0550  142.7360 O   0  0  0  0  0  0  0  0  0  0  0  0
  180.8960  178.3810  137.9850 C   0  0  2  0  0  0  0  0  0  0  0  0
  181.2200  179.7900  137.5030 C   0  0  1  0  0  0  0  0  0  0  0  0
  184.6940  179.1320  141.4570 C   0  0  1  0  0  3  0  0  0  0  0  0
  182.3920  178.8330  140.4740 C   0  0  2  0  0  3  0  0  0  0  0  0
  180.3550  177.3910  137.0280 C   0  0  0  0  0  3  0  0  0  0  0  0
  179.2340  177.0720  139.0860 C   0  0  0  0  0  2  0  0  0  0  0  0
  184.4840  179.0540  144.9840 C   0  0  0  0  0  2  0  0  0  0  0  0
  184.2660  179.0060  143.6790 C   0  0  0  0  0  0  0  0  0  0  0  0
  183.6080  180.3990  139.1170 O   0  0  0  0  0  1  0  0  0  0  0  0
  181.0560  180.0650  136.0190 C   0  0  0  0  0  1  0  0  0  0  0  0
  182.3630  178.7990  137.8320 C   0  0  1  0  0  3  0  0  0  0  0  0
  179.4300  176.6690  137.6510 C   0  0  0  0  0  3  0  0  0  0  0  0
  181.9160  176.3620  140.0950 C   0  0  0  0  0  1  0  0  0  0  0  0
  181.3170  177.7440  140.3780 C   0  0  2  0  0  3  0  0  0  0  0  0
  184.6880  177.0810  136.7310 C   0  0  1  0  0  3  0  0  0  0  0  0
  185.3840  177.2900  135.5150 O   0  0  0  0  0  0  0  0  0  0  0  0
  184.6050  175.5960  137.0800 C   0  0  0  0  0  1  0  0  0  0  0  0
  187.6070  179.2010  136.1580 C   0  0  0  0  0  1  0  0  0  0  0  0
  186.7370  176.8960  135.6660 C   0  0  0  0  0  2  0  0  0  0  0  0
  185.2790  177.9670  137.8410 C   0  0  2  0  0  3  0  0  0  0  0  0
  187.4840  177.7780  136.6750 C   0  0  2  0  0  3  0  0  0  0  0  0
  186.7770  177.7490  138.0300 C   0  0  0  0  0  2  0  0  0  0  0  0
  1  4  1  1  0  0  0
  3 17  1  6  0  0  0
  3  1  1  0  0  0  0
  3 12  1  0  0  0  0
  5 16  1  0  0  0  0
  6 14  1  6  0  0  0
  6 22  1  0  0  0  0
  7  5  1  1  0  0  0
  8 16  1  0  0  0  0
  9 13  1  6  0  0  0
  9  6  1  0  0  0  0
 10 18  1  6  0  0  0
 10 19  1  0  0  0  0
 10  9  1  0  0  0  0
 10  2  1  0  0  0  0
 11  4  1  6  0  0  0
 11  7  1  0  0  0  0
 11  8  1  0  0  0  0
 12  7  1  0  0  0  0
 13 20  2  0  0  0  0
 16 15  2  0  0  0  0
 19  9  1  0  0  0  0
 19  3  1  0  0  0  0
 20 14  1  0  0  0  0
 21 22  1  0  0  0  0
 22 12  1  0  0  0  0
 23 25  1  0  0  0  0
 23 28  1  0  0  0  0
 24 27  1  0  0  0  0
 24 23  1  0  0  0  0
 26 29  1  0  0  0  0
 27 29  1  0  0  0  0
 28 30  1  0  0  0  0
 28  1  1  0  0  0  0
 29 30  1  0  0  0  0
M  END
>  <MODEL>
1

>  <REMARK>
 VINA RESULT:      -6.6      0.000      0.000
  Name = 
  1 active torsions:
  status: ('A' for Active; 'I' for Inactive)
    1  A    between atoms: C_1  and  C_22
                            x       y       z     vdW  Elec       q    Type
                         _______ _______ _______ _____ _____    ______ ____

>  <TORSDO>
F 1

$$$$
=
 OpenBabel10262421503D

 30 35  0  0  1  0  0  0  0  0999 V2000
  190.7550  176.6010  138.6950 C   0  0  2  0  0  3  0  0  0  0  0  0
  188.6010  173.3050  135.9960 S   0  0  0  0  0  1  0  0  0  0  0  0
  190.1090  175.6110  137.6550 C   0  0  1  0  0  0  0  0  0  0  0  0
  192.3060  176.6000  138.7120 C   0  0  0  0  0  2  0  0  0  0  0  0
  192.9880  176.2950  135.0600 C   0  0  0  0  0  2  0  0  0  0  0  0
  188.3810  176.3100  135.2330 C   0  0  1  0  0  3  0  0  0  0  0  0
  192.0760  176.5110  136.2550 C   0  0  2  0  0  3  0  0  0  0  0  0
  194.1930  176.2670  137.1270 O   0  0  0  0  0  0  0  0  0  0  0  0
  187.7240  175.9590  136.5520 C   0  0  2  0  0  0  0  0  0  0  0  0
  187.7580  174.5270  137.0690 C   0  0  1  0  0  0  0  0  0  0  0  0
  192.8480  175.9740  137.4360 C   0  0  1  0  0  3  0  0  0  0  0  0
  190.6430  175.9630  136.2140 C   0  0  2  0  0  3  0  0  0  0  0  0
  186.4970  176.7670  136.7280 C   0  0  0  0  0  3  0  0  0  0  0  0
  187.3800  177.2770  134.5940 C   0  0  0  0  0  2  0  0  0  0  0  0
  195.4680  176.5130  135.1260 C   0  0  0  0  0  2  0  0  0  0  0  0
  194.3080  176.3680  135.7480 C   0  0  0  0  0  0  0  0  0  0  0  0
  190.5560  174.3230  137.9680 O   0  0  0  0  0  1  0  0  0  0  0  0
  186.5410  174.0410  137.8350 C   0  0  0  0  0  1  0  0  0  0  0  0
  188.5540  175.6350  137.7990 C   0  0  1  0  0  3  0  0  0  0  0  0
  186.3140  177.4950  135.6320 C   0  0  0  0  0  3  0  0  0  0  0  0
  189.6810  178.3160  136.1240 C   0  0  0  0  0  1  0  0  0  0  0  0
  189.7520  176.9450  135.4450 C   0  0  2  0  0  3  0  0  0  0  0  0
  188.7490  177.1600  140.3310 C   0  0  1  0  0  3  0  0  0  0  0  0
  188.3080  176.8470  141.6400 O   0  0  0  0  0  0  0  0  0  0  0  0
  188.5190  178.6350  140.0010 C   0  0  0  0  0  1  0  0  0  0  0  0
  190.6710  175.6280  143.0330 C   0  0  0  0  0  1  0  0  0  0  0  0
  189.1010  177.5390  142.5890 C   0  0  0  0  0  2  0  0  0  0  0  0
  190.1950  176.6780  140.1270 C   0  0  2  0  0  3  0  0  0  0  0  0
  190.5620  177.0700  142.5690 C   0  0  2  0  0  3  0  0  0  0  0  0
  191.1540  177.2400  141.1710 C   0  0  0  0  0  2  0  0  0  0  0  0
  1  4  1  1  0  0  0
  1 28  1  0  0  0  0
  2 10  1  0  0  0  0
  3 19  1  0  0  0  0
  3 17  1  1  0  0  0
  3  1  1  0  0  0  0
  5 16  1  0  0  0  0
  6 14  1  1  0  0  0
  6 22  1  0  0  0  0
  6  9  1  0  0  0  0
  7  5  1  6  0  0  0
  7 11  1  0  0  0  0
  8 11  1  0  0  0  0
  9 13  1  1  0  0  0
  9 10  1  0  0  0  0
  9 19  1  0  0  0  0
 10 19  1  0  0  0  0
 10 18  1  1  0  0  0
 11  4  1  1  0  0  0
 12  7  1  0  0  0  0
 12  3  1  0  0  0  0
 14 20  1  0  0  0  0
 15 16  2  0  0  0  0
 16  8  1  0  0  0  0
 20 13  2  0  0  0  0
 22 21  1  0  0  0  0
 22 12  1  0  0  0  0
 23 24  1  0  0  0  0
 24 27  1  0  0  0  0
 25 23  1  0  0  0  0
 28 23  1  0  0  0  0
 28 30  1  0  0  0  0
 29 27  1  0  0  0  0
 29 26  1  0  0  0  0
 30 29  1  0  0  0  0
M  END
>  <MODEL>
2

>  <REMARK>
 VINA RESULT:      -5.3      5.373      8.898
  Name = 
  1 active torsions:
  status: ('A' for Active; 'I' for Inactive)
    1  A    between atoms: C_1  and  C_22
                            x       y       z     vdW  Elec       q    Type
                         _______ _______ _______ _____ _____    ______ ____

>  <TORSDO>
F 1

$$$$
=
 OpenBabel10262421503D

 30 35  0  0  1  0  0  0  0  0999 V2000
  182.1980  178.3760  139.2270 C   0  0  2  0  0  3  0  0  0  0  0  0
  181.7440  173.8180  137.8850 S   0  0  0  0  0  1  0  0  0  0  0  0
  182.1410  176.9220  138.6270 C   0  0  1  0  0  0  0  0  0  0  0  0
  183.6200  178.8640  139.6090 C   0  0  0  0  0  2  0  0  0  0  0  0
  185.5690  177.4480  136.7640 C   0  0  0  0  0  2  0  0  0  0  0  0
  181.2660  176.0910  135.8200 C   0  0  1  0  0  3  0  0  0  0  0  0
  184.2760  177.7980  137.4800 C   0  0  2  0  0  3  0  0  0  0  0  0
  185.9670  178.5700  138.8410 O   0  0  0  0  0  0  0  0  0  0  0  0
  180.2660  176.0720  136.9570 C   0  0  2  0  0  0  0  0  0  0  0  0
  180.3760  175.0240  138.0570 C   0  0  1  0  0  0  0  0  0  0  0  0
  184.6740  178.0100  138.9220 C   0  0  1  0  0  3  0  0  0  0  0  0
  183.0700  176.8580  137.3540 C   0  0  2  0  0  3  0  0  0  0  0  0
  178.9310  176.4620  136.4540 C   0  0  0  0  0  3  0  0  0  0  0  0
  180.3920  176.3860  134.5960 C   0  0  0  0  0  2  0  0  0  0  0  0
  187.7900  178.4340  137.3080 C   0  0  0  0  0  2  0  0  0  0  0  0
  186.5330  178.1780  137.6360 C   0  0  0  0  0  0  0  0  0  0  0  0
  182.6770  176.0520  139.5830 O   0  0  0  0  0  1  0  0  0  0  0  0
  179.0770  174.5060  138.6490 C   0  0  0  0  0  1  0  0  0  0  0  0
  180.6570  176.5130  138.3720 C   0  0  1  0  0  3  0  0  0  0  0  0
  179.0120  176.6330  135.1390 C   0  0  0  0  0  3  0  0  0  0  0  0
  181.7920  178.5820  135.9870 C   0  0  0  0  0  1  0  0  0  0  0  0
  182.3400  177.1520  136.0390 C   0  0  2  0  0  3  0  0  0  0  0  0
  180.0310  179.7500  139.8820 C   0  0  1  0  0  3  0  0  0  0  0  0
  179.0210  179.7580  140.8750 O   0  0  0  0  0  0  0  0  0  0  0  0
  180.4780  181.1680  139.5280 C   0  0  0  0  0  1  0  0  0  0  0  0
  180.0400  178.0180  143.0990 C   0  0  0  0  0  1  0  0  0  0  0  0
  179.5490  180.2660  142.0890 C   0  0  0  0  0  2  0  0  0  0  0  0
  181.1730  178.8040  140.2920 C   0  0  2  0  0  3  0  0  0  0  0  0
  180.6320  179.3500  142.6720 C   0  0  2  0  0  3  0  0  0  0  0  0
  181.7570  179.1470  141.6580 C   0  0  0  0  0  2  0  0  0  0  0  0
  1  4  1  1  0  0  0
  1 28  1  0  0  0  0
  2 10  1  0  0  0  0
  3  1  1  0  0  0  0
  3 17  1  1  0  0  0
  5 16  1  0  0  0  0
  6 14  1  6  0  0  0
  6 22  1  0  0  0  0
  6  9  1  0  0  0  0
  7  5  1  6  0  0  0
  7 11  1  0  0  0  0
  8 11  1  0  0  0  0
  9 13  1  6  0  0  0
  9 10  1  0  0  0  0
  9 19  1  0  0  0  0
 10 19  1  0  0  0  0
 10 18  1  1  0  0  0
 11  4  1  6  0  0  0
 12  7  1  0  0  0  0
 12  3  1  0  0  0  0
 14 20  1  0  0  0  0
 15 16  2  0  0  0  0
 16  8  1  0  0  0  0
 19  3  1  0  0  0  0
 20 13  2  0  0  0  0
 21 22  1  0  0  0  0
 22 12  1  0  0  0  0
 23 28  1  0  0  0  0
 23 24  1  0  0  0  0
 24 27  1  0  0  0  0
 25 23  1  0  0  0  0
 27 29  1  0  0  0  0
 28 30  1  0  0  0  0
 29 26  1  0  0  0  0
 30 29  1  0  0  0  0
M  END
>  <MODEL>
3

>  <REMARK>
 VINA RESULT:      -5.1      2.574      5.799
  Name = 
  1 active torsions:
  status: ('A' for Active; 'I' for Inactive)
    1  A    between atoms: C_1  and  C_22
                            x       y       z     vdW  Elec       q    Type
                         _______ _______ _______ _____ _____    ______ ____

>  <TORSDO>
F 1

$$$$
=
 OpenBabel10262421503D

 30 35  0  0  1  0  0  0  0  0999 V2000
  185.0200  176.0360  137.0300 C   0  0  2  0  0  3  0  0  0  0  0  0
  180.9380  176.9970  139.3090 S   0  0  0  0  0  1  0  0  0  0  0  0
  183.5890  176.2440  137.6520 C   0  0  1  0  0  0  0  0  0  0  0  0
  185.5730  174.5910  137.1430 C   0  0  0  0  0  2  0  0  0  0  0  0
  182.4520  172.6600  136.4880 C   0  0  0  0  0  2  0  0  0  0  0  0
  181.0170  177.0320  136.2020 C   0  0  1  0  0  3  0  0  0  0  0  0
  183.2670  173.9400  136.5430 C   0  0  2  0  0  3  0  0  0  0  0  0
  184.7130  172.2570  137.1610 O   0  0  0  0  0  0  0  0  0  0  0  0
  181.8730  178.0990  136.8520 C   0  0  2  0  0  0  0  0  0  0  0  0
  181.9480  178.2020  138.3700 C   0  0  1  0  0  0  0  0  0  0  0  0
  184.4420  173.6150  137.4340 C   0  0  1  0  0  3  0  0  0  0  0  0
  182.5810  175.2490  136.9590 C   0  0  2  0  0  3  0  0  0  0  0  0
  181.8310  179.3340  136.0400 C   0  0  0  0  0  3  0  0  0  0  0  0
  180.3680  177.7750  135.0300 C   0  0  0  0  0  2  0  0  0  0  0  0
  183.4300  170.3690  136.4690 C   0  0  0  0  0  2  0  0  0  0  0  0
  183.5450  171.6690  136.6970 C   0  0  0  0  0  0  0  0  0  0  0  0
  183.6640  175.8930  139.0040 O   0  0  0  0  0  1  0  0  0  0  0  0
  182.0780  179.5950  138.9610 C   0  0  0  0  0  1  0  0  0  0  0  0
  183.1870  177.7490  137.5600 C   0  0  1  0  0  3  0  0  0  0  0  0
  180.9900  179.1440  135.0300 C   0  0  0  0  0  3  0  0  0  0  0  0
  182.8250  176.1930  134.6090 C   0  0  0  0  0  1  0  0  0  0  0  0
  181.8590  175.8440  135.7450 C   0  0  2  0  0  3  0  0  0  0  0  0
  186.3820  178.1790  136.2760 C   0  0  1  0  0  3  0  0  0  0  0  0
  187.1800  179.2020  136.8430 O   0  0  0  0  0  0  0  0  0  0  0  0
  186.9560  177.6940  134.9450 C   0  0  0  0  0  1  0  0  0  0  0  0
  187.8930  178.2530  139.6000 C   0  0  0  0  0  1  0  0  0  0  0  0
  188.4520  178.6780  137.1880 C   0  0  0  0  0  2  0  0  0  0  0  0
  186.1310  177.0650  137.3070 C   0  0  2  0  0  3  0  0  0  0  0  0
  188.3580  177.6240  138.2980 C   0  0  2  0  0  3  0  0  0  0  0  0
  187.4240  176.4900  137.8760 C   0  0  0  0  0  2  0  0  0  0  0  0
  1  4  1  1  0  0  0
  1 28  1  0  0  0  0
  1  3  1  0  0  0  0
  3 17  1  1  0  0  0
  5 16  1  0  0  0  0
  6 14  1  6  0  0  0
  6  9  1  0  0  0  0
  7  5  1  1  0  0  0
  7 12  1  0  0  0  0
  7 11  1  0  0  0  0
  8 11  1  0  0  0  0
  9 13  1  6  0  0  0
  9 19  1  0  0  0  0
  9 10  1  0  0  0  0
 10 18  1  1  0  0  0
 10  2  1  0  0  0  0
 11  4  1  6  0  0  0
 12  3  1  0  0  0  0
 15 16  2  0  0  0  0
 16  8  1  0  0  0  0
 19  3  1  0  0  0  0
 19 10  1  0  0  0  0
 20 14  1  0  0  0  0
 20 13  2  0  0  0  0
 21 22  1  0  0  0  0
 22  6  1  0  0  0  0
 22 12  1  0  0  0  0
 23 24  1  0  0  0  0
 23 28  1  0  0  0  0
 24 27  1  0  0  0  0
 25 23  1  0  0  0  0
 27 29  1  0  0  0  0
 28 30  1  0  0  0  0
 29 26  1  0  0  0  0
 30 29  1  0  0  0  0
M  END
>  <MODEL>
4

>  <REMARK>
 VINA RESULT:      -5.0      2.847      5.150
  Name = 
  1 active torsions:
  status: ('A' for Active; 'I' for Inactive)
    1  A    between atoms: C_1  and  C_22
                            x       y       z     vdW  Elec       q    Type
                         _______ _______ _______ _____ _____    ______ ____

>  <TORSDO>
F 1

$$$$
=
 OpenBabel10262421503D

 30 35  0  0  1  0  0  0  0  0999 V2000
  182.1990  179.2680  139.2410 C   0  0  2  0  0  3  0  0  0  0  0  0
  182.3280  175.8470  135.9140 S   0  0  0  0  0  1  0  0  0  0  0  0
  182.0580  178.1770  138.1150 C   0  0  1  0  0  0  0  0  0  0  0  0
  182.0440  180.7310  138.7480 C   0  0  0  0  0  2  0  0  0  0  0  0
  179.2890  180.2860  136.2770 C   0  0  0  0  0  2  0  0  0  0  0  0
  179.9200  176.0070  137.8730 C   0  0  1  0  0  3  0  0  0  0  0  0
  180.1950  179.8060  137.3970 C   0  0  2  0  0  3  0  0  0  0  0  0
  180.7970  181.9950  137.0070 O   0  0  0  0  0  0  0  0  0  0  0  0
  181.2400  175.6920  138.5450 C   0  0  2  0  0  0  0  0  0  0  0  0
  182.5160  175.5930  137.7180 C   0  0  1  0  0  0  0  0  0  0  0  0
  181.3650  180.7610  137.3870 C   0  0  1  0  0  3  0  0  0  0  0  0
  180.6540  178.3420  137.4170 C   0  0  2  0  0  3  0  0  0  0  0  0
  181.0200  174.7450  139.6590 C   0  0  0  0  0  3  0  0  0  0  0  0
  178.9370  175.0730  138.5860 C   0  0  0  0  0  2  0  0  0  0  0  0
  178.9370  182.6780  135.6780 C   0  0  0  0  0  2  0  0  0  0  0  0
  179.6410  181.7340  136.2850 C   0  0  0  0  0  0  0  0  0  0  0  0
  183.0400  178.4360  137.1540 O   0  0  0  0  0  1  0  0  0  0  0  0
  183.5480  174.5700  138.1620 C   0  0  0  0  0  1  0  0  0  0  0  0
  182.3260  176.7610  138.7160 C   0  0  1  0  0  3  0  0  0  0  0  0
  179.7350  174.4060  139.6720 C   0  0  0  0  0  3  0  0  0  0  0  0
  179.2530  177.8670  139.4860 C   0  0  0  0  0  1  0  0  0  0  0  0
  179.5490  177.4780  138.0350 C   0  0  2  0  0  3  0  0  0  0  0  0
  184.7780  179.4410  139.8150 C   0  0  1  0  0  3  0  0  0  0  0  0
  185.6210  179.6270  140.9380 O   0  0  0  0  0  0  0  0  0  0  0  0
  185.3520  178.4020  138.8510 C   0  0  0  0  0  1  0  0  0  0  0  0
  183.9000  179.1350  143.3480 C   0  0  0  0  0  1  0  0  0  0  0  0
  185.6660  178.4350  141.7040 C   0  0  0  0  0  2  0  0  0  0  0  0
  183.3370  179.1600  140.2720 C   0  0  2  0  0  3  0  0  0  0  0  0
  184.3030  178.0940  142.3180 C   0  0  2  0  0  3  0  0  0  0  0  0
  183.2430  177.9720  141.2230 C   0  0  0  0  0  2  0  0  0  0  0  0
  1  4  1  6  0  0  0
  1 28  1  0  0  0  0
  2 10  1  0  0  0  0
  3 17  1  6  0  0  0
  3 19  1  0  0  0  0
  3  1  1  0  0  0  0
  5 16  1  0  0  0  0
  6 22  1  0  0  0  0
  6  9  1  0  0  0  0
  6 14  1  1  0  0  0
  7  5  1  6  0  0  0
  7 12  1  0  0  0  0
  8 11  1  0  0  0  0
  9 19  1  0  0  0  0
  9 13  1  1  0  0  0
 10 18  1  1  0  0  0
 10  9  1  0  0  0  0
 10 19  1  0  0  0  0
 11  7  1  0  0  0  0
 11  4  1  1  0  0  0
 12 22  1  0  0  0  0
 12  3  1  0  0  0  0
 13 20  2  0  0  0  0
 14 20  1  0  0  0  0
 15 16  2  0  0  0  0
 16  8  1  0  0  0  0
 22 21  1  0  0  0  0
 23 28  1  0  0  0  0
 23 24  1  0  0  0  0
 24 27  1  0  0  0  0
 25 23  1  0  0  0  0
 27 29  1  0  0  0  0
 28 30  1  0  0  0  0
 29 26  1  0  0  0  0
 30 29  1  0  0  0  0
M  END
>  <MODEL>
5

>  <REMARK>
 VINA RESULT:      -4.7      2.132      5.333
  Name = 
  1 active torsions:
  status: ('A' for Active; 'I' for Inactive)
    1  A    between atoms: C_1  and  C_22
                            x       y       z     vdW  Elec       q    Type
                         _______ _______ _______ _____ _____    ______ ____

>  <TORSDO>
F 1

$$$$
=
 OpenBabel10262421503D

 30 35  0  0  1  0  0  0  0  0999 V2000
  182.0600  179.2440  138.3380 C   0  0  2  0  0  3  0  0  0  0  0  0
  183.3110  174.6910  137.6430 S   0  0  0  0  0  1  0  0  0  0  0  0
  182.6190  177.7780  138.2220 C   0  0  1  0  0  0  0  0  0  0  0  0
  181.5360  179.6290  139.7470 C   0  0  0  0  0  2  0  0  0  0  0  0
  184.1020  177.9490  141.8650 C   0  0  0  0  0  2  0  0  0  0  0  0
  185.4820  176.9150  137.5890 C   0  0  1  0  0  3  0  0  0  0  0  0
  183.5460  178.4310  140.5370 C   0  0  2  0  0  3  0  0  0  0  0  0
  182.0280  179.1130  142.1290 O   0  0  0  0  0  0  0  0  0  0  0  0
  184.4630  177.0220  136.4740 C   0  0  2  0  0  0  0  0  0  0  0  0
  183.3280  176.0110  136.3730 C   0  0  1  0  0  0  0  0  0  0  0  0
  182.0750  178.6650  140.7920 C   0  0  1  0  0  3  0  0  0  0  0  0
  183.7790  177.5890  139.2750 C   0  0  2  0  0  3  0  0  0  0  0  0
  185.1230  177.5000  135.2400 C   0  0  0  0  0  3  0  0  0  0  0  0
  186.8030  177.2330  136.8830 C   0  0  0  0  0  2  0  0  0  0  0  0
  183.3420  178.7700  144.0900 C   0  0  0  0  0  2  0  0  0  0  0  0
  183.1500  178.6300  142.7870 C   0  0  0  0  0  0  0  0  0  0  0  0
  181.5850  176.9040  138.5730 O   0  0  0  0  0  1  0  0  0  0  0  0
  182.8700  175.6250  134.9770 C   0  0  0  0  0  1  0  0  0  0  0  0
  183.0260  177.4830  136.7440 C   0  0  1  0  0  3  0  0  0  0  0  0
  186.4250  177.6130  135.4780 C   0  0  0  0  0  3  0  0  0  0  0  0
  185.3290  179.3580  138.3070 C   0  0  0  0  0  1  0  0  0  0  0  0
  185.1750  177.8920  138.7200 C   0  0  2  0  0  3  0  0  0  0  0  0
  181.2210  181.2870  136.8760 C   0  0  1  0  0  3  0  0  0  0  0  0
  180.5550  181.5310  135.6490 O   0  0  0  0  0  0  0  0  0  0  0  0
  180.7450  182.2410  137.9700 C   0  0  0  0  0  1  0  0  0  0  0  0
  179.3290  178.9120  134.8440 C   0  0  0  0  0  1  0  0  0  0  0  0
  179.1750  181.2350  135.7890 C   0  0  0  0  0  2  0  0  0  0  0  0
  181.1280  179.7960  137.2430 C   0  0  2  0  0  3  0  0  0  0  0  0
  178.9310  179.7440  136.0510 C   0  0  2  0  0  3  0  0  0  0  0  0
  179.6900  179.2930  137.2980 C   0  0  0  0  0  2  0  0  0  0  0  0
  1  4  1  1  0  0  0
  3  1  1  0  0  0  0
  3 17  1  1  0  0  0
  3 12  1  0  0  0  0
  5 16  1  0  0  0  0
  6 14  1  6  0  0  0
  6 22  1  0  0  0  0
  7 11  1  0  0  0  0
  7  5  1  1  0  0  0
  8 16  1  0  0  0  0
  9 13  1  6  0  0  0
  9 19  1  0  0  0  0
  9  6  1  0  0  0  0
 10 18  1  6  0  0  0
 10  9  1  0  0  0  0
 10 19  1  0  0  0  0
 10  2  1  0  0  0  0
 11  4  1  6  0  0  0
 11  8  1  0  0  0  0
 12  7  1  0  0  0  0
 13 20  2  0  0  0  0
 16 15  2  0  0  0  0
 19  3  1  0  0  0  0
 20 14  1  0  0  0  0
 21 22  1  0  0  0  0
 22 12  1  0  0  0  0
 23 28  1  0  0  0  0
 23 25  1  0  0  0  0
 24 27  1  0  0  0  0
 24 23  1  0  0  0  0
 26 29  1  0  0  0  0
 27 29  1  0  0  0  0
 28 30  1  0  0  0  0
 28  1  1  0  0  0  0
 29 30  1  0  0  0  0
M  END
>  <MODEL>
6

>  <REMARK>
 VINA RESULT:      -4.7      2.274      5.275
  Name = 
  1 active torsions:
  status: ('A' for Active; 'I' for Inactive)
    1  A    between atoms: C_1  and  C_22
                            x       y       z     vdW  Elec       q    Type
                         _______ _______ _______ _____ _____    ______ ____

>  <TORSDO>
F 1

$$$$
=
 OpenBabel10262421503D

 30 35  0  0  1  0  0  0  0  0999 V2000
  183.3840  175.3980  136.9980 C   0  0  2  0  0  3  0  0  0  0  0  0
  181.0600  179.4660  136.0830 S   0  0  0  0  0  1  0  0  0  0  0  0
  182.7200  176.8160  136.8360 C   0  0  1  0  0  0  0  0  0  0  0  0
  184.8860  175.3390  136.6160 C   0  0  0  0  0  2  0  0  0  0  0  0
  186.0270  178.6090  137.9950 C   0  0  0  0  0  2  0  0  0  0  0  0
  181.5340  178.5860  139.0260 C   0  0  1  0  0  3  0  0  0  0  0  0
  185.0080  177.5000  137.8060 C   0  0  2  0  0  3  0  0  0  0  0  0
  186.8870  176.8150  136.6650 O   0  0  0  0  0  0  0  0  0  0  0  0
  180.6350  177.6530  138.2420 C   0  0  2  0  0  0  0  0  0  0  0  0
  180.3180  177.9440  136.7800 C   0  0  1  0  0  0  0  0  0  0  0  0
  185.4800  176.7390  136.5900 C   0  0  1  0  0  3  0  0  0  0  0  0
  183.5180  177.8570  137.7110 C   0  0  2  0  0  3  0  0  0  0  0  0
  179.5730  177.1240  139.1260 C   0  0  0  0  0  3  0  0  0  0  0  0
  180.8420  178.6680  140.3910 C   0  0  0  0  0  2  0  0  0  0  0  0
  188.4660  178.3690  137.5500 C   0  0  0  0  0  2  0  0  0  0  0  0
  187.2210  177.9430  137.4000 C   0  0  0  0  0  0  0  0  0  0  0  0
  182.8620  177.1960  135.4970 O   0  0  0  0  0  1  0  0  0  0  0  0
  178.9310  177.5700  136.2890 C   0  0  0  0  0  1  0  0  0  0  0  0
  181.1950  176.7260  137.1580 C   0  0  1  0  0  3  0  0  0  0  0  0
  179.6970  177.6960  140.3180 C   0  0  0  0  0  3  0  0  0  0  0  0
  183.0490  176.7550  139.9560 C   0  0  0  0  0  1  0  0  0  0  0  0
  182.9550  178.0390  139.1250 C   0  0  2  0  0  3  0  0  0  0  0  0
  182.7960  172.8310  137.2760 C   0  0  1  0  0  3  0  0  0  0  0  0
  181.8030  171.9050  136.8750 O   0  0  0  0  0  0  0  0  0  0  0  0
  184.1930  172.2140  137.2180 C   0  0  0  0  0  1  0  0  0  0  0  0
  180.2920  173.2320  134.6470 C   0  0  0  0  0  1  0  0  0  0  0  0
  181.9790  171.5800  135.5060 C   0  0  0  0  0  2  0  0  0  0  0  0
  182.6450  174.1460  136.4920 C   0  0  2  0  0  3  0  0  0  0  0  0
  181.7450  172.7900  134.5940 C   0  0  2  0  0  3  0  0  0  0  0  0
  182.6780  173.9360  134.9820 C   0  0  0  0  0  2  0  0  0  0  0  0
  1  4  1  6  0  0  0
  2 10  1  0  0  0  0
  3 17  1  6  0  0  0
  3  1  1  0  0  0  0
  3 19  1  0  0  0  0
  3 12  1  0  0  0  0
  6 22  1  0  0  0  0
  6 14  1  1  0  0  0
  7  5  1  6  0  0  0
  8 16  1  0  0  0  0
  9  6  1  0  0  0  0
  9 13  1  1  0  0  0
 10 18  1  6  0  0  0
 10 19  1  0  0  0  0
 10  9  1  0  0  0  0
 11  4  1  1  0  0  0
 11  8  1  0  0  0  0
 11  7  1  0  0  0  0
 12  7  1  0  0  0  0
 12 22  1  0  0  0  0
 13 20  2  0  0  0  0
 16 15  2  0  0  0  0
 16  5  1  0  0  0  0
 19  9  1  0  0  0  0
 20 14  1  0  0  0  0
 22 21  1  0  0  0  0
 24 23  1  0  0  0  0
 25 23  1  0  0  0  0
 27 24  1  0  0  0  0
 28  1  1  0  0  0  0
 28 23  1  0  0  0  0
 29 26  1  0  0  0  0
 29 30  1  0  0  0  0
 29 27  1  0  0  0  0
 30 28  1  0  0  0  0
M  END
>  <MODEL>
7

>  <REMARK>
 VINA RESULT:      -4.5      2.590      4.953
  Name = 
  1 active torsions:
  status: ('A' for Active; 'I' for Inactive)
    1  A    between atoms: C_1  and  C_22
                            x       y       z     vdW  Elec       q    Type
                         _______ _______ _______ _____ _____    ______ ____

>  <TORSDO>
F 1

$$$$
=
 OpenBabel10262421503D

 30 35  0  0  1  0  0  0  0  0999 V2000
  183.0660  177.7520  138.4050 C   0  0  2  0  0  3  0  0  0  0  0  0
  185.7570  176.1770  134.7910 S   0  0  0  0  0  1  0  0  0  0  0  0
  183.7930  177.1660  137.1380 C   0  0  1  0  0  0  0  0  0  0  0  0
  182.1060  178.9350  138.1110 C   0  0  0  0  0  2  0  0  0  0  0  0
  180.6050  177.7620  134.9070 C   0  0  0  0  0  2  0  0  0  0  0  0
  183.5280  174.3570  135.9640 C   0  0  1  0  0  3  0  0  0  0  0  0
  181.4450  177.5750  136.1580 C   0  0  2  0  0  3  0  0  0  0  0  0
  180.6030  179.7150  136.2900 O   0  0  0  0  0  0  0  0  0  0  0  0
  184.6470  174.6650  136.9370 C   0  0  2  0  0  0  0  0  0  0  0  0
  185.8080  175.5560  136.5120 C   0  0  1  0  0  0  0  0  0  0  0  0
  181.7550  178.9760  136.6310 C   0  0  1  0  0  3  0  0  0  0  0  0
  182.7060  176.7030  136.0930 C   0  0  2  0  0  3  0  0  0  0  0  0
  184.9100  173.4820  137.7850 C   0  0  0  0  0  3  0  0  0  0  0  0
  183.2510  172.8710  136.2140 C   0  0  0  0  0  2  0  0  0  0  0  0
  178.9310  179.5780  134.5940 C   0  0  0  0  0  2  0  0  0  0  0  0
  179.9750  179.0720  135.2320 C   0  0  0  0  0  0  0  0  0  0  0  0
  184.5230  178.2060  136.5530 O   0  0  0  0  0  1  0  0  0  0  0  0
  187.1770  175.2220  137.0800 C   0  0  0  0  0  1  0  0  0  0  0  0
  184.7960  176.0510  137.5730 C   0  0  1  0  0  3  0  0  0  0  0  0
  184.1290  172.4890  137.3740 C   0  0  0  0  0  3  0  0  0  0  0  0
  181.6320  174.9330  137.5710 C   0  0  0  0  0  1  0  0  0  0  0  0
  182.3050  175.2300  136.2280 C   0  0  2  0  0  3  0  0  0  0  0  0
  183.2010  177.7120  141.0490 C   0  0  1  0  0  3  0  0  0  0  0  0
  184.1750  177.6810  142.0770 O   0  0  0  0  0  0  0  0  0  0  0  0
  182.0410  178.6410  141.4050 C   0  0  0  0  0  1  0  0  0  0  0  0
  186.7740  178.4150  140.7680 C   0  0  0  0  0  1  0  0  0  0  0  0
  184.7810  178.9570  142.1980 C   0  0  0  0  0  2  0  0  0  0  0  0
  183.8660  178.0100  139.6940 C   0  0  2  0  0  3  0  0  0  0  0  0
  185.5790  179.3350  140.9450 C   0  0  2  0  0  3  0  0  0  0  0  0
  184.6780  179.3010  139.7110 C   0  0  0  0  0  2  0  0  0  0  0  0
  1  4  1  6  0  0  0
  1 28  1  0  0  0  0
  2 10  1  0  0  0  0
  3 17  1  6  0  0  0
  3 19  1  0  0  0  0
  3  1  1  0  0  0  0
  5 16  1  0  0  0  0
  6 14  1  1  0  0  0
  6 22  1  0  0  0  0
  6  9  1  0  0  0  0
  7  5  1  6  0  0  0
  7 11  1  0  0  0  0
  8 11  1  0  0  0  0
  9 19  1  0  0  0  0
  9 13  1  1  0  0  0
 10  9  1  0  0  0  0
 10 18  1  1  0  0  0
 10 19  1  0  0  0  0
 11  4  1  1  0  0  0
 12  7  1  0  0  0  0
 12 22  1  0  0  0  0
 12  3  1  0  0  0  0
 14 20  1  0  0  0  0
 15 16  2  0  0  0  0
 16  8  1  0  0  0  0
 20 13  2  0  0  0  0
 22 21  1  0  0  0  0
 23 25  1  0  0  0  0
 23 24  1  0  0  0  0
 24 27  1  0  0  0  0
 26 29  1  0  0  0  0
 28 30  1  0  0  0  0
 28 23  1  0  0  0  0
 29 27  1  0  0  0  0
 30 29  1  0  0  0  0
M  END
>  <MODEL>
8

>  <REMARK>
 VINA RESULT:      -4.4      2.459      6.069
  Name = 
  1 active torsions:
  status: ('A' for Active; 'I' for Inactive)
    1  A    between atoms: C_1  and  C_22
                            x       y       z     vdW  Elec       q    Type
                         _______ _______ _______ _____ _____    ______ ____

>  <TORSDO>
F 1

$$$$
=
 OpenBabel10262421503D

 30 35  0  0  1  0  0  0  0  0999 V2000
  183.2540  175.2350  136.5490 C   0  0  2  0  0  3  0  0  0  0  0  0
  180.8480  177.2020  140.1710 S   0  0  0  0  0  1  0  0  0  0  0  0
  182.3030  175.8350  137.6500 C   0  0  1  0  0  0  0  0  0  0  0  0
  183.1940  173.6900  136.4130 C   0  0  0  0  0  2  0  0  0  0  0  0
  179.5350  173.1490  136.8680 C   0  0  0  0  0  2  0  0  0  0  0  0
  179.9370  177.7260  137.2460 C   0  0  1  0  0  3  0  0  0  0  0  0
  180.7600  174.0220  136.6650 C   0  0  2  0  0  3  0  0  0  0  0  0
  181.5380  171.8540  136.6710 O   0  0  0  0  0  0  0  0  0  0  0  0
  181.3030  178.2890  137.5750 C   0  0  2  0  0  0  0  0  0  0  0  0
  181.8940  178.1020  138.9670 C   0  0  1  0  0  0  0  0  0  0  0  0
  181.9290  173.1520  137.0630 C   0  0  1  0  0  3  0  0  0  0  0  0
  180.8200  175.4000  137.3370 C   0  0  2  0  0  3  0  0  0  0  0  0
  181.4960  179.5750  136.8690 C   0  0  0  0  0  3  0  0  0  0  0  0
  179.2960  178.8380  136.4090 C   0  0  0  0  0  2  0  0  0  0  0  0
  179.4650  170.6980  136.4320 C   0  0  0  0  0  2  0  0  0  0  0  0
  180.1510  171.8110  136.6420 C   0  0  0  0  0  0  0  0  0  0  0  0
  182.6620  175.2600  138.8730 O   0  0  0  0  0  1  0  0  0  0  0  0
  182.7460  179.2360  139.5120 C   0  0  0  0  0  1  0  0  0  0  0  0
  182.5230  177.3780  137.7530 C   0  0  1  0  0  3  0  0  0  0  0  0
  180.3730  179.8710  136.2240 C   0  0  0  0  0  3  0  0  0  0  0  0
  180.6520  176.5730  135.0860 C   0  0  0  0  0  1  0  0  0  0  0  0
  180.0450  176.4100  136.4820 C   0  0  2  0  0  3  0  0  0  0  0  0
  184.9560  177.1970  136.0340 C   0  0  1  0  0  3  0  0  0  0  0  0
  186.2980  177.5590  136.3110 O   0  0  0  0  0  0  0  0  0  0  0  0
  184.5730  177.5330  134.5940 C   0  0  0  0  0  1  0  0  0  0  0  0
  187.6310  175.0650  137.3170 C   0  0  0  0  0  1  0  0  0  0  0  0
  187.1770  176.7700  135.5280 C   0  0  0  0  0  2  0  0  0  0  0  0
  184.7060  175.7340  136.4370 C   0  0  2  0  0  3  0  0  0  0  0  0
  187.1090  175.2850  135.9080 C   0  0  2  0  0  3  0  0  0  0  0  0
  185.6780  174.7670  135.7700 C   0  0  0  0  0  2  0  0  0  0  0  0
  1  4  1  1  0  0  0
  1  3  1  0  0  0  0
  3 19  1  0  0  0  0
  3 17  1  1  0  0  0
  6 14  1  6  0  0  0
  6  9  1  0  0  0  0
  7  5  1  1  0  0  0
  7 11  1  0  0  0  0
  7 12  1  0  0  0  0
  8 11  1  0  0  0  0
  9 13  1  6  0  0  0
  9 19  1  0  0  0  0
  9 10  1  0  0  0  0
 10 18  1  1  0  0  0
 10  2  1  0  0  0  0
 11  4  1  6  0  0  0
 12  3  1  0  0  0  0
 15 16  2  0  0  0  0
 16  8  1  0  0  0  0
 16  5  1  0  0  0  0
 19 10  1  0  0  0  0
 20 14  1  0  0  0  0
 20 13  2  0  0  0  0
 21 22  1  0  0  0  0
 22  6  1  0  0  0  0
 22 12  1  0  0  0  0
 23 24  1  0  0  0  0
 23 28  1  0  0  0  0
 25 23  1  0  0  0  0
 27 29  1  0  0  0  0
 27 24  1  0  0  0  0
 28  1  1  0  0  0  0
 29 26  1  0  0  0  0
 30 29  1  0  0  0  0
 30 28  1  0  0  0  0
M  END
>  <MODEL>
9

>  <REMARK>
 VINA RESULT:      -3.8      2.820      5.451
  Name = 
  1 active torsions:
  status: ('A' for Active; 'I' for Inactive)
    1  A    between atoms: C_1  and  C_22
                            x       y       z     vdW  Elec       q    Type
                         _______ _______ _______ _____ _____    ______ ____

>  <TORSDO>
F 1

$$$$
