=
 OpenBabel10262422053D

 43 48  0  0  1  0  0  0  0  0999 V2000
  191.2760  176.4570  146.7410 C   0  0  0  0  0  0  0  0  0  0  0  0
  186.9900  177.9620  144.6110 C   0  0  0  0  0  0  0  0  0  0  0  0
  187.4240  178.1840  141.8450 C   0  0  0  0  0  0  0  0  0  0  0  0
  189.0390  177.1450  146.3230 C   0  0  0  0  0  0  0  0  0  0  0  0
  191.5820  176.5470  145.3780 C   0  0  0  0  0  3  0  0  0  0  0  0
  192.3240  176.0350  147.7110 C   0  0  0  0  0  1  0  0  0  0  0  0
  189.2960  177.2470  144.9390 C   0  0  0  0  0  0  0  0  0  0  0  0
  190.0220  176.7540  147.1810 N   0  0  0  0  0  0  0  0  0  0  0  0
  190.5880  176.9430  144.4760 C   0  0  0  0  0  3  0  0  0  0  0  0
  188.4660  177.7710  142.6850 C   0  0  0  0  0  3  0  0  0  0  0  0
  188.2610  177.6540  144.0680 C   0  0  0  0  0  0  0  0  0  0  0  0
  186.7840  177.8500  145.9550 N   0  0  0  0  0  0  0  0  0  0  0  0
  185.9460  178.3890  143.7720 C   0  0  0  0  0  0  0  0  0  0  0  0
  186.1780  178.4980  142.3920 C   0  0  0  0  0  3  0  0  0  0  0  0
  187.7680  177.4520  146.8080 C   0  0  0  0  0  3  0  0  0  0  0  0
  187.6210  178.3230  140.3700 C   0  0  1  0  0  3  0  0  0  0  0  0
  188.7580  177.4290  139.8920 C   0  0  0  0  0  1  0  0  0  0  0  0
  186.3900  178.0090  139.6560 N   0  0  0  0  0  2  0  0  0  0  0  0
  186.2270  178.2810  138.2620 C   0  0  0  0  0  0  0  0  0  0  0  0
  187.1580  178.8140  137.6000 O   0  0  0  0  0  0  0  0  0  0  0  0
  184.9360  177.9600  137.5880 C   0  0  0  0  0  2  0  0  0  0  0  0
  183.8240  177.7830  138.6150 C   0  0  2  0  0  3  0  0  0  0  0  0
  181.5330  177.6250  137.8490 C   0  0  0  0  0  2  0  0  0  0  0  0
  181.5290  180.6760  137.6040 N   0  0  0  0  0  0  0  0  0  0  0  0
  182.4910  179.9190  138.3650 C   0  0  0  0  0  0  0  0  0  0  0  0
  183.4140  176.3250  138.6920 C   0  0  0  0  0  2  0  0  0  0  0  0
  182.6400  178.5010  138.1790 N   0  0  0  0  0  0  0  0  0  0  0  0
  180.7300  182.8160  136.8680 N   0  0  0  0  0  2  0  0  0  0  0  0
  179.6410  180.7120  136.0490 C   0  0  0  0  0  2  0  0  0  0  0  0
  179.5020  182.2210  136.3220 C   0  0  0  0  0  2  0  0  0  0  0  0
  181.0540  180.1910  136.3130 C   0  0  0  0  0  2  0  0  0  0  0  0
  181.1860  182.0410  138.0220 C   0  0  0  0  0  2  0  0  0  0  0  0
  183.2210  180.5130  139.2090 O   0  0  0  0  0  0  0  0  0  0  0  0
  182.0700  176.2100  137.9810 C   0  0  0  0  0  2  0  0  0  0  0  0
  184.7110  178.7270  144.3510 O   0  0  0  0  0  0  0  0  0  0  0  0
  182.0000  178.6690  141.7760 C   0  0  0  0  0  3  0  0  0  0  0  0
  180.8740  178.6800  142.6020 C   0  0  0  0  0  0  0  0  0  0  0  0
  182.3100  178.7260  144.5510 C   0  0  0  0  0  3  0  0  0  0  0  0
  183.2820  178.6860  142.3380 C   0  0  0  0  0  3  0  0  0  0  0  0
  183.4460  178.7190  143.7340 C   0  0  0  0  0  0  0  0  0  0  0  0
  181.0310  178.7140  143.9900 C   0  0  0  0  0  3  0  0  0  0  0  0
  179.1240  177.3300  141.6430 N   0  0  0  0  0  1  0  0  0  0  0  0
  179.5070  178.6850  142.0050 C   0  0  0  0  0  2  0  0  0  0  0  0
  1  8  1  0  0  0  0
  1  6  1  0  0  0  0
  2 12  1  0  0  0  0
  3 14  2  0  0  0  0
  3 10  1  0  0  0  0
  4 15  1  0  0  0  0
  4  8  2  0  0  0  0
  5  1  2  0  0  0  0
  7  4  1  0  0  0  0
  9  7  2  0  0  0  0
  9  5  1  0  0  0  0
 10 11  2  0  0  0  0
 11  2  1  0  0  0  0
 11  7  1  0  0  0  0
 12 15  2  0  0  0  0
 13 35  1  0  0  0  0
 13  2  2  0  0  0  0
 14 13  1  0  0  0  0
 16 17  1  6  0  0  0
 16  3  1  0  0  0  0
 18 16  1  0  0  0  0
 19 18  1  0  0  0  0
 20 19  2  0  0  0  0
 21 19  1  0  0  0  0
 22 21  1  6  0  0  0
 22 26  1  0  0  0  0
 23 34  1  0  0  0  0
 23 27  1  0  0  0  0
 24 32  1  0  0  0  0
 24 25  1  0  0  0  0
 25 33  2  0  0  0  0
 27 25  1  0  0  0  0
 27 22  1  0  0  0  0
 28 32  1  0  0  0  0
 29 31  1  0  0  0  0
 29 30  1  0  0  0  0
 30 28  1  0  0  0  0
 31 24  1  0  0  0  0
 34 26  1  0  0  0  0
 36 39  2  0  0  0  0
 36 37  1  0  0  0  0
 37 41  2  0  0  0  0
 39 40  1  0  0  0  0
 40 35  1  0  0  0  0
 40 38  2  0  0  0  0
 41 38  1  0  0  0  0
 42 43  1  0  0  0  0
 43 37  1  0  0  0  0
M  END
>  <MODEL>
1

>  <REMARK>
 VINA RESULT:     -10.2      0.000      0.000
  Name = 
  7 active torsions:
  status: ('A' for Active; 'I' for Inactive)
    1  A    between atoms: O_1  and  C_34
    2  A    between atoms: O_1  and  C_35
    3  A    between atoms: C_2  and  N_6
    4  A    between atoms: C_2  and  C_13
    5  A    between atoms: C_3  and  C_4
    6  A    between atoms: C_3  and  C_12
    7  A    between atoms: C_19  and  C_37
                            x       y       z     vdW  Elec       q    Type
                         _______ _______ _______ _____ _____    ______ ____

>  <TORSDO>
F 7

$$$$
=
 OpenBabel10262422053D

 43 48  0  0  1  0  0  0  0  0999 V2000
  191.1430  176.5580  146.5690 C   0  0  0  0  0  0  0  0  0  0  0  0
  189.4470  177.8160  142.0180 C   0  0  0  0  0  0  0  0  0  0  0  0
  186.6850  178.2830  142.2170 C   0  0  0  0  0  0  0  0  0  0  0  0
  190.9440  177.0850  144.2590 C   0  0  0  0  0  0  0  0  0  0  0  0
  189.7720  176.7640  146.7580 C   0  0  0  0  0  3  0  0  0  0  0  0
  192.0000  176.1580  147.7190 C   0  0  0  0  0  1  0  0  0  0  0  0
  189.5570  177.3100  144.3980 C   0  0  0  0  0  0  0  0  0  0  0  0
  191.6960  176.7220  145.3350 N   0  0  0  0  0  0  0  0  0  0  0  0
  188.9790  177.1410  145.6690 C   0  0  0  0  0  3  0  0  0  0  0  0
  187.4160  177.9190  143.3560 C   0  0  0  0  0  3  0  0  0  0  0  0
  188.7970  177.6850  143.2690 C   0  0  0  0  0  0  0  0  0  0  0  0
  190.7890  177.5900  141.9270 N   0  0  0  0  0  0  0  0  0  0  0  0
  188.7140  178.1700  140.8720 C   0  0  0  0  0  0  0  0  0  0  0  0
  187.3330  178.3970  140.9860 C   0  0  0  0  0  3  0  0  0  0  0  0
  191.5390  177.2340  143.0070 C   0  0  0  0  0  3  0  0  0  0  0  0
  185.2120  178.5310  142.2850 C   0  0  1  0  0  3  0  0  0  0  0  0
  184.8540  179.3150  143.5400 C   0  0  0  0  0  1  0  0  0  0  0  0
  184.7570  179.2370  141.0940 N   0  0  0  0  0  2  0  0  0  0  0  0
  183.4700  179.0030  140.5150 C   0  0  0  0  0  0  0  0  0  0  0  0
  182.6820  178.1600  141.0240 O   0  0  0  0  0  0  0  0  0  0  0  0
  183.0650  179.7380  139.2820 C   0  0  0  0  0  2  0  0  0  0  0  0
  181.7090  179.2500  138.7880 C   0  0  2  0  0  3  0  0  0  0  0  0
  180.8260  180.1370  136.7160 C   0  0  0  0  0  2  0  0  0  0  0  0
  179.9450  182.6120  138.2870 N   0  0  0  0  0  0  0  0  0  0  0  0
  180.2950  181.3480  138.8840 C   0  0  0  0  0  0  0  0  0  0  0  0
  181.8930  178.1900  137.7200 C   0  0  0  0  0  2  0  0  0  0  0  0
  181.0050  180.3420  138.1390 N   0  0  0  0  0  0  0  0  0  0  0  0
  179.2070  184.8760  138.5790 N   0  0  0  0  0  2  0  0  0  0  0  0
  179.7970  184.0260  136.2970 C   0  0  0  0  0  2  0  0  0  0  0  0
  179.0020  185.0450  137.1330 C   0  0  0  0  0  2  0  0  0  0  0  0
  180.6960  183.1320  137.1510 C   0  0  0  0  0  2  0  0  0  0  0  0
  178.9700  183.4830  138.9550 C   0  0  0  0  0  2  0  0  0  0  0  0
  179.9760  181.1180  140.0860 O   0  0  0  0  0  0  0  0  0  0  0  0
  181.5630  178.8520  136.3860 C   0  0  0  0  0  2  0  0  0  0  0  0
  189.3840  178.2480  139.6400 O   0  0  0  0  0  0  0  0  0  0  0  0
  188.1780  178.2330  136.1000 C   0  0  0  0  0  3  0  0  0  0  0  0
  188.0140  176.8600  135.9010 C   0  0  0  0  0  0  0  0  0  0  0  0
  188.7530  176.4460  138.1690 C   0  0  0  0  0  3  0  0  0  0  0  0
  188.6300  178.7120  137.3350 C   0  0  0  0  0  3  0  0  0  0  0  0
  188.9180  177.8200  138.3830 C   0  0  0  0  0  0  0  0  0  0  0  0
  188.2970  175.9690  136.9390 C   0  0  0  0  0  3  0  0  0  0  0  0
  186.0560  176.3410  134.5960 N   0  0  0  0  0  1  0  0  0  0  0  0
  187.5100  176.3480  134.5940 C   0  0  0  0  0  2  0  0  0  0  0  0
  1  5  1  0  0  0  0
  1  6  1  0  0  0  0
  2 11  1  0  0  0  0
  3 16  1  0  0  0  0
  3 10  1  0  0  0  0
  4  7  2  0  0  0  0
  4  8  1  0  0  0  0
  7  9  1  0  0  0  0
  8  1  2  0  0  0  0
  9  5  2  0  0  0  0
 11 10  2  0  0  0  0
 11  7  1  0  0  0  0
 12  2  1  0  0  0  0
 12 15  2  0  0  0  0
 13 14  1  0  0  0  0
 13  2  2  0  0  0  0
 14  3  2  0  0  0  0
 15  4  1  0  0  0  0
 16 17  1  1  0  0  0
 18 16  1  0  0  0  0
 19 20  2  0  0  0  0
 19 18  1  0  0  0  0
 21 19  1  0  0  0  0
 22 21  1  6  0  0  0
 23 27  1  0  0  0  0
 24 25  1  0  0  0  0
 24 32  1  0  0  0  0
 25 33  2  0  0  0  0
 26 22  1  0  0  0  0
 27 22  1  0  0  0  0
 27 25  1  0  0  0  0
 28 32  1  0  0  0  0
 29 30  1  0  0  0  0
 29 31  1  0  0  0  0
 30 28  1  0  0  0  0
 31 24  1  0  0  0  0
 34 23  1  0  0  0  0
 34 26  1  0  0  0  0
 35 13  1  0  0  0  0
 36 39  1  0  0  0  0
 37 36  2  0  0  0  0
 37 41  1  0  0  0  0
 38 40  1  0  0  0  0
 39 40  2  0  0  0  0
 40 35  1  0  0  0  0
 41 38  2  0  0  0  0
 43 42  1  0  0  0  0
 43 37  1  0  0  0  0
M  END
>  <MODEL>
2

>  <REMARK>
 VINA RESULT:     -10.1      2.265      5.013
  Name = 
  7 active torsions:
  status: ('A' for Active; 'I' for Inactive)
    1  A    between atoms: O_1  and  C_34
    2  A    between atoms: O_1  and  C_35
    3  A    between atoms: C_2  and  N_6
    4  A    between atoms: C_2  and  C_13
    5  A    between atoms: C_3  and  C_4
    6  A    between atoms: C_3  and  C_12
    7  A    between atoms: C_19  and  C_37
                            x       y       z     vdW  Elec       q    Type
                         _______ _______ _______ _____ _____    ______ ____

>  <TORSDO>
F 7

$$$$
=
 OpenBabel10262422053D

 43 48  0  0  1  0  0  0  0  0999 V2000
  190.4870  176.8670  146.3740 C   0  0  0  0  0  0  0  0  0  0  0  0
  188.0720  178.1540  142.1700 C   0  0  0  0  0  0  0  0  0  0  0  0
  185.3400  178.3990  142.7760 C   0  0  0  0  0  0  0  0  0  0  0  0
  189.9220  177.4610  144.1430 C   0  0  0  0  0  0  0  0  0  0  0  0
  189.1460  176.9600  146.7630 C   0  0  0  0  0  3  0  0  0  0  0  0
  191.5260  176.4940  147.3740 C   0  0  0  0  0  1  0  0  0  0  0  0
  188.5570  177.5720  144.4850 C   0  0  0  0  0  0  0  0  0  0  0  0
  190.8450  177.1180  145.0850 N   0  0  0  0  0  0  0  0  0  0  0  0
  188.1800  177.3140  145.8150 C   0  0  0  0  0  3  0  0  0  0  0  0
  186.2510  178.0520  143.7830 C   0  0  0  0  0  3  0  0  0  0  0  0
  187.6180  177.9280  143.4920 C   0  0  0  0  0  0  0  0  0  0  0  0
  189.3990  178.0360  141.8810 N   0  0  0  0  0  0  0  0  0  0  0  0
  187.1580  178.4910  141.1560 C   0  0  0  0  0  0  0  0  0  0  0  0
  185.7960  178.6070  141.4730 C   0  0  0  0  0  3  0  0  0  0  0  0
  190.3190  177.7000  142.8280 C   0  0  0  0  0  3  0  0  0  0  0  0
  183.8790  178.5290  143.0600 C   0  0  1  0  0  3  0  0  0  0  0  0
  183.6370  179.4930  144.2150 C   0  0  0  0  0  1  0  0  0  0  0  0
  183.1620  178.9690  141.8700 N   0  0  0  0  0  2  0  0  0  0  0  0
  181.7520  178.7840  141.7170 C   0  0  0  0  0  0  0  0  0  0  0  0
  181.0780  178.2210  142.6210 O   0  0  0  0  0  0  0  0  0  0  0  0
  181.0750  179.2340  140.4670 C   0  0  0  0  0  2  0  0  0  0  0  0
  182.0800  179.3650  139.3300 C   0  0  2  0  0  3  0  0  0  0  0  0
  181.3550  178.9170  137.0630 C   0  0  0  0  0  2  0  0  0  0  0  0
  181.6590  175.9350  137.6810 N   0  0  0  0  0  0  0  0  0  0  0  0
  182.2490  176.9940  138.4600 C   0  0  0  0  0  0  0  0  0  0  0  0
  181.9060  180.7000  138.6310 C   0  0  0  0  0  2  0  0  0  0  0  0
  181.8090  178.3570  138.3210 N   0  0  0  0  0  0  0  0  0  0  0  0
  181.3370  173.5810  137.3420 N   0  0  0  0  0  2  0  0  0  0  0  0
  180.1820  175.2390  135.8600 C   0  0  0  0  0  2  0  0  0  0  0  0
  180.7240  173.8080  136.0250 C   0  0  0  0  0  2  0  0  0  0  0  0
  180.3140  176.0740  137.1340 C   0  0  0  0  0  2  0  0  0  0  0  0
  182.3230  174.6270  137.6170 C   0  0  0  0  0  2  0  0  0  0  0  0
  183.1680  176.7220  139.2840 O   0  0  0  0  0  0  0  0  0  0  0  0
  181.2180  180.4110  137.3010 C   0  0  0  0  0  2  0  0  0  0  0  0
  187.6380  178.6660  139.8470 O   0  0  0  0  0  0  0  0  0  0  0  0
  185.8950  177.3100  136.8300 C   0  0  0  0  0  3  0  0  0  0  0  0
  186.8030  176.3210  136.4420 C   0  0  0  0  0  0  0  0  0  0  0  0
  188.2290  176.9060  138.3100 C   0  0  0  0  0  3  0  0  0  0  0  0
  186.1540  178.0960  137.9580 C   0  0  0  0  0  3  0  0  0  0  0  0
  187.3240  177.8970  138.7110 C   0  0  0  0  0  0  0  0  0  0  0  0
  187.9680  176.1180  137.1870 C   0  0  0  0  0  3  0  0  0  0  0  0
  185.3220  174.6750  135.4930 N   0  0  0  0  0  1  0  0  0  0  0  0
  186.5180  175.4660  135.2540 C   0  0  0  0  0  2  0  0  0  0  0  0
  1  5  1  0  0  0  0
  1  6  1  0  0  0  0
  2 11  1  0  0  0  0
  3 16  1  0  0  0  0
  3 10  1  0  0  0  0
  4  7  2  0  0  0  0
  4  8  1  0  0  0  0
  7  9  1  0  0  0  0
  8  1  2  0  0  0  0
  9  5  2  0  0  0  0
 11 10  2  0  0  0  0
 11  7  1  0  0  0  0
 12  2  1  0  0  0  0
 12 15  2  0  0  0  0
 13 14  1  0  0  0  0
 13  2  2  0  0  0  0
 14  3  2  0  0  0  0
 15  4  1  0  0  0  0
 16 17  1  1  0  0  0
 18 16  1  0  0  0  0
 19 18  1  0  0  0  0
 19 20  2  0  0  0  0
 21 19  1  0  0  0  0
 22 21  1  1  0  0  0
 23 34  1  0  0  0  0
 23 27  1  0  0  0  0
 24 25  1  0  0  0  0
 25 33  2  0  0  0  0
 26 22  1  0  0  0  0
 27 25  1  0  0  0  0
 27 22  1  0  0  0  0
 28 32  1  0  0  0  0
 29 30  1  0  0  0  0
 29 31  1  0  0  0  0
 30 28  1  0  0  0  0
 31 24  1  0  0  0  0
 32 24  1  0  0  0  0
 34 26  1  0  0  0  0
 35 13  1  0  0  0  0
 36 39  1  0  0  0  0
 37 36  2  0  0  0  0
 37 41  1  0  0  0  0
 38 40  1  0  0  0  0
 39 40  2  0  0  0  0
 40 35  1  0  0  0  0
 41 38  2  0  0  0  0
 43 42  1  0  0  0  0
 43 37  1  0  0  0  0
M  END
>  <MODEL>
3

>  <REMARK>
 VINA RESULT:      -9.9      2.262      5.398
  Name = 
  7 active torsions:
  status: ('A' for Active; 'I' for Inactive)
    1  A    between atoms: O_1  and  C_34
    2  A    between atoms: O_1  and  C_35
    3  A    between atoms: C_2  and  N_6
    4  A    between atoms: C_2  and  C_13
    5  A    between atoms: C_3  and  C_4
    6  A    between atoms: C_3  and  C_12
    7  A    between atoms: C_19  and  C_37
                            x       y       z     vdW  Elec       q    Type
                         _______ _______ _______ _____ _____    ______ ____

>  <TORSDO>
F 7

$$$$
=
 OpenBabel10262422053D

 43 48  0  0  1  0  0  0  0  0999 V2000
  191.2580  176.4220  146.6840 C   0  0  0  0  0  0  0  0  0  0  0  0
  187.2230  177.9530  144.1260 C   0  0  0  0  0  0  0  0  0  0  0  0
  187.9440  178.1890  141.4220 C   0  0  0  0  0  0  0  0  0  0  0  0
  189.0790  177.1200  146.0390 C   0  0  0  0  0  0  0  0  0  0  0  0
  191.7050  176.5190  145.3620 C   0  0  0  0  0  3  0  0  0  0  0  0
  192.1970  175.9920  147.7560 C   0  0  0  0  0  1  0  0  0  0  0  0
  189.4790  177.2290  144.6890 C   0  0  0  0  0  0  0  0  0  0  0  0
  189.9660  176.7220  146.9930 N   0  0  0  0  0  0  0  0  0  0  0  0
  190.8120  176.9220  144.3630 C   0  0  0  0  0  3  0  0  0  0  0  0
  188.8920  177.7670  142.3640 C   0  0  0  0  0  3  0  0  0  0  0  0
  188.5430  177.6440  143.7170 C   0  0  0  0  0  0  0  0  0  0  0  0
  186.8770  177.8350  145.4400 N   0  0  0  0  0  0  0  0  0  0  0  0
  186.2740  178.3880  143.1840 C   0  0  0  0  0  0  0  0  0  0  0  0
  186.6490  178.5040  141.8370 C   0  0  0  0  0  3  0  0  0  0  0  0
  187.7650  177.4300  146.3890 C   0  0  0  0  0  3  0  0  0  0  0  0
  188.2960  178.3340  139.9760 C   0  0  1  0  0  3  0  0  0  0  0  0
  189.6410  177.6840  139.6800 C   0  0  0  0  0  1  0  0  0  0  0  0
  187.2540  177.7580  139.1360 N   0  0  0  0  0  2  0  0  0  0  0  0
  186.9920  178.2350  137.8130 C   0  0  0  0  0  0  0  0  0  0  0  0
  187.6630  179.1870  137.3300 O   0  0  0  0  0  0  0  0  0  0  0  0
  185.8980  177.6230  137.0050 C   0  0  0  0  0  2  0  0  0  0  0  0
  185.9140  176.1060  137.1420 C   0  0  2  0  0  3  0  0  0  0  0  0
  184.9120  174.7580  135.3980 C   0  0  0  0  0  2  0  0  0  0  0  0
  182.1890  175.3630  136.6590 N   0  0  0  0  0  0  0  0  0  0  0  0
  183.4550  175.5380  137.3260 C   0  0  0  0  0  0  0  0  0  0  0  0
  187.0400  175.5190  136.3120 C   0  0  0  0  0  2  0  0  0  0  0  0
  184.6900  175.5530  136.5900 N   0  0  0  0  0  0  0  0  0  0  0  0
  179.7950  175.5070  136.7440 N   0  0  0  0  0  2  0  0  0  0  0  0
  180.9450  174.8390  134.6190 C   0  0  0  0  0  2  0  0  0  0  0  0
  179.6610  174.7910  135.4680 C   0  0  0  0  0  2  0  0  0  0  0  0
  182.0380  175.7020  135.2490 C   0  0  0  0  0  2  0  0  0  0  0  0
  180.9920  175.0470  137.4480 C   0  0  0  0  0  2  0  0  0  0  0  0
  183.4800  175.6840  138.5810 O   0  0  0  0  0  0  0  0  0  0  0  0
  186.3930  174.8850  135.0850 C   0  0  0  0  0  2  0  0  0  0  0  0
  184.9860  178.7280  143.6330 O   0  0  0  0  0  0  0  0  0  0  0  0
  182.5080  178.2410  140.8750 C   0  0  0  0  0  3  0  0  0  0  0  0
  181.3250  178.5600  141.5460 C   0  0  0  0  0  0  0  0  0  0  0  0
  182.5910  178.9830  143.5670 C   0  0  0  0  0  3  0  0  0  0  0  0
  183.7330  178.2930  141.5510 C   0  0  0  0  0  3  0  0  0  0  0  0
  183.7830  178.6690  142.9040 C   0  0  0  0  0  0  0  0  0  0  0  0
  181.3690  178.9360  142.8910 C   0  0  0  0  0  3  0  0  0  0  0  0
  179.0310  177.8270  141.6240 N   0  0  0  0  0  1  0  0  0  0  0  0
  180.0210  178.5280  140.8220 C   0  0  0  0  0  2  0  0  0  0  0  0
  1  8  1  0  0  0  0
  1  6  1  0  0  0  0
  2 12  1  0  0  0  0
  3 14  2  0  0  0  0
  3 10  1  0  0  0  0
  4 15  1  0  0  0  0
  4  8  2  0  0  0  0
  5  1  2  0  0  0  0
  7  4  1  0  0  0  0
  9  7  2  0  0  0  0
  9  5  1  0  0  0  0
 10 11  2  0  0  0  0
 11  2  1  0  0  0  0
 11  7  1  0  0  0  0
 12 15  2  0  0  0  0
 13 35  1  0  0  0  0
 13  2  2  0  0  0  0
 14 13  1  0  0  0  0
 16 17  1  1  0  0  0
 16  3  1  0  0  0  0
 18 16  1  0  0  0  0
 19 18  1  0  0  0  0
 20 19  2  0  0  0  0
 21 19  1  0  0  0  0
 22 21  1  6  0  0  0
 23 27  1  0  0  0  0
 24 25  1  0  0  0  0
 24 32  1  0  0  0  0
 25 33  2  0  0  0  0
 26 22  1  0  0  0  0
 27 22  1  0  0  0  0
 27 25  1  0  0  0  0
 28 32  1  0  0  0  0
 29 31  1  0  0  0  0
 29 30  1  0  0  0  0
 30 28  1  0  0  0  0
 31 24  1  0  0  0  0
 34 23  1  0  0  0  0
 34 26  1  0  0  0  0
 36 37  2  0  0  0  0
 36 39  1  0  0  0  0
 37 41  1  0  0  0  0
 39 40  2  0  0  0  0
 40 38  1  0  0  0  0
 40 35  1  0  0  0  0
 41 38  2  0  0  0  0
 43 37  1  0  0  0  0
 43 42  1  0  0  0  0
M  END
>  <MODEL>
4

>  <REMARK>
 VINA RESULT:      -9.6      2.485      3.091
  Name = 
  7 active torsions:
  status: ('A' for Active; 'I' for Inactive)
    1  A    between atoms: O_1  and  C_34
    2  A    between atoms: O_1  and  C_35
    3  A    between atoms: C_2  and  N_6
    4  A    between atoms: C_2  and  C_13
    5  A    between atoms: C_3  and  C_4
    6  A    between atoms: C_3  and  C_12
    7  A    between atoms: C_19  and  C_37
                            x       y       z     vdW  Elec       q    Type
                         _______ _______ _______ _____ _____    ______ ____

>  <TORSDO>
F 7

$$$$
=
 OpenBabel10262422053D

 43 48  0  0  1  0  0  0  0  0999 V2000
  191.2350  176.3810  146.6680 C   0  0  0  0  0  0  0  0  0  0  0  0
  187.2660  178.0240  144.0760 C   0  0  0  0  0  0  0  0  0  0  0  0
  187.9980  178.1780  141.3690 C   0  0  0  0  0  0  0  0  0  0  0  0
  189.0860  177.1540  146.0060 C   0  0  0  0  0  0  0  0  0  0  0  0
  191.6860  176.4340  145.3440 C   0  0  0  0  0  3  0  0  0  0  0  0
  192.1560  175.9340  147.7490 C   0  0  0  0  0  1  0  0  0  0  0  0
  189.4910  177.2200  144.6550 C   0  0  0  0  0  0  0  0  0  0  0  0
  189.9560  176.7380  146.9690 N   0  0  0  0  0  0  0  0  0  0  0  0
  190.8110  176.8540  144.3370 C   0  0  0  0  0  3  0  0  0  0  0  0
  188.9270  177.7360  142.3200 C   0  0  0  0  0  3  0  0  0  0  0  0
  188.5730  177.6540  143.6750 C   0  0  0  0  0  0  0  0  0  0  0  0
  186.9150  177.9460  145.3920 N   0  0  0  0  0  0  0  0  0  0  0  0
  186.3360  178.4790  143.1250 C   0  0  0  0  0  0  0  0  0  0  0  0
  186.7160  178.5530  141.7760 C   0  0  0  0  0  3  0  0  0  0  0  0
  187.7860  177.5230  146.3490 C   0  0  0  0  0  3  0  0  0  0  0  0
  188.3550  178.2810  139.9210 C   0  0  1  0  0  3  0  0  0  0  0  0
  189.8270  177.9540  139.7040 C   0  0  0  0  0  1  0  0  0  0  0  0
  187.5130  177.4010  139.1210 N   0  0  0  0  0  2  0  0  0  0  0  0
  186.8200  177.8600  137.9570 C   0  0  0  0  0  0  0  0  0  0  0  0
  186.9150  179.0610  137.5870 O   0  0  0  0  0  0  0  0  0  0  0  0
  185.9530  176.9200  137.1900 C   0  0  0  0  0  2  0  0  0  0  0  0
  186.4160  176.8240  135.7410 C   0  0  2  0  0  3  0  0  0  0  0  0
  187.3250  174.7300  134.9340 C   0  0  0  0  0  2  0  0  0  0  0  0
  189.9680  175.4990  136.2720 N   0  0  0  0  0  0  0  0  0  0  0  0
  188.9030  176.4240  135.9770 C   0  0  0  0  0  0  0  0  0  0  0  0
  185.3480  176.1560  134.8960 C   0  0  0  0  0  2  0  0  0  0  0  0
  187.5800  175.9610  135.6570 N   0  0  0  0  0  0  0  0  0  0  0  0
  192.1630  175.1250  137.1670 N   0  0  0  0  0  2  0  0  0  0  0  0
  190.7910  173.1960  136.3440 C   0  0  0  0  0  2  0  0  0  0  0  0
  192.1950  173.7530  136.6390 C   0  0  0  0  0  2  0  0  0  0  0  0
  189.6740  174.1560  136.7570 C   0  0  0  0  0  2  0  0  0  0  0  0
  191.3570  175.9750  136.2910 C   0  0  0  0  0  2  0  0  0  0  0  0
  189.1350  177.6670  136.0030 O   0  0  0  0  0  0  0  0  0  0  0  0
  185.8420  174.7420  134.6060 C   0  0  0  0  0  2  0  0  0  0  0  0
  185.0630  178.8790  143.5650 O   0  0  0  0  0  0  0  0  0  0  0  0
  181.4060  178.8330  142.7830 C   0  0  0  0  0  3  0  0  0  0  0  0
  181.4410  178.3770  141.4630 C   0  0  0  0  0  0  0  0  0  0  0  0
  183.8580  178.2630  141.5710 C   0  0  0  0  0  3  0  0  0  0  0  0
  182.5980  179.0040  143.4970 C   0  0  0  0  0  3  0  0  0  0  0  0
  183.8350  178.7150  142.8960 C   0  0  0  0  0  0  0  0  0  0  0  0
  182.6680  178.0870  140.8610 C   0  0  0  0  0  3  0  0  0  0  0  0
  179.1960  177.5090  141.5570 N   0  0  0  0  0  1  0  0  0  0  0  0
  180.1720  178.1720  140.7070 C   0  0  0  0  0  2  0  0  0  0  0  0
  1  8  1  0  0  0  0
  1  6  1  0  0  0  0
  2 12  1  0  0  0  0
  3 14  2  0  0  0  0
  3 10  1  0  0  0  0
  4 15  1  0  0  0  0
  4  8  2  0  0  0  0
  5  1  2  0  0  0  0
  7  4  1  0  0  0  0
  9  7  2  0  0  0  0
  9  5  1  0  0  0  0
 10 11  2  0  0  0  0
 11  2  1  0  0  0  0
 11  7  1  0  0  0  0
 12 15  2  0  0  0  0
 13 35  1  0  0  0  0
 13  2  2  0  0  0  0
 14 13  1  0  0  0  0
 16 17  1  1  0  0  0
 16  3  1  0  0  0  0
 18 16  1  0  0  0  0
 19 18  1  0  0  0  0
 20 19  2  0  0  0  0
 21 19  1  0  0  0  0
 22 21  1  1  0  0  0
 23 27  1  0  0  0  0
 24 32  1  0  0  0  0
 24 31  1  0  0  0  0
 25 33  2  0  0  0  0
 25 24  1  0  0  0  0
 26 22  1  0  0  0  0
 27 22  1  0  0  0  0
 27 25  1  0  0  0  0
 29 30  1  0  0  0  0
 29 31  1  0  0  0  0
 30 28  1  0  0  0  0
 32 28  1  0  0  0  0
 34 26  1  0  0  0  0
 34 23  1  0  0  0  0
 36 39  1  0  0  0  0
 37 36  2  0  0  0  0
 38 40  1  0  0  0  0
 40 39  2  0  0  0  0
 40 35  1  0  0  0  0
 41 37  1  0  0  0  0
 41 38  2  0  0  0  0
 43 37  1  0  0  0  0
 43 42  1  0  0  0  0
M  END
>  <MODEL>
5

>  <REMARK>
 VINA RESULT:      -9.4      2.716      5.422
  Name = 
  7 active torsions:
  status: ('A' for Active; 'I' for Inactive)
    1  A    between atoms: O_1  and  C_34
    2  A    between atoms: O_1  and  C_35
    3  A    between atoms: C_2  and  N_6
    4  A    between atoms: C_2  and  C_13
    5  A    between atoms: C_3  and  C_4
    6  A    between atoms: C_3  and  C_12
    7  A    between atoms: C_19  and  C_37
                            x       y       z     vdW  Elec       q    Type
                         _______ _______ _______ _____ _____    ______ ____

>  <TORSDO>
F 7

$$$$
=
 OpenBabel10262422053D

 43 48  0  0  1  0  0  0  0  0999 V2000
  190.9210  176.7480  146.6840 C   0  0  0  0  0  0  0  0  0  0  0  0
  188.6850  178.1110  142.4040 C   0  0  0  0  0  0  0  0  0  0  0  0
  185.9160  178.2120  142.8630 C   0  0  0  0  0  0  0  0  0  0  0  0
  190.4530  177.4120  144.4490 C   0  0  0  0  0  0  0  0  0  0  0  0
  189.5580  176.7670  146.9990 C   0  0  0  0  0  3  0  0  0  0  0  0
  191.9180  176.3770  147.7250 C   0  0  0  0  0  1  0  0  0  0  0  0
  189.0680  177.4500  144.7180 C   0  0  0  0  0  0  0  0  0  0  0  0
  191.3370  177.0690  145.4280 N   0  0  0  0  0  0  0  0  0  0  0  0
  188.6300  177.1190  146.0120 C   0  0  0  0  0  3  0  0  0  0  0  0
  186.7850  177.8610  143.9050 C   0  0  0  0  0  3  0  0  0  0  0  0
  188.1700  177.8080  143.6880 C   0  0  0  0  0  0  0  0  0  0  0  0
  190.0310  178.0620  142.1870 N   0  0  0  0  0  0  0  0  0  0  0  0
  187.8150  178.4510  141.3540 C   0  0  0  0  0  0  0  0  0  0  0  0
  186.4330  178.4960  141.5970 C   0  0  0  0  0  3  0  0  0  0  0  0
  190.9110  177.7250  143.1700 C   0  0  0  0  0  3  0  0  0  0  0  0
  184.4370  178.2680  143.0680 C   0  0  1  0  0  3  0  0  0  0  0  0
  184.1020  178.9030  144.4120 C   0  0  0  0  0  1  0  0  0  0  0  0
  183.7960  178.9990  141.9830 N   0  0  0  0  0  2  0  0  0  0  0  0
  183.1560  178.3350  140.8900 C   0  0  0  0  0  0  0  0  0  0  0  0
  183.1340  177.0760  140.8290 O   0  0  0  0  0  0  0  0  0  0  0  0
  182.5360  179.1350  139.7950 C   0  0  0  0  0  2  0  0  0  0  0  0
  181.0260  179.2180  139.9790 C   0  0  2  0  0  3  0  0  0  0  0  0
  179.8570  177.3330  140.9500 C   0  0  0  0  0  2  0  0  0  0  0  0
  179.9700  175.9970  138.1980 N   0  0  0  0  0  0  0  0  0  0  0  0
  180.1770  177.4030  138.4320 C   0  0  0  0  0  0  0  0  0  0  0  0
  180.6950  179.5740  141.4160 C   0  0  0  0  0  2  0  0  0  0  0  0
  180.4350  177.9110  139.7530 N   0  0  0  0  0  0  0  0  0  0  0  0
  179.8440  174.1790  136.6360 N   0  0  0  0  0  2  0  0  0  0  0  0
  179.6290  173.7460  139.0950 C   0  0  0  0  0  2  0  0  0  0  0  0
  179.3170  173.2710  137.6650 C   0  0  0  0  0  2  0  0  0  0  0  0
  180.5000  175.0030  139.1250 C   0  0  0  0  0  2  0  0  0  0  0  0
  179.4130  175.5490  136.9160 C   0  0  0  0  0  2  0  0  0  0  0  0
  180.1350  178.2080  137.4580 O   0  0  0  0  0  0  0  0  0  0  0  0
  180.1860  178.2960  142.0770 C   0  0  0  0  0  2  0  0  0  0  0  0
  188.3580  178.7020  140.0830 O   0  0  0  0  0  0  0  0  0  0  0  0
  187.3000  177.0120  136.9200 C   0  0  0  0  0  3  0  0  0  0  0  0
  188.3790  176.1450  136.7290 C   0  0  0  0  0  0  0  0  0  0  0  0
  189.4070  176.9880  138.7540 C   0  0  0  0  0  3  0  0  0  0  0  0
  187.2740  177.8660  138.0280 C   0  0  0  0  0  3  0  0  0  0  0  0
  188.3290  177.8570  138.9580 C   0  0  0  0  0  0  0  0  0  0  0  0
  189.4300  176.1310  137.6510 C   0  0  0  0  0  3  0  0  0  0  0  0
  187.2540  175.4830  134.7050 N   0  0  0  0  0  1  0  0  0  0  0  0
  188.3980  175.2170  135.5620 C   0  0  0  0  0  2  0  0  0  0  0  0
  1  5  1  0  0  0  0
  1  6  1  0  0  0  0
  2 11  1  0  0  0  0
  3 16  1  0  0  0  0
  3 10  1  0  0  0  0
  4  7  2  0  0  0  0
  4  8  1  0  0  0  0
  7  9  1  0  0  0  0
  8  1  2  0  0  0  0
  9  5  2  0  0  0  0
 11 10  2  0  0  0  0
 11  7  1  0  0  0  0
 12  2  1  0  0  0  0
 12 15  2  0  0  0  0
 13 14  1  0  0  0  0
 13  2  2  0  0  0  0
 14  3  2  0  0  0  0
 15  4  1  0  0  0  0
 16 17  1  1  0  0  0
 18 16  1  0  0  0  0
 19 18  1  0  0  0  0
 20 19  2  0  0  0  0
 21 19  1  0  0  0  0
 22 21  1  1  0  0  0
 22 26  1  0  0  0  0
 23 34  1  0  0  0  0
 24 25  1  0  0  0  0
 24 31  1  0  0  0  0
 25 27  1  0  0  0  0
 26 34  1  0  0  0  0
 27 22  1  0  0  0  0
 27 23  1  0  0  0  0
 28 32  1  0  0  0  0
 28 30  1  0  0  0  0
 29 31  1  0  0  0  0
 30 29  1  0  0  0  0
 32 24  1  0  0  0  0
 33 25  2  0  0  0  0
 35 13  1  0  0  0  0
 36 39  1  0  0  0  0
 37 36  2  0  0  0  0
 37 41  1  0  0  0  0
 38 40  1  0  0  0  0
 39 40  2  0  0  0  0
 40 35  1  0  0  0  0
 41 38  2  0  0  0  0
 42 43  1  0  0  0  0
 43 37  1  0  0  0  0
M  END
>  <MODEL>
6

>  <REMARK>
 VINA RESULT:      -9.2      2.537      5.673
  Name = 
  7 active torsions:
  status: ('A' for Active; 'I' for Inactive)
    1  A    between atoms: O_1  and  C_34
    2  A    between atoms: O_1  and  C_35
    3  A    between atoms: C_2  and  N_6
    4  A    between atoms: C_2  and  C_13
    5  A    between atoms: C_3  and  C_4
    6  A    between atoms: C_3  and  C_12
    7  A    between atoms: C_19  and  C_37
                            x       y       z     vdW  Elec       q    Type
                         _______ _______ _______ _____ _____    ______ ____

>  <TORSDO>
F 7

$$$$
=
 OpenBabel10262422053D

 43 48  0  0  1  0  0  0  0  0999 V2000
  187.8570  177.5270  146.9270 C   0  0  0  0  0  0  0  0  0  0  0  0
  187.8970  178.2910  141.9700 C   0  0  0  0  0  0  0  0  0  0  0  0
  185.2360  178.5520  141.1080 C   0  0  0  0  0  0  0  0  0  0  0  0
  188.4970  177.8560  144.6620 C   0  0  0  0  0  0  0  0  0  0  0  0
  186.5050  177.6380  146.5860 C   0  0  0  0  0  3  0  0  0  0  0  0
  188.2480  177.2870  148.3440 C   0  0  0  0  0  1  0  0  0  0  0  0
  187.1470  177.9800  144.2660 C   0  0  0  0  0  0  0  0  0  0  0  0
  188.8160  177.6380  145.9680 N   0  0  0  0  0  0  0  0  0  0  0  0
  186.1510  177.8660  145.2520 C   0  0  0  0  0  3  0  0  0  0  0  0
  185.5140  178.3370  142.4640 C   0  0  0  0  0  3  0  0  0  0  0  0
  186.8390  178.2060  142.9070 C   0  0  0  0  0  0  0  0  0  0  0  0
  189.1870  178.1650  142.3930 N   0  0  0  0  0  0  0  0  0  0  0  0
  187.6200  178.4960  140.6060 C   0  0  0  0  0  0  0  0  0  0  0  0
  186.2860  178.6220  140.1900 C   0  0  0  0  0  3  0  0  0  0  0  0
  189.5020  177.9540  143.7010 C   0  0  0  0  0  3  0  0  0  0  0  0
  183.8320  178.6870  140.6130 C   0  0  1  0  0  3  0  0  0  0  0  0
  183.7680  179.6400  139.4260 C   0  0  0  0  0  1  0  0  0  0  0  0
  183.2900  177.3840  140.2510 N   0  0  0  0  0  2  0  0  0  0  0  0
  181.8830  177.1320  140.1970 C   0  0  0  0  0  0  0  0  0  0  0  0
  181.0580  178.0450  140.4700 O   0  0  0  0  0  0  0  0  0  0  0  0
  181.3840  175.7720  139.8430 C   0  0  0  0  0  2  0  0  0  0  0  0
  180.9220  175.7310  138.3920 C   0  0  2  0  0  3  0  0  0  0  0  0
  181.0570  173.6410  137.1760 C   0  0  0  0  0  2  0  0  0  0  0  0
  184.0340  174.2140  136.7560 N   0  0  0  0  0  0  0  0  0  0  0  0
  183.0590  175.2020  137.1430 C   0  0  0  0  0  0  0  0  0  0  0  0
  179.5200  175.1580  138.3070 C   0  0  0  0  0  2  0  0  0  0  0  0
  181.7640  174.8190  137.6380 N   0  0  0  0  0  0  0  0  0  0  0  0
  186.3130  173.6900  136.2150 N   0  0  0  0  0  2  0  0  0  0  0  0
  184.5880  171.8740  136.3050 C   0  0  0  0  0  2  0  0  0  0  0  0
  185.9410  172.3480  135.7450 C   0  0  0  0  0  2  0  0  0  0  0  0
  183.9810  172.8620  137.3010 C   0  0  0  0  0  2  0  0  0  0  0  0
  185.2100  174.6220  135.9780 C   0  0  0  0  0  2  0  0  0  0  0  0
  183.3480  176.4290  137.0500 O   0  0  0  0  0  0  0  0  0  0  0  0
  179.6590  173.7400  137.7630 C   0  0  0  0  0  2  0  0  0  0  0  0
  188.6920  178.5310  139.6990 O   0  0  0  0  0  0  0  0  0  0  0  0
  189.1130  175.7130  137.2780 C   0  0  0  0  0  3  0  0  0  0  0  0
  190.4250  175.3310  137.5680 C   0  0  0  0  0  0  0  0  0  0  0  0
  190.5520  177.0650  139.2530 C   0  0  0  0  0  3  0  0  0  0  0  0
  188.5200  176.7710  137.9760 C   0  0  0  0  0  3  0  0  0  0  0  0
  189.2360  177.4540  138.9740 C   0  0  0  0  0  0  0  0  0  0  0  0
  191.1410  176.0050  138.5600 C   0  0  0  0  0  3  0  0  0  0  0  0
  192.4450  174.0600  137.2350 N   0  0  0  0  0  1  0  0  0  0  0  0
  191.0510  174.1880  136.8420 C   0  0  0  0  0  2  0  0  0  0  0  0
  1  6  1  0  0  0  0
  2 12  1  0  0  0  0
  2 11  1  0  0  0  0
  3 10  1  0  0  0  0
  4  8  1  0  0  0  0
  5  1  1  0  0  0  0
  7  4  2  0  0  0  0
  7  9  1  0  0  0  0
  8  1  2  0  0  0  0
  9  5  2  0  0  0  0
 10 11  2  0  0  0  0
 11  7  1  0  0  0  0
 12 15  2  0  0  0  0
 13  2  2  0  0  0  0
 14 13  1  0  0  0  0
 14  3  2  0  0  0  0
 15  4  1  0  0  0  0
 16 17  1  6  0  0  0
 16  3  1  0  0  0  0
 18 16  1  0  0  0  0
 19 18  1  0  0  0  0
 19 20  2  0  0  0  0
 21 19  1  0  0  0  0
 22 21  1  1  0  0  0
 23 27  1  0  0  0  0
 23 34  1  0  0  0  0
 24 25  1  0  0  0  0
 24 31  1  0  0  0  0
 25 27  1  0  0  0  0
 26 22  1  0  0  0  0
 27 22  1  0  0  0  0
 29 31  1  0  0  0  0
 30 28  1  0  0  0  0
 30 29  1  0  0  0  0
 32 28  1  0  0  0  0
 32 24  1  0  0  0  0
 33 25  2  0  0  0  0
 34 26  1  0  0  0  0
 35 13  1  0  0  0  0
 36 37  2  0  0  0  0
 36 39  1  0  0  0  0
 37 41  1  0  0  0  0
 39 40  2  0  0  0  0
 40 38  1  0  0  0  0
 40 35  1  0  0  0  0
 41 38  2  0  0  0  0
 43 42  1  0  0  0  0
 43 37  1  0  0  0  0
M  END
>  <MODEL>
7

>  <REMARK>
 VINA RESULT:      -9.1      3.062      6.746
  Name = 
  7 active torsions:
  status: ('A' for Active; 'I' for Inactive)
    1  A    between atoms: O_1  and  C_34
    2  A    between atoms: O_1  and  C_35
    3  A    between atoms: C_2  and  N_6
    4  A    between atoms: C_2  and  C_13
    5  A    between atoms: C_3  and  C_4
    6  A    between atoms: C_3  and  C_12
    7  A    between atoms: C_19  and  C_37
                            x       y       z     vdW  Elec       q    Type
                         _______ _______ _______ _____ _____    ______ ____

>  <TORSDO>
F 7

$$$$
=
 OpenBabel10262422053D

 43 48  0  0  1  0  0  0  0  0999 V2000
  180.2790  173.9920  138.0990 C   0  0  0  0  0  0  0  0  0  0  0  0
  183.8640  177.4340  138.7820 C   0  0  0  0  0  0  0  0  0  0  0  0
  183.4660  178.6190  141.2970 C   0  0  0  0  0  0  0  0  0  0  0  0
  182.1620  175.4230  137.8580 C   0  0  0  0  0  0  0  0  0  0  0  0
  180.0030  174.5310  139.3600 C   0  0  0  0  0  3  0  0  0  0  0  0
  179.4070  172.9220  137.5420 C   0  0  0  0  0  1  0  0  0  0  0  0
  181.9290  175.9960  139.1270 C   0  0  0  0  0  0  0  0  0  0  0  0
  181.3440  174.4440  137.3810 N   0  0  0  0  0  0  0  0  0  0  0  0
  180.8310  175.5360  139.8740 C   0  0  0  0  0  3  0  0  0  0  0  0
  182.6000  177.6100  140.8540 C   0  0  0  0  0  3  0  0  0  0  0  0
  182.7900  177.0100  139.6000 C   0  0  0  0  0  0  0  0  0  0  0  0
  184.0550  176.8550  137.5620 N   0  0  0  0  0  0  0  0  0  0  0  0
  184.7270  178.4550  139.2180 C   0  0  0  0  0  0  0  0  0  0  0  0
  184.5140  179.0400  140.4760 C   0  0  0  0  0  3  0  0  0  0  0  0
  183.2380  175.8710  137.0920 C   0  0  0  0  0  3  0  0  0  0  0  0
  183.2780  179.2790  142.6250 C   0  0  1  0  0  3  0  0  0  0  0  0
  182.1920  178.5740  143.4280 C   0  0  0  0  0  1  0  0  0  0  0  0
  184.5310  179.2980  143.3680 N   0  0  0  0  0  2  0  0  0  0  0  0
  184.5700  179.2830  144.7980 C   0  0  0  0  0  0  0  0  0  0  0  0
  183.5020  179.2580  145.4680 O   0  0  0  0  0  0  0  0  0  0  0  0
  185.8810  179.3280  145.5070 C   0  0  0  0  0  2  0  0  0  0  0  0
  186.2720  177.9400  146.0000 C   0  0  2  0  0  3  0  0  0  0  0  0
  188.5510  177.5480  146.7180 C   0  0  0  0  0  2  0  0  0  0  0  0
  189.3100  177.2810  143.7640 N   0  0  0  0  0  0  0  0  0  0  0  0
  187.9640  177.1930  144.2720 C   0  0  0  0  0  0  0  0  0  0  0  0
  186.2760  177.9070  147.5160 C   0  0  0  0  0  2  0  0  0  0  0  0
  187.6360  177.6470  145.5980 N   0  0  0  0  0  0  0  0  0  0  0  0
  190.7930  177.2080  141.8800 N   0  0  0  0  0  2  0  0  0  0  0  0
  191.6810  177.7340  144.1640 C   0  0  0  0  0  2  0  0  0  0  0  0
  191.9760  177.1950  142.7520 C   0  0  0  0  0  2  0  0  0  0  0  0
  190.2500  178.2530  144.3120 C   0  0  0  0  0  2  0  0  0  0  0  0
  189.6750  176.5430  142.5490 C   0  0  0  0  0  2  0  0  0  0  0  0
  187.0540  176.7120  143.5400 O   0  0  0  0  0  0  0  0  0  0  0  0
  187.7390  177.9080  147.9490 C   0  0  0  0  0  2  0  0  0  0  0  0
  185.7560  178.8810  138.3610 O   0  0  0  0  0  0  0  0  0  0  0  0
  189.0530  177.2000  138.8940 C   0  0  0  0  0  3  0  0  0  0  0  0
  189.4380  176.9840  137.5680 C   0  0  0  0  0  0  0  0  0  0  0  0
  187.3890  178.0270  136.8080 C   0  0  0  0  0  3  0  0  0  0  0  0
  187.8350  177.8300  139.1760 C   0  0  0  0  0  3  0  0  0  0  0  0
  186.9940  178.2530  138.1320 C   0  0  0  0  0  0  0  0  0  0  0  0
  188.6070  177.4040  136.5270 C   0  0  0  0  0  3  0  0  0  0  0  0
  191.1070  175.4300  138.3430 N   0  0  0  0  0  1  0  0  0  0  0  0
  190.7460  176.3340  137.2640 C   0  0  0  0  0  2  0  0  0  0  0  0
  1  5  1  0  0  0  0
  2 13  2  0  0  0  0
  2 11  1  0  0  0  0
  3 16  1  0  0  0  0
  4  7  2  0  0  0  0
  5  9  2  0  0  0  0
  6  1  1  0  0  0  0
  7 11  1  0  0  0  0
  7  9  1  0  0  0  0
  8  4  1  0  0  0  0
  8  1  2  0  0  0  0
 10  3  1  0  0  0  0
 11 10  2  0  0  0  0
 12  2  1  0  0  0  0
 13 14  1  0  0  0  0
 14  3  2  0  0  0  0
 15 12  2  0  0  0  0
 15  4  1  0  0  0  0
 16 18  1  0  0  0  0
 16 17  1  1  0  0  0
 18 19  1  0  0  0  0
 19 20  2  0  0  0  0
 19 21  1  0  0  0  0
 22 21  1  1  0  0  0
 22 26  1  0  0  0  0
 23 34  1  0  0  0  0
 24 25  1  0  0  0  0
 24 31  1  0  0  0  0
 25 27  1  0  0  0  0
 26 34  1  0  0  0  0
 27 22  1  0  0  0  0
 27 23  1  0  0  0  0
 28 32  1  0  0  0  0
 28 30  1  0  0  0  0
 29 31  1  0  0  0  0
 30 29  1  0  0  0  0
 32 24  1  0  0  0  0
 33 25  2  0  0  0  0
 35 13  1  0  0  0  0
 36 39  1  0  0  0  0
 37 36  2  0  0  0  0
 38 40  1  0  0  0  0
 40 35  1  0  0  0  0
 40 39  2  0  0  0  0
 41 38  2  0  0  0  0
 41 37  1  0  0  0  0
 43 37  1  0  0  0  0
 43 42  1  0  0  0  0
M  END
>  <MODEL>
8

>  <REMARK>
 VINA RESULT:      -9.1      2.924      9.894
  Name = 
  7 active torsions:
  status: ('A' for Active; 'I' for Inactive)
    1  A    between atoms: O_1  and  C_34
    2  A    between atoms: O_1  and  C_35
    3  A    between atoms: C_2  and  N_6
    4  A    between atoms: C_2  and  C_13
    5  A    between atoms: C_3  and  C_4
    6  A    between atoms: C_3  and  C_12
    7  A    between atoms: C_19  and  C_37
                            x       y       z     vdW  Elec       q    Type
                         _______ _______ _______ _____ _____    ______ ____

>  <TORSDO>
F 7

$$$$
=
 OpenBabel10262422053D

 43 48  0  0  1  0  0  0  0  0999 V2000
  191.6670  176.0770  146.8870 C   0  0  0  0  0  0  0  0  0  0  0  0
  187.7280  177.8080  144.3080 C   0  0  0  0  0  0  0  0  0  0  0  0
  188.3320  177.6280  141.5710 C   0  0  0  0  0  0  0  0  0  0  0  0
  189.5620  176.9720  146.2400 C   0  0  0  0  0  0  0  0  0  0  0  0
  192.0540  175.9580  145.5480 C   0  0  0  0  0  3  0  0  0  0  0  0
  192.6000  175.6570  147.9690 C   0  0  0  0  0  1  0  0  0  0  0  0
  189.9020  176.8670  144.8740 C   0  0  0  0  0  0  0  0  0  0  0  0
  190.4410  176.5760  147.2030 N   0  0  0  0  0  0  0  0  0  0  0  0
  191.1680  176.3540  144.5400 C   0  0  0  0  0  3  0  0  0  0  0  0
  189.2670  177.2000  142.5230 C   0  0  0  0  0  3  0  0  0  0  0  0
  188.9760  177.2840  143.8930 C   0  0  0  0  0  0  0  0  0  0  0  0
  187.4380  177.8920  145.6380 N   0  0  0  0  0  0  0  0  0  0  0  0
  186.7930  178.2490  143.3550 C   0  0  0  0  0  0  0  0  0  0  0  0
  187.1100  178.1550  141.9910 C   0  0  0  0  0  3  0  0  0  0  0  0
  188.3170  177.4890  146.5970 C   0  0  0  0  0  3  0  0  0  0  0  0
  188.6240  177.5550  140.1070 C   0  0  1  0  0  3  0  0  0  0  0  0
  188.6800  178.9500  139.4980 C   0  0  0  0  0  1  0  0  0  0  0  0
  189.8720  176.8420  139.8680 N   0  0  0  0  0  2  0  0  0  0  0  0
  190.5340  176.8690  138.6000 C   0  0  0  0  0  0  0  0  0  0  0  0
  190.0450  177.5160  137.6350 O   0  0  0  0  0  0  0  0  0  0  0  0
  191.7980  176.1020  138.4060 C   0  0  0  0  0  2  0  0  0  0  0  0
  191.9270  175.6360  136.9610 C   0  0  2  0  0  3  0  0  0  0  0  0
  192.9580  173.4940  136.5050 C   0  0  0  0  0  2  0  0  0  0  0  0
  195.6750  174.8600  136.8510 N   0  0  0  0  0  0  0  0  0  0  0  0
  194.4340  175.5570  136.6230 C   0  0  0  0  0  0  0  0  0  0  0  0
  190.8180  174.6550  136.6290 C   0  0  0  0  0  2  0  0  0  0  0  0
  193.1660  174.8990  136.7950 N   0  0  0  0  0  0  0  0  0  0  0  0
  198.0470  174.9680  137.1980 N   0  0  0  0  0  2  0  0  0  0  0  0
  196.8570  172.7640  137.2890 C   0  0  0  0  0  2  0  0  0  0  0  0
  198.1810  173.5120  137.0490 C   0  0  0  0  0  2  0  0  0  0  0  0
  195.7230  173.6930  137.7240 C   0  0  0  0  0  2  0  0  0  0  0  0
  196.9340  175.4500  136.3800 C   0  0  0  0  0  2  0  0  0  0  0  0
  194.4580  176.7700  136.2690 O   0  0  0  0  0  0  0  0  0  0  0  0
  191.4580  173.2710  136.5890 C   0  0  0  0  0  2  0  0  0  0  0  0
  185.5830  178.8040  143.8040 O   0  0  0  0  0  0  0  0  0  0  0  0
  182.8980  178.3200  141.2470 C   0  0  0  0  0  3  0  0  0  0  0  0
  181.7700  178.6290  142.0100 C   0  0  0  0  0  0  0  0  0  0  0  0
  183.1880  179.0460  143.9280 C   0  0  0  0  0  3  0  0  0  0  0  0
  184.1720  178.3740  141.8250 C   0  0  0  0  0  3  0  0  0  0  0  0
  184.3270  178.7430  143.1720 C   0  0  0  0  0  0  0  0  0  0  0  0
  181.9180  178.9970  143.3500 C   0  0  0  0  0  3  0  0  0  0  0  0
  179.5630  177.6690  142.1220 N   0  0  0  0  0  1  0  0  0  0  0  0
  180.4130  178.5940  141.3910 C   0  0  0  0  0  2  0  0  0  0  0  0
  1  8  1  0  0  0  0
  1  6  1  0  0  0  0
  2 12  1  0  0  0  0
  3 14  2  0  0  0  0
  3 10  1  0  0  0  0
  4 15  1  0  0  0  0
  4  8  2  0  0  0  0
  5  1  2  0  0  0  0
  7  4  1  0  0  0  0
  9  7  2  0  0  0  0
  9  5  1  0  0  0  0
 10 11  2  0  0  0  0
 11  2  1  0  0  0  0
 11  7  1  0  0  0  0
 12 15  2  0  0  0  0
 13 35  1  0  0  0  0
 13  2  2  0  0  0  0
 14 13  1  0  0  0  0
 16 17  1  1  0  0  0
 16  3  1  0  0  0  0
 18 16  1  0  0  0  0
 19 18  1  0  0  0  0
 20 19  2  0  0  0  0
 21 19  1  0  0  0  0
 22 21  1  1  0  0  0
 23 34  1  0  0  0  0
 23 27  1  0  0  0  0
 24 31  1  0  0  0  0
 25 27  1  0  0  0  0
 25 24  1  0  0  0  0
 26 22  1  0  0  0  0
 27 22  1  0  0  0  0
 29 31  1  0  0  0  0
 30 28  1  0  0  0  0
 30 29  1  0  0  0  0
 32 24  1  0  0  0  0
 32 28  1  0  0  0  0
 33 25  2  0  0  0  0
 34 26  1  0  0  0  0
 36 39  2  0  0  0  0
 36 37  1  0  0  0  0
 37 41  2  0  0  0  0
 39 40  1  0  0  0  0
 40 35  1  0  0  0  0
 40 38  2  0  0  0  0
 41 38  1  0  0  0  0
 43 37  1  0  0  0  0
 43 42  1  0  0  0  0
M  END
>  <MODEL>
9

>  <REMARK>
 VINA RESULT:      -9.1      4.739      8.180
  Name = 
  7 active torsions:
  status: ('A' for Active; 'I' for Inactive)
    1  A    between atoms: O_1  and  C_34
    2  A    between atoms: O_1  and  C_35
    3  A    between atoms: C_2  and  N_6
    4  A    between atoms: C_2  and  C_13
    5  A    between atoms: C_3  and  C_4
    6  A    between atoms: C_3  and  C_12
    7  A    between atoms: C_19  and  C_37
                            x       y       z     vdW  Elec       q    Type
                         _______ _______ _______ _____ _____    ______ ____

>  <TORSDO>
F 7

$$$$
