=
 OpenBabel10262421433D

 30 35  0  0  1  0  0  0  0  0999 V2000
  187.5410  177.3160  140.7600 C   0  0  1  0  0  3  0  0  0  0  0  0
  188.4760  177.0930  141.9340 C   0  0  1  0  0  0  0  0  0  0  0  0
  186.6800  178.5530  141.0050 C   0  0  0  0  0  2  0  0  0  0  0  0
  185.7500  177.9380  144.6100 C   0  0  0  0  0  2  0  0  0  0  0  0
  190.2820  176.6700  144.0940 C   0  0  1  0  0  3  0  0  0  0  0  0
  186.7330  178.0260  143.4590 C   0  0  2  0  0  3  0  0  0  0  0  0
  184.7380  179.0950  142.6340 C   0  0  0  0  0  2  0  0  0  0  0  0
  190.7310  177.6620  143.0330 C   0  0  2  0  0  3  0  0  0  0  0  0
  185.8540  178.1630  142.2220 C   0  0  1  0  0  3  0  0  0  0  0  0
  187.8240  176.9270  143.3400 C   0  0  2  0  0  3  0  0  0  0  0  0
  191.3460  178.8200  143.7760 C   0  0  0  0  0  2  0  0  0  0  0  0
  191.2800  176.8470  145.2320 C   0  0  0  0  0  2  0  0  0  0  0  0
  183.6970  179.1430  144.7810 O   0  0  0  0  0  0  0  0  0  0  0  0
  184.6250  178.7670  144.0860 C   0  0  0  0  0  0  0  0  0  0  0  0
  188.7440  177.3210  139.8090 C   0  0  1  0  0  0  0  0  0  0  0  0
  189.6750  176.9790  141.0020 C   0  0  1  0  0  3  0  0  0  0  0  0
  189.6580  178.0750  142.0250 C   0  0  1  0  0  3  0  0  0  0  0  0
  191.9720  178.1900  145.0100 C   0  0  0  0  0  2  0  0  0  0  0  0
  188.7000  178.1230  145.4780 C   0  0  0  0  0  1  0  0  0  0  0  0
  188.8260  176.9160  144.5380 C   0  0  2  0  0  3  0  0  0  0  0  0
  188.6310  176.1720  138.7750 C   0  0  2  0  0  3  0  0  0  0  0  0
  189.8910  175.9470  137.9870 C   0  0  0  0  0  3  0  0  0  0  0  0
  190.6390  175.0230  138.2640 O   0  0  0  0  0  0  0  0  0  0  0  0
  187.4650  176.3600  137.8150 C   0  0  0  0  0  2  0  0  0  0  0  0
  187.4030  175.2790  136.9370 O   0  0  0  0  0  1  0  0  0  0  0  0
  188.9450  178.6970  139.1170 C   0  0  0  0  0  2  0  0  0  0  0  0
  189.6410  178.6700  137.7560 C   0  0  0  0  0  2  0  0  0  0  0  0
  188.6940  178.9180  136.6350 C   0  0  0  0  0  0  0  0  0  0  0  0
  188.8960  178.3480  135.4580 C   0  0  0  0  0  2  0  0  0  0  0  0
  187.6060  179.7610  136.8170 O   0  0  0  0  0  1  0  0  0  0  0  0
  1  3  1  1  0  0  0
  1  2  1  0  0  0  0
  2 17  1  0  0  0  0
  2 10  1  0  0  0  0
  3  9  1  0  0  0  0
  5 20  1  0  0  0  0
  5 12  1  0  0  0  0
  6  4  1  0  0  0  0
  7 14  1  0  0  0  0
  8 11  1  0  0  0  0
  8  5  1  0  0  0  0
  9  7  1  0  0  0  0
  9  6  1  0  0  0  0
 10  6  1  0  0  0  0
 10 20  1  0  0  0  0
 11 18  1  0  0  0  0
 14  4  1  0  0  0  0
 14 13  2  0  0  0  0
 15  1  1  0  0  0  0
 15 16  1  0  0  0  0
 16  2  1  0  0  0  0
 16 17  1  0  0  0  0
 17  8  1  0  0  0  0
 18 12  1  0  0  0  0
 20 19  1  0  0  0  0
 21 15  1  0  0  0  0
 22 23  2  0  0  0  0
 22 21  1  0  0  0  0
 24 21  1  0  0  0  0
 25 24  1  0  0  0  0
 26 15  1  0  0  0  0
 27 26  1  0  0  0  0
 28 30  1  0  0  0  0
 28 27  1  0  0  0  0
 29 28  2  0  0  0  0
M  END
>  <MODEL>
1

>  <REMARK>
 VINA RESULT:      -6.7      0.000      0.000
  Name = 
  6 active torsions:
  status: ('A' for Active; 'I' for Inactive)
    1  A    between atoms: C_2  and  C_14
    2  A    between atoms: C_3  and  C_19
    3  A    between atoms: C_14  and  C_20
    4  A    between atoms: C_14  and  C_22
    5  A    between atoms: C_19  and  C_29
    6  A    between atoms: C_22  and  C_29
                            x       y       z     vdW  Elec       q    Type
                         _______ _______ _______ _____ _____    ______ ____

>  <TORSDO>
F 6

$$$$
=
 OpenBabel10262421433D

 30 35  0  0  1  0  0  0  0  0999 V2000
  183.3710  176.8630  137.8440 C   0  0  1  0  0  3  0  0  0  0  0  0
  184.7570  177.3440  137.4580 C   0  0  1  0  0  0  0  0  0  0  0  0
  183.4380  175.4220  138.3460 C   0  0  0  0  0  2  0  0  0  0  0  0
  185.7330  173.9760  135.7220 C   0  0  0  0  0  2  0  0  0  0  0  0
  187.3500  178.3010  136.7700 C   0  0  1  0  0  3  0  0  0  0  0  0
  185.3300  175.0210  136.7450 C   0  0  2  0  0  3  0  0  0  0  0  0
  183.8920  173.1420  137.2000 C   0  0  0  0  0  2  0  0  0  0  0  0
  186.9730  178.3930  138.2400 C   0  0  2  0  0  3  0  0  0  0  0  0
  183.9000  174.6510  137.1180 C   0  0  1  0  0  3  0  0  0  0  0  0
  185.5210  176.5190  136.3780 C   0  0  2  0  0  3  0  0  0  0  0  0
  188.1950  177.9650  139.0120 C   0  0  0  0  0  2  0  0  0  0  0  0
  188.8410  178.6100  136.7360 C   0  0  0  0  0  2  0  0  0  0  0  0
  185.1110  171.6720  135.7680 O   0  0  0  0  0  0  0  0  0  0  0  0
  184.9320  172.8050  136.1840 C   0  0  0  0  0  0  0  0  0  0  0  0
  183.2250  178.0620  138.7900 C   0  0  1  0  0  0  0  0  0  0  0  0
  184.5940  178.6030  138.2990 C   0  0  1  0  0  3  0  0  0  0  0  0
  185.6990  177.6460  138.6380 C   0  0  1  0  0  3  0  0  0  0  0  0
  189.3640  178.4280  138.1590 C   0  0  0  0  0  2  0  0  0  0  0  0
  188.0240  175.8430  136.5930 C   0  0  0  0  0  1  0  0  0  0  0  0
  187.0160  176.9200  136.1710 C   0  0  2  0  0  3  0  0  0  0  0  0
  182.0300  178.9530  138.3640 C   0  0  2  0  0  3  0  0  0  0  0  0
  182.2710  180.4210  138.5780 C   0  0  0  0  0  3  0  0  0  0  0  0
  181.5050  181.2490  138.1120 O   0  0  0  0  0  0  0  0  0  0  0  0
  180.7290  178.5540  139.0450 C   0  0  0  0  0  2  0  0  0  0  0  0
  179.9540  177.7980  138.1670 O   0  0  0  0  0  1  0  0  0  0  0  0
  183.1180  177.6310  140.2780 C   0  0  0  0  0  2  0  0  0  0  0  0
  183.2480  178.7490  141.3130 C   0  0  0  0  0  2  0  0  0  0  0  0
  184.5940  178.7750  141.9460 C   0  0  0  0  0  0  0  0  0  0  0  0
  184.8670  177.9650  142.9570 C   0  0  0  0  0  2  0  0  0  0  0  0
  185.5610  179.6600  141.4890 O   0  0  0  0  0  1  0  0  0  0  0  0
  1  3  1  1  0  0  0
  1 15  1  0  0  0  0
  2  1  1  0  0  0  0
  2 16  1  0  0  0  0
  2 17  1  0  0  0  0
  4 14  1  0  0  0  0
  4  6  1  0  0  0  0
  5  8  1  0  0  0  0
  6  9  1  0  0  0  0
  8 17  1  0  0  0  0
  8 11  1  0  0  0  0
  9  7  1  0  0  0  0
  9  3  1  0  0  0  0
 10  6  1  0  0  0  0
 10  2  1  0  0  0  0
 12  5  1  0  0  0  0
 12 18  1  0  0  0  0
 13 14  2  0  0  0  0
 14  7  1  0  0  0  0
 15 26  1  0  0  0  0
 16 17  1  0  0  0  0
 16 15  1  0  0  0  0
 18 11  1  0  0  0  0
 20 10  1  0  0  0  0
 20 19  1  0  0  0  0
 20  5  1  0  0  0  0
 21 22  1  0  0  0  0
 21 15  1  0  0  0  0
 21 24  1  0  0  0  0
 23 22  2  0  0  0  0
 25 24  1  0  0  0  0
 26 27  1  0  0  0  0
 27 28  1  0  0  0  0
 28 29  2  0  0  0  0
 30 28  1  0  0  0  0
M  END
>  <MODEL>
2

>  <REMARK>
 VINA RESULT:      -6.5      3.691      7.664
  Name = 
  6 active torsions:
  status: ('A' for Active; 'I' for Inactive)
    1  A    between atoms: C_2  and  C_14
    2  A    between atoms: C_3  and  C_19
    3  A    between atoms: C_14  and  C_20
    4  A    between atoms: C_14  and  C_22
    5  A    between atoms: C_19  and  C_29
    6  A    between atoms: C_22  and  C_29
                            x       y       z     vdW  Elec       q    Type
                         _______ _______ _______ _____ _____    ______ ____

>  <TORSDO>
F 6

$$$$
=
 OpenBabel10262421433D

 30 35  0  0  1  0  0  0  0  0999 V2000
  191.3760  176.6090  138.1380 C   0  0  1  0  0  3  0  0  0  0  0  0
  190.2280  177.1240  137.2890 C   0  0  1  0  0  0  0  0  0  0  0  0
  190.8360  175.9750  139.4180 C   0  0  0  0  0  2  0  0  0  0  0  0
  188.2670  178.5780  140.3460 C   0  0  0  0  0  2  0  0  0  0  0  0
  188.1010  178.0580  135.6430 C   0  0  1  0  0  3  0  0  0  0  0  0
  188.9570  177.6400  139.3750 C   0  0  2  0  0  3  0  0  0  0  0  0
  189.7020  176.9180  141.5490 C   0  0  0  0  0  2  0  0  0  0  0  0
  188.4480  176.5830  135.5120 C   0  0  2  0  0  3  0  0  0  0  0  0
  190.1830  177.1470  140.1350 C   0  0  1  0  0  3  0  0  0  0  0  0
  189.2690  178.1620  137.9450 C   0  0  2  0  0  3  0  0  0  0  0  0
  187.1340  175.8480  135.4410 C   0  0  0  0  0  2  0  0  0  0  0  0
  186.7890  178.2110  134.8830 C   0  0  0  0  0  2  0  0  0  0  0  0
  188.1130  178.2700  142.7070 O   0  0  0  0  0  0  0  0  0  0  0  0
  188.6360  177.9570  141.6510 C   0  0  0  0  0  0  0  0  0  0  0  0
  191.8750  175.7780  136.9490 C   0  0  1  0  0  0  0  0  0  0  0  0
  190.7660  176.4010  136.0610 C   0  0  1  0  0  3  0  0  0  0  0  0
  189.4040  176.0380  136.5740 C   0  0  1  0  0  3  0  0  0  0  0  0
  186.1980  176.8120  134.7300 C   0  0  0  0  0  2  0  0  0  0  0  0
  186.6760  178.0340  137.7640 C   0  0  0  0  0  1  0  0  0  0  0  0
  187.9880  178.4980  137.1160 C   0  0  2  0  0  3  0  0  0  0  0  0
  193.3040  176.2150  136.5360 C   0  0  2  0  0  3  0  0  0  0  0  0
  193.4840  176.3460  135.0500 C   0  0  0  0  0  3  0  0  0  0  0  0
  194.3870  177.0300  134.5940 O   0  0  0  0  0  0  0  0  0  0  0  0
  194.3820  175.2970  137.0940 C   0  0  0  0  0  2  0  0  0  0  0  0
  194.6300  175.6210  138.4270 O   0  0  0  0  0  1  0  0  0  0  0  0
  191.7990  174.2510  137.2230 C   0  0  0  0  0  2  0  0  0  0  0  0
  191.6920  173.3520  135.9910 C   0  0  0  0  0  2  0  0  0  0  0  0
  190.3160  172.8170  135.8040 C   0  0  0  0  0  0  0  0  0  0  0  0
  189.9810  172.2310  134.6640 C   0  0  0  0  0  2  0  0  0  0  0  0
  189.3750  172.9460  136.8170 O   0  0  0  0  0  1  0  0  0  0  0  0
  1  3  1  1  0  0  0
  2 10  1  0  0  0  0
  2  1  1  0  0  0  0
  3  9  1  0  0  0  0
  4 14  1  0  0  0  0
  5 20  1  0  0  0  0
  6  9  1  0  0  0  0
  6  4  1  0  0  0  0
  7 14  1  0  0  0  0
  8  5  1  0  0  0  0
  8 17  1  0  0  0  0
  9  7  1  0  0  0  0
 10  6  1  0  0  0  0
 11  8  1  0  0  0  0
 12  5  1  0  0  0  0
 14 13  2  0  0  0  0
 15 26  1  0  0  0  0
 15  1  1  0  0  0  0
 16 17  1  0  0  0  0
 16 15  1  0  0  0  0
 16  2  1  0  0  0  0
 17  2  1  0  0  0  0
 18 12  1  0  0  0  0
 18 11  1  0  0  0  0
 20 19  1  0  0  0  0
 20 10  1  0  0  0  0
 21 15  1  0  0  0  0
 21 24  1  0  0  0  0
 22 21  1  0  0  0  0
 23 22  2  0  0  0  0
 24 25  1  0  0  0  0
 27 26  1  0  0  0  0
 28 27  1  0  0  0  0
 28 30  1  0  0  0  0
 29 28  2  0  0  0  0
M  END
>  <MODEL>
3

>  <REMARK>
 VINA RESULT:      -6.4      2.921      6.694
  Name = 
  6 active torsions:
  status: ('A' for Active; 'I' for Inactive)
    1  A    between atoms: C_2  and  C_14
    2  A    between atoms: C_3  and  C_19
    3  A    between atoms: C_14  and  C_20
    4  A    between atoms: C_14  and  C_22
    5  A    between atoms: C_19  and  C_29
    6  A    between atoms: C_22  and  C_29
                            x       y       z     vdW  Elec       q    Type
                         _______ _______ _______ _____ _____    ______ ____

>  <TORSDO>
F 6

$$$$
=
 OpenBabel10262421433D

 30 35  0  0  1  0  0  0  0  0999 V2000
  187.6180  177.3610  143.0100 C   0  0  1  0  0  3  0  0  0  0  0  0
  187.5580  177.2320  144.5210 C   0  0  1  0  0  0  0  0  0  0  0  0
  186.9030  178.6360  142.5660 C   0  0  0  0  0  2  0  0  0  0  0  0
  183.8290  178.3940  144.7410 C   0  0  0  0  0  2  0  0  0  0  0  0
  187.5130  176.9780  147.3570 C   0  0  1  0  0  3  0  0  0  0  0  0
  185.3240  178.3480  144.4970 C   0  0  2  0  0  3  0  0  0  0  0  0
  184.4200  179.3780  142.5160 C   0  0  0  0  0  2  0  0  0  0  0  0
  188.6160  177.8510  146.7820 C   0  0  2  0  0  3  0  0  0  0  0  0
  185.4610  178.3850  142.9800 C   0  0  1  0  0  3  0  0  0  0  0  0
  186.1450  177.2170  145.1780 C   0  0  2  0  0  3  0  0  0  0  0  0
  188.7000  179.0620  147.6770 C   0  0  0  0  0  2  0  0  0  0  0  0
  187.5570  177.2410  148.8570 C   0  0  0  0  0  2  0  0  0  0  0  0
  182.2510  179.6570  143.4720 O   0  0  0  0  0  0  0  0  0  0  0  0
  183.3750  179.1940  143.5660 C   0  0  0  0  0  0  0  0  0  0  0  0
  189.1460  177.2470  143.0660 C   0  0  1  0  0  0  0  0  0  0  0  0
  189.0620  177.0000  144.5950 C   0  0  1  0  0  3  0  0  0  0  0  0
  188.4790  178.1910  145.2970 C   0  0  1  0  0  3  0  0  0  0  0  0
  188.3340  178.5400  149.0570 C   0  0  0  0  0  2  0  0  0  0  0  0
  185.5340  178.5940  147.2990 C   0  0  0  0  0  1  0  0  0  0  0  0
  186.1380  177.3000  146.7370 C   0  0  2  0  0  3  0  0  0  0  0  0
  189.6320  176.0060  142.2740 C   0  0  2  0  0  3  0  0  0  0  0  0
  190.4790  175.0690  143.0890 C   0  0  0  0  0  3  0  0  0  0  0  0
  191.6260  175.3650  143.3810 O   0  0  0  0  0  0  0  0  0  0  0  0
  190.3780  176.3780  141.0010 C   0  0  0  0  0  2  0  0  0  0  0  0
  189.4650  176.7270  140.0080 O   0  0  0  0  0  1  0  0  0  0  0  0
  189.8530  178.5440  142.5890 C   0  0  0  0  0  2  0  0  0  0  0  0
  191.3600  178.6200  142.8390 C   0  0  0  0  0  2  0  0  0  0  0  0
  191.6800  178.9080  144.2640 C   0  0  0  0  0  0  0  0  0  0  0  0
  191.6220  180.1500  144.7180 C   0  0  0  0  0  2  0  0  0  0  0  0
  192.0560  177.8770  145.1150 O   0  0  0  0  0  1  0  0  0  0  0  0
  1  3  1  1  0  0  0
  1 15  1  0  0  0  0
  1  2  1  0  0  0  0
  2 16  1  0  0  0  0
  2 10  1  0  0  0  0
  2 17  1  0  0  0  0
  3  9  1  0  0  0  0
  5 12  1  0  0  0  0
  6  4  1  0  0  0  0
  6 10  1  0  0  0  0
  7  9  1  0  0  0  0
  7 14  1  0  0  0  0
  8  5  1  0  0  0  0
  8 11  1  0  0  0  0
  9  6  1  0  0  0  0
 10 20  1  0  0  0  0
 11 18  1  0  0  0  0
 12 18  1  0  0  0  0
 13 14  2  0  0  0  0
 14  4  1  0  0  0  0
 15 16  1  0  0  0  0
 16 17  1  0  0  0  0
 17  8  1  0  0  0  0
 20 19  1  0  0  0  0
 20  5  1  0  0  0  0
 21 15  1  0  0  0  0
 21 22  1  0  0  0  0
 22 23  2  0  0  0  0
 24 21  1  0  0  0  0
 25 24  1  0  0  0  0
 26 27  1  0  0  0  0
 26 15  1  0  0  0  0
 27 28  1  0  0  0  0
 28 29  2  0  0  0  0
 28 30  1  0  0  0  0
M  END
>  <MODEL>
4

>  <REMARK>
 VINA RESULT:      -6.4      2.635      4.521
  Name = 
  6 active torsions:
  status: ('A' for Active; 'I' for Inactive)
    1  A    between atoms: C_2  and  C_14
    2  A    between atoms: C_3  and  C_19
    3  A    between atoms: C_14  and  C_20
    4  A    between atoms: C_14  and  C_22
    5  A    between atoms: C_19  and  C_29
    6  A    between atoms: C_22  and  C_29
                            x       y       z     vdW  Elec       q    Type
                         _______ _______ _______ _____ _____    ______ ____

>  <TORSDO>
F 6

$$$$
=
 OpenBabel10262421433D

 30 35  0  0  1  0  0  0  0  0999 V2000
  182.1570  179.3320  138.3830 C   0  0  1  0  0  3  0  0  0  0  0  0
  181.2990  179.0060  139.5910 C   0  0  1  0  0  0  0  0  0  0  0  0
  182.4130  180.8360  138.3150 C   0  0  0  0  0  2  0  0  0  0  0  0
  178.9310  182.0760  139.0750 C   0  0  0  0  0  2  0  0  0  0  0  0
  179.7330  178.3440  141.8760 C   0  0  1  0  0  3  0  0  0  0  0  0
  180.1440  181.2030  139.3270 C   0  0  2  0  0  3  0  0  0  0  0  0
  180.9190  182.8890  137.7900 C   0  0  0  0  0  2  0  0  0  0  0  0
  181.2290  178.4870  142.1100 C   0  0  2  0  0  3  0  0  0  0  0  0
  181.0210  181.4130  138.0980 C   0  0  1  0  0  3  0  0  0  0  0  0
  179.9130  179.7100  139.6900 C   0  0  2  0  0  3  0  0  0  0  0  0
  181.3800  179.2420  143.4060 C   0  0  0  0  0  2  0  0  0  0  0  0
  179.1320  178.2700  143.2740 C   0  0  0  0  0  2  0  0  0  0  0  0
  178.9520  184.2190  138.0240 O   0  0  0  0  0  0  0  0  0  0  0  0
  179.5360  183.1770  138.2690 C   0  0  0  0  0  0  0  0  0  0  0  0
  183.2150  178.3350  138.8710 C   0  0  1  0  0  0  0  0  0  0  0  0
  182.2770  177.9270  140.0380 C   0  0  1  0  0  3  0  0  0  0  0  0
  182.0200  179.0900  140.9490 C   0  0  1  0  0  3  0  0  0  0  0  0
  180.1850  178.8070  144.2400 C   0  0  0  0  0  2  0  0  0  0  0  0
  179.0060  180.7950  141.8750 C   0  0  0  0  0  1  0  0  0  0  0  0
  179.1630  179.5120  141.0460 C   0  0  2  0  0  3  0  0  0  0  0  0
  183.4230  177.2030  137.8330 C   0  0  2  0  0  3  0  0  0  0  0  0
  183.3690  175.8240  138.4280 C   0  0  0  0  0  3  0  0  0  0  0  0
  182.5220  175.0240  138.0630 O   0  0  0  0  0  0  0  0  0  0  0  0
  184.7160  177.3590  137.0460 C   0  0  0  0  0  2  0  0  0  0  0  0
  185.5200  176.2370  137.2390 O   0  0  0  0  0  1  0  0  0  0  0  0
  184.5550  179.0280  139.2400 C   0  0  0  0  0  2  0  0  0  0  0  0
  185.2580  178.5090  140.4950 C   0  0  0  0  0  2  0  0  0  0  0  0
  186.7390  178.5120  140.3510 C   0  0  0  0  0  0  0  0  0  0  0  0
  187.5100  178.5510  141.4270 C   0  0  0  0  0  2  0  0  0  0  0  0
  187.3160  178.4910  139.0890 O   0  0  0  0  0  1  0  0  0  0  0  0
  1  3  1  1  0  0  0
  1 15  1  0  0  0  0
  1  2  1  0  0  0  0
  2 10  1  0  0  0  0
  2 16  1  0  0  0  0
  2 17  1  0  0  0  0
  4  6  1  0  0  0  0
  5  8  1  0  0  0  0
  5 12  1  0  0  0  0
  6 10  1  0  0  0  0
  7  9  1  0  0  0  0
  7 14  1  0  0  0  0
  8 11  1  0  0  0  0
  9  3  1  0  0  0  0
  9  6  1  0  0  0  0
 10 20  1  0  0  0  0
 11 18  1  0  0  0  0
 12 18  1  0  0  0  0
 13 14  2  0  0  0  0
 14  4  1  0  0  0  0
 15 26  1  0  0  0  0
 15 16  1  0  0  0  0
 16 17  1  0  0  0  0
 17  8  1  0  0  0  0
 20 19  1  0  0  0  0
 20  5  1  0  0  0  0
 21 22  1  0  0  0  0
 21 15  1  0  0  0  0
 23 22  2  0  0  0  0
 24 25  1  0  0  0  0
 24 21  1  0  0  0  0
 26 27  1  0  0  0  0
 28 27  1  0  0  0  0
 28 29  2  0  0  0  0
 30 28  1  0  0  0  0
M  END
>  <MODEL>
5

>  <REMARK>
 VINA RESULT:      -6.2      5.000      7.947
  Name = 
  6 active torsions:
  status: ('A' for Active; 'I' for Inactive)
    1  A    between atoms: C_2  and  C_14
    2  A    between atoms: C_3  and  C_19
    3  A    between atoms: C_14  and  C_20
    4  A    between atoms: C_14  and  C_22
    5  A    between atoms: C_19  and  C_29
    6  A    between atoms: C_22  and  C_29
                            x       y       z     vdW  Elec       q    Type
                         _______ _______ _______ _____ _____    ______ ____

>  <TORSDO>
F 6

$$$$
=
 OpenBabel10262421433D

 30 35  0  0  1  0  0  0  0  0999 V2000
  186.1450  177.8770  137.3030 C   0  0  1  0  0  3  0  0  0  0  0  0
  185.3290  176.6980  136.8050 C   0  0  1  0  0  0  0  0  0  0  0  0
  185.7630  178.2040  138.7450 C   0  0  0  0  0  2  0  0  0  0  0  0
  182.0100  177.9580  138.4480 C   0  0  0  0  0  2  0  0  0  0  0  0
  183.8550  174.4580  135.8490 C   0  0  1  0  0  3  0  0  0  0  0  0
  183.4230  177.4550  138.2290 C   0  0  2  0  0  3  0  0  0  0  0  0
  183.6520  179.2150  139.8590 C   0  0  0  0  0  2  0  0  0  0  0  0
  185.1050  174.1400  136.6540 C   0  0  2  0  0  3  0  0  0  0  0  0
  184.3070  178.6300  138.6280 C   0  0  1  0  0  3  0  0  0  0  0  0
  183.7770  176.8390  136.8480 C   0  0  2  0  0  3  0  0  0  0  0  0
  184.7350  172.9990  137.5680 C   0  0  0  0  0  2  0  0  0  0  0  0
  183.1370  173.1210  135.7120 C   0  0  0  0  0  2  0  0  0  0  0  0
  181.3000  179.3840  140.2260 O   0  0  0  0  0  0  0  0  0  0  0  0
  182.2190  178.9050  139.5820 C   0  0  0  0  0  0  0  0  0  0  0  0
  187.4350  177.1310  136.9370 C   0  0  1  0  0  0  0  0  0  0  0  0
  186.5870  175.9850  136.3260 C   0  0  1  0  0  3  0  0  0  0  0  0
  185.7390  175.3290  137.3760 C   0  0  1  0  0  3  0  0  0  0  0  0
  183.7170  172.1940  136.7770 C   0  0  0  0  0  2  0  0  0  0  0  0
  182.1900  174.9710  137.7190 C   0  0  0  0  0  1  0  0  0  0  0  0
  182.9840  175.5320  136.5310 C   0  0  2  0  0  3  0  0  0  0  0  0
  188.2430  177.9220  135.8780 C   0  0  2  0  0  3  0  0  0  0  0  0
  188.7200  177.0750  134.7320 C   0  0  0  0  0  3  0  0  0  0  0  0
  189.9020  176.7940  134.6180 O   0  0  0  0  0  0  0  0  0  0  0  0
  189.4270  178.6660  136.4780 C   0  0  0  0  0  2  0  0  0  0  0  0
  188.9700  179.7550  137.2190 O   0  0  0  0  0  1  0  0  0  0  0  0
  188.2970  176.7970  138.1850 C   0  0  0  0  0  2  0  0  0  0  0  0
  189.4050  175.7640  137.9780 C   0  0  0  0  0  2  0  0  0  0  0  0
  190.6360  176.0990  138.7440 C   0  0  0  0  0  0  0  0  0  0  0  0
  191.8120  176.1160  138.1360 C   0  0  0  0  0  2  0  0  0  0  0  0
  190.5570  176.3780  140.1020 O   0  0  0  0  0  1  0  0  0  0  0  0
  1  3  1  1  0  0  0
  2 10  1  0  0  0  0
  2  1  1  0  0  0  0
  2 17  1  0  0  0  0
  4 14  1  0  0  0  0
  5 20  1  0  0  0  0
  5  8  1  0  0  0  0
  6  4  1  0  0  0  0
  6  9  1  0  0  0  0
  8 17  1  0  0  0  0
  8 11  1  0  0  0  0
  9  3  1  0  0  0  0
  9  7  1  0  0  0  0
 10  6  1  0  0  0  0
 12  5  1  0  0  0  0
 12 18  1  0  0  0  0
 14  7  1  0  0  0  0
 14 13  2  0  0  0  0
 15  1  1  0  0  0  0
 15 26  1  0  0  0  0
 16  2  1  0  0  0  0
 16 15  1  0  0  0  0
 16 17  1  0  0  0  0
 18 11  1  0  0  0  0
 20 10  1  0  0  0  0
 20 19  1  0  0  0  0
 21 24  1  0  0  0  0
 21 15  1  0  0  0  0
 22 21  1  0  0  0  0
 23 22  2  0  0  0  0
 24 25  1  0  0  0  0
 27 26  1  0  0  0  0
 27 28  1  0  0  0  0
 28 30  1  0  0  0  0
 29 28  2  0  0  0  0
M  END
>  <MODEL>
6

>  <REMARK>
 VINA RESULT:      -6.0      4.048      6.823
  Name = 
  6 active torsions:
  status: ('A' for Active; 'I' for Inactive)
    1  A    between atoms: C_2  and  C_14
    2  A    between atoms: C_3  and  C_19
    3  A    between atoms: C_14  and  C_20
    4  A    between atoms: C_14  and  C_22
    5  A    between atoms: C_19  and  C_29
    6  A    between atoms: C_22  and  C_29
                            x       y       z     vdW  Elec       q    Type
                         _______ _______ _______ _____ _____    ______ ____

>  <TORSDO>
F 6

$$$$
=
 OpenBabel10262421433D

 30 35  0  0  1  0  0  0  0  0999 V2000
  186.0920  178.3400  138.5980 C   0  0  1  0  0  3  0  0  0  0  0  0
  184.7640  177.8030  138.0980 C   0  0  1  0  0  0  0  0  0  0  0  0
  186.2870  177.9670  140.0660 C   0  0  0  0  0  2  0  0  0  0  0  0
  182.8350  178.7770  141.3580 C   0  0  0  0  0  2  0  0  0  0  0  0
  182.3050  176.7670  137.1040 C   0  0  1  0  0  3  0  0  0  0  0  0
  183.8010  178.1460  140.3760 C   0  0  2  0  0  3  0  0  0  0  0  0
  185.1640  178.7270  142.2760 C   0  0  0  0  0  2  0  0  0  0  0  0
  183.4840  175.8070  137.0990 C   0  0  2  0  0  3  0  0  0  0  0  0
  185.1600  178.7150  140.7640 C   0  0  1  0  0  3  0  0  0  0  0  0
  183.4820  178.2550  138.8590 C   0  0  2  0  0  3  0  0  0  0  0  0
  182.9460  174.4810  137.5740 C   0  0  0  0  0  2  0  0  0  0  0  0
  181.0960  175.8920  136.7960 C   0  0  0  0  0  2  0  0  0  0  0  0
  183.2840  179.2210  143.6600 O   0  0  0  0  0  0  0  0  0  0  0  0
  183.7130  178.9400  142.5540 C   0  0  0  0  0  0  0  0  0  0  0  0
  186.8120  177.6110  137.4570 C   0  0  1  0  0  0  0  0  0  0  0  0
  185.4380  177.1640  136.8900 C   0  0  1  0  0  3  0  0  0  0  0  0
  184.7190  176.2810  137.8660 C   0  0  1  0  0  3  0  0  0  0  0  0
  181.5150  174.4480  137.0630 C   0  0  0  0  0  2  0  0  0  0  0  0
  181.5740  176.6260  139.5490 C   0  0  0  0  0  1  0  0  0  0  0  0
  182.1700  177.5130  138.4480 C   0  0  2  0  0  3  0  0  0  0  0  0
  187.5500  178.6200  136.5410 C   0  0  2  0  0  3  0  0  0  0  0  0
  187.4900  178.2610  135.0830 C   0  0  0  0  0  3  0  0  0  0  0  0
  188.3230  177.5150  134.5940 O   0  0  0  0  0  0  0  0  0  0  0  0
  189.0020  178.8270  136.9470 C   0  0  0  0  0  2  0  0  0  0  0  0
  189.0560  179.5380  138.1460 O   0  0  0  0  0  1  0  0  0  0  0  0
  187.7670  176.5020  137.9750 C   0  0  0  0  0  2  0  0  0  0  0  0
  188.0040  175.3230  137.0300 C   0  0  0  0  0  2  0  0  0  0  0  0
  189.3710  174.7540  137.1730 C   0  0  0  0  0  0  0  0  0  0  0  0
  190.4150  175.5590  137.3020 C   0  0  0  0  0  2  0  0  0  0  0  0
  189.5580  173.3780  137.1540 O   0  0  0  0  0  1  0  0  0  0  0  0
  1  3  1  1  0  0  0
  2  1  1  0  0  0  0
  2 10  1  0  0  0  0
  3  9  1  0  0  0  0
  4 14  1  0  0  0  0
  5 20  1  0  0  0  0
  6  9  1  0  0  0  0
  6  4  1  0  0  0  0
  7 14  1  0  0  0  0
  8  5  1  0  0  0  0
  8 11  1  0  0  0  0
  8 17  1  0  0  0  0
  9  7  1  0  0  0  0
 10  6  1  0  0  0  0
 12 18  1  0  0  0  0
 12  5  1  0  0  0  0
 14 13  2  0  0  0  0
 15 26  1  0  0  0  0
 15  1  1  0  0  0  0
 16 15  1  0  0  0  0
 16 17  1  0  0  0  0
 16  2  1  0  0  0  0
 17  2  1  0  0  0  0
 18 11  1  0  0  0  0
 20 10  1  0  0  0  0
 20 19  1  0  0  0  0
 21 24  1  0  0  0  0
 21 15  1  0  0  0  0
 22 21  1  0  0  0  0
 23 22  2  0  0  0  0
 24 25  1  0  0  0  0
 27 28  1  0  0  0  0
 27 26  1  0  0  0  0
 28 29  2  0  0  0  0
 30 28  1  0  0  0  0
M  END
>  <MODEL>
7

>  <REMARK>
 VINA RESULT:      -5.8      3.432      6.491
  Name = 
  6 active torsions:
  status: ('A' for Active; 'I' for Inactive)
    1  A    between atoms: C_2  and  C_14
    2  A    between atoms: C_3  and  C_19
    3  A    between atoms: C_14  and  C_20
    4  A    between atoms: C_14  and  C_22
    5  A    between atoms: C_19  and  C_29
    6  A    between atoms: C_22  and  C_29
                            x       y       z     vdW  Elec       q    Type
                         _______ _______ _______ _____ _____    ______ ____

>  <TORSDO>
F 6

$$$$
=
 OpenBabel10262421433D

 30 35  0  0  1  0  0  0  0  0999 V2000
  191.6600  176.0470  136.8420 C   0  0  1  0  0  3  0  0  0  0  0  0
  190.4090  175.4100  136.2660 C   0  0  1  0  0  0  0  0  0  0  0  0
  191.4890  176.2710  138.3430 C   0  0  0  0  0  2  0  0  0  0  0  0
  187.9800  177.6590  138.3510 C   0  0  0  0  0  2  0  0  0  0  0  0
  188.1010  174.1670  135.1550 C   0  0  1  0  0  3  0  0  0  0  0  0
  189.0400  176.6550  137.9420 C   0  0  2  0  0  3  0  0  0  0  0  0
  190.0340  177.8780  139.7640 C   0  0  0  0  0  2  0  0  0  0  0  0
  189.1170  173.2360  135.7970 C   0  0  2  0  0  3  0  0  0  0  0  0
  190.3490  177.2770  138.4140 C   0  0  1  0  0  3  0  0  0  0  0  0
  189.0660  176.1750  136.4650 C   0  0  2  0  0  3  0  0  0  0  0  0
  188.3200  172.2230  136.5800 C   0  0  0  0  0  2  0  0  0  0  0  0
  186.8800  173.2900  134.9060 C   0  0  0  0  0  2  0  0  0  0  0  0
  187.9860  178.9490  140.3590 O   0  0  0  0  0  0  0  0  0  0  0  0
  188.5980  178.2410  139.5780 C   0  0  0  0  0  0  0  0  0  0  0  0
  192.5020  174.9010  136.2680 C   0  0  1  0  0  0  0  0  0  0  0  0
  191.2330  174.3240  135.5870 C   0  0  1  0  0  3  0  0  0  0  0  0
  190.2130  173.9230  136.6120 C   0  0  1  0  0  3  0  0  0  0  0  0
  187.0380  172.0500  135.7830 C   0  0  0  0  0  2  0  0  0  0  0  0
  186.8570  175.0230  137.2170 C   0  0  0  0  0  1  0  0  0  0  0  0
  187.7850  175.3840  136.0490 C   0  0  2  0  0  3  0  0  0  0  0  0
  193.5440  175.4410  135.2550 C   0  0  2  0  0  3  0  0  0  0  0  0
  194.4400  174.3750  134.6900 C   0  0  0  0  0  3  0  0  0  0  0  0
  195.6460  174.4170  134.8720 O   0  0  0  0  0  0  0  0  0  0  0  0
  194.3990  176.5590  135.8340 C   0  0  0  0  0  2  0  0  0  0  0  0
  194.6830  177.4950  134.8390 O   0  0  0  0  0  1  0  0  0  0  0  0
  193.1710  174.0460  137.3780 C   0  0  0  0  0  2  0  0  0  0  0  0
  194.3070  174.7170  138.1510 C   0  0  0  0  0  2  0  0  0  0  0  0
  195.3820  173.7560  138.5170 C   0  0  0  0  0  0  0  0  0  0  0  0
  195.4270  172.5610  137.9480 C   0  0  0  0  0  2  0  0  0  0  0  0
  196.3320  174.1030  139.4690 O   0  0  0  0  0  1  0  0  0  0  0  0
  1  3  1  1  0  0  0
  2 10  1  0  0  0  0
  2 17  1  0  0  0  0
  2  1  1  0  0  0  0
  3  9  1  0  0  0  0
  4 14  1  0  0  0  0
  5  8  1  0  0  0  0
  5 20  1  0  0  0  0
  6  4  1  0  0  0  0
  6  9  1  0  0  0  0
  8 11  1  0  0  0  0
  8 17  1  0  0  0  0
  9  7  1  0  0  0  0
 10  6  1  0  0  0  0
 12  5  1  0  0  0  0
 12 18  1  0  0  0  0
 14  7  1  0  0  0  0
 14 13  2  0  0  0  0
 15  1  1  0  0  0  0
 15 26  1  0  0  0  0
 16  2  1  0  0  0  0
 16 15  1  0  0  0  0
 16 17  1  0  0  0  0
 18 11  1  0  0  0  0
 20 10  1  0  0  0  0
 20 19  1  0  0  0  0
 21 24  1  0  0  0  0
 21 15  1  0  0  0  0
 22 23  2  0  0  0  0
 22 21  1  0  0  0  0
 25 24  1  0  0  0  0
 26 27  1  0  0  0  0
 27 28  1  0  0  0  0
 28 30  1  0  0  0  0
 29 28  2  0  0  0  0
M  END
>  <MODEL>
8

>  <REMARK>
 VINA RESULT:      -5.8      3.939      7.730
  Name = 
  6 active torsions:
  status: ('A' for Active; 'I' for Inactive)
    1  A    between atoms: C_2  and  C_14
    2  A    between atoms: C_3  and  C_19
    3  A    between atoms: C_14  and  C_20
    4  A    between atoms: C_14  and  C_22
    5  A    between atoms: C_19  and  C_29
    6  A    between atoms: C_22  and  C_29
                            x       y       z     vdW  Elec       q    Type
                         _______ _______ _______ _____ _____    ______ ____

>  <TORSDO>
F 6

$$$$
=
 OpenBabel10262421433D

 30 35  0  0  1  0  0  0  0  0999 V2000
  187.8570  178.3190  142.9740 C   0  0  1  0  0  3  0  0  0  0  0  0
  188.2670  178.4090  141.5160 C   0  0  1  0  0  0  0  0  0  0  0  0
  186.5830  177.4870  143.1070 C   0  0  0  0  0  2  0  0  0  0  0  0
  184.6070  178.9430  140.2420 C   0  0  0  0  0  2  0  0  0  0  0  0
  189.0990  178.5610  138.7960 C   0  0  1  0  0  3  0  0  0  0  0  0
  185.8570  178.3550  140.8660 C   0  0  2  0  0  3  0  0  0  0  0  0
  184.1060  177.8780  142.4510 C   0  0  0  0  0  2  0  0  0  0  0  0
  189.5340  177.3200  139.5600 C   0  0  2  0  0  3  0  0  0  0  0  0
  185.5500  178.3160  142.3580 C   0  0  1  0  0  3  0  0  0  0  0  0
  187.2260  179.0030  140.5200 C   0  0  2  0  0  3  0  0  0  0  0  0
  189.3400  176.1600  138.6170 C   0  0  0  0  0  2  0  0  0  0  0  0
  189.4310  178.2530  137.3420 C   0  0  0  0  0  2  0  0  0  0  0  0
  182.3670  178.5180  140.9480 O   0  0  0  0  0  0  0  0  0  0  0  0
  183.5610  178.4540  141.1870 C   0  0  0  0  0  0  0  0  0  0  0  0
  189.2450  177.7680  143.3240 C   0  0  1  0  0  0  0  0  0  0  0  0
  189.6880  177.9750  141.8520 C   0  0  1  0  0  3  0  0  0  0  0  0
  188.8720  177.1230  140.9240 C   0  0  1  0  0  3  0  0  0  0  0  0
  189.6140  176.7400  137.2390 C   0  0  0  0  0  2  0  0  0  0  0  0
  186.6910  177.9470  138.2030 C   0  0  0  0  0  1  0  0  0  0  0  0
  187.6050  178.8780  139.0100 C   0  0  2  0  0  3  0  0  0  0  0  0
  189.9730  178.7090  144.3170 C   0  0  2  0  0  3  0  0  0  0  0  0
  191.3050  179.1940  143.8170 C   0  0  0  0  0  3  0  0  0  0  0  0
  192.2960  179.1260  144.5270 O   0  0  0  0  0  0  0  0  0  0  0  0
  190.1510  178.0850  145.6940 C   0  0  0  0  0  2  0  0  0  0  0  0
  188.9840  178.2520  146.4380 O   0  0  0  0  0  1  0  0  0  0  0  0
  189.1850  176.3100  143.8550 C   0  0  0  0  0  2  0  0  0  0  0  0
  190.1630  175.3220  143.2180 C   0  0  0  0  0  2  0  0  0  0  0  0
  191.5750  175.6070  143.5950 C   0  0  0  0  0  0  0  0  0  0  0  0
  192.0560  175.1660  144.7470 C   0  0  0  0  0  2  0  0  0  0  0  0
  192.3850  176.3490  142.7470 O   0  0  0  0  0  1  0  0  0  0  0  0
  1  3  1  6  0  0  0
  1 15  1  0  0  0  0
  2 16  1  0  0  0  0
  2  1  1  0  0  0  0
  4  6  1  0  0  0  0
  4 14  1  0  0  0  0
  5 20  1  0  0  0  0
  5  8  1  0  0  0  0
  6  9  1  0  0  0  0
  8 17  1  0  0  0  0
  9  7  1  0  0  0  0
  9  3  1  0  0  0  0
 10  6  1  0  0  0  0
 10  2  1  0  0  0  0
 11  8  1  0  0  0  0
 12  5  1  0  0  0  0
 13 14  2  0  0  0  0
 14  7  1  0  0  0  0
 15 26  1  0  0  0  0
 15 21  1  0  0  0  0
 16 15  1  0  0  0  0
 17  2  1  0  0  0  0
 17 16  1  0  0  0  0
 18 12  1  0  0  0  0
 18 11  1  0  0  0  0
 19 20  1  0  0  0  0
 20 10  1  0  0  0  0
 21 24  1  0  0  0  0
 22 21  1  0  0  0  0
 22 23  2  0  0  0  0
 24 25  1  0  0  0  0
 27 28  1  0  0  0  0
 27 26  1  0  0  0  0
 28 29  2  0  0  0  0
 30 28  1  0  0  0  0
M  END
>  <MODEL>
9

>  <REMARK>
 VINA RESULT:      -5.7      2.442      5.903
  Name = 
  6 active torsions:
  status: ('A' for Active; 'I' for Inactive)
    1  A    between atoms: C_2  and  C_14
    2  A    between atoms: C_3  and  C_19
    3  A    between atoms: C_14  and  C_20
    4  A    between atoms: C_14  and  C_22
    5  A    between atoms: C_19  and  C_29
    6  A    between atoms: C_22  and  C_29
                            x       y       z     vdW  Elec       q    Type
                         _______ _______ _______ _____ _____    ______ ____

>  <TORSDO>
F 6

$$$$
