=
 OpenBabel10252414513D

 34 39  0  0  1  0  0  0  0  0999 V2000
  190.4250  177.2530  146.6520 C   0  0  0  0  0  0  0  0  0  0  0  0
  191.5930  175.6590  145.2580 C   0  0  0  0  0  0  0  0  0  0  0  0
  189.7030  177.0830  144.2700 C   0  0  0  0  0  0  0  0  0  0  0  0
  189.0990  177.3850  141.9440 C   0  0  0  0  0  0  0  0  0  0  0  0
  192.2770  176.0260  147.5210 N   0  0  0  0  0  0  0  0  0  0  0  0
  192.4310  175.3740  146.3400 C   0  0  0  0  0  3  0  0  0  0  0  0
  191.7100  177.0410  142.2370 S   0  0  0  0  0  0  0  0  0  0  0  0
  190.6340  176.6900  145.3750 C   0  0  0  0  0  0  0  0  0  0  0  0
  189.5970  177.4680  140.5540 C   0  0  0  0  0  2  0  0  0  0  0  0
  191.2850  176.9340  147.7040 C   0  0  0  0  0  3  0  0  0  0  0  0
  188.4080  177.5180  144.6350 C   0  0  0  0  0  0  0  0  0  0  0  0
  189.2730  178.1770  146.8990 C   0  0  0  0  0  2  0  0  0  0  0  0
  191.6810  174.8640  144.1240 O   0  0  0  0  0  1  0  0  0  0  0  0
  187.7850  177.6760  142.2970 C   0  0  0  0  0  3  0  0  0  0  0  0
  187.4130  177.7390  143.6490 C   0  0  0  0  0  0  0  0  0  0  0  0
  191.0910  177.7420  140.6640 C   0  0  2  0  0  3  0  0  0  0  0  0
  190.0490  177.0910  142.9000 C   0  0  0  0  0  0  0  0  0  0  0  0
  188.1630  177.8440  146.0110 N   0  0  0  0  0  2  0  0  0  0  0  0
  183.7200  178.5830  143.3130 C   0  0  0  0  0  0  0  0  0  0  0  0
  183.3650  178.7990  144.6460 C   0  0  0  0  0  3  0  0  0  0  0  0
  186.0070  178.0870  143.9870 C   0  0  0  0  0  0  0  0  0  0  0  0
  184.3250  178.6690  145.6530 C   0  0  0  0  0  3  0  0  0  0  0  0
  185.0330  178.2340  142.9860 C   0  0  0  0  0  3  0  0  0  0  0  0
  185.6370  178.3170  145.3250 C   0  0  0  0  0  3  0  0  0  0  0  0
  182.7910  178.7150  142.3350 F   0  0  0  0  0  0  0  0  0  0  0  0
  191.8030  177.1360  139.5030 C   0  0  0  0  0  3  0  0  0  0  0  0
  191.1410  176.6010  138.5410 N   0  0  0  0  0  0  0  0  0  0  0  0
  193.3080  176.3870  137.4460 C   0  0  0  0  0  2  0  0  0  0  0  0
  191.8210  176.0160  137.4170 C   0  0  1  0  0  3  0  0  0  0  0  0
  194.0650  175.7350  136.2880 C   0  0  1  0  0  3  0  0  0  0  0  0
  193.8570  174.2190  136.2870 C   0  0  0  0  0  2  0  0  0  0  0  0
  192.3710  173.8640  136.2710 C   0  0  0  0  0  2  0  0  0  0  0  0
  191.6630  174.5000  137.4620 C   0  0  0  0  0  2  0  0  0  0  0  0
  193.6540  176.2810  135.0700 O   0  0  0  0  0  1  0  0  0  0  0  0
  1 12  1  0  0  0  0
  1 10  1  0  0  0  0
  2  8  1  0  0  0  0
  2  6  2  0  0  0  0
  3 11  1  0  0  0  0
  3  8  1  0  0  0  0
  4 14  2  0  0  0  0
  4 17  1  0  0  0  0
  5 10  2  0  0  0  0
  6  5  1  0  0  0  0
  7 17  1  0  0  0  0
  8  1  2  0  0  0  0
  9 16  1  0  0  0  0
  9  4  1  0  0  0  0
 11 18  1  0  0  0  0
 13  2  1  0  0  0  0
 14 15  1  0  0  0  0
 15 21  1  0  0  0  0
 15 11  2  0  0  0  0
 16 26  1  6  0  0  0
 16  7  1  0  0  0  0
 17  3  2  0  0  0  0
 18 12  1  0  0  0  0
 19 20  1  0  0  0  0
 20 22  2  0  0  0  0
 21 24  2  0  0  0  0
 23 19  2  0  0  0  0
 23 21  1  0  0  0  0
 24 22  1  0  0  0  0
 25 19  1  0  0  0  0
 27 26  2  0  0  0  0
 29 28  1  0  0  0  0
 29 33  1  0  0  0  0
 29 27  1  1  0  0  0
 30 34  1  6  0  0  0
 30 28  1  0  0  0  0
 31 30  1  0  0  0  0
 32 31  1  0  0  0  0
 32 33  1  0  0  0  0
M  END
>  <MODEL>
1

>  <REMARK>
 VINA RESULT:     -10.7      0.000      0.000
  Name = 
  3 active torsions:
  status: ('A' for Active; 'I' for Inactive)
    1  A    between atoms: C_3  and  C_29
    2  A    between atoms: C_12  and  C_28
    3  A    between atoms: C_13  and  N_17
                            x       y       z     vdW  Elec       q    Type
                         _______ _______ _______ _____ _____    ______ ____

>  <TORSDO>
F 3

$$$$
=
 OpenBabel10252414513D

 34 39  0  0  1  0  0  0  0  0999 V2000
  191.9240  177.3250  140.1760 C   0  0  0  0  0  0  0  0  0  0  0  0
  190.0610  176.4900  138.8790 C   0  0  0  0  0  0  0  0  0  0  0  0
  189.6850  177.3180  141.2770 C   0  0  0  0  0  0  0  0  0  0  0  0
  187.5910  177.7780  142.4050 C   0  0  0  0  0  0  0  0  0  0  0  0
  192.2340  176.6860  137.8980 N   0  0  0  0  0  0  0  0  0  0  0  0
  190.9260  176.3350  137.7930 C   0  0  0  0  0  3  0  0  0  0  0  0
  187.4420  178.3130  139.8130 S   0  0  0  0  0  0  0  0  0  0  0  0
  190.5360  177.0920  140.0660 C   0  0  0  0  0  0  0  0  0  0  0  0
  186.2020  178.2590  142.2500 C   0  0  0  0  0  2  0  0  0  0  0  0
  192.7500  177.1520  139.0640 C   0  0  0  0  0  3  0  0  0  0  0  0
  190.3120  177.2110  142.5410 C   0  0  0  0  0  0  0  0  0  0  0  0
  192.5270  177.7400  141.4820 C   0  0  0  0  0  2  0  0  0  0  0  0
  188.7750  175.9770  138.7810 O   0  0  0  0  0  1  0  0  0  0  0  0
  188.1760  177.5340  143.6430 C   0  0  0  0  0  3  0  0  0  0  0  0
  189.5450  177.2370  143.7340 C   0  0  0  0  0  0  0  0  0  0  0  0
  186.1670  179.0100  140.9260 C   0  0  2  0  0  3  0  0  0  0  0  0
  188.3190  177.6740  141.2360 C   0  0  0  0  0  0  0  0  0  0  0  0
  191.7450  177.1970  142.5900 N   0  0  0  0  0  2  0  0  0  0  0  0
  190.0820  177.2870  147.4990 C   0  0  0  0  0  0  0  0  0  0  0  0
  191.3120  176.6350  147.6090 C   0  0  0  0  0  3  0  0  0  0  0  0
  190.1410  177.0160  145.0790 C   0  0  0  0  0  0  0  0  0  0  0  0
  191.9640  176.1770  146.4620 C   0  0  0  0  0  3  0  0  0  0  0  0
  189.5030  177.4800  146.2410 C   0  0  0  0  0  3  0  0  0  0  0  0
  191.3830  176.3690  145.2050 C   0  0  0  0  0  3  0  0  0  0  0  0
  189.4510  177.7360  148.6110 F   0  0  0  0  0  0  0  0  0  0  0  0
  184.8140  178.8910  140.3120 C   0  0  0  0  0  3  0  0  0  0  0  0
  184.3990  179.7730  139.4780 N   0  0  0  0  0  0  0  0  0  0  0  0
  182.1750  178.8170  139.7670 C   0  0  0  0  0  2  0  0  0  0  0  0
  183.0940  179.6640  138.8800 C   0  0  1  0  0  3  0  0  0  0  0  0
  180.7660  178.7280  139.1790 C   0  0  1  0  0  3  0  0  0  0  0  0
  180.1900  180.1240  138.9320 C   0  0  0  0  0  2  0  0  0  0  0  0
  181.1230  180.9600  138.0570 C   0  0  0  0  0  2  0  0  0  0  0  0
  182.5020  181.0580  138.6990 C   0  0  0  0  0  2  0  0  0  0  0  0
  180.7810  177.9930  137.9920 O   0  0  0  0  0  1  0  0  0  0  0  0
  1 12  1  0  0  0  0
  2  8  2  0  0  0  0
  3 11  1  0  0  0  0
  4 14  2  0  0  0  0
  5 10  1  0  0  0  0
  6  5  2  0  0  0  0
  6  2  1  0  0  0  0
  7 16  1  0  0  0  0
  7 17  1  0  0  0  0
  8  1  1  0  0  0  0
  8  3  1  0  0  0  0
  9  4  1  0  0  0  0
 10  1  2  0  0  0  0
 11 18  1  0  0  0  0
 11 15  2  0  0  0  0
 12 18  1  0  0  0  0
 13  2  1  0  0  0  0
 14 15  1  0  0  0  0
 15 21  1  0  0  0  0
 16 26  1  6  0  0  0
 16  9  1  0  0  0  0
 17  3  2  0  0  0  0
 17  4  1  0  0  0  0
 19 20  1  0  0  0  0
 19 25  1  0  0  0  0
 21 24  2  0  0  0  0
 21 23  1  0  0  0  0
 22 20  2  0  0  0  0
 23 19  2  0  0  0  0
 24 22  1  0  0  0  0
 27 26  2  0  0  0  0
 29 27  1  1  0  0  0
 29 28  1  0  0  0  0
 30 34  1  6  0  0  0
 30 28  1  0  0  0  0
 31 30  1  0  0  0  0
 32 33  1  0  0  0  0
 32 31  1  0  0  0  0
 33 29  1  0  0  0  0
M  END
>  <MODEL>
2

>  <REMARK>
 VINA RESULT:      -9.7      4.155      8.013
  Name = 
  3 active torsions:
  status: ('A' for Active; 'I' for Inactive)
    1  A    between atoms: C_3  and  C_29
    2  A    between atoms: C_12  and  C_28
    3  A    between atoms: C_13  and  N_17
                            x       y       z     vdW  Elec       q    Type
                         _______ _______ _______ _____ _____    ______ ____

>  <TORSDO>
F 3

$$$$
=
 OpenBabel10252414513D

 34 39  0  0  1  0  0  0  0  0999 V2000
  191.8260  177.3080  140.2070 C   0  0  0  0  0  0  0  0  0  0  0  0
  189.9340  176.4650  138.9580 C   0  0  0  0  0  0  0  0  0  0  0  0
  189.6140  177.3030  141.3600 C   0  0  0  0  0  0  0  0  0  0  0  0
  187.5480  177.7670  142.5360 C   0  0  0  0  0  0  0  0  0  0  0  0
  192.0830  176.6580  137.9250 N   0  0  0  0  0  0  0  0  0  0  0  0
  190.7730  176.3060  137.8530 C   0  0  0  0  0  3  0  0  0  0  0  0
  187.3370  178.2900  139.9460 S   0  0  0  0  0  0  0  0  0  0  0  0
  190.4370  177.0720  140.1310 C   0  0  0  0  0  0  0  0  0  0  0  0
  186.1540  178.2470  142.4120 C   0  0  0  0  0  2  0  0  0  0  0  0
  192.6260  177.1290  139.0760 C   0  0  0  0  0  3  0  0  0  0  0  0
  190.2710  177.2030  142.6100 C   0  0  0  0  0  0  0  0  0  0  0  0
  192.4600  177.7280  141.4960 C   0  0  0  0  0  2  0  0  0  0  0  0
  188.6470  175.9510  138.8930 O   0  0  0  0  0  1  0  0  0  0  0  0
  188.1620  177.5290  143.7610 C   0  0  0  0  0  3  0  0  0  0  0  0
  189.5330  177.2330  143.8200 C   0  0  0  0  0  0  0  0  0  0  0  0
  186.0880  178.9920  141.0850 C   0  0  2  0  0  3  0  0  0  0  0  0
  188.2470  177.6590  141.3510 C   0  0  0  0  0  0  0  0  0  0  0  0
  191.7050  177.1900  142.6240 N   0  0  0  0  0  2  0  0  0  0  0  0
  191.8870  176.0240  146.5520 C   0  0  0  0  0  0  0  0  0  0  0  0
  191.3000  176.5840  147.6880 C   0  0  0  0  0  3  0  0  0  0  0  0
  190.1600  177.0190  145.1520 C   0  0  0  0  0  0  0  0  0  0  0  0
  190.1420  177.3550  147.5660 C   0  0  0  0  0  3  0  0  0  0  0  0
  191.3180  176.2370  145.2930 C   0  0  0  0  0  3  0  0  0  0  0  0
  189.5750  177.5690  146.3060 C   0  0  0  0  0  3  0  0  0  0  0  0
  193.0080  175.2710  146.6700 F   0  0  0  0  0  0  0  0  0  0  0  0
  184.7200  178.8690  140.5050 C   0  0  0  0  0  3  0  0  0  0  0  0
  184.2810  179.7530  139.6840 N   0  0  0  0  0  0  0  0  0  0  0  0
  182.4950  181.0020  138.5920 C   0  0  0  0  0  2  0  0  0  0  0  0
  182.9630  179.6400  139.1180 C   0  0  1  0  0  3  0  0  0  0  0  0
  181.1160  180.8980  137.9400 C   0  0  1  0  0  3  0  0  0  0  0  0
  181.1110  179.8320  136.8420 C   0  0  0  0  0  2  0  0  0  0  0  0
  181.5920  178.4840  137.3780 C   0  0  0  0  0  2  0  0  0  0  0  0
  182.9850  178.6230  137.9820 C   0  0  0  0  0  2  0  0  0  0  0  0
  180.1440  180.6090  138.9000 O   0  0  0  0  0  1  0  0  0  0  0  0
  1 12  1  0  0  0  0
  2  8  2  0  0  0  0
  3 11  1  0  0  0  0
  4 14  2  0  0  0  0
  5 10  1  0  0  0  0
  6  5  2  0  0  0  0
  6  2  1  0  0  0  0
  7 16  1  0  0  0  0
  7 17  1  0  0  0  0
  8  1  1  0  0  0  0
  8  3  1  0  0  0  0
  9  4  1  0  0  0  0
 10  1  2  0  0  0  0
 11 18  1  0  0  0  0
 11 15  2  0  0  0  0
 12 18  1  0  0  0  0
 13  2  1  0  0  0  0
 14 15  1  0  0  0  0
 15 21  1  0  0  0  0
 16 26  1  6  0  0  0
 16  9  1  0  0  0  0
 17  3  2  0  0  0  0
 17  4  1  0  0  0  0
 19 25  1  0  0  0  0
 19 20  1  0  0  0  0
 21 23  1  0  0  0  0
 21 24  2  0  0  0  0
 22 20  2  0  0  0  0
 23 19  2  0  0  0  0
 24 22  1  0  0  0  0
 27 26  2  0  0  0  0
 28 29  1  0  0  0  0
 29 27  1  6  0  0  0
 30 28  1  0  0  0  0
 30 34  1  1  0  0  0
 31 32  1  0  0  0  0
 31 30  1  0  0  0  0
 32 33  1  0  0  0  0
 33 29  1  0  0  0  0
M  END
>  <MODEL>
3

>  <REMARK>
 VINA RESULT:      -9.4      4.563      7.983
  Name = 
  3 active torsions:
  status: ('A' for Active; 'I' for Inactive)
    1  A    between atoms: C_3  and  C_29
    2  A    between atoms: C_12  and  C_28
    3  A    between atoms: C_13  and  N_17
                            x       y       z     vdW  Elec       q    Type
                         _______ _______ _______ _____ _____    ______ ____

>  <TORSDO>
F 3

$$$$
=
 OpenBabel10252414513D

 34 39  0  0  1  0  0  0  0  0999 V2000
  185.2790  178.9490  144.8200 C   0  0  0  0  0  0  0  0  0  0  0  0
  186.9940  177.2860  144.4410 C   0  0  0  0  0  0  0  0  0  0  0  0
  185.7810  178.3540  142.4500 C   0  0  0  0  0  0  0  0  0  0  0  0
  186.3520  178.2450  140.0980 C   0  0  0  0  0  0  0  0  0  0  0  0
  186.5130  178.0520  146.6550 N   0  0  0  0  0  0  0  0  0  0  0  0
  187.2200  177.2490  145.8190 C   0  0  0  0  0  3  0  0  0  0  0  0
  188.5140  178.2060  141.6310 S   0  0  0  0  0  0  0  0  0  0  0  0
  186.0800  178.2240  143.9110 C   0  0  0  0  0  0  0  0  0  0  0  0
  187.4500  178.1670  139.1110 C   0  0  0  0  0  2  0  0  0  0  0  0
  185.5410  178.8760  146.1900 C   0  0  0  0  0  3  0  0  0  0  0  0
  184.4610  178.7110  142.0860 C   0  0  0  0  0  0  0  0  0  0  0  0
  184.1350  179.7820  144.3340 C   0  0  0  0  0  2  0  0  0  0  0  0
  187.6240  176.3430  143.6400 O   0  0  0  0  0  1  0  0  0  0  0  0
  185.0240  178.4560  139.7410 C   0  0  0  0  0  3  0  0  0  0  0  0
  184.0520  178.6830  140.7280 C   0  0  0  0  0  0  0  0  0  0  0  0
  188.7070  178.5990  139.8540 C   0  0  2  0  0  3  0  0  0  0  0  0
  186.7370  178.1910  141.4230 C   0  0  0  0  0  0  0  0  0  0  0  0
  183.5870  179.2120  143.1060 N   0  0  0  0  0  2  0  0  0  0  0  0
  180.2630  178.4850  140.4730 C   0  0  0  0  0  0  0  0  0  0  0  0
  180.0080  179.4000  139.4490 C   0  0  0  0  0  3  0  0  0  0  0  0
  182.6500  178.9390  140.3040 C   0  0  0  0  0  0  0  0  0  0  0  0
  181.0670  180.0820  138.8450 C   0  0  0  0  0  3  0  0  0  0  0  0
  181.5750  178.2530  140.8940 C   0  0  0  0  0  3  0  0  0  0  0  0
  182.3790  179.8510  139.2680 C   0  0  0  0  0  3  0  0  0  0  0  0
  179.2370  177.8190  141.0560 F   0  0  0  0  0  0  0  0  0  0  0  0
  189.8950  177.9000  139.2870 C   0  0  0  0  0  3  0  0  0  0  0  0
  189.8430  177.3740  138.1170 N   0  0  0  0  0  0  0  0  0  0  0  0
  192.1280  176.6660  138.5850 C   0  0  0  0  0  2  0  0  0  0  0  0
  190.9860  176.6990  137.5630 C   0  0  1  0  0  3  0  0  0  0  0  0
  193.3390  175.9090  138.0380 C   0  0  1  0  0  3  0  0  0  0  0  0
  192.9410  174.5020  137.5840 C   0  0  0  0  0  2  0  0  0  0  0  0
  191.7940  174.5500  136.5760 C   0  0  0  0  0  2  0  0  0  0  0  0
  190.5950  175.2770  137.1750 C   0  0  0  0  0  2  0  0  0  0  0  0
  193.9170  176.6130  136.9800 O   0  0  0  0  0  1  0  0  0  0  0  0
  1 10  1  0  0  0  0
  2  6  2  0  0  0  0
  3  8  1  0  0  0  0
  4 17  1  0  0  0  0
  6  5  1  0  0  0  0
  8  2  1  0  0  0  0
  8  1  2  0  0  0  0
  9 16  1  0  0  0  0
  9  4  1  0  0  0  0
 10  5  2  0  0  0  0
 11  3  1  0  0  0  0
 11 18  1  0  0  0  0
 12  1  1  0  0  0  0
 13  2  1  0  0  0  0
 14  4  2  0  0  0  0
 14 15  1  0  0  0  0
 15 11  2  0  0  0  0
 16 26  1  6  0  0  0
 16  7  1  0  0  0  0
 17  7  1  0  0  0  0
 17  3  2  0  0  0  0
 18 12  1  0  0  0  0
 19 23  1  0  0  0  0
 19 25  1  0  0  0  0
 20 19  2  0  0  0  0
 21 15  1  0  0  0  0
 21 23  2  0  0  0  0
 22 24  2  0  0  0  0
 22 20  1  0  0  0  0
 24 21  1  0  0  0  0
 27 26  2  0  0  0  0
 29 27  1  1  0  0  0
 29 28  1  0  0  0  0
 30 34  1  6  0  0  0
 30 28  1  0  0  0  0
 31 30  1  0  0  0  0
 32 33  1  0  0  0  0
 32 31  1  0  0  0  0
 33 29  1  0  0  0  0
M  END
>  <MODEL>
4

>  <REMARK>
 VINA RESULT:      -9.3      2.769      4.391
  Name = 
  3 active torsions:
  status: ('A' for Active; 'I' for Inactive)
    1  A    between atoms: C_3  and  C_29
    2  A    between atoms: C_12  and  C_28
    3  A    between atoms: C_13  and  N_17
                            x       y       z     vdW  Elec       q    Type
                         _______ _______ _______ _____ _____    ______ ____

>  <TORSDO>
F 3

$$$$
=
 OpenBabel10252414513D

 34 39  0  0  1  0  0  0  0  0999 V2000
  186.7700  177.3980  144.8400 C   0  0  0  0  0  0  0  0  0  0  0  0
  185.1430  179.1790  144.6600 C   0  0  0  0  0  0  0  0  0  0  0  0
  186.2690  178.2530  142.5510 C   0  0  0  0  0  0  0  0  0  0  0  0
  185.6740  178.6270  140.2330 C   0  0  0  0  0  0  0  0  0  0  0  0
  185.6120  178.1710  146.7780 N   0  0  0  0  0  0  0  0  0  0  0  0
  184.9380  179.0900  146.0390 C   0  0  0  0  0  3  0  0  0  0  0  0
  183.5380  178.6270  141.8020 S   0  0  0  0  0  0  0  0  0  0  0  0
  185.9980  178.2510  144.0230 C   0  0  0  0  0  0  0  0  0  0  0  0
  184.5680  178.8620  139.2790 C   0  0  0  0  0  2  0  0  0  0  0  0
  186.5310  177.3470  146.2150 C   0  0  0  0  0  3  0  0  0  0  0  0
  187.5630  177.8650  142.1280 C   0  0  0  0  0  0  0  0  0  0  0  0
  187.8600  176.5580  144.2520 C   0  0  0  0  0  2  0  0  0  0  0  0
  184.5560  180.2290  143.9690 O   0  0  0  0  0  1  0  0  0  0  0  0
  186.9840  178.3830  139.8310 C   0  0  0  0  0  3  0  0  0  0  0  0
  187.9540  178.0070  140.7720 C   0  0  0  0  0  0  0  0  0  0  0  0
  183.3000  178.4240  139.9980 C   0  0  2  0  0  3  0  0  0  0  0  0
  185.3100  178.5680  141.5630 C   0  0  0  0  0  0  0  0  0  0  0  0
  188.4220  177.2180  143.0770 N   0  0  0  0  0  2  0  0  0  0  0  0
  190.8820  177.0500  138.5410 C   0  0  0  0  0  0  0  0  0  0  0  0
  191.9490  177.1330  139.4380 C   0  0  0  0  0  3  0  0  0  0  0  0
  189.3350  177.7210  140.2990 C   0  0  0  0  0  0  0  0  0  0  0  0
  191.7170  177.5030  140.7650 C   0  0  0  0  0  3  0  0  0  0  0  0
  189.5840  177.3380  138.9710 C   0  0  0  0  0  3  0  0  0  0  0  0
  190.4180  177.7920  141.1930 C   0  0  0  0  0  3  0  0  0  0  0  0
  191.1050  176.6860  137.2550 F   0  0  0  0  0  0  0  0  0  0  0  0
  182.1440  179.2390  139.5260 C   0  0  0  0  0  3  0  0  0  0  0  0
  182.2970  180.0990  138.5860 N   0  0  0  0  0  0  0  0  0  0  0  0
  181.5550  182.3760  138.1280 C   0  0  0  0  0  2  0  0  0  0  0  0
  181.1860  180.8880  138.1240 C   0  0  1  0  0  3  0  0  0  0  0  0
  180.4070  183.2330  137.5930 C   0  0  1  0  0  3  0  0  0  0  0  0
  179.9750  182.7580  136.2040 C   0  0  0  0  0  2  0  0  0  0  0  0
  179.6220  181.2710  136.2130 C   0  0  0  0  0  2  0  0  0  0  0  0
  180.8050  180.4510  136.7130 C   0  0  0  0  0  2  0  0  0  0  0  0
  179.3240  183.2010  138.4750 O   0  0  0  0  0  1  0  0  0  0  0  0
  1 10  1  0  0  0  0
  2  6  2  0  0  0  0
  3  8  1  0  0  0  0
  4 17  1  0  0  0  0
  6  5  1  0  0  0  0
  8  2  1  0  0  0  0
  8  1  2  0  0  0  0
  9 16  1  0  0  0  0
  9  4  1  0  0  0  0
 10  5  2  0  0  0  0
 11  3  1  0  0  0  0
 11 18  1  0  0  0  0
 12  1  1  0  0  0  0
 13  2  1  0  0  0  0
 14  4  2  0  0  0  0
 14 15  1  0  0  0  0
 15 11  2  0  0  0  0
 16 26  1  6  0  0  0
 16  7  1  0  0  0  0
 17  7  1  0  0  0  0
 17  3  2  0  0  0  0
 18 12  1  0  0  0  0
 19 23  2  0  0  0  0
 19 20  1  0  0  0  0
 20 22  2  0  0  0  0
 21 15  1  0  0  0  0
 21 24  2  0  0  0  0
 22 24  1  0  0  0  0
 23 21  1  0  0  0  0
 25 19  1  0  0  0  0
 27 26  2  0  0  0  0
 29 28  1  0  0  0  0
 29 27  1  6  0  0  0
 30 28  1  0  0  0  0
 30 34  1  1  0  0  0
 31 32  1  0  0  0  0
 31 30  1  0  0  0  0
 32 33  1  0  0  0  0
 33 29  1  0  0  0  0
M  END
>  <MODEL>
5

>  <REMARK>
 VINA RESULT:      -8.9      5.555      8.897
  Name = 
  3 active torsions:
  status: ('A' for Active; 'I' for Inactive)
    1  A    between atoms: C_3  and  C_29
    2  A    between atoms: C_12  and  C_28
    3  A    between atoms: C_13  and  N_17
                            x       y       z     vdW  Elec       q    Type
                         _______ _______ _______ _____ _____    ______ ____

>  <TORSDO>
F 3

$$$$
=
 OpenBabel10252414513D

 34 39  0  0  1  0  0  0  0  0999 V2000
  185.9210  178.7350  145.8870 C   0  0  0  0  0  0  0  0  0  0  0  0
  187.4960  177.1660  144.9350 C   0  0  0  0  0  0  0  0  0  0  0  0
  185.7090  178.2490  143.4490 C   0  0  0  0  0  0  0  0  0  0  0  0
  185.5530  178.2510  141.0320 C   0  0  0  0  0  0  0  0  0  0  0  0
  187.6760  177.8290  147.2260 N   0  0  0  0  0  0  0  0  0  0  0  0
  188.1250  177.0890  146.1800 C   0  0  0  0  0  3  0  0  0  0  0  0
  188.0740  178.2530  141.8480 S   0  0  0  0  0  0  0  0  0  0  0  0
  186.4350  178.0810  144.7480 C   0  0  0  0  0  0  0  0  0  0  0  0
  186.3070  178.2580  139.7600 C   0  0  0  0  0  2  0  0  0  0  0  0
  186.5820  178.6250  147.1120 C   0  0  0  0  0  3  0  0  0  0  0  0
  184.3300  178.5590  143.5120 C   0  0  0  0  0  0  0  0  0  0  0  0
  184.6570  179.5330  145.8040 C   0  0  0  0  0  2  0  0  0  0  0  0
  187.8870  176.2820  143.9390 O   0  0  0  0  0  1  0  0  0  0  0  0
  184.1720  178.4140  141.0970 C   0  0  0  0  0  3  0  0  0  0  0  0
  183.5340  178.5620  142.3380 C   0  0  0  0  0  0  0  0  0  0  0  0
  187.7140  178.7190  140.1140 C   0  0  2  0  0  3  0  0  0  0  0  0
  186.3180  178.1670  142.1780 C   0  0  0  0  0  0  0  0  0  0  0  0
  183.7850  178.9840  144.7690 N   0  0  0  0  0  2  0  0  0  0  0  0
  179.9420  178.8070  143.5620 C   0  0  0  0  0  0  0  0  0  0  0  0
  179.2690  179.1150  142.3780 C   0  0  0  0  0  3  0  0  0  0  0  0
  182.0620  178.7700  142.3640 C   0  0  0  0  0  0  0  0  0  0  0  0
  179.9820  179.2450  141.1840 C   0  0  0  0  0  3  0  0  0  0  0  0
  181.3280  178.6310  143.5530 C   0  0  0  0  0  3  0  0  0  0  0  0
  181.3690  179.0720  141.1770 C   0  0  0  0  0  3  0  0  0  0  0  0
  179.2490  178.6740  144.7190 F   0  0  0  0  0  0  0  0  0  0  0  0
  188.7000  178.0940  139.1870 C   0  0  0  0  0  3  0  0  0  0  0  0
  188.8670  176.8220  139.1780 N   0  0  0  0  0  0  0  0  0  0  0  0
  189.6720  176.8010  136.8770 C   0  0  0  0  0  2  0  0  0  0  0  0
  189.8160  176.2110  138.2850 C   0  0  1  0  0  3  0  0  0  0  0  0
  190.7040  176.2050  135.9190 C   0  0  1  0  0  3  0  0  0  0  0  0
  192.1220  176.3810  136.4680 C   0  0  0  0  0  2  0  0  0  0  0  0
  192.2460  175.8000  137.8760 C   0  0  0  0  0  2  0  0  0  0  0  0
  191.2290  176.4500  138.8060 C   0  0  0  0  0  2  0  0  0  0  0  0
  190.4360  174.8530  135.6960 O   0  0  0  0  0  1  0  0  0  0  0  0
  1 10  1  0  0  0  0
  2  6  2  0  0  0  0
  3 11  1  0  0  0  0
  3  8  1  0  0  0  0
  4 14  2  0  0  0  0
  4 17  1  0  0  0  0
  6  5  1  0  0  0  0
  7 17  1  0  0  0  0
  8  2  1  0  0  0  0
  8  1  2  0  0  0  0
  9 16  1  0  0  0  0
  9  4  1  0  0  0  0
 10  5  2  0  0  0  0
 11 18  1  0  0  0  0
 12  1  1  0  0  0  0
 13  2  1  0  0  0  0
 14 15  1  0  0  0  0
 15 21  1  0  0  0  0
 15 11  2  0  0  0  0
 16 26  1  6  0  0  0
 16  7  1  0  0  0  0
 17  3  2  0  0  0  0
 18 12  1  0  0  0  0
 19 25  1  0  0  0  0
 20 19  2  0  0  0  0
 21 23  2  0  0  0  0
 22 20  1  0  0  0  0
 23 19  1  0  0  0  0
 24 22  2  0  0  0  0
 24 21  1  0  0  0  0
 27 26  2  0  0  0  0
 28 29  1  0  0  0  0
 29 33  1  0  0  0  0
 29 27  1  1  0  0  0
 30 34  1  1  0  0  0
 30 31  1  0  0  0  0
 30 28  1  0  0  0  0
 31 32  1  0  0  0  0
 32 33  1  0  0  0  0
M  END
>  <MODEL>
6

>  <REMARK>
 VINA RESULT:      -8.7      2.568      4.119
  Name = 
  3 active torsions:
  status: ('A' for Active; 'I' for Inactive)
    1  A    between atoms: C_3  and  C_29
    2  A    between atoms: C_12  and  C_28
    3  A    between atoms: C_13  and  N_17
                            x       y       z     vdW  Elec       q    Type
                         _______ _______ _______ _____ _____    ______ ____

>  <TORSDO>
F 3

$$$$
=
 OpenBabel10252414513D

 34 39  0  0  1  0  0  0  0  0999 V2000
  188.0630  177.5830  135.3950 C   0  0  0  0  0  0  0  0  0  0  0  0
  186.5550  176.9510  137.1760 C   0  0  0  0  0  0  0  0  0  0  0  0
  189.0880  176.9240  137.5720 C   0  0  0  0  0  0  0  0  0  0  0  0
  190.2870  176.7160  139.6660 C   0  0  0  0  0  0  0  0  0  0  0  0
  185.7030  177.7400  135.0850 N   0  0  0  0  0  0  0  0  0  0  0  0
  185.4820  177.2640  136.3380 C   0  0  0  0  0  3  0  0  0  0  0  0
  187.9960  178.0120  139.9770 S   0  0  0  0  0  0  0  0  0  0  0  0
  187.8740  177.2080  136.7420 C   0  0  0  0  0  0  0  0  0  0  0  0
  190.2820  177.0260  141.1120 C   0  0  0  0  0  2  0  0  0  0  0  0
  186.9600  177.8820  134.5940 C   0  0  0  0  0  3  0  0  0  0  0  0
  190.2580  176.5130  136.8920 C   0  0  0  0  0  0  0  0  0  0  0  0
  189.4380  177.6440  134.8050 C   0  0  0  0  0  2  0  0  0  0  0  0
  186.2890  176.3230  138.3860 O   0  0  0  0  0  1  0  0  0  0  0  0
  191.3900  176.1770  139.0100 C   0  0  0  0  0  3  0  0  0  0  0  0
  191.3920  176.0570  137.6110 C   0  0  0  0  0  0  0  0  0  0  0  0
  189.2620  178.1430  141.2930 C   0  0  2  0  0  3  0  0  0  0  0  0
  189.1510  177.0850  138.9740 C   0  0  0  0  0  0  0  0  0  0  0  0
  190.3110  176.6800  135.4680 N   0  0  0  0  0  2  0  0  0  0  0  0
  194.7450  175.8320  135.8300 C   0  0  0  0  0  0  0  0  0  0  0  0
  194.8610  174.4540  135.6370 C   0  0  0  0  0  3  0  0  0  0  0  0
  192.6030  175.5090  136.9440 C   0  0  0  0  0  0  0  0  0  0  0  0
  193.8520  173.5990  136.0870 C   0  0  0  0  0  3  0  0  0  0  0  0
  193.6210  176.3550  136.4750 C   0  0  0  0  0  3  0  0  0  0  0  0
  192.7290  174.1240  136.7340 C   0  0  0  0  0  3  0  0  0  0  0  0
  195.7210  176.6620  135.3890 F   0  0  0  0  0  0  0  0  0  0  0  0
  188.6320  178.0380  142.6400 C   0  0  0  0  0  3  0  0  0  0  0  0
  189.0360  177.1560  143.4800 N   0  0  0  0  0  0  0  0  0  0  0  0
  189.2740  177.8090  145.8170 C   0  0  0  0  0  2  0  0  0  0  0  0
  188.4340  177.0510  144.7830 C   0  0  1  0  0  3  0  0  0  0  0  0
  188.6270  177.7540  147.2020 C   0  0  1  0  0  3  0  0  0  0  0  0
  187.1870  178.2700  147.1510 C   0  0  0  0  0  2  0  0  0  0  0  0
  186.3660  177.5140  146.1070 C   0  0  0  0  0  2  0  0  0  0  0  0
  187.0230  177.6270  144.7360 C   0  0  0  0  0  2  0  0  0  0  0  0
  188.6580  176.4510  147.7020 O   0  0  0  0  0  1  0  0  0  0  0  0
  1  8  1  0  0  0  0
  2 13  1  0  0  0  0
  3 17  1  0  0  0  0
  4  9  1  0  0  0  0
  5  6  2  0  0  0  0
  6  2  1  0  0  0  0
  7 16  1  0  0  0  0
  8  2  2  0  0  0  0
  8  3  1  0  0  0  0
  9 16  1  0  0  0  0
 10  5  1  0  0  0  0
 10  1  2  0  0  0  0
 11  3  2  0  0  0  0
 11 15  1  0  0  0  0
 12  1  1  0  0  0  0
 12 18  1  0  0  0  0
 14  4  1  0  0  0  0
 15 14  2  0  0  0  0
 16 26  1  1  0  0  0
 17  4  2  0  0  0  0
 17  7  1  0  0  0  0
 18 11  1  0  0  0  0
 19 23  1  0  0  0  0
 20 19  2  0  0  0  0
 20 22  1  0  0  0  0
 21 15  1  0  0  0  0
 22 24  2  0  0  0  0
 23 21  2  0  0  0  0
 24 21  1  0  0  0  0
 25 19  1  0  0  0  0
 26 27  2  0  0  0  0
 28 30  1  0  0  0  0
 29 27  1  6  0  0  0
 29 28  1  0  0  0  0
 30 34  1  6  0  0  0
 31 30  1  0  0  0  0
 32 31  1  0  0  0  0
 33 29  1  0  0  0  0
 33 32  1  0  0  0  0
M  END
>  <MODEL>
7

>  <REMARK>
 VINA RESULT:      -8.5      4.086     10.255
  Name = 
  3 active torsions:
  status: ('A' for Active; 'I' for Inactive)
    1  A    between atoms: C_3  and  C_29
    2  A    between atoms: C_12  and  C_28
    3  A    between atoms: C_13  and  N_17
                            x       y       z     vdW  Elec       q    Type
                         _______ _______ _______ _____ _____    ______ ____

>  <TORSDO>
F 3

$$$$
=
 OpenBabel10252414513D

 34 39  0  0  1  0  0  0  0  0999 V2000
  186.9000  177.5100  144.9570 C   0  0  0  0  0  0  0  0  0  0  0  0
  185.2710  179.2900  144.7980 C   0  0  0  0  0  0  0  0  0  0  0  0
  186.2800  178.2830  142.6670 C   0  0  0  0  0  0  0  0  0  0  0  0
  185.5620  178.5740  140.3720 C   0  0  0  0  0  0  0  0  0  0  0  0
  185.8490  178.3590  146.9240 N   0  0  0  0  0  0  0  0  0  0  0  0
  185.1390  179.2530  146.1890 C   0  0  0  0  0  3  0  0  0  0  0  0
  183.5130  178.6410  142.0520 S   0  0  0  0  0  0  0  0  0  0  0  0
  186.0880  178.3360  144.1510 C   0  0  0  0  0  0  0  0  0  0  0  0
  184.4070  178.7780  139.4710 C   0  0  0  0  0  2  0  0  0  0  0  0
  186.7360  177.5110  146.3430 C   0  0  0  0  0  3  0  0  0  0  0  0
  187.5480  177.8740  142.1910 C   0  0  0  0  0  0  0  0  0  0  0  0
  187.9560  176.6450  144.3430 C   0  0  0  0  0  2  0  0  0  0  0  0
  184.6490  180.3170  144.1010 O   0  0  0  0  0  1  0  0  0  0  0  0
  186.8480  178.3100  139.9110 C   0  0  0  0  0  3  0  0  0  0  0  0
  187.8670  177.9640  140.8120 C   0  0  0  0  0  0  0  0  0  0  0  0
  183.1780  178.3720  140.2730 C   0  0  2  0  0  3  0  0  0  0  0  0
  185.2700  178.5650  141.7210 C   0  0  0  0  0  0  0  0  0  0  0  0
  188.4550  177.2590  143.1160 N   0  0  0  0  0  2  0  0  0  0  0  0
  191.6150  177.3570  140.5980 C   0  0  0  0  0  0  0  0  0  0  0  0
  191.7770  177.1210  139.2310 C   0  0  0  0  0  3  0  0  0  0  0  0
  189.2190  177.6550  140.2760 C   0  0  0  0  0  0  0  0  0  0  0  0
  190.6690  177.1560  138.3820 C   0  0  0  0  0  3  0  0  0  0  0  0
  190.3450  177.6270  141.1150 C   0  0  0  0  0  3  0  0  0  0  0  0
  189.3990  177.4240  138.9010 C   0  0  0  0  0  3  0  0  0  0  0  0
  192.6900  177.3280  141.4220 F   0  0  0  0  0  0  0  0  0  0  0  0
  182.0010  179.1740  139.8340 C   0  0  0  0  0  3  0  0  0  0  0  0
  182.1660  180.2590  139.1670 N   0  0  0  0  0  0  0  0  0  0  0  0
  181.5050  182.2810  137.9770 C   0  0  0  0  0  2  0  0  0  0  0  0
  181.0340  181.0370  138.7390 C   0  0  1  0  0  3  0  0  0  0  0  0
  180.3190  183.1000  137.4660 C   0  0  1  0  0  3  0  0  0  0  0  0
  179.3840  182.2340  136.6190 C   0  0  0  0  0  2  0  0  0  0  0  0
  178.9330  180.9920  137.3870 C   0  0  0  0  0  2  0  0  0  0  0  0
  180.1430  180.1840  137.8420 C   0  0  0  0  0  2  0  0  0  0  0  0
  179.6200  183.6630  138.5360 O   0  0  0  0  0  1  0  0  0  0  0  0
  1 10  1  0  0  0  0
  2  6  2  0  0  0  0
  3  8  1  0  0  0  0
  4 17  1  0  0  0  0
  6  5  1  0  0  0  0
  8  2  1  0  0  0  0
  8  1  2  0  0  0  0
  9 16  1  0  0  0  0
  9  4  1  0  0  0  0
 10  5  2  0  0  0  0
 11  3  1  0  0  0  0
 11 18  1  0  0  0  0
 12  1  1  0  0  0  0
 13  2  1  0  0  0  0
 14  4  2  0  0  0  0
 14 15  1  0  0  0  0
 15 11  2  0  0  0  0
 16 26  1  6  0  0  0
 16  7  1  0  0  0  0
 17  7  1  0  0  0  0
 17  3  2  0  0  0  0
 18 12  1  0  0  0  0
 19 23  1  0  0  0  0
 19 25  1  0  0  0  0
 20 19  2  0  0  0  0
 21 15  1  0  0  0  0
 21 23  2  0  0  0  0
 22 24  2  0  0  0  0
 22 20  1  0  0  0  0
 24 21  1  0  0  0  0
 27 26  2  0  0  0  0
 28 29  1  0  0  0  0
 29 27  1  6  0  0  0
 30 28  1  0  0  0  0
 30 34  1  1  0  0  0
 31 32  1  0  0  0  0
 31 30  1  0  0  0  0
 32 33  1  0  0  0  0
 33 29  1  0  0  0  0
M  END
>  <MODEL>
8

>  <REMARK>
 VINA RESULT:      -8.5      5.463      8.991
  Name = 
  3 active torsions:
  status: ('A' for Active; 'I' for Inactive)
    1  A    between atoms: C_3  and  C_29
    2  A    between atoms: C_12  and  C_28
    3  A    between atoms: C_13  and  N_17
                            x       y       z     vdW  Elec       q    Type
                         _______ _______ _______ _____ _____    ______ ____

>  <TORSDO>
F 3

$$$$
=
 OpenBabel10252414513D

 34 39  0  0  1  0  0  0  0  0999 V2000
  191.0040  176.2850  145.5620 C   0  0  0  0  0  0  0  0  0  0  0  0
  189.4640  177.9540  146.3940 C   0  0  0  0  0  0  0  0  0  0  0  0
  189.4280  177.2980  143.9150 C   0  0  0  0  0  0  0  0  0  0  0  0
  187.7640  177.8300  142.2360 C   0  0  0  0  0  0  0  0  0  0  0  0
  190.9310  176.8010  147.8910 N   0  0  0  0  0  0  0  0  0  0  0  0
  189.9640  177.7310  147.6790 C   0  0  0  0  0  3  0  0  0  0  0  0
  186.6740  177.5420  144.6350 S   0  0  0  0  0  0  0  0  0  0  0  0
  189.9140  177.1490  145.3230 C   0  0  0  0  0  0  0  0  0  0  0  0
  186.3290  178.0670  141.9730 C   0  0  0  0  0  2  0  0  0  0  0  0
  191.4720  176.0970  146.8640 C   0  0  0  0  0  3  0  0  0  0  0  0
  190.3540  177.0420  142.8770 C   0  0  0  0  0  0  0  0  0  0  0  0
  191.6810  175.5790  144.4290 C   0  0  0  0  0  2  0  0  0  0  0  0
  188.5930  179.0170  146.1960 O   0  0  0  0  0  1  0  0  0  0  0  0
  188.7130  177.7160  141.2250 C   0  0  0  0  0  3  0  0  0  0  0  0
  190.0280  177.3290  141.5270 C   0  0  0  0  0  0  0  0  0  0  0  0
  185.5850  177.4800  143.1650 C   0  0  2  0  0  3  0  0  0  0  0  0
  188.1010  177.6290  143.5600 C   0  0  0  0  0  0  0  0  0  0  0  0
  191.5810  176.3780  143.2100 N   0  0  0  0  0  2  0  0  0  0  0  0
  191.5430  176.5150  138.1350 C   0  0  0  0  0  0  0  0  0  0  0  0
  192.8780  176.8690  138.3390 C   0  0  0  0  0  3  0  0  0  0  0  0
  191.0030  177.1840  140.4140 C   0  0  0  0  0  0  0  0  0  0  0  0
  193.2840  177.3740  139.5760 C   0  0  0  0  0  3  0  0  0  0  0  0
  190.6130  176.6680  139.1680 C   0  0  0  0  0  3  0  0  0  0  0  0
  192.3530  177.5280  140.6080 C   0  0  0  0  0  3  0  0  0  0  0  0
  191.1490  176.0200  136.9370 F   0  0  0  0  0  0  0  0  0  0  0  0
  184.3310  178.2490  143.4070 C   0  0  0  0  0  3  0  0  0  0  0  0
  183.3980  178.2650  142.5260 N   0  0  0  0  0  0  0  0  0  0  0  0
  181.2150  178.8020  141.5850 C   0  0  0  0  0  2  0  0  0  0  0  0
  182.1840  179.0030  142.7550 C   0  0  1  0  0  3  0  0  0  0  0  0
  179.8950  179.5370  141.8270 C   0  0  1  0  0  3  0  0  0  0  0  0
  179.2740  179.1150  143.1600 C   0  0  0  0  0  2  0  0  0  0  0  0
  180.2560  179.3090  144.3140 C   0  0  0  0  0  2  0  0  0  0  0  0
  181.5390  178.5290  144.0520 C   0  0  0  0  0  2  0  0  0  0  0  0
  180.0970  180.9190  141.8020 O   0  0  0  0  0  1  0  0  0  0  0  0
  1 10  1  0  0  0  0
  2  6  2  0  0  0  0
  3  8  1  0  0  0  0
  4 17  2  0  0  0  0
  6  5  1  0  0  0  0
  8  1  2  0  0  0  0
  8  2  1  0  0  0  0
  9  4  1  0  0  0  0
  9 16  1  0  0  0  0
 10  5  2  0  0  0  0
 11 18  1  0  0  0  0
 11  3  2  0  0  0  0
 12  1  1  0  0  0  0
 13  2  1  0  0  0  0
 14 15  2  0  0  0  0
 14  4  1  0  0  0  0
 15 11  1  0  0  0  0
 16 26  1  1  0  0  0
 16  7  1  0  0  0  0
 17  3  1  0  0  0  0
 17  7  1  0  0  0  0
 18 12  1  0  0  0  0
 19 20  2  0  0  0  0
 19 23  1  0  0  0  0
 20 22  1  0  0  0  0
 21 24  1  0  0  0  0
 21 15  1  0  0  0  0
 22 24  2  0  0  0  0
 23 21  2  0  0  0  0
 25 19  1  0  0  0  0
 27 26  2  0  0  0  0
 28 30  1  0  0  0  0
 28 29  1  0  0  0  0
 29 27  1  6  0  0  0
 29 33  1  0  0  0  0
 30 34  1  1  0  0  0
 30 31  1  0  0  0  0
 31 32  1  0  0  0  0
 33 32  1  0  0  0  0
M  END
>  <MODEL>
9

>  <REMARK>
 VINA RESULT:      -8.2      3.772      8.492
  Name = 
  3 active torsions:
  status: ('A' for Active; 'I' for Inactive)
    1  A    between atoms: C_3  and  C_29
    2  A    between atoms: C_12  and  C_28
    3  A    between atoms: C_13  and  N_17
                            x       y       z     vdW  Elec       q    Type
                         _______ _______ _______ _____ _____    ______ ____

>  <TORSDO>
F 3

$$$$
