=
 OpenBabel10262421093D

 32 36  0  0  1  0  0  0  0  0999 V2000
  182.7770  177.7000  139.6900 C   0  0  0  0  0  0  0  0  0  0  0  0
  181.9080  179.7980  138.5970 C   0  0  2  0  0  3  0  0  0  0  0  0
  182.6200  176.3590  140.0550 C   0  0  0  0  0  3  0  0  0  0  0  0
  181.8180  178.3230  138.8790 C   0  0  0  0  0  0  0  0  0  0  0  0
  181.4250  180.1270  137.1970 C   0  0  0  0  0  2  0  0  0  0  0  0
  183.2480  180.4720  138.9410 C   0  0  0  0  0  2  0  0  0  0  0  0
  180.7280  177.5770  138.3810 C   0  0  0  0  0  0  0  0  0  0  0  0
  179.7890  178.1390  137.3440 C   0  0  0  0  0  2  0  0  0  0  0  0
  180.5860  176.2360  138.7500 C   0  0  0  0  0  3  0  0  0  0  0  0
  184.3710  179.5490  139.1630 N   0  0  0  0  0  0  0  0  0  0  0  0
  184.0330  178.4350  140.0660 C   0  0  1  0  0  3  0  0  0  0  0  0
  179.9740  179.6480  137.0790 C   0  0  2  0  0  3  0  0  0  0  0  0
  181.5180  175.6320  139.5980 C   0  0  0  0  0  3  0  0  0  0  0  0
  185.8510  178.1930  143.2180 C   0  0  0  0  0  0  0  0  0  0  0  0
  183.5250  179.0320  145.8700 F   0  0  0  0  0  0  0  0  0  0  0  0
  186.9950  177.4740  143.1040 F   0  0  0  0  0  0  0  0  0  0  0  0
  182.9690  179.0450  143.6570 N   0  0  0  0  0  0  0  0  0  0  0  0
  184.1710  178.8030  141.5200 C   0  0  0  0  0  0  0  0  0  0  0  0
  185.1250  178.0770  144.3270 C   0  0  0  0  0  3  0  0  0  0  0  0
  183.0470  178.8010  142.2400 C   0  0  0  0  0  3  0  0  0  0  0  0
  185.4840  179.1750  142.1550 C   0  0  2  0  0  3  0  0  0  0  0  0
  186.5100  179.2960  141.2370 F   0  0  0  0  0  0  0  0  0  0  0  0
  183.8520  178.7820  144.5790 C   0  0  0  0  0  0  0  0  0  0  0  0
  179.3380  180.0850  135.8970 O   0  0  0  0  0  0  0  0  0  0  0  0
  180.1500  181.0480  135.2750 C   0  0  0  0  0  1  0  0  0  0  0  0
  184.8180  179.0240  137.8760 C   0  0  0  0  0  2  0  0  0  0  0  0
  185.4380  176.7090  137.2550 C   0  0  0  0  0  2  0  0  0  0  0  0
  187.6590  177.3530  136.7300 C   0  0  0  0  0  2  0  0  0  0  0  0
  187.1570  178.3630  137.6470 N   0  0  0  0  0  0  0  0  0  0  0  0
  188.0220  178.3420  138.8130 C   0  0  0  0  0  1  0  0  0  0  0  0
  186.4690  176.6190  136.1660 C   0  0  0  0  0  2  0  0  0  0  0  0
  185.8370  177.9140  138.0830 C   0  0  1  0  0  3  0  0  0  0  0  0
  1  3  1  0  0  0  0
  1 11  1  0  0  0  0
  2  5  1  6  0  0  0
  2  4  1  0  0  0  0
  2  6  1  0  0  0  0
  4  1  2  0  0  0  0
  6 10  1  0  0  0  0
  7  9  2  0  0  0  0
  7  4  1  0  0  0  0
  8  7  1  0  0  0  0
  9 13  1  0  0  0  0
 10 11  1  0  0  0  0
 11 18  1  1  0  0  0
 12 24  1  6  0  0  0
 12  5  1  0  0  0  0
 12  8  1  0  0  0  0
 13  3  2  0  0  0  0
 14 19  2  0  0  0  0
 16 14  1  0  0  0  0
 17 23  2  0  0  0  0
 18 21  1  0  0  0  0
 18 20  2  0  0  0  0
 19 23  1  0  0  0  0
 20 17  1  0  0  0  0
 21 22  1  6  0  0  0
 21 14  1  0  0  0  0
 23 15  1  0  0  0  0
 25 24  1  0  0  0  0
 26 10  1  0  0  0  0
 27 32  1  0  0  0  0
 28 29  1  0  0  0  0
 29 32  1  0  0  0  0
 29 30  1  0  0  0  0
 31 28  1  0  0  0  0
 31 27  1  0  0  0  0
 32 26  1  6  0  0  0
M  END
>  <MODEL>
1

>  <REMARK>
 VINA RESULT:      -6.6      0.000      0.000
  Name = 
  4 active torsions:
  status: ('A' for Active; 'I' for Inactive)
    1  A    between atoms: O_13  and  C_29
    2  A    between atoms: C_16  and  C_27
    3  A    between atoms: N_24  and  C_28
    4  A    between atoms: C_28  and  C_32
                            x       y       z     vdW  Elec       q    Type
                         _______ _______ _______ _____ _____    ______ ____

>  <TORSDO>
F 4

$$$$
=
 OpenBabel10262421093D

 32 36  0  0  1  0  0  0  0  0999 V2000
  182.5510  178.8120  140.1830 C   0  0  0  0  0  0  0  0  0  0  0  0
  181.7870  179.2480  142.5460 C   0  0  2  0  0  3  0  0  0  0  0  0
  183.5690  178.7090  139.2300 C   0  0  0  0  0  3  0  0  0  0  0  0
  182.8740  178.9990  141.5350 C   0  0  0  0  0  0  0  0  0  0  0  0
  182.1200  178.6220  143.8860 C   0  0  0  0  0  2  0  0  0  0  0  0
  180.3510  178.9430  142.0830 C   0  0  0  0  0  2  0  0  0  0  0  0
  184.2260  179.0190  141.9380 C   0  0  0  0  0  0  0  0  0  0  0  0
  184.6210  179.0080  143.3930 C   0  0  0  0  0  2  0  0  0  0  0  0
  185.2340  178.9110  140.9740 C   0  0  0  0  0  3  0  0  0  0  0  0
  180.2490  178.1250  140.8650 N   0  0  0  0  0  0  0  0  0  0  0  0
  181.1200  178.6010  139.7760 C   0  0  1  0  0  3  0  0  0  0  0  0
  183.4450  179.2250  144.3660 C   0  0  2  0  0  3  0  0  0  0  0  0
  184.9080  178.7740  139.6230 C   0  0  0  0  0  3  0  0  0  0  0  0
  180.7380  180.3670  136.6080 C   0  0  0  0  0  0  0  0  0  0  0  0
  179.5090  183.6920  137.3710 F   0  0  0  0  0  0  0  0  0  0  0  0
  181.4300  179.7810  135.6000 F   0  0  0  0  0  0  0  0  0  0  0  0
  179.9100  182.1030  138.9580 N   0  0  0  0  0  0  0  0  0  0  0  0
  180.4930  179.7100  138.9720 C   0  0  0  0  0  0  0  0  0  0  0  0
  180.6750  181.6950  136.6600 C   0  0  0  0  0  3  0  0  0  0  0  0
  180.4010  180.8980  139.5730 C   0  0  0  0  0  3  0  0  0  0  0  0
  179.9740  179.5210  137.5720 C   0  0  2  0  0  3  0  0  0  0  0  0
  179.9870  178.1990  137.1680 F   0  0  0  0  0  0  0  0  0  0  0  0
  179.9760  182.4660  137.7090 C   0  0  0  0  0  0  0  0  0  0  0  0
  183.7590  178.8860  145.7000 O   0  0  0  0  0  0  0  0  0  0  0  0
  185.1470  178.6900  145.8030 C   0  0  0  0  0  1  0  0  0  0  0  0
  180.5760  176.7410  141.1910 C   0  0  0  0  0  2  0  0  0  0  0  0
  178.9310  176.2020  139.4200 C   0  0  0  0  0  2  0  0  0  0  0  0
  179.5050  173.9020  139.4670 C   0  0  0  0  0  2  0  0  0  0  0  0
  179.8940  174.4360  140.7620 N   0  0  0  0  0  0  0  0  0  0  0  0
  179.1390  173.7050  141.7640 C   0  0  0  0  0  1  0  0  0  0  0  0
  179.3410  175.0670  138.5250 C   0  0  0  0  0  2  0  0  0  0  0  0
  179.4300  175.8210  140.8000 C   0  0  1  0  0  3  0  0  0  0  0  0
  1  4  1  0  0  0  0
  2  6  1  6  0  0  0
  2  5  1  0  0  0  0
  3 13  1  0  0  0  0
  3  1  2  0  0  0  0
  4  7  2  0  0  0  0
  4  2  1  0  0  0  0
  5 12  1  0  0  0  0
  7  8  1  0  0  0  0
  8 12  1  0  0  0  0
  9  7  1  0  0  0  0
 10 26  1  0  0  0  0
 10  6  1  0  0  0  0
 11 18  1  1  0  0  0
 11  1  1  0  0  0  0
 11 10  1  0  0  0  0
 12 24  1  1  0  0  0
 13  9  2  0  0  0  0
 14 19  2  0  0  0  0
 14 21  1  0  0  0  0
 15 23  1  0  0  0  0
 16 14  1  0  0  0  0
 17 20  1  0  0  0  0
 18 20  2  0  0  0  0
 19 23  1  0  0  0  0
 21 22  1  6  0  0  0
 21 18  1  0  0  0  0
 23 17  2  0  0  0  0
 24 25  1  0  0  0  0
 27 32  1  0  0  0  0
 28 29  1  0  0  0  0
 29 32  1  0  0  0  0
 29 30  1  0  0  0  0
 31 27  1  0  0  0  0
 31 28  1  0  0  0  0
 32 26  1  6  0  0  0
M  END
>  <MODEL>
2

>  <REMARK>
 VINA RESULT:      -6.6      4.138      7.291
  Name = 
  4 active torsions:
  status: ('A' for Active; 'I' for Inactive)
    1  A    between atoms: O_13  and  C_29
    2  A    between atoms: C_16  and  C_27
    3  A    between atoms: N_24  and  C_28
    4  A    between atoms: C_28  and  C_32
                            x       y       z     vdW  Elec       q    Type
                         _______ _______ _______ _____ _____    ______ ____

>  <TORSDO>
F 4

$$$$
=
 OpenBabel10262421093D

 32 36  0  0  1  0  0  0  0  0999 V2000
  182.9960  179.7320  139.2850 C   0  0  0  0  0  0  0  0  0  0  0  0
  182.0070  178.0560  140.8870 C   0  0  2  0  0  3  0  0  0  0  0  0
  182.8620  180.8340  138.4350 C   0  0  0  0  0  3  0  0  0  0  0  0
  181.9140  179.3200  140.0760 C   0  0  0  0  0  0  0  0  0  0  0  0
  181.2490  178.1790  142.1960 C   0  0  0  0  0  2  0  0  0  0  0  0
  183.4180  177.4700  141.0660 C   0  0  0  0  0  2  0  0  0  0  0  0
  180.7100  180.0570  140.0570 C   0  0  0  0  0  0  0  0  0  0  0  0
  179.5960  179.7830  141.0350 C   0  0  0  0  0  2  0  0  0  0  0  0
  180.5910  181.1600  139.2050 C   0  0  0  0  0  3  0  0  0  0  0  0
  184.5200  178.3850  140.7350 N   0  0  0  0  0  0  0  0  0  0  0  0
  184.3350  179.0670  139.4420 C   0  0  1  0  0  3  0  0  0  0  0  0
  179.7870  178.4930  141.8610 C   0  0  2  0  0  3  0  0  0  0  0  0
  181.6560  181.5370  138.3840 C   0  0  0  0  0  3  0  0  0  0  0  0
  184.2200  175.9500  137.5510 C   0  0  0  0  0  0  0  0  0  0  0  0
  187.2770  175.7540  135.6110 F   0  0  0  0  0  0  0  0  0  0  0  0
  183.3120  175.0740  138.0480 F   0  0  0  0  0  0  0  0  0  0  0  0
  186.7610  177.5100  136.9740 N   0  0  0  0  0  0  0  0  0  0  0  0
  184.7980  178.2360  138.2740 C   0  0  0  0  0  0  0  0  0  0  0  0
  185.3740  175.4860  137.0820 C   0  0  0  0  0  3  0  0  0  0  0  0
  186.1020  178.2850  137.9920 C   0  0  0  0  0  3  0  0  0  0  0  0
  183.8680  177.3970  137.4390 C   0  0  2  0  0  3  0  0  0  0  0  0
  182.5370  177.5950  137.7540 F   0  0  0  0  0  0  0  0  0  0  0  0
  186.4590  176.3220  136.5300 C   0  0  0  0  0  0  0  0  0  0  0  0
  178.9320  178.4220  142.9820 O   0  0  0  0  0  0  0  0  0  0  0  0
  179.7070  178.5120  144.1500 C   0  0  0  0  0  1  0  0  0  0  0  0
  184.6560  179.3730  141.8000 C   0  0  0  0  0  2  0  0  0  0  0  0
  185.8070  178.9230  143.9460 C   0  0  0  0  0  2  0  0  0  0  0  0
  187.1990  177.2790  142.9530 C   0  0  0  0  0  2  0  0  0  0  0  0
  186.7640  178.1420  141.8670 N   0  0  0  0  0  0  0  0  0  0  0  0
  187.9600  178.7210  141.2820 C   0  0  0  0  0  1  0  0  0  0  0  0
  186.2610  177.5010  144.1140 C   0  0  0  0  0  2  0  0  0  0  0  0
  186.0110  179.2360  142.4770 C   0  0  1  0  0  3  0  0  0  0  0  0
  1 11  1  0  0  0  0
  1  4  1  0  0  0  0
  2  6  1  1  0  0  0
  2  5  1  0  0  0  0
  3  1  2  0  0  0  0
  4  2  1  0  0  0  0
  7  4  2  0  0  0  0
  7  8  1  0  0  0  0
  8 12  1  0  0  0  0
  9  7  1  0  0  0  0
 10  6  1  0  0  0  0
 10 26  1  0  0  0  0
 11 18  1  6  0  0  0
 11 10  1  0  0  0  0
 12  5  1  0  0  0  0
 12 24  1  1  0  0  0
 13  3  1  0  0  0  0
 13  9  2  0  0  0  0
 14 16  1  0  0  0  0
 15 23  1  0  0  0  0
 17 20  1  0  0  0  0
 19 14  2  0  0  0  0
 20 18  2  0  0  0  0
 21 14  1  0  0  0  0
 21 22  1  1  0  0  0
 21 18  1  0  0  0  0
 23 17  2  0  0  0  0
 23 19  1  0  0  0  0
 24 25  1  0  0  0  0
 27 31  1  0  0  0  0
 28 31  1  0  0  0  0
 29 32  1  0  0  0  0
 29 28  1  0  0  0  0
 30 29  1  0  0  0  0
 32 26  1  6  0  0  0
 32 27  1  0  0  0  0
M  END
>  <MODEL>
3

>  <REMARK>
 VINA RESULT:      -6.0      3.087      5.751
  Name = 
  4 active torsions:
  status: ('A' for Active; 'I' for Inactive)
    1  A    between atoms: O_13  and  C_29
    2  A    between atoms: C_16  and  C_27
    3  A    between atoms: N_24  and  C_28
    4  A    between atoms: C_28  and  C_32
                            x       y       z     vdW  Elec       q    Type
                         _______ _______ _______ _____ _____    ______ ____

>  <TORSDO>
F 4

$$$$
=
 OpenBabel10262421093D

 32 36  0  0  1  0  0  0  0  0999 V2000
  181.7970  178.4640  140.7090 C   0  0  0  0  0  0  0  0  0  0  0  0
  182.0530  180.3240  139.0270 C   0  0  2  0  0  3  0  0  0  0  0  0
  180.9990  177.6710  141.5400 C   0  0  0  0  0  3  0  0  0  0  0  0
  181.2010  179.3720  139.8230 C   0  0  0  0  0  0  0  0  0  0  0  0
  181.4630  180.5830  137.6540 C   0  0  0  0  0  2  0  0  0  0  0  0
  183.5580  180.0080  138.9830 C   0  0  0  0  0  2  0  0  0  0  0  0
  179.7950  179.4400  139.7260 C   0  0  0  0  0  0  0  0  0  0  0  0
  179.1090  180.2420  138.6500 C   0  0  0  0  0  2  0  0  0  0  0  0
  179.0080  178.6370  140.5600 C   0  0  0  0  0  3  0  0  0  0  0  0
  183.9230  178.6500  139.4120 N   0  0  0  0  0  0  0  0  0  0  0  0
  183.2850  178.2540  140.6800 C   0  0  1  0  0  3  0  0  0  0  0  0
  180.0570  181.1600  137.8500 C   0  0  2  0  0  3  0  0  0  0  0  0
  179.6070  177.7690  141.4760 C   0  0  0  0  0  3  0  0  0  0  0  0
  186.1790  178.0190  142.8870 C   0  0  0  0  0  0  0  0  0  0  0  0
  185.2440  179.5230  146.0520 F   0  0  0  0  0  0  0  0  0  0  0  0
  187.0830  177.1020  142.4630 F   0  0  0  0  0  0  0  0  0  0  0  0
  183.8470  179.4070  144.2510 N   0  0  0  0  0  0  0  0  0  0  0  0
  184.0420  178.7390  141.8880 C   0  0  0  0  0  0  0  0  0  0  0  0
  185.9550  178.1470  144.1920 C   0  0  0  0  0  3  0  0  0  0  0  0
  183.3150  179.0100  142.9740 C   0  0  0  0  0  3  0  0  0  0  0  0
  185.5350  178.9360  141.9010 C   0  0  2  0  0  3  0  0  0  0  0  0
  186.1090  178.7800  140.6530 F   0  0  0  0  0  0  0  0  0  0  0  0
  184.9880  179.0880  144.7940 C   0  0  0  0  0  0  0  0  0  0  0  0
  179.4820  181.6430  136.6550 O   0  0  0  0  0  0  0  0  0  0  0  0
  180.2160  182.7590  136.2170 C   0  0  0  0  0  1  0  0  0  0  0  0
  183.5620  177.7040  138.3600 C   0  0  0  0  0  2  0  0  0  0  0  0
  184.3470  175.6330  137.2530 C   0  0  0  0  0  2  0  0  0  0  0  0
  185.7390  176.8520  135.7690 C   0  0  0  0  0  2  0  0  0  0  0  0
  185.5360  177.7130  136.9230 N   0  0  0  0  0  0  0  0  0  0  0  0
  186.8460  177.9720  137.4920 C   0  0  0  0  0  1  0  0  0  0  0  0
  184.6610  175.7980  135.7930 C   0  0  0  0  0  2  0  0  0  0  0  0
  184.7880  176.9290  137.9040 C   0  0  1  0  0  3  0  0  0  0  0  0
  1  3  1  0  0  0  0
  2  5  1  6  0  0  0
  2  4  1  0  0  0  0
  4  1  2  0  0  0  0
  5 12  1  0  0  0  0
  6  2  1  0  0  0  0
  6 10  1  0  0  0  0
  7  4  1  0  0  0  0
  7  9  2  0  0  0  0
  8  7  1  0  0  0  0
  9 13  1  0  0  0  0
 10 11  1  0  0  0  0
 11  1  1  0  0  0  0
 11 18  1  1  0  0  0
 12 24  1  6  0  0  0
 12  8  1  0  0  0  0
 13  3  2  0  0  0  0
 14 19  2  0  0  0  0
 16 14  1  0  0  0  0
 17 23  2  0  0  0  0
 18 21  1  0  0  0  0
 18 20  2  0  0  0  0
 19 23  1  0  0  0  0
 20 17  1  0  0  0  0
 21 22  1  6  0  0  0
 21 14  1  0  0  0  0
 23 15  1  0  0  0  0
 25 24  1  0  0  0  0
 26 10  1  0  0  0  0
 27 32  1  0  0  0  0
 28 31  1  0  0  0  0
 28 29  1  0  0  0  0
 29 30  1  0  0  0  0
 29 32  1  0  0  0  0
 31 27  1  0  0  0  0
 32 26  1  6  0  0  0
M  END
>  <MODEL>
4

>  <REMARK>
 VINA RESULT:      -6.0      1.547      1.709
  Name = 
  4 active torsions:
  status: ('A' for Active; 'I' for Inactive)
    1  A    between atoms: O_13  and  C_29
    2  A    between atoms: C_16  and  C_27
    3  A    between atoms: N_24  and  C_28
    4  A    between atoms: C_28  and  C_32
                            x       y       z     vdW  Elec       q    Type
                         _______ _______ _______ _____ _____    ______ ____

>  <TORSDO>
F 4

$$$$
=
 OpenBabel10262421093D

 32 36  0  0  1  0  0  0  0  0999 V2000
  183.0450  177.0510  138.7820 C   0  0  0  0  0  0  0  0  0  0  0  0
  185.0850  178.5010  138.4840 C   0  0  2  0  0  3  0  0  0  0  0  0
  182.2960  175.9160  138.4550 C   0  0  0  0  0  3  0  0  0  0  0  0
  184.3300  177.2210  138.2490 C   0  0  0  0  0  0  0  0  0  0  0  0
  186.5750  178.2520  138.6160 C   0  0  0  0  0  2  0  0  0  0  0  0
  184.5310  179.4180  139.5890 C   0  0  0  0  0  2  0  0  0  0  0  0
  184.8910  176.2150  137.4330 C   0  0  0  0  0  0  0  0  0  0  0  0
  186.3360  176.2510  137.0070 C   0  0  0  0  0  2  0  0  0  0  0  0
  184.1330  175.0820  137.1180 C   0  0  0  0  0  3  0  0  0  0  0  0
  183.5690  178.7840  140.5020 N   0  0  0  0  0  0  0  0  0  0  0  0
  182.5200  178.0250  139.7980 C   0  0  1  0  0  3  0  0  0  0  0  0
  187.0520  177.5800  137.3240 C   0  0  2  0  0  3  0  0  0  0  0  0
  182.8340  174.9400  137.6120 C   0  0  0  0  0  3  0  0  0  0  0  0
  179.3800  178.4110  137.9830 C   0  0  0  0  0  0  0  0  0  0  0  0
  179.0010  181.9380  137.2260 F   0  0  0  0  0  0  0  0  0  0  0  0
  178.9310  177.2410  137.4670 F   0  0  0  0  0  0  0  0  0  0  0  0
  180.7680  181.0820  138.3890 N   0  0  0  0  0  0  0  0  0  0  0  0
  181.3760  178.8960  139.3480 C   0  0  0  0  0  0  0  0  0  0  0  0
  179.2240  179.5290  137.2780 C   0  0  0  0  0  3  0  0  0  0  0  0
  181.6950  180.1240  138.9320 C   0  0  0  0  0  3  0  0  0  0  0  0
  179.9400  178.4450  139.3670 C   0  0  2  0  0  3  0  0  0  0  0  0
  179.7690  177.2210  139.9850 F   0  0  0  0  0  0  0  0  0  0  0  0
  179.6800  180.8670  137.7050 C   0  0  0  0  0  0  0  0  0  0  0  0
  188.4580  177.4880  137.2310 O   0  0  0  0  0  0  0  0  0  0  0  0
  188.9970  178.7850  137.2160 C   0  0  0  0  0  1  0  0  0  0  0  0
  184.2880  177.9020  141.4160 C   0  0  0  0  0  2  0  0  0  0  0  0
  184.5490  179.3440  143.4110 C   0  0  0  0  0  2  0  0  0  0  0  0
  186.3670  178.0500  144.2150 C   0  0  0  0  0  2  0  0  0  0  0  0
  186.3100  177.8110  142.7820 N   0  0  0  0  0  0  0  0  0  0  0  0
  187.5790  178.2500  142.2290 C   0  0  0  0  0  1  0  0  0  0  0  0
  185.0350  178.6190  144.6340 C   0  0  0  0  0  2  0  0  0  0  0  0
  185.2790  178.6990  142.2500 C   0  0  1  0  0  3  0  0  0  0  0  0
  1 11  1  0  0  0  0
  2  5  1  1  0  0  0
  2  6  1  0  0  0  0
  3  1  1  0  0  0  0
  4  2  1  0  0  0  0
  4  1  2  0  0  0  0
  6 10  1  0  0  0  0
  7  4  1  0  0  0  0
  8 12  1  0  0  0  0
  8  7  1  0  0  0  0
  9  7  2  0  0  0  0
  9 13  1  0  0  0  0
 10 26  1  0  0  0  0
 11 18  1  6  0  0  0
 11 10  1  0  0  0  0
 12 24  1  1  0  0  0
 12  5  1  0  0  0  0
 13  3  2  0  0  0  0
 14 21  1  0  0  0  0
 15 23  1  0  0  0  0
 16 14  1  0  0  0  0
 17 20  1  0  0  0  0
 18 21  1  0  0  0  0
 19 23  1  0  0  0  0
 19 14  2  0  0  0  0
 20 18  2  0  0  0  0
 21 22  1  6  0  0  0
 23 17  2  0  0  0  0
 25 24  1  0  0  0  0
 27 31  1  0  0  0  0
 28 31  1  0  0  0  0
 29 28  1  0  0  0  0
 30 29  1  0  0  0  0
 32 26  1  1  0  0  0
 32 29  1  0  0  0  0
 32 27  1  0  0  0  0
M  END
>  <MODEL>
5

>  <REMARK>
 VINA RESULT:      -5.9      3.408      6.175
  Name = 
  4 active torsions:
  status: ('A' for Active; 'I' for Inactive)
    1  A    between atoms: O_13  and  C_29
    2  A    between atoms: C_16  and  C_27
    3  A    between atoms: N_24  and  C_28
    4  A    between atoms: C_28  and  C_32
                            x       y       z     vdW  Elec       q    Type
                         _______ _______ _______ _____ _____    ______ ____

>  <TORSDO>
F 4

$$$$
=
 OpenBabel10262421093D

 32 36  0  0  1  0  0  0  0  0999 V2000
  180.7010  178.1400  140.3100 C   0  0  0  0  0  0  0  0  0  0  0  0
  183.1940  178.0630  140.6730 C   0  0  2  0  0  3  0  0  0  0  0  0
  179.3970  178.2330  140.8080 C   0  0  0  0  0  3  0  0  0  0  0  0
  181.7940  178.2980  141.1730 C   0  0  0  0  0  0  0  0  0  0  0  0
  184.1850  179.0020  141.3350 C   0  0  0  0  0  2  0  0  0  0  0  0
  183.3630  177.9950  139.1450 C   0  0  0  0  0  2  0  0  0  0  0  0
  181.5770  178.6120  142.5320 C   0  0  0  0  0  0  0  0  0  0  0  0
  182.7100  178.9950  143.4500 C   0  0  0  0  0  2  0  0  0  0  0  0
  180.2680  178.7070  143.0160 C   0  0  0  0  0  3  0  0  0  0  0  0
  182.2260  178.5120  138.3690 N   0  0  0  0  0  0  0  0  0  0  0  0
  180.9270  177.9940  138.8320 C   0  0  1  0  0  3  0  0  0  0  0  0
  184.1120  178.7670  142.8480 C   0  0  2  0  0  3  0  0  0  0  0  0
  179.1820  178.5000  142.1630 C   0  0  0  0  0  3  0  0  0  0  0  0
  181.9900  174.6650  137.7880 C   0  0  0  0  0  0  0  0  0  0  0  0
  179.5430  173.4520  135.4020 F   0  0  0  0  0  0  0  0  0  0  0  0
  183.2950  174.4250  138.0670 F   0  0  0  0  0  0  0  0  0  0  0  0
  179.3940  175.4800  136.4390 N   0  0  0  0  0  0  0  0  0  0  0  0
  180.5960  176.6470  138.2450 C   0  0  0  0  0  0  0  0  0  0  0  0
  181.4760  174.1940  136.6550 C   0  0  0  0  0  3  0  0  0  0  0  0
  179.7730  176.6450  137.1940 C   0  0  0  0  0  3  0  0  0  0  0  0
  181.1310  175.3530  138.7970 C   0  0  2  0  0  3  0  0  0  0  0  0
  181.8210  175.5190  139.9830 F   0  0  0  0  0  0  0  0  0  0  0  0
  180.0800  174.3950  136.2140 C   0  0  0  0  0  0  0  0  0  0  0  0
  185.1360  179.4250  143.5630 O   0  0  0  0  0  0  0  0  0  0  0  0
  185.0720  179.0320  144.9110 C   0  0  0  0  0  1  0  0  0  0  0  0
  182.2280  179.9700  138.4330 C   0  0  0  0  0  2  0  0  0  0  0  0
  180.5460  181.7620  138.7330 C   0  0  0  0  0  2  0  0  0  0  0  0
  180.5390  182.2610  136.4140 C   0  0  0  0  0  2  0  0  0  0  0  0
  181.0140  180.8920  136.5260 N   0  0  0  0  0  0  0  0  0  0  0  0
  180.0790  180.0590  135.7910 C   0  0  0  0  0  1  0  0  0  0  0  0
  180.6880  182.9060  137.7690 C   0  0  0  0  0  2  0  0  0  0  0  0
  180.9020  180.5230  137.9360 C   0  0  1  0  0  3  0  0  0  0  0  0
  1  3  2  0  0  0  0
  1  4  1  0  0  0  0
  2  6  1  6  0  0  0
  2  4  1  0  0  0  0
  2  5  1  0  0  0  0
  3 13  1  0  0  0  0
  4  7  2  0  0  0  0
  5 12  1  0  0  0  0
  7  9  1  0  0  0  0
  7  8  1  0  0  0  0
 10 26  1  0  0  0  0
 10 11  1  0  0  0  0
 10  6  1  0  0  0  0
 11 18  1  1  0  0  0
 11  1  1  0  0  0  0
 12  8  1  0  0  0  0
 12 24  1  1  0  0  0
 13  9  2  0  0  0  0
 14 16  1  0  0  0  0
 14 21  1  0  0  0  0
 15 23  1  0  0  0  0
 17 20  1  0  0  0  0
 18 21  1  0  0  0  0
 19 14  2  0  0  0  0
 20 18  2  0  0  0  0
 21 22  1  1  0  0  0
 23 17  2  0  0  0  0
 23 19  1  0  0  0  0
 24 25  1  0  0  0  0
 28 29  1  0  0  0  0
 28 31  1  0  0  0  0
 29 32  1  0  0  0  0
 30 29  1  0  0  0  0
 31 27  1  0  0  0  0
 32 26  1  1  0  0  0
 32 27  1  0  0  0  0
M  END
>  <MODEL>
6

>  <REMARK>
 VINA RESULT:      -5.9      3.793      6.852
  Name = 
  4 active torsions:
  status: ('A' for Active; 'I' for Inactive)
    1  A    between atoms: O_13  and  C_29
    2  A    between atoms: C_16  and  C_27
    3  A    between atoms: N_24  and  C_28
    4  A    between atoms: C_28  and  C_32
                            x       y       z     vdW  Elec       q    Type
                         _______ _______ _______ _____ _____    ______ ____

>  <TORSDO>
F 4

$$$$
=
 OpenBabel10262421093D

 32 36  0  0  1  0  0  0  0  0999 V2000
  182.0540  178.4260  140.9540 C   0  0  0  0  0  0  0  0  0  0  0  0
  184.2450  178.0630  139.7630 C   0  0  2  0  0  3  0  0  0  0  0  0
  181.3230  178.6380  142.1270 C   0  0  0  0  0  3  0  0  0  0  0  0
  183.4550  178.4260  140.9910 C   0  0  0  0  0  0  0  0  0  0  0  0
  185.5340  178.8570  139.6760 C   0  0  0  0  0  2  0  0  0  0  0  0
  183.4640  178.0450  138.4380 C   0  0  0  0  0  2  0  0  0  0  0  0
  184.1260  178.7010  142.2020 C   0  0  0  0  0  0  0  0  0  0  0  0
  185.6160  178.9180  142.2530 C   0  0  0  0  0  2  0  0  0  0  0  0
  183.3820  178.9160  143.3670 C   0  0  0  0  0  3  0  0  0  0  0  0
  182.1560  178.7160  138.4760 N   0  0  0  0  0  0  0  0  0  0  0  0
  181.3380  178.3220  139.6360 C   0  0  1  0  0  3  0  0  0  0  0  0
  186.3480  178.5650  140.9410 C   0  0  2  0  0  3  0  0  0  0  0  0
  181.9870  178.8670  143.3350 C   0  0  0  0  0  3  0  0  0  0  0  0
  179.6130  175.3950  140.9610 C   0  0  0  0  0  0  0  0  0  0  0  0
  179.5580  172.8960  138.3340 F   0  0  0  0  0  0  0  0  0  0  0  0
  179.5460  175.4000  142.3160 F   0  0  0  0  0  0  0  0  0  0  0  0
  180.4790  174.9690  138.0820 N   0  0  0  0  0  0  0  0  0  0  0  0
  180.5720  177.0470  139.4020 C   0  0  0  0  0  0  0  0  0  0  0  0
  179.8100  174.2410  140.3300 C   0  0  0  0  0  3  0  0  0  0  0  0
  181.0160  176.2610  138.4180 C   0  0  0  0  0  3  0  0  0  0  0  0
  179.3590  176.6550  140.2020 C   0  0  2  0  0  3  0  0  0  0  0  0
  178.9330  177.6540  141.0570 F   0  0  0  0  0  0  0  0  0  0  0  0
  179.9230  174.0880  138.8650 C   0  0  0  0  0  0  0  0  0  0  0  0
  187.6640  179.0750  140.8870 O   0  0  0  0  0  0  0  0  0  0  0  0
  188.4350  178.2520  140.0490 C   0  0  0  0  0  1  0  0  0  0  0  0
  182.3620  180.1610  138.4830 C   0  0  0  0  0  2  0  0  0  0  0  0
  181.2610  182.3750  138.3490 C   0  0  0  0  0  2  0  0  0  0  0  0
  180.4010  181.9110  136.1880 C   0  0  0  0  0  2  0  0  0  0  0  0
  180.6500  180.6180  136.8030 N   0  0  0  0  0  0  0  0  0  0  0  0
  179.3750  179.9250  136.8600 C   0  0  0  0  0  1  0  0  0  0  0  0
  181.1860  182.9410  136.9590 C   0  0  0  0  0  2  0  0  0  0  0  0
  181.0570  180.8820  138.1820 C   0  0  1  0  0  3  0  0  0  0  0  0
  1  4  2  0  0  0  0
  1  3  1  0  0  0  0
  2  6  1  6  0  0  0
  2  4  1  0  0  0  0
  3 13  2  0  0  0  0
  4  7  1  0  0  0  0
  5  2  1  0  0  0  0
  5 12  1  0  0  0  0
  6 10  1  0  0  0  0
  7  8  1  0  0  0  0
  7  9  2  0  0  0  0
 10 26  1  0  0  0  0
 10 11  1  0  0  0  0
 11 18  1  6  0  0  0
 11  1  1  0  0  0  0
 12 24  1  6  0  0  0
 12  8  1  0  0  0  0
 13  9  1  0  0  0  0
 14 16  1  0  0  0  0
 15 23  1  0  0  0  0
 17 20  1  0  0  0  0
 17 23  2  0  0  0  0
 18 21  1  0  0  0  0
 19 14  2  0  0  0  0
 20 18  2  0  0  0  0
 21 14  1  0  0  0  0
 21 22  1  1  0  0  0
 23 19  1  0  0  0  0
 25 24  1  0  0  0  0
 28 29  1  0  0  0  0
 28 31  1  0  0  0  0
 29 30  1  0  0  0  0
 29 32  1  0  0  0  0
 31 27  1  0  0  0  0
 32 27  1  0  0  0  0
 32 26  1  6  0  0  0
M  END
>  <MODEL>
7

>  <REMARK>
 VINA RESULT:      -5.8      3.557      6.600
  Name = 
  4 active torsions:
  status: ('A' for Active; 'I' for Inactive)
    1  A    between atoms: O_13  and  C_29
    2  A    between atoms: C_16  and  C_27
    3  A    between atoms: N_24  and  C_28
    4  A    between atoms: C_28  and  C_32
                            x       y       z     vdW  Elec       q    Type
                         _______ _______ _______ _____ _____    ______ ____

>  <TORSDO>
F 4

$$$$
=
 OpenBabel10262421093D

 32 36  0  0  1  0  0  0  0  0999 V2000
  183.8220  178.0450  139.4410 C   0  0  0  0  0  0  0  0  0  0  0  0
  181.8810  176.4600  139.7170 C   0  0  2  0  0  3  0  0  0  0  0  0
  185.0540  178.3780  138.8690 C   0  0  0  0  0  3  0  0  0  0  0  0
  183.1360  176.8990  139.0120 C   0  0  0  0  0  0  0  0  0  0  0  0
  180.8890  175.8410  138.7510 C   0  0  0  0  0  2  0  0  0  0  0  0
  181.2360  177.4940  140.6560 C   0  0  0  0  0  2  0  0  0  0  0  0
  183.6610  176.1190  137.9600 C   0  0  0  0  0  0  0  0  0  0  0  0
  182.8680  175.0060  137.3250 C   0  0  0  0  0  2  0  0  0  0  0  0
  184.8920  176.4660  137.3930 C   0  0  0  0  0  3  0  0  0  0  0  0
  181.7100  178.8750  140.4820 N   0  0  0  0  0  0  0  0  0  0  0  0
  183.1780  178.9800  140.4260 C   0  0  1  0  0  3  0  0  0  0  0  0
  181.5730  174.6440  138.0820 C   0  0  2  0  0  3  0  0  0  0  0  0
  185.5950  177.5800  137.8570 C   0  0  0  0  0  3  0  0  0  0  0  0
  185.9690  178.1970  142.6390 C   0  0  0  0  0  0  0  0  0  0  0  0
  184.7020  178.2720  146.0370 F   0  0  0  0  0  0  0  0  0  0  0  0
  187.0000  177.6060  141.9870 F   0  0  0  0  0  0  0  0  0  0  0  0
  183.4190  178.7210  144.2040 N   0  0  0  0  0  0  0  0  0  0  0  0
  183.8100  179.0350  141.7920 C   0  0  0  0  0  0  0  0  0  0  0  0
  185.6680  177.7920  143.8700 C   0  0  0  0  0  3  0  0  0  0  0  0
  183.0030  178.7950  142.8280 C   0  0  0  0  0  3  0  0  0  0  0  0
  185.2630  179.3560  142.0150 C   0  0  2  0  0  3  0  0  0  0  0  0
  185.9120  179.7480  140.8590 F   0  0  0  0  0  0  0  0  0  0  0  0
  184.5630  178.3300  144.6900 C   0  0  0  0  0  0  0  0  0  0  0  0
  180.6880  173.8520  137.3180 O   0  0  0  0  0  0  0  0  0  0  0  0
  179.5520  173.5670  138.0940 C   0  0  0  0  0  1  0  0  0  0  0  0
  181.1270  179.4290  139.2630 C   0  0  0  0  0  2  0  0  0  0  0  0
  181.6690  181.6850  138.4000 C   0  0  0  0  0  2  0  0  0  0  0  0
  179.3750  182.2670  138.2390 C   0  0  0  0  0  2  0  0  0  0  0  0
  179.4470  181.2000  139.2230 N   0  0  0  0  0  0  0  0  0  0  0  0
  178.9320  181.7390  140.4690 C   0  0  0  0  0  1  0  0  0  0  0  0
  180.6530  182.2360  137.4390 C   0  0  0  0  0  2  0  0  0  0  0  0
  180.8660  180.9170  139.4310 C   0  0  1  0  0  3  0  0  0  0  0  0
  1 11  1  0  0  0  0
  2  5  1  6  0  0  0
  2  6  1  0  0  0  0
  3  1  2  0  0  0  0
  4  1  1  0  0  0  0
  4  2  1  0  0  0  0
  7  4  2  0  0  0  0
  8  7  1  0  0  0  0
  8 12  1  0  0  0  0
  9 13  2  0  0  0  0
  9  7  1  0  0  0  0
 10  6  1  0  0  0  0
 11 10  1  0  0  0  0
 11 18  1  1  0  0  0
 12 24  1  6  0  0  0
 12  5  1  0  0  0  0
 13  3  1  0  0  0  0
 14 19  2  0  0  0  0
 16 14  1  0  0  0  0
 17 23  2  0  0  0  0
 18 21  1  0  0  0  0
 18 20  2  0  0  0  0
 19 23  1  0  0  0  0
 20 17  1  0  0  0  0
 21 22  1  6  0  0  0
 21 14  1  0  0  0  0
 23 15  1  0  0  0  0
 24 25  1  0  0  0  0
 26 10  1  0  0  0  0
 27 32  1  0  0  0  0
 28 29  1  0  0  0  0
 29 32  1  0  0  0  0
 29 30  1  0  0  0  0
 31 28  1  0  0  0  0
 31 27  1  0  0  0  0
 32 26  1  6  0  0  0
M  END
>  <MODEL>
8

>  <REMARK>
 VINA RESULT:      -5.7      2.207      4.721
  Name = 
  4 active torsions:
  status: ('A' for Active; 'I' for Inactive)
    1  A    between atoms: O_13  and  C_29
    2  A    between atoms: C_16  and  C_27
    3  A    between atoms: N_24  and  C_28
    4  A    between atoms: C_28  and  C_32
                            x       y       z     vdW  Elec       q    Type
                         _______ _______ _______ _____ _____    ______ ____

>  <TORSDO>
F 4

$$$$
=
 OpenBabel10262421093D

 32 36  0  0  1  0  0  0  0  0999 V2000
  187.8700  174.9830  136.8580 C   0  0  0  0  0  0  0  0  0  0  0  0
  189.8220  176.2250  135.8560 C   0  0  2  0  0  3  0  0  0  0  0  0
  187.1160  173.8160  137.0130 C   0  0  0  0  0  3  0  0  0  0  0  0
  189.0760  174.9490  136.1440 C   0  0  0  0  0  0  0  0  0  0  0  0
  191.3230  176.0080  135.8770 C   0  0  0  0  0  2  0  0  0  0  0  0
  189.3840  177.4600  136.6620 C   0  0  0  0  0  2  0  0  0  0  0  0
  189.5580  173.7240  135.6370 C   0  0  0  0  0  0  0  0  0  0  0  0
  190.9400  173.5960  135.0490 C   0  0  0  0  0  2  0  0  0  0  0  0
  188.7960  172.5630  135.8040 C   0  0  0  0  0  3  0  0  0  0  0  0
  188.5560  177.1730  137.8420 N   0  0  0  0  0  0  0  0  0  0  0  0
  187.4480  176.2440  137.5590 C   0  0  1  0  0  3  0  0  0  0  0  0
  191.6550  174.9440  134.8250 C   0  0  2  0  0  3  0  0  0  0  0  0
  187.5710  172.6100  136.4730 C   0  0  0  0  0  3  0  0  0  0  0  0
  183.9940  177.3550  137.9320 C   0  0  0  0  0  0  0  0  0  0  0  0
  182.6550  177.8430  134.5970 F   0  0  0  0  0  0  0  0  0  0  0  0
  183.4940  177.0920  139.1640 F   0  0  0  0  0  0  0  0  0  0  0  0
  184.7990  177.1810  135.0080 N   0  0  0  0  0  0  0  0  0  0  0  0
  186.2370  176.9390  136.9940 C   0  0  0  0  0  0  0  0  0  0  0  0
  183.2000  177.2240  136.8720 C   0  0  0  0  0  3  0  0  0  0  0  0
  185.9510  176.6850  135.7150 C   0  0  0  0  0  3  0  0  0  0  0  0
  185.3830  177.8860  137.7930 C   0  0  2  0  0  3  0  0  0  0  0  0
  185.9150  178.1710  139.0370 F   0  0  0  0  0  0  0  0  0  0  0  0
  183.6140  177.4580  135.4730 C   0  0  0  0  0  0  0  0  0  0  0  0
  193.0410  174.8040  134.5940 O   0  0  0  0  0  0  0  0  0  0  0  0
  193.7220  175.8150  135.2940 C   0  0  0  0  0  1  0  0  0  0  0  0
  189.4030  176.6250  138.8980 C   0  0  0  0  0  2  0  0  0  0  0  0
  188.6410  178.6230  140.1460 C   0  0  0  0  0  2  0  0  0  0  0  0
  189.5490  177.8050  142.1780 C   0  0  0  0  0  2  0  0  0  0  0  0
  190.2840  177.1370  141.1160 N   0  0  0  0  0  0  0  0  0  0  0  0
  191.6800  177.5010  141.2760 C   0  0  0  0  0  1  0  0  0  0  0  0
  188.2780  178.3520  141.5780 C   0  0  0  0  0  2  0  0  0  0  0  0
  189.8280  177.7250  139.8580 C   0  0  1  0  0  3  0  0  0  0  0  0
  1  3  1  0  0  0  0
  1 11  1  0  0  0  0
  2  5  1  1  0  0  0
  2  4  1  0  0  0  0
  2  6  1  0  0  0  0
  4  1  2  0  0  0  0
  6 10  1  0  0  0  0
  7  9  2  0  0  0  0
  7  4  1  0  0  0  0
  8  7  1  0  0  0  0
  9 13  1  0  0  0  0
 10 26  1  0  0  0  0
 11 18  1  6  0  0  0
 11 10  1  0  0  0  0
 12 24  1  1  0  0  0
 12  8  1  0  0  0  0
 12  5  1  0  0  0  0
 13  3  2  0  0  0  0
 14 16  1  0  0  0  0
 15 23  1  0  0  0  0
 17 23  2  0  0  0  0
 17 20  1  0  0  0  0
 18 21  1  0  0  0  0
 19 14  2  0  0  0  0
 20 18  2  0  0  0  0
 21 14  1  0  0  0  0
 21 22  1  1  0  0  0
 23 19  1  0  0  0  0
 24 25  1  0  0  0  0
 27 31  1  0  0  0  0
 29 30  1  0  0  0  0
 29 28  1  0  0  0  0
 31 28  1  0  0  0  0
 32 26  1  6  0  0  0
 32 27  1  0  0  0  0
 32 29  1  0  0  0  0
M  END
>  <MODEL>
9

>  <REMARK>
 VINA RESULT:      -5.7      4.445      8.186
  Name = 
  4 active torsions:
  status: ('A' for Active; 'I' for Inactive)
    1  A    between atoms: O_13  and  C_29
    2  A    between atoms: C_16  and  C_27
    3  A    between atoms: N_24  and  C_28
    4  A    between atoms: C_28  and  C_32
                            x       y       z     vdW  Elec       q    Type
                         _______ _______ _______ _____ _____    ______ ____

>  <TORSDO>
F 4

$$$$
