=
 OpenBabel10262419113D

 34 39  0  0  1  0  0  0  0  0999 V2000
  188.4350  178.6290  138.6760 C   0  0  2  0  0  3  0  0  0  0  0  0
  186.7920  176.8420  137.9410 C   0  0  1  0  0  3  0  0  0  0  0  0
  186.2000  178.4600  139.7380 N   0  0  0  0  0  0  0  0  0  0  0  0
  183.9980  178.4370  140.8790 C   0  0  0  0  0  0  0  0  0  0  0  0
  189.0700  176.9040  137.0370 N   0  0  0  0  0  2  0  0  0  0  0  0
  187.6700  176.6600  136.7040 C   0  0  0  0  0  2  0  0  0  0  0  0
  184.2730  179.4920  138.7030 C   0  0  0  0  0  2  0  0  0  0  0  0
  186.9510  178.2750  138.4850 C   0  0  1  0  0  3  0  0  0  0  0  0
  182.8960  180.0190  138.7380 C   0  0  0  0  0  3  0  0  0  0  0  0
  182.2280  178.2220  140.7190 S   0  0  0  0  0  0  0  0  0  0  0  0
  189.2220  178.3120  137.4020 C   0  0  0  0  0  2  0  0  0  0  0  0
  186.8170  178.2490  141.0330 C   0  0  2  0  0  3  0  0  0  0  0  0
  189.0080  177.8590  139.8600 C   0  0  0  0  0  2  0  0  0  0  0  0
  185.3550  176.5520  137.5530 C   0  0  0  0  0  1  0  0  0  0  0  0
  184.5940  178.1330  141.9900 N   0  0  0  0  0  0  0  0  0  0  0  0
  186.0300  178.1290  142.1370 C   0  0  0  0  0  0  0  0  0  0  0  0
  181.9790  179.6370  139.6330 C   0  0  0  0  0  0  0  0  0  0  0  0
  184.7990  178.7710  139.6990 C   0  0  0  0  0  0  0  0  0  0  0  0
  188.3200  178.2900  141.1440 C   0  0  0  0  0  2  0  0  0  0  0  0
  186.4190  178.3270  145.8790 N   0  0  0  0  0  0  0  0  0  0  0  0
  187.5340  177.4290  146.1890 C   0  0  0  0  0  2  0  0  0  0  0  0
  186.5720  177.9440  143.5070 C   0  0  0  0  0  0  0  0  0  0  0  0
  188.3690  177.1370  144.9740 C   0  0  0  0  0  3  0  0  0  0  0  0
  185.8990  178.4410  144.5500 C   0  0  0  0  0  3  0  0  0  0  0  0
  187.9050  177.3500  143.7410 C   0  0  0  0  0  3  0  0  0  0  0  0
  185.6870  178.9350  146.9720 C   0  0  0  0  0  1  0  0  0  0  0  0
  180.6720  180.3500  139.6930 C   0  0  0  0  0  2  0  0  0  0  0  0
  179.8850  180.0520  138.5070 N   0  0  0  0  0  2  0  0  0  0  0  0
  180.2510  181.9270  136.9830 C   0  0  0  0  0  2  0  0  0  0  0  0
  180.8900  183.0830  137.4700 O   0  0  0  0  0  0  0  0  0  0  0  0
  178.9310  183.7010  138.7710 C   0  0  0  0  0  2  0  0  0  0  0  0
  179.1110  182.2520  139.2290 C   0  0  0  0  0  2  0  0  0  0  0  0
  179.3220  181.3070  138.0410 C   0  0  2  0  0  3  0  0  0  0  0  0
  179.8810  184.0530  137.6160 C   0  0  0  0  0  2  0  0  0  0  0  0
  1 11  1  6  0  0  0
  1 13  1  0  0  0  0
  2 14  1  6  0  0  0
  2  8  1  0  0  0  0
  3 12  1  0  0  0  0
  4 15  1  0  0  0  0
  5 11  1  0  0  0  0
  6  5  1  0  0  0  0
  6  2  1  0  0  0  0
  7  9  1  0  0  0  0
  7 18  1  0  0  0  0
  8  1  1  0  0  0  0
  8  3  1  1  0  0  0
  9 17  2  0  0  0  0
 10  4  1  0  0  0  0
 12 19  1  1  0  0  0
 12 16  1  0  0  0  0
 13 19  1  0  0  0  0
 15 16  2  0  0  0  0
 16 22  1  0  0  0  0
 17 27  1  0  0  0  0
 17 10  1  0  0  0  0
 18  3  1  0  0  0  0
 18  4  2  0  0  0  0
 20 21  1  0  0  0  0
 20 26  1  0  0  0  0
 22 25  1  0  0  0  0
 22 24  2  0  0  0  0
 23 21  1  0  0  0  0
 24 20  1  0  0  0  0
 25 23  2  0  0  0  0
 28 27  1  0  0  0  0
 29 30  1  0  0  0  0
 29 33  1  0  0  0  0
 30 34  1  0  0  0  0
 31 32  1  0  0  0  0
 33 28  1  1  0  0  0
 33 32  1  0  0  0  0
 34 31  1  0  0  0  0
M  END
>  <MODEL>
1

>  <REMARK>
 VINA RESULT:      -7.6      0.000      0.000
  Name = 
  4 active torsions:
  status: ('A' for Active; 'I' for Inactive)
    1  A    between atoms: C_3  and  N_13
    2  A    between atoms: C_3  and  C_29
    3  A    between atoms: C_12  and  C_28
    4  A    between atoms: N_13  and  C_33
                            x       y       z     vdW  Elec       q    Type
                         _______ _______ _______ _____ _____    ______ ____

>  <TORSDO>
F 4

$$$$
=
 OpenBabel10262419113D

 34 39  0  0  1  0  0  0  0  0999 V2000
  180.3130  178.6950  141.1100 C   0  0  2  0  0  3  0  0  0  0  0  0
  181.2730  180.5360  139.6530 C   0  0  1  0  0  3  0  0  0  0  0  0
  182.6910  178.6330  140.4080 N   0  0  0  0  0  0  0  0  0  0  0  0
  185.0780  178.4160  139.7710 C   0  0  0  0  0  0  0  0  0  0  0  0
  178.9810  180.6780  140.5110 N   0  0  0  0  0  2  0  0  0  0  0  0
  179.8310  180.9380  139.3530 C   0  0  0  0  0  2  0  0  0  0  0  0
  183.3060  177.7350  138.2470 C   0  0  0  0  0  2  0  0  0  0  0  0
  181.3320  179.0380  140.0110 C   0  0  1  0  0  3  0  0  0  0  0  0
  184.2820  177.1760  137.2950 C   0  0  0  0  0  3  0  0  0  0  0  0
  186.3120  178.6100  138.4880 S   0  0  0  0  0  0  0  0  0  0  0  0
  178.9310  179.2330  140.7350 C   0  0  0  0  0  2  0  0  0  0  0  0
  183.1150  178.6470  141.7940 C   0  0  2  0  0  3  0  0  0  0  0  0
  180.7670  179.2770  142.4430 C   0  0  0  0  0  2  0  0  0  0  0  0
  182.1200  180.8490  138.4340 C   0  0  0  0  0  1  0  0  0  0  0  0
  185.4080  178.5510  141.0180 N   0  0  0  0  0  0  0  0  0  0  0  0
  184.4410  178.5670  142.0890 C   0  0  0  0  0  0  0  0  0  0  0  0
  185.6010  177.3840  137.3770 C   0  0  0  0  0  0  0  0  0  0  0  0
  183.6650  178.2980  139.4070 C   0  0  0  0  0  0  0  0  0  0  0  0
  182.0690  178.6260  142.8790 C   0  0  0  0  0  2  0  0  0  0  0  0
  186.6740  177.9000  145.0500 N   0  0  0  0  0  0  0  0  0  0  0  0
  186.0680  178.6490  146.1530 C   0  0  0  0  0  2  0  0  0  0  0  0
  184.9660  178.5410  143.4780 C   0  0  0  0  0  0  0  0  0  0  0  0
  184.6350  179.0030  145.8680 C   0  0  0  0  0  3  0  0  0  0  0  0
  186.1610  177.9900  143.7160 C   0  0  0  0  0  3  0  0  0  0  0  0
  184.1450  178.9780  144.6270 C   0  0  0  0  0  3  0  0  0  0  0  0
  187.9450  177.2390  145.2680 C   0  0  0  0  0  1  0  0  0  0  0  0
  186.5180  176.6380  136.4690 C   0  0  0  0  0  2  0  0  0  0  0  0
  187.2380  175.6180  137.2140 N   0  0  0  0  0  2  0  0  0  0  0  0
  189.2840  174.4410  136.5800 C   0  0  0  0  0  2  0  0  0  0  0  0
  190.1550  173.9990  137.5930 O   0  0  0  0  0  0  0  0  0  0  0  0
  190.8610  176.2760  138.0750 C   0  0  0  0  0  2  0  0  0  0  0  0
  189.3410  176.4470  138.1370 C   0  0  0  0  0  2  0  0  0  0  0  0
  188.6510  175.7980  136.9310 C   0  0  2  0  0  3  0  0  0  0  0  0
  191.2540  174.8780  137.5730 C   0  0  0  0  0  2  0  0  0  0  0  0
  1 11  1  6  0  0  0
  1 13  1  0  0  0  0
  2 14  1  6  0  0  0
  2  8  1  0  0  0  0
  3 12  1  0  0  0  0
  4 15  1  0  0  0  0
  5 11  1  0  0  0  0
  6  2  1  0  0  0  0
  6  5  1  0  0  0  0
  7 18  1  0  0  0  0
  8  3  1  1  0  0  0
  8  1  1  0  0  0  0
  9 17  2  0  0  0  0
  9  7  1  0  0  0  0
 10  4  1  0  0  0  0
 12 16  1  0  0  0  0
 12 19  1  1  0  0  0
 13 19  1  0  0  0  0
 15 16  2  0  0  0  0
 16 22  1  0  0  0  0
 17 10  1  0  0  0  0
 18  4  2  0  0  0  0
 18  3  1  0  0  0  0
 20 26  1  0  0  0  0
 20 21  1  0  0  0  0
 22 24  2  0  0  0  0
 22 25  1  0  0  0  0
 23 21  1  0  0  0  0
 24 20  1  0  0  0  0
 25 23  2  0  0  0  0
 27 28  1  0  0  0  0
 27 17  1  0  0  0  0
 29 33  1  0  0  0  0
 29 30  1  0  0  0  0
 31 32  1  0  0  0  0
 33 28  1  1  0  0  0
 33 32  1  0  0  0  0
 34 30  1  0  0  0  0
 34 31  1  0  0  0  0
M  END
>  <MODEL>
2

>  <REMARK>
 VINA RESULT:      -7.4      2.966      7.469
  Name = 
  4 active torsions:
  status: ('A' for Active; 'I' for Inactive)
    1  A    between atoms: C_3  and  N_13
    2  A    between atoms: C_3  and  C_29
    3  A    between atoms: C_12  and  C_28
    4  A    between atoms: N_13  and  C_33
                            x       y       z     vdW  Elec       q    Type
                         _______ _______ _______ _____ _____    ______ ____

>  <TORSDO>
F 4

$$$$
=
 OpenBabel10262419113D

 34 39  0  0  1  0  0  0  0  0999 V2000
  186.7340  176.4720  136.5890 C   0  0  2  0  0  3  0  0  0  0  0  0
  188.3090  178.4520  136.7670 C   0  0  1  0  0  3  0  0  0  0  0  0
  187.0760  177.6170  138.7620 N   0  0  0  0  0  0  0  0  0  0  0  0
  187.3300  178.6390  141.0080 C   0  0  0  0  0  0  0  0  0  0  0  0
  187.8140  177.4300  134.5940 N   0  0  0  0  0  2  0  0  0  0  0  0
  188.8680  178.0240  135.4110 C   0  0  0  0  0  2  0  0  0  0  0  0
  188.9630  177.0430  140.1640 C   0  0  0  0  0  3  0  0  0  0  0  0
  187.7190  177.2290  137.4950 C   0  0  1  0  0  3  0  0  0  0  0  0
  189.6700  177.0180  141.4570 C   0  0  0  0  0  3  0  0  0  0  0  0
  188.4410  179.3690  142.2070 S   0  0  0  0  0  0  0  0  0  0  0  0
  187.3780  176.1870  135.2310 C   0  0  0  0  0  2  0  0  0  0  0  0
  185.6630  177.9330  138.8340 C   0  0  2  0  0  3  0  0  0  0  0  0
  185.4570  177.2840  136.4110 C   0  0  0  0  0  2  0  0  0  0  0  0
  189.4310  179.0870  137.5670 C   0  0  0  0  0  1  0  0  0  0  0  0
  186.0850  179.0000  140.9680 N   0  0  0  0  0  0  0  0  0  0  0  0
  185.1760  178.5740  139.9310 C   0  0  0  0  0  0  0  0  0  0  0  0
  189.4370  177.8890  142.4460 C   0  0  2  0  0  3  0  0  0  0  0  0
  187.8660  177.7790  139.9510 C   0  0  0  0  0  0  0  0  0  0  0  0
  184.7460  177.4350  137.7460 C   0  0  0  0  0  2  0  0  0  0  0  0
  181.7880  180.1430  139.4250 N   0  0  0  0  0  0  0  0  0  0  0  0
  180.9000  179.4240  140.3410 C   0  0  0  0  0  2  0  0  0  0  0  0
  183.7400  178.9100  140.1070 C   0  0  0  0  0  0  0  0  0  0  0  0
  181.6690  178.7030  141.4120 C   0  0  0  0  0  3  0  0  0  0  0  0
  183.1570  179.7570  139.2530 C   0  0  0  0  0  3  0  0  0  0  0  0
  182.9720  178.4440  141.2810 C   0  0  0  0  0  3  0  0  0  0  0  0
  181.2150  181.1130  138.5120 C   0  0  0  0  0  1  0  0  0  0  0  0
  190.0790  177.6770  143.7740 C   0  0  0  0  0  2  0  0  0  0  0  0
  189.1950  176.9140  144.6410 N   0  0  0  0  0  2  0  0  0  0  0  0
  189.5970  177.3790  147.0070 C   0  0  0  0  0  2  0  0  0  0  0  0
  188.7520  176.7950  147.9680 O   0  0  0  0  0  0  0  0  0  0  0  0
  186.9140  178.2580  147.3410 C   0  0  0  0  0  2  0  0  0  0  0  0
  187.3060  177.7150  145.9650 C   0  0  0  0  0  2  0  0  0  0  0  0
  188.8210  177.7850  145.7430 C   0  0  2  0  0  3  0  0  0  0  0  0
  187.9120  177.8250  148.4270 C   0  0  0  0  0  2  0  0  0  0  0  0
  1 11  1  6  0  0  0
  1  8  1  0  0  0  0
  2  8  1  0  0  0  0
  2 14  1  1  0  0  0
  3 12  1  0  0  0  0
  3 18  1  0  0  0  0
  4 10  1  0  0  0  0
  5 11  1  0  0  0  0
  5  6  1  0  0  0  0
  6  2  1  0  0  0  0
  7  9  2  0  0  0  0
  8  3  1  1  0  0  0
  9 17  1  0  0  0  0
 10 17  1  0  0  0  0
 12 19  1  1  0  0  0
 12 16  1  0  0  0  0
 13  1  1  0  0  0  0
 13 19  1  0  0  0  0
 15  4  1  0  0  0  0
 16 22  1  0  0  0  0
 16 15  2  0  0  0  0
 17 27  1  6  0  0  0
 18  7  1  0  0  0  0
 18  4  2  0  0  0  0
 20 21  1  0  0  0  0
 21 23  1  0  0  0  0
 22 25  1  0  0  0  0
 24 20  1  0  0  0  0
 24 22  2  0  0  0  0
 25 23  2  0  0  0  0
 26 20  1  0  0  0  0
 27 28  1  0  0  0  0
 29 30  1  0  0  0  0
 30 34  1  0  0  0  0
 31 34  1  0  0  0  0
 32 31  1  0  0  0  0
 33 28  1  6  0  0  0
 33 32  1  0  0  0  0
 33 29  1  0  0  0  0
M  END
>  <MODEL>
3

>  <REMARK>
 VINA RESULT:      -7.3      3.248      7.865
  Name = 
  4 active torsions:
  status: ('A' for Active; 'I' for Inactive)
    1  A    between atoms: C_3  and  N_13
    2  A    between atoms: C_3  and  C_29
    3  A    between atoms: C_12  and  C_28
    4  A    between atoms: N_13  and  C_33
                            x       y       z     vdW  Elec       q    Type
                         _______ _______ _______ _____ _____    ______ ____

>  <TORSDO>
F 4

$$$$
=
 OpenBabel10262419113D

 34 39  0  0  1  0  0  0  0  0999 V2000
  188.4390  178.7290  138.7180 C   0  0  2  0  0  3  0  0  0  0  0  0
  186.8730  176.8780  137.9730 C   0  0  1  0  0  3  0  0  0  0  0  0
  186.1960  178.4880  139.7480 N   0  0  0  0  0  0  0  0  0  0  0  0
  183.9790  178.3950  140.8560 C   0  0  0  0  0  0  0  0  0  0  0  0
  189.1610  177.0160  137.1030 N   0  0  0  0  0  2  0  0  0  0  0  0
  187.7750  176.7190  136.7510 C   0  0  0  0  0  2  0  0  0  0  0  0
  184.2490  179.4430  138.6760 C   0  0  0  0  0  3  0  0  0  0  0  0
  186.9720  178.3210  138.5070 C   0  0  1  0  0  3  0  0  0  0  0  0
  182.8540  179.9200  138.6860 C   0  0  0  0  0  3  0  0  0  0  0  0
  182.2210  178.1160  140.6710 S   0  0  0  0  0  0  0  0  0  0  0  0
  189.2560  178.4310  137.4590 C   0  0  0  0  0  2  0  0  0  0  0  0
  186.8000  178.3090  141.0540 C   0  0  2  0  0  3  0  0  0  0  0  0
  189.0210  177.9890  139.9160 C   0  0  0  0  0  2  0  0  0  0  0  0
  185.4520  176.5340  137.5660 C   0  0  0  0  0  1  0  0  0  0  0  0
  184.5680  178.1200  141.9790 N   0  0  0  0  0  0  0  0  0  0  0  0
  186.0010  178.1690  142.1470 C   0  0  0  0  0  0  0  0  0  0  0  0
  181.9370  179.5120  139.5710 C   0  0  2  0  0  3  0  0  0  0  0  0
  184.7850  178.7490  139.6860 C   0  0  0  0  0  0  0  0  0  0  0  0
  188.2980  178.4050  141.1860 C   0  0  0  0  0  2  0  0  0  0  0  0
  188.2870  177.3270  145.0210 N   0  0  0  0  0  0  0  0  0  0  0  0
  187.6230  177.8790  146.2030 C   0  0  0  0  0  2  0  0  0  0  0  0
  186.5290  178.0140  143.5260 C   0  0  0  0  0  0  0  0  0  0  0  0
  186.1650  178.1440  145.9520 C   0  0  0  0  0  3  0  0  0  0  0  0
  187.7660  177.5400  143.7040 C   0  0  0  0  0  3  0  0  0  0  0  0
  185.6760  178.2340  144.7130 C   0  0  0  0  0  3  0  0  0  0  0  0
  189.6100  176.7530  145.1660 C   0  0  0  0  0  1  0  0  0  0  0  0
  180.6050  180.1790  139.6050 C   0  0  0  0  0  2  0  0  0  0  0  0
  180.7580  181.6130  139.4180 N   0  0  0  0  0  2  0  0  0  0  0  0
  179.3490  180.7180  137.6330 C   0  0  0  0  0  2  0  0  0  0  0  0
  179.9310  180.4420  136.3810 O   0  0  0  0  0  0  0  0  0  0  0  0
  180.1490  182.8120  135.8840 C   0  0  0  0  0  2  0  0  0  0  0  0
  180.8040  182.7670  137.2670 C   0  0  0  0  0  2  0  0  0  0  0  0
  179.9490  181.9830  138.2690 C   0  0  2  0  0  3  0  0  0  0  0  0
  179.5020  181.4670  135.5180 C   0  0  0  0  0  2  0  0  0  0  0  0
  1 11  1  6  0  0  0
  1 13  1  0  0  0  0
  2 14  1  6  0  0  0
  2  8  1  0  0  0  0
  3 12  1  0  0  0  0
  4 15  1  0  0  0  0
  5 11  1  0  0  0  0
  6  5  1  0  0  0  0
  6  2  1  0  0  0  0
  7  9  2  0  0  0  0
  7 18  1  0  0  0  0
  8  1  1  0  0  0  0
  8  3  1  1  0  0  0
  9 17  1  0  0  0  0
 10  4  1  0  0  0  0
 12 19  1  1  0  0  0
 12 16  1  0  0  0  0
 13 19  1  0  0  0  0
 15 16  2  0  0  0  0
 16 22  1  0  0  0  0
 17 27  1  6  0  0  0
 17 10  1  0  0  0  0
 18  3  1  0  0  0  0
 18  4  2  0  0  0  0
 20 26  1  0  0  0  0
 20 21  1  0  0  0  0
 22 24  2  0  0  0  0
 22 25  1  0  0  0  0
 23 21  1  0  0  0  0
 24 20  1  0  0  0  0
 25 23  2  0  0  0  0
 28 27  1  0  0  0  0
 29 33  1  0  0  0  0
 30 29  1  0  0  0  0
 31 32  1  0  0  0  0
 32 33  1  0  0  0  0
 33 28  1  1  0  0  0
 34 31  1  0  0  0  0
 34 30  1  0  0  0  0
M  END
>  <MODEL>
4

>  <REMARK>
 VINA RESULT:      -7.1      0.982      1.655
  Name = 
  4 active torsions:
  status: ('A' for Active; 'I' for Inactive)
    1  A    between atoms: C_3  and  N_13
    2  A    between atoms: C_3  and  C_29
    3  A    between atoms: C_12  and  C_28
    4  A    between atoms: N_13  and  C_33
                            x       y       z     vdW  Elec       q    Type
                         _______ _______ _______ _____ _____    ______ ____

>  <TORSDO>
F 4

$$$$
=
 OpenBabel10262419113D

 34 39  0  0  1  0  0  0  0  0999 V2000
  190.1230  175.6440  142.9730 C   0  0  2  0  0  3  0  0  0  0  0  0
  190.2570  177.8290  144.2530 C   0  0  1  0  0  3  0  0  0  0  0  0
  188.2930  177.3100  142.8140 N   0  0  0  0  0  0  0  0  0  0  0  0
  186.3740  178.8620  142.5700 C   0  0  0  0  0  0  0  0  0  0  0  0
  192.1380  176.2560  144.2490 N   0  0  0  0  0  2  0  0  0  0  0  0
  191.3710  177.1830  145.0750 C   0  0  0  0  0  2  0  0  0  0  0  0
  186.5560  177.3850  144.4960 C   0  0  0  0  0  2  0  0  0  0  0  0
  189.3220  176.7370  143.6980 C   0  0  1  0  0  3  0  0  0  0  0  0
  185.2190  177.7780  144.9770 C   0  0  0  0  0  3  0  0  0  0  0  0
  185.2690  180.0200  143.3730 S   0  0  0  0  0  0  0  0  0  0  0  0
  191.2640  175.1480  143.8620 C   0  0  0  0  0  2  0  0  0  0  0  0
  188.4910  177.4110  141.3810 C   0  0  2  0  0  3  0  0  0  0  0  0
  190.6690  176.1820  141.6560 C   0  0  0  0  0  2  0  0  0  0  0  0
  189.5080  178.8010  145.1450 C   0  0  0  0  0  1  0  0  0  0  0  0
  186.6690  179.0060  141.3150 N   0  0  0  0  0  0  0  0  0  0  0  0
  187.6700  178.2110  140.6470 C   0  0  0  0  0  0  0  0  0  0  0  0
  184.5280  178.8110  144.4830 C   0  0  0  0  0  0  0  0  0  0  0  0
  187.0930  177.8700  143.3710 C   0  0  0  0  0  0  0  0  0  0  0  0
  189.5240  176.5330  140.7220 C   0  0  0  0  0  2  0  0  0  0  0  0
  186.8860  177.9540  136.9700 N   0  0  0  0  0  0  0  0  0  0  0  0
  187.8970  178.7840  136.3120 C   0  0  0  0  0  2  0  0  0  0  0  0
  187.7760  178.3510  139.1720 C   0  0  0  0  0  0  0  0  0  0  0  0
  189.0780  179.0400  137.2060 C   0  0  0  0  0  3  0  0  0  0  0  0
  186.7920  177.8830  138.3980 C   0  0  0  0  0  3  0  0  0  0  0  0
  189.0030  178.8660  138.5270 C   0  0  0  0  0  3  0  0  0  0  0  0
  185.8250  177.3780  136.1690 C   0  0  0  0  0  1  0  0  0  0  0  0
  183.1180  179.0230  144.9160 C   0  0  0  0  0  2  0  0  0  0  0  0
  182.2230  178.1840  144.1360 N   0  0  0  0  0  2  0  0  0  0  0  0
  179.8580  178.7260  143.8380 C   0  0  0  0  0  2  0  0  0  0  0  0
  179.1550  178.1360  142.7710 O   0  0  0  0  0  0  0  0  0  0  0  0
  180.3270  179.5130  141.1460 C   0  0  0  0  0  2  0  0  0  0  0  0
  181.5170  178.9490  141.9280 C   0  0  0  0  0  2  0  0  0  0  0  0
  181.3040  179.0690  143.4410 C   0  0  2  0  0  3  0  0  0  0  0  0
  178.9890  179.1460  141.8070 C   0  0  0  0  0  2  0  0  0  0  0  0
  1 13  1  6  0  0  0
  1  8  1  0  0  0  0
  1 11  1  0  0  0  0
  2  6  1  0  0  0  0
  2 14  1  1  0  0  0
  3 18  1  0  0  0  0
  4 18  2  0  0  0  0
  4 10  1  0  0  0  0
  5  6  1  0  0  0  0
  7  9  1  0  0  0  0
  8  3  1  6  0  0  0
  8  2  1  0  0  0  0
 10 17  1  0  0  0  0
 11  5  1  0  0  0  0
 12 19  1  6  0  0  0
 12  3  1  0  0  0  0
 15  4  1  0  0  0  0
 16 15  2  0  0  0  0
 16 12  1  0  0  0  0
 17 27  1  0  0  0  0
 17  9  2  0  0  0  0
 18  7  1  0  0  0  0
 19 13  1  0  0  0  0
 20 24  1  0  0  0  0
 21 20  1  0  0  0  0
 21 23  1  0  0  0  0
 22 16  1  0  0  0  0
 23 25  2  0  0  0  0
 24 22  2  0  0  0  0
 25 22  1  0  0  0  0
 26 20  1  0  0  0  0
 28 27  1  0  0  0  0
 30 29  1  0  0  0  0
 31 34  1  0  0  0  0
 31 32  1  0  0  0  0
 32 33  1  0  0  0  0
 33 29  1  0  0  0  0
 33 28  1  1  0  0  0
 34 30  1  0  0  0  0
M  END
>  <MODEL>
5

>  <REMARK>
 VINA RESULT:      -7.0      3.089      6.382
  Name = 
  4 active torsions:
  status: ('A' for Active; 'I' for Inactive)
    1  A    between atoms: C_3  and  N_13
    2  A    between atoms: C_3  and  C_29
    3  A    between atoms: C_12  and  C_28
    4  A    between atoms: N_13  and  C_33
                            x       y       z     vdW  Elec       q    Type
                         _______ _______ _______ _____ _____    ______ ____

>  <TORSDO>
F 4

$$$$
=
 OpenBabel10262419113D

 34 39  0  0  1  0  0  0  0  0999 V2000
  191.4740  174.2730  137.3670 C   0  0  2  0  0  3  0  0  0  0  0  0
  192.5820  176.5030  137.8510 C   0  0  1  0  0  3  0  0  0  0  0  0
  190.2440  176.0520  138.5790 N   0  0  0  0  0  0  0  0  0  0  0  0
  188.8910  177.7200  139.8200 C   0  0  0  0  0  0  0  0  0  0  0  0
  193.7130  174.8050  136.4920 N   0  0  0  0  0  2  0  0  0  0  0  0
  193.9080  175.8220  137.5200 C   0  0  0  0  0  2  0  0  0  0  0  0
  190.5270  176.3280  140.9650 C   0  0  0  0  0  3  0  0  0  0  0  0
  191.5690  175.4530  138.3480 C   0  0  1  0  0  3  0  0  0  0  0  0
  190.0990  176.8360  142.2820 C   0  0  0  0  0  3  0  0  0  0  0  0
  188.8630  178.9890  141.0830 S   0  0  0  0  0  0  0  0  0  0  0  0
  192.8720  173.7430  137.0430 C   0  0  0  0  0  2  0  0  0  0  0  0
  189.2250  176.0700  137.5470 C   0  0  2  0  0  3  0  0  0  0  0  0
  190.7610  174.7070  136.0920 C   0  0  0  0  0  2  0  0  0  0  0  0
  192.8390  177.5670  138.9010 C   0  0  0  0  0  1  0  0  0  0  0  0
  188.0730  177.7820  138.8160 N   0  0  0  0  0  0  0  0  0  0  0  0
  188.1460  176.8880  137.6850 C   0  0  0  0  0  0  0  0  0  0  0  0
  189.2910  177.8890  142.4430 C   0  0  2  0  0  3  0  0  0  0  0  0
  189.9610  176.7200  139.8190 C   0  0  0  0  0  0  0  0  0  0  0  0
  189.3250  175.0910  136.4050 C   0  0  0  0  0  2  0  0  0  0  0  0
  184.9040  176.1650  135.9080 N   0  0  0  0  0  0  0  0  0  0  0  0
  184.8040  177.1970  134.8740 C   0  0  0  0  0  2  0  0  0  0  0  0
  187.0390  176.9490  136.6980 C   0  0  0  0  0  0  0  0  0  0  0  0
  186.1350  177.8370  134.5940 C   0  0  0  0  0  3  0  0  0  0  0  0
  185.9660  176.1700  136.8690 C   0  0  0  0  0  3  0  0  0  0  0  0
  187.1500  177.7410  135.4550 C   0  0  0  0  0  3  0  0  0  0  0  0
  183.7890  175.2590  136.1020 C   0  0  0  0  0  1  0  0  0  0  0  0
  188.7810  178.2190  143.8040 C   0  0  0  0  0  2  0  0  0  0  0  0
  187.5680  177.4660  144.0800 N   0  0  0  0  0  2  0  0  0  0  0  0
  186.4190  177.7310  146.2210 C   0  0  0  0  0  2  0  0  0  0  0  0
  186.8420  178.7490  147.0980 O   0  0  0  0  0  0  0  0  0  0  0  0
  188.8860  177.5420  147.6240 C   0  0  0  0  0  2  0  0  0  0  0  0
  188.9470  177.5190  146.0940 C   0  0  0  0  0  2  0  0  0  0  0  0
  187.6080  177.0910  145.4830 C   0  0  2  0  0  3  0  0  0  0  0  0
  187.5490  178.1050  148.1300 C   0  0  0  0  0  2  0  0  0  0  0  0
  1 13  1  6  0  0  0
  1  8  1  0  0  0  0
  2  8  1  0  0  0  0
  2 14  1  1  0  0  0
  3 18  1  0  0  0  0
  4 10  1  0  0  0  0
  5 11  1  0  0  0  0
  5  6  1  0  0  0  0
  6  2  1  0  0  0  0
  7  9  2  0  0  0  0
  8  3  1  6  0  0  0
  9 17  1  0  0  0  0
 10 17  1  0  0  0  0
 11  1  1  0  0  0  0
 12 19  1  1  0  0  0
 12 16  1  0  0  0  0
 12  3  1  0  0  0  0
 13 19  1  0  0  0  0
 15  4  1  0  0  0  0
 16 15  2  0  0  0  0
 17 27  1  1  0  0  0
 18  4  2  0  0  0  0
 18  7  1  0  0  0  0
 20 26  1  0  0  0  0
 20 24  1  0  0  0  0
 21 20  1  0  0  0  0
 22 24  2  0  0  0  0
 22 16  1  0  0  0  0
 23 21  1  0  0  0  0
 23 25  2  0  0  0  0
 25 22  1  0  0  0  0
 27 28  1  0  0  0  0
 29 30  1  0  0  0  0
 30 34  1  0  0  0  0
 31 34  1  0  0  0  0
 32 31  1  0  0  0  0
 33 28  1  6  0  0  0
 33 32  1  0  0  0  0
 33 29  1  0  0  0  0
M  END
>  <MODEL>
6

>  <REMARK>
 VINA RESULT:      -6.8      4.951      8.701
  Name = 
  4 active torsions:
  status: ('A' for Active; 'I' for Inactive)
    1  A    between atoms: C_3  and  N_13
    2  A    between atoms: C_3  and  C_29
    3  A    between atoms: C_12  and  C_28
    4  A    between atoms: N_13  and  C_33
                            x       y       z     vdW  Elec       q    Type
                         _______ _______ _______ _____ _____    ______ ____

>  <TORSDO>
F 4

$$$$
=
 OpenBabel10262419113D

 34 39  0  0  1  0  0  0  0  0999 V2000
  180.4210  178.5000  141.0680 C   0  0  2  0  0  3  0  0  0  0  0  0
  181.3100  180.3540  139.5830 C   0  0  1  0  0  3  0  0  0  0  0  0
  182.7880  178.4940  140.3280 N   0  0  0  0  0  0  0  0  0  0  0  0
  185.1700  178.3340  139.6550 C   0  0  0  0  0  0  0  0  0  0  0  0
  179.0290  180.4440  140.4760 N   0  0  0  0  0  2  0  0  0  0  0  0
  179.8530  180.7170  139.3030 C   0  0  0  0  0  2  0  0  0  0  0  0
  183.3920  177.5960  138.1650 C   0  0  0  0  0  2  0  0  0  0  0  0
  181.4130  178.8610  139.9500 C   0  0  1  0  0  3  0  0  0  0  0  0
  184.3680  177.0540  137.2010 C   0  0  0  0  0  3  0  0  0  0  0  0
  186.3780  178.5490  138.3510 S   0  0  0  0  0  0  0  0  0  0  0  0
  179.0190  179.0000  140.7110 C   0  0  0  0  0  2  0  0  0  0  0  0
  183.2330  178.5290  141.7080 C   0  0  2  0  0  3  0  0  0  0  0  0
  180.8800  179.1040  142.3890 C   0  0  0  0  0  2  0  0  0  0  0  0
  182.1290  180.6800  138.3480 C   0  0  0  0  0  1  0  0  0  0  0  0
  185.5150  178.4860  140.8960 N   0  0  0  0  0  0  0  0  0  0  0  0
  184.5650  178.4860  141.9820 C   0  0  0  0  0  0  0  0  0  0  0  0
  185.6810  177.2980  137.2600 C   0  0  0  0  0  0  0  0  0  0  0  0
  183.7540  178.1760  139.3140 C   0  0  0  0  0  0  0  0  0  0  0  0
  182.2050  178.4890  142.8090 C   0  0  0  0  0  2  0  0  0  0  0  0
  186.8290  177.8420  144.9240 N   0  0  0  0  0  0  0  0  0  0  0  0
  186.2620  178.6360  146.0160 C   0  0  0  0  0  2  0  0  0  0  0  0
  185.1120  178.4830  143.3630 C   0  0  0  0  0  0  0  0  0  0  0  0
  184.8330  179.0180  145.7440 C   0  0  0  0  0  3  0  0  0  0  0  0
  186.2970  177.9090  143.5960 C   0  0  0  0  0  3  0  0  0  0  0  0
  184.3220  178.9730  144.5120 C   0  0  0  0  0  3  0  0  0  0  0  0
  188.0870  177.1550  145.1400 C   0  0  0  0  0  1  0  0  0  0  0  0
  186.6030  176.5690  136.3440 C   0  0  0  0  0  2  0  0  0  0  0  0
  185.8570  175.6160  135.5370 N   0  0  0  0  0  2  0  0  0  0  0  0
  185.8650  173.3080  136.3420 C   0  0  0  0  0  2  0  0  0  0  0  0
  186.5330  173.0100  137.5450 O   0  0  0  0  0  0  0  0  0  0  0  0
  188.7050  173.3200  136.4970 C   0  0  0  0  0  2  0  0  0  0  0  0
  188.0200  174.6280  136.0880 C   0  0  0  0  0  2  0  0  0  0  0  0
  186.6150  174.3770  135.5290 C   0  0  2  0  0  3  0  0  0  0  0  0
  187.7220  172.3550  137.1780 C   0  0  0  0  0  2  0  0  0  0  0  0
  1 11  1  6  0  0  0
  1 13  1  0  0  0  0
  2 14  1  6  0  0  0
  2  8  1  0  0  0  0
  3 12  1  0  0  0  0
  4 15  1  0  0  0  0
  5 11  1  0  0  0  0
  6  2  1  0  0  0  0
  6  5  1  0  0  0  0
  7 18  1  0  0  0  0
  8  3  1  1  0  0  0
  8  1  1  0  0  0  0
  9 17  2  0  0  0  0
  9  7  1  0  0  0  0
 10  4  1  0  0  0  0
 12 16  1  0  0  0  0
 12 19  1  1  0  0  0
 13 19  1  0  0  0  0
 15 16  2  0  0  0  0
 16 22  1  0  0  0  0
 17 10  1  0  0  0  0
 18  4  2  0  0  0  0
 18  3  1  0  0  0  0
 20 26  1  0  0  0  0
 20 21  1  0  0  0  0
 22 24  2  0  0  0  0
 22 25  1  0  0  0  0
 23 21  1  0  0  0  0
 24 20  1  0  0  0  0
 25 23  2  0  0  0  0
 27 17  1  0  0  0  0
 28 27  1  0  0  0  0
 29 30  1  0  0  0  0
 31 34  1  0  0  0  0
 32 31  1  0  0  0  0
 33 28  1  1  0  0  0
 33 32  1  0  0  0  0
 33 29  1  0  0  0  0
 34 30  1  0  0  0  0
M  END
>  <MODEL>
7

>  <REMARK>
 VINA RESULT:      -6.8      2.931      7.266
  Name = 
  4 active torsions:
  status: ('A' for Active; 'I' for Inactive)
    1  A    between atoms: C_3  and  N_13
    2  A    between atoms: C_3  and  C_29
    3  A    between atoms: C_12  and  C_28
    4  A    between atoms: N_13  and  C_33
                            x       y       z     vdW  Elec       q    Type
                         _______ _______ _______ _____ _____    ______ ____

>  <TORSDO>
F 4

$$$$
=
 OpenBabel10262419113D

 34 39  0  0  1  0  0  0  0  0999 V2000
  181.6430  173.9340  137.6680 C   0  0  2  0  0  3  0  0  0  0  0  0
  182.1950  175.3000  135.6030 C   0  0  1  0  0  3  0  0  0  0  0  0
  183.2860  175.7870  137.7880 N   0  0  0  0  0  0  0  0  0  0  0  0
  184.9660  177.5910  138.0650 C   0  0  0  0  0  0  0  0  0  0  0  0
  180.4380  173.5910  135.5480 N   0  0  0  0  0  2  0  0  0  0  0  0
  181.5350  174.1880  134.7910 C   0  0  0  0  0  2  0  0  0  0  0  0
  185.5920  175.4220  137.1530 C   0  0  0  0  0  2  0  0  0  0  0  0
  182.7340  174.7270  136.9290 C   0  0  1  0  0  3  0  0  0  0  0  0
  187.0200  175.7890  137.1500 C   0  0  0  0  0  3  0  0  0  0  0  0
  186.3650  178.4580  137.3610 S   0  0  0  0  0  0  0  0  0  0  0  0
  180.9950  172.9200  136.7220 C   0  0  0  0  0  2  0  0  0  0  0  0
  182.4760  176.4590  138.7850 C   0  0  2  0  0  3  0  0  0  0  0  0
  180.5930  174.8850  138.2280 C   0  0  0  0  0  2  0  0  0  0  0  0
  183.3070  175.9070  134.7680 C   0  0  0  0  0  1  0  0  0  0  0  0
  184.1510  178.2080  138.8620 N   0  0  0  0  0  0  0  0  0  0  0  0
  182.9200  177.6210  139.3360 C   0  0  0  0  0  0  0  0  0  0  0  0
  187.4660  177.0340  137.3510 C   0  0  0  0  0  0  0  0  0  0  0  0
  184.6330  176.2460  137.5910 C   0  0  0  0  0  0  0  0  0  0  0  0
  181.2180  175.7900  139.2770 C   0  0  0  0  0  2  0  0  0  0  0  0
  180.4410  179.9080  141.0140 N   0  0  0  0  0  0  0  0  0  0  0  0
  180.6120  179.6610  142.4480 C   0  0  0  0  0  2  0  0  0  0  0  0
  182.1750  178.3610  140.3870 C   0  0  0  0  0  0  0  0  0  0  0  0
  181.9260  178.9960  142.7460 C   0  0  0  0  0  3  0  0  0  0  0  0
  181.1470  179.1400  140.0340 C   0  0  0  0  0  3  0  0  0  0  0  0
  182.6250  178.3740  141.7940 C   0  0  0  0  0  3  0  0  0  0  0  0
  179.3730  180.7860  140.5790 C   0  0  0  0  0  1  0  0  0  0  0  0
  188.9300  177.2720  137.4980 C   0  0  0  0  0  2  0  0  0  0  0  0
  189.1810  178.1710  138.6140 N   0  0  0  0  0  2  0  0  0  0  0  0
  188.0760  178.1550  140.7940 C   0  0  0  0  0  2  0  0  0  0  0  0
  188.7740  178.6450  141.9130 O   0  0  0  0  0  0  0  0  0  0  0  0
  190.2390  176.7040  141.9350 C   0  0  0  0  0  2  0  0  0  0  0  0
  190.3750  177.1270  140.4690 C   0  0  0  0  0  2  0  0  0  0  0  0
  189.0080  177.3990  139.8320 C   0  0  2  0  0  3  0  0  0  0  0  0
  189.1540  177.5150  142.6600 C   0  0  0  0  0  2  0  0  0  0  0  0
  1 11  1  6  0  0  0
  1 13  1  0  0  0  0
  2 14  1  6  0  0  0
  2  8  1  0  0  0  0
  3 12  1  0  0  0  0
  4 15  1  0  0  0  0
  5 11  1  0  0  0  0
  6  5  1  0  0  0  0
  6  2  1  0  0  0  0
  7 18  1  0  0  0  0
  8  1  1  0  0  0  0
  8  3  1  1  0  0  0
  9  7  1  0  0  0  0
  9 17  2  0  0  0  0
 10  4  1  0  0  0  0
 12 19  1  1  0  0  0
 12 16  1  0  0  0  0
 13 19  1  0  0  0  0
 15 16  2  0  0  0  0
 16 22  1  0  0  0  0
 17 10  1  0  0  0  0
 17 27  1  0  0  0  0
 18  3  1  0  0  0  0
 18  4  2  0  0  0  0
 20 21  1  0  0  0  0
 21 23  1  0  0  0  0
 22 25  1  0  0  0  0
 24 22  2  0  0  0  0
 24 20  1  0  0  0  0
 25 23  2  0  0  0  0
 26 20  1  0  0  0  0
 27 28  1  0  0  0  0
 29 30  1  0  0  0  0
 30 34  1  0  0  0  0
 31 34  1  0  0  0  0
 32 31  1  0  0  0  0
 33 28  1  6  0  0  0
 33 32  1  0  0  0  0
 33 29  1  0  0  0  0
M  END
>  <MODEL>
8

>  <REMARK>
 VINA RESULT:      -6.6      3.579      7.825
  Name = 
  4 active torsions:
  status: ('A' for Active; 'I' for Inactive)
    1  A    between atoms: C_3  and  N_13
    2  A    between atoms: C_3  and  C_29
    3  A    between atoms: C_12  and  C_28
    4  A    between atoms: N_13  and  C_33
                            x       y       z     vdW  Elec       q    Type
                         _______ _______ _______ _____ _____    ______ ____

>  <TORSDO>
F 4

$$$$
=
 OpenBabel10262419113D

 34 39  0  0  1  0  0  0  0  0999 V2000
  186.7370  176.1810  136.6520 C   0  0  2  0  0  3  0  0  0  0  0  0
  188.3140  178.1680  136.6570 C   0  0  1  0  0  3  0  0  0  0  0  0
  187.0320  177.5480  138.7000 N   0  0  0  0  0  0  0  0  0  0  0  0
  187.2350  178.8010  140.8310 C   0  0  0  0  0  0  0  0  0  0  0  0
  187.8670  176.9220  134.5940 N   0  0  0  0  0  2  0  0  0  0  0  0
  188.9030  177.5990  135.3680 C   0  0  0  0  0  2  0  0  0  0  0  0
  188.8830  177.1240  140.1980 C   0  0  0  0  0  2  0  0  0  0  0  0
  187.7030  177.0290  137.4960 C   0  0  1  0  0  3  0  0  0  0  0  0
  189.5590  177.2360  141.5040 C   0  0  0  0  0  3  0  0  0  0  0  0
  188.3200  179.6530  141.9720 S   0  0  0  0  0  0  0  0  0  0  0  0
  187.4130  175.7540  135.3470 C   0  0  0  0  0  2  0  0  0  0  0  0
  185.6180  177.8710  138.7040 C   0  0  2  0  0  3  0  0  0  0  0  0
  185.4670  176.9710  136.3590 C   0  0  0  0  0  2  0  0  0  0  0  0
  189.4180  178.8830  137.4130 C   0  0  0  0  0  1  0  0  0  0  0  0
  185.9930  179.1570  140.7240 N   0  0  0  0  0  0  0  0  0  0  0  0
  185.1070  178.6240  139.7160 C   0  0  0  0  0  0  0  0  0  0  0  0
  189.3050  178.2050  142.3900 C   0  0  0  0  0  0  0  0  0  0  0  0
  187.7930  177.8340  139.8840 C   0  0  0  0  0  0  0  0  0  0  0  0
  184.7250  177.2620  137.6540 C   0  0  0  0  0  2  0  0  0  0  0  0
  181.8140  180.3810  139.1970 N   0  0  0  0  0  0  0  0  0  0  0  0
  180.8300  179.5480  139.8920 C   0  0  0  0  0  2  0  0  0  0  0  0
  183.6680  178.9770  139.8210 C   0  0  0  0  0  0  0  0  0  0  0  0
  181.4820  178.6250  140.8840 C   0  0  0  0  0  3  0  0  0  0  0  0
  183.1850  179.9800  139.0820 C   0  0  0  0  0  3  0  0  0  0  0  0
  182.7850  178.3450  140.8240 C   0  0  0  0  0  3  0  0  0  0  0  0
  181.3490  181.5140  138.4220 C   0  0  0  0  0  1  0  0  0  0  0  0
  189.9150  178.1350  143.7480 C   0  0  0  0  0  2  0  0  0  0  0  0
  188.9660  177.5690  144.6940 N   0  0  0  0  0  2  0  0  0  0  0  0
  189.4440  176.9350  147.0050 C   0  0  0  0  0  2  0  0  0  0  0  0
  190.5930  177.4540  147.6290 O   0  0  0  0  0  0  0  0  0  0  0  0
  192.0470  176.0510  146.2760 C   0  0  0  0  0  2  0  0  0  0  0  0
  191.1910  176.6880  145.1780 C   0  0  0  0  0  2  0  0  0  0  0  0
  189.6980  176.6250  145.5200 C   0  0  2  0  0  3  0  0  0  0  0  0
  191.5220  176.3990  147.6780 C   0  0  0  0  0  2  0  0  0  0  0  0
  1 11  1  6  0  0  0
  1  8  1  0  0  0  0
  2 14  1  1  0  0  0
  2  8  1  0  0  0  0
  3 12  1  0  0  0  0
  3 18  1  0  0  0  0
  4 10  1  0  0  0  0
  5 11  1  0  0  0  0
  5  6  1  0  0  0  0
  6  2  1  0  0  0  0
  7  9  1  0  0  0  0
  8  3  1  1  0  0  0
  9 17  2  0  0  0  0
 10 17  1  0  0  0  0
 12 19  1  1  0  0  0
 12 16  1  0  0  0  0
 13  1  1  0  0  0  0
 13 19  1  0  0  0  0
 15  4  1  0  0  0  0
 16 22  1  0  0  0  0
 16 15  2  0  0  0  0
 17 27  1  0  0  0  0
 18  7  1  0  0  0  0
 18  4  2  0  0  0  0
 20 21  1  0  0  0  0
 21 23  1  0  0  0  0
 22 25  1  0  0  0  0
 24 20  1  0  0  0  0
 24 22  2  0  0  0  0
 25 23  2  0  0  0  0
 26 20  1  0  0  0  0
 27 28  1  0  0  0  0
 29 30  1  0  0  0  0
 30 34  1  0  0  0  0
 31 34  1  0  0  0  0
 32 33  1  0  0  0  0
 32 31  1  0  0  0  0
 33 28  1  6  0  0  0
 33 29  1  0  0  0  0
M  END
>  <MODEL>
9

>  <REMARK>
 VINA RESULT:      -6.6      3.443      8.456
  Name = 
  4 active torsions:
  status: ('A' for Active; 'I' for Inactive)
    1  A    between atoms: C_3  and  N_13
    2  A    between atoms: C_3  and  C_29
    3  A    between atoms: C_12  and  C_28
    4  A    between atoms: N_13  and  C_33
                            x       y       z     vdW  Elec       q    Type
                         _______ _______ _______ _____ _____    ______ ____

>  <TORSDO>
F 4

$$$$
