=
 OpenBabel10262421513D

 30 31  0  0  1  0  0  0  0  0999 V2000
  186.8220  177.9010  142.1280 C   0  0  2  0  0  3  0  0  0  0  0  0
  185.5410  178.7030  142.4360 C   0  0  1  0  0  3  0  0  0  0  0  0
  184.6910  178.8250  141.2030 C   0  0  0  0  0  0  0  0  0  0  0  0
  183.2840  178.3260  141.2120 C   0  0  0  0  0  2  0  0  0  0  0  0
  183.2190  179.2170  143.9040 S   0  0  0  0  0  0  0  0  0  0  0  0
  185.1360  179.3610  140.2000 O   0  0  0  0  0  0  0  0  0  0  0  0
  182.4630  179.0990  142.2310 C   0  0  0  0  0  2  0  0  0  0  0  0
  185.5410  178.2660  144.9220 C   0  0  0  0  0  1  0  0  0  0  0  0
  184.7230  178.2020  143.6440 C   0  0  2  0  0  3  0  0  0  0  0  0
  188.2210  175.8280  143.0560 O   0  0  0  0  0  0  0  0  0  0  0  0
  187.6880  177.1640  143.5560 S   0  0  1  0  0  0  0  0  0  0  0  0
  189.1670  178.1540  143.8410 C   0  0  0  0  0  2  0  0  0  0  0  0
  188.8700  177.8480  147.6580 C   0  0  2  0  0  3  0  0  0  0  0  0
  189.6140  176.5270  147.8300 C   0  0  0  0  0  2  0  0  0  0  0  0
  187.7450  177.8590  148.4810 O   0  0  0  0  0  1  0  0  0  0  0  0
  190.4330  176.6820  145.4530 C   0  0  1  0  0  3  0  0  0  0  0  0
  191.7740  177.4320  147.3230 O   0  0  0  0  0  1  0  0  0  0  0  0
  188.4400  178.0190  146.2070 C   0  0  0  0  0  2  0  0  0  0  0  0
  190.8380  176.4740  146.9190 C   0  0  1  0  0  3  0  0  0  0  0  0
  189.6520  177.9980  145.2750 C   0  0  2  0  0  3  0  0  0  0  0  0
  191.6750  176.6210  144.5640 C   0  0  0  0  0  2  0  0  0  0  0  0
  191.7920  175.2690  143.8800 C   0  0  0  0  0  2  0  0  0  0  0  0
  192.5000  174.3920  144.6800 F   0  0  0  0  0  0  0  0  0  0  0  0
  187.7770  178.6940  141.2450 C   0  0  0  0  0  2  0  0  0  0  0  0
  188.4000  177.8060  140.1770 C   0  0  1  0  0  3  0  0  0  0  0  0
  188.9540  178.5800  137.6050 S   0  0  0  0  0  1  0  0  0  0  0  0
  187.7250  178.0630  138.8400 C   0  0  0  0  0  2  0  0  0  0  0  0
  189.8900  178.1010  140.0670 C   0  0  0  0  0  2  0  0  0  0  0  0
  190.7110  176.9890  140.7000 C   0  0  0  0  0  2  0  0  0  0  0  0
  191.7870  177.5250  141.3820 F   0  0  0  0  0  0  0  0  0  0  0  0
  1 24  1  1  0  0  0
  1 11  1  0  0  0  0
  2  1  1  6  0  0  0
  2  9  1  0  0  0  0
  3  4  1  0  0  0  0
  3  2  1  0  0  0  0
  4  7  1  0  0  0  0
  6  3  2  0  0  0  0
  7  5  1  0  0  0  0
  9  5  1  0  0  0  0
  9  8  1  1  0  0  0
 11 10  2  6  0  0  0
 11 12  1  0  0  0  0
 13 14  1  0  0  0  0
 13 15  1  1  0  0  0
 16 21  1  6  0  0  0
 16 19  1  0  0  0  0
 18 13  1  0  0  0  0
 19 17  1  1  0  0  0
 19 14  1  0  0  0  0
 20 12  1  6  0  0  0
 20 16  1  0  0  0  0
 20 18  1  0  0  0  0
 22 21  1  0  0  0  0
 22 23  1  0  0  0  0
 25 27  1  6  0  0  0
 25 24  1  0  0  0  0
 26 27  1  0  0  0  0
 28 25  1  0  0  0  0
 28 29  1  0  0  0  0
 29 30  1  0  0  0  0
M  END
>  <MODEL>
1

>  <REMARK>
 VINA RESULT:      -7.4      0.000      0.000
  Name = 
  11 active torsions:
  status: ('A' for Active; 'I' for Inactive)
    1  A    between atoms: C_3  and  C_11
    2  A    between atoms: C_3  and  C_19
    3  A    between atoms: S_4  and  C_13
    4  A    between atoms: S_4  and  C_23
    5  A    between atoms: C_5  and  C_9
    6  A    between atoms: C_6  and  C_8
    7  A    between atoms: C_6  and  C_9
    8  A    between atoms: C_6  and  C_21
    9  A    between atoms: C_7  and  C_13
   10  A    between atoms: C_8  and  C_13
   11  A    between atoms: C_23  and  C_29
                            x       y       z     vdW  Elec       q    Type
                         _______ _______ _______ _____ _____    ______ ____

>  <TORSDO>
F 11

$$$$
=
 OpenBabel10262421513D

 30 31  0  0  1  0  0  0  0  0999 V2000
  188.0620  178.2250  141.7050 C   0  0  2  0  0  3  0  0  0  0  0  0
  188.6990  177.5350  140.4810 C   0  0  1  0  0  3  0  0  0  0  0  0
  188.0400  178.0050  139.2150 C   0  0  0  0  0  0  0  0  0  0  0  0
  188.8570  178.6350  138.1370 C   0  0  0  0  0  2  0  0  0  0  0  0
  190.8770  176.7930  138.8950 S   0  0  0  0  0  0  0  0  0  0  0  0
  186.8410  177.8450  139.0500 O   0  0  0  0  0  0  0  0  0  0  0  0
  189.8750  177.6400  137.6050 C   0  0  0  0  0  2  0  0  0  0  0  0
  190.8940  176.9780  141.5960 C   0  0  0  0  0  1  0  0  0  0  0  0
  190.2350  177.6310  140.3940 C   0  0  2  0  0  3  0  0  0  0  0  0
  188.2160  175.7980  142.8040 O   0  0  0  0  0  0  0  0  0  0  0  0
  187.9510  177.2350  143.2350 S   0  0  1  0  0  0  0  0  0  0  0  0
  189.3790  177.6660  144.2460 C   0  0  0  0  0  2  0  0  0  0  0  0
  186.9400  178.3110  147.1420 C   0  0  2  0  0  3  0  0  0  0  0  0
  187.5260  177.3210  148.1450 C   0  0  0  0  0  2  0  0  0  0  0  0
  185.5480  178.2450  147.1830 O   0  0  0  0  0  1  0  0  0  0  0  0
  189.5620  177.0520  146.6860 C   0  0  1  0  0  3  0  0  0  0  0  0
  189.5170  178.5900  148.5550 O   0  0  0  0  0  1  0  0  0  0  0  0
  187.4230  177.9760  145.7370 C   0  0  0  0  0  2  0  0  0  0  0  0
  189.0520  177.3500  148.1040 C   0  0  1  0  0  3  0  0  0  0  0  0
  188.9500  178.0250  145.6610 C   0  0  2  0  0  3  0  0  0  0  0  0
  191.0900  177.0840  146.6730 C   0  0  0  0  0  2  0  0  0  0  0  0
  191.6670  175.9080  147.4430 C   0  0  0  0  0  2  0  0  0  0  0  0
  192.4040  175.1010  146.5950 F   0  0  0  0  0  0  0  0  0  0  0  0
  186.7240  178.8600  141.3540 C   0  0  0  0  0  2  0  0  0  0  0  0
  185.6400  178.4330  142.3350 C   0  0  1  0  0  3  0  0  0  0  0  0
  183.8200  179.1650  144.2510 S   0  0  0  0  0  1  0  0  0  0  0  0
  185.2070  179.6260  143.1710 C   0  0  0  0  0  2  0  0  0  0  0  0
  184.4450  177.8770  141.5730 C   0  0  0  0  0  2  0  0  0  0  0  0
  183.9370  178.8830  140.5530 C   0  0  0  0  0  2  0  0  0  0  0  0
  182.6140  179.1900  140.8100 F   0  0  0  0  0  0  0  0  0  0  0  0
  1 24  1  6  0  0  0
  1 11  1  0  0  0  0
  2  1  1  1  0  0  0
  3  2  1  0  0  0  0
  4  3  1  0  0  0  0
  5  9  1  0  0  0  0
  6  3  2  0  0  0  0
  7  4  1  0  0  0  0
  7  5  1  0  0  0  0
  9  2  1  0  0  0  0
  9  8  1  1  0  0  0
 11 10  2  6  0  0  0
 11 12  1  0  0  0  0
 13 15  1  6  0  0  0
 13 14  1  0  0  0  0
 16 21  1  1  0  0  0
 16 19  1  0  0  0  0
 18 13  1  0  0  0  0
 19 14  1  0  0  0  0
 19 17  1  6  0  0  0
 20 12  1  6  0  0  0
 20 18  1  0  0  0  0
 20 16  1  0  0  0  0
 21 22  1  0  0  0  0
 23 22  1  0  0  0  0
 25 24  1  6  0  0  0
 25 27  1  0  0  0  0
 27 26  1  0  0  0  0
 28 25  1  0  0  0  0
 29 30  1  0  0  0  0
 29 28  1  0  0  0  0
M  END
>  <MODEL>
2

>  <REMARK>
 VINA RESULT:      -7.2      2.196      4.719
  Name = 
  11 active torsions:
  status: ('A' for Active; 'I' for Inactive)
    1  A    between atoms: C_3  and  C_11
    2  A    between atoms: C_3  and  C_19
    3  A    between atoms: S_4  and  C_13
    4  A    between atoms: S_4  and  C_23
    5  A    between atoms: C_5  and  C_9
    6  A    between atoms: C_6  and  C_8
    7  A    between atoms: C_6  and  C_9
    8  A    between atoms: C_6  and  C_21
    9  A    between atoms: C_7  and  C_13
   10  A    between atoms: C_8  and  C_13
   11  A    between atoms: C_23  and  C_29
                            x       y       z     vdW  Elec       q    Type
                         _______ _______ _______ _____ _____    ______ ____

>  <TORSDO>
F 11

$$$$
=
 OpenBabel10262421513D

 30 31  0  0  1  0  0  0  0  0999 V2000
  182.8360  178.8250  140.5590 C   0  0  2  0  0  3  0  0  0  0  0  0
  181.7860  178.3740  139.5230 C   0  0  1  0  0  3  0  0  0  0  0  0
  181.2340  179.5610  138.7860 C   0  0  0  0  0  0  0  0  0  0  0  0
  181.3340  179.6280  137.2980 C   0  0  0  0  0  2  0  0  0  0  0  0
  180.9260  176.8220  137.3630 S   0  0  0  0  0  0  0  0  0  0  0  0
  180.6760  180.4590  139.3950 O   0  0  0  0  0  0  0  0  0  0  0  0
  180.5540  178.4850  136.6700 C   0  0  0  0  0  2  0  0  0  0  0  0
  182.6190  176.0010  139.3100 C   0  0  0  0  0  1  0  0  0  0  0  0
  182.2460  177.2640  138.5560 C   0  0  2  0  0  3  0  0  0  0  0  0
  184.7960  179.9650  139.1520 O   0  0  0  0  0  0  0  0  0  0  0  0
  184.5840  178.7450  140.0380 S   0  0  1  0  0  0  0  0  0  0  0  0
  185.5830  179.0780  141.5000 C   0  0  0  0  0  2  0  0  0  0  0  0
  188.9800  177.5310  140.5920 C   0  0  2  0  0  3  0  0  0  0  0  0
  189.6270  177.5990  141.9720 C   0  0  0  0  0  2  0  0  0  0  0  0
  189.9110  177.9010  139.6230 O   0  0  0  0  0  1  0  0  0  0  0  0
  187.3870  178.1370  142.9920 C   0  0  1  0  0  3  0  0  0  0  0  0
  188.2610  175.8800  142.9310 O   0  0  0  0  0  1  0  0  0  0  0  0
  187.7830  178.4710  140.5310 C   0  0  0  0  0  2  0  0  0  0  0  0
  188.6220  177.2250  143.0590 C   0  0  1  0  0  3  0  0  0  0  0  0
  186.7460  178.1010  141.5920 C   0  0  2  0  0  3  0  0  0  0  0  0
  186.4000  177.7440  144.0910 C   0  0  0  0  0  2  0  0  0  0  0  0
  187.0140  177.9280  145.4690 C   0  0  0  0  0  2  0  0  0  0  0  0
  186.3180  177.1830  146.4020 F   0  0  0  0  0  0  0  0  0  0  0  0
  182.6230  178.1420  141.9030 C   0  0  0  0  0  2  0  0  0  0  0  0
  181.8500  179.0420  142.8580 C   0  0  1  0  0  3  0  0  0  0  0  0
  179.4330  178.9750  144.1510 S   0  0  0  0  0  1  0  0  0  0  0  0
  180.3600  178.9130  142.5900 C   0  0  0  0  0  2  0  0  0  0  0  0
  182.1500  178.6450  144.2970 C   0  0  0  0  0  2  0  0  0  0  0  0
  183.4540  179.2680  144.7700 C   0  0  0  0  0  2  0  0  0  0  0  0
  183.8220  178.7290  145.9880 F   0  0  0  0  0  0  0  0  0  0  0  0
  1 24  1  1  0  0  0
  2  1  1  6  0  0  0
  3  6  2  0  0  0  0
  3  2  1  0  0  0  0
  4  3  1  0  0  0  0
  5  9  1  0  0  0  0
  7  4  1  0  0  0  0
  7  5  1  0  0  0  0
  9  8  1  1  0  0  0
  9  2  1  0  0  0  0
 11 10  2  6  0  0  0
 11  1  1  0  0  0  0
 11 12  1  0  0  0  0
 13 15  1  6  0  0  0
 13 14  1  0  0  0  0
 14 19  1  0  0  0  0
 16 19  1  0  0  0  0
 16 21  1  1  0  0  0
 18 13  1  0  0  0  0
 18 20  1  0  0  0  0
 19 17  1  6  0  0  0
 20 12  1  1  0  0  0
 20 16  1  0  0  0  0
 21 22  1  0  0  0  0
 22 23  1  0  0  0  0
 25 24  1  6  0  0  0
 25 28  1  0  0  0  0
 27 25  1  0  0  0  0
 27 26  1  0  0  0  0
 28 29  1  0  0  0  0
 29 30  1  0  0  0  0
M  END
>  <MODEL>
3

>  <REMARK>
 VINA RESULT:      -6.9      3.538      6.541
  Name = 
  11 active torsions:
  status: ('A' for Active; 'I' for Inactive)
    1  A    between atoms: C_3  and  C_11
    2  A    between atoms: C_3  and  C_19
    3  A    between atoms: S_4  and  C_13
    4  A    between atoms: S_4  and  C_23
    5  A    between atoms: C_5  and  C_9
    6  A    between atoms: C_6  and  C_8
    7  A    between atoms: C_6  and  C_9
    8  A    between atoms: C_6  and  C_21
    9  A    between atoms: C_7  and  C_13
   10  A    between atoms: C_8  and  C_13
   11  A    between atoms: C_23  and  C_29
                            x       y       z     vdW  Elec       q    Type
                         _______ _______ _______ _____ _____    ______ ____

>  <TORSDO>
F 11

$$$$
=
 OpenBabel10262421513D

 30 31  0  0  1  0  0  0  0  0999 V2000
  183.3330  178.7620  140.4780 C   0  0  2  0  0  3  0  0  0  0  0  0
  182.1950  178.3630  139.5170 C   0  0  1  0  0  3  0  0  0  0  0  0
  181.6700  176.9990  139.8660 C   0  0  0  0  0  0  0  0  0  0  0  0
  180.2250  176.8150  140.1910 C   0  0  0  0  0  2  0  0  0  0  0  0
  179.7560  178.8060  138.2260 S   0  0  0  0  0  0  0  0  0  0  0  0
  182.4150  176.0320  139.8540 O   0  0  0  0  0  0  0  0  0  0  0  0
  179.3700  177.1770  138.9880 C   0  0  0  0  0  2  0  0  0  0  0  0
  181.5770  180.7140  138.8380 C   0  0  0  0  0  1  0  0  0  0  0  0
  181.0570  179.3930  139.3770 C   0  0  2  0  0  3  0  0  0  0  0  0
  185.2870  179.3930  138.7740 O   0  0  0  0  0  0  0  0  0  0  0  0
  185.0360  178.4180  139.9170 S   0  0  1  0  0  0  0  0  0  0  0  0
  186.1430  178.9720  141.2260 C   0  0  0  0  0  2  0  0  0  0  0  0
  189.5750  177.3330  140.6940 C   0  0  2  0  0  3  0  0  0  0  0  0
  190.0730  177.3950  142.1350 C   0  0  0  0  0  2  0  0  0  0  0  0
  190.6140  177.6710  139.8290 O   0  0  0  0  0  1  0  0  0  0  0  0
  187.7520  177.9970  142.9070 C   0  0  1  0  0  3  0  0  0  0  0  0
  188.5670  175.7180  142.9510 O   0  0  0  0  0  1  0  0  0  0  0  0
  188.4170  178.3020  140.5000 C   0  0  0  0  0  2  0  0  0  0  0  0
  188.9480  177.0550  143.1100 C   0  0  1  0  0  3  0  0  0  0  0  0
  187.2630  177.9670  141.4470 C   0  0  2  0  0  3  0  0  0  0  0  0
  186.6430  177.6380  143.8960 C   0  0  0  0  0  2  0  0  0  0  0  0
  187.0570  177.9590  145.3220 C   0  0  0  0  0  2  0  0  0  0  0  0
  186.4540  177.0790  146.2010 F   0  0  0  0  0  0  0  0  0  0  0  0
  183.0900  178.2260  141.8830 C   0  0  0  0  0  2  0  0  0  0  0  0
  182.5380  179.3120  142.7960 C   0  0  1  0  0  3  0  0  0  0  0  0
  179.8830  179.9950  142.8590 S   0  0  0  0  0  1  0  0  0  0  0  0
  181.2080  178.8640  143.3780 C   0  0  0  0  0  2  0  0  0  0  0  0
  183.5250  179.5910  143.9210 C   0  0  0  0  0  2  0  0  0  0  0  0
  183.2660  178.6780  145.1080 C   0  0  0  0  0  2  0  0  0  0  0  0
  184.1300  178.9880  146.1420 F   0  0  0  0  0  0  0  0  0  0  0  0
  1 24  1  1  0  0  0
  2  3  1  0  0  0  0
  2  1  1  1  0  0  0
  3  4  1  0  0  0  0
  5  7  1  0  0  0  0
  5  9  1  0  0  0  0
  6  3  2  0  0  0  0
  7  4  1  0  0  0  0
  9  8  1  6  0  0  0
  9  2  1  0  0  0  0
 11 10  2  6  0  0  0
 11  1  1  0  0  0  0
 11 12  1  0  0  0  0
 13 15  1  6  0  0  0
 13 14  1  0  0  0  0
 14 19  1  0  0  0  0
 16 19  1  0  0  0  0
 16 21  1  1  0  0  0
 18 13  1  0  0  0  0
 18 20  1  0  0  0  0
 19 17  1  6  0  0  0
 20 12  1  1  0  0  0
 20 16  1  0  0  0  0
 21 22  1  0  0  0  0
 22 23  1  0  0  0  0
 25 24  1  6  0  0  0
 25 27  1  0  0  0  0
 25 28  1  0  0  0  0
 26 27  1  0  0  0  0
 28 29  1  0  0  0  0
 29 30  1  0  0  0  0
M  END
>  <MODEL>
4

>  <REMARK>
 VINA RESULT:      -6.8      3.380      6.243
  Name = 
  11 active torsions:
  status: ('A' for Active; 'I' for Inactive)
    1  A    between atoms: C_3  and  C_11
    2  A    between atoms: C_3  and  C_19
    3  A    between atoms: S_4  and  C_13
    4  A    between atoms: S_4  and  C_23
    5  A    between atoms: C_5  and  C_9
    6  A    between atoms: C_6  and  C_8
    7  A    between atoms: C_6  and  C_9
    8  A    between atoms: C_6  and  C_21
    9  A    between atoms: C_7  and  C_13
   10  A    between atoms: C_8  and  C_13
   11  A    between atoms: C_23  and  C_29
                            x       y       z     vdW  Elec       q    Type
                         _______ _______ _______ _____ _____    ______ ____

>  <TORSDO>
F 11

$$$$
=
 OpenBabel10262421513D

 30 31  0  0  1  0  0  0  0  0999 V2000
  187.8640  176.9520  142.9490 C   0  0  2  0  0  3  0  0  0  0  0  0
  188.7850  176.5850  144.1300 C   0  0  1  0  0  3  0  0  0  0  0  0
  190.1320  176.1490  143.6280 C   0  0  0  0  0  0  0  0  0  0  0  0
  191.3640  176.8620  144.0770 C   0  0  0  0  0  2  0  0  0  0  0  0
  190.0370  177.1230  146.5710 S   0  0  0  0  0  0  0  0  0  0  0  0
  190.2270  175.1930  142.8760 O   0  0  0  0  0  0  0  0  0  0  0  0
  191.5320  176.7140  145.5810 C   0  0  0  0  0  2  0  0  0  0  0  0
  187.5580  177.9510  145.8630 C   0  0  0  0  0  1  0  0  0  0  0  0
  188.9070  177.6590  145.2300 C   0  0  2  0  0  3  0  0  0  0  0  0
  189.2820  179.1940  142.6640 O   0  0  0  0  0  0  0  0  0  0  0  0
  188.4780  178.2310  141.8000 S   0  0  1  0  0  0  0  0  0  0  0  0
  189.7100  177.4440  140.7460 C   0  0  0  0  0  2  0  0  0  0  0  0
  187.5280  178.0480  137.6440 C   0  0  2  0  0  3  0  0  0  0  0  0
  188.6380  178.0720  136.5970 C   0  0  0  0  0  2  0  0  0  0  0  0
  186.6070  179.0580  137.3690 O   0  0  0  0  0  1  0  0  0  0  0  0
  190.2580  177.1640  138.3000 C   0  0  1  0  0  3  0  0  0  0  0  0
  189.1060  175.7260  136.7310 O   0  0  0  0  0  1  0  0  0  0  0  0
  188.1160  178.2610  139.0330 C   0  0  0  0  0  2  0  0  0  0  0  0
  189.6770  176.9920  136.8880 C   0  0  1  0  0  3  0  0  0  0  0  0
  189.1420  177.1750  139.3610 C   0  0  2  0  0  3  0  0  0  0  0  0
  191.2970  176.0750  138.5630 C   0  0  0  0  0  2  0  0  0  0  0  0
  192.6850  176.5310  138.1470 C   0  0  0  0  0  2  0  0  0  0  0  0
  192.8970  176.2480  136.8100 F   0  0  0  0  0  0  0  0  0  0  0  0
  186.4480  177.2590  143.4190 C   0  0  0  0  0  2  0  0  0  0  0  0
  185.8500  178.4180  142.6350 C   0  0  1  0  0  3  0  0  0  0  0  0
  184.5530  179.0350  140.2990 S   0  0  0  0  0  1  0  0  0  0  0  0
  184.7670  177.9010  141.7020 C   0  0  0  0  0  2  0  0  0  0  0  0
  185.2580  179.4390  143.5970 C   0  0  0  0  0  2  0  0  0  0  0  0
  183.9110  178.9700  144.1230 C   0  0  0  0  0  2  0  0  0  0  0  0
  183.9850  178.7560  145.4870 F   0  0  0  0  0  0  0  0  0  0  0  0
  1 24  1  1  0  0  0
  2  1  1  6  0  0  0
  2  9  1  0  0  0  0
  3  4  1  0  0  0  0
  3  2  1  0  0  0  0
  4  7  1  0  0  0  0
  6  3  2  0  0  0  0
  7  5  1  0  0  0  0
  9  8  1  1  0  0  0
  9  5  1  0  0  0  0
 11 10  2  1  0  0  0
 11  1  1  0  0  0  0
 12 11  1  0  0  0  0
 13 15  1  6  0  0  0
 13 18  1  0  0  0  0
 14 19  1  0  0  0  0
 14 13  1  0  0  0  0
 16 21  1  1  0  0  0
 16 20  1  0  0  0  0
 18 20  1  0  0  0  0
 19 17  1  1  0  0  0
 19 16  1  0  0  0  0
 20 12  1  1  0  0  0
 22 21  1  0  0  0  0
 23 22  1  0  0  0  0
 25 27  1  6  0  0  0
 25 24  1  0  0  0  0
 25 28  1  0  0  0  0
 26 27  1  0  0  0  0
 28 29  1  0  0  0  0
 29 30  1  0  0  0  0
M  END
>  <MODEL>
5

>  <REMARK>
 VINA RESULT:      -6.6      2.964      7.072
  Name = 
  11 active torsions:
  status: ('A' for Active; 'I' for Inactive)
    1  A    between atoms: C_3  and  C_11
    2  A    between atoms: C_3  and  C_19
    3  A    between atoms: S_4  and  C_13
    4  A    between atoms: S_4  and  C_23
    5  A    between atoms: C_5  and  C_9
    6  A    between atoms: C_6  and  C_8
    7  A    between atoms: C_6  and  C_9
    8  A    between atoms: C_6  and  C_21
    9  A    between atoms: C_7  and  C_13
   10  A    between atoms: C_8  and  C_13
   11  A    between atoms: C_23  and  C_29
                            x       y       z     vdW  Elec       q    Type
                         _______ _______ _______ _____ _____    ______ ____

>  <TORSDO>
F 11

$$$$
=
 OpenBabel10262421513D

 30 31  0  0  1  0  0  0  0  0999 V2000
  187.8930  178.2910  141.3970 C   0  0  2  0  0  3  0  0  0  0  0  0
  188.5490  177.5630  140.2060 C   0  0  1  0  0  3  0  0  0  0  0  0
  187.8790  177.9550  138.9200 C   0  0  0  0  0  0  0  0  0  0  0  0
  188.6790  178.5570  137.8130 C   0  0  0  0  0  2  0  0  0  0  0  0
  190.7480  176.8080  138.6540 S   0  0  0  0  0  0  0  0  0  0  0  0
  186.6850  177.7550  138.7630 O   0  0  0  0  0  0  0  0  0  0  0  0
  189.7250  177.5660  137.3270 C   0  0  0  0  0  2  0  0  0  0  0  0
  190.7580  177.1180  141.3440 C   0  0  0  0  0  1  0  0  0  0  0  0
  190.0830  177.6970  140.1140 C   0  0  2  0  0  3  0  0  0  0  0  0
  188.3800  175.9980  142.6710 O   0  0  0  0  0  0  0  0  0  0  0  0
  187.8700  177.3970  142.9890 S   0  0  1  0  0  0  0  0  0  0  0  0
  189.1630  178.1190  144.0160 C   0  0  0  0  0  2  0  0  0  0  0  0
  190.7670  176.7540  147.2270 C   0  0  2  0  0  3  0  0  0  0  0  0
  189.9190  177.5190  148.2380 C   0  0  0  0  0  2  0  0  0  0  0  0
  192.0980  176.7520  147.6430 O   0  0  0  0  0  1  0  0  0  0  0  0
  188.3330  178.1860  146.3970 C   0  0  1  0  0  3  0  0  0  0  0  0
  187.9160  176.2730  147.8200 O   0  0  0  0  0  1  0  0  0  0  0  0
  190.6640  177.4100  145.8570 C   0  0  0  0  0  2  0  0  0  0  0  0
  188.4580  177.5610  147.7950 C   0  0  1  0  0  3  0  0  0  0  0  0
  189.2120  177.4400  145.3760 C   0  0  2  0  0  3  0  0  0  0  0  0
  186.8630  178.2190  145.9800 C   0  0  0  0  0  2  0  0  0  0  0  0
  186.0210  178.9610  147.0040 C   0  0  0  0  0  2  0  0  0  0  0  0
  184.8600  178.2570  147.2640 F   0  0  0  0  0  0  0  0  0  0  0  0
  186.5120  178.8200  141.0350 C   0  0  0  0  0  2  0  0  0  0  0  0
  185.4620  178.3360  142.0260 C   0  0  1  0  0  3  0  0  0  0  0  0
  183.6560  178.9990  143.9800 S   0  0  0  0  0  1  0  0  0  0  0  0
  185.1040  179.4600  142.9830 C   0  0  0  0  0  2  0  0  0  0  0  0
  184.2180  177.8800  141.2770 C   0  0  0  0  0  2  0  0  0  0  0  0
  183.7000  178.9810  140.3650 C   0  0  0  0  0  2  0  0  0  0  0  0
  183.8410  178.6060  139.0420 F   0  0  0  0  0  0  0  0  0  0  0  0
  1 24  1  6  0  0  0
  1 11  1  0  0  0  0
  2  1  1  1  0  0  0
  3  2  1  0  0  0  0
  4  3  1  0  0  0  0
  5  9  1  0  0  0  0
  6  3  2  0  0  0  0
  7  4  1  0  0  0  0
  7  5  1  0  0  0  0
  9  2  1  0  0  0  0
  9  8  1  1  0  0  0
 11 10  2  6  0  0  0
 11 12  1  0  0  0  0
 13 15  1  1  0  0  0
 13 14  1  0  0  0  0
 16 21  1  6  0  0  0
 16 19  1  0  0  0  0
 18 13  1  0  0  0  0
 19 17  1  6  0  0  0
 19 14  1  0  0  0  0
 20 12  1  6  0  0  0
 20 18  1  0  0  0  0
 20 16  1  0  0  0  0
 21 22  1  0  0  0  0
 22 23  1  0  0  0  0
 25 24  1  6  0  0  0
 25 27  1  0  0  0  0
 27 26  1  0  0  0  0
 28 25  1  0  0  0  0
 29 28  1  0  0  0  0
 30 29  1  0  0  0  0
M  END
>  <MODEL>
6

>  <REMARK>
 VINA RESULT:      -6.5      2.584      5.254
  Name = 
  11 active torsions:
  status: ('A' for Active; 'I' for Inactive)
    1  A    between atoms: C_3  and  C_11
    2  A    between atoms: C_3  and  C_19
    3  A    between atoms: S_4  and  C_13
    4  A    between atoms: S_4  and  C_23
    5  A    between atoms: C_5  and  C_9
    6  A    between atoms: C_6  and  C_8
    7  A    between atoms: C_6  and  C_9
    8  A    between atoms: C_6  and  C_21
    9  A    between atoms: C_7  and  C_13
   10  A    between atoms: C_8  and  C_13
   11  A    between atoms: C_23  and  C_29
                            x       y       z     vdW  Elec       q    Type
                         _______ _______ _______ _____ _____    ______ ____

>  <TORSDO>
F 11

$$$$
=
 OpenBabel10262421513D

 30 31  0  0  1  0  0  0  0  0999 V2000
  187.6370  177.7330  143.0350 C   0  0  2  0  0  3  0  0  0  0  0  0
  186.1430  177.7960  143.4130 C   0  0  1  0  0  3  0  0  0  0  0  0
  185.9840  177.8750  144.9050 C   0  0  0  0  0  0  0  0  0  0  0  0
  185.2470  179.0190  145.5180 C   0  0  0  0  0  2  0  0  0  0  0  0
  183.5720  178.8780  143.2330 S   0  0  0  0  0  0  0  0  0  0  0  0
  186.4300  176.9910  145.6190 O   0  0  0  0  0  0  0  0  0  0  0  0
  183.8000  179.0160  145.0530 C   0  0  0  0  0  2  0  0  0  0  0  0
  185.3370  178.6790  141.1900 C   0  0  0  0  0  1  0  0  0  0  0  0
  185.3240  178.8870  142.6940 C   0  0  2  0  0  3  0  0  0  0  0  0
  189.0190  179.5710  141.6830 O   0  0  0  0  0  0  0  0  0  0  0  0
  188.0930  178.3970  141.3960 S   0  0  1  0  0  0  0  0  0  0  0  0
  189.1570  177.1730  140.6110 C   0  0  0  0  0  2  0  0  0  0  0  0
  187.6550  178.2280  137.2370 C   0  0  2  0  0  3  0  0  0  0  0  0
  188.9540  178.3360  136.4430 C   0  0  0  0  0  2  0  0  0  0  0  0
  186.8220  179.2980  136.9130 O   0  0  0  0  0  1  0  0  0  0  0  0
  190.1850  177.1700  138.3070 C   0  0  1  0  0  3  0  0  0  0  0  0
  189.3550  175.9750  136.3720 O   0  0  0  0  0  1  0  0  0  0  0  0
  187.9530  178.2500  138.7300 C   0  0  0  0  0  2  0  0  0  0  0  0
  189.8990  177.1910  136.7980 C   0  0  1  0  0  3  0  0  0  0  0  0
  188.8770  177.0950  139.1170 C   0  0  2  0  0  3  0  0  0  0  0  0
  191.1350  176.0180  138.6330 C   0  0  0  0  0  2  0  0  0  0  0  0
  192.5700  176.3800  138.2910 C   0  0  0  0  0  2  0  0  0  0  0  0
  192.9240  175.8220  137.0760 F   0  0  0  0  0  0  0  0  0  0  0  0
  188.2080  176.3380  143.2490 C   0  0  0  0  0  2  0  0  0  0  0  0
  189.4460  176.3840  144.1350 C   0  0  1  0  0  3  0  0  0  0  0  0
  191.6790  177.7280  143.2830 S   0  0  0  0  0  1  0  0  0  0  0  0
  190.6920  176.2020  143.2850 C   0  0  0  0  0  2  0  0  0  0  0  0
  189.5090  177.7190  144.8640 C   0  0  0  0  0  2  0  0  0  0  0  0
  189.7200  177.5140  146.3550 C   0  0  0  0  0  2  0  0  0  0  0  0
  188.8210  178.2830  147.0710 F   0  0  0  0  0  0  0  0  0  0  0  0
  1 24  1  6  0  0  0
  2  1  1  1  0  0  0
  2  3  1  0  0  0  0
  3  4  1  0  0  0  0
  3  6  2  0  0  0  0
  5  7  1  0  0  0  0
  7  4  1  0  0  0  0
  9  8  1  6  0  0  0
  9  5  1  0  0  0  0
  9  2  1  0  0  0  0
 11 10  2  1  0  0  0
 11  1  1  0  0  0  0
 12 11  1  0  0  0  0
 13 15  1  1  0  0  0
 13 18  1  0  0  0  0
 14 19  1  0  0  0  0
 14 13  1  0  0  0  0
 16 21  1  6  0  0  0
 16 20  1  0  0  0  0
 18 20  1  0  0  0  0
 19 17  1  1  0  0  0
 19 16  1  0  0  0  0
 20 12  1  1  0  0  0
 22 21  1  0  0  0  0
 23 22  1  0  0  0  0
 25 24  1  6  0  0  0
 25 28  1  0  0  0  0
 26 27  1  0  0  0  0
 27 25  1  0  0  0  0
 28 29  1  0  0  0  0
 29 30  1  0  0  0  0
M  END
>  <MODEL>
7

>  <REMARK>
 VINA RESULT:      -6.4      2.754      6.396
  Name = 
  11 active torsions:
  status: ('A' for Active; 'I' for Inactive)
    1  A    between atoms: C_3  and  C_11
    2  A    between atoms: C_3  and  C_19
    3  A    between atoms: S_4  and  C_13
    4  A    between atoms: S_4  and  C_23
    5  A    between atoms: C_5  and  C_9
    6  A    between atoms: C_6  and  C_8
    7  A    between atoms: C_6  and  C_9
    8  A    between atoms: C_6  and  C_21
    9  A    between atoms: C_7  and  C_13
   10  A    between atoms: C_8  and  C_13
   11  A    between atoms: C_23  and  C_29
                            x       y       z     vdW  Elec       q    Type
                         _______ _______ _______ _____ _____    ______ ____

>  <TORSDO>
F 11

$$$$
=
 OpenBabel10262421513D

 30 31  0  0  1  0  0  0  0  0999 V2000
  187.6680  178.0040  139.3900 C   0  0  2  0  0  3  0  0  0  0  0  0
  187.3110  178.1390  137.8950 C   0  0  1  0  0  3  0  0  0  0  0  0
  188.4690  178.7160  137.1310 C   0  0  0  0  0  0  0  0  0  0  0  0
  189.0550  177.9640  135.9830 C   0  0  0  0  0  2  0  0  0  0  0  0
  186.3950  177.1330  135.4540 S   0  0  0  0  0  0  0  0  0  0  0  0
  188.9130  179.8140  137.4250 O   0  0  0  0  0  0  0  0  0  0  0  0
  188.0160  177.7920  134.8860 C   0  0  0  0  0  2  0  0  0  0  0  0
  185.4850  176.3960  137.8950 C   0  0  0  0  0  1  0  0  0  0  0  0
  186.7680  176.8590  137.2280 C   0  0  2  0  0  3  0  0  0  0  0  0
  185.2880  179.1090  139.8730 O   0  0  0  0  0  0  0  0  0  0  0  0
  186.6350  178.9460  140.5650 S   0  0  1  0  0  0  0  0  0  0  0  0
  186.2910  177.8520  141.9550 C   0  0  0  0  0  2  0  0  0  0  0  0
  183.2950  179.3150  143.8630 C   0  0  2  0  0  3  0  0  0  0  0  0
  183.5470  178.6460  145.2110 C   0  0  0  0  0  2  0  0  0  0  0  0
  181.9320  179.2760  143.5720 O   0  0  0  0  0  1  0  0  0  0  0  0
  185.8430  177.9550  144.4350 C   0  0  1  0  0  3  0  0  0  0  0  0
  185.4790  179.9610  145.7410 O   0  0  0  0  0  1  0  0  0  0  0  0
  184.0690  178.5900  142.7690 C   0  0  0  0  0  2  0  0  0  0  0  0
  185.0370  178.6480  145.5450 C   0  0  1  0  0  3  0  0  0  0  0  0
  185.5690  178.6020  143.0650 C   0  0  2  0  0  3  0  0  0  0  0  0
  187.3280  177.9680  144.7950 C   0  0  0  0  0  2  0  0  0  0  0  0
  187.5680  177.3220  146.1490 C   0  0  0  0  0  2  0  0  0  0  0  0
  188.8880  176.9260  146.2590 F   0  0  0  0  0  0  0  0  0  0  0  0
  189.1510  178.2470  139.6330 C   0  0  0  0  0  2  0  0  0  0  0  0
  189.8020  177.0420  140.2980 C   0  0  1  0  0  3  0  0  0  0  0  0
  190.8490  175.6580  138.1750 S   0  0  0  0  0  1  0  0  0  0  0  0
  191.1230  176.7320  139.6150 C   0  0  0  0  0  2  0  0  0  0  0  0
  190.0400  177.3340  141.7730 C   0  0  0  0  0  2  0  0  0  0  0  0
  189.6190  176.1550  142.6340 C   0  0  0  0  0  2  0  0  0  0  0  0
  190.4140  176.0840  143.7630 F   0  0  0  0  0  0  0  0  0  0  0  0
  1 24  1  6  0  0  0
  1 11  1  0  0  0  0
  2  1  1  1  0  0  0
  3  6  2  0  0  0  0
  3  2  1  0  0  0  0
  4  3  1  0  0  0  0
  5  9  1  0  0  0  0
  7  5  1  0  0  0  0
  7  4  1  0  0  0  0
  9  2  1  0  0  0  0
  9  8  1  1  0  0  0
 11 10  2  6  0  0  0
 11 12  1  0  0  0  0
 13 15  1  6  0  0  0
 13 14  1  0  0  0  0
 14 19  1  0  0  0  0
 16 21  1  1  0  0  0
 16 19  1  0  0  0  0
 18 20  1  0  0  0  0
 18 13  1  0  0  0  0
 19 17  1  6  0  0  0
 20 12  1  6  0  0  0
 20 16  1  0  0  0  0
 21 22  1  0  0  0  0
 22 23  1  0  0  0  0
 24 25  1  0  0  0  0
 25 27  1  6  0  0  0
 25 28  1  0  0  0  0
 26 27  1  0  0  0  0
 28 29  1  0  0  0  0
 29 30  1  0  0  0  0
M  END
>  <MODEL>
8

>  <REMARK>
 VINA RESULT:      -6.4      2.821      5.528
  Name = 
  11 active torsions:
  status: ('A' for Active; 'I' for Inactive)
    1  A    between atoms: C_3  and  C_11
    2  A    between atoms: C_3  and  C_19
    3  A    between atoms: S_4  and  C_13
    4  A    between atoms: S_4  and  C_23
    5  A    between atoms: C_5  and  C_9
    6  A    between atoms: C_6  and  C_8
    7  A    between atoms: C_6  and  C_9
    8  A    between atoms: C_6  and  C_21
    9  A    between atoms: C_7  and  C_13
   10  A    between atoms: C_8  and  C_13
   11  A    between atoms: C_23  and  C_29
                            x       y       z     vdW  Elec       q    Type
                         _______ _______ _______ _____ _____    ______ ____

>  <TORSDO>
F 11

$$$$
=
 OpenBabel10262421513D

 30 31  0  0  1  0  0  0  0  0999 V2000
  187.8870  177.6060  141.3500 C   0  0  2  0  0  3  0  0  0  0  0  0
  186.8010  178.4880  140.7000 C   0  0  1  0  0  3  0  0  0  0  0  0
  186.8420  178.3500  139.2040 C   0  0  0  0  0  0  0  0  0  0  0  0
  185.6280  177.9000  138.4620 C   0  0  0  0  0  2  0  0  0  0  0  0
  184.1690  179.3770  140.3960 S   0  0  0  0  0  0  0  0  0  0  0  0
  187.8570  178.6340  138.5880 O   0  0  0  0  0  0  0  0  0  0  0  0
  184.5010  178.9040  138.6490 C   0  0  0  0  0  2  0  0  0  0  0  0
  185.3110  178.6240  142.7330 C   0  0  0  0  0  1  0  0  0  0  0  0
  185.3750  178.2940  141.2520 C   0  0  2  0  0  3  0  0  0  0  0  0
  187.8940  175.7160  143.2330 O   0  0  0  0  0  0  0  0  0  0  0  0
  187.6720  177.2180  143.1220 S   0  0  1  0  0  0  0  0  0  0  0  0
  189.0760  177.9410  143.9910 C   0  0  0  0  0  2  0  0  0  0  0  0
  186.8510  178.2570  147.1060 C   0  0  2  0  0  3  0  0  0  0  0  0
  187.5160  177.1810  147.9600 C   0  0  0  0  0  2  0  0  0  0  0  0
  185.4660  178.1670  147.2410 O   0  0  0  0  0  1  0  0  0  0  0  0
  189.4410  177.0890  146.3380 C   0  0  1  0  0  3  0  0  0  0  0  0
  189.5220  178.4310  148.3500 O   0  0  0  0  0  1  0  0  0  0  0  0
  187.2320  178.0710  145.6430 C   0  0  0  0  0  2  0  0  0  0  0  0
  189.0340  177.2360  147.8110 C   0  0  1  0  0  3  0  0  0  0  0  0
  188.7480  178.1500  145.4620 C   0  0  2  0  0  3  0  0  0  0  0  0
  190.9640  177.1440  146.2180 C   0  0  0  0  0  2  0  0  0  0  0  0
  191.6130  175.9890  146.9610 C   0  0  0  0  0  2  0  0  0  0  0  0
  192.2150  176.4460  148.1180 F   0  0  0  0  0  0  0  0  0  0  0  0
  189.2850  178.1380  141.0620 C   0  0  0  0  0  2  0  0  0  0  0  0
  190.2790  176.9990  140.8860 C   0  0  1  0  0  3  0  0  0  0  0  0
  191.9140  176.7670  138.6970 S   0  0  0  0  0  1  0  0  0  0  0  0
  190.2730  176.5310  139.4410 C   0  0  0  0  0  2  0  0  0  0  0  0
  191.6750  177.4700  141.2690 C   0  0  0  0  0  2  0  0  0  0  0  0
  192.0560  176.9700  142.6530 C   0  0  0  0  0  2  0  0  0  0  0  0
  191.1550  176.0080  143.0730 F   0  0  0  0  0  0  0  0  0  0  0  0
  1 24  1  1  0  0  0
  1 11  1  0  0  0  0
  2  9  1  0  0  0  0
  2  1  1  1  0  0  0
  3  2  1  0  0  0  0
  4  7  1  0  0  0  0
  4  3  1  0  0  0  0
  5  9  1  0  0  0  0
  6  3  2  0  0  0  0
  7  5  1  0  0  0  0
  9  8  1  1  0  0  0
 11 10  2  6  0  0  0
 11 12  1  0  0  0  0
 13 15  1  6  0  0  0
 13 14  1  0  0  0  0
 16 21  1  1  0  0  0
 16 19  1  0  0  0  0
 18 13  1  0  0  0  0
 19 14  1  0  0  0  0
 19 17  1  6  0  0  0
 20 12  1  6  0  0  0
 20 18  1  0  0  0  0
 20 16  1  0  0  0  0
 21 22  1  0  0  0  0
 22 23  1  0  0  0  0
 25 27  1  6  0  0  0
 25 24  1  0  0  0  0
 25 28  1  0  0  0  0
 26 27  1  0  0  0  0
 28 29  1  0  0  0  0
 29 30  1  0  0  0  0
M  END
>  <MODEL>
9

>  <REMARK>
 VINA RESULT:      -6.3      1.882      2.511
  Name = 
  11 active torsions:
  status: ('A' for Active; 'I' for Inactive)
    1  A    between atoms: C_3  and  C_11
    2  A    between atoms: C_3  and  C_19
    3  A    between atoms: S_4  and  C_13
    4  A    between atoms: S_4  and  C_23
    5  A    between atoms: C_5  and  C_9
    6  A    between atoms: C_6  and  C_8
    7  A    between atoms: C_6  and  C_9
    8  A    between atoms: C_6  and  C_21
    9  A    between atoms: C_7  and  C_13
   10  A    between atoms: C_8  and  C_13
   11  A    between atoms: C_23  and  C_29
                            x       y       z     vdW  Elec       q    Type
                         _______ _______ _______ _____ _____    ______ ____

>  <TORSDO>
F 11

$$$$
