=
 OpenBabel10262420223D

 55 61  0  0  1  0  0  0  0  0999 V2000
  181.5930  177.1060  139.6090 C   0  0  0  0  0  2  0  0  0  0  0  0
  186.8300  178.3450  136.4530 C   0  0  0  0  0  2  0  0  0  0  0  0
  188.3360  175.0070  135.4440 C   0  0  0  0  0  2  0  0  0  0  0  0
  187.8100  171.9620  135.4840 C   0  0  0  0  0  3  0  0  0  0  0  0
  187.1420  170.8010  135.0940 C   0  0  0  0  0  3  0  0  0  0  0  0
  185.7930  172.7770  136.5580 C   0  0  0  0  0  0  0  0  0  0  0  0
  185.1280  171.6080  136.1600 C   0  0  0  0  0  3  0  0  0  0  0  0
  188.9340  173.8790  137.4660 O   0  0  0  0  0  1  0  0  0  0  0  0
  185.8000  170.6270  135.4310 C   0  0  0  0  0  3  0  0  0  0  0  0
  187.1410  172.9550  136.2110 C   0  0  0  0  0  0  0  0  0  0  0  0
  182.7980  178.8770  138.8330 C   0  0  1  0  0  0  0  0  0  0  0  0
  182.2520  174.8030  139.2440 O   0  0  0  0  0  0  0  0  0  0  0  0
  182.4350  178.7870  137.3580 C   0  0  0  0  0  2  0  0  0  0  0  0
  183.5250  174.8720  138.6690 C   0  0  0  0  0  2  0  0  0  0  0  0
  184.4100  177.0910  136.4200 O   0  0  0  0  0  1  0  0  0  0  0  0
  185.1400  173.7740  137.2920 O   0  0  0  0  0  0  0  0  0  0  0  0
  187.0290  177.1110  135.5660 C   0  0  0  0  0  2  0  0  0  0  0  0
  188.3890  176.4780  135.8130 C   0  0  0  0  0  2  0  0  0  0  0  0
  186.1580  178.0530  137.7360 N   0  0  0  0  0  0  0  0  0  0  0  0
  181.5470  175.8840  138.6900 C   0  0  0  0  0  2  0  0  0  0  0  0
  187.8600  174.1960  136.6370 C   0  0  2  0  0  3  0  0  0  0  0  0
  182.8770  177.6780  139.5760 O   0  0  0  0  0  0  0  0  0  0  0  0
  184.7190  177.7570  137.6080 C   0  0  1  0  0  3  0  0  0  0  0  0
  183.7770  173.7190  137.7080 C   0  0  2  0  0  3  0  0  0  0  0  0
  183.8910  179.0320  137.7620 C   0  0  2  0  0  3  0  0  0  0  0  0
  182.8680  173.8280  136.5220 C   0  0  0  0  0  0  0  0  0  0  0  0
  181.2760  173.5740  135.2000 C   0  0  0  0  0  0  0  0  0  0  0  0
  183.1650  174.5410  135.4280 N   0  0  0  0  0  0  0  0  0  0  0  0
  182.1540  174.3870  134.5940 N   0  0  0  0  0  0  0  0  0  0  0  0
  181.6820  173.2030  136.4250 N   0  0  0  0  0  2  0  0  0  0  0  0
  179.9580  173.1960  134.6120 C   0  0  0  0  0  3  0  0  0  0  0  0
  178.9370  172.9690  135.7100 C   0  0  0  0  0  2  0  0  0  0  0  0
  179.5870  171.7860  135.0290 C   0  0  0  0  0  2  0  0  0  0  0  0
  186.8030  176.9540  138.4550 C   0  0  0  0  0  2  0  0  0  0  0  0
  188.0420  177.4590  139.1780 C   0  0  0  0  0  2  0  0  0  0  0  0
  187.9050  176.2210  143.2970 S   0  0  0  0  0  0  0  0  0  0  0  0
  188.9210  179.0290  140.9300 C   0  0  0  0  0  2  0  0  0  0  0  0
  186.6680  178.3150  142.3980 C   0  0  2  0  0  3  0  0  0  0  0  0
  187.7110  178.6640  140.0620 C   0  0  2  0  0  3  0  0  0  0  0  0
  186.4270  178.4010  140.8890 C   0  0  0  0  0  2  0  0  0  0  0  0
  187.9410  177.5380  142.7170 C   0  0  0  0  0  0  0  0  0  0  0  0
  189.2000  177.9530  141.9930 C   0  0  2  0  0  3  0  0  0  0  0  0
  184.1550  178.5970  142.4900 C   0  0  0  0  0  1  0  0  0  0  0  0
  185.4370  178.4420  144.6310 C   0  0  0  0  0  1  0  0  0  0  0  0
  185.3780  178.0170  143.1750 C   0  0  0  0  0  3  0  0  0  0  0  0
  190.2540  178.4470  142.9740 C   0  0  0  0  0  2  0  0  0  0  0  0
  191.5020  177.5830  142.8740 C   0  0  1  0  0  3  0  0  0  0  0  0
  191.7600  176.7180  144.0660 C   0  0  2  0  0  3  0  0  0  0  0  0
  191.1300  176.2280  142.9060 O   0  0  0  0  0  0  0  0  0  0  0  0
  190.8120  176.8840  145.0780 O   0  0  0  0  0  0  0  0  0  0  0  0
  191.2040  175.9290  147.2200 C   0  0  0  0  0  1  0  0  0  0  0  0
  191.5630  177.0210  146.2360 C   0  0  0  0  0  2  0  0  0  0  0  0
  182.5230  180.1740  139.5960 C   0  0  0  0  0  2  0  0  0  0  0  0
  180.6190  181.6210  139.1130 N   0  0  0  0  0  1  0  0  0  0  0  0
  181.0250  180.3980  139.7880 C   0  0  0  0  0  2  0  0  0  0  0  0
  2 19  1  0  0  0  0
  3 18  1  0  0  0  0
  3 21  1  0  0  0  0
  4 10  1  0  0  0  0
  5  9  1  0  0  0  0
  5  4  2  0  0  0  0
  6 16  1  0  0  0  0
  7  6  1  0  0  0  0
  9  7  2  0  0  0  0
 10  6  2  0  0  0  0
 10 21  1  0  0  0  0
 11 22  1  0  0  0  0
 11 53  1  1  0  0  0
 13 11  1  0  0  0  0
 14 12  1  0  0  0  0
 16 24  1  0  0  0  0
 17 18  1  0  0  0  0
 17  2  1  0  0  0  0
 19 34  1  0  0  0  0
 20 12  1  0  0  0  0
 20  1  1  0  0  0  0
 21  8  1  1  0  0  0
 22  1  1  0  0  0  0
 23 15  1  6  0  0  0
 23 19  1  0  0  0  0
 23 25  1  0  0  0  0
 24 26  1  6  0  0  0
 24 14  1  0  0  0  0
 25 13  1  6  0  0  0
 25 11  1  0  0  0  0
 27 30  1  0  0  0  0
 28 26  2  0  0  0  0
 29 27  2  0  0  0  0
 29 28  1  0  0  0  0
 30 26  1  0  0  0  0
 31 33  1  0  0  0  0
 31 27  1  0  0  0  0
 31 32  1  0  0  0  0
 33 32  1  0  0  0  0
 34 35  1  0  0  0  0
 37 42  1  0  0  0  0
 38 41  1  0  0  0  0
 38 45  1  1  0  0  0
 39 35  1  1  0  0  0
 39 40  1  0  0  0  0
 39 37  1  0  0  0  0
 40 38  1  0  0  0  0
 41 36  2  0  0  0  0
 42 41  1  0  0  0  0
 42 46  1  1  0  0  0
 43 45  1  0  0  0  0
 45 44  1  0  0  0  0
 47 49  1  0  0  0  0
 47 46  1  1  0  0  0
 47 48  1  0  0  0  0
 48 50  1  1  0  0  0
 49 48  1  0  0  0  0
 50 52  1  0  0  0  0
 52 51  1  0  0  0  0
 53 55  1  0  0  0  0
 54 55  1  0  0  0  0
M  END
>  <MODEL>
1

>  <REMARK>
 VINA RESULT:      -5.1      0.000      0.000
  Name = 
  12 active torsions:
  status: ('A' for Active; 'I' for Inactive)
    1  A    between atoms: C_3  and  C_21
    2  A    between atoms: C_6  and  O_25
    3  A    between atoms: C_8  and  C_20
    4  A    between atoms: C_8  and  C_22
    5  A    between atoms: C_10  and  C_32
    6  A    between atoms: C_12  and  C_50
    7  A    between atoms: C_13  and  C_52
    8  A    between atoms: C_21  and  C_53
    9  A    between atoms: C_22  and  N_43
   10  A    between atoms: O_25  and  C_38
   11  A    between atoms: C_27  and  C_55
   12  A    between atoms: C_41  and  C_55
                            x       y       z     vdW  Elec       q    Type
                         _______ _______ _______ _____ _____    ______ ____

>  <TORSDO>
F 12

$$$$
