=
 OpenBabel10262419293D

 31 36  0  0  1  0  0  0  0  0999 V2000
  184.9690  178.2550  143.8900 C   0  0  0  0  0  0  0  0  0  0  0  0
  188.7630  177.7610  143.6980 C   0  0  0  0  0  0  0  0  0  0  0  0
  189.2110  177.4730  145.0180 C   0  0  0  0  0  0  0  0  0  0  0  0
  188.8130  177.1570  147.4050 C   0  0  0  0  0  0  0  0  0  0  0  0
  187.3400  178.0810  143.3440 C   0  0  0  0  0  0  0  0  0  0  0  0
  184.7130  178.8220  142.6410 C   0  0  0  0  0  3  0  0  0  0  0  0
  188.3410  177.4380  146.1210 C   0  0  0  0  0  3  0  0  0  0  0  0
  189.3500  178.0280  141.2300 C   0  0  1  0  0  3  0  0  0  0  0  0
  183.9570  178.0680  144.7690 F   0  0  0  0  0  0  0  0  0  0  0  0
  191.4830  177.2690  144.1880 C   0  0  0  0  0  3  0  0  0  0  0  0
  187.9310  177.1250  148.4770 O   0  0  0  0  0  1  0  0  0  0  0  0
  188.1100  178.7900  141.1250 N   0  0  0  0  0  2  0  0  0  0  0  0
  189.7360  177.7990  142.6650 C   0  0  0  0  0  0  0  0  0  0  0  0
  186.2730  177.8920  144.2380 C   0  0  0  0  0  3  0  0  0  0  0  0
  190.1700  176.9080  147.6120 C   0  0  0  0  0  3  0  0  0  0  0  0
  187.0590  178.6260  142.0750 C   0  0  0  0  0  0  0  0  0  0  0  0
  185.7580  179.0080  141.7350 C   0  0  0  0  0  3  0  0  0  0  0  0
  191.0430  177.5470  142.9380 N   0  0  0  0  0  0  0  0  0  0  0  0
  190.5860  177.2250  145.2490 C   0  0  0  0  0  0  0  0  0  0  0  0
  191.0560  176.9440  146.5350 C   0  0  0  0  0  3  0  0  0  0  0  0
  189.1980  176.6860  140.5250 C   0  0  0  0  0  2  0  0  0  0  0  0
  187.4030  177.4320  135.6460 C   0  0  2  0  0  3  0  0  0  0  0  0
  187.3940  177.5730  138.1410 C   0  0  0  0  0  3  0  0  0  0  0  0
  190.8080  176.7510  137.2390 C   0  0  0  0  0  3  0  0  0  0  0  0
  190.8090  176.5440  138.6190 C   0  0  0  0  0  3  0  0  0  0  0  0
  186.8120  178.2390  134.5950 N   0  0  0  0  0  1  0  0  0  0  0  0
  189.5830  176.8000  139.1250 N   0  0  0  0  0  0  0  0  0  0  0  0
  186.7520  177.7570  136.9790 C   0  0  0  0  0  3  0  0  0  0  0  0
  189.5100  177.1180  136.9360 C   0  0  0  0  0  0  0  0  0  0  0  0
  188.7980  177.1480  138.0970 C   0  0  0  0  0  0  0  0  0  0  0  0
  188.9380  177.5950  135.6380 C   0  0  0  0  0  2  0  0  0  0  0  0
  1 14  1  0  0  0  0
  1  9  1  0  0  0  0
  2  3  1  0  0  0  0
  3 19  2  0  0  0  0
  3  7  1  0  0  0  0
  4 15  1  0  0  0  0
  4 11  1  0  0  0  0
  5  2  1  0  0  0  0
  5 14  2  0  0  0  0
  6  1  2  0  0  0  0
  7  4  2  0  0  0  0
  8 21  1  1  0  0  0
  8 13  1  0  0  0  0
 10 19  1  0  0  0  0
 12  8  1  0  0  0  0
 12 16  1  0  0  0  0
 13 18  1  0  0  0  0
 13  2  2  0  0  0  0
 16  5  1  0  0  0  0
 17 16  2  0  0  0  0
 17  6  1  0  0  0  0
 18 10  2  0  0  0  0
 19 20  1  0  0  0  0
 20 15  2  0  0  0  0
 22 26  1  6  0  0  0
 22 28  1  0  0  0  0
 24 25  2  0  0  0  0
 25 27  1  0  0  0  0
 27 21  1  0  0  0  0
 28 23  2  0  0  0  0
 29 24  1  0  0  0  0
 29 30  2  0  0  0  0
 30 23  1  0  0  0  0
 30 27  1  0  0  0  0
 31 22  1  0  0  0  0
 31 29  1  0  0  0  0
M  END
>  <MODEL>
1

>  <REMARK>
 VINA RESULT:     -10.5      0.000      0.000
  Name = 
  2 active torsions:
  status: ('A' for Active; 'I' for Inactive)
    1  A    between atoms: N_9  and  C_23
    2  A    between atoms: C_15  and  C_23
                            x       y       z     vdW  Elec       q    Type
                         _______ _______ _______ _____ _____    ______ ____

>  <TORSDO>
F 2

$$$$
=
 OpenBabel10262419293D

 31 36  0  0  1  0  0  0  0  0999 V2000
  190.6600  177.1670  147.1670 C   0  0  0  0  0  0  0  0  0  0  0  0
  188.4230  177.4060  144.0670 C   0  0  0  0  0  0  0  0  0  0  0  0
  187.1750  177.9410  144.4950 C   0  0  0  0  0  0  0  0  0  0  0  0
  185.6710  178.7730  146.2280 C   0  0  0  0  0  0  0  0  0  0  0  0
  189.5660  177.0950  144.9890 C   0  0  0  0  0  0  0  0  0  0  0  0
  191.6940  176.3640  146.6860 C   0  0  0  0  0  3  0  0  0  0  0  0
  186.9090  178.2540  145.8390 C   0  0  0  0  0  3  0  0  0  0  0  0
  189.8720  176.5940  142.1310 C   0  0  1  0  0  3  0  0  0  0  0  0
  190.6720  177.5890  148.4540 F   0  0  0  0  0  0  0  0  0  0  0  0
  186.3630  177.8440  142.2100 C   0  0  0  0  0  3  0  0  0  0  0  0
  185.4360  179.0770  147.5620 O   0  0  0  0  0  1  0  0  0  0  0  0
  190.6530  175.8950  143.1460 N   0  0  0  0  0  2  0  0  0  0  0  0
  188.5700  177.0990  142.6890 C   0  0  0  0  0  0  0  0  0  0  0  0
  189.6030  177.5250  146.3260 C   0  0  0  0  0  3  0  0  0  0  0  0
  184.6730  178.9870  145.2780 C   0  0  0  0  0  3  0  0  0  0  0  0
  190.6340  176.3110  144.5100 C   0  0  0  0  0  0  0  0  0  0  0  0
  191.6810  175.9360  145.3580 C   0  0  0  0  0  3  0  0  0  0  0  0
  187.5540  177.3320  141.8160 N   0  0  0  0  0  0  0  0  0  0  0  0
  186.1470  178.1580  143.5460 C   0  0  0  0  0  0  0  0  0  0  0  0
  184.9100  178.6780  143.9380 C   0  0  0  0  0  3  0  0  0  0  0  0
  190.6720  177.7630  141.5720 C   0  0  0  0  0  2  0  0  0  0  0  0
  190.2370  175.6590  136.7790 C   0  0  2  0  0  3  0  0  0  0  0  0
  189.4880  176.8870  138.8230 C   0  0  0  0  0  3  0  0  0  0  0  0
  193.1090  176.8510  138.9990 C   0  0  0  0  0  3  0  0  0  0  0  0
  192.7560  177.2930  140.2740 C   0  0  0  0  0  3  0  0  0  0  0  0
  189.8260  175.6860  135.3880 N   0  0  0  0  0  1  0  0  0  0  0  0
  191.4120  177.3540  140.3860 N   0  0  0  0  0  0  0  0  0  0  0  0
  189.1820  176.3250  137.6460 C   0  0  0  0  0  3  0  0  0  0  0  0
  191.9060  176.6220  138.3560 C   0  0  0  0  0  0  0  0  0  0  0  0
  190.9010  176.9450  139.2170 C   0  0  0  0  0  0  0  0  0  0  0  0
  191.6480  176.2680  136.9250 C   0  0  0  0  0  2  0  0  0  0  0  0
  1  9  1  0  0  0  0
  2  3  1  0  0  0  0
  2  5  1  0  0  0  0
  3  7  1  0  0  0  0
  4 11  1  0  0  0  0
  5 14  1  0  0  0  0
  6  1  1  0  0  0  0
  7  4  2  0  0  0  0
  8 21  1  1  0  0  0
  8 13  1  0  0  0  0
  8 12  1  0  0  0  0
 10 19  1  0  0  0  0
 12 16  1  0  0  0  0
 13  2  2  0  0  0  0
 14  1  2  0  0  0  0
 15  4  1  0  0  0  0
 16  5  2  0  0  0  0
 16 17  1  0  0  0  0
 17  6  2  0  0  0  0
 18 10  2  0  0  0  0
 18 13  1  0  0  0  0
 19 20  1  0  0  0  0
 19  3  2  0  0  0  0
 20 15  2  0  0  0  0
 22 26  1  6  0  0  0
 22 31  1  0  0  0  0
 22 28  1  0  0  0  0
 23 30  1  0  0  0  0
 24 25  2  0  0  0  0
 25 27  1  0  0  0  0
 27 21  1  0  0  0  0
 28 23  2  0  0  0  0
 29 24  1  0  0  0  0
 29 30  2  0  0  0  0
 30 27  1  0  0  0  0
 31 29  1  0  0  0  0
M  END
>  <MODEL>
2

>  <REMARK>
 VINA RESULT:     -10.5      2.202      4.339
  Name = 
  2 active torsions:
  status: ('A' for Active; 'I' for Inactive)
    1  A    between atoms: N_9  and  C_23
    2  A    between atoms: C_15  and  C_23
                            x       y       z     vdW  Elec       q    Type
                         _______ _______ _______ _____ _____    ______ ____

>  <TORSDO>
F 2

$$$$
=
 OpenBabel10262419293D

 31 36  0  0  1  0  0  0  0  0999 V2000
  190.7690  177.0760  146.5730 C   0  0  0  0  0  0  0  0  0  0  0  0
  188.1240  177.4560  143.8290 C   0  0  0  0  0  0  0  0  0  0  0  0
  186.9560  177.9840  144.4490 C   0  0  0  0  0  0  0  0  0  0  0  0
  185.7210  178.7590  146.4070 C   0  0  0  0  0  0  0  0  0  0  0  0
  189.3800  177.1000  144.5690 C   0  0  0  0  0  0  0  0  0  0  0  0
  191.7150  176.2840  145.9210 C   0  0  0  0  0  3  0  0  0  0  0  0
  186.8840  178.2460  145.8280 C   0  0  0  0  0  3  0  0  0  0  0  0
  189.2750  176.7100  141.6790 C   0  0  1  0  0  3  0  0  0  0  0  0
  190.9680  177.4460  147.8610 F   0  0  0  0  0  0  0  0  0  0  0  0
  185.8300  177.9850  142.2990 C   0  0  0  0  0  3  0  0  0  0  0  0
  185.6790  179.0120  147.7710 O   0  0  0  0  0  1  0  0  0  0  0  0
  190.1810  175.9650  142.5470 N   0  0  0  0  0  2  0  0  0  0  0  0
  188.0720  177.2030  142.4330 C   0  0  0  0  0  0  0  0  0  0  0  0
  189.6100  177.4760  145.9030 C   0  0  0  0  0  3  0  0  0  0  0  0
  184.6030  179.0190  145.6150 C   0  0  0  0  0  3  0  0  0  0  0  0
  190.3600  176.3260  143.9150 C   0  0  0  0  0  0  0  0  0  0  0  0
  191.5090  175.9090  144.5920 C   0  0  0  0  0  3  0  0  0  0  0  0
  186.9470  177.4790  141.7220 N   0  0  0  0  0  0  0  0  0  0  0  0
  185.8080  178.2470  143.6630 C   0  0  0  0  0  0  0  0  0  0  0  0
  184.6450  178.7610  144.2440 C   0  0  0  0  0  3  0  0  0  0  0  0
  190.0060  177.8940  141.0580 C   0  0  0  0  0  2  0  0  0  0  0  0
  191.6440  176.0480  136.4220 C   0  0  2  0  0  3  0  0  0  0  0  0
  191.2950  176.0520  138.8970 C   0  0  0  0  0  3  0  0  0  0  0  0
  188.9980  178.5400  137.6000 C   0  0  0  0  0  3  0  0  0  0  0  0
  188.9550  178.7850  138.9730 C   0  0  0  0  0  3  0  0  0  0  0  0
  191.8160  174.9960  135.4370 N   0  0  0  0  0  1  0  0  0  0  0  0
  189.7800  177.9350  139.6200 N   0  0  0  0  0  0  0  0  0  0  0  0
  191.8600  175.4920  137.8200 C   0  0  0  0  0  3  0  0  0  0  0  0
  189.9150  177.5150  137.4510 C   0  0  0  0  0  0  0  0  0  0  0  0
  190.3610  177.1660  138.6900 C   0  0  0  0  0  0  0  0  0  0  0  0
  190.2770  176.7390  136.2240 C   0  0  0  0  0  2  0  0  0  0  0  0
  1  9  1  0  0  0  0
  2  3  1  0  0  0  0
  2  5  1  0  0  0  0
  3  7  1  0  0  0  0
  4 11  1  0  0  0  0
  5 14  1  0  0  0  0
  6  1  1  0  0  0  0
  7  4  2  0  0  0  0
  8 21  1  1  0  0  0
  8 13  1  0  0  0  0
  8 12  1  0  0  0  0
 10 19  1  0  0  0  0
 12 16  1  0  0  0  0
 13  2  2  0  0  0  0
 14  1  2  0  0  0  0
 15  4  1  0  0  0  0
 16  5  2  0  0  0  0
 16 17  1  0  0  0  0
 17  6  2  0  0  0  0
 18 10  2  0  0  0  0
 18 13  1  0  0  0  0
 19 20  1  0  0  0  0
 19  3  2  0  0  0  0
 20 15  2  0  0  0  0
 22 26  1  6  0  0  0
 22 28  1  0  0  0  0
 24 25  2  0  0  0  0
 25 27  1  0  0  0  0
 27 21  1  0  0  0  0
 28 23  2  0  0  0  0
 29 24  1  0  0  0  0
 29 30  2  0  0  0  0
 30 23  1  0  0  0  0
 30 27  1  0  0  0  0
 31 22  1  0  0  0  0
 31 29  1  0  0  0  0
M  END
>  <MODEL>
3

>  <REMARK>
 VINA RESULT:     -10.4      2.256      4.441
  Name = 
  2 active torsions:
  status: ('A' for Active; 'I' for Inactive)
    1  A    between atoms: N_9  and  C_23
    2  A    between atoms: C_15  and  C_23
                            x       y       z     vdW  Elec       q    Type
                         _______ _______ _______ _____ _____    ______ ____

>  <TORSDO>
F 2

$$$$
=
 OpenBabel10262419293D

 31 36  0  0  1  0  0  0  0  0999 V2000
  191.1630  176.7790  146.8140 C   0  0  0  0  0  0  0  0  0  0  0  0
  188.4340  177.2620  144.1690 C   0  0  0  0  0  0  0  0  0  0  0  0
  187.3090  177.8300  144.8330 C   0  0  0  0  0  0  0  0  0  0  0  0
  186.1760  178.6410  146.8360 C   0  0  0  0  0  0  0  0  0  0  0  0
  189.7030  176.8590  144.8620 C   0  0  0  0  0  0  0  0  0  0  0  0
  192.0550  175.9560  146.1250 C   0  0  0  0  0  3  0  0  0  0  0  0
  187.2980  178.0890  146.2140 C   0  0  0  0  0  3  0  0  0  0  0  0
  189.4790  176.4830  141.9770 C   0  0  1  0  0  3  0  0  0  0  0  0
  191.4220  177.1370  148.0940 F   0  0  0  0  0  0  0  0  0  0  0  0
  186.1070  177.8780  142.7250 C   0  0  0  0  0  3  0  0  0  0  0  0
  186.1930  178.8900  148.2020 O   0  0  0  0  0  1  0  0  0  0  0  0
  190.3890  175.7030  142.8090 N   0  0  0  0  0  2  0  0  0  0  0  0
  188.3230  177.0170  142.7760 C   0  0  0  0  0  0  0  0  0  0  0  0
  189.9950  177.2220  146.1870 C   0  0  0  0  0  3  0  0  0  0  0  0
  185.0390  178.9430  146.0870 C   0  0  0  0  0  3  0  0  0  0  0  0
  190.6300  176.0540  144.1700 C   0  0  0  0  0  0  0  0  0  0  0  0
  191.7890  175.5940  144.8040 C   0  0  0  0  0  3  0  0  0  0  0  0
  187.1830  177.3350  142.1070 N   0  0  0  0  0  0  0  0  0  0  0  0
  186.1430  178.1360  144.0900 C   0  0  0  0  0  0  0  0  0  0  0  0
  185.0220  178.6890  144.7150 C   0  0  0  0  0  3  0  0  0  0  0  0
  190.2280  177.6430  141.3320 C   0  0  0  0  0  2  0  0  0  0  0  0
  187.9010  177.5530  136.6240 C   0  0  2  0  0  3  0  0  0  0  0  0
  188.2400  178.2370  139.0040 C   0  0  0  0  0  3  0  0  0  0  0  0
  191.3840  176.7530  137.9760 C   0  0  0  0  0  3  0  0  0  0  0  0
  191.5440  176.8560  139.3590 C   0  0  0  0  0  3  0  0  0  0  0  0
  187.2750  178.1870  135.4790 N   0  0  0  0  0  1  0  0  0  0  0  0
  190.4350  177.3900  139.9130 N   0  0  0  0  0  0  0  0  0  0  0  0
  187.4760  178.2520  137.9040 C   0  0  0  0  0  3  0  0  0  0  0  0
  190.1090  177.2280  137.7300 C   0  0  0  0  0  0  0  0  0  0  0  0
  189.5660  177.6140  138.9180 C   0  0  0  0  0  0  0  0  0  0  0  0
  189.4310  177.4870  136.4210 C   0  0  0  0  0  2  0  0  0  0  0  0
  1  9  1  0  0  0  0
  2  3  1  0  0  0  0
  2  5  1  0  0  0  0
  3  7  1  0  0  0  0
  4 11  1  0  0  0  0
  5 14  2  0  0  0  0
  6  1  2  0  0  0  0
  7  4  2  0  0  0  0
  8 21  1  1  0  0  0
  8 13  1  0  0  0  0
  8 12  1  0  0  0  0
 10 19  1  0  0  0  0
 12 16  1  0  0  0  0
 13  2  2  0  0  0  0
 14  1  1  0  0  0  0
 15  4  1  0  0  0  0
 16 17  2  0  0  0  0
 16  5  1  0  0  0  0
 17  6  1  0  0  0  0
 18 10  2  0  0  0  0
 18 13  1  0  0  0  0
 19 20  1  0  0  0  0
 19  3  2  0  0  0  0
 20 15  2  0  0  0  0
 22 26  1  6  0  0  0
 22 28  1  0  0  0  0
 24 25  2  0  0  0  0
 25 27  1  0  0  0  0
 27 21  1  0  0  0  0
 28 23  2  0  0  0  0
 29 24  1  0  0  0  0
 29 30  2  0  0  0  0
 30 23  1  0  0  0  0
 30 27  1  0  0  0  0
 31 22  1  0  0  0  0
 31 29  1  0  0  0  0
M  END
>  <MODEL>
4

>  <REMARK>
 VINA RESULT:     -10.4      2.012      4.034
  Name = 
  2 active torsions:
  status: ('A' for Active; 'I' for Inactive)
    1  A    between atoms: N_9  and  C_23
    2  A    between atoms: C_15  and  C_23
                            x       y       z     vdW  Elec       q    Type
                         _______ _______ _______ _____ _____    ______ ____

>  <TORSDO>
F 2

$$$$
=
 OpenBabel10262419293D

 31 36  0  0  1  0  0  0  0  0999 V2000
  185.0650  178.2530  143.5990 C   0  0  0  0  0  0  0  0  0  0  0  0
  188.8340  177.7360  143.1590 C   0  0  0  0  0  0  0  0  0  0  0  0
  189.3660  177.4440  144.4480 C   0  0  0  0  0  0  0  0  0  0  0  0
  189.1240  177.1290  146.8560 C   0  0  0  0  0  0  0  0  0  0  0  0
  187.3930  178.0650  142.9000 C   0  0  0  0  0  0  0  0  0  0  0  0
  184.7310  178.8230  142.3700 C   0  0  0  0  0  3  0  0  0  0  0  0
  188.5700  177.4130  145.6050 C   0  0  0  0  0  3  0  0  0  0  0  0
  189.2610  178.0010  140.6590 C   0  0  1  0  0  3  0  0  0  0  0  0
  184.1110  178.0710  144.5430 F   0  0  0  0  0  0  0  0  0  0  0  0
  191.5780  177.2270  143.4710 C   0  0  0  0  0  3  0  0  0  0  0  0
  188.3140  177.1010  147.9820 O   0  0  0  0  0  1  0  0  0  0  0  0
  188.0210  178.7710  140.6350 N   0  0  0  0  0  2  0  0  0  0  0  0
  189.7380  177.7680  142.0650 C   0  0  0  0  0  0  0  0  0  0  0  0
  186.3860  177.8820  143.8620 C   0  0  0  0  0  3  0  0  0  0  0  0
  190.4890  176.8720  146.9730 C   0  0  0  0  0  3  0  0  0  0  0  0
  187.0330  178.6130  141.6520 C   0  0  0  0  0  0  0  0  0  0  0  0
  185.7150  179.0030  141.3980 C   0  0  0  0  0  3  0  0  0  0  0  0
  191.0590  177.5090  142.2520 N   0  0  0  0  0  0  0  0  0  0  0  0
  190.7520  177.1870  144.5880 C   0  0  0  0  0  0  0  0  0  0  0  0
  191.3040  176.9030  145.8400 C   0  0  0  0  0  3  0  0  0  0  0  0
  189.0550  176.6610  139.9640 C   0  0  0  0  0  2  0  0  0  0  0  0
  192.5710  176.0030  136.1190 C   0  0  2  0  0  3  0  0  0  0  0  0
  191.5020  175.6090  138.3430 C   0  0  0  0  0  3  0  0  0  0  0  0
  188.9970  177.3290  136.3670 C   0  0  0  0  0  3  0  0  0  0  0  0
  188.4510  177.3870  137.6500 C   0  0  0  0  0  3  0  0  0  0  0  0
  193.3930  175.1870  135.2440 N   0  0  0  0  0  1  0  0  0  0  0  0
  189.2810  176.7890  138.5320 N   0  0  0  0  0  0  0  0  0  0  0  0
  192.5290  175.3940  137.5110 C   0  0  0  0  0  3  0  0  0  0  0  0
  190.2120  176.6880  136.5260 C   0  0  0  0  0  0  0  0  0  0  0  0
  190.3500  176.3670  137.8420 C   0  0  0  0  0  0  0  0  0  0  0  0
  191.1800  176.2210  135.4850 C   0  0  0  0  0  2  0  0  0  0  0  0
  1 14  1  0  0  0  0
  1  9  1  0  0  0  0
  2  3  1  0  0  0  0
  3 19  2  0  0  0  0
  3  7  1  0  0  0  0
  4 15  1  0  0  0  0
  4 11  1  0  0  0  0
  5  2  1  0  0  0  0
  5 14  2  0  0  0  0
  6  1  2  0  0  0  0
  7  4  2  0  0  0  0
  8 21  1  1  0  0  0
  8 13  1  0  0  0  0
 10 19  1  0  0  0  0
 12  8  1  0  0  0  0
 12 16  1  0  0  0  0
 13 18  1  0  0  0  0
 13  2  2  0  0  0  0
 16  5  1  0  0  0  0
 17 16  2  0  0  0  0
 17  6  1  0  0  0  0
 18 10  2  0  0  0  0
 19 20  1  0  0  0  0
 20 15  2  0  0  0  0
 22 26  1  6  0  0  0
 22 28  1  0  0  0  0
 24 29  1  0  0  0  0
 24 25  2  0  0  0  0
 25 27  1  0  0  0  0
 27 21  1  0  0  0  0
 28 23  2  0  0  0  0
 29 30  2  0  0  0  0
 30 23  1  0  0  0  0
 30 27  1  0  0  0  0
 31 22  1  0  0  0  0
 31 29  1  0  0  0  0
M  END
>  <MODEL>
5

>  <REMARK>
 VINA RESULT:     -10.3      1.348      2.351
  Name = 
  2 active torsions:
  status: ('A' for Active; 'I' for Inactive)
    1  A    between atoms: N_9  and  C_23
    2  A    between atoms: C_15  and  C_23
                            x       y       z     vdW  Elec       q    Type
                         _______ _______ _______ _____ _____    ______ ____

>  <TORSDO>
F 2

$$$$
=
 OpenBabel10262419293D

 31 36  0  0  1  0  0  0  0  0999 V2000
  191.2640  176.1530  137.2160 C   0  0  0  0  0  0  0  0  0  0  0  0
  188.9000  177.6240  139.8470 C   0  0  0  0  0  0  0  0  0  0  0  0
  187.6530  177.8570  139.2010 C   0  0  0  0  0  0  0  0  0  0  0  0
  186.2130  177.8370  137.2300 C   0  0  0  0  0  0  0  0  0  0  0  0
  190.1240  177.1060  139.1500 C   0  0  0  0  0  0  0  0  0  0  0  0
  192.4910  176.2660  137.8700 C   0  0  0  0  0  3  0  0  0  0  0  0
  187.4480  177.5930  137.8360 C   0  0  0  0  0  3  0  0  0  0  0  0
  190.2550  177.6840  142.0070 C   0  0  1  0  0  3  0  0  0  0  0  0
  191.2090  175.6470  135.9610 F   0  0  0  0  0  0  0  0  0  0  0  0
  186.7370  178.6810  141.2920 C   0  0  0  0  0  3  0  0  0  0  0  0
  186.0370  177.5640  135.8810 O   0  0  0  0  0  1  0  0  0  0  0  0
  191.4330  177.6770  141.1460 N   0  0  0  0  0  2  0  0  0  0  0  0
  189.0010  177.9560  141.2240 C   0  0  0  0  0  0  0  0  0  0  0  0
  190.0920  176.5740  137.8500 C   0  0  0  0  0  3  0  0  0  0  0  0
  185.1570  178.3540  137.9800 C   0  0  0  0  0  3  0  0  0  0  0  0
  191.3680  177.1840  139.8090 C   0  0  0  0  0  0  0  0  0  0  0  0
  192.5420  176.7820  139.1660 C   0  0  0  0  0  3  0  0  0  0  0  0
  187.9300  178.4580  141.8940 N   0  0  0  0  0  0  0  0  0  0  0  0
  186.5710  178.3880  139.9440 C   0  0  0  0  0  0  0  0  0  0  0  0
  185.3360  178.6310  139.3360 C   0  0  0  0  0  3  0  0  0  0  0  0
  190.1260  176.3460  142.7240 C   0  0  0  0  0  2  0  0  0  0  0  0
  188.5900  178.0470  147.4500 C   0  0  2  0  0  3  0  0  0  0  0  0
  188.3140  177.2010  145.1140 C   0  0  0  0  0  3  0  0  0  0  0  0
  191.7540  176.4720  145.9990 C   0  0  0  0  0  3  0  0  0  0  0  0
  191.7460  176.2350  144.6230 C   0  0  0  0  0  3  0  0  0  0  0  0
  187.7660  177.9820  148.6420 N   0  0  0  0  0  1  0  0  0  0  0  0
  190.5160  176.4760  144.1200 N   0  0  0  0  0  0  0  0  0  0  0  0
  187.7600  177.7070  146.2240 C   0  0  0  0  0  3  0  0  0  0  0  0
  190.4710  176.8950  146.2940 C   0  0  0  0  0  0  0  0  0  0  0  0
  189.7460  176.8770  145.1400 C   0  0  0  0  0  0  0  0  0  0  0  0
  189.8440  177.1640  147.6260 C   0  0  0  0  0  2  0  0  0  0  0  0
  1 14  2  0  0  0  0
  1  6  1  0  0  0  0
  2 13  1  0  0  0  0
  3  2  2  0  0  0  0
  3 19  1  0  0  0  0
  4  7  2  0  0  0  0
  4 15  1  0  0  0  0
  5 16  2  0  0  0  0
  5  2  1  0  0  0  0
  6 17  2  0  0  0  0
  7  3  1  0  0  0  0
  8 21  1  6  0  0  0
  9  1  1  0  0  0  0
 10 18  1  0  0  0  0
 11  4  1  0  0  0  0
 12  8  1  0  0  0  0
 13 18  2  0  0  0  0
 13  8  1  0  0  0  0
 14  5  1  0  0  0  0
 15 20  2  0  0  0  0
 16 12  1  0  0  0  0
 17 16  1  0  0  0  0
 19 10  2  0  0  0  0
 20 19  1  0  0  0  0
 21 27  1  0  0  0  0
 22 31  1  0  0  0  0
 22 26  1  1  0  0  0
 23 30  1  0  0  0  0
 23 28  2  0  0  0  0
 24 29  1  0  0  0  0
 25 24  2  0  0  0  0
 27 25  1  0  0  0  0
 27 30  1  0  0  0  0
 28 22  1  0  0  0  0
 29 31  1  0  0  0  0
 30 29  2  0  0  0  0
M  END
>  <MODEL>
6

>  <REMARK>
 VINA RESULT:     -10.1      3.678      8.221
  Name = 
  2 active torsions:
  status: ('A' for Active; 'I' for Inactive)
    1  A    between atoms: N_9  and  C_23
    2  A    between atoms: C_15  and  C_23
                            x       y       z     vdW  Elec       q    Type
                         _______ _______ _______ _____ _____    ______ ____

>  <TORSDO>
F 2

$$$$
=
 OpenBabel10262419293D

 31 36  0  0  1  0  0  0  0  0999 V2000
  187.1070  177.5040  146.5820 C   0  0  0  0  0  0  0  0  0  0  0  0
  187.1260  178.1080  142.8000 C   0  0  0  0  0  0  0  0  0  0  0  0
  188.3710  177.6230  142.3080 C   0  0  0  0  0  0  0  0  0  0  0  0
  190.5680  176.6130  142.6370 C   0  0  0  0  0  0  0  0  0  0  0  0
  186.7400  178.1160  144.2500 C   0  0  0  0  0  0  0  0  0  0  0  0
  186.0150  178.2820  146.9690 C   0  0  0  0  0  3  0  0  0  0  0  0
  189.3540  177.0750  143.1500 C   0  0  0  0  0  3  0  0  0  0  0  0
  184.8560  179.1450  142.2750 C   0  0  1  0  0  3  0  0  0  0  0  0
  187.8250  176.8340  147.5150 F   0  0  0  0  0  0  0  0  0  0  0  0
  187.7140  178.2530  140.0580 C   0  0  0  0  0  3  0  0  0  0  0  0
  191.5210  176.0730  143.4900 O   0  0  0  0  0  1  0  0  0  0  0  0
  184.8320  179.5470  143.6770 N   0  0  0  0  0  2  0  0  0  0  0  0
  186.2200  178.6680  141.8610 C   0  0  0  0  0  0  0  0  0  0  0  0
  187.4680  177.4260  145.2350 C   0  0  0  0  0  3  0  0  0  0  0  0
  190.8240  176.6910  141.2680 C   0  0  0  0  0  3  0  0  0  0  0  0
  185.6210  178.8710  144.6540 C   0  0  0  0  0  0  0  0  0  0  0  0
  185.2730  178.9650  146.0040 C   0  0  0  0  0  3  0  0  0  0  0  0
  186.5350  178.7140  140.5400 N   0  0  0  0  0  0  0  0  0  0  0  0
  188.6520  177.7010  140.9220 C   0  0  0  0  0  0  0  0  0  0  0  0
  189.8670  177.2370  140.4120 C   0  0  0  0  0  3  0  0  0  0  0  0
  183.8370  178.0380  142.0340 C   0  0  0  0  0  2  0  0  0  0  0  0
  181.0790  179.8990  137.9700 C   0  0  2  0  0  3  0  0  0  0  0  0
  182.8380  178.5510  139.1240 C   0  0  0  0  0  3  0  0  0  0  0  0
  180.4940  179.4940  141.7240 C   0  0  0  0  0  3  0  0  0  0  0  0
  181.5690  178.9960  142.4620 C   0  0  0  0  0  3  0  0  0  0  0  0
  180.3660  179.7500  136.7150 N   0  0  0  0  0  1  0  0  0  0  0  0
  182.5570  178.6020  141.6300 N   0  0  0  0  0  0  0  0  0  0  0  0
  182.3050  179.0020  137.9810 C   0  0  0  0  0  3  0  0  0  0  0  0
  180.8980  179.4060  140.4040 C   0  0  0  0  0  0  0  0  0  0  0  0
  182.1430  178.8540  140.3810 C   0  0  0  0  0  0  0  0  0  0  0  0
  180.1160  179.6640  139.1550 C   0  0  0  0  0  2  0  0  0  0  0  0
  1  6  1  0  0  0  0
  1  9  1  0  0  0  0
  2  5  1  0  0  0  0
  3  2  1  0  0  0  0
  3  7  1  0  0  0  0
  4  7  2  0  0  0  0
  4 11  1  0  0  0  0
  5 16  2  0  0  0  0
  5 14  1  0  0  0  0
  8 21  1  1  0  0  0
  8 12  1  0  0  0  0
 10 18  2  0  0  0  0
 10 19  1  0  0  0  0
 12 16  1  0  0  0  0
 13  8  1  0  0  0  0
 13  2  2  0  0  0  0
 14  1  2  0  0  0  0
 15  4  1  0  0  0  0
 16 17  1  0  0  0  0
 17  6  2  0  0  0  0
 18 13  1  0  0  0  0
 19  3  2  0  0  0  0
 20 19  1  0  0  0  0
 20 15  2  0  0  0  0
 22 26  1  6  0  0  0
 22 28  1  0  0  0  0
 22 31  1  0  0  0  0
 23 30  1  0  0  0  0
 24 25  2  0  0  0  0
 27 21  1  0  0  0  0
 27 25  1  0  0  0  0
 28 23  2  0  0  0  0
 29 24  1  0  0  0  0
 30 29  2  0  0  0  0
 30 27  1  0  0  0  0
 31 29  1  0  0  0  0
M  END
>  <MODEL>
7

>  <REMARK>
 VINA RESULT:     -10.0      3.432      5.973
  Name = 
  2 active torsions:
  status: ('A' for Active; 'I' for Inactive)
    1  A    between atoms: N_9  and  C_23
    2  A    between atoms: C_15  and  C_23
                            x       y       z     vdW  Elec       q    Type
                         _______ _______ _______ _____ _____    ______ ____

>  <TORSDO>
F 2

$$$$
=
 OpenBabel10262419293D

 31 36  0  0  1  0  0  0  0  0999 V2000
  192.3280  176.2290  138.0090 C   0  0  0  0  0  0  0  0  0  0  0  0
  189.1420  177.5870  139.6440 C   0  0  0  0  0  0  0  0  0  0  0  0
  188.1370  177.6130  138.6360 C   0  0  0  0  0  0  0  0  0  0  0  0
  187.3800  177.2660  136.3420 C   0  0  0  0  0  0  0  0  0  0  0  0
  190.5640  177.1750  139.4020 C   0  0  0  0  0  0  0  0  0  0  0  0
  193.2790  176.5430  138.9800 C   0  0  0  0  0  3  0  0  0  0  0  0
  188.3870  177.2240  137.3090 C   0  0  0  0  0  3  0  0  0  0  0  0
  189.7560  177.9770  142.0880 C   0  0  1  0  0  3  0  0  0  0  0  0
  192.7100  175.6280  136.8570 F   0  0  0  0  0  0  0  0  0  0  0  0
  186.5490  178.4710  140.2590 C   0  0  0  0  0  3  0  0  0  0  0  0
  187.6530  176.8720  135.0390 O   0  0  0  0  0  1  0  0  0  0  0  0
  191.1360  178.0520  141.6210 N   0  0  0  0  0  2  0  0  0  0  0  0
  188.7830  178.0310  140.9440 C   0  0  0  0  0  0  0  0  0  0  0  0
  190.9840  176.5470  138.2170 C   0  0  0  0  0  3  0  0  0  0  0  0
  186.1000  177.7020  136.6840 C   0  0  0  0  0  3  0  0  0  0  0  0
  191.5320  177.4570  140.3870 C   0  0  0  0  0  0  0  0  0  0  0  0
  192.8800  177.1570  140.1690 C   0  0  0  0  0  3  0  0  0  0  0  0
  187.5150  178.4440  141.2070 N   0  0  0  0  0  0  0  0  0  0  0  0
  186.8330  178.0590  138.9620 C   0  0  0  0  0  0  0  0  0  0  0  0
  185.8270  178.1000  137.9930 C   0  0  0  0  0  3  0  0  0  0  0  0
  189.5430  176.6910  142.8760 C   0  0  0  0  0  2  0  0  0  0  0  0
  186.0100  178.5800  146.2720 C   0  0  2  0  0  3  0  0  0  0  0  0
  186.8240  177.5100  144.1660 C   0  0  0  0  0  3  0  0  0  0  0  0
  189.6040  177.3030  146.4830 C   0  0  0  0  0  3  0  0  0  0  0  0
  190.2020  176.9500  145.2730 C   0  0  0  0  0  3  0  0  0  0  0  0
  184.7640  178.5130  147.0130 N   0  0  0  0  0  1  0  0  0  0  0  0
  189.2890  176.9890  144.2790 N   0  0  0  0  0  0  0  0  0  0  0  0
  185.8110  178.0330  144.8680 C   0  0  0  0  0  3  0  0  0  0  0  0
  188.2890  177.5830  146.1620 C   0  0  0  0  0  0  0  0  0  0  0  0
  188.1280  177.3740  144.8250 C   0  0  0  0  0  0  0  0  0  0  0  0
  187.1350  177.8830  147.0670 C   0  0  0  0  0  2  0  0  0  0  0  0
  1 14  2  0  0  0  0
  1  6  1  0  0  0  0
  2 13  1  0  0  0  0
  3 19  1  0  0  0  0
  3  2  2  0  0  0  0
  4 15  1  0  0  0  0
  4  7  2  0  0  0  0
  5  2  1  0  0  0  0
  5 16  2  0  0  0  0
  6 17  2  0  0  0  0
  7  3  1  0  0  0  0
  8 21  1  6  0  0  0
  9  1  1  0  0  0  0
 10 18  1  0  0  0  0
 11  4  1  0  0  0  0
 12  8  1  0  0  0  0
 13 18  2  0  0  0  0
 13  8  1  0  0  0  0
 14  5  1  0  0  0  0
 15 20  2  0  0  0  0
 16 12  1  0  0  0  0
 17 16  1  0  0  0  0
 19 10  2  0  0  0  0
 20 19  1  0  0  0  0
 21 27  1  0  0  0  0
 22 26  1  1  0  0  0
 22 31  1  0  0  0  0
 23 30  1  0  0  0  0
 23 28  2  0  0  0  0
 25 24  2  0  0  0  0
 27 30  1  0  0  0  0
 27 25  1  0  0  0  0
 28 22  1  0  0  0  0
 29 24  1  0  0  0  0
 29 31  1  0  0  0  0
 30 29  2  0  0  0  0
M  END
>  <MODEL>
8

>  <REMARK>
 VINA RESULT:     -10.0      3.704      8.249
  Name = 
  2 active torsions:
  status: ('A' for Active; 'I' for Inactive)
    1  A    between atoms: N_9  and  C_23
    2  A    between atoms: C_15  and  C_23
                            x       y       z     vdW  Elec       q    Type
                         _______ _______ _______ _____ _____    ______ ____

>  <TORSDO>
F 2

$$$$
=
 OpenBabel10262419293D

 31 36  0  0  1  0  0  0  0  0999 V2000
  183.5830  177.4850  137.9160 C   0  0  0  0  0  0  0  0  0  0  0  0
  183.8370  178.5810  141.5770 C   0  0  0  0  0  0  0  0  0  0  0  0
  182.5100  178.6280  142.0900 C   0  0  0  0  0  0  0  0  0  0  0  0
  180.0940  178.4020  141.8310 C   0  0  0  0  0  0  0  0  0  0  0  0
  184.1770  178.2520  140.1530 C   0  0  0  0  0  0  0  0  0  0  0  0
  184.8690  177.7770  137.4630 C   0  0  0  0  0  3  0  0  0  0  0  0
  181.3840  178.3420  141.2990 C   0  0  0  0  0  3  0  0  0  0  0  0
  186.3350  178.8330  142.0300 C   0  0  1  0  0  3  0  0  0  0  0  0
  182.6610  176.9820  137.0610 F   0  0  0  0  0  0  0  0  0  0  0  0
  183.3820  179.3000  144.2530 C   0  0  0  0  0  3  0  0  0  0  0  0
  178.9990  178.1110  141.0290 O   0  0  0  0  0  1  0  0  0  0  0  0
  186.4730  179.0030  140.5870 N   0  0  0  0  0  2  0  0  0  0  0  0
  184.8970  178.9180  142.4600 C   0  0  0  0  0  0  0  0  0  0  0  0
  183.2400  177.7260  139.2490 C   0  0  0  0  0  3  0  0  0  0  0  0
  179.9040  178.7540  143.1670 C   0  0  0  0  0  3  0  0  0  0  0  0
  185.4820  178.5120  139.6870 C   0  0  0  0  0  0  0  0  0  0  0  0
  185.8180  178.2900  138.3480 C   0  0  0  0  0  3  0  0  0  0  0  0
  184.6400  179.2540  143.7520 N   0  0  0  0  0  0  0  0  0  0  0  0
  182.2970  178.9910  143.4420 C   0  0  0  0  0  0  0  0  0  0  0  0
  181.0050  179.0500  143.9720 C   0  0  0  0  0  3  0  0  0  0  0  0
  186.9120  177.4880  142.4530 C   0  0  0  0  0  2  0  0  0  0  0  0
  188.1650  178.2470  147.4960 C   0  0  2  0  0  3  0  0  0  0  0  0
  186.7690  177.4870  145.5680 C   0  0  0  0  0  3  0  0  0  0  0  0
  190.0820  178.0260  144.1990 C   0  0  0  0  0  3  0  0  0  0  0  0
  189.3080  177.8780  143.0480 C   0  0  0  0  0  3  0  0  0  0  0  0
  188.2820  177.8190  148.8780 N   0  0  0  0  0  1  0  0  0  0  0  0
  188.0150  177.6760  143.3840 N   0  0  0  0  0  0  0  0  0  0  0  0
  186.8890  177.6920  146.8860 C   0  0  0  0  0  3  0  0  0  0  0  0
  189.1840  177.9310  145.2460 C   0  0  0  0  0  0  0  0  0  0  0  0
  187.9460  177.7100  144.7210 C   0  0  0  0  0  0  0  0  0  0  0  0
  189.4470  177.8790  146.7190 C   0  0  0  0  0  2  0  0  0  0  0  0
  1 14  1  0  0  0  0
  2  3  2  0  0  0  0
  2 13  1  0  0  0  0
  3 19  1  0  0  0  0
  4 15  1  0  0  0  0
  5  2  1  0  0  0  0
  6  1  2  0  0  0  0
  6 17  1  0  0  0  0
  7  4  2  0  0  0  0
  7  3  1  0  0  0  0
  8 21  1  6  0  0  0
  8 13  1  0  0  0  0
  9  1  1  0  0  0  0
 11  4  1  0  0  0  0
 12  8  1  0  0  0  0
 13 18  2  0  0  0  0
 14  5  2  0  0  0  0
 15 20  2  0  0  0  0
 16  5  1  0  0  0  0
 16 12  1  0  0  0  0
 17 16  2  0  0  0  0
 18 10  1  0  0  0  0
 19 20  1  0  0  0  0
 19 10  2  0  0  0  0
 21 27  1  0  0  0  0
 22 26  1  1  0  0  0
 23 28  2  0  0  0  0
 24 29  1  0  0  0  0
 25 27  1  0  0  0  0
 25 24  2  0  0  0  0
 27 30  1  0  0  0  0
 28 22  1  0  0  0  0
 29 31  1  0  0  0  0
 30 29  2  0  0  0  0
 30 23  1  0  0  0  0
 31 22  1  0  0  0  0
M  END
>  <MODEL>
9

>  <REMARK>
 VINA RESULT:     -10.0      3.670      7.865
  Name = 
  2 active torsions:
  status: ('A' for Active; 'I' for Inactive)
    1  A    between atoms: N_9  and  C_23
    2  A    between atoms: C_15  and  C_23
                            x       y       z     vdW  Elec       q    Type
                         _______ _______ _______ _____ _____    ______ ____

>  <TORSDO>
F 2

$$$$
