=
 OpenBabel10262419243D

 31 34  0  0  1  0  0  0  0  0999 V2000
  187.4090  178.1110  140.5960 C   0  0  1  0  0  3  0  0  0  0  0  0
  186.0420  178.0270  141.3040 C   0  0  1  0  0  3  0  0  0  0  0  0
  186.1970  178.2670  142.8150 C   0  0  2  0  0  3  0  0  0  0  0  0
  186.8400  176.7610  144.7770 C   0  0  0  0  0  3  0  0  0  0  0  0
  186.7290  177.0090  143.4590 C   0  0  0  0  0  3  0  0  0  0  0  0
  183.6580  178.9560  142.6330 C   0  0  0  0  0  2  0  0  0  0  0  0
  186.3800  177.6240  145.9280 C   0  0  0  0  0  2  0  0  0  0  0  0
  185.1170  178.9210  140.7350 O   0  0  0  0  0  0  0  0  0  0  0  0
  186.1230  179.0840  145.5790 C   0  0  0  0  0  2  0  0  0  0  0  0
  183.8640  178.4940  141.1920 C   0  0  0  0  0  2  0  0  0  0  0  0
  184.9090  178.7640  143.4480 C   0  0  0  0  0  0  0  0  0  0  0  0
  184.9030  179.1870  144.7160 C   0  0  0  0  0  3  0  0  0  0  0  0
  187.7600  177.5010  137.1580 N   0  0  0  0  0  0  0  0  0  0  0  0
  188.8510  178.4310  137.3750 C   0  0  0  0  0  2  0  0  0  0  0  0
  187.0810  177.9210  135.9460 C   0  0  0  0  0  1  0  0  0  0  0  0
  186.8290  177.7100  138.2600 C   0  0  0  0  0  2  0  0  0  0  0  0
  187.4060  178.6490  139.2270 N   0  0  0  0  0  0  0  0  0  0  0  0
  188.7840  178.8370  138.8200 C   0  0  0  0  0  2  0  0  0  0  0  0
  188.7870  178.7540  141.6210 S   0  0  0  0  0  0  0  0  0  0  0  0
  189.8470  177.2640  141.4880 C   0  0  0  0  0  2  0  0  0  0  0  0
  190.2840  175.3350  142.6310 O   0  0  0  0  0  1  0  0  0  0  0  0
  190.1710  176.6760  142.7880 N   0  0  0  0  0  0  0  0  0  0  0  0
  191.4610  177.1760  143.2470 C   0  0  0  0  0  2  0  0  0  0  0  0
  191.2710  178.2090  144.3100 C   0  0  0  0  0  0  0  0  0  0  0  0
  192.0010  179.1870  144.3480 O   0  0  0  0  0  0  0  0  0  0  0  0
  190.1350  178.0750  145.2820 C   0  0  0  0  0  2  0  0  0  0  0  0
  190.3870  177.0540  146.3960 C   0  0  2  0  0  3  0  0  0  0  0  0
  189.6000  177.3800  147.6550 C   0  0  0  0  0  1  0  0  0  0  0  0
  191.8690  176.9020  146.7020 C   0  0  2  0  0  3  0  0  0  0  0  0
  192.1710  175.4960  147.0460 C   0  0  0  0  0  2  0  0  0  0  0  0
  192.0260  176.4840  148.0370 O   0  0  0  0  0  0  0  0  0  0  0  0
  1 19  1  1  0  0  0
  2  1  1  6  0  0  0
  2  3  1  0  0  0  0
  3 11  1  0  0  0  0
  3  5  1  1  0  0  0
  4  7  1  0  0  0  0
  5  4  2  0  0  0  0
  6 11  1  0  0  0  0
  8 10  1  0  0  0  0
  8  2  1  0  0  0  0
  9  7  1  0  0  0  0
 10  6  1  0  0  0  0
 11 12  2  0  0  0  0
 12  9  1  0  0  0  0
 13 14  1  0  0  0  0
 13 16  1  0  0  0  0
 14 18  1  0  0  0  0
 15 13  1  0  0  0  0
 16 17  1  0  0  0  0
 17  1  1  0  0  0  0
 18 17  1  0  0  0  0
 20 19  1  0  0  0  0
 20 22  1  0  0  0  0
 21 22  1  0  0  0  0
 22 23  1  0  0  0  0
 23 24  1  0  0  0  0
 24 25  2  0  0  0  0
 24 26  1  0  0  0  0
 26 27  1  0  0  0  0
 27 28  1  1  0  0  0
 29 27  1  1  0  0  0
 29 30  1  0  0  0  0
 29 31  1  0  0  0  0
 30 31  1  0  0  0  0
M  END
>  <MODEL>
1

>  <REMARK>
 VINA RESULT:      -7.3      0.000      0.000
  Name = 
  10 active torsions:
  status: ('A' for Active; 'I' for Inactive)
    1  A    between atoms: C_1  and  C_6
    2  A    between atoms: C_3  and  C_19
    3  A    between atoms: C_3  and  C_23
    4  A    between atoms: C_4  and  C_12
    5  A    between atoms: C_6  and  C_19
    6  A    between atoms: N_9  and  C_15
    7  A    between atoms: N_9  and  C_23
    8  A    between atoms: C_12  and  S_20
    9  A    between atoms: C_12  and  N_27
   10  A    between atoms: C_15  and  S_20
                            x       y       z     vdW  Elec       q    Type
                         _______ _______ _______ _____ _____    ______ ____

>  <TORSDO>
F 10

$$$$
=
 OpenBabel10262419243D

 31 34  0  0  1  0  0  0  0  0999 V2000
  186.8220  178.0910  142.0990 C   0  0  1  0  0  3  0  0  0  0  0  0
  187.1110  177.5340  143.5070 C   0  0  1  0  0  3  0  0  0  0  0  0
  188.6250  177.3880  143.7330 C   0  0  2  0  0  3  0  0  0  0  0  0
  190.3270  175.5820  143.1200 C   0  0  0  0  0  3  0  0  0  0  0  0
  189.1080  176.1460  143.0240 C   0  0  0  0  0  3  0  0  0  0  0  0
  187.9300  177.5470  146.2720 C   0  0  0  0  0  2  0  0  0  0  0  0
  191.4710  175.9890  144.0190 C   0  0  0  0  0  2  0  0  0  0  0  0
  186.5190  178.3310  144.5040 O   0  0  0  0  0  0  0  0  0  0  0  0
  191.3800  177.3990  144.5840 C   0  0  0  0  0  2  0  0  0  0  0  0
  186.5310  177.5420  145.6610 C   0  0  0  0  0  2  0  0  0  0  0  0
  188.9870  177.4130  145.2080 C   0  0  0  0  0  0  0  0  0  0  0  0
  190.2680  177.4690  145.5850 C   0  0  0  0  0  3  0  0  0  0  0  0
  183.4280  178.0440  141.2080 N   0  0  0  0  0  0  0  0  0  0  0  0
  183.9470  178.9720  140.2230 C   0  0  0  0  0  2  0  0  0  0  0  0
  182.2010  178.6200  141.7270 C   0  0  0  0  0  1  0  0  0  0  0  0
  184.3910  178.0390  142.3030 C   0  0  0  0  0  2  0  0  0  0  0  0
  185.5640  178.8370  141.9350 N   0  0  0  0  0  0  0  0  0  0  0  0
  185.4080  179.1430  140.5280 C   0  0  0  0  0  2  0  0  0  0  0  0
  188.2460  178.8850  141.2600 S   0  0  0  0  0  0  0  0  0  0  0  0
  188.4510  177.6060  139.9630 C   0  0  0  0  0  2  0  0  0  0  0  0
  190.5760  176.7940  139.7510 O   0  0  0  0  0  1  0  0  0  0  0  0
  189.7230  177.7180  139.2470 N   0  0  0  0  0  0  0  0  0  0  0  0
  189.5230  177.4100  137.8360 C   0  0  0  0  0  2  0  0  0  0  0  0
  188.7890  178.5220  137.1600 C   0  0  0  0  0  0  0  0  0  0  0  0
  189.0040  179.6790  137.4810 O   0  0  0  0  0  0  0  0  0  0  0  0
  187.8420  178.2110  136.0360 C   0  0  0  0  0  2  0  0  0  0  0  0
  187.0520  176.9130  136.2300 C   0  0  2  0  0  3  0  0  0  0  0  0
  187.5120  175.8200  135.2800 C   0  0  0  0  0  1  0  0  0  0  0  0
  185.5530  177.1370  136.1180 C   0  0  2  0  0  3  0  0  0  0  0  0
  184.8940  176.7910  137.3960 C   0  0  0  0  0  2  0  0  0  0  0  0
  184.8860  175.9120  136.2980 O   0  0  0  0  0  0  0  0  0  0  0  0
  1 19  1  1  0  0  0
  2  1  1  6  0  0  0
  2  3  1  0  0  0  0
  2  8  1  0  0  0  0
  3  5  1  1  0  0  0
  3 11  1  0  0  0  0
  4  7  1  0  0  0  0
  5  4  2  0  0  0  0
  7  9  1  0  0  0  0
  8 10  1  0  0  0  0
  9 12  1  0  0  0  0
 10  6  1  0  0  0  0
 11 12  2  0  0  0  0
 11  6  1  0  0  0  0
 13 15  1  0  0  0  0
 13 16  1  0  0  0  0
 14 18  1  0  0  0  0
 14 13  1  0  0  0  0
 17  1  1  0  0  0  0
 17 16  1  0  0  0  0
 18 17  1  0  0  0  0
 20 19  1  0  0  0  0
 22 21  1  0  0  0  0
 22 20  1  0  0  0  0
 23 22  1  0  0  0  0
 24 25  2  0  0  0  0
 24 23  1  0  0  0  0
 26 27  1  0  0  0  0
 26 24  1  0  0  0  0
 27 28  1  6  0  0  0
 29 27  1  1  0  0  0
 29 31  1  0  0  0  0
 29 30  1  0  0  0  0
 31 30  1  0  0  0  0
M  END
>  <MODEL>
2

>  <REMARK>
 VINA RESULT:      -7.1      2.445      6.811
  Name = 
  10 active torsions:
  status: ('A' for Active; 'I' for Inactive)
    1  A    between atoms: C_1  and  C_6
    2  A    between atoms: C_3  and  C_19
    3  A    between atoms: C_3  and  C_23
    4  A    between atoms: C_4  and  C_12
    5  A    between atoms: C_6  and  C_19
    6  A    between atoms: N_9  and  C_15
    7  A    between atoms: N_9  and  C_23
    8  A    between atoms: C_12  and  S_20
    9  A    between atoms: C_12  and  N_27
   10  A    between atoms: C_15  and  S_20
                            x       y       z     vdW  Elec       q    Type
                         _______ _______ _______ _____ _____    ______ ____

>  <TORSDO>
F 10

$$$$
=
 OpenBabel10262419243D

 31 34  0  0  1  0  0  0  0  0999 V2000
  186.2230  177.8600  143.3260 C   0  0  1  0  0  3  0  0  0  0  0  0
  187.1570  177.4550  144.4840 C   0  0  1  0  0  3  0  0  0  0  0  0
  188.6240  177.4550  144.0220 C   0  0  2  0  0  3  0  0  0  0  0  0
  190.0810  175.7480  142.7990 C   0  0  0  0  0  3  0  0  0  0  0  0
  188.8870  176.1980  143.2280 C   0  0  0  0  0  3  0  0  0  0  0  0
  189.0910  177.7810  146.5980 C   0  0  0  0  0  2  0  0  0  0  0  0
  191.4480  176.3250  143.0820 C   0  0  0  0  0  2  0  0  0  0  0  0
  186.9720  178.2860  145.6040 O   0  0  0  0  0  0  0  0  0  0  0  0
  191.4540  177.7680  143.5670 C   0  0  0  0  0  2  0  0  0  0  0  0
  187.5760  177.6070  146.6690 C   0  0  0  0  0  2  0  0  0  0  0  0
  189.5860  177.6400  145.1830 C   0  0  0  0  0  0  0  0  0  0  0  0
  190.8890  177.8350  144.9520 C   0  0  0  0  0  3  0  0  0  0  0  0
  183.0980  179.3070  142.6530 N   0  0  0  0  0  0  0  0  0  0  0  0
  183.2760  179.6960  144.0380 C   0  0  0  0  0  2  0  0  0  0  0  0
  181.7320  178.8350  142.5190 C   0  0  0  0  0  1  0  0  0  0  0  0
  183.9680  178.1570  142.4420 C   0  0  0  0  0  2  0  0  0  0  0  0
  184.7860  177.9280  143.6370 N   0  0  0  0  0  0  0  0  0  0  0  0
  184.5700  179.0790  144.4900 C   0  0  0  0  0  2  0  0  0  0  0  0
  186.8060  179.2610  142.2980 S   0  0  0  0  0  0  0  0  0  0  0  0
  186.7970  178.3560  140.7040 C   0  0  0  0  0  2  0  0  0  0  0  0
  189.0740  178.2730  140.5270 O   0  0  0  0  0  1  0  0  0  0  0  0
  187.9570  178.6640  139.8660 N   0  0  0  0  0  0  0  0  0  0  0  0
  187.8890  177.8980  138.6270 C   0  0  0  0  0  2  0  0  0  0  0  0
  188.8940  178.4050  137.6450 C   0  0  0  0  0  0  0  0  0  0  0  0
  189.0540  179.6060  137.5010 O   0  0  0  0  0  0  0  0  0  0  0  0
  189.7550  177.4310  136.8940 C   0  0  0  0  0  2  0  0  0  0  0  0
  190.0440  176.1360  137.6620 C   0  0  2  0  0  3  0  0  0  0  0  0
  191.1890  176.3030  138.6470 C   0  0  0  0  0  1  0  0  0  0  0  0
  190.2960  174.9650  136.7260 C   0  0  2  0  0  3  0  0  0  0  0  0
  189.2810  173.9140  136.9500 C   0  0  0  0  0  2  0  0  0  0  0  0
  190.5770  173.8160  137.4870 O   0  0  0  0  0  0  0  0  0  0  0  0
  1 19  1  1  0  0  0
  1 17  1  0  0  0  0
  2  1  1  6  0  0  0
  2  8  1  0  0  0  0
  3  5  1  1  0  0  0
  3  2  1  0  0  0  0
  3 11  1  0  0  0  0
  4  7  1  0  0  0  0
  4  5  2  0  0  0  0
  6 10  1  0  0  0  0
  7  9  1  0  0  0  0
  8 10  1  0  0  0  0
  9 12  1  0  0  0  0
 11  6  1  0  0  0  0
 12 11  2  0  0  0  0
 13 14  1  0  0  0  0
 14 18  1  0  0  0  0
 15 13  1  0  0  0  0
 16 13  1  0  0  0  0
 16 17  1  0  0  0  0
 17 18  1  0  0  0  0
 20 19  1  0  0  0  0
 22 21  1  0  0  0  0
 22 20  1  0  0  0  0
 23 22  1  0  0  0  0
 24 23  1  0  0  0  0
 25 24  2  0  0  0  0
 26 24  1  0  0  0  0
 26 27  1  0  0  0  0
 27 28  1  6  0  0  0
 29 30  1  0  0  0  0
 29 31  1  0  0  0  0
 29 27  1  1  0  0  0
 30 31  1  0  0  0  0
M  END
>  <MODEL>
3

>  <REMARK>
 VINA RESULT:      -6.9      2.809      6.647
  Name = 
  10 active torsions:
  status: ('A' for Active; 'I' for Inactive)
    1  A    between atoms: C_1  and  C_6
    2  A    between atoms: C_3  and  C_19
    3  A    between atoms: C_3  and  C_23
    4  A    between atoms: C_4  and  C_12
    5  A    between atoms: C_6  and  C_19
    6  A    between atoms: N_9  and  C_15
    7  A    between atoms: N_9  and  C_23
    8  A    between atoms: C_12  and  S_20
    9  A    between atoms: C_12  and  N_27
   10  A    between atoms: C_15  and  S_20
                            x       y       z     vdW  Elec       q    Type
                         _______ _______ _______ _____ _____    ______ ____

>  <TORSDO>
F 10

$$$$
=
 OpenBabel10262419243D

 31 34  0  0  1  0  0  0  0  0999 V2000
  189.3510  177.4540  140.5900 C   0  0  1  0  0  3  0  0  0  0  0  0
  189.5400  177.7850  139.0960 C   0  0  1  0  0  3  0  0  0  0  0  0
  189.6340  176.4960  138.2620 C   0  0  2  0  0  3  0  0  0  0  0  0
  191.5470  174.8890  137.7230 C   0  0  0  0  0  3  0  0  0  0  0  0
  191.0170  175.9120  138.4190 C   0  0  0  0  0  3  0  0  0  0  0  0
  188.8400  178.0880  136.3160 C   0  0  0  0  0  2  0  0  0  0  0  0
  190.9350  174.1400  136.5620 C   0  0  0  0  0  2  0  0  0  0  0  0
  188.5150  178.6260  138.6250 O   0  0  0  0  0  0  0  0  0  0  0  0
  189.4280  174.2910  136.4160 C   0  0  0  0  0  2  0  0  0  0  0  0
  188.9890  179.1400  137.4120 C   0  0  0  0  0  2  0  0  0  0  0  0
  189.2430  176.7260  136.8130 C   0  0  0  0  0  0  0  0  0  0  0  0
  189.1020  175.6870  135.9820 C   0  0  0  0  0  3  0  0  0  0  0  0
  190.8460  176.5270  143.6260 N   0  0  0  0  0  0  0  0  0  0  0  0
  191.8010  177.5080  143.1500 C   0  0  0  0  0  2  0  0  0  0  0  0
  191.6110  175.3940  144.1140 C   0  0  0  0  0  1  0  0  0  0  0  0
  190.1160  176.0720  142.4490 C   0  0  0  0  0  2  0  0  0  0  0  0
  190.5080  176.8680  141.2830 N   0  0  0  0  0  0  0  0  0  0  0  0
  191.3150  177.9550  141.8000 C   0  0  0  0  0  2  0  0  0  0  0  0
  188.4940  178.7400  141.5780 S   0  0  0  0  0  0  0  0  0  0  0  0
  186.8430  177.9440  141.5510 C   0  0  0  0  0  2  0  0  0  0  0  0
  185.4490  179.4300  140.5170 O   0  0  0  0  0  1  0  0  0  0  0  0
  185.7470  178.8980  141.7270 N   0  0  0  0  0  0  0  0  0  0  0  0
  184.5580  178.2010  142.2050 C   0  0  0  0  0  2  0  0  0  0  0  0
  183.9430  178.9440  143.3460 C   0  0  0  0  0  0  0  0  0  0  0  0
  182.7330  179.0950  143.3940 O   0  0  0  0  0  0  0  0  0  0  0  0
  184.8120  179.4380  144.4660 C   0  0  0  0  0  2  0  0  0  0  0  0
  185.4100  178.3210  145.3280 C   0  0  2  0  0  3  0  0  0  0  0  0
  184.9150  178.3830  146.7640 C   0  0  0  0  0  1  0  0  0  0  0  0
  186.9290  178.3140  145.2750 C   0  0  2  0  0  3  0  0  0  0  0  0
  187.4150  176.9680  144.9050 C   0  0  0  0  0  2  0  0  0  0  0  0
  187.4230  177.4160  146.2380 O   0  0  0  0  0  0  0  0  0  0  0  0
  1 17  1  0  0  0  0
  1 19  1  1  0  0  0
  2  1  1  1  0  0  0
  3  5  1  6  0  0  0
  3  2  1  0  0  0  0
  4  5  2  0  0  0  0
  6 11  1  0  0  0  0
  6 10  1  0  0  0  0
  7  4  1  0  0  0  0
  8  2  1  0  0  0  0
  9  7  1  0  0  0  0
 10  8  1  0  0  0  0
 11  3  1  0  0  0  0
 12  9  1  0  0  0  0
 12 11  2  0  0  0  0
 13 15  1  0  0  0  0
 14 13  1  0  0  0  0
 16 13  1  0  0  0  0
 17 18  1  0  0  0  0
 17 16  1  0  0  0  0
 18 14  1  0  0  0  0
 20 19  1  0  0  0  0
 20 22  1  0  0  0  0
 21 22  1  0  0  0  0
 22 23  1  0  0  0  0
 23 24  1  0  0  0  0
 24 25  2  0  0  0  0
 24 26  1  0  0  0  0
 26 27  1  0  0  0  0
 27 28  1  1  0  0  0
 29 27  1  1  0  0  0
 29 31  1  0  0  0  0
 30 29  1  0  0  0  0
 30 31  1  0  0  0  0
M  END
>  <MODEL>
4

>  <REMARK>
 VINA RESULT:      -6.9      2.481      6.728
  Name = 
  10 active torsions:
  status: ('A' for Active; 'I' for Inactive)
    1  A    between atoms: C_1  and  C_6
    2  A    between atoms: C_3  and  C_19
    3  A    between atoms: C_3  and  C_23
    4  A    between atoms: C_4  and  C_12
    5  A    between atoms: C_6  and  C_19
    6  A    between atoms: N_9  and  C_15
    7  A    between atoms: N_9  and  C_23
    8  A    between atoms: C_12  and  S_20
    9  A    between atoms: C_12  and  N_27
   10  A    between atoms: C_15  and  S_20
                            x       y       z     vdW  Elec       q    Type
                         _______ _______ _______ _____ _____    ______ ____

>  <TORSDO>
F 10

$$$$
=
 OpenBabel10262419243D

 31 34  0  0  1  0  0  0  0  0999 V2000
  189.0310  176.4680  137.9260 C   0  0  1  0  0  3  0  0  0  0  0  0
  188.0650  176.3730  136.7280 C   0  0  1  0  0  3  0  0  0  0  0  0
  186.7460  175.7010  137.1460 C   0  0  2  0  0  3  0  0  0  0  0  0
  186.0170  173.2640  137.3950 C   0  0  0  0  0  3  0  0  0  0  0  0
  186.9610  174.2090  137.2280 C   0  0  0  0  0  3  0  0  0  0  0  0
  185.8000  177.0140  135.0620 C   0  0  0  0  0  2  0  0  0  0  0  0
  184.5180  173.4460  137.4440 C   0  0  0  0  0  2  0  0  0  0  0  0
  187.8370  177.6370  136.1540 O   0  0  0  0  0  0  0  0  0  0  0  0
  184.0480  174.8670  137.7260 C   0  0  0  0  0  2  0  0  0  0  0  0
  187.2740  177.3750  134.8990 C   0  0  0  0  0  2  0  0  0  0  0  0
  185.5950  176.0900  136.2330 C   0  0  0  0  0  0  0  0  0  0  0  0
  184.3430  175.7370  136.5440 C   0  0  0  0  0  3  0  0  0  0  0  0
  192.4660  176.2640  137.2370 N   0  0  0  0  0  0  0  0  0  0  0  0
  191.9430  175.3420  136.2480 C   0  0  0  0  0  2  0  0  0  0  0  0
  193.6190  175.6250  137.8440 C   0  0  0  0  0  1  0  0  0  0  0  0
  191.4440  176.3670  138.2720 C   0  0  0  0  0  2  0  0  0  0  0  0
  190.2430  175.6370  137.8570 N   0  0  0  0  0  0  0  0  0  0  0  0
  190.4580  175.2760  136.4710 C   0  0  0  0  0  2  0  0  0  0  0  0
  189.3530  178.1640  138.5440 S   0  0  0  0  0  0  0  0  0  0  0  0
  188.1040  178.1280  139.8850 C   0  0  0  0  0  2  0  0  0  0  0  0
  189.8910  177.7530  141.2580 O   0  0  0  0  0  1  0  0  0  0  0  0
  188.5820  177.4490  141.0910 N   0  0  0  0  0  0  0  0  0  0  0  0
  187.8610  177.9480  142.2560 C   0  0  0  0  0  2  0  0  0  0  0  0
  187.9870  176.9910  143.3960 C   0  0  0  0  0  0  0  0  0  0  0  0
  188.1220  175.7970  143.1780 O   0  0  0  0  0  0  0  0  0  0  0  0
  188.0210  177.5120  144.8040 C   0  0  0  0  0  2  0  0  0  0  0  0
  189.2890  177.1320  145.5770 C   0  0  2  0  0  3  0  0  0  0  0  0
  189.1830  177.4860  147.0520 C   0  0  0  0  0  1  0  0  0  0  0  0
  190.5360  177.7420  144.9580 C   0  0  2  0  0  3  0  0  0  0  0  0
  191.4420  176.6700  144.4920 C   0  0  0  0  0  2  0  0  0  0  0  0
  191.6630  177.3500  145.7040 O   0  0  0  0  0  0  0  0  0  0  0  0
  1 19  1  6  0  0  0
  2  3  1  0  0  0  0
  2  1  1  1  0  0  0
  3  5  1  6  0  0  0
  4  7  1  0  0  0  0
  5  4  2  0  0  0  0
  6 11  1  0  0  0  0
  7  9  1  0  0  0  0
  8  2  1  0  0  0  0
 10  6  1  0  0  0  0
 10  8  1  0  0  0  0
 11 12  2  0  0  0  0
 11  3  1  0  0  0  0
 12  9  1  0  0  0  0
 13 15  1  0  0  0  0
 13 16  1  0  0  0  0
 14 18  1  0  0  0  0
 14 13  1  0  0  0  0
 17  1  1  0  0  0  0
 17 16  1  0  0  0  0
 18 17  1  0  0  0  0
 19 20  1  0  0  0  0
 20 22  1  0  0  0  0
 22 21  1  0  0  0  0
 22 23  1  0  0  0  0
 23 24  1  0  0  0  0
 24 26  1  0  0  0  0
 25 24  2  0  0  0  0
 26 27  1  0  0  0  0
 27 28  1  1  0  0  0
 29 27  1  1  0  0  0
 29 31  1  0  0  0  0
 30 29  1  0  0  0  0
 30 31  1  0  0  0  0
M  END
>  <MODEL>
5

>  <REMARK>
 VINA RESULT:      -6.7      3.096      5.475
  Name = 
  10 active torsions:
  status: ('A' for Active; 'I' for Inactive)
    1  A    between atoms: C_1  and  C_6
    2  A    between atoms: C_3  and  C_19
    3  A    between atoms: C_3  and  C_23
    4  A    between atoms: C_4  and  C_12
    5  A    between atoms: C_6  and  C_19
    6  A    between atoms: N_9  and  C_15
    7  A    between atoms: N_9  and  C_23
    8  A    between atoms: C_12  and  S_20
    9  A    between atoms: C_12  and  N_27
   10  A    between atoms: C_15  and  S_20
                            x       y       z     vdW  Elec       q    Type
                         _______ _______ _______ _____ _____    ______ ____

>  <TORSDO>
F 10

$$$$
=
 OpenBabel10262419243D

 31 34  0  0  1  0  0  0  0  0999 V2000
  189.6710  176.1590  138.3560 C   0  0  1  0  0  3  0  0  0  0  0  0
  188.9830  176.3780  136.9930 C   0  0  1  0  0  3  0  0  0  0  0  0
  187.4550  176.2810  137.1350 C   0  0  2  0  0  3  0  0  0  0  0  0
  185.8160  174.3210  137.1800 C   0  0  0  0  0  3  0  0  0  0  0  0
  187.0630  174.8260  137.2200 C   0  0  0  0  0  3  0  0  0  0  0  0
  187.4890  177.7470  134.9420 C   0  0  0  0  0  2  0  0  0  0  0  0
  184.5200  175.0620  136.9460 C   0  0  0  0  0  2  0  0  0  0  0  0
  189.3680  177.6030  136.4180 O   0  0  0  0  0  0  0  0  0  0  0  0
  184.5860  176.5670  137.1680 C   0  0  0  0  0  2  0  0  0  0  0  0
  188.9920  177.5120  135.0720 C   0  0  0  0  0  2  0  0  0  0  0  0
  186.7320  177.0320  136.0290 C   0  0  0  0  0  0  0  0  0  0  0  0
  185.4070  177.1980  136.0860 C   0  0  0  0  0  3  0  0  0  0  0  0
  192.7850  175.5210  136.8690 N   0  0  0  0  0  0  0  0  0  0  0  0
  192.1270  174.2460  136.6620 C   0  0  0  0  0  2  0  0  0  0  0  0
  194.1290  175.2330  137.3350 C   0  0  0  0  0  1  0  0  0  0  0  0
  192.0800  176.1630  137.9720 C   0  0  0  0  0  2  0  0  0  0  0  0
  190.9090  175.3650  138.3450 N   0  0  0  0  0  0  0  0  0  0  0  0
  190.7790  174.3510  137.3180 C   0  0  0  0  0  2  0  0  0  0  0  0
  189.7740  177.6400  139.4320 S   0  0  0  0  0  0  0  0  0  0  0  0
  190.2870  176.7490  140.9490 C   0  0  0  0  0  2  0  0  0  0  0  0
  190.4290  178.0280  142.8370 O   0  0  0  0  0  1  0  0  0  0  0  0
  189.5910  177.2150  142.1490 N   0  0  0  0  0  0  0  0  0  0  0  0
  188.4260  178.0050  141.7660 C   0  0  0  0  0  2  0  0  0  0  0  0
  187.3060  177.7820  142.7300 C   0  0  0  0  0  0  0  0  0  0  0  0
  186.1900  178.2050  142.4760 O   0  0  0  0  0  0  0  0  0  0  0  0
  187.5450  176.9720  143.9720 C   0  0  0  0  0  2  0  0  0  0  0  0
  187.6580  177.8120  145.2490 C   0  0  2  0  0  3  0  0  0  0  0  0
  188.9240  177.4950  146.0270 C   0  0  0  0  0  1  0  0  0  0  0  0
  186.4270  177.6750  146.1290 C   0  0  2  0  0  3  0  0  0  0  0  0
  185.6870  178.9550  146.1640 C   0  0  0  0  0  2  0  0  0  0  0  0
  186.5340  178.5620  147.2170 O   0  0  0  0  0  0  0  0  0  0  0  0
  1 19  1  6  0  0  0
  2  3  1  0  0  0  0
  2  1  1  1  0  0  0
  3  5  1  6  0  0  0
  4  5  2  0  0  0  0
  6 10  1  0  0  0  0
  6 11  1  0  0  0  0
  7  9  1  0  0  0  0
  7  4  1  0  0  0  0
  8  2  1  0  0  0  0
 10  8  1  0  0  0  0
 11 12  2  0  0  0  0
 11  3  1  0  0  0  0
 12  9  1  0  0  0  0
 13 15  1  0  0  0  0
 13 16  1  0  0  0  0
 14 13  1  0  0  0  0
 14 18  1  0  0  0  0
 16 17  1  0  0  0  0
 17  1  1  0  0  0  0
 18 17  1  0  0  0  0
 19 20  1  0  0  0  0
 20 22  1  0  0  0  0
 22 21  1  0  0  0  0
 23 22  1  0  0  0  0
 23 24  1  0  0  0  0
 24 26  1  0  0  0  0
 25 24  2  0  0  0  0
 26 27  1  0  0  0  0
 27 28  1  1  0  0  0
 29 27  1  6  0  0  0
 29 30  1  0  0  0  0
 29 31  1  0  0  0  0
 30 31  1  0  0  0  0
M  END
>  <MODEL>
6

>  <REMARK>
 VINA RESULT:      -6.6      3.217      5.966
  Name = 
  10 active torsions:
  status: ('A' for Active; 'I' for Inactive)
    1  A    between atoms: C_1  and  C_6
    2  A    between atoms: C_3  and  C_19
    3  A    between atoms: C_3  and  C_23
    4  A    between atoms: C_4  and  C_12
    5  A    between atoms: C_6  and  C_19
    6  A    between atoms: N_9  and  C_15
    7  A    between atoms: N_9  and  C_23
    8  A    between atoms: C_12  and  S_20
    9  A    between atoms: C_12  and  N_27
   10  A    between atoms: C_15  and  S_20
                            x       y       z     vdW  Elec       q    Type
                         _______ _______ _______ _____ _____    ______ ____

>  <TORSDO>
F 10

$$$$
=
 OpenBabel10262419243D

 31 34  0  0  1  0  0  0  0  0999 V2000
  188.2440  177.9250  141.8830 C   0  0  1  0  0  3  0  0  0  0  0  0
  186.7380  177.8770  142.2090 C   0  0  1  0  0  3  0  0  0  0  0  0
  186.4840  178.2920  143.6680 C   0  0  2  0  0  3  0  0  0  0  0  0
  186.5840  177.0400  145.8940 C   0  0  0  0  0  3  0  0  0  0  0  0
  186.8280  177.1340  144.5740 C   0  0  0  0  0  3  0  0  0  0  0  0
  184.0840  178.8700  142.7410 C   0  0  0  0  0  2  0  0  0  0  0  0
  185.8330  178.0130  146.7720 C   0  0  0  0  0  2  0  0  0  0  0  0
  185.9950  178.6690  141.3150 O   0  0  0  0  0  0  0  0  0  0  0  0
  185.6740  179.4130  146.1980 C   0  0  0  0  0  2  0  0  0  0  0  0
  184.6670  178.2540  141.4720 C   0  0  0  0  0  2  0  0  0  0  0  0
  185.0730  178.8140  143.8750 C   0  0  0  0  0  0  0  0  0  0  0  0
  184.7280  179.3770  145.0370 C   0  0  0  0  0  3  0  0  0  0  0  0
  191.4760  178.1020  143.2380 N   0  0  0  0  0  0  0  0  0  0  0  0
  191.3470  176.6700  143.0490 C   0  0  0  0  0  2  0  0  0  0  0  0
  192.0500  178.3050  144.5560 C   0  0  0  0  0  1  0  0  0  0  0  0
  190.1170  178.6270  143.2800 C   0  0  0  0  0  2  0  0  0  0  0  0
  189.1620  177.5580  142.9720 N   0  0  0  0  0  0  0  0  0  0  0  0
  189.9590  176.4340  142.5240 C   0  0  0  0  0  2  0  0  0  0  0  0
  188.7210  177.2080  140.2650 S   0  0  0  0  0  0  0  0  0  0  0  0
  189.0600  178.8050  139.4310 C   0  0  0  0  0  2  0  0  0  0  0  0
  189.0650  179.3020  137.2020 O   0  0  0  0  0  1  0  0  0  0  0  0
  188.2400  179.0100  138.2360 N   0  0  0  0  0  0  0  0  0  0  0  0
  187.5370  177.7760  137.9030 C   0  0  0  0  0  2  0  0  0  0  0  0
  186.1020  178.0610  137.5980 C   0  0  0  0  0  0  0  0  0  0  0  0
  185.5360  178.9940  138.1440 O   0  0  0  0  0  0  0  0  0  0  0  0
  185.3860  177.2400  136.5650 C   0  0  0  0  0  2  0  0  0  0  0  0
  184.7000  175.9920  137.1290 C   0  0  2  0  0  3  0  0  0  0  0  0
  184.9110  174.7760  136.2410 C   0  0  0  0  0  1  0  0  0  0  0  0
  183.2210  176.2260  137.3910 C   0  0  2  0  0  3  0  0  0  0  0  0
  182.9420  176.1190  138.8390 C   0  0  0  0  0  2  0  0  0  0  0  0
  182.6600  175.0640  137.9520 O   0  0  0  0  0  0  0  0  0  0  0  0
  1 19  1  6  0  0  0
  1 17  1  0  0  0  0
  2  1  1  6  0  0  0
  2  3  1  0  0  0  0
  3 11  1  0  0  0  0
  3  5  1  1  0  0  0
  4  7  1  0  0  0  0
  5  4  2  0  0  0  0
  6 11  1  0  0  0  0
  8 10  1  0  0  0  0
  8  2  1  0  0  0  0
  9  7  1  0  0  0  0
 10  6  1  0  0  0  0
 11 12  2  0  0  0  0
 12  9  1  0  0  0  0
 13 16  1  0  0  0  0
 13 15  1  0  0  0  0
 14 13  1  0  0  0  0
 17 16  1  0  0  0  0
 18 17  1  0  0  0  0
 18 14  1  0  0  0  0
 20 19  1  0  0  0  0
 21 22  1  0  0  0  0
 22 20  1  0  0  0  0
 23 22  1  0  0  0  0
 24 23  1  0  0  0  0
 24 25  2  0  0  0  0
 26 27  1  0  0  0  0
 26 24  1  0  0  0  0
 27 28  1  6  0  0  0
 29 27  1  1  0  0  0
 29 31  1  0  0  0  0
 29 30  1  0  0  0  0
 31 30  1  0  0  0  0
M  END
>  <MODEL>
7

>  <REMARK>
 VINA RESULT:      -6.6      2.778      6.834
  Name = 
  10 active torsions:
  status: ('A' for Active; 'I' for Inactive)
    1  A    between atoms: C_1  and  C_6
    2  A    between atoms: C_3  and  C_19
    3  A    between atoms: C_3  and  C_23
    4  A    between atoms: C_4  and  C_12
    5  A    between atoms: C_6  and  C_19
    6  A    between atoms: N_9  and  C_15
    7  A    between atoms: N_9  and  C_23
    8  A    between atoms: C_12  and  S_20
    9  A    between atoms: C_12  and  N_27
   10  A    between atoms: C_15  and  S_20
                            x       y       z     vdW  Elec       q    Type
                         _______ _______ _______ _____ _____    ______ ____

>  <TORSDO>
F 10

$$$$
=
 OpenBabel10262419243D

 31 34  0  0  1  0  0  0  0  0999 V2000
  185.3610  177.9840  142.9720 C   0  0  1  0  0  3  0  0  0  0  0  0
  186.1710  177.6250  144.2340 C   0  0  1  0  0  3  0  0  0  0  0  0
  187.6790  177.6460  143.9360 C   0  0  2  0  0  3  0  0  0  0  0  0
  189.2940  175.9450  142.9210 C   0  0  0  0  0  3  0  0  0  0  0  0
  188.0520  176.3790  143.2050 C   0  0  0  0  0  3  0  0  0  0  0  0
  187.8540  178.0380  146.5390 C   0  0  0  0  0  2  0  0  0  0  0  0
  190.6100  176.5580  143.3370 C   0  0  0  0  0  2  0  0  0  0  0  0
  185.8480  178.4760  145.3080 O   0  0  0  0  0  0  0  0  0  0  0  0
  190.5350  178.0110  143.7850 C   0  0  0  0  0  2  0  0  0  0  0  0
  186.3440  177.8320  146.4480 C   0  0  0  0  0  2  0  0  0  0  0  0
  188.5040  177.8780  145.1910 C   0  0  0  0  0  0  0  0  0  0  0  0
  189.8200  178.0950  145.0980 C   0  0  0  0  0  3  0  0  0  0  0  0
  182.2090  178.9480  141.7680 N   0  0  0  0  0  0  0  0  0  0  0  0
  182.1360  179.4460  143.1280 C   0  0  0  0  0  2  0  0  0  0  0  0
  180.9470  178.2880  141.4900 C   0  0  0  0  0  1  0  0  0  0  0  0
  183.2380  177.9150  141.7720 C   0  0  0  0  0  2  0  0  0  0  0  0
  183.8980  177.8770  143.0800 N   0  0  0  0  0  0  0  0  0  0  0  0
  183.4180  179.0400  143.7990 C   0  0  0  0  0  2  0  0  0  0  0  0
  185.9110  179.4930  142.0880 S   0  0  0  0  0  0  0  0  0  0  0  0
  186.5950  178.6280  140.6240 C   0  0  0  0  0  2  0  0  0  0  0  0
  184.9310  179.7520  139.5360 O   0  0  0  0  0  1  0  0  0  0  0  0
  185.6780  178.6230  139.4840 N   0  0  0  0  0  0  0  0  0  0  0  0
  186.4370  178.6540  138.2400 C   0  0  0  0  0  2  0  0  0  0  0  0
  186.2140  177.3990  137.4620 C   0  0  0  0  0  0  0  0  0  0  0  0
  185.1370  177.1970  136.9240 O   0  0  0  0  0  0  0  0  0  0  0  0
  187.3430  176.4240  137.2850 C   0  0  0  0  0  2  0  0  0  0  0  0
  188.7320  177.0670  137.3290 C   0  0  2  0  0  3  0  0  0  0  0  0
  189.4260  177.0160  135.9780 C   0  0  0  0  0  1  0  0  0  0  0  0
  189.6060  176.4590  138.4150 C   0  0  2  0  0  3  0  0  0  0  0  0
  189.9260  177.4800  139.4350 C   0  0  0  0  0  2  0  0  0  0  0  0
  190.8480  177.1200  138.4350 O   0  0  0  0  0  0  0  0  0  0  0  0
  1 19  1  1  0  0  0
  1 17  1  0  0  0  0
  2  1  1  6  0  0  0
  2  8  1  0  0  0  0
  3  5  1  1  0  0  0
  3  2  1  0  0  0  0
  3 11  1  0  0  0  0
  4  5  2  0  0  0  0
  4  7  1  0  0  0  0
  7  9  1  0  0  0  0
  8 10  1  0  0  0  0
  9 12  1  0  0  0  0
 10  6  1  0  0  0  0
 11  6  1  0  0  0  0
 12 11  2  0  0  0  0
 13 16  1  0  0  0  0
 13 14  1  0  0  0  0
 14 18  1  0  0  0  0
 15 13  1  0  0  0  0
 16 17  1  0  0  0  0
 17 18  1  0  0  0  0
 20 19  1  0  0  0  0
 22 21  1  0  0  0  0
 22 20  1  0  0  0  0
 23 22  1  0  0  0  0
 24 23  1  0  0  0  0
 25 24  2  0  0  0  0
 26 27  1  0  0  0  0
 26 24  1  0  0  0  0
 27 28  1  6  0  0  0
 29 27  1  6  0  0  0
 29 31  1  0  0  0  0
 29 30  1  0  0  0  0
 31 30  1  0  0  0  0
M  END
>  <MODEL>
8

>  <REMARK>
 VINA RESULT:      -6.5      2.742      6.726
  Name = 
  10 active torsions:
  status: ('A' for Active; 'I' for Inactive)
    1  A    between atoms: C_1  and  C_6
    2  A    between atoms: C_3  and  C_19
    3  A    between atoms: C_3  and  C_23
    4  A    between atoms: C_4  and  C_12
    5  A    between atoms: C_6  and  C_19
    6  A    between atoms: N_9  and  C_15
    7  A    between atoms: N_9  and  C_23
    8  A    between atoms: C_12  and  S_20
    9  A    between atoms: C_12  and  N_27
   10  A    between atoms: C_15  and  S_20
                            x       y       z     vdW  Elec       q    Type
                         _______ _______ _______ _____ _____    ______ ____

>  <TORSDO>
F 10

$$$$
=
 OpenBabel10262419243D

 31 34  0  0  1  0  0  0  0  0999 V2000
  186.6970  177.7100  142.4400 C   0  0  1  0  0  3  0  0  0  0  0  0
  185.4550  178.5750  142.7320 C   0  0  1  0  0  3  0  0  0  0  0  0
  184.3420  178.2900  141.7100 C   0  0  2  0  0  3  0  0  0  0  0  0
  183.8660  179.1410  139.3480 C   0  0  0  0  0  3  0  0  0  0  0  0
  184.6680  179.0030  140.4200 C   0  0  0  0  0  3  0  0  0  0  0  0
  182.7910  179.2110  143.6350 C   0  0  0  0  0  2  0  0  0  0  0  0
  182.4260  178.7080  139.2020 C   0  0  0  0  0  2  0  0  0  0  0  0
  185.0000  178.3880  144.0510 O   0  0  0  0  0  0  0  0  0  0  0  0
  181.9560  177.6720  140.2140 C   0  0  0  0  0  2  0  0  0  0  0  0
  184.1420  179.4660  144.3000 C   0  0  0  0  0  2  0  0  0  0  0  0
  182.9670  178.6380  142.2540 C   0  0  0  0  0  0  0  0  0  0  0  0
  181.8690  178.2980  141.5710 C   0  0  0  0  0  3  0  0  0  0  0  0
  188.5920  177.6500  139.4870 N   0  0  0  0  0  0  0  0  0  0  0  0
  189.6410  177.5040  140.4770 C   0  0  0  0  0  2  0  0  0  0  0  0
  189.0560  178.6280  138.5200 C   0  0  0  0  0  1  0  0  0  0  0  0
  187.4590  178.2460  140.1850 C   0  0  0  0  0  2  0  0  0  0  0  0
  187.7490  178.3300  141.6190 N   0  0  0  0  0  0  0  0  0  0  0  0
  188.9710  177.5790  141.8200 C   0  0  0  0  0  2  0  0  0  0  0  0
  187.3570  176.7730  143.8710 S   0  0  0  0  0  0  0  0  0  0  0  0
  187.7880  178.2370  144.8860 C   0  0  0  0  0  2  0  0  0  0  0  0
  186.6620  177.6300  146.7790 O   0  0  0  0  0  1  0  0  0  0  0  0
  187.8980  177.9300  146.3130 N   0  0  0  0  0  0  0  0  0  0  0  0
  188.7370  176.7510  146.5000 C   0  0  0  0  0  2  0  0  0  0  0  0
  190.0740  177.1430  147.0380 C   0  0  0  0  0  0  0  0  0  0  0  0
  190.1550  177.7260  148.1070 O   0  0  0  0  0  0  0  0  0  0  0  0
  191.3180  176.7530  146.2930 C   0  0  0  0  0  2  0  0  0  0  0  0
  191.2530  177.0280  144.7870 C   0  0  2  0  0  3  0  0  0  0  0  0
  191.6800  175.8210  143.9690 C   0  0  0  0  0  1  0  0  0  0  0  0
  192.0540  178.2610  144.4000 C   0  0  2  0  0  3  0  0  0  0  0  0
  191.1410  179.3400  143.9690 C   0  0  0  0  0  2  0  0  0  0  0  0
  191.8370  178.5460  143.0390 O   0  0  0  0  0  0  0  0  0  0  0  0
  1 19  1  1  0  0  0
  2  1  1  6  0  0  0
  2  8  1  0  0  0  0
  3  5  1  6  0  0  0
  3 11  1  0  0  0  0
  3  2  1  0  0  0  0
  4  5  2  0  0  0  0
  6 10  1  0  0  0  0
  7  4  1  0  0  0  0
  7  9  1  0  0  0  0
  8 10  1  0  0  0  0
  9 12  1  0  0  0  0
 11  6  1  0  0  0  0
 12 11  2  0  0  0  0
 13 16  1  0  0  0  0
 13 14  1  0  0  0  0
 14 18  1  0  0  0  0
 15 13  1  0  0  0  0
 16 17  1  0  0  0  0
 17 18  1  0  0  0  0
 17  1  1  0  0  0  0
 19 20  1  0  0  0  0
 20 22  1  0  0  0  0
 22 23  1  0  0  0  0
 22 21  1  0  0  0  0
 23 24  1  0  0  0  0
 24 25  2  0  0  0  0
 26 24  1  0  0  0  0
 27 28  1  6  0  0  0
 27 26  1  0  0  0  0
 29 27  1  6  0  0  0
 30 29  1  0  0  0  0
 31 30  1  0  0  0  0
 31 29  1  0  0  0  0
M  END
>  <MODEL>
9

>  <REMARK>
 VINA RESULT:      -6.4      2.048      4.021
  Name = 
  10 active torsions:
  status: ('A' for Active; 'I' for Inactive)
    1  A    between atoms: C_1  and  C_6
    2  A    between atoms: C_3  and  C_19
    3  A    between atoms: C_3  and  C_23
    4  A    between atoms: C_4  and  C_12
    5  A    between atoms: C_6  and  C_19
    6  A    between atoms: N_9  and  C_15
    7  A    between atoms: N_9  and  C_23
    8  A    between atoms: C_12  and  S_20
    9  A    between atoms: C_12  and  N_27
   10  A    between atoms: C_15  and  S_20
                            x       y       z     vdW  Elec       q    Type
                         _______ _______ _______ _____ _____    ______ ____

>  <TORSDO>
F 10

$$$$
