=
 OpenBabel10262419433D

 25 27  0  0  1  0  0  0  0  0999 V2000
  184.7020  178.2140  143.1270 C   0  0  0  0  0  0  0  0  0  0  0  0
  185.8610  177.8860  143.8610 C   0  0  0  0  0  0  0  0  0  0  0  0
  183.6810  179.1020  145.1470 C   0  0  0  0  0  3  0  0  0  0  0  0
  184.8240  178.7780  145.8770 C   0  0  0  0  0  3  0  0  0  0  0  0
  187.0760  177.8430  145.9810 C   0  0  0  0  0  0  0  0  0  0  0  0
  187.2100  178.1720  147.7030 Cl  0  0  0  0  0  0  0  0  0  0  0  0
  186.9610  177.2800  143.2370 C   0  0  0  0  0  3  0  0  0  0  0  0
  183.6200  178.8220  143.7810 C   0  0  0  0  0  3  0  0  0  0  0  0
  188.1590  177.2400  145.3360 C   0  0  0  0  0  3  0  0  0  0  0  0
  188.1080  176.9560  143.9640 C   0  0  0  0  0  0  0  0  0  0  0  0
  185.9200  178.1710  145.2500 C   0  0  0  0  0  0  0  0  0  0  0  0
  184.6130  177.9280  141.6490 C   0  0  2  0  0  3  0  0  0  0  0  0
  183.7100  178.1070  138.9350 C   0  0  0  0  0  2  0  0  0  0  0  0
  185.0900  179.0850  140.7920 C   0  0  0  0  0  0  0  0  0  0  0  0
  184.4830  179.3320  139.4340 C   0  0  0  0  0  2  0  0  0  0  0  0
  182.7940  177.5800  140.0030 C   0  0  0  0  0  3  0  0  0  0  0  0
  186.0080  179.7960  141.1690 O   0  0  0  0  0  0  0  0  0  0  0  0
  183.2180  177.4940  141.2700 C   0  0  0  0  0  3  0  0  0  0  0  0
  189.1800  176.3520  143.3020 O   0  0  0  0  0  0  0  0  0  0  0  0
  190.1410  177.0930  142.5630 C   0  0  0  0  0  2  0  0  0  0  0  0
  191.5050  176.9730  143.2230 C   0  0  2  0  0  3  0  0  0  0  0  0
  191.6810  175.6340  143.7610 N   0  0  0  0  0  1  0  0  0  0  0  0
  191.6410  177.9830  144.3120 C   0  0  0  0  0  0  0  0  0  0  0  0
  191.7600  177.5600  145.6290 O   0  0  0  0  0  1  0  0  0  0  0  0
  191.6630  179.2150  144.0470 O   0  0  0  0  0  0  0  0  0  0  0  0
  1  8  2  0  0  0  0
  1  2  1  0  0  0  0
  2 11  1  0  0  0  0
  3  4  2  0  0  0  0
  5  6  1  0  0  0  0
  7  2  2  0  0  0  0
  7 10  1  0  0  0  0
  8  3  1  0  0  0  0
  9  5  1  0  0  0  0
 10  9  2  0  0  0  0
 11  4  1  0  0  0  0
 11  5  2  0  0  0  0
 12  1  1  1  0  0  0
 13 15  1  0  0  0  0
 13 16  1  0  0  0  0
 14 17  2  0  0  0  0
 14 12  1  0  0  0  0
 15 14  1  0  0  0  0
 16 18  2  0  0  0  0
 18 12  1  0  0  0  0
 19 10  1  0  0  0  0
 20 21  1  0  0  0  0
 20 19  1  0  0  0  0
 21 22  1  1  0  0  0
 21 23  1  0  0  0  0
 23 24  1  0  0  0  0
 25 23  2  0  0  0  0
M  END
>  <MODEL>
1

>  <REMARK>
 VINA RESULT:      -8.9      0.000      0.000
  Name = 
  5 active torsions:
  status: ('A' for Active; 'I' for Inactive)
    1  A    between atoms: C_1  and  C_5
    2  A    between atoms: C_2  and  C_21
    3  A    between atoms: O_6  and  C_15
    4  A    between atoms: O_6  and  C_23
    5  A    between atoms: C_15  and  C_21
                            x       y       z     vdW  Elec       q    Type
                         _______ _______ _______ _____ _____    ______ ____

>  <TORSDO>
F 5

$$$$
=
 OpenBabel10262419433D

 25 27  0  0  1  0  0  0  0  0999 V2000
  187.6190  177.8870  144.2400 C   0  0  0  0  0  0  0  0  0  0  0  0
  186.4760  178.2440  143.4960 C   0  0  0  0  0  0  0  0  0  0  0  0
  186.2570  177.7350  146.2480 C   0  0  0  0  0  3  0  0  0  0  0  0
  185.1240  178.0900  145.5160 C   0  0  0  0  0  3  0  0  0  0  0  0
  184.0770  178.7040  143.3990 C   0  0  0  0  0  0  0  0  0  0  0  0
  182.4900  178.8470  144.1430 Cl  0  0  0  0  0  0  0  0  0  0  0  0
  186.5630  178.5010  142.1200 C   0  0  0  0  0  3  0  0  0  0  0  0
  187.4960  177.6340  145.6140 C   0  0  0  0  0  3  0  0  0  0  0  0
  184.1910  178.9550  142.0300 C   0  0  0  0  0  3  0  0  0  0  0  0
  185.4310  178.8550  141.3830 C   0  0  0  0  0  0  0  0  0  0  0  0
  185.2170  178.3470  144.1420 C   0  0  0  0  0  0  0  0  0  0  0  0
  188.9680  177.7640  143.5780 C   0  0  2  0  0  3  0  0  0  0  0  0
  191.7430  177.1280  143.2490 C   0  0  0  0  0  2  0  0  0  0  0  0
  189.3640  176.3260  143.2990 C   0  0  0  0  0  0  0  0  0  0  0  0
  190.8130  175.9130  143.3240 C   0  0  0  0  0  2  0  0  0  0  0  0
  191.3210  178.1870  144.2280 C   0  0  0  0  0  3  0  0  0  0  0  0
  188.5160  175.5010  142.9970 O   0  0  0  0  0  0  0  0  0  0  0  0
  190.0260  178.4860  144.3780 C   0  0  0  0  0  3  0  0  0  0  0  0
  185.5650  179.1020  140.0150 O   0  0  0  0  0  0  0  0  0  0  0  0
  185.3670  178.0970  139.0300 C   0  0  0  0  0  2  0  0  0  0  0  0
  186.3580  178.2840  137.8940 C   0  0  2  0  0  3  0  0  0  0  0  0
  185.9740  177.4620  136.7580 N   0  0  0  0  0  1  0  0  0  0  0  0
  187.7330  177.9210  138.3440 C   0  0  0  0  0  0  0  0  0  0  0  0
  188.6070  178.9190  138.7520 O   0  0  0  0  0  1  0  0  0  0  0  0
  188.1040  176.7170  138.3710 O   0  0  0  0  0  0  0  0  0  0  0  0
  1  8  1  0  0  0  0
  2 11  1  0  0  0  0
  2  1  2  0  0  0  0
  4  3  1  0  0  0  0
  5 11  1  0  0  0  0
  5  6  1  0  0  0  0
  7  2  1  0  0  0  0
  8  3  2  0  0  0  0
  9  5  2  0  0  0  0
 10  9  1  0  0  0  0
 10  7  2  0  0  0  0
 11  4  2  0  0  0  0
 12  1  1  1  0  0  0
 12 18  1  0  0  0  0
 13 15  1  0  0  0  0
 13 16  1  0  0  0  0
 14 15  1  0  0  0  0
 14 12  1  0  0  0  0
 16 18  2  0  0  0  0
 17 14  2  0  0  0  0
 19 10  1  0  0  0  0
 20 19  1  0  0  0  0
 21 22  1  6  0  0  0
 21 23  1  0  0  0  0
 21 20  1  0  0  0  0
 23 25  2  0  0  0  0
 23 24  1  0  0  0  0
M  END
>  <MODEL>
2

>  <REMARK>
 VINA RESULT:      -8.8      2.832      5.988
  Name = 
  5 active torsions:
  status: ('A' for Active; 'I' for Inactive)
    1  A    between atoms: C_1  and  C_5
    2  A    between atoms: C_2  and  C_21
    3  A    between atoms: O_6  and  C_15
    4  A    between atoms: O_6  and  C_23
    5  A    between atoms: C_15  and  C_21
                            x       y       z     vdW  Elec       q    Type
                         _______ _______ _______ _____ _____    ______ ____

>  <TORSDO>
F 5

$$$$
=
 OpenBabel10262419433D

 25 27  0  0  1  0  0  0  0  0999 V2000
  187.4110  178.0140  145.7850 C   0  0  0  0  0  0  0  0  0  0  0  0
  188.6470  177.6630  145.2030 C   0  0  0  0  0  0  0  0  0  0  0  0
  188.1900  177.1760  147.9300 C   0  0  0  0  0  3  0  0  0  0  0  0
  189.4130  176.8260  147.3580 C   0  0  0  0  0  3  0  0  0  0  0  0
  190.8880  176.7110  145.4180 C   0  0  0  0  0  0  0  0  0  0  0  0
  192.1770  175.9650  146.3520 Cl  0  0  0  0  0  0  0  0  0  0  0  0
  188.8950  177.8980  143.8440 C   0  0  0  0  0  3  0  0  0  0  0  0
  187.1960  177.7660  147.1490 C   0  0  0  0  0  3  0  0  0  0  0  0
  191.1110  176.9570  144.0610 C   0  0  0  0  0  3  0  0  0  0  0  0
  190.1190  177.5510  143.2680 C   0  0  0  0  0  0  0  0  0  0  0  0
  189.6560  177.0620  145.9990 C   0  0  0  0  0  0  0  0  0  0  0  0
  186.3230  178.6590  144.9640 C   0  0  2  0  0  3  0  0  0  0  0  0
  183.8380  178.9520  143.5670 C   0  0  0  0  0  2  0  0  0  0  0  0
  185.0600  178.9280  145.7610 C   0  0  0  0  0  0  0  0  0  0  0  0
  183.7100  178.8830  145.0920 C   0  0  0  0  0  2  0  0  0  0  0  0
  184.8740  177.9810  143.0730 C   0  0  0  0  0  3  0  0  0  0  0  0
  185.1280  179.2370  146.9400 O   0  0  0  0  0  0  0  0  0  0  0  0
  186.0350  177.8490  143.7240 C   0  0  0  0  0  3  0  0  0  0  0  0
  190.3230  177.8040  141.9090 O   0  0  0  0  0  0  0  0  0  0  0  0
  189.4580  177.3080  140.8970 C   0  0  0  0  0  2  0  0  0  0  0  0
  188.8360  178.4660  140.1340 C   0  0  2  0  0  3  0  0  0  0  0  0
  187.4180  178.5590  140.4390 N   0  0  0  0  0  1  0  0  0  0  0  0
  189.0320  178.2800  138.6670 C   0  0  0  0  0  0  0  0  0  0  0  0
  189.0160  179.3860  137.8280 O   0  0  0  0  0  0  0  0  0  0  0  0
  189.2240  177.1320  138.1840 O   0  0  0  0  0  1  0  0  0  0  0  0
  1  8  1  0  0  0  0
  2  1  2  0  0  0  0
  2 11  1  0  0  0  0
  4  3  1  0  0  0  0
  5 11  1  0  0  0  0
  5  6  1  0  0  0  0
  7  2  1  0  0  0  0
  8  3  2  0  0  0  0
  9  5  2  0  0  0  0
 10  7  2  0  0  0  0
 10  9  1  0  0  0  0
 11  4  2  0  0  0  0
 12 14  1  0  0  0  0
 12  1  1  1  0  0  0
 13 15  1  0  0  0  0
 14 17  2  0  0  0  0
 15 14  1  0  0  0  0
 16 13  1  0  0  0  0
 16 18  2  0  0  0  0
 18 12  1  0  0  0  0
 19 10  1  0  0  0  0
 20 19  1  0  0  0  0
 21 22  1  6  0  0  0
 21 20  1  0  0  0  0
 23 21  1  0  0  0  0
 24 23  2  0  0  0  0
 25 23  1  0  0  0  0
M  END
>  <MODEL>
3

>  <REMARK>
 VINA RESULT:      -8.8      2.895      4.767
  Name = 
  5 active torsions:
  status: ('A' for Active; 'I' for Inactive)
    1  A    between atoms: C_1  and  C_5
    2  A    between atoms: C_2  and  C_21
    3  A    between atoms: O_6  and  C_15
    4  A    between atoms: O_6  and  C_23
    5  A    between atoms: C_15  and  C_21
                            x       y       z     vdW  Elec       q    Type
                         _______ _______ _______ _____ _____    ______ ____

>  <TORSDO>
F 5

$$$$
=
 OpenBabel10262419433D

 25 27  0  0  1  0  0  0  0  0999 V2000
  187.8060  177.8310  144.4080 C   0  0  0  0  0  0  0  0  0  0  0  0
  186.6160  178.2420  143.7730 C   0  0  0  0  0  0  0  0  0  0  0  0
  186.5990  177.6000  146.5060 C   0  0  0  0  0  3  0  0  0  0  0  0
  185.4200  178.0070  145.8810 C   0  0  0  0  0  3  0  0  0  0  0  0
  184.2260  178.7400  143.8830 C   0  0  0  0  0  0  0  0  0  0  0  0
  182.7030  178.8690  144.7540 Cl  0  0  0  0  0  0  0  0  0  0  0  0
  186.6030  178.5650  142.4080 C   0  0  0  0  0  3  0  0  0  0  0  0
  187.7840  177.5130  145.7740 C   0  0  0  0  0  3  0  0  0  0  0  0
  184.2390  179.0570  142.5230 C   0  0  0  0  0  3  0  0  0  0  0  0
  185.4250  178.9710  141.7790 C   0  0  0  0  0  0  0  0  0  0  0  0
  185.4120  178.3300  144.5180 C   0  0  0  0  0  0  0  0  0  0  0  0
  189.0990  177.7230  143.6390 C   0  0  2  0  0  3  0  0  0  0  0  0
  191.8290  177.0660  143.0680 C   0  0  0  0  0  2  0  0  0  0  0  0
  189.4480  176.2940  143.2650 C   0  0  0  0  0  0  0  0  0  0  0  0
  190.8870  175.8610  143.1590 C   0  0  0  0  0  2  0  0  0  0  0  0
  191.5010  178.0830  144.1240 C   0  0  0  0  0  3  0  0  0  0  0  0
  188.5660  175.4950  142.9920 O   0  0  0  0  0  0  0  0  0  0  0  0
  190.2260  178.3920  144.3870 C   0  0  0  0  0  3  0  0  0  0  0  0
  185.4580  179.2840  140.4180 O   0  0  0  0  0  0  0  0  0  0  0  0
  184.8950  178.4410  139.4220 C   0  0  0  0  0  2  0  0  0  0  0  0
  183.7300  179.1450  138.7470 C   0  0  2  0  0  3  0  0  0  0  0  0
  183.8510  180.5840  138.9190 N   0  0  0  0  0  1  0  0  0  0  0  0
  182.4380  178.6700  139.3220 C   0  0  0  0  0  0  0  0  0  0  0  0
  182.3860  177.4450  139.9720 O   0  0  0  0  0  1  0  0  0  0  0  0
  181.3970  179.3750  139.2350 O   0  0  0  0  0  0  0  0  0  0  0  0
  1  8  1  0  0  0  0
  2  1  2  0  0  0  0
  2 11  1  0  0  0  0
  4  3  1  0  0  0  0
  5 11  1  0  0  0  0
  5  6  1  0  0  0  0
  7  2  1  0  0  0  0
  8  3  2  0  0  0  0
  9  5  2  0  0  0  0
 10  7  2  0  0  0  0
 10  9  1  0  0  0  0
 11  4  2  0  0  0  0
 12 18  1  0  0  0  0
 12  1  1  1  0  0  0
 13 15  1  0  0  0  0
 13 16  1  0  0  0  0
 14 12  1  0  0  0  0
 15 14  1  0  0  0  0
 16 18  2  0  0  0  0
 17 14  2  0  0  0  0
 19 10  1  0  0  0  0
 20 19  1  0  0  0  0
 21 22  1  1  0  0  0
 21 23  1  0  0  0  0
 21 20  1  0  0  0  0
 23 24  1  0  0  0  0
 25 23  2  0  0  0  0
M  END
>  <MODEL>
4

>  <REMARK>
 VINA RESULT:      -8.6      2.897      6.781
  Name = 
  5 active torsions:
  status: ('A' for Active; 'I' for Inactive)
    1  A    between atoms: C_1  and  C_5
    2  A    between atoms: C_2  and  C_21
    3  A    between atoms: O_6  and  C_15
    4  A    between atoms: O_6  and  C_23
    5  A    between atoms: C_15  and  C_21
                            x       y       z     vdW  Elec       q    Type
                         _______ _______ _______ _____ _____    ______ ____

>  <TORSDO>
F 5

$$$$
=
 OpenBabel10262419433D

 25 27  0  0  1  0  0  0  0  0999 V2000
  184.5150  178.1850  143.0600 C   0  0  0  0  0  0  0  0  0  0  0  0
  185.7150  177.9720  143.7690 C   0  0  0  0  0  0  0  0  0  0  0  0
  183.4410  178.9200  145.1140 C   0  0  0  0  0  3  0  0  0  0  0  0
  184.6260  178.7100  145.8180 C   0  0  0  0  0  3  0  0  0  0  0  0
  186.9670  178.0240  145.8670 C   0  0  0  0  0  0  0  0  0  0  0  0
  187.0960  178.3340  147.5930 Cl  0  0  0  0  0  0  0  0  0  0  0  0
  186.8630  177.5000  143.1150 C   0  0  0  0  0  3  0  0  0  0  0  0
  183.3860  178.6600  143.7440 C   0  0  0  0  0  3  0  0  0  0  0  0
  188.0960  177.5530  145.1930 C   0  0  0  0  0  3  0  0  0  0  0  0
  188.0520  177.2900  143.8170 C   0  0  0  0  0  0  0  0  0  0  0  0
  185.7690  178.2370  145.1610 C   0  0  0  0  0  0  0  0  0  0  0  0
  184.4310  177.9170  141.5780 C   0  0  2  0  0  3  0  0  0  0  0  0
  183.5480  178.1440  138.8610 C   0  0  0  0  0  2  0  0  0  0  0  0
  184.9330  179.0760  140.7370 C   0  0  0  0  0  0  0  0  0  0  0  0
  184.3390  179.3490  139.3790 C   0  0  0  0  0  2  0  0  0  0  0  0
  182.6160  177.6210  139.9180 C   0  0  0  0  0  3  0  0  0  0  0  0
  185.8620  179.7650  141.1290 O   0  0  0  0  0  0  0  0  0  0  0  0
  183.0300  177.5130  141.1850 C   0  0  0  0  0  3  0  0  0  0  0  0
  189.1700  176.8190  143.1250 O   0  0  0  0  0  0  0  0  0  0  0  0
  190.0060  177.6660  142.3490 C   0  0  0  0  0  2  0  0  0  0  0  0
  190.3520  176.9870  141.0350 C   0  0  2  0  0  3  0  0  0  0  0  0
  191.7680  177.1500  140.7470 N   0  0  0  0  0  1  0  0  0  0  0  0
  189.5370  177.5630  139.9260 C   0  0  0  0  0  0  0  0  0  0  0  0
  189.9990  177.4810  138.6200 O   0  0  0  0  0  0  0  0  0  0  0  0
  188.4280  178.1120  140.1630 O   0  0  0  0  0  1  0  0  0  0  0  0
  1  8  2  0  0  0  0
  1  2  1  0  0  0  0
  2 11  1  0  0  0  0
  3  4  2  0  0  0  0
  5  6  1  0  0  0  0
  7  2  2  0  0  0  0
  7 10  1  0  0  0  0
  8  3  1  0  0  0  0
  9  5  1  0  0  0  0
 10  9  2  0  0  0  0
 11  4  1  0  0  0  0
 11  5  2  0  0  0  0
 12  1  1  1  0  0  0
 13 15  1  0  0  0  0
 13 16  1  0  0  0  0
 14 17  2  0  0  0  0
 14 12  1  0  0  0  0
 15 14  1  0  0  0  0
 16 18  2  0  0  0  0
 18 12  1  0  0  0  0
 19 10  1  0  0  0  0
 20 19  1  0  0  0  0
 21 22  1  6  0  0  0
 21 20  1  0  0  0  0
 23 25  1  0  0  0  0
 23 21  1  0  0  0  0
 24 23  2  0  0  0  0
M  END
>  <MODEL>
5

>  <REMARK>
 VINA RESULT:      -8.2      1.504      2.209
  Name = 
  5 active torsions:
  status: ('A' for Active; 'I' for Inactive)
    1  A    between atoms: C_1  and  C_5
    2  A    between atoms: C_2  and  C_21
    3  A    between atoms: O_6  and  C_15
    4  A    between atoms: O_6  and  C_23
    5  A    between atoms: C_15  and  C_21
                            x       y       z     vdW  Elec       q    Type
                         _______ _______ _______ _____ _____    ______ ____

>  <TORSDO>
F 5

$$$$
=
 OpenBabel10262419433D

 25 27  0  0  1  0  0  0  0  0999 V2000
  187.2950  177.7300  145.5380 C   0  0  0  0  0  0  0  0  0  0  0  0
  186.5270  178.0910  144.4110 C   0  0  0  0  0  0  0  0  0  0  0  0
  185.4320  178.3140  146.9870 C   0  0  0  0  0  3  0  0  0  0  0  0
  184.6700  178.6740  145.8760 C   0  0  0  0  0  3  0  0  0  0  0  0
  184.4370  178.9280  143.4600 C   0  0  0  0  0  0  0  0  0  0  0  0
  182.7900  179.5250  143.6100 Cl  0  0  0  0  0  0  0  0  0  0  0  0
  187.0550  177.9860  143.1170 C   0  0  0  0  0  3  0  0  0  0  0  0
  186.7360  177.8460  146.8190 C   0  0  0  0  0  3  0  0  0  0  0  0
  184.9860  178.8140  142.1810 C   0  0  0  0  0  3  0  0  0  0  0  0
  186.2950  178.3430  142.0010 C   0  0  0  0  0  0  0  0  0  0  0  0
  185.2020  178.5680  144.5840 C   0  0  0  0  0  0  0  0  0  0  0  0
  188.7040  177.2150  145.3830 C   0  0  2  0  0  3  0  0  0  0  0  0
  191.5640  177.1380  145.5610 C   0  0  0  0  0  2  0  0  0  0  0  0
  189.3480  176.8430  146.7060 C   0  0  0  0  0  0  0  0  0  0  0  0
  190.8350  176.9900  146.9000 C   0  0  0  0  0  2  0  0  0  0  0  0
  190.8870  178.1630  144.6950 C   0  0  0  0  0  3  0  0  0  0  0  0
  188.6750  176.3690  147.6080 O   0  0  0  0  0  0  0  0  0  0  0  0
  189.5520  178.1960  144.6100 C   0  0  0  0  0  3  0  0  0  0  0  0
  186.8610  178.2220  140.7300 O   0  0  0  0  0  0  0  0  0  0  0  0
  188.2610  178.3080  140.5010 C   0  0  0  0  0  2  0  0  0  0  0  0
  188.6260  177.5480  139.2370 C   0  0  2  0  0  3  0  0  0  0  0  0
  190.0560  177.2890  139.2080 N   0  0  0  0  0  1  0  0  0  0  0  0
  188.2240  178.3310  138.0320 C   0  0  0  0  0  0  0  0  0  0  0  0
  188.9430  179.4640  137.6790 O   0  0  0  0  0  1  0  0  0  0  0  0
  187.2470  177.9650  137.3250 O   0  0  0  0  0  0  0  0  0  0  0  0
  1  8  1  0  0  0  0
  2 11  1  0  0  0  0
  2  1  2  0  0  0  0
  4  3  1  0  0  0  0
  5  6  1  0  0  0  0
  5 11  1  0  0  0  0
  7  2  1  0  0  0  0
  8  3  2  0  0  0  0
  9  5  2  0  0  0  0
 10  9  1  0  0  0  0
 10  7  2  0  0  0  0
 11  4  2  0  0  0  0
 12  1  1  1  0  0  0
 12 14  1  0  0  0  0
 13 15  1  0  0  0  0
 14 15  1  0  0  0  0
 14 17  2  0  0  0  0
 16 13  1  0  0  0  0
 18 16  2  0  0  0  0
 18 12  1  0  0  0  0
 19 10  1  0  0  0  0
 20 19  1  0  0  0  0
 21 22  1  6  0  0  0
 21 20  1  0  0  0  0
 23 21  1  0  0  0  0
 24 23  1  0  0  0  0
 25 23  2  0  0  0  0
M  END
>  <MODEL>
6

>  <REMARK>
 VINA RESULT:      -8.1      2.769      5.971
  Name = 
  5 active torsions:
  status: ('A' for Active; 'I' for Inactive)
    1  A    between atoms: C_1  and  C_5
    2  A    between atoms: C_2  and  C_21
    3  A    between atoms: O_6  and  C_15
    4  A    between atoms: O_6  and  C_23
    5  A    between atoms: C_15  and  C_21
                            x       y       z     vdW  Elec       q    Type
                         _______ _______ _______ _____ _____    ______ ____

>  <TORSDO>
F 5

$$$$
=
 OpenBabel10262419433D

 25 27  0  0  1  0  0  0  0  0999 V2000
  188.4310  177.3510  143.4050 C   0  0  0  0  0  0  0  0  0  0  0  0
  187.1650  177.7520  143.8810 C   0  0  0  0  0  0  0  0  0  0  0  0
  189.2820  177.3620  145.6830 C   0  0  0  0  0  3  0  0  0  0  0  0
  188.0320  177.7600  146.1570 C   0  0  0  0  0  3  0  0  0  0  0  0
  185.7030  178.3580  145.7440 C   0  0  0  0  0  0  0  0  0  0  0  0
  185.3940  178.6300  147.4530 Cl  0  0  0  0  0  0  0  0  0  0  0  0
  186.0940  177.9500  142.9980 C   0  0  0  0  0  3  0  0  0  0  0  0
  189.4800  177.1590  144.3170 C   0  0  0  0  0  3  0  0  0  0  0  0
  184.6520  178.5490  144.8430 C   0  0  0  0  0  3  0  0  0  0  0  0
  184.8400  178.3460  143.4680 C   0  0  0  0  0  0  0  0  0  0  0  0
  186.9660  177.9580  145.2710 C   0  0  0  0  0  0  0  0  0  0  0  0
  188.6680  177.1190  141.9350 C   0  0  2  0  0  3  0  0  0  0  0  0
  189.8280  177.4080  139.3290 C   0  0  0  0  0  2  0  0  0  0  0  0
  190.0030  176.4570  141.6470 C   0  0  0  0  0  0  0  0  0  0  0  0
  190.7430  176.7520  140.3680 C   0  0  0  0  0  2  0  0  0  0  0  0
  189.0500  178.5390  139.9410 C   0  0  0  0  0  3  0  0  0  0  0  0
  190.4650  175.6370  142.4250 O   0  0  0  0  0  0  0  0  0  0  0  0
  188.5060  178.4010  141.1560 C   0  0  0  0  0  3  0  0  0  0  0  0
  183.8020  178.5320  142.5530 O   0  0  0  0  0  0  0  0  0  0  0  0
  183.7520  177.8610  141.3010 C   0  0  0  0  0  2  0  0  0  0  0  0
  183.1990  178.7930  140.2360 C   0  0  2  0  0  3  0  0  0  0  0  0
  182.2920  178.0680  139.3620 N   0  0  0  0  0  1  0  0  0  0  0  0
  184.3140  179.3830  139.4390 C   0  0  0  0  0  0  0  0  0  0  0  0
  185.5040  178.6810  139.3000 O   0  0  0  0  0  1  0  0  0  0  0  0
  184.1820  180.5040  138.8810 O   0  0  0  0  0  0  0  0  0  0  0  0
  1  2  2  0  0  0  0
  1  8  1  0  0  0  0
  2 11  1  0  0  0  0
  3  4  1  0  0  0  0
  5  6  1  0  0  0  0
  7 10  2  0  0  0  0
  7  2  1  0  0  0  0
  8  3  2  0  0  0  0
  9  5  2  0  0  0  0
 10  9  1  0  0  0  0
 11  5  1  0  0  0  0
 11  4  2  0  0  0  0
 12  1  1  1  0  0  0
 13 16  1  0  0  0  0
 13 15  1  0  0  0  0
 14 12  1  0  0  0  0
 14 17  2  0  0  0  0
 15 14  1  0  0  0  0
 16 18  2  0  0  0  0
 18 12  1  0  0  0  0
 19 10  1  0  0  0  0
 20 19  1  0  0  0  0
 21 22  1  6  0  0  0
 21 20  1  0  0  0  0
 23 21  1  0  0  0  0
 24 23  1  0  0  0  0
 25 23  2  0  0  0  0
M  END
>  <MODEL>
7

>  <REMARK>
 VINA RESULT:      -7.9      2.753      5.975
  Name = 
  5 active torsions:
  status: ('A' for Active; 'I' for Inactive)
    1  A    between atoms: C_1  and  C_5
    2  A    between atoms: C_2  and  C_21
    3  A    between atoms: O_6  and  C_15
    4  A    between atoms: O_6  and  C_23
    5  A    between atoms: C_15  and  C_21
                            x       y       z     vdW  Elec       q    Type
                         _______ _______ _______ _____ _____    ______ ____

>  <TORSDO>
F 5

$$$$
=
 OpenBabel10262419433D

 25 27  0  0  1  0  0  0  0  0999 V2000
  189.1650  177.2620  144.0950 C   0  0  0  0  0  0  0  0  0  0  0  0
  188.1850  177.5900  145.0540 C   0  0  0  0  0  0  0  0  0  0  0  0
  190.8320  177.1170  145.8590 C   0  0  0  0  0  3  0  0  0  0  0  0
  189.8660  177.4430  146.8100 C   0  0  0  0  0  3  0  0  0  0  0  0
  187.5620  178.0100  147.3800 C   0  0  0  0  0  0  0  0  0  0  0  0
  187.9410  178.1390  149.0920 Cl  0  0  0  0  0  0  0  0  0  0  0  0
  186.8570  177.8290  144.6730 C   0  0  0  0  0  3  0  0  0  0  0  0
  190.4850  177.0270  144.5110 C   0  0  0  0  0  3  0  0  0  0  0  0
  186.2460  178.2440  146.9740 C   0  0  0  0  0  3  0  0  0  0  0  0
  185.8860  178.1540  145.6220 C   0  0  0  0  0  0  0  0  0  0  0  0
  188.5410  177.6820  146.4250 C   0  0  0  0  0  0  0  0  0  0  0  0
  188.8140  177.1520  142.6330 C   0  0  2  0  0  3  0  0  0  0  0  0
  188.9170  177.6320  139.8090 C   0  0  0  0  0  2  0  0  0  0  0  0
  189.8970  176.4770  141.8120 C   0  0  0  0  0  0  0  0  0  0  0  0
  190.1150  176.8600  140.3710 C   0  0  0  0  0  2  0  0  0  0  0  0
  188.5000  178.7290  140.7490 C   0  0  0  0  0  3  0  0  0  0  0  0
  190.5680  175.5780  142.2950 O   0  0  0  0  0  0  0  0  0  0  0  0
  188.4480  178.5020  142.0660 C   0  0  0  0  0  3  0  0  0  0  0  0
  184.5750  178.3840  145.1970 O   0  0  0  0  0  0  0  0  0  0  0  0
  184.2440  179.3670  144.2260 C   0  0  0  0  0  2  0  0  0  0  0  0
  184.1030  178.7180  142.8600 C   0  0  2  0  0  3  0  0  0  0  0  0
  184.9500  179.3980  141.8940 N   0  0  0  0  0  1  0  0  0  0  0  0
  182.6800  178.7630  142.4120 C   0  0  0  0  0  0  0  0  0  0  0  0
  181.7290  179.3810  143.2120 O   0  0  0  0  0  1  0  0  0  0  0  0
  182.3370  178.2590  141.3100 O   0  0  0  0  0  0  0  0  0  0  0  0
  1  8  2  0  0  0  0
  1  2  1  0  0  0  0
  2 11  1  0  0  0  0
  3  4  2  0  0  0  0
  5  6  1  0  0  0  0
  7  2  2  0  0  0  0
  7 10  1  0  0  0  0
  8  3  1  0  0  0  0
  9  5  1  0  0  0  0
 10  9  2  0  0  0  0
 11  4  1  0  0  0  0
 11  5  2  0  0  0  0
 12  1  1  1  0  0  0
 13 15  1  0  0  0  0
 13 16  1  0  0  0  0
 14 17  2  0  0  0  0
 14 12  1  0  0  0  0
 15 14  1  0  0  0  0
 16 18  2  0  0  0  0
 18 12  1  0  0  0  0
 19 10  1  0  0  0  0
 20 19  1  0  0  0  0
 21 22  1  6  0  0  0
 21 20  1  0  0  0  0
 23 21  1  0  0  0  0
 23 24  1  0  0  0  0
 25 23  2  0  0  0  0
M  END
>  <MODEL>
8

>  <REMARK>
 VINA RESULT:      -7.8      2.702      5.992
  Name = 
  5 active torsions:
  status: ('A' for Active; 'I' for Inactive)
    1  A    between atoms: C_1  and  C_5
    2  A    between atoms: C_2  and  C_21
    3  A    between atoms: O_6  and  C_15
    4  A    between atoms: O_6  and  C_23
    5  A    between atoms: C_15  and  C_21
                            x       y       z     vdW  Elec       q    Type
                         _______ _______ _______ _____ _____    ______ ____

>  <TORSDO>
F 5

$$$$
=
 OpenBabel10262419433D

 25 27  0  0  1  0  0  0  0  0999 V2000
  188.4680  177.3910  143.3970 C   0  0  0  0  0  0  0  0  0  0  0  0
  187.2240  177.7550  143.9540 C   0  0  0  0  0  0  0  0  0  0  0  0
  189.4770  177.4840  145.6080 C   0  0  0  0  0  3  0  0  0  0  0  0
  188.2490  177.8450  146.1620 C   0  0  0  0  0  3  0  0  0  0  0  0
  185.8750  178.3470  145.9040 C   0  0  0  0  0  0  0  0  0  0  0  0
  185.6770  178.6440  147.6260 Cl  0  0  0  0  0  0  0  0  0  0  0  0
  186.0870  177.8940  143.1460 C   0  0  0  0  0  3  0  0  0  0  0  0
  189.5860  177.2580  144.2350 C   0  0  0  0  0  3  0  0  0  0  0  0
  184.7570  178.4790  145.0770 C   0  0  0  0  0  3  0  0  0  0  0  0
  184.8560  178.2530  143.6960 C   0  0  0  0  0  0  0  0  0  0  0  0
  187.1160  177.9840  145.3500 C   0  0  0  0  0  0  0  0  0  0  0  0
  188.6110  177.1360  141.9180 C   0  0  2  0  0  3  0  0  0  0  0  0
  189.5970  177.3880  139.2390 C   0  0  0  0  0  2  0  0  0  0  0  0
  189.9280  176.4750  141.5550 C   0  0  0  0  0  0  0  0  0  0  0  0
  190.5820  176.7530  140.2260 C   0  0  0  0  0  2  0  0  0  0  0  0
  188.8540  178.5250  139.8820 C   0  0  0  0  0  3  0  0  0  0  0  0
  190.4440  175.6700  142.3140 O   0  0  0  0  0  0  0  0  0  0  0  0
  188.3910  178.4050  141.1310 C   0  0  0  0  0  3  0  0  0  0  0  0
  183.7490  178.3810  142.8530 O   0  0  0  0  0  0  0  0  0  0  0  0
  182.5560  179.0440  143.2480 C   0  0  0  0  0  2  0  0  0  0  0  0
  181.4100  178.6280  142.3410 C   0  0  2  0  0  3  0  0  0  0  0  0
  181.7010  179.0030  140.9670 N   0  0  0  0  0  1  0  0  0  0  0  0
  180.1400  179.2720  142.7870 C   0  0  0  0  0  0  0  0  0  0  0  0
  180.0560  180.6560  142.8440 O   0  0  0  0  0  0  0  0  0  0  0  0
  179.1400  178.5720  143.1000 O   0  0  0  0  0  1  0  0  0  0  0  0
  1  2  2  0  0  0  0
  1  8  1  0  0  0  0
  2 11  1  0  0  0  0
  3  4  1  0  0  0  0
  5  6  1  0  0  0  0
  7 10  2  0  0  0  0
  7  2  1  0  0  0  0
  8  3  2  0  0  0  0
  9  5  2  0  0  0  0
 10  9  1  0  0  0  0
 11  5  1  0  0  0  0
 11  4  2  0  0  0  0
 12  1  1  1  0  0  0
 13 16  1  0  0  0  0
 13 15  1  0  0  0  0
 14 12  1  0  0  0  0
 14 17  2  0  0  0  0
 15 14  1  0  0  0  0
 16 18  2  0  0  0  0
 18 12  1  0  0  0  0
 19 20  1  0  0  0  0
 19 10  1  0  0  0  0
 21 22  1  6  0  0  0
 21 23  1  0  0  0  0
 21 20  1  0  0  0  0
 23 24  2  0  0  0  0
 23 25  1  0  0  0  0
M  END
>  <MODEL>
9

>  <REMARK>
 VINA RESULT:      -7.6      3.432      6.740
  Name = 
  5 active torsions:
  status: ('A' for Active; 'I' for Inactive)
    1  A    between atoms: C_1  and  C_5
    2  A    between atoms: C_2  and  C_21
    3  A    between atoms: O_6  and  C_15
    4  A    between atoms: O_6  and  C_23
    5  A    between atoms: C_15  and  C_21
                            x       y       z     vdW  Elec       q    Type
                         _______ _______ _______ _____ _____    ______ ____

>  <TORSDO>
F 5

$$$$
