=
 OpenBabel10262421323D

 32 36  0  0  1  0  0  0  0  0999 V2000
  180.4410  179.3000  142.0550 C   0  0  1  0  0  3  0  0  0  0  0  0
  185.3350  177.9630  142.9140 C   0  0  0  0  0  0  0  0  0  0  0  0
  186.0930  178.6860  147.6610 C   0  0  0  0  0  3  0  0  0  0  0  0
  187.3820  178.1650  147.5220 C   0  0  0  0  0  3  0  0  0  0  0  0
  183.2350  178.5590  141.8570 C   0  0  0  0  0  0  0  0  0  0  0  0
  183.5430  178.9260  144.2390 C   0  0  0  0  0  3  0  0  0  0  0  0
  181.3700  179.6180  143.2310 C   0  0  0  0  0  2  0  0  0  0  0  0
  185.2490  178.7690  146.5530 C   0  0  0  0  0  3  0  0  0  0  0  0
  184.8460  178.4110  144.1610 C   0  0  0  0  0  0  0  0  0  0  0  0
  185.6820  178.3320  145.2890 C   0  0  0  0  0  0  0  0  0  0  0  0
  187.4250  177.3650  143.8860 C   0  0  0  0  0  0  0  0  0  0  0  0
  181.1790  179.4820  140.7300 C   0  0  0  0  0  2  0  0  0  0  0  0
  182.7300  178.9890  143.1030 C   0  0  0  0  0  0  0  0  0  0  0  0
  182.3800  178.5400  140.6230 C   0  0  0  0  0  2  0  0  0  0  0  0
  187.8270  177.7260  146.2740 C   0  0  0  0  0  3  0  0  0  0  0  0
  186.9900  177.8030  145.1510 C   0  0  0  0  0  0  0  0  0  0  0  0
  184.5280  178.0350  141.7780 C   0  0  0  0  0  3  0  0  0  0  0  0
  186.5940  177.4610  142.8140 N   0  0  0  0  0  0  0  0  0  0  0  0
  179.8430  177.9040  142.1710 C   0  0  0  0  0  2  0  0  0  0  0  0
  179.2420  176.0030  140.6300 C   0  0  0  0  0  0  0  0  0  0  0  0
  179.5330  177.3840  140.8480 N   0  0  0  0  0  2  0  0  0  0  0  0
  179.2440  175.1870  141.5880 O   0  0  0  0  0  0  0  0  0  0  0  0
  178.9310  175.5270  139.2570 C   0  0  0  0  0  1  0  0  0  0  0  0
  188.8080  176.8340  143.6720 C   0  0  0  0  0  2  0  0  0  0  0  0
  189.6310  177.1060  141.3280 C   0  0  1  0  0  3  0  0  0  0  0  0
  191.0230  177.8290  143.1420 C   0  0  1  0  0  3  0  0  0  0  0  0
  191.8430  177.8420  141.9400 N   0  0  0  0  0  2  0  0  0  0  0  0
  191.0970  177.0860  140.9440 C   0  0  0  0  0  2  0  0  0  0  0  0
  191.2370  179.1080  143.9240 C   0  0  0  0  0  1  0  0  0  0  0  0
  189.5800  177.7230  142.7070 C   0  0  2  0  0  3  0  0  0  0  0  0
  188.2910  178.6030  139.6420 N   0  0  0  0  0  0  0  0  0  0  0  0
  188.8810  177.9440  140.3870 C   0  0  0  0  0  0  0  0  0  0  0  0
  1 19  1  1  0  0  0
  1  7  1  0  0  0  0
  2  9  1  0  0  0  0
  4  3  1  0  0  0  0
  5 13  1  0  0  0  0
  8  3  2  0  0  0  0
  9  6  1  0  0  0  0
  9 10  2  0  0  0  0
 10  8  1  0  0  0  0
 11 16  2  0  0  0  0
 12  1  1  0  0  0  0
 13  7  1  0  0  0  0
 13  6  2  0  0  0  0
 14 12  1  0  0  0  0
 14  5  1  0  0  0  0
 15  4  2  0  0  0  0
 16 10  1  0  0  0  0
 16 15  1  0  0  0  0
 17  5  2  0  0  0  0
 17  2  1  0  0  0  0
 18  2  2  0  0  0  0
 18 11  1  0  0  0  0
 20 21  1  0  0  0  0
 20 22  2  0  0  0  0
 21 19  1  0  0  0  0
 23 20  1  0  0  0  0
 24 11  1  0  0  0  0
 25 32  1  6  0  0  0
 25 30  1  0  0  0  0
 26 29  1  6  0  0  0
 27 26  1  0  0  0  0
 28 25  1  0  0  0  0
 28 27  1  0  0  0  0
 30 26  1  0  0  0  0
 30 24  1  1  0  0  0
 31 32  3  0  0  0  0
M  END
>  <MODEL>
1

>  <REMARK>
 VINA RESULT:     -10.3      0.000      0.000
  Name = 
  5 active torsions:
  status: ('A' for Active; 'I' for Inactive)
    1  A    between atoms: C_2  and  C_24
    2  A    between atoms: C_7  and  C_29
    3  A    between atoms: N_10  and  C_24
    4  A    between atoms: C_16  and  C_27
    5  A    between atoms: C_27  and  C_32
                            x       y       z     vdW  Elec       q    Type
                         _______ _______ _______ _____ _____    ______ ____

>  <TORSDO>
F 5

$$$$
=
 OpenBabel10262421323D

 32 36  0  0  1  0  0  0  0  0999 V2000
  188.9350  177.5740  136.7860 C   0  0  1  0  0  3  0  0  0  0  0  0
  188.6410  177.1690  141.9070 C   0  0  0  0  0  0  0  0  0  0  0  0
  184.5440  179.4540  143.1840 C   0  0  0  0  0  3  0  0  0  0  0  0
  184.7590  179.0720  144.5100 C   0  0  0  0  0  3  0  0  0  0  0  0
  189.4190  177.1440  139.6100 C   0  0  0  0  0  0  0  0  0  0  0  0
  187.3520  178.2860  140.1790 C   0  0  0  0  0  3  0  0  0  0  0  0
  188.0990  178.3580  137.8020 C   0  0  0  0  0  2  0  0  0  0  0  0
  185.4520  179.0790  142.1920 C   0  0  0  0  0  3  0  0  0  0  0  0
  187.5140  177.9310  141.5270 C   0  0  0  0  0  0  0  0  0  0  0  0
  186.5880  178.3150  142.5130 C   0  0  0  0  0  0  0  0  0  0  0  0
  187.9400  177.1640  144.1820 C   0  0  0  0  0  0  0  0  0  0  0  0
  190.3680  177.4100  137.2910 C   0  0  0  0  0  2  0  0  0  0  0  0
  188.2850  177.8870  139.2170 C   0  0  0  0  0  0  0  0  0  0  0  0
  190.4120  176.6320  138.6070 C   0  0  0  0  0  2  0  0  0  0  0  0
  185.8820  178.3140  144.8460 C   0  0  0  0  0  3  0  0  0  0  0  0
  186.8030  177.9280  143.8600 C   0  0  0  0  0  0  0  0  0  0  0  0
  189.5780  176.7790  140.9490 C   0  0  0  0  0  3  0  0  0  0  0  0
  188.8190  176.8140  143.2060 N   0  0  0  0  0  0  0  0  0  0  0  0
  188.3050  176.2280  136.4550 C   0  0  0  0  0  2  0  0  0  0  0  0
  186.0300  175.2630  136.9490 C   0  0  0  0  0  0  0  0  0  0  0  0
  186.8540  176.3350  136.4900 N   0  0  0  0  0  2  0  0  0  0  0  0
  186.5420  174.1820  137.3410 O   0  0  0  0  0  0  0  0  0  0  0  0
  184.5530  175.4280  136.9650 C   0  0  0  0  0  1  0  0  0  0  0  0
  188.2400  176.7600  145.5930 C   0  0  0  0  0  2  0  0  0  0  0  0
  190.7230  176.9820  145.4280 C   0  0  1  0  0  3  0  0  0  0  0  0
  189.6760  177.1900  147.5750 C   0  0  1  0  0  3  0  0  0  0  0  0
  191.1080  177.0810  147.8050 N   0  0  0  0  0  2  0  0  0  0  0  0
  191.6760  176.6150  146.5480 C   0  0  0  0  0  2  0  0  0  0  0  0
  189.1040  178.3110  148.4180 C   0  0  0  0  0  1  0  0  0  0  0  0
  189.4720  177.4900  146.1080 C   0  0  2  0  0  3  0  0  0  0  0  0
  191.7620  178.8950  143.9650 N   0  0  0  0  0  0  0  0  0  0  0  0
  191.3050  178.0500  144.6100 C   0  0  0  0  0  0  0  0  0  0  0  0
  1 19  1  1  0  0  0
  1 12  1  0  0  0  0
  1  7  1  0  0  0  0
  2 18  1  0  0  0  0
  3  4  1  0  0  0  0
  4 15  2  0  0  0  0
  5 17  1  0  0  0  0
  6  9  2  0  0  0  0
  7 13  1  0  0  0  0
  8 10  1  0  0  0  0
  8  3  2  0  0  0  0
  9  2  1  0  0  0  0
  9 10  1  0  0  0  0
 10 16  2  0  0  0  0
 11 24  1  0  0  0  0
 12 14  1  0  0  0  0
 13  5  2  0  0  0  0
 13  6  1  0  0  0  0
 14  5  1  0  0  0  0
 16 11  1  0  0  0  0
 16 15  1  0  0  0  0
 17  2  2  0  0  0  0
 18 11  2  0  0  0  0
 19 21  1  0  0  0  0
 20 23  1  0  0  0  0
 20 22  2  0  0  0  0
 21 20  1  0  0  0  0
 25 32  1  6  0  0  0
 25 30  1  0  0  0  0
 25 28  1  0  0  0  0
 26 27  1  0  0  0  0
 26 29  1  1  0  0  0
 28 27  1  0  0  0  0
 30 24  1  6  0  0  0
 30 26  1  0  0  0  0
 31 32  3  0  0  0  0
M  END
>  <MODEL>
2

>  <REMARK>
 VINA RESULT:      -9.2      3.441      6.033
  Name = 
  5 active torsions:
  status: ('A' for Active; 'I' for Inactive)
    1  A    between atoms: C_2  and  C_24
    2  A    between atoms: C_7  and  C_29
    3  A    between atoms: N_10  and  C_24
    4  A    between atoms: C_16  and  C_27
    5  A    between atoms: C_27  and  C_32
                            x       y       z     vdW  Elec       q    Type
                         _______ _______ _______ _____ _____    ______ ____

>  <TORSDO>
F 5

$$$$
=
 OpenBabel10262421323D

 32 36  0  0  1  0  0  0  0  0999 V2000
  179.7940  178.5850  140.2010 C   0  0  1  0  0  3  0  0  0  0  0  0
  184.9240  178.8360  140.5030 C   0  0  0  0  0  0  0  0  0  0  0  0
  186.0340  177.7630  145.1130 C   0  0  0  0  0  3  0  0  0  0  0  0
  187.3910  177.8370  144.7910 C   0  0  0  0  0  3  0  0  0  0  0  0
  182.6230  179.0290  139.7620 C   0  0  0  0  0  0  0  0  0  0  0  0
  183.1100  178.4700  142.0750 C   0  0  0  0  0  3  0  0  0  0  0  0
  180.7170  178.6980  141.4180 C   0  0  0  0  0  2  0  0  0  0  0  0
  185.0680  177.9900  144.1310 C   0  0  0  0  0  3  0  0  0  0  0  0
  184.4870  178.5280  141.8110 C   0  0  0  0  0  0  0  0  0  0  0  0
  185.4470  178.2940  142.8120 C   0  0  0  0  0  0  0  0  0  0  0  0
  187.2050  178.6710  141.1670 C   0  0  0  0  0  0  0  0  0  0  0  0
  180.2470  179.5430  139.1000 C   0  0  0  0  0  2  0  0  0  0  0  0
  182.1770  178.7020  141.0610 C   0  0  0  0  0  0  0  0  0  0  0  0
  181.6630  179.2180  138.6230 C   0  0  0  0  0  2  0  0  0  0  0  0
  187.7840  178.1370  143.4850 C   0  0  0  0  0  3  0  0  0  0  0  0
  186.8250  178.3670  142.4880 C   0  0  0  0  0  0  0  0  0  0  0  0
  183.9930  179.0780  139.4920 C   0  0  0  0  0  3  0  0  0  0  0  0
  186.2520  178.8990  140.2240 N   0  0  0  0  0  0  0  0  0  0  0  0
  179.7060  177.1530  139.6900 C   0  0  0  0  0  2  0  0  0  0  0  0
  179.5810  174.8350  140.6710 C   0  0  0  0  0  0  0  0  0  0  0  0
  179.4170  176.2480  140.7920 N   0  0  0  0  0  2  0  0  0  0  0  0
  179.9860  174.3260  139.5930 O   0  0  0  0  0  0  0  0  0  0  0  0
  179.2710  173.9580  141.8290 C   0  0  0  0  0  1  0  0  0  0  0  0
  188.6440  178.8010  140.7740 C   0  0  0  0  0  2  0  0  0  0  0  0
  190.5490  177.2360  141.1850 C   0  0  1  0  0  3  0  0  0  0  0  0
  189.5870  177.3490  138.9910 C   0  0  1  0  0  3  0  0  0  0  0  0
  190.8240  176.5920  138.8780 N   0  0  0  0  0  2  0  0  0  0  0  0
  191.5480  176.8300  140.1200 C   0  0  0  0  0  2  0  0  0  0  0  0
  188.4820  176.6420  138.2350 C   0  0  0  0  0  1  0  0  0  0  0  0
  189.2380  177.4350  140.4580 C   0  0  2  0  0  3  0  0  0  0  0  0
  190.2970  175.3090  142.9470 N   0  0  0  0  0  0  0  0  0  0  0  0
  190.4060  176.1590  142.1690 C   0  0  0  0  0  0  0  0  0  0  0  0
  1 19  1  6  0  0  0
  1  7  1  0  0  0  0
  2  9  1  0  0  0  0
  4  3  1  0  0  0  0
  5 13  1  0  0  0  0
  8  3  2  0  0  0  0
  9  6  1  0  0  0  0
  9 10  2  0  0  0  0
 10  8  1  0  0  0  0
 11 16  2  0  0  0  0
 12  1  1  0  0  0  0
 13  7  1  0  0  0  0
 13  6  2  0  0  0  0
 14 12  1  0  0  0  0
 14  5  1  0  0  0  0
 15  4  2  0  0  0  0
 16 10  1  0  0  0  0
 16 15  1  0  0  0  0
 17  5  2  0  0  0  0
 17  2  1  0  0  0  0
 18  2  2  0  0  0  0
 18 11  1  0  0  0  0
 19 21  1  0  0  0  0
 20 21  1  0  0  0  0
 20 23  1  0  0  0  0
 22 20  2  0  0  0  0
 24 11  1  0  0  0  0
 25 32  1  1  0  0  0
 26 29  1  6  0  0  0
 26 30  1  0  0  0  0
 27 26  1  0  0  0  0
 27 28  1  0  0  0  0
 28 25  1  0  0  0  0
 30 24  1  6  0  0  0
 30 25  1  0  0  0  0
 32 31  3  0  0  0  0
M  END
>  <MODEL>
3

>  <REMARK>
 VINA RESULT:      -8.5      1.720      2.891
  Name = 
  5 active torsions:
  status: ('A' for Active; 'I' for Inactive)
    1  A    between atoms: C_2  and  C_24
    2  A    between atoms: C_7  and  C_29
    3  A    between atoms: N_10  and  C_24
    4  A    between atoms: C_16  and  C_27
    5  A    between atoms: C_27  and  C_32
                            x       y       z     vdW  Elec       q    Type
                         _______ _______ _______ _____ _____    ______ ____

>  <TORSDO>
F 5

$$$$
=
 OpenBabel10262421323D

 32 36  0  0  1  0  0  0  0  0999 V2000
  186.6850  177.7330  136.4820 C   0  0  1  0  0  3  0  0  0  0  0  0
  188.7610  178.2300  141.1630 C   0  0  0  0  0  0  0  0  0  0  0  0
  185.0310  178.1690  144.2810 C   0  0  0  0  0  3  0  0  0  0  0  0
  185.9340  178.2250  145.3440 C   0  0  0  0  0  3  0  0  0  0  0  0
  188.4130  178.1820  138.7640 C   0  0  0  0  0  0  0  0  0  0  0  0
  186.5060  178.1270  140.2680 C   0  0  0  0  0  3  0  0  0  0  0  0
  186.0480  178.1270  137.8180 C   0  0  0  0  0  2  0  0  0  0  0  0
  185.4980  178.1530  142.9650 C   0  0  0  0  0  3  0  0  0  0  0  0
  187.3660  178.1810  141.3760 C   0  0  0  0  0  0  0  0  0  0  0  0
  186.8770  178.1940  142.6950 C   0  0  0  0  0  0  0  0  0  0  0  0
  189.1730  178.2900  143.5070 C   0  0  0  0  0  0  0  0  0  0  0  0
  188.0150  178.4600  136.2910 C   0  0  0  0  0  2  0  0  0  0  0  0
  187.0180  178.1110  138.9670 C   0  0  0  0  0  0  0  0  0  0  0  0
  189.0150  178.0970  137.3900 C   0  0  0  0  0  2  0  0  0  0  0  0
  187.3070  178.2650  145.0930 C   0  0  0  0  0  3  0  0  0  0  0  0
  187.7920  178.2500  143.7770 C   0  0  0  0  0  0  0  0  0  0  0  0
  189.2720  178.2250  139.8650 C   0  0  0  0  0  3  0  0  0  0  0  0
  189.6120  178.2840  142.2210 N   0  0  0  0  0  0  0  0  0  0  0  0
  186.8540  176.2240  136.3610 C   0  0  0  0  0  2  0  0  0  0  0  0
  185.6550  174.1870  137.2340 C   0  0  0  0  0  0  0  0  0  0  0  0
  185.6450  175.5490  136.8070 N   0  0  0  0  0  2  0  0  0  0  0  0
  186.7240  173.5230  137.2370 O   0  0  0  0  0  0  0  0  0  0  0  0
  184.3900  173.5480  137.6800 C   0  0  0  0  0  1  0  0  0  0  0  0
  190.1840  178.3900  144.6070 C   0  0  0  0  0  2  0  0  0  0  0  0
  190.3880  177.2780  146.8360 C   0  0  1  0  0  3  0  0  0  0  0  0
  191.6100  176.3870  144.9750 C   0  0  1  0  0  3  0  0  0  0  0  0
  192.1210  175.7390  146.1730 N   0  0  0  0  0  2  0  0  0  0  0  0
  191.6240  176.5280  147.2920 C   0  0  0  0  0  2  0  0  0  0  0  0
  191.3720  175.3540  143.8940 C   0  0  0  0  0  1  0  0  0  0  0  0
  190.3090  177.0620  145.3420 C   0  0  2  0  0  3  0  0  0  0  0  0
  188.2570  176.2640  147.9810 N   0  0  0  0  0  0  0  0  0  0  0  0
  189.1980  176.7120  147.4780 C   0  0  0  0  0  0  0  0  0  0  0  0
  1 19  1  1  0  0  0
  1  7  1  0  0  0  0
  2  9  1  0  0  0  0
  2 18  1  0  0  0  0
  3  4  1  0  0  0  0
  5 13  2  0  0  0  0
  5 17  1  0  0  0  0
  6  9  2  0  0  0  0
  7 13  1  0  0  0  0
  8  3  2  0  0  0  0
  9 10  1  0  0  0  0
 10  8  1  0  0  0  0
 10 16  2  0  0  0  0
 11 16  1  0  0  0  0
 11 24  1  0  0  0  0
 12  1  1  0  0  0  0
 12 14  1  0  0  0  0
 13  6  1  0  0  0  0
 14  5  1  0  0  0  0
 15  4  2  0  0  0  0
 16 15  1  0  0  0  0
 17  2  2  0  0  0  0
 18 11  2  0  0  0  0
 19 21  1  0  0  0  0
 20 22  2  0  0  0  0
 20 23  1  0  0  0  0
 21 20  1  0  0  0  0
 25 28  1  0  0  0  0
 25 32  1  1  0  0  0
 26 29  1  6  0  0  0
 26 30  1  0  0  0  0
 26 27  1  0  0  0  0
 27 28  1  0  0  0  0
 30 24  1  6  0  0  0
 30 25  1  0  0  0  0
 32 31  3  0  0  0  0
M  END
>  <MODEL>
4

>  <REMARK>
 VINA RESULT:      -8.3      3.557      5.668
  Name = 
  5 active torsions:
  status: ('A' for Active; 'I' for Inactive)
    1  A    between atoms: C_2  and  C_24
    2  A    between atoms: C_7  and  C_29
    3  A    between atoms: N_10  and  C_24
    4  A    between atoms: C_16  and  C_27
    5  A    between atoms: C_27  and  C_32
                            x       y       z     vdW  Elec       q    Type
                         _______ _______ _______ _____ _____    ______ ____

>  <TORSDO>
F 5

$$$$
=
 OpenBabel10262421323D

 32 36  0  0  1  0  0  0  0  0999 V2000
  191.4040  177.7500  144.3690 C   0  0  1  0  0  3  0  0  0  0  0  0
  189.2030  177.2320  139.7470 C   0  0  0  0  0  0  0  0  0  0  0  0
  192.7890  176.0030  136.7030 C   0  0  0  0  0  3  0  0  0  0  0  0
  191.8540  175.8750  135.6730 C   0  0  0  0  0  3  0  0  0  0  0  0
  189.6380  177.7680  142.0720 C   0  0  0  0  0  0  0  0  0  0  0  0
  191.4720  177.1400  140.6080 C   0  0  0  0  0  3  0  0  0  0  0  0
  192.0220  177.7230  142.9680 C   0  0  0  0  0  2  0  0  0  0  0  0
  192.3730  176.3730  137.9830 C   0  0  0  0  0  3  0  0  0  0  0  0
  190.5790  176.9930  139.5350 C   0  0  0  0  0  0  0  0  0  0  0  0
  191.0150  176.6170  138.2520 C   0  0  0  0  0  0  0  0  0  0  0  0
  188.7080  176.7290  137.4730 C   0  0  0  0  0  0  0  0  0  0  0  0
  190.1550  178.6300  144.3830 C   0  0  0  0  0  2  0  0  0  0  0  0
  191.0120  177.5090  141.8750 C   0  0  0  0  0  0  0  0  0  0  0  0
  189.0840  178.0980  143.4280 C   0  0  0  0  0  2  0  0  0  0  0  0
  190.5020  176.1140  135.9230 C   0  0  0  0  0  3  0  0  0  0  0  0
  190.0690  176.4840  137.2050 C   0  0  0  0  0  0  0  0  0  0  0  0
  188.7450  177.6110  141.0090 C   0  0  0  0  0  3  0  0  0  0  0  0
  188.3210  177.0970  138.7230 N   0  0  0  0  0  0  0  0  0  0  0  0
  191.1000  176.3470  144.8790 C   0  0  0  0  0  2  0  0  0  0  0  0
  191.7960  176.2060  147.2970 C   0  0  0  0  0  0  0  0  0  0  0  0
  192.0550  175.9750  145.9120 N   0  0  0  0  0  2  0  0  0  0  0  0
  190.7210  176.7450  147.6680 O   0  0  0  0  0  0  0  0  0  0  0  0
  192.8070  175.8040  148.3090 C   0  0  0  0  0  1  0  0  0  0  0  0
  187.6690  176.6430  136.3990 C   0  0  0  0  0  2  0  0  0  0  0  0
  185.7750  175.0170  136.2840 C   0  0  1  0  0  3  0  0  0  0  0  0
  185.3030  177.3240  136.7390 C   0  0  1  0  0  3  0  0  0  0  0  0
  184.0330  176.6750  136.4540 N   0  0  0  0  0  2  0  0  0  0  0  0
  184.3710  175.3910  135.8540 C   0  0  0  0  0  2  0  0  0  0  0  0
  185.1690  178.2000  137.9670 C   0  0  0  0  0  1  0  0  0  0  0  0
  186.3240  176.2380  136.9860 C   0  0  2  0  0  3  0  0  0  0  0  0
  185.6860  173.0020  137.9610 N   0  0  0  0  0  0  0  0  0  0  0  0
  185.7240  173.8920  137.2230 C   0  0  0  0  0  0  0  0  0  0  0  0
  1 12  1  0  0  0  0
  1 19  1  6  0  0  0
  2 17  1  0  0  0  0
  3  8  1  0  0  0  0
  4 15  1  0  0  0  0
  4  3  2  0  0  0  0
  5 14  1  0  0  0  0
  6 13  2  0  0  0  0
  7  1  1  0  0  0  0
  8 10  2  0  0  0  0
  9  2  2  0  0  0  0
  9  6  1  0  0  0  0
 10  9  1  0  0  0  0
 11 18  2  0  0  0  0
 13  5  1  0  0  0  0
 13  7  1  0  0  0  0
 14 12  1  0  0  0  0
 15 16  2  0  0  0  0
 16 11  1  0  0  0  0
 16 10  1  0  0  0  0
 17  5  2  0  0  0  0
 18  2  1  0  0  0  0
 19 21  1  0  0  0  0
 20 22  2  0  0  0  0
 20 23  1  0  0  0  0
 21 20  1  0  0  0  0
 24 11  1  0  0  0  0
 25 30  1  0  0  0  0
 25 32  1  1  0  0  0
 26 30  1  0  0  0  0
 26 29  1  1  0  0  0
 27 26  1  0  0  0  0
 28 25  1  0  0  0  0
 28 27  1  0  0  0  0
 30 24  1  6  0  0  0
 32 31  3  0  0  0  0
M  END
>  <MODEL>
5

>  <REMARK>
 VINA RESULT:      -8.3      4.862      9.672
  Name = 
  5 active torsions:
  status: ('A' for Active; 'I' for Inactive)
    1  A    between atoms: C_2  and  C_24
    2  A    between atoms: C_7  and  C_29
    3  A    between atoms: N_10  and  C_24
    4  A    between atoms: C_16  and  C_27
    5  A    between atoms: C_27  and  C_32
                            x       y       z     vdW  Elec       q    Type
                         _______ _______ _______ _____ _____    ______ ____

>  <TORSDO>
F 5

$$$$
=
 OpenBabel10262421323D

 32 36  0  0  1  0  0  0  0  0999 V2000
  191.7050  177.5870  143.9380 C   0  0  1  0  0  3  0  0  0  0  0  0
  188.3390  178.0210  140.0700 C   0  0  0  0  0  0  0  0  0  0  0  0
  190.5480  176.1330  136.1730 C   0  0  0  0  0  3  0  0  0  0  0  0
  189.3820  176.3320  135.4310 C   0  0  0  0  0  3  0  0  0  0  0  0
  189.4840  178.2430  142.1970 C   0  0  0  0  0  0  0  0  0  0  0  0
  190.6380  177.2710  140.2930 C   0  0  0  0  0  3  0  0  0  0  0  0
  191.9110  177.5070  142.4230 C   0  0  0  0  0  2  0  0  0  0  0  0
  190.5910  176.4980  137.5200 C   0  0  0  0  0  3  0  0  0  0  0  0
  189.4950  177.4460  139.4980 C   0  0  0  0  0  0  0  0  0  0  0  0
  189.4680  177.0690  138.1430 C   0  0  0  0  0  0  0  0  0  0  0  0
  187.1600  177.8410  138.0100 C   0  0  0  0  0  0  0  0  0  0  0  0
  190.7900  178.7600  144.2890 C   0  0  0  0  0  2  0  0  0  0  0  0
  190.6370  177.6500  141.6390 C   0  0  0  0  0  0  0  0  0  0  0  0
  189.4080  178.6020  143.6530 C   0  0  0  0  0  2  0  0  0  0  0  0
  188.2570  176.8980  136.0340 C   0  0  0  0  0  3  0  0  0  0  0  0
  188.2850  177.2700  137.3870 C   0  0  0  0  0  0  0  0  0  0  0  0
  188.3400  178.4090  141.4110 C   0  0  0  0  0  3  0  0  0  0  0  0
  187.2210  178.2010  139.3190 N   0  0  0  0  0  0  0  0  0  0  0  0
  191.1710  176.2780  144.5050 C   0  0  0  0  0  2  0  0  0  0  0  0
  191.7130  176.1900  146.9640 C   0  0  0  0  0  0  0  0  0  0  0  0
  192.0060  175.8370  145.6120 N   0  0  0  0  0  2  0  0  0  0  0  0
  190.7120  176.9020  147.2390 O   0  0  0  0  0  0  0  0  0  0  0  0
  192.6000  175.7110  148.0550 C   0  0  0  0  0  1  0  0  0  0  0  0
  185.8970  178.1130  137.2520 C   0  0  0  0  0  2  0  0  0  0  0  0
  184.0840  176.4290  136.9060 C   0  0  1  0  0  3  0  0  0  0  0  0
  183.6330  178.3670  138.2440 C   0  0  1  0  0  3  0  0  0  0  0  0
  182.3560  177.7200  137.9820 N   0  0  0  0  0  2  0  0  0  0  0  0
  182.6070  176.7710  136.9060 C   0  0  0  0  0  2  0  0  0  0  0  0
  183.7280  178.7400  139.7090 C   0  0  0  0  0  1  0  0  0  0  0  0
  184.7230  177.3830  137.8890 C   0  0  2  0  0  3  0  0  0  0  0  0
  184.4270  173.9630  137.7300 N   0  0  0  0  0  0  0  0  0  0  0  0
  184.2750  175.0500  137.3650 C   0  0  0  0  0  0  0  0  0  0  0  0
  1 12  1  0  0  0  0
  1 19  1  6  0  0  0
  2 17  1  0  0  0  0
  3  8  1  0  0  0  0
  4 15  1  0  0  0  0
  4  3  2  0  0  0  0
  5 14  1  0  0  0  0
  6 13  2  0  0  0  0
  7  1  1  0  0  0  0
  8 10  2  0  0  0  0
  9  2  2  0  0  0  0
  9  6  1  0  0  0  0
 10  9  1  0  0  0  0
 11 18  2  0  0  0  0
 13  5  1  0  0  0  0
 13  7  1  0  0  0  0
 14 12  1  0  0  0  0
 15 16  2  0  0  0  0
 16 11  1  0  0  0  0
 16 10  1  0  0  0  0
 17  5  2  0  0  0  0
 18  2  1  0  0  0  0
 19 21  1  0  0  0  0
 20 22  2  0  0  0  0
 20 23  1  0  0  0  0
 21 20  1  0  0  0  0
 24 11  1  0  0  0  0
 25 28  1  0  0  0  0
 25 32  1  1  0  0  0
 25 30  1  0  0  0  0
 26 29  1  1  0  0  0
 27 26  1  0  0  0  0
 28 27  1  0  0  0  0
 30 24  1  6  0  0  0
 30 26  1  0  0  0  0
 32 31  3  0  0  0  0
M  END
>  <MODEL>
6

>  <REMARK>
 VINA RESULT:      -8.2      4.051      9.508
  Name = 
  5 active torsions:
  status: ('A' for Active; 'I' for Inactive)
    1  A    between atoms: C_2  and  C_24
    2  A    between atoms: C_7  and  C_29
    3  A    between atoms: N_10  and  C_24
    4  A    between atoms: C_16  and  C_27
    5  A    between atoms: C_27  and  C_32
                            x       y       z     vdW  Elec       q    Type
                         _______ _______ _______ _____ _____    ______ ____

>  <TORSDO>
F 5

$$$$
=
 OpenBabel10262421323D

 32 36  0  0  1  0  0  0  0  0999 V2000
  181.6690  180.4430  138.2270 C   0  0  1  0  0  3  0  0  0  0  0  0
  184.5770  178.2770  141.8780 C   0  0  0  0  0  0  0  0  0  0  0  0
  189.0620  178.0200  140.0200 C   0  0  0  0  0  3  0  0  0  0  0  0
  189.5240  177.5120  141.2360 C   0  0  0  0  0  3  0  0  0  0  0  0
  182.7020  179.0780  140.5650 C   0  0  0  0  0  0  0  0  0  0  0  0
  184.9220  178.9940  139.5840 C   0  0  0  0  0  3  0  0  0  0  0  0
  183.0480  179.7830  138.1420 C   0  0  0  0  0  2  0  0  0  0  0  0
  187.7130  178.3440  139.8630 C   0  0  0  0  0  3  0  0  0  0  0  0
  185.4440  178.4830  140.7820 C   0  0  0  0  0  0  0  0  0  0  0  0
  186.8070  178.1650  140.9230 C   0  0  0  0  0  0  0  0  0  0  0  0
  186.3720  177.4710  143.2180 C   0  0  0  0  0  0  0  0  0  0  0  0
  180.7280  179.6010  139.0880 C   0  0  0  0  0  2  0  0  0  0  0  0
  183.5650  179.3070  139.4720 C   0  0  0  0  0  0  0  0  0  0  0  0
  181.2510  179.4630  140.5190 C   0  0  0  0  0  2  0  0  0  0  0  0
  188.6370  177.3290  142.2990 C   0  0  0  0  0  3  0  0  0  0  0  0
  187.2790  177.6510  142.1570 C   0  0  0  0  0  0  0  0  0  0  0  0
  183.2200  178.5800  141.7630 C   0  0  0  0  0  3  0  0  0  0  0  0
  185.0600  177.7820  143.0470 N   0  0  0  0  0  0  0  0  0  0  0  0
  181.7590  181.8740  138.7410 C   0  0  0  0  0  2  0  0  0  0  0  0
  181.5740  184.0490  137.4820 C   0  0  0  0  0  0  0  0  0  0  0  0
  181.0490  182.7720  137.8420 N   0  0  0  0  0  2  0  0  0  0  0  0
  182.6800  184.4410  137.9380 O   0  0  0  0  0  0  0  0  0  0  0  0
  180.8060  184.9250  136.5590 C   0  0  0  0  0  1  0  0  0  0  0  0
  186.8050  176.8950  144.5310 C   0  0  0  0  0  2  0  0  0  0  0  0
  188.8580  177.4930  145.8230 C   0  0  1  0  0  3  0  0  0  0  0  0
  186.7170  178.1700  146.6630 C   0  0  1  0  0  3  0  0  0  0  0  0
  187.6840  178.3950  147.7250 N   0  0  0  0  0  2  0  0  0  0  0  0
  188.8830  177.6690  147.3280 C   0  0  0  0  0  2  0  0  0  0  0  0
  185.8120  179.3780  146.5280 C   0  0  0  0  0  1  0  0  0  0  0  0
  187.4890  177.9570  145.3820 C   0  0  2  0  0  3  0  0  0  0  0  0
  190.6960  179.0030  144.7170 N   0  0  0  0  0  0  0  0  0  0  0  0
  189.8850  178.3380  145.2070 C   0  0  0  0  0  0  0  0  0  0  0  0
  1 19  1  1  0  0  0
  1 12  1  0  0  0  0
  2 18  1  0  0  0  0
  3  4  1  0  0  0  0
  4 15  2  0  0  0  0
  5 17  1  0  0  0  0
  6  9  2  0  0  0  0
  7  1  1  0  0  0  0
  7 13  1  0  0  0  0
  8  3  2  0  0  0  0
  8 10  1  0  0  0  0
  9 10  1  0  0  0  0
  9  2  1  0  0  0  0
 10 16  2  0  0  0  0
 11 24  1  0  0  0  0
 12 14  1  0  0  0  0
 13  6  1  0  0  0  0
 13  5  2  0  0  0  0
 14  5  1  0  0  0  0
 16 15  1  0  0  0  0
 16 11  1  0  0  0  0
 17  2  2  0  0  0  0
 18 11  2  0  0  0  0
 20 21  1  0  0  0  0
 20 22  2  0  0  0  0
 21 19  1  0  0  0  0
 23 20  1  0  0  0  0
 25 32  1  6  0  0  0
 25 28  1  0  0  0  0
 26 29  1  6  0  0  0
 26 27  1  0  0  0  0
 28 27  1  0  0  0  0
 30 24  1  6  0  0  0
 30 25  1  0  0  0  0
 30 26  1  0  0  0  0
 31 32  3  0  0  0  0
M  END
>  <MODEL>
7

>  <REMARK>
 VINA RESULT:      -8.1      3.223      5.418
  Name = 
  5 active torsions:
  status: ('A' for Active; 'I' for Inactive)
    1  A    between atoms: C_2  and  C_24
    2  A    between atoms: C_7  and  C_29
    3  A    between atoms: N_10  and  C_24
    4  A    between atoms: C_16  and  C_27
    5  A    between atoms: C_27  and  C_32
                            x       y       z     vdW  Elec       q    Type
                         _______ _______ _______ _____ _____    ______ ____

>  <TORSDO>
F 5

$$$$
=
 OpenBabel10262421323D

 32 36  0  0  1  0  0  0  0  0999 V2000
  180.4670  178.8580  140.4940 C   0  0  1  0  0  3  0  0  0  0  0  0
  185.4580  178.5990  141.7200 C   0  0  0  0  0  0  0  0  0  0  0  0
  187.8250  177.9920  137.5170 C   0  0  0  0  0  3  0  0  0  0  0  0
  189.0380  178.0580  138.2050 C   0  0  0  0  0  3  0  0  0  0  0  0
  183.0350  178.6430  141.8190 C   0  0  0  0  0  0  0  0  0  0  0  0
  184.1570  178.3570  139.6830 C   0  0  0  0  0  3  0  0  0  0  0  0
  181.6650  178.3380  139.6940 C   0  0  0  0  0  2  0  0  0  0  0  0
  186.6190  178.1110  138.2110 C   0  0  0  0  0  3  0  0  0  0  0  0
  185.4060  178.4180  140.3200 C   0  0  0  0  0  0  0  0  0  0  0  0
  186.6110  178.2990  139.6040 C   0  0  0  0  0  0  0  0  0  0  0  0
  187.8380  178.5560  141.6950 C   0  0  0  0  0  0  0  0  0  0  0  0
  180.5330  178.3590  141.9360 C   0  0  0  0  0  2  0  0  0  0  0  0
  182.9740  178.4840  140.4170 C   0  0  0  0  0  0  0  0  0  0  0  0
  181.7970  178.8540  142.6430 C   0  0  0  0  0  2  0  0  0  0  0  0
  189.0480  178.2450  139.5890 C   0  0  0  0  0  3  0  0  0  0  0  0
  187.8450  178.3670  140.3000 C   0  0  0  0  0  0  0  0  0  0  0  0
  184.2770  178.7150  142.4540 C   0  0  0  0  0  3  0  0  0  0  0  0
  186.6550  178.6600  142.3580 N   0  0  0  0  0  0  0  0  0  0  0  0
  180.3670  180.3770  140.4360 C   0  0  0  0  0  2  0  0  0  0  0  0
  180.9580  181.4800  138.2480 C   0  0  0  0  0  0  0  0  0  0  0  0
  180.0220  180.8030  139.0880 N   0  0  0  0  0  2  0  0  0  0  0  0
  182.1220  181.7310  138.6570 O   0  0  0  0  0  0  0  0  0  0  0  0
  180.5520  181.8910  136.8790 C   0  0  0  0  0  1  0  0  0  0  0  0
  189.1080  178.5960  142.4880 C   0  0  0  0  0  2  0  0  0  0  0  0
  188.9960  178.1530  144.9440 C   0  0  1  0  0  3  0  0  0  0  0  0
  190.4100  176.7810  143.5770 C   0  0  1  0  0  3  0  0  0  0  0  0
  190.7460  176.4960  144.9630 N   0  0  0  0  0  2  0  0  0  0  0  0
  190.1400  177.5640  145.7450 C   0  0  0  0  0  2  0  0  0  0  0  0
  190.2740  175.4860  142.8040 C   0  0  0  0  0  1  0  0  0  0  0  0
  189.0960  177.5270  143.5720 C   0  0  2  0  0  3  0  0  0  0  0  0
  186.7080  177.4980  146.0460 N   0  0  0  0  0  0  0  0  0  0  0  0
  187.7170  177.7850  145.5600 C   0  0  0  0  0  0  0  0  0  0  0  0
  1 19  1  1  0  0  0
  1 12  1  0  0  0  0
  2 18  1  0  0  0  0
  2 17  1  0  0  0  0
  3  4  2  0  0  0  0
  3  8  1  0  0  0  0
  4 15  1  0  0  0  0
  5 17  2  0  0  0  0
  5 14  1  0  0  0  0
  6  9  1  0  0  0  0
  6 13  2  0  0  0  0
  7 13  1  0  0  0  0
  7  1  1  0  0  0  0
  8 10  2  0  0  0  0
  9  2  2  0  0  0  0
 10 16  1  0  0  0  0
 10  9  1  0  0  0  0
 11 18  2  0  0  0  0
 11 24  1  0  0  0  0
 12 14  1  0  0  0  0
 13  5  1  0  0  0  0
 15 16  2  0  0  0  0
 16 11  1  0  0  0  0
 20 22  2  0  0  0  0
 20 21  1  0  0  0  0
 21 19  1  0  0  0  0
 23 20  1  0  0  0  0
 25 32  1  1  0  0  0
 25 28  1  0  0  0  0
 26 29  1  6  0  0  0
 26 27  1  0  0  0  0
 27 28  1  0  0  0  0
 30 24  1  6  0  0  0
 30 26  1  0  0  0  0
 30 25  1  0  0  0  0
 32 31  3  0  0  0  0
M  END
>  <MODEL>
8

>  <REMARK>
 VINA RESULT:      -8.0      2.489      4.904
  Name = 
  5 active torsions:
  status: ('A' for Active; 'I' for Inactive)
    1  A    between atoms: C_2  and  C_24
    2  A    between atoms: C_7  and  C_29
    3  A    between atoms: N_10  and  C_24
    4  A    between atoms: C_16  and  C_27
    5  A    between atoms: C_27  and  C_32
                            x       y       z     vdW  Elec       q    Type
                         _______ _______ _______ _____ _____    ______ ____

>  <TORSDO>
F 5

$$$$
=
 OpenBabel10262421323D

 32 36  0  0  1  0  0  0  0  0999 V2000
  189.6440  176.7680  144.3130 C   0  0  1  0  0  3  0  0  0  0  0  0
  185.9600  178.5440  141.1900 C   0  0  0  0  0  0  0  0  0  0  0  0
  181.8820  178.5750  143.8350 C   0  0  0  0  0  3  0  0  0  0  0  0
  181.2040  179.1560  142.7610 C   0  0  0  0  0  3  0  0  0  0  0  0
  188.0400  177.6600  142.0710 C   0  0  0  0  0  0  0  0  0  0  0  0
  186.0410  177.6660  143.4520 C   0  0  0  0  0  3  0  0  0  0  0  0
  188.1180  176.6890  144.4240 C   0  0  0  0  0  2  0  0  0  0  0  0
  183.2400  178.2740  143.7250 C   0  0  0  0  0  3  0  0  0  0  0  0
  185.3090  178.2510  142.4080 C   0  0  0  0  0  0  0  0  0  0  0  0
  183.9400  178.5500  142.5370 C   0  0  0  0  0  0  0  0  0  0  0  0
  183.9500  179.4180  140.2600 C   0  0  0  0  0  0  0  0  0  0  0  0
  190.0910  176.4450  142.8880 C   0  0  0  0  0  2  0  0  0  0  0  0
  187.4020  177.3830  143.2990 C   0  0  0  0  0  0  0  0  0  0  0  0
  189.5130  177.4410  141.8800 C   0  0  0  0  0  2  0  0  0  0  0  0
  181.8840  179.4370  141.5750 C   0  0  0  0  0  3  0  0  0  0  0  0
  183.2500  179.1410  141.4490 C   0  0  0  0  0  0  0  0  0  0  0  0
  187.3160  178.2530  141.0330 C   0  0  0  0  0  3  0  0  0  0  0  0
  185.2710  179.1100  140.1650 N   0  0  0  0  0  0  0  0  0  0  0  0
  190.1730  178.1230  144.7670 C   0  0  0  0  0  2  0  0  0  0  0  0
  189.7380  177.8040  147.2280 C   0  0  0  0  0  0  0  0  0  0  0  0
  189.5280  178.5180  146.0100 N   0  0  0  0  0  2  0  0  0  0  0  0
  190.4970  176.8000  147.2620 O   0  0  0  0  0  0  0  0  0  0  0  0
  189.0550  178.2530  148.4690 C   0  0  0  0  0  1  0  0  0  0  0  0
  183.2650  180.0050  139.0640 C   0  0  0  0  0  2  0  0  0  0  0  0
  182.9820  177.9080  137.7340 C   0  0  1  0  0  3  0  0  0  0  0  0
  181.4110  179.6950  137.4390 C   0  0  1  0  0  3  0  0  0  0  0  0
  181.1810  178.7410  136.3660 N   0  0  0  0  0  2  0  0  0  0  0  0
  182.3440  177.8640  136.3600 C   0  0  0  0  0  2  0  0  0  0  0  0
  180.0880  180.1120  138.0480 C   0  0  0  0  0  1  0  0  0  0  0  0
  182.2690  179.0140  138.4790 C   0  0  2  0  0  3  0  0  0  0  0  0
  182.5970  175.6280  138.9720 N   0  0  0  0  0  0  0  0  0  0  0  0
  182.7660  176.6330  138.4240 C   0  0  0  0  0  0  0  0  0  0  0  0
  1  7  1  0  0  0  0
  1 19  1  6  0  0  0
  2  9  1  0  0  0  0
  4  3  2  0  0  0  0
  5 13  2  0  0  0  0
  8  3  1  0  0  0  0
  9 10  1  0  0  0  0
  9  6  2  0  0  0  0
 10  8  2  0  0  0  0
 11 16  1  0  0  0  0
 12  1  1  0  0  0  0
 13  6  1  0  0  0  0
 13  7  1  0  0  0  0
 14  5  1  0  0  0  0
 14 12  1  0  0  0  0
 15  4  1  0  0  0  0
 16 15  2  0  0  0  0
 16 10  1  0  0  0  0
 17  2  2  0  0  0  0
 17  5  1  0  0  0  0
 18 11  2  0  0  0  0
 18  2  1  0  0  0  0
 19 21  1  0  0  0  0
 20 22  2  0  0  0  0
 20 23  1  0  0  0  0
 21 20  1  0  0  0  0
 24 11  1  0  0  0  0
 25 32  1  1  0  0  0
 25 30  1  0  0  0  0
 26 29  1  1  0  0  0
 26 30  1  0  0  0  0
 27 26  1  0  0  0  0
 28 27  1  0  0  0  0
 28 25  1  0  0  0  0
 30 24  1  6  0  0  0
 32 31  3  0  0  0  0
M  END
>  <MODEL>
9

>  <REMARK>
 VINA RESULT:      -7.7      3.222      8.259
  Name = 
  5 active torsions:
  status: ('A' for Active; 'I' for Inactive)
    1  A    between atoms: C_2  and  C_24
    2  A    between atoms: C_7  and  C_29
    3  A    between atoms: N_10  and  C_24
    4  A    between atoms: C_16  and  C_27
    5  A    between atoms: C_27  and  C_32
                            x       y       z     vdW  Elec       q    Type
                         _______ _______ _______ _____ _____    ______ ____

>  <TORSDO>
F 5

$$$$
