=
 OpenBabel10262419143D

 34 39  0  0  1  0  0  0  0  0999 V2000
  183.9950  174.5720  136.7540 C   0  0  1  0  0  0  0  0  0  0  0  0
  179.4830  177.4260  139.7430 O   0  0  0  0  0  0  0  0  0  0  0  0
  183.1340  176.7240  137.4040 C   0  0  1  0  0  0  0  0  0  0  0  0
  182.1180  177.8670  137.0190 C   0  0  2  0  0  3  0  0  0  0  0  0
  184.1570  173.0620  136.6100 C   0  0  2  0  0  3  0  0  0  0  0  0
  184.5940  179.7190  139.8850 O   0  0  0  0  0  1  0  0  0  0  0  0
  182.9180  172.4430  136.4460 O   0  0  0  0  0  1  0  0  0  0  0  0
  178.9340  180.1930  139.4000 O   0  0  0  0  0  1  0  0  0  0  0  0
  181.2530  178.5820  139.8560 C   0  0  2  0  0  3  0  0  0  0  0  0
  179.9670  178.3890  140.6530 C   0  0  1  0  0  0  0  0  0  0  0  0
  179.0600  179.6320  140.6720 C   0  0  1  0  0  3  0  0  0  0  0  0
  182.6850  175.3380  136.8420 C   0  0  1  0  0  3  0  0  0  0  0  0
  183.0020  178.7940  141.8120 C   0  0  0  0  0  1  0  0  0  0  0  0
  180.7220  177.4170  139.0770 C   0  0  2  0  0  3  0  0  0  0  0  0
  180.6790  177.7570  137.5970 C   0  0  2  0  0  3  0  0  0  0  0  0
  184.2110  173.7090  137.9810 C   0  0  0  0  0  2  0  0  0  0  0  0
  179.8290  180.0670  143.0030 C   0  0  0  0  0  3  0  0  0  0  0  0
  184.5600  176.8990  136.7600 C   0  0  2  0  0  3  0  0  0  0  0  0
  180.0850  178.7620  143.1840 C   0  0  0  0  0  3  0  0  0  0  0  0
  183.5460  178.9730  139.3390 C   0  0  1  0  0  3  0  0  0  0  0  0
  185.1120  175.5230  136.5870 C   0  0  0  0  0  0  0  0  0  0  0  0
  183.7600  177.5080  139.6590 C   0  0  1  0  0  3  0  0  0  0  0  0
  182.6660  178.3140  140.4050 C   0  0  2  0  0  0  0  0  0  0  0  0
  183.1610  176.5220  138.8230 O   0  0  0  0  0  0  0  0  0  0  0  0
  179.9220  176.8050  136.9140 O   0  0  0  0  0  1  0  0  0  0  0  0
  186.1180  175.2830  135.7440 C   0  0  0  0  0  2  0  0  0  0  0  0
  180.1250  177.7610  142.0520 C   0  0  0  0  0  2  0  0  0  0  0  0
  179.6290  180.6640  141.6380 C   0  0  0  0  0  2  0  0  0  0  0  0
  182.1580  175.4470  135.5460 O   0  0  0  0  0  0  0  0  0  0  0  0
  181.0820  174.5570  135.5020 C   0  0  0  0  0  1  0  0  0  0  0  0
  185.5720  177.8130  137.4370 C   0  0  0  0  0  2  0  0  0  0  0  0
  186.4740  178.3070  136.4940 O   0  0  0  0  0  1  0  0  0  0  0  0
  181.2660  179.3670  135.3550 O   0  0  0  0  0  1  0  0  0  0  0  0
  182.0880  178.2570  135.5440 C   0  0  0  0  0  2  0  0  0  0  0  0
  1 12  1  0  0  0  0
  1 16  1  1  0  0  0
  2 10  1  0  0  0  0
  3 24  1  1  0  0  0
  4 34  1  6  0  0  0
  4  3  1  0  0  0  0
  4 15  1  0  0  0  0
  5  7  1  1  0  0  0
  5  1  1  0  0  0  0
  5 16  1  0  0  0  0
  8 11  1  0  0  0  0
  9 23  1  0  0  0  0
  9 10  1  0  0  0  0
 10 11  1  0  0  0  0
 10 27  1  0  0  0  0
 11 28  1  0  0  0  0
 12  3  1  0  0  0  0
 14  2  1  0  0  0  0
 14  9  1  0  0  0  0
 15 14  1  0  0  0  0
 17 19  2  0  0  0  0
 18  3  1  0  0  0  0
 18 31  1  0  0  0  0
 20 22  1  0  0  0  0
 20  6  1  0  0  0  0
 20 23  1  0  0  0  0
 21  1  1  0  0  0  0
 21 18  1  0  0  0  0
 22 23  1  0  0  0  0
 23 13  1  0  0  0  0
 24 22  1  0  0  0  0
 25 15  1  0  0  0  0
 26 21  2  0  0  0  0
 27 19  1  0  0  0  0
 28 17  1  0  0  0  0
 29 12  1  0  0  0  0
 30 29  1  0  0  0  0
 32 31  1  0  0  0  0
 33 34  1  0  0  0  0
M  END
>  <MODEL>
1

>  <REMARK>
 VINA RESULT:      -5.2      0.000      0.000
  Name = 
  3 active torsions:
  status: ('A' for Active; 'I' for Inactive)
    1  A    between atoms: O_2  and  C_15
    2  A    between atoms: C_5  and  C_31
    3  A    between atoms: C_7  and  C_21
                            x       y       z     vdW  Elec       q    Type
                         _______ _______ _______ _____ _____    ______ ____

>  <TORSDO>
F 3

$$$$
=
 OpenBabel10262419143D

 34 39  0  0  1  0  0  0  0  0999 V2000
  180.0610  181.2620  138.2950 C   0  0  1  0  0  0  0  0  0  0  0  0
  183.7860  177.2180  135.6100 O   0  0  0  0  0  0  0  0  0  0  0  0
  181.1900  179.1550  138.5770 C   0  0  1  0  0  0  0  0  0  0  0  0
  181.1010  177.6070  138.2940 C   0  0  2  0  0  3  0  0  0  0  0  0
  179.5950  182.5840  137.6920 C   0  0  2  0  0  3  0  0  0  0  0  0
  184.1800  177.8760  141.1610 O   0  0  0  0  0  1  0  0  0  0  0  0
  179.3580  182.4510  136.3250 O   0  0  0  0  0  1  0  0  0  0  0  0
  184.0600  174.5450  136.5360 O   0  0  0  0  0  1  0  0  0  0  0  0
  184.0620  177.1540  137.7080 C   0  0  2  0  0  3  0  0  0  0  0  0
  184.8560  176.8370  136.4460 C   0  0  1  0  0  0  0  0  0  0  0  0
  185.1780  175.3410  136.2790 C   0  0  1  0  0  3  0  0  0  0  0  0
  180.3680  179.9810  137.5370 C   0  0  1  0  0  3  0  0  0  0  0  0
  185.9380  178.2530  139.1930 C   0  0  0  0  0  1  0  0  0  0  0  0
  183.0780  177.7090  136.7220 C   0  0  2  0  0  3  0  0  0  0  0  0
  181.7070  177.0970  136.9550 C   0  0  2  0  0  3  0  0  0  0  0  0
  181.0670  182.3490  137.9680 C   0  0  0  0  0  2  0  0  0  0  0  0
  187.5120  175.8390  137.0020 C   0  0  0  0  0  3  0  0  0  0  0  0
  180.5340  179.5900  139.9410 C   0  0  2  0  0  3  0  0  0  0  0  0
  187.4010  177.1010  136.5610 C   0  0  0  0  0  3  0  0  0  0  0  0
  183.5370  177.8670  139.9210 C   0  0  1  0  0  3  0  0  0  0  0  0
  180.0500  180.9870  139.7450 C   0  0  0  0  0  0  0  0  0  0  0  0
  183.5300  179.2720  139.3550 C   0  0  1  0  0  3  0  0  0  0  0  0
  184.4770  178.2000  138.7590 C   0  0  2  0  0  0  0  0  0  0  0  0
  182.5310  179.6300  138.4030 O   0  0  0  0  0  0  0  0  0  0  0  0
  180.8730  177.3790  135.8740 O   0  0  0  0  0  1  0  0  0  0  0  0
  179.1310  181.5200  140.5530 C   0  0  0  0  0  2  0  0  0  0  0  0
  186.0820  177.7310  136.1740 C   0  0  0  0  0  2  0  0  0  0  0  0
  186.3150  174.9560  137.2180 C   0  0  0  0  0  2  0  0  0  0  0  0
  179.1500  179.3590  137.2240 O   0  0  0  0  0  0  0  0  0  0  0  0
  178.9680  179.5570  135.8530 C   0  0  0  0  0  1  0  0  0  0  0  0
  181.3440  179.4660  141.2250 C   0  0  0  0  0  2  0  0  0  0  0  0
  180.7830  178.4910  142.0500 O   0  0  0  0  0  1  0  0  0  0  0  0
  179.8250  176.1140  139.6680 O   0  0  0  0  0  1  0  0  0  0  0  0
  179.7450  176.9600  138.5630 C   0  0  0  0  0  2  0  0  0  0  0  0
  1 16  1  1  0  0  0
  1 21  1  0  0  0  0
  2 10  1  0  0  0  0
  2 14  1  0  0  0  0
  3 24  1  6  0  0  0
  3 18  1  0  0  0  0
  4 34  1  6  0  0  0
  4  3  1  0  0  0  0
  5  7  1  6  0  0  0
  5 16  1  0  0  0  0
  5  1  1  0  0  0  0
  9 23  1  0  0  0  0
 10  9  1  0  0  0  0
 11 10  1  0  0  0  0
 11  8  1  0  0  0  0
 11 28  1  0  0  0  0
 12  1  1  0  0  0  0
 12  3  1  0  0  0  0
 14 15  1  0  0  0  0
 14  9  1  0  0  0  0
 15  4  1  0  0  0  0
 17 28  1  0  0  0  0
 18 31  1  0  0  0  0
 19 17  2  0  0  0  0
 20  6  1  0  0  0  0
 21 18  1  0  0  0  0
 21 26  2  0  0  0  0
 22 20  1  0  0  0  0
 23 13  1  0  0  0  0
 23 22  1  0  0  0  0
 23 20  1  0  0  0  0
 24 22  1  0  0  0  0
 25 15  1  0  0  0  0
 27 10  1  0  0  0  0
 27 19  1  0  0  0  0
 29 12  1  0  0  0  0
 30 29  1  0  0  0  0
 31 32  1  0  0  0  0
 34 33  1  0  0  0  0
M  END
>  <MODEL>
2

>  <REMARK>
 VINA RESULT:      -5.1      2.096      6.641
  Name = 
  3 active torsions:
  status: ('A' for Active; 'I' for Inactive)
    1  A    between atoms: O_2  and  C_15
    2  A    between atoms: C_5  and  C_31
    3  A    between atoms: C_7  and  C_21
                            x       y       z     vdW  Elec       q    Type
                         _______ _______ _______ _____ _____    ______ ____

>  <TORSDO>
F 3

$$$$
=
 OpenBabel10262419143D

 34 39  0  0  1  0  0  0  0  0999 V2000
  179.9680  179.2750  141.7650 C   0  0  1  0  0  0  0  0  0  0  0  0
  183.2470  175.1960  138.5960 O   0  0  0  0  0  0  0  0  0  0  0  0
  181.1010  178.8720  139.6800 C   0  0  1  0  0  0  0  0  0  0  0  0
  182.4980  178.9200  138.9510 C   0  0  2  0  0  3  0  0  0  0  0  0
  179.3910  179.0670  143.1620 C   0  0  2  0  0  3  0  0  0  0  0  0
  179.7700  178.5510  135.7580 O   0  0  0  0  0  1  0  0  0  0  0  0
  180.2730  178.3390  143.9600 O   0  0  0  0  0  1  0  0  0  0  0  0
  184.7930  175.9140  136.3220 O   0  0  0  0  0  1  0  0  0  0  0  0
  182.1360  176.4060  137.2610 C   0  0  2  0  0  3  0  0  0  0  0  0
  182.7560  175.0130  137.2870 C   0  0  1  0  0  0  0  0  0  0  0  0
  183.9110  174.8320  136.2860 C   0  0  1  0  0  3  0  0  0  0  0  0
  181.2600  178.6860  141.2220 C   0  0  1  0  0  3  0  0  0  0  0  0
  179.8690  175.9000  136.0210 C   0  0  0  0  0  1  0  0  0  0  0  0
  182.5370  176.4060  138.7050 C   0  0  2  0  0  3  0  0  0  0  0  0
  183.3730  177.6370  139.0130 C   0  0  2  0  0  3  0  0  0  0  0  0
  178.9310  178.1960  142.0080 C   0  0  0  0  0  2  0  0  0  0  0  0
  182.3490  173.5470  134.8290 C   0  0  0  0  0  3  0  0  0  0  0  0
  180.2890  180.2180  139.5880 C   0  0  2  0  0  3  0  0  0  0  0  0
  181.6140  173.1930  135.8940 C   0  0  0  0  0  3  0  0  0  0  0  0
  180.6280  178.1930  136.8010 C   0  0  1  0  0  3  0  0  0  0  0  0
  179.4510  180.2860  140.8210 C   0  0  0  0  0  0  0  0  0  0  0  0
  179.8090  177.6620  137.9590 C   0  0  1  0  0  3  0  0  0  0  0  0
  180.6330  176.6880  137.0800 C   0  0  2  0  0  0  0  0  0  0  0  0
  180.3530  177.7180  139.2750 O   0  0  0  0  0  0  0  0  0  0  0  0
  183.9870  177.4930  140.2570 O   0  0  0  0  0  1  0  0  0  0  0  0
  178.9360  181.4420  141.2440 C   0  0  0  0  0  2  0  0  0  0  0  0
  181.7660  173.8310  137.2560 C   0  0  0  0  0  2  0  0  0  0  0  0
  183.3470  174.6700  134.8800 C   0  0  0  0  0  2  0  0  0  0  0  0
  182.3280  179.4410  141.7310 O   0  0  0  0  0  0  0  0  0  0  0  0
  182.9250  178.6370  142.7050 C   0  0  0  0  0  1  0  0  0  0  0  0
  179.4560  180.4980  138.3440 C   0  0  0  0  0  2  0  0  0  0  0  0
  180.0270  181.5390  137.6130 O   0  0  0  0  0  1  0  0  0  0  0  0
  184.6520  179.9600  138.7990 O   0  0  0  0  0  1  0  0  0  0  0  0
  183.3370  180.1690  139.2100 C   0  0  0  0  0  2  0  0  0  0  0  0
  1 16  1  6  0  0  0
  1  5  1  0  0  0  0
  2 14  1  0  0  0  0
  3 24  1  6  0  0  0
  3 12  1  0  0  0  0
  4 15  1  0  0  0  0
  4 34  1  1  0  0  0
  4  3  1  0  0  0  0
  5  7  1  1  0  0  0
  6 20  1  0  0  0  0
  9 10  1  0  0  0  0
  9 14  1  0  0  0  0
 10  2  1  0  0  0  0
 11  8  1  0  0  0  0
 11 10  1  0  0  0  0
 12 29  1  0  0  0  0
 12  1  1  0  0  0  0
 13 23  1  0  0  0  0
 14 15  1  0  0  0  0
 15 25  1  0  0  0  0
 16  5  1  0  0  0  0
 17 28  1  0  0  0  0
 17 19  2  0  0  0  0
 18  3  1  0  0  0  0
 18 21  1  0  0  0  0
 19 27  1  0  0  0  0
 20 23  1  0  0  0  0
 20 22  1  0  0  0  0
 21 26  2  0  0  0  0
 21  1  1  0  0  0  0
 22 24  1  0  0  0  0
 23  9  1  0  0  0  0
 23 22  1  0  0  0  0
 27 10  1  0  0  0  0
 28 11  1  0  0  0  0
 29 30  1  0  0  0  0
 31 18  1  0  0  0  0
 32 31  1  0  0  0  0
 33 34  1  0  0  0  0
M  END
>  <MODEL>
3

>  <REMARK>
 VINA RESULT:      -4.6      1.704      6.865
  Name = 
  3 active torsions:
  status: ('A' for Active; 'I' for Inactive)
    1  A    between atoms: O_2  and  C_15
    2  A    between atoms: C_5  and  C_31
    3  A    between atoms: C_7  and  C_21
                            x       y       z     vdW  Elec       q    Type
                         _______ _______ _______ _____ _____    ______ ____

>  <TORSDO>
F 3

$$$$
=
 OpenBabel10262419143D

 34 39  0  0  1  0  0  0  0  0999 V2000
  183.4330  178.7710  141.3670 C   0  0  1  0  0  0  0  0  0  0  0  0
  182.2720  176.2910  135.8950 O   0  0  0  0  0  0  0  0  0  0  0  0
  181.6880  177.9980  139.9000 C   0  0  1  0  0  0  0  0  0  0  0  0
  180.7590  178.4010  138.6910 C   0  0  2  0  0  3  0  0  0  0  0  0
  184.8150  179.0900  141.9280 C   0  0  2  0  0  3  0  0  0  0  0  0
  178.9320  174.9020  140.1740 O   0  0  0  0  0  1  0  0  0  0  0  0
  185.6610  179.5630  140.9260 O   0  0  0  0  0  1  0  0  0  0  0  0
  179.6900  176.3440  134.7100 O   0  0  0  0  0  1  0  0  0  0  0  0
  180.7800  175.6980  137.2740 C   0  0  2  0  0  3  0  0  0  0  0  0
  181.4030  175.1850  135.9810 C   0  0  1  0  0  0  0  0  0  0  0  0
  180.4250  175.1600  134.7930 C   0  0  1  0  0  3  0  0  0  0  0  0
  183.0160  178.8190  139.9060 C   0  0  1  0  0  3  0  0  0  0  0  0
  180.5270  173.4450  138.6130 C   0  0  0  0  0  1  0  0  0  0  0  0
  181.8780  176.7150  137.1770 C   0  0  2  0  0  3  0  0  0  0  0  0
  181.2970  178.1160  137.2600 C   0  0  2  0  0  3  0  0  0  0  0  0
  184.4290  177.6560  141.6190 C   0  0  0  0  0  2  0  0  0  0  0  0
  180.2500  172.6900  135.0830 C   0  0  0  0  0  3  0  0  0  0  0  0
  181.0780  178.3400  141.3110 C   0  0  2  0  0  3  0  0  0  0  0  0
  181.4720  172.6480  135.6360 C   0  0  0  0  0  3  0  0  0  0  0  0
  179.7890  175.7280  139.4410 C   0  0  1  0  0  3  0  0  0  0  0  0
  182.2370  178.5980  142.2150 C   0  0  0  0  0  0  0  0  0  0  0  0
  181.1980  175.5800  139.9750 C   0  0  1  0  0  3  0  0  0  0  0  0
  180.8120  174.9430  138.6160 C   0  0  2  0  0  0  0  0  0  0  0  0
  182.1290  176.6400  139.7740 O   0  0  0  0  0  0  0  0  0  0  0  0
  182.2590  179.0510  136.8780 O   0  0  0  0  0  1  0  0  0  0  0  0
  182.0850  179.2680  143.3590 C   0  0  0  0  0  2  0  0  0  0  0  0
  182.2190  173.8800  136.0920 C   0  0  0  0  0  2  0  0  0  0  0  0
  179.4810  173.9720  134.9340 C   0  0  0  0  0  2  0  0  0  0  0  0
  182.8010  180.1620  139.5590 O   0  0  0  0  0  0  0  0  0  0  0  0
  183.8540  180.5030  138.7070 C   0  0  0  0  0  1  0  0  0  0  0  0
  180.0920  177.3690  141.9470 C   0  0  0  0  0  2  0  0  0  0  0  0
  178.9630  178.0590  142.3890 O   0  0  0  0  0  1  0  0  0  0  0  0
  179.6130  180.1580  137.5330 O   0  0  0  0  0  1  0  0  0  0  0  0
  180.1270  179.7880  138.7740 C   0  0  0  0  0  2  0  0  0  0  0  0
  1 16  1  6  0  0  0
  1  5  1  0  0  0  0
  1 21  1  0  0  0  0
  2 10  1  0  0  0  0
  2 14  1  0  0  0  0
  3 24  1  6  0  0  0
  3 12  1  0  0  0  0
  3 18  1  0  0  0  0
  4 34  1  6  0  0  0
  4  3  1  0  0  0  0
  5  7  1  6  0  0  0
  8 11  1  0  0  0  0
  9 23  1  0  0  0  0
 10 27  1  0  0  0  0
 10  9  1  0  0  0  0
 11 28  1  0  0  0  0
 11 10  1  0  0  0  0
 12  1  1  0  0  0  0
 13 23  1  0  0  0  0
 14 15  1  0  0  0  0
 14  9  1  0  0  0  0
 15  4  1  0  0  0  0
 16  5  1  0  0  0  0
 17 19  2  0  0  0  0
 18 31  1  0  0  0  0
 18 21  1  0  0  0  0
 19 27  1  0  0  0  0
 20 22  1  0  0  0  0
 20  6  1  0  0  0  0
 21 26  2  0  0  0  0
 23 20  1  0  0  0  0
 23 22  1  0  0  0  0
 24 22  1  0  0  0  0
 25 15  1  0  0  0  0
 28 17  1  0  0  0  0
 29 12  1  0  0  0  0
 30 29  1  0  0  0  0
 31 32  1  0  0  0  0
 33 34  1  0  0  0  0
M  END
>  <MODEL>
4

>  <REMARK>
 VINA RESULT:      -3.9      2.179      6.367
  Name = 
  3 active torsions:
  status: ('A' for Active; 'I' for Inactive)
    1  A    between atoms: O_2  and  C_15
    2  A    between atoms: C_5  and  C_31
    3  A    between atoms: C_7  and  C_21
                            x       y       z     vdW  Elec       q    Type
                         _______ _______ _______ _____ _____    ______ ____

>  <TORSDO>
F 3

$$$$
=
 OpenBabel10262419143D

 34 39  0  0  1  0  0  0  0  0999 V2000
  189.2260  174.6340  136.3800 C   0  0  1  0  0  0  0  0  0  0  0  0
  188.1450  177.2840  141.7880 O   0  0  0  0  0  0  0  0  0  0  0  0
  189.8320  176.4700  137.8150 C   0  0  1  0  0  0  0  0  0  0  0  0
  189.4410  177.9320  138.2590 C   0  0  2  0  0  3  0  0  0  0  0  0
  188.5660  173.3600  135.8620 C   0  0  2  0  0  3  0  0  0  0  0  0
  193.3600  177.4980  139.7510 O   0  0  0  0  0  1  0  0  0  0  0  0
  187.2230  173.3100  136.2340 O   0  0  0  0  0  1  0  0  0  0  0  0
  188.9300  179.9540  142.3660 O   0  0  0  0  0  1  0  0  0  0  0  0
  190.1510  177.6390  141.2120 C   0  0  2  0  0  3  0  0  0  0  0  0
  189.3320  177.5630  142.4960 C   0  0  1  0  0  0  0  0  0  0  0  0
  189.2260  178.9060  143.2400 C   0  0  1  0  0  3  0  0  0  0  0  0
  188.5940  175.6760  137.2900 C   0  0  1  0  0  3  0  0  0  0  0  0
  192.3600  176.4310  141.9790 C   0  0  0  0  0  1  0  0  0  0  0  0
  188.8760  177.1490  140.5940 C   0  0  2  0  0  3  0  0  0  0  0  0
  188.4610  178.0680  139.4580 C   0  0  2  0  0  3  0  0  0  0  0  0
  189.4300  173.3200  137.1080 C   0  0  0  0  0  2  0  0  0  0  0  0
  190.9060  178.0520  144.8710 C   0  0  0  0  0  3  0  0  0  0  0  0
  190.8080  176.4200  136.5810 C   0  0  2  0  0  3  0  0  0  0  0  0
  190.5410  176.7860  144.6160 C   0  0  0  0  0  3  0  0  0  0  0  0
  191.9660  177.4350  139.6810 C   0  0  1  0  0  3  0  0  0  0  0  0
  190.5120  175.1450  135.8650 C   0  0  0  0  0  0  0  0  0  0  0  0
  191.5410  175.9900  139.5300 C   0  0  1  0  0  3  0  0  0  0  0  0
  191.3410  176.7200  140.8820 C   0  0  2  0  0  0  0  0  0  0  0  0
  190.2780  175.6980  138.9380 O   0  0  0  0  0  0  0  0  0  0  0  0
  187.1470  177.7940  139.0810 O   0  0  0  0  0  1  0  0  0  0  0  0
  190.8810  174.9640  134.5950 C   0  0  0  0  0  2  0  0  0  0  0  0
  189.6670  176.3950  143.4460 C   0  0  0  0  0  2  0  0  0  0  0  0
  190.5350  179.1930  143.9660 C   0  0  0  0  0  2  0  0  0  0  0  0
  187.7520  176.4810  136.5080 O   0  0  0  0  0  0  0  0  0  0  0  0
  186.4500  176.1160  136.8600 C   0  0  0  0  0  1  0  0  0  0  0  0
  192.3050  176.5820  136.8140 C   0  0  0  0  0  2  0  0  0  0  0  0
  192.9350  175.3400  136.7450 O   0  0  0  0  0  1  0  0  0  0  0  0
  189.0540  180.2020  137.5950 O   0  0  0  0  0  1  0  0  0  0  0  0
  189.0640  178.8880  137.1300 C   0  0  0  0  0  2  0  0  0  0  0  0
  1 16  1  1  0  0  0
  1 12  1  0  0  0  0
  2 10  1  0  0  0  0
  3  4  1  0  0  0  0
  3 24  1  1  0  0  0
  4 34  1  6  0  0  0
  4 15  1  0  0  0  0
  5  7  1  1  0  0  0
  5  1  1  0  0  0  0
  5 16  1  0  0  0  0
  8 11  1  0  0  0  0
  9 10  1  0  0  0  0
 10 11  1  0  0  0  0
 10 27  1  0  0  0  0
 11 28  1  0  0  0  0
 12  3  1  0  0  0  0
 14  9  1  0  0  0  0
 14  2  1  0  0  0  0
 15 14  1  0  0  0  0
 18 31  1  0  0  0  0
 18  3  1  0  0  0  0
 19 17  2  0  0  0  0
 20  6  1  0  0  0  0
 20 23  1  0  0  0  0
 21  1  1  0  0  0  0
 21 18  1  0  0  0  0
 22 20  1  0  0  0  0
 22 23  1  0  0  0  0
 23  9  1  0  0  0  0
 23 13  1  0  0  0  0
 24 22  1  0  0  0  0
 25 15  1  0  0  0  0
 26 21  2  0  0  0  0
 27 19  1  0  0  0  0
 28 17  1  0  0  0  0
 29 30  1  0  0  0  0
 29 12  1  0  0  0  0
 32 31  1  0  0  0  0
 34 33  1  0  0  0  0
M  END
>  <MODEL>
5

>  <REMARK>
 VINA RESULT:      -3.8      5.891      8.001
  Name = 
  3 active torsions:
  status: ('A' for Active; 'I' for Inactive)
    1  A    between atoms: O_2  and  C_15
    2  A    between atoms: C_5  and  C_31
    3  A    between atoms: C_7  and  C_21
                            x       y       z     vdW  Elec       q    Type
                         _______ _______ _______ _____ _____    ______ ____

>  <TORSDO>
F 3

$$$$
=
 OpenBabel10262419143D

 34 39  0  0  1  0  0  0  0  0999 V2000
  180.9080  178.1480  139.9260 C   0  0  1  0  0  0  0  0  0  0  0  0
  184.3090  173.6960  137.4670 O   0  0  0  0  0  0  0  0  0  0  0  0
  181.4200  176.9780  137.8860 C   0  0  1  0  0  0  0  0  0  0  0  0
  182.4150  176.9090  136.6640 C   0  0  2  0  0  3  0  0  0  0  0  0
  180.8970  178.5560  141.3960 C   0  0  2  0  0  3  0  0  0  0  0  0
  179.1730  174.5340  135.3900 O   0  0  0  0  0  1  0  0  0  0  0  0
  182.1790  178.4870  141.9400 O   0  0  0  0  0  1  0  0  0  0  0  0
  184.7250  173.4610  134.6660 O   0  0  0  0  0  1  0  0  0  0  0  0
  182.4880  173.8700  136.4010 C   0  0  2  0  0  3  0  0  0  0  0  0
  183.5450  172.8070  136.6840 C   0  0  1  0  0  0  0  0  0  0  0  0
  184.3250  172.3650  135.4330 C   0  0  1  0  0  3  0  0  0  0  0  0
  182.0950  177.6080  139.1450 C   0  0  1  0  0  3  0  0  0  0  0  0
  180.2940  172.4240  136.5710 C   0  0  0  0  0  1  0  0  0  0  0  0
  183.2800  174.6530  137.4050 C   0  0  2  0  0  3  0  0  0  0  0  0
  183.6680  176.0020  136.8230 C   0  0  2  0  0  3  0  0  0  0  0  0
  180.4540  177.1640  140.9870 C   0  0  0  0  0  2  0  0  0  0  0  0
  182.9680  170.2740  135.4140 C   0  0  0  0  0  3  0  0  0  0  0  0
  180.1920  177.9350  137.6520 C   0  0  2  0  0  3  0  0  0  0  0  0
  182.7700  170.3660  136.7380 C   0  0  0  0  0  3  0  0  0  0  0  0
  180.3750  174.8970  136.0020 C   0  0  1  0  0  3  0  0  0  0  0  0
  179.8020  178.4520  138.9960 C   0  0  0  0  0  0  0  0  0  0  0  0
  180.1950  174.8700  137.5060 C   0  0  1  0  0  3  0  0  0  0  0  0
  181.0060  173.7530  136.8010 C   0  0  2  0  0  0  0  0  0  0  0  0
  181.0540  175.6620  138.3210 O   0  0  0  0  0  0  0  0  0  0  0  0
  184.6380  176.6030  137.6250 O   0  0  0  0  0  1  0  0  0  0  0  0
  179.0590  179.5530  139.1250 C   0  0  0  0  0  2  0  0  0  0  0  0
  183.0870  171.6080  137.5390 C   0  0  0  0  0  2  0  0  0  0  0  0
  183.4600  171.4340  134.5940 C   0  0  0  0  0  2  0  0  0  0  0  0
  182.9200  178.6920  138.8070 O   0  0  0  0  0  0  0  0  0  0  0  0
  183.8610  178.7840  139.8360 C   0  0  0  0  0  1  0  0  0  0  0  0
  178.9790  177.4120  136.8940 C   0  0  0  0  0  2  0  0  0  0  0  0
  178.9670  177.9300  135.5990 O   0  0  0  0  0  1  0  0  0  0  0  0
  182.5280  178.2250  134.6640 O   0  0  0  0  0  1  0  0  0  0  0  0
  182.7840  178.2500  136.0340 C   0  0  0  0  0  2  0  0  0  0  0  0
  1 16  1  1  0  0  0
  1  5  1  0  0  0  0
  3 24  1  1  0  0  0
  3 12  1  0  0  0  0
  4 34  1  1  0  0  0
  4 15  1  0  0  0  0
  4  3  1  0  0  0  0
  5  7  1  1  0  0  0
  6 20  1  0  0  0  0
  8 11  1  0  0  0  0
  9 10  1  0  0  0  0
  9 23  1  0  0  0  0
  9 14  1  0  0  0  0
 10  2  1  0  0  0  0
 10 27  1  0  0  0  0
 11 10  1  0  0  0  0
 12  1  1  0  0  0  0
 13 23  1  0  0  0  0
 14  2  1  0  0  0  0
 15 14  1  0  0  0  0
 15 25  1  0  0  0  0
 16  5  1  0  0  0  0
 17 19  2  0  0  0  0
 18  3  1  0  0  0  0
 18 21  1  0  0  0  0
 19 27  1  0  0  0  0
 20 23  1  0  0  0  0
 20 22  1  0  0  0  0
 21 26  2  0  0  0  0
 21  1  1  0  0  0  0
 22 24  1  0  0  0  0
 23 22  1  0  0  0  0
 28 17  1  0  0  0  0
 28 11  1  0  0  0  0
 29 12  1  0  0  0  0
 29 30  1  0  0  0  0
 31 18  1  0  0  0  0
 32 31  1  0  0  0  0
 33 34  1  0  0  0  0
M  END
>  <MODEL>
6

>  <REMARK>
 VINA RESULT:      -3.2      1.895      7.034
  Name = 
  3 active torsions:
  status: ('A' for Active; 'I' for Inactive)
    1  A    between atoms: O_2  and  C_15
    2  A    between atoms: C_5  and  C_31
    3  A    between atoms: C_7  and  C_21
                            x       y       z     vdW  Elec       q    Type
                         _______ _______ _______ _____ _____    ______ ____

>  <TORSDO>
F 3

$$$$
=
 OpenBabel10262419143D

 34 39  0  0  1  0  0  0  0  0999 V2000
  182.4080  178.7930  141.6610 C   0  0  1  0  0  0  0  0  0  0  0  0
  184.4910  175.1380  137.2180 O   0  0  0  0  0  0  0  0  0  0  0  0
  181.9010  177.8510  139.5050 C   0  0  1  0  0  0  0  0  0  0  0  0
  182.1060  178.0250  137.9510 C   0  0  2  0  0  3  0  0  0  0  0  0
  183.1250  179.1050  142.9710 C   0  0  2  0  0  3  0  0  0  0  0  0
  178.9740  175.2130  138.1910 O   0  0  0  0  0  1  0  0  0  0  0  0
  184.4990  179.2230  142.7690 O   0  0  0  0  0  1  0  0  0  0  0  0
  183.3970  175.1450  134.5960 O   0  0  0  0  0  1  0  0  0  0  0  0
  182.3760  175.0630  137.2660 C   0  0  2  0  0  3  0  0  0  0  0  0
  183.5370  174.1810  136.8190 C   0  0  1  0  0  0  0  0  0  0  0  0
  183.5880  173.9530  135.2980 C   0  0  1  0  0  3  0  0  0  0  0  0
  183.0600  178.5110  140.3170 C   0  0  1  0  0  3  0  0  0  0  0  0
  180.7800  173.2580  138.3270 C   0  0  0  0  0  1  0  0  0  0  0  0
  183.4820  175.9090  137.8230 C   0  0  2  0  0  3  0  0  0  0  0  0
  183.3490  177.3360  137.3200 C   0  0  2  0  0  3  0  0  0  0  0  0
  182.6950  177.6850  142.6550 C   0  0  0  0  0  2  0  0  0  0  0  0
  182.6720  171.6670  135.6820 C   0  0  0  0  0  3  0  0  0  0  0  0
  180.6330  178.5970  140.0660 C   0  0  2  0  0  3  0  0  0  0  0  0
  183.1900  171.6450  136.9200 C   0  0  0  0  0  3  0  0  0  0  0  0
  180.2680  175.7380  138.1490 C   0  0  1  0  0  3  0  0  0  0  0  0
  180.9520  178.9590  141.4780 C   0  0  0  0  0  0  0  0  0  0  0  0
  180.9090  175.5910  139.5130 C   0  0  1  0  0  3  0  0  0  0  0  0
  181.3500  174.6730  138.3450 C   0  0  2  0  0  0  0  0  0  0  0  0
  181.9710  176.4680  139.8770 O   0  0  0  0  0  0  0  0  0  0  0  0
  184.5200  178.0440  137.5890 O   0  0  0  0  0  1  0  0  0  0  0  0
  180.2680  179.9080  142.1190 C   0  0  0  0  0  2  0  0  0  0  0  0
  183.7370  172.8730  137.6110 C   0  0  0  0  0  2  0  0  0  0  0  0
  182.5230  172.9400  134.8970 C   0  0  0  0  0  2  0  0  0  0  0  0
  183.4550  179.7370  139.7600 O   0  0  0  0  0  0  0  0  0  0  0  0
  184.8500  179.7470  139.8240 C   0  0  0  0  0  1  0  0  0  0  0  0
  179.2720  177.9210  139.9680 C   0  0  0  0  0  2  0  0  0  0  0  0
  178.9310  177.3580  141.1970 O   0  0  0  0  0  1  0  0  0  0  0  0
  180.7270  179.5550  136.7250 O   0  0  0  0  0  1  0  0  0  0  0  0
  181.9330  179.4440  137.4140 C   0  0  0  0  0  2  0  0  0  0  0  0
  1 16  1  1  0  0  0
  1  5  1  0  0  0  0
  2 14  1  0  0  0  0
  3 24  1  1  0  0  0
  3 18  1  0  0  0  0
  3 12  1  0  0  0  0
  4 34  1  1  0  0  0
  4  3  1  0  0  0  0
  5  7  1  6  0  0  0
  8 11  1  0  0  0  0
  9 14  1  0  0  0  0
  9 23  1  0  0  0  0
 10  2  1  0  0  0  0
 10  9  1  0  0  0  0
 10 27  1  0  0  0  0
 11 10  1  0  0  0  0
 12  1  1  0  0  0  0
 13 23  1  0  0  0  0
 15 25  1  0  0  0  0
 15 14  1  0  0  0  0
 15  4  1  0  0  0  0
 16  5  1  0  0  0  0
 17 19  2  0  0  0  0
 18 21  1  0  0  0  0
 19 27  1  0  0  0  0
 20  6  1  0  0  0  0
 20 23  1  0  0  0  0
 20 22  1  0  0  0  0
 21  1  1  0  0  0  0
 21 26  2  0  0  0  0
 22 24  1  0  0  0  0
 23 22  1  0  0  0  0
 28 11  1  0  0  0  0
 28 17  1  0  0  0  0
 29 30  1  0  0  0  0
 29 12  1  0  0  0  0
 31 18  1  0  0  0  0
 31 32  1  0  0  0  0
 33 34  1  0  0  0  0
M  END
>  <MODEL>
7

>  <REMARK>
 VINA RESULT:      -3.0      1.682      6.742
  Name = 
  3 active torsions:
  status: ('A' for Active; 'I' for Inactive)
    1  A    between atoms: O_2  and  C_15
    2  A    between atoms: C_5  and  C_31
    3  A    between atoms: C_7  and  C_21
                            x       y       z     vdW  Elec       q    Type
                         _______ _______ _______ _____ _____    ______ ____

>  <TORSDO>
F 3

$$$$
=
 OpenBabel10262419143D

 34 39  0  0  1  0  0  0  0  0999 V2000
  184.9790  178.5140  142.7490 C   0  0  1  0  0  0  0  0  0  0  0  0
  184.7250  175.9480  137.2000 O   0  0  0  0  0  0  0  0  0  0  0  0
  183.7280  178.4150  140.6950 C   0  0  1  0  0  0  0  0  0  0  0  0
  183.6250  178.9860  139.2290 C   0  0  2  0  0  3  0  0  0  0  0  0
  186.0320  178.2320  143.8160 C   0  0  2  0  0  3  0  0  0  0  0  0
  179.8910  177.1090  139.7850 O   0  0  0  0  0  1  0  0  0  0  0  0
  187.2890  178.0560  143.2400 O   0  0  0  0  0  1  0  0  0  0  0  0
  183.1350  177.0090  135.0970 O   0  0  0  0  0  1  0  0  0  0  0  0
  182.7660  176.3940  137.8660 C   0  0  2  0  0  3  0  0  0  0  0  0
  183.4490  175.4240  136.9090 C   0  0  1  0  0  0  0  0  0  0  0  0
  183.0830  175.6540  135.4320 C   0  0  1  0  0  3  0  0  0  0  0  0
  185.1880  178.4910  141.2430 C   0  0  1  0  0  3  0  0  0  0  0  0
  180.9540  174.8150  138.9400 C   0  0  0  0  0  1  0  0  0  0  0  0
  184.1800  176.7310  138.2340 C   0  0  2  0  0  3  0  0  0  0  0  0
  184.4060  178.2290  138.1180 C   0  0  2  0  0  3  0  0  0  0  0  0
  185.1090  177.1250  143.3430 C   0  0  0  0  0  2  0  0  0  0  0  0
  181.5900  173.6630  135.5670 C   0  0  0  0  0  3  0  0  0  0  0  0
  182.9270  179.2530  141.7610 C   0  0  2  0  0  3  0  0  0  0  0  0
  182.3360  173.1450  136.5540 C   0  0  0  0  0  3  0  0  0  0  0  0
  181.2410  177.2810  139.4690 C   0  0  1  0  0  3  0  0  0  0  0  0
  183.6530  179.0860  143.0540 C   0  0  0  0  0  0  0  0  0  0  0  0
  182.0880  176.5790  140.5100 C   0  0  1  0  0  3  0  0  0  0  0  0
  181.9370  175.9700  139.0920 C   0  0  2  0  0  0  0  0  0  0  0  0
  183.4300  177.0130  140.7180 O   0  0  0  0  0  0  0  0  0  0  0  0
  185.7710  178.5080  138.1690 O   0  0  0  0  0  1  0  0  0  0  0  0
  183.4720  179.9400  144.0630 C   0  0  0  0  0  2  0  0  0  0  0  0
  183.3900  173.9330  137.2980 C   0  0  0  0  0  2  0  0  0  0  0  0
  181.6880  175.1070  135.1600 C   0  0  0  0  0  2  0  0  0  0  0  0
  185.8220  179.6870  140.8740 O   0  0  0  0  0  0  0  0  0  0  0  0
  187.1750  179.3700  140.7410 C   0  0  0  0  0  1  0  0  0  0  0  0
  181.4350  179.0000  141.9340 C   0  0  0  0  0  2  0  0  0  0  0  0
  180.7130  180.1280  141.5460 O   0  0  0  0  0  1  0  0  0  0  0  0
  182.6000  181.0920  138.7200 O   0  0  0  0  0  1  0  0  0  0  0  0
  183.8030  180.4960  139.0920 C   0  0  0  0  0  2  0  0  0  0  0  0
  1 21  1  0  0  0  0
  1 16  1  1  0  0  0
  1  5  1  0  0  0  0
  2 14  1  0  0  0  0
  3 24  1  1  0  0  0
  3 12  1  0  0  0  0
  3 18  1  0  0  0  0
  4 34  1  1  0  0  0
  4  3  1  0  0  0  0
  5  7  1  6  0  0  0
  8 11  1  0  0  0  0
  9 14  1  0  0  0  0
  9 23  1  0  0  0  0
 10  2  1  0  0  0  0
 10 27  1  0  0  0  0
 10  9  1  0  0  0  0
 11 10  1  0  0  0  0
 12  1  1  0  0  0  0
 13 23  1  0  0  0  0
 15 25  1  0  0  0  0
 15 14  1  0  0  0  0
 15  4  1  0  0  0  0
 16  5  1  0  0  0  0
 17 19  2  0  0  0  0
 18 31  1  0  0  0  0
 18 21  1  0  0  0  0
 19 27  1  0  0  0  0
 20  6  1  0  0  0  0
 20 22  1  0  0  0  0
 21 26  2  0  0  0  0
 22 24  1  0  0  0  0
 23 20  1  0  0  0  0
 23 22  1  0  0  0  0
 28 11  1  0  0  0  0
 28 17  1  0  0  0  0
 29 12  1  0  0  0  0
 30 29  1  0  0  0  0
 32 31  1  0  0  0  0
 33 34  1  0  0  0  0
M  END
>  <MODEL>
8

>  <REMARK>
 VINA RESULT:      -2.6      2.074      6.516
  Name = 
  3 active torsions:
  status: ('A' for Active; 'I' for Inactive)
    1  A    between atoms: O_2  and  C_15
    2  A    between atoms: C_5  and  C_31
    3  A    between atoms: C_7  and  C_21
                            x       y       z     vdW  Elec       q    Type
                         _______ _______ _______ _____ _____    ______ ____

>  <TORSDO>
F 3

$$$$
=
 OpenBabel10262419143D

 34 39  0  0  1  0  0  0  0  0999 V2000
  186.3230  174.0270  136.7370 C   0  0  1  0  0  0  0  0  0  0  0  0
  180.6230  176.0090  137.7460 O   0  0  0  0  0  0  0  0  0  0  0  0
  184.9220  175.9810  136.8420 C   0  0  1  0  0  0  0  0  0  0  0  0
  183.9160  176.8810  136.0270 C   0  0  2  0  0  3  0  0  0  0  0  0
  186.7910  172.5770  136.8080 C   0  0  2  0  0  3  0  0  0  0  0  0
  184.8720  179.2900  139.3530 O   0  0  0  0  0  1  0  0  0  0  0  0
  185.8180  171.7150  136.3030 O   0  0  0  0  0  1  0  0  0  0  0  0
  179.7440  178.5950  136.9620 O   0  0  0  0  0  1  0  0  0  0  0  0
  182.0080  177.5020  138.3260 C   0  0  2  0  0  3  0  0  0  0  0  0
  180.5820  177.0790  138.6630 C   0  0  1  0  0  0  0  0  0  0  0  0
  179.5190  178.1140  138.2540 C   0  0  1  0  0  3  0  0  0  0  0  0
  184.9500  174.5150  136.3050 C   0  0  1  0  0  3  0  0  0  0  0  0
  182.9030  178.1280  140.7220 C   0  0  0  0  0  1  0  0  0  0  0  0
  181.9970  176.2280  137.5360 C   0  0  2  0  0  3  0  0  0  0  0  0
  182.4100  176.5030  136.1000 C   0  0  2  0  0  3  0  0  0  0  0  0
  186.2510  173.2670  138.0460 C   0  0  0  0  0  2  0  0  0  0  0  0
  179.3410  178.7720  140.6510 C   0  0  0  0  0  3  0  0  0  0  0  0
  186.4270  176.4190  136.6970 C   0  0  2  0  0  3  0  0  0  0  0  0
  179.7470  177.5530  141.0370 C   0  0  0  0  0  3  0  0  0  0  0  0
  184.2290  178.3300  138.5670 C   0  0  1  0  0  3  0  0  0  0  0  0
  187.2410  175.1780  136.8570 C   0  0  0  0  0  0  0  0  0  0  0  0
  184.5760  176.9500  139.0860 C   0  0  1  0  0  3  0  0  0  0  0  0
  183.1670  177.5430  139.3390 C   0  0  2  0  0  0  0  0  0  0  0  0
  184.4910  175.8360  138.2020 O   0  0  0  0  0  0  0  0  0  0  0  0
  182.1190  175.3960  135.3030 O   0  0  0  0  0  1  0  0  0  0  0  0
  188.5020  175.1180  136.4270 C   0  0  0  0  0  2  0  0  0  0  0  0
  180.3540  176.5430  140.0910 C   0  0  0  0  0  2  0  0  0  0  0  0
  179.5230  179.2710  139.2450 C   0  0  0  0  0  2  0  0  0  0  0  0
  184.8940  174.4720  134.9040 O   0  0  0  0  0  0  0  0  0  0  0  0
  183.8500  173.5970  134.5960 C   0  0  0  0  0  1  0  0  0  0  0  0
  186.9610  177.5410  137.5770 C   0  0  0  0  0  2  0  0  0  0  0  0
  187.8330  178.3460  136.8450 O   0  0  0  0  0  1  0  0  0  0  0  0
  185.3510  178.1580  134.5940 O   0  0  0  0  0  1  0  0  0  0  0  0
  184.3310  177.2090  134.5950 C   0  0  0  0  0  2  0  0  0  0  0  0
  1  5  1  0  0  0  0
  1 21  1  0  0  0  0
  1 16  1  1  0  0  0
  2 10  1  0  0  0  0
  3 24  1  1  0  0  0
  4 34  1  6  0  0  0
  4 15  1  0  0  0  0
  4  3  1  0  0  0  0
  5  7  1  6  0  0  0
  5 16  1  0  0  0  0
  8 11  1  0  0  0  0
  9 10  1  0  0  0  0
  9 23  1  0  0  0  0
 10 27  1  0  0  0  0
 11 10  1  0  0  0  0
 11 28  1  0  0  0  0
 12  1  1  0  0  0  0
 12  3  1  0  0  0  0
 14  2  1  0  0  0  0
 14  9  1  0  0  0  0
 15 14  1  0  0  0  0
 17 19  2  0  0  0  0
 18  3  1  0  0  0  0
 18 21  1  0  0  0  0
 18 31  1  0  0  0  0
 20 22  1  0  0  0  0
 20 23  1  0  0  0  0
 20  6  1  0  0  0  0
 22 23  1  0  0  0  0
 23 13  1  0  0  0  0
 24 22  1  0  0  0  0
 25 15  1  0  0  0  0
 26 21  2  0  0  0  0
 27 19  1  0  0  0  0
 28 17  1  0  0  0  0
 29 12  1  0  0  0  0
 30 29  1  0  0  0  0
 32 31  1  0  0  0  0
 33 34  1  0  0  0  0
M  END
>  <MODEL>
9

>  <REMARK>
 VINA RESULT:      -2.4      1.682      2.407
  Name = 
  3 active torsions:
  status: ('A' for Active; 'I' for Inactive)
    1  A    between atoms: O_2  and  C_15
    2  A    between atoms: C_5  and  C_31
    3  A    between atoms: C_7  and  C_21
                            x       y       z     vdW  Elec       q    Type
                         _______ _______ _______ _____ _____    ______ ____

>  <TORSDO>
F 3

$$$$
