=
 OpenBabel10262420263D

 55 60  0  0  1  0  0  0  0  0999 V2000
  190.7530  177.1010  138.5220 N   0  0  0  0  0  0  0  0  0  0  0  0
  189.6950  176.2290  138.0440 C   0  0  0  0  0  2  0  0  0  0  0  0
  188.3460  176.9020  138.2530 C   0  0  0  0  0  2  0  0  0  0  0  0
  187.9860  179.0480  137.2650 O   0  0  0  0  0  1  0  0  0  0  0  0
  187.8600  177.6760  137.0220 C   0  0  1  0  0  0  0  0  0  0  0  0
  188.8040  177.3310  135.8760 C   0  0  0  0  0  1  0  0  0  0  0  0
  184.5400  175.8910  137.4640 C   0  0  2  0  0  3  0  0  0  0  0  0
  183.3930  177.5460  136.1570 O   0  0  0  0  0  1  0  0  0  0  0  0
  186.3730  177.3450  136.6670 C   0  0  1  0  0  0  0  0  0  0  0  0
  185.7130  178.4910  138.7080 O   0  0  0  0  0  1  0  0  0  0  0  0
  185.3170  178.1960  137.3980 C   0  0  2  0  0  3  0  0  0  0  0  0
  186.2630  175.0100  135.9760 O   0  0  0  0  0  1  0  0  0  0  0  0
  183.7570  175.0220  136.6950 O   0  0  0  0  0  1  0  0  0  0  0  0
  184.0410  177.3380  137.3820 C   0  0  2  0  0  0  0  0  0  0  0  0
  186.1820  177.5330  135.2910 O   0  0  0  0  0  1  0  0  0  0  0  0
  186.0090  175.8960  137.0300 C   0  0  2  0  0  3  0  0  0  0  0  0
  183.0380  177.6320  138.5160 C   0  0  1  0  0  3  0  0  0  0  0  0
  181.8550  178.1990  138.0280 O   0  0  0  0  0  1  0  0  0  0  0  0
  182.7260  176.3900  139.3410 C   0  0  0  0  0  2  0  0  0  0  0  0
  181.4180  175.9730  139.0910 O   0  0  0  0  0  1  0  0  0  0  0  0
  190.4450  177.4260  139.9100 C   0  0  0  0  0  2  0  0  0  0  0  0
  191.6990  177.3440  140.7660 C   0  0  0  0  0  2  0  0  0  0  0  0
  191.4120  177.7590  142.0930 O   0  0  0  0  0  0  0  0  0  0  0  0
  190.4620  175.8630  142.9620 O   0  0  0  0  0  0  0  0  0  0  0  0
  189.4130  177.8770  143.5070 N   0  0  0  0  0  2  0  0  0  0  0  0
  190.4410  177.1180  142.8620 C   0  0  0  0  0  0  0  0  0  0  0  0
  185.6170  178.1980  141.8770 N   0  0  0  0  0  0  0  0  0  0  0  0
  189.8260  177.6360  146.3190 C   0  0  0  0  0  3  0  0  0  0  0  0
  183.5440  178.5270  144.8870 C   0  0  0  0  0  3  0  0  0  0  0  0
  190.0100  177.9040  147.6790 C   0  0  0  0  0  3  0  0  0  0  0  0
  187.4230  177.7760  146.6100 C   0  0  0  0  0  0  0  0  0  0  0  0
  187.6130  178.0340  147.9720 C   0  0  0  0  0  3  0  0  0  0  0  0
  188.9020  178.1070  148.5050 C   0  0  0  0  0  3  0  0  0  0  0  0
  188.5370  177.5840  145.7670 C   0  0  0  0  0  0  0  0  0  0  0  0
  186.8180  177.8220  142.3850 C   0  0  0  0  0  3  0  0  0  0  0  0
  182.2220  179.0880  142.9260 C   0  0  0  0  0  0  0  0  0  0  0  0
  185.9030  177.8980  144.6250 C   0  0  0  0  0  0  0  0  0  0  0  0
  184.5520  178.4460  142.6780 C   0  0  0  0  0  0  0  0  0  0  0  0
  186.0250  177.6240  146.1010 C   0  0  0  0  0  2  0  0  0  0  0  0
  183.3370  178.8440  142.1130 C   0  0  0  0  0  3  0  0  0  0  0  0
  188.3530  177.2580  144.2990 C   0  0  1  0  0  3  0  0  0  0  0  0
  182.3330  178.9240  144.3140 C   0  0  0  0  0  3  0  0  0  0  0  0
  187.0020  177.6860  143.7670 C   0  0  0  0  0  0  0  0  0  0  0  0
  184.6650  178.2890  144.0770 C   0  0  0  0  0  0  0  0  0  0  0  0
  180.9500  179.5140  142.3230 C   0  0  0  0  0  0  0  0  0  0  0  0
  180.4530  178.8620  141.2000 O   0  0  0  0  0  0  0  0  0  0  0  0
  180.3010  180.4760  142.8140 O   0  0  0  0  0  1  0  0  0  0  0  0
  191.9770  176.3160  138.5110 C   0  0  0  0  0  2  0  0  0  0  0  0
  192.5960  176.3750  137.1270 C   0  0  0  0  0  2  0  0  0  0  0  0
  196.0290  173.8640  136.8590 C   0  0  0  0  0  3  0  0  0  0  0  0
  193.7990  175.5020  137.0550 C   0  0  0  0  0  0  0  0  0  0  0  0
  194.8640  175.8720  136.2920 N   0  0  0  0  0  0  0  0  0  0  0  0
  194.9470  173.4680  137.6470 C   0  0  0  0  0  3  0  0  0  0  0  0
  195.9690  175.0840  136.1810 C   0  0  0  0  0  3  0  0  0  0  0  0
  193.8230  174.2900  137.7490 C   0  0  0  0  0  3  0  0  0  0  0  0
  1 21  1  0  0  0  0
  2  3  1  0  0  0  0
  2  1  1  0  0  0  0
  5  6  1  6  0  0  0
  5  4  1  0  0  0  0
  5  3  1  0  0  0  0
  7 13  1  6  0  0  0
  9 15  1  6  0  0  0
  9  5  1  0  0  0  0
  9 16  1  0  0  0  0
  9 11  1  0  0  0  0
 11 10  1  1  0  0  0
 14  8  1  6  0  0  0
 14 11  1  0  0  0  0
 14  7  1  0  0  0  0
 14 17  1  0  0  0  0
 16 12  1  6  0  0  0
 16  7  1  0  0  0  0
 17 18  1  6  0  0  0
 17 19  1  0  0  0  0
 20 19  1  0  0  0  0
 21 22  1  0  0  0  0
 22 23  1  0  0  0  0
 23 26  1  0  0  0  0
 26 24  2  0  0  0  0
 26 25  1  0  0  0  0
 27 35  2  0  0  0  0
 27 38  1  0  0  0  0
 28 30  1  0  0  0  0
 30 33  2  0  0  0  0
 31 32  2  0  0  0  0
 32 33  1  0  0  0  0
 34 28  2  0  0  0  0
 34 31  1  0  0  0  0
 35 43  1  0  0  0  0
 36 42  2  0  0  0  0
 37 39  1  0  0  0  0
 38 44  1  0  0  0  0
 39 31  1  0  0  0  0
 40 38  2  0  0  0  0
 40 36  1  0  0  0  0
 41 25  1  6  0  0  0
 41 34  1  0  0  0  0
 42 29  1  0  0  0  0
 43 41  1  0  0  0  0
 43 37  2  0  0  0  0
 44 37  1  0  0  0  0
 44 29  2  0  0  0  0
 45 47  1  0  0  0  0
 45 36  1  0  0  0  0
 46 45  2  0  0  0  0
 48  1  1  0  0  0  0
 49 48  1  0  0  0  0
 50 53  1  0  0  0  0
 51 49  1  0  0  0  0
 51 55  1  0  0  0  0
 52 51  2  0  0  0  0
 53 55  2  0  0  0  0
 54 52  1  0  0  0  0
 54 50  2  0  0  0  0
M  END
>  <MODEL>
1

>  <REMARK>
 VINA RESULT:      -9.9      0.000      0.000
  Name = 
  15 active torsions:
  status: ('A' for Active; 'I' for Inactive)
    1  A    between atoms: O_4  and  C_37
    2  A    between atoms: O_4  and  C_40
    3  A    between atoms: C_6  and  C_20
    4  A    between atoms: C_8  and  C_22
    5  A    between atoms: C_8  and  N_43
    6  A    between atoms: C_10  and  C_32
    7  A    between atoms: C_11  and  C_29
    8  A    between atoms: N_19  and  C_45
    9  A    between atoms: C_20  and  C_22
   10  A    between atoms: C_27  and  C_54
   11  A    between atoms: C_29  and  C_38
   12  A    between atoms: C_35  and  C_37
   13  A    between atoms: C_35  and  N_43
   14  A    between atoms: N_43  and  C_51
   15  A    between atoms: C_51  and  C_54
                            x       y       z     vdW  Elec       q    Type
                         _______ _______ _______ _____ _____    ______ ____

>  <TORSDO>
F 15

$$$$
=
 OpenBabel10262420263D

 55 60  0  0  1  0  0  0  0  0999 V2000
  190.1290  176.6560  137.7290 N   0  0  0  0  0  0  0  0  0  0  0  0
  191.4810  176.5680  137.2080 C   0  0  0  0  0  2  0  0  0  0  0  0
  191.9700  175.1280  137.2970 C   0  0  0  0  0  2  0  0  0  0  0  0
  192.2050  174.0700  135.1670 O   0  0  0  0  0  1  0  0  0  0  0  0
  192.9240  174.7430  136.1610 C   0  0  1  0  0  0  0  0  0  0  0  0
  193.4360  176.0420  135.5480 C   0  0  0  0  0  1  0  0  0  0  0  0
  196.5610  173.7130  136.5100 C   0  0  2  0  0  3  0  0  0  0  0  0
  196.0610  172.3230  138.4010 O   0  0  0  0  0  1  0  0  0  0  0  0
  194.0970  173.8360  136.6600 C   0  0  1  0  0  0  0  0  0  0  0  0
  194.7530  175.6400  138.1530 O   0  0  0  0  0  1  0  0  0  0  0  0
  194.7190  174.2480  138.0080 C   0  0  2  0  0  3  0  0  0  0  0  0
  195.1640  172.8380  134.7100 O   0  0  0  0  0  1  0  0  0  0  0  0
  197.3290  172.6020  136.1420 O   0  0  0  0  0  1  0  0  0  0  0  0
  196.1390  173.6570  137.9820 C   0  0  2  0  0  0  0  0  0  0  0  0
  193.6260  172.5230  136.8020 O   0  0  0  0  0  1  0  0  0  0  0  0
  195.2800  173.8410  135.6790 C   0  0  2  0  0  3  0  0  0  0  0  0
  197.1690  174.3840  138.8710 C   0  0  1  0  0  3  0  0  0  0  0  0
  197.8060  175.4220  138.1830 O   0  0  0  0  0  1  0  0  0  0  0  0
  196.5460  174.9100  140.1570 C   0  0  0  0  0  2  0  0  0  0  0  0
  197.1340  176.1270  140.5040 O   0  0  0  0  0  1  0  0  0  0  0  0
  189.3410  175.6370  137.0480 C   0  0  0  0  0  2  0  0  0  0  0  0
  187.8550  175.9000  137.2370 C   0  0  0  0  0  2  0  0  0  0  0  0
  187.5320  177.2110  136.7980 O   0  0  0  0  0  0  0  0  0  0  0  0
  186.9260  179.3490  137.3580 O   0  0  0  0  0  0  0  0  0  0  0  0
  186.2170  177.6690  138.8160 N   0  0  0  0  0  2  0  0  0  0  0  0
  186.8890  178.1220  137.6360 C   0  0  0  0  0  0  0  0  0  0  0  0
  188.0220  177.9680  142.5340 N   0  0  0  0  0  0  0  0  0  0  0  0
  183.4250  178.1280  138.4580 C   0  0  0  0  0  3  0  0  0  0  0  0
  185.1180  178.4140  144.7320 C   0  0  0  0  0  3  0  0  0  0  0  0
  182.0370  177.9790  138.3840 C   0  0  0  0  0  3  0  0  0  0  0  0
  183.2600  178.5250  140.8450 C   0  0  0  0  0  0  0  0  0  0  0  0
  181.8700  178.3850  140.7620 C   0  0  0  0  0  3  0  0  0  0  0  0
  181.2600  178.1050  139.5370 C   0  0  0  0  0  3  0  0  0  0  0  0
  184.0530  178.3860  139.6870 C   0  0  0  0  0  0  0  0  0  0  0  0
  187.4870  178.1390  141.2990 C   0  0  0  0  0  3  0  0  0  0  0  0
  187.0850  177.9280  146.0750 C   0  0  0  0  0  0  0  0  0  0  0  0
  185.3060  178.5050  142.2860 C   0  0  0  0  0  0  0  0  0  0  0  0
  187.2630  178.0390  143.6550 C   0  0  0  0  0  0  0  0  0  0  0  0
  183.8610  178.9090  142.1590 C   0  0  0  0  0  2  0  0  0  0  0  0
  187.8530  177.8430  144.9060 C   0  0  0  0  0  3  0  0  0  0  0  0
  185.5540  178.5790  139.7460 C   0  0  1  0  0  3  0  0  0  0  0  0
  185.7160  178.2180  145.9790 C   0  0  0  0  0  3  0  0  0  0  0  0
  186.1170  178.3860  141.1380 C   0  0  0  0  0  0  0  0  0  0  0  0
  185.8820  178.3220  143.5590 C   0  0  0  0  0  0  0  0  0  0  0  0
  187.7140  177.7120  147.3870 C   0  0  0  0  0  0  0  0  0  0  0  0
  188.7220  176.7660  147.5340 O   0  0  0  0  0  0  0  0  0  0  0  0
  187.3440  178.3800  148.3900 O   0  0  0  0  0  1  0  0  0  0  0  0
  190.2010  176.2960  139.1370 C   0  0  0  0  0  2  0  0  0  0  0  0
  190.9000  177.4050  139.9010 C   0  0  0  0  0  2  0  0  0  0  0  0
  191.1350  176.4180  144.0400 C   0  0  0  0  0  3  0  0  0  0  0  0
  191.0050  177.0590  141.3450 C   0  0  0  0  0  0  0  0  0  0  0  0
  190.4650  175.8980  141.8070 N   0  0  0  0  0  0  0  0  0  0  0  0
  191.6950  177.6130  143.5850 C   0  0  0  0  0  3  0  0  0  0  0  0
  190.5180  175.5620  143.1250 C   0  0  0  0  0  3  0  0  0  0  0  0
  191.6320  177.9400  142.2300 C   0  0  0  0  0  3  0  0  0  0  0  0
  1 48  1  0  0  0  0
  2  3  1  0  0  0  0
  2  1  1  0  0  0  0
  4  5  1  0  0  0  0
  5  6  1  6  0  0  0
  5  9  1  0  0  0  0
  5  3  1  0  0  0  0
  7 13  1  6  0  0  0
  7 14  1  0  0  0  0
  9 15  1  1  0  0  0
  9 11  1  0  0  0  0
 11 10  1  6  0  0  0
 14 11  1  0  0  0  0
 14  8  1  1  0  0  0
 14 17  1  0  0  0  0
 16 12  1  6  0  0  0
 16  7  1  0  0  0  0
 16  9  1  0  0  0  0
 17 18  1  6  0  0  0
 17 19  1  0  0  0  0
 19 20  1  0  0  0  0
 21 22  1  0  0  0  0
 21  1  1  0  0  0  0
 23 22  1  0  0  0  0
 23 26  1  0  0  0  0
 24 26  2  0  0  0  0
 26 25  1  0  0  0  0
 27 38  1  0  0  0  0
 28 34  1  0  0  0  0
 29 42  1  0  0  0  0
 30 28  2  0  0  0  0
 30 33  1  0  0  0  0
 31 39  1  0  0  0  0
 32 31  1  0  0  0  0
 33 32  2  0  0  0  0
 34 41  1  0  0  0  0
 34 31  2  0  0  0  0
 35 27  2  0  0  0  0
 36 45  1  0  0  0  0
 37 44  1  0  0  0  0
 38 40  2  0  0  0  0
 39 37  1  0  0  0  0
 40 36  1  0  0  0  0
 41 25  1  6  0  0  0
 41 43  1  0  0  0  0
 42 36  2  0  0  0  0
 43 35  1  0  0  0  0
 43 37  2  0  0  0  0
 44 38  1  0  0  0  0
 44 29  2  0  0  0  0
 45 46  2  0  0  0  0
 45 47  1  0  0  0  0
 48 49  1  0  0  0  0
 49 51  1  0  0  0  0
 51 52  2  0  0  0  0
 51 55  1  0  0  0  0
 52 54  1  0  0  0  0
 53 50  1  0  0  0  0
 54 50  2  0  0  0  0
 55 53  2  0  0  0  0
M  END
>  <MODEL>
2

>  <REMARK>
 VINA RESULT:      -8.6      3.437      8.375
  Name = 
  15 active torsions:
  status: ('A' for Active; 'I' for Inactive)
    1  A    between atoms: O_4  and  C_37
    2  A    between atoms: O_4  and  C_40
    3  A    between atoms: C_6  and  C_20
    4  A    between atoms: C_8  and  C_22
    5  A    between atoms: C_8  and  N_43
    6  A    between atoms: C_10  and  C_32
    7  A    between atoms: C_11  and  C_29
    8  A    between atoms: N_19  and  C_45
    9  A    between atoms: C_20  and  C_22
   10  A    between atoms: C_27  and  C_54
   11  A    between atoms: C_29  and  C_38
   12  A    between atoms: C_35  and  C_37
   13  A    between atoms: C_35  and  N_43
   14  A    between atoms: N_43  and  C_51
   15  A    between atoms: C_51  and  C_54
                            x       y       z     vdW  Elec       q    Type
                         _______ _______ _______ _____ _____    ______ ____

>  <TORSDO>
F 15

$$$$
=
 OpenBabel10262420263D

 55 60  0  0  1  0  0  0  0  0999 V2000
  189.8230  176.5000  137.6310 N   0  0  0  0  0  0  0  0  0  0  0  0
  190.9370  176.3950  136.7070 C   0  0  0  0  0  2  0  0  0  0  0  0
  192.0730  175.6200  137.3620 C   0  0  0  0  0  2  0  0  0  0  0  0
  192.9240  173.5410  136.5470 O   0  0  0  0  0  1  0  0  0  0  0  0
  192.9910  174.9250  136.3520 C   0  0  1  0  0  0  0  0  0  0  0  0
  192.4300  175.2150  134.9640 C   0  0  0  0  0  1  0  0  0  0  0  0
  196.6710  174.4970  137.1820 C   0  0  2  0  0  3  0  0  0  0  0  0
  197.2620  176.4320  135.8900 O   0  0  0  0  0  1  0  0  0  0  0  0
  194.4770  175.3980  136.4850 C   0  0  1  0  0  0  0  0  0  0  0  0
  195.0210  173.9650  134.5970 O   0  0  0  0  0  1  0  0  0  0  0  0
  195.3570  175.1610  135.2430 C   0  0  2  0  0  3  0  0  0  0  0  0
  195.0850  175.3210  138.8440 O   0  0  0  0  0  1  0  0  0  0  0  0
  197.5680  175.0690  138.0910 O   0  0  0  0  0  1  0  0  0  0  0  0
  196.7960  175.1150  135.7840 C   0  0  2  0  0  0  0  0  0  0  0  0
  194.4930  176.7750  136.7520 O   0  0  0  0  0  1  0  0  0  0  0  0
  195.2110  174.6600  137.6160 C   0  0  2  0  0  3  0  0  0  0  0  0
  197.7960  174.3160  134.9240 C   0  0  1  0  0  3  0  0  0  0  0  0
  198.9310  175.0710  134.6120 O   0  0  0  0  0  1  0  0  0  0  0  0
  198.2010  173.0050  135.5860 C   0  0  0  0  0  2  0  0  0  0  0  0
  197.7510  171.9290  134.8200 O   0  0  0  0  0  1  0  0  0  0  0  0
  188.9260  175.3860  137.3500 C   0  0  0  0  0  2  0  0  0  0  0  0
  187.6400  175.8870  136.7110 C   0  0  0  0  0  2  0  0  0  0  0  0
  187.7200  177.2870  136.4880 O   0  0  0  0  0  0  0  0  0  0  0  0
  187.1000  179.4140  137.0730 O   0  0  0  0  0  0  0  0  0  0  0  0
  185.7740  177.6900  137.9240 N   0  0  0  0  0  2  0  0  0  0  0  0
  186.8730  178.1780  137.1470 C   0  0  0  0  0  0  0  0  0  0  0  0
  186.9130  178.4580  141.8340 N   0  0  0  0  0  0  0  0  0  0  0  0
  183.0430  177.7800  137.1080 C   0  0  0  0  0  3  0  0  0  0  0  0
  183.6610  178.6950  143.5180 C   0  0  0  0  0  3  0  0  0  0  0  0
  181.7100  177.4590  136.8360 C   0  0  0  0  0  3  0  0  0  0  0  0
  182.4520  178.3150  139.3980 C   0  0  0  0  0  0  0  0  0  0  0  0
  181.1180  178.0020  139.1170 C   0  0  0  0  0  3  0  0  0  0  0  0
  180.7480  177.5670  137.8420 C   0  0  0  0  0  3  0  0  0  0  0  0
  183.4320  178.1960  138.3910 C   0  0  0  0  0  0  0  0  0  0  0  0
  186.5670  178.4790  140.5210 C   0  0  0  0  0  3  0  0  0  0  0  0
  185.4270  178.5440  145.1810 C   0  0  0  0  0  0  0  0  0  0  0  0
  184.2300  178.6420  141.1300 C   0  0  0  0  0  0  0  0  0  0  0  0
  185.9800  178.5120  142.8150 C   0  0  0  0  0  0  0  0  0  0  0  0
  182.7890  178.8570  140.7510 C   0  0  0  0  0  2  0  0  0  0  0  0
  186.3790  178.4740  144.1540 C   0  0  0  0  0  3  0  0  0  0  0  0
  184.8740  178.5730  138.6610 C   0  0  1  0  0  3  0  0  0  0  0  0
  184.0690  178.6580  144.8540 C   0  0  0  0  0  3  0  0  0  0  0  0
  185.2230  178.5460  140.1330 C   0  0  0  0  0  0  0  0  0  0  0  0
  184.6100  178.6170  142.4870 C   0  0  0  0  0  0  0  0  0  0  0  0
  185.8570  178.4960  146.5870 C   0  0  0  0  0  0  0  0  0  0  0  0
  186.8300  177.5900  146.9930 O   0  0  0  0  0  0  0  0  0  0  0  0
  185.3450  179.2730  147.4370 O   0  0  0  0  0  1  0  0  0  0  0  0
  190.3690  176.3050  138.9660 C   0  0  0  0  0  2  0  0  0  0  0  0
  189.8620  177.4070  139.8790 C   0  0  0  0  0  2  0  0  0  0  0  0
  190.9240  176.6670  143.9390 C   0  0  0  0  0  3  0  0  0  0  0  0
  190.2490  177.1340  141.2900 C   0  0  0  0  0  0  0  0  0  0  0  0
  189.3760  176.5090  142.1260 N   0  0  0  0  0  0  0  0  0  0  0  0
  191.8330  177.3090  143.0960 C   0  0  0  0  0  3  0  0  0  0  0  0
  189.6850  176.2690  143.4300 C   0  0  0  0  0  3  0  0  0  0  0  0
  191.4980  177.5460  141.7620 C   0  0  0  0  0  3  0  0  0  0  0  0
  1 48  1  0  0  0  0
  2  3  1  0  0  0  0
  2  1  1  0  0  0  0
  5  6  1  6  0  0  0
  5  9  1  0  0  0  0
  5  4  1  0  0  0  0
  5  3  1  0  0  0  0
  7 16  1  0  0  0  0
  7 13  1  1  0  0  0
  9 15  1  1  0  0  0
  9 16  1  0  0  0  0
 11 10  1  1  0  0  0
 11 14  1  0  0  0  0
 11  9  1  0  0  0  0
 14  8  1  1  0  0  0
 14  7  1  0  0  0  0
 16 12  1  1  0  0  0
 17 18  1  1  0  0  0
 17 19  1  0  0  0  0
 17 14  1  0  0  0  0
 20 19  1  0  0  0  0
 21  1  1  0  0  0  0
 22 21  1  0  0  0  0
 23 22  1  0  0  0  0
 23 26  1  0  0  0  0
 24 26  2  0  0  0  0
 26 25  1  0  0  0  0
 27 38  1  0  0  0  0
 28 34  1  0  0  0  0
 29 42  1  0  0  0  0
 30 28  2  0  0  0  0
 30 33  1  0  0  0  0
 31 39  1  0  0  0  0
 32 31  1  0  0  0  0
 33 32  2  0  0  0  0
 34 41  1  0  0  0  0
 34 31  2  0  0  0  0
 35 27  2  0  0  0  0
 36 45  1  0  0  0  0
 37 44  1  0  0  0  0
 38 40  2  0  0  0  0
 39 37  1  0  0  0  0
 40 36  1  0  0  0  0
 41 25  1  6  0  0  0
 41 43  1  0  0  0  0
 42 36  2  0  0  0  0
 43 35  1  0  0  0  0
 43 37  2  0  0  0  0
 44 38  1  0  0  0  0
 44 29  2  0  0  0  0
 45 46  2  0  0  0  0
 45 47  1  0  0  0  0
 48 49  1  0  0  0  0
 49 51  1  0  0  0  0
 51 55  2  0  0  0  0
 51 52  1  0  0  0  0
 52 54  2  0  0  0  0
 53 50  2  0  0  0  0
 54 50  1  0  0  0  0
 55 53  1  0  0  0  0
M  END
>  <MODEL>
3

>  <REMARK>
 VINA RESULT:      -8.6      3.747      8.780
  Name = 
  15 active torsions:
  status: ('A' for Active; 'I' for Inactive)
    1  A    between atoms: O_4  and  C_37
    2  A    between atoms: O_4  and  C_40
    3  A    between atoms: C_6  and  C_20
    4  A    between atoms: C_8  and  C_22
    5  A    between atoms: C_8  and  N_43
    6  A    between atoms: C_10  and  C_32
    7  A    between atoms: C_11  and  C_29
    8  A    between atoms: N_19  and  C_45
    9  A    between atoms: C_20  and  C_22
   10  A    between atoms: C_27  and  C_54
   11  A    between atoms: C_29  and  C_38
   12  A    between atoms: C_35  and  C_37
   13  A    between atoms: C_35  and  N_43
   14  A    between atoms: N_43  and  C_51
   15  A    between atoms: C_51  and  C_54
                            x       y       z     vdW  Elec       q    Type
                         _______ _______ _______ _____ _____    ______ ____

>  <TORSDO>
F 15

$$$$
=
 OpenBabel10262420263D

 55 60  0  0  1  0  0  0  0  0999 V2000
  184.4370  175.1860  136.5390 N   0  0  0  0  0  0  0  0  0  0  0  0
  185.1430  176.2180  135.8000 C   0  0  0  0  0  2  0  0  0  0  0  0
  186.5020  175.6920  135.3600 C   0  0  0  0  0  2  0  0  0  0  0  0
  188.4540  176.8380  134.5940 O   0  0  0  0  0  1  0  0  0  0  0  0
  187.6590  176.6280  135.7260 C   0  0  1  0  0  0  0  0  0  0  0  0
  187.0440  177.9710  136.1030 C   0  0  0  0  0  1  0  0  0  0  0  0
  190.8880  175.3970  137.2970 C   0  0  2  0  0  3  0  0  0  0  0  0
  189.9970  175.6610  139.5100 O   0  0  0  0  0  1  0  0  0  0  0  0
  188.5400  176.0490  136.8820 C   0  0  1  0  0  0  0  0  0  0  0  0
  189.6130  178.2250  137.0480 O   0  0  0  0  0  1  0  0  0  0  0  0
  189.2180  177.1000  137.7820 C   0  0  2  0  0  3  0  0  0  0  0  0
  189.3510  173.8570  136.1900 O   0  0  0  0  0  1  0  0  0  0  0  0
  191.3450  174.1880  137.8360 O   0  0  0  0  0  1  0  0  0  0  0  0
  190.4330  176.3750  138.3860 C   0  0  2  0  0  0  0  0  0  0  0  0
  187.7370  175.2480  137.7070 O   0  0  0  0  0  1  0  0  0  0  0  0
  189.7050  175.2030  136.3430 C   0  0  2  0  0  3  0  0  0  0  0  0
  191.5970  177.2900  138.8150 C   0  0  1  0  0  3  0  0  0  0  0  0
  191.5200  177.6260  140.1710 O   0  0  0  0  0  1  0  0  0  0  0  0
  192.9550  176.6760  138.5010 C   0  0  0  0  0  2  0  0  0  0  0  0
  193.8450  176.9400  139.5420 O   0  0  0  0  0  1  0  0  0  0  0  0
  184.1100  175.7440  137.8450 C   0  0  0  0  0  2  0  0  0  0  0  0
  183.3140  177.0310  137.6890 C   0  0  0  0  0  2  0  0  0  0  0  0
  184.1530  178.1530  137.9150 O   0  0  0  0  0  0  0  0  0  0  0  0
  184.1890  180.1690  139.0050 O   0  0  0  0  0  0  0  0  0  0  0  0
  183.8070  178.2900  140.3380 N   0  0  0  0  0  2  0  0  0  0  0  0
  184.0470  178.9200  139.0750 C   0  0  0  0  0  0  0  0  0  0  0  0
  187.2170  178.1540  142.6900 N   0  0  0  0  0  0  0  0  0  0  0  0
  181.2170  178.6820  141.4660 C   0  0  0  0  0  3  0  0  0  0  0  0
  185.7870  178.1810  146.0690 C   0  0  0  0  0  3  0  0  0  0  0  0
  179.9680  178.4890  142.0640 C   0  0  0  0  0  3  0  0  0  0  0  0
  182.2600  178.7440  143.6540 C   0  0  0  0  0  0  0  0  0  0  0  0
  181.0060  178.5610  144.2470 C   0  0  0  0  0  3  0  0  0  0  0  0
  179.8640  178.4260  143.4550 C   0  0  0  0  0  3  0  0  0  0  0  0
  182.3760  178.7960  142.2500 C   0  0  0  0  0  0  0  0  0  0  0  0
  186.1480  178.4700  141.9150 C   0  0  0  0  0  3  0  0  0  0  0  0
  188.1420  177.5960  146.1890 C   0  0  0  0  0  0  0  0  0  0  0  0
  184.7490  178.6100  143.8850 C   0  0  0  0  0  0  0  0  0  0  0  0
  187.1100  178.0410  144.0360 C   0  0  0  0  0  0  0  0  0  0  0  0
  183.4430  178.9690  144.5420 C   0  0  0  0  0  2  0  0  0  0  0  0
  188.2330  177.7010  144.7950 C   0  0  0  0  0  3  0  0  0  0  0  0
  183.7170  179.0390  141.5890 C   0  0  1  0  0  3  0  0  0  0  0  0
  186.9140  177.8410  146.8200 C   0  0  0  0  0  3  0  0  0  0  0  0
  184.8860  178.6810  142.4830 C   0  0  0  0  0  0  0  0  0  0  0  0
  185.8710  178.2790  144.6710 C   0  0  0  0  0  0  0  0  0  0  0  0
  189.3290  177.2290  146.9790 C   0  0  0  0  0  0  0  0  0  0  0  0
  190.3410  176.4650  146.4090 O   0  0  0  0  0  0  0  0  0  0  0  0
  189.4370  177.6010  148.1780 O   0  0  0  0  0  1  0  0  0  0  0  0
  183.1890  174.9470  135.8320 C   0  0  0  0  0  2  0  0  0  0  0  0
  183.1010  173.4790  135.4550 C   0  0  0  0  0  2  0  0  0  0  0  0
  179.4220  171.7630  136.7510 C   0  0  0  0  0  3  0  0  0  0  0  0
  181.8070  172.9000  135.9070 C   0  0  0  0  0  0  0  0  0  0  0  0
  181.7140  172.3180  137.1340 N   0  0  0  0  0  0  0  0  0  0  0  0
  179.4980  172.3570  135.4890 C   0  0  0  0  0  3  0  0  0  0  0  0
  180.5550  171.7540  137.5690 C   0  0  0  0  0  3  0  0  0  0  0  0
  180.6960  172.9310  135.0610 C   0  0  0  0  0  3  0  0  0  0  0  0
  1 21  1  0  0  0  0
  2  1  1  0  0  0  0
  3  5  1  0  0  0  0
  3  2  1  0  0  0  0
  4  5  1  0  0  0  0
  5  6  1  1  0  0  0
  5  9  1  0  0  0  0
  7 13  1  1  0  0  0
  7 14  1  0  0  0  0
  9 15  1  1  0  0  0
  9 11  1  0  0  0  0
 11 10  1  6  0  0  0
 11 14  1  0  0  0  0
 14 17  1  0  0  0  0
 14  8  1  1  0  0  0
 16 12  1  1  0  0  0
 16  9  1  0  0  0  0
 16  7  1  0  0  0  0
 17 18  1  1  0  0  0
 19 17  1  0  0  0  0
 19 20  1  0  0  0  0
 22 21  1  0  0  0  0
 22 23  1  0  0  0  0
 23 26  1  0  0  0  0
 24 26  2  0  0  0  0
 26 25  1  0  0  0  0
 27 38  1  0  0  0  0
 28 30  2  0  0  0  0
 28 34  1  0  0  0  0
 29 42  1  0  0  0  0
 30 33  1  0  0  0  0
 31 32  1  0  0  0  0
 31 39  1  0  0  0  0
 33 32  2  0  0  0  0
 34 31  2  0  0  0  0
 35 43  1  0  0  0  0
 35 27  2  0  0  0  0
 36 42  2  0  0  0  0
 36 45  1  0  0  0  0
 37 39  1  0  0  0  0
 37 44  1  0  0  0  0
 38 44  1  0  0  0  0
 38 40  2  0  0  0  0
 40 36  1  0  0  0  0
 41 25  1  6  0  0  0
 41 34  1  0  0  0  0
 41 43  1  0  0  0  0
 43 37  2  0  0  0  0
 44 29  2  0  0  0  0
 45 47  1  0  0  0  0
 46 45  2  0  0  0  0
 48  1  1  0  0  0  0
 49 48  1  0  0  0  0
 49 51  1  0  0  0  0
 50 54  1  0  0  0  0
 51 52  1  0  0  0  0
 52 54  2  0  0  0  0
 53 50  2  0  0  0  0
 55 53  1  0  0  0  0
 55 51  2  0  0  0  0
M  END
>  <MODEL>
4

>  <REMARK>
 VINA RESULT:      -8.3      2.932      8.189
  Name = 
  15 active torsions:
  status: ('A' for Active; 'I' for Inactive)
    1  A    between atoms: O_4  and  C_37
    2  A    between atoms: O_4  and  C_40
    3  A    between atoms: C_6  and  C_20
    4  A    between atoms: C_8  and  C_22
    5  A    between atoms: C_8  and  N_43
    6  A    between atoms: C_10  and  C_32
    7  A    between atoms: C_11  and  C_29
    8  A    between atoms: N_19  and  C_45
    9  A    between atoms: C_20  and  C_22
   10  A    between atoms: C_27  and  C_54
   11  A    between atoms: C_29  and  C_38
   12  A    between atoms: C_35  and  C_37
   13  A    between atoms: C_35  and  N_43
   14  A    between atoms: N_43  and  C_51
   15  A    between atoms: C_51  and  C_54
                            x       y       z     vdW  Elec       q    Type
                         _______ _______ _______ _____ _____    ______ ____

>  <TORSDO>
F 15

$$$$
=
 OpenBabel10262420263D

 55 60  0  0  1  0  0  0  0  0999 V2000
  188.5760  177.4300  138.0300 N   0  0  0  0  0  0  0  0  0  0  0  0
  188.8930  176.2840  137.1990 C   0  0  0  0  0  2  0  0  0  0  0  0
  190.3600  176.3350  136.7950 C   0  0  0  0  0  2  0  0  0  0  0  0
  190.6140  174.0960  137.5910 O   0  0  0  0  0  1  0  0  0  0  0  0
  190.9640  174.9500  136.5400 C   0  0  1  0  0  0  0  0  0  0  0  0
  190.3120  174.4040  135.2750 C   0  0  0  0  0  1  0  0  0  0  0  0
  194.5300  174.4170  137.7280 C   0  0  2  0  0  3  0  0  0  0  0  0
  195.3780  174.5830  135.4880 O   0  0  0  0  0  1  0  0  0  0  0  0
  192.5230  175.0040  136.4100 C   0  0  1  0  0  0  0  0  0  0  0  0
  192.5130  172.5790  136.2320 O   0  0  0  0  0  1  0  0  0  0  0  0
  193.1780  173.7400  135.8210 C   0  0  2  0  0  3  0  0  0  0  0  0
  193.3700  176.5300  138.1110 O   0  0  0  0  0  1  0  0  0  0  0  0
  195.6320  175.2380  137.9980 O   0  0  0  0  0  1  0  0  0  0  0  0
  194.6250  173.7680  136.3420 C   0  0  2  0  0  0  0  0  0  0  0  0
  192.8730  176.0800  135.5830 O   0  0  0  0  0  1  0  0  0  0  0  0
  193.2030  175.1810  137.7770 C   0  0  2  0  0  3  0  0  0  0  0  0
  195.3160  172.3920  136.4330 C   0  0  1  0  0  3  0  0  0  0  0  0
  196.5690  172.4000  135.8090 O   0  0  0  0  0  1  0  0  0  0  0  0
  195.4480  171.9110  137.8720 C   0  0  0  0  0  2  0  0  0  0  0  0
  195.0010  170.5920  137.9720 O   0  0  0  0  0  1  0  0  0  0  0  0
  187.1240  177.5650  138.0390 C   0  0  0  0  0  2  0  0  0  0  0  0
  186.4830  176.4490  137.2290 C   0  0  0  0  0  2  0  0  0  0  0  0
  185.1150  176.7460  136.9880 O   0  0  0  0  0  0  0  0  0  0  0  0
  183.9140  176.4570  138.9190 O   0  0  0  0  0  0  0  0  0  0  0  0
  183.8420  178.5930  137.9770 N   0  0  0  0  0  2  0  0  0  0  0  0
  184.2870  177.2320  137.9990 C   0  0  0  0  0  0  0  0  0  0  0  0
  185.6360  179.3600  141.6330 N   0  0  0  0  0  0  0  0  0  0  0  0
  181.0590  178.0060  137.7610 C   0  0  0  0  0  3  0  0  0  0  0  0
  182.9110  178.5980  143.9690 C   0  0  0  0  0  3  0  0  0  0  0  0
  179.8200  177.3590  137.7320 C   0  0  0  0  0  3  0  0  0  0  0  0
  180.9060  178.2000  140.1730 C   0  0  0  0  0  0  0  0  0  0  0  0
  179.6620  177.5620  140.1360 C   0  0  0  0  0  3  0  0  0  0  0  0
  179.1230  177.1350  138.9200 C   0  0  0  0  0  3  0  0  0  0  0  0
  181.6230  178.4190  138.9790 C   0  0  0  0  0  0  0  0  0  0  0  0
  185.0000  179.3800  140.4340 C   0  0  0  0  0  3  0  0  0  0  0  0
  184.9970  178.8090  145.1970 C   0  0  0  0  0  0  0  0  0  0  0  0
  182.9030  178.8680  141.5280 C   0  0  0  0  0  0  0  0  0  0  0  0
  184.9740  179.0920  142.7850 C   0  0  0  0  0  0  0  0  0  0  0  0
  181.4050  178.7160  141.4860 C   0  0  0  0  0  2  0  0  0  0  0  0
  185.6700  179.0680  143.9960 C   0  0  0  0  0  3  0  0  0  0  0  0
  182.9500  179.1490  138.9910 C   0  0  1  0  0  3  0  0  0  0  0  0
  183.6140  178.5770  145.1750 C   0  0  0  0  0  3  0  0  0  0  0  0
  183.6280  179.1110  140.3440 C   0  0  0  0  0  0  0  0  0  0  0  0
  183.5820  178.8500  142.7620 C   0  0  0  0  0  0  0  0  0  0  0  0
  185.7410  178.7780  146.4660 C   0  0  0  0  0  0  0  0  0  0  0  0
  186.5350  177.6830  146.7880 O   0  0  0  0  0  0  0  0  0  0  0  0
  185.6630  179.7410  147.2750 O   0  0  0  0  0  1  0  0  0  0  0  0
  189.0000  177.0950  139.3810 C   0  0  0  0  0  2  0  0  0  0  0  0
  188.5260  178.1760  140.3360 C   0  0  0  0  0  2  0  0  0  0  0  0
  189.0870  176.9990  144.3930 C   0  0  0  0  0  3  0  0  0  0  0  0
  188.7420  177.7570  141.7470 C   0  0  0  0  0  0  0  0  0  0  0  0
  187.9540  176.7940  142.2990 N   0  0  0  0  0  0  0  0  0  0  0  0
  189.9060  177.9870  143.8440 C   0  0  0  0  0  3  0  0  0  0  0  0
  188.1050  176.4060  143.5950 C   0  0  0  0  0  3  0  0  0  0  0  0
  189.7370  178.3710  142.5130 C   0  0  0  0  0  3  0  0  0  0  0  0
  1 21  1  0  0  0  0
  1 48  1  0  0  0  0
  2  1  1  0  0  0  0
  3  2  1  0  0  0  0
  5  6  1  6  0  0  0
  5  3  1  0  0  0  0
  5  4  1  0  0  0  0
  7 16  1  0  0  0  0
  7 13  1  6  0  0  0
  9 15  1  6  0  0  0
  9  5  1  0  0  0  0
  9 16  1  0  0  0  0
 11 10  1  1  0  0  0
 11 14  1  0  0  0  0
 11  9  1  0  0  0  0
 14  8  1  6  0  0  0
 14 17  1  0  0  0  0
 14  7  1  0  0  0  0
 16 12  1  6  0  0  0
 17 18  1  1  0  0  0
 17 19  1  0  0  0  0
 19 20  1  0  0  0  0
 22 21  1  0  0  0  0
 23 22  1  0  0  0  0
 23 26  1  0  0  0  0
 25 26  1  0  0  0  0
 26 24  2  0  0  0  0
 27 38  1  0  0  0  0
 28 34  1  0  0  0  0
 29 42  1  0  0  0  0
 30 28  2  0  0  0  0
 30 33  1  0  0  0  0
 31 39  1  0  0  0  0
 32 31  1  0  0  0  0
 33 32  2  0  0  0  0
 34 41  1  0  0  0  0
 34 31  2  0  0  0  0
 35 27  2  0  0  0  0
 36 45  1  0  0  0  0
 37 44  1  0  0  0  0
 38 40  2  0  0  0  0
 39 37  1  0  0  0  0
 40 36  1  0  0  0  0
 41 25  1  6  0  0  0
 41 43  1  0  0  0  0
 42 36  2  0  0  0  0
 43 35  1  0  0  0  0
 43 37  2  0  0  0  0
 44 38  1  0  0  0  0
 44 29  2  0  0  0  0
 45 46  2  0  0  0  0
 45 47  1  0  0  0  0
 48 49  1  0  0  0  0
 49 51  1  0  0  0  0
 51 52  2  0  0  0  0
 51 55  1  0  0  0  0
 52 54  1  0  0  0  0
 53 50  1  0  0  0  0
 54 50  2  0  0  0  0
 55 53  2  0  0  0  0
M  END
>  <MODEL>
5

>  <REMARK>
 VINA RESULT:      -7.6      3.435      8.373
  Name = 
  15 active torsions:
  status: ('A' for Active; 'I' for Inactive)
    1  A    between atoms: O_4  and  C_37
    2  A    between atoms: O_4  and  C_40
    3  A    between atoms: C_6  and  C_20
    4  A    between atoms: C_8  and  C_22
    5  A    between atoms: C_8  and  N_43
    6  A    between atoms: C_10  and  C_32
    7  A    between atoms: C_11  and  C_29
    8  A    between atoms: N_19  and  C_45
    9  A    between atoms: C_20  and  C_22
   10  A    between atoms: C_27  and  C_54
   11  A    between atoms: C_29  and  C_38
   12  A    between atoms: C_35  and  C_37
   13  A    between atoms: C_35  and  N_43
   14  A    between atoms: N_43  and  C_51
   15  A    between atoms: C_51  and  C_54
                            x       y       z     vdW  Elec       q    Type
                         _______ _______ _______ _____ _____    ______ ____

>  <TORSDO>
F 15

$$$$
=
 OpenBabel10262420263D

 55 60  0  0  1  0  0  0  0  0999 V2000
  188.1410  173.9010  136.4170 N   0  0  0  0  0  0  0  0  0  0  0  0
  189.4930  173.9090  135.8880 C   0  0  0  0  0  2  0  0  0  0  0  0
  190.4700  174.2940  136.9890 C   0  0  0  0  0  2  0  0  0  0  0  0
  191.3360  175.5920  135.1790 O   0  0  0  0  0  1  0  0  0  0  0  0
  191.5790  175.2390  136.5100 C   0  0  1  0  0  0  0  0  0  0  0  0
  191.4720  176.5110  137.3440 C   0  0  0  0  0  1  0  0  0  0  0  0
  194.7190  173.5840  135.1640 C   0  0  2  0  0  3  0  0  0  0  0  0
  195.9400  174.1110  137.1620 O   0  0  0  0  0  1  0  0  0  0  0  0
  192.9970  174.5870  136.6260 C   0  0  1  0  0  0  0  0  0  0  0  0
  193.9070  176.5640  135.5420 O   0  0  0  0  0  1  0  0  0  0  0  0
  194.1810  175.5610  136.4790 C   0  0  2  0  0  3  0  0  0  0  0  0
  192.8180  172.2580  135.9300 O   0  0  0  0  0  1  0  0  0  0  0  0
  195.3540  172.3480  135.3330 O   0  0  0  0  0  1  0  0  0  0  0  0
  195.3580  174.6820  136.0220 C   0  0  2  0  0  0  0  0  0  0  0  0
  193.1130  173.9740  137.8820 O   0  0  0  0  0  1  0  0  0  0  0  0
  193.2320  173.5350  135.5310 C   0  0  2  0  0  3  0  0  0  0  0  0
  196.4600  175.4170  135.2330 C   0  0  1  0  0  3  0  0  0  0  0  0
  196.6890  176.7020  135.7360 O   0  0  0  0  0  1  0  0  0  0  0  0
  197.7620  174.6270  135.1940 C   0  0  0  0  0  2  0  0  0  0  0  0
  198.7180  175.2520  135.9960 O   0  0  0  0  0  1  0  0  0  0  0  0
  187.9460  175.1670  137.1130 C   0  0  0  0  0  2  0  0  0  0  0  0
  187.5980  176.2690  136.1230 C   0  0  0  0  0  2  0  0  0  0  0  0
  188.3570  177.4350  136.4050 O   0  0  0  0  0  0  0  0  0  0  0  0
  188.3500  179.4970  137.4060 O   0  0  0  0  0  0  0  0  0  0  0  0
  187.3430  177.7700  138.6120 N   0  0  0  0  0  2  0  0  0  0  0  0
  188.0240  178.2820  137.4620 C   0  0  0  0  0  0  0  0  0  0  0  0
  190.0010  177.5440  141.7840 N   0  0  0  0  0  0  0  0  0  0  0  0
  184.5920  178.4180  138.9980 C   0  0  0  0  0  3  0  0  0  0  0  0
  187.7500  177.8930  144.6610 C   0  0  0  0  0  3  0  0  0  0  0  0
  183.2190  178.3540  139.2530 C   0  0  0  0  0  3  0  0  0  0  0  0
  185.0330  178.5480  141.3790 C   0  0  0  0  0  0  0  0  0  0  0  0
  183.6570  178.4940  141.6270 C   0  0  0  0  0  3  0  0  0  0  0  0
  182.7520  178.3890  140.5680 C   0  0  0  0  0  3  0  0  0  0  0  0
  185.5140  178.4990  140.0540 C   0  0  0  0  0  0  0  0  0  0  0  0
  189.2010  177.8840  140.7410 C   0  0  0  0  0  3  0  0  0  0  0  0
  189.9350  177.1510  145.4250 C   0  0  0  0  0  0  0  0  0  0  0  0
  187.3560  178.2520  142.2640 C   0  0  0  0  0  0  0  0  0  0  0  0
  189.5390  177.5270  143.0580 C   0  0  0  0  0  0  0  0  0  0  0  0
  185.9600  178.7460  142.5360 C   0  0  0  0  0  2  0  0  0  0  0  0
  190.3930  177.1580  144.1000 C   0  0  0  0  0  3  0  0  0  0  0  0
  186.9960  178.6020  139.7610 C   0  0  1  0  0  3  0  0  0  0  0  0
  188.6110  177.5240  145.6970 C   0  0  0  0  0  3  0  0  0  0  0  0
  187.8570  178.2220  140.9460 C   0  0  0  0  0  0  0  0  0  0  0  0
  188.2020  177.8940  143.3320 C   0  0  0  0  0  0  0  0  0  0  0  0
  190.8390  176.7530  146.5140 C   0  0  0  0  0  0  0  0  0  0  0  0
  192.0310  176.0960  146.2320 O   0  0  0  0  0  0  0  0  0  0  0  0
  190.5410  177.0000  147.7140 O   0  0  0  0  0  1  0  0  0  0  0  0
  187.2450  173.8800  135.2710 C   0  0  0  0  0  2  0  0  0  0  0  0
  186.5480  172.5330  135.2060 C   0  0  0  0  0  2  0  0  0  0  0  0
  182.7860  172.7430  137.1960 C   0  0  0  0  0  3  0  0  0  0  0  0
  185.2250  172.5970  135.8830 C   0  0  0  0  0  0  0  0  0  0  0  0
  184.6470  173.8020  136.1370 N   0  0  0  0  0  0  0  0  0  0  0  0
  183.3630  171.4960  136.9440 C   0  0  0  0  0  3  0  0  0  0  0  0
  183.4510  173.8990  136.7790 C   0  0  0  0  0  3  0  0  0  0  0  0
  184.5890  171.4180  136.2830 C   0  0  0  0  0  3  0  0  0  0  0  0
  1 21  1  0  0  0  0
  2  1  1  0  0  0  0
  2  3  1  0  0  0  0
  4  5  1  0  0  0  0
  5  9  1  0  0  0  0
  5  3  1  0  0  0  0
  5  6  1  1  0  0  0
  7 13  1  1  0  0  0
  7 16  1  0  0  0  0
  7 14  1  0  0  0  0
  9 15  1  1  0  0  0
 11 10  1  6  0  0  0
 11  9  1  0  0  0  0
 14 11  1  0  0  0  0
 14  8  1  1  0  0  0
 16 12  1  1  0  0  0
 16  9  1  0  0  0  0
 17 18  1  1  0  0  0
 17 14  1  0  0  0  0
 19 17  1  0  0  0  0
 19 20  1  0  0  0  0
 22 23  1  0  0  0  0
 22 21  1  0  0  0  0
 23 26  1  0  0  0  0
 24 26  2  0  0  0  0
 26 25  1  0  0  0  0
 27 38  1  0  0  0  0
 28 30  2  0  0  0  0
 28 34  1  0  0  0  0
 29 42  1  0  0  0  0
 30 33  1  0  0  0  0
 31 32  1  0  0  0  0
 31 39  1  0  0  0  0
 33 32  2  0  0  0  0
 34 31  2  0  0  0  0
 35 43  1  0  0  0  0
 35 27  2  0  0  0  0
 36 42  2  0  0  0  0
 36 45  1  0  0  0  0
 37 39  1  0  0  0  0
 37 44  1  0  0  0  0
 38 44  1  0  0  0  0
 38 40  2  0  0  0  0
 40 36  1  0  0  0  0
 41 25  1  6  0  0  0
 41 34  1  0  0  0  0
 41 43  1  0  0  0  0
 43 37  2  0  0  0  0
 44 29  2  0  0  0  0
 45 47  1  0  0  0  0
 46 45  2  0  0  0  0
 48  1  1  0  0  0  0
 49 48  1  0  0  0  0
 49 51  1  0  0  0  0
 51 52  2  0  0  0  0
 51 55  1  0  0  0  0
 52 54  1  0  0  0  0
 53 50  1  0  0  0  0
 54 50  2  0  0  0  0
 55 53  2  0  0  0  0
M  END
>  <MODEL>
6

>  <REMARK>
 VINA RESULT:      -7.4      3.777      8.826
  Name = 
  15 active torsions:
  status: ('A' for Active; 'I' for Inactive)
    1  A    between atoms: O_4  and  C_37
    2  A    between atoms: O_4  and  C_40
    3  A    between atoms: C_6  and  C_20
    4  A    between atoms: C_8  and  C_22
    5  A    between atoms: C_8  and  N_43
    6  A    between atoms: C_10  and  C_32
    7  A    between atoms: C_11  and  C_29
    8  A    between atoms: N_19  and  C_45
    9  A    between atoms: C_20  and  C_22
   10  A    between atoms: C_27  and  C_54
   11  A    between atoms: C_29  and  C_38
   12  A    between atoms: C_35  and  C_37
   13  A    between atoms: C_35  and  N_43
   14  A    between atoms: N_43  and  C_51
   15  A    between atoms: C_51  and  C_54
                            x       y       z     vdW  Elec       q    Type
                         _______ _______ _______ _____ _____    ______ ____

>  <TORSDO>
F 15

$$$$
=
 OpenBabel10262420263D

 55 60  0  0  1  0  0  0  0  0999 V2000
  183.3760  178.7880  140.1440 N   0  0  0  0  0  0  0  0  0  0  0  0
  181.9520  178.5150  140.2170 C   0  0  0  0  0  2  0  0  0  0  0  0
  181.3000  178.8390  138.8800 C   0  0  0  0  0  2  0  0  0  0  0  0
  179.5590  177.5380  139.8740 O   0  0  0  0  0  1  0  0  0  0  0  0
  179.9690  178.1100  138.6650 C   0  0  1  0  0  0  0  0  0  0  0  0
  178.9370  179.1670  138.2900 C   0  0  0  0  0  1  0  0  0  0  0  0
  181.8220  175.7930  136.2960 C   0  0  2  0  0  3  0  0  0  0  0  0
  179.9030  174.3680  136.0740 O   0  0  0  0  0  1  0  0  0  0  0  0
  180.0800  176.9950  137.5730 C   0  0  1  0  0  0  0  0  0  0  0  0
  180.9840  175.5210  139.2810 O   0  0  0  0  0  1  0  0  0  0  0  0
  180.2160  175.5590  138.1110 C   0  0  2  0  0  3  0  0  0  0  0  0
  181.0490  177.9920  135.5700 O   0  0  0  0  0  1  0  0  0  0  0  0
  181.8760  175.6100  134.9090 O   0  0  0  0  0  1  0  0  0  0  0  0
  180.8960  174.7760  136.9740 C   0  0  2  0  0  0  0  0  0  0  0  0
  178.9310  177.0330  136.7690 O   0  0  0  0  0  1  0  0  0  0  0  0
  181.3190  177.1870  136.6840 C   0  0  2  0  0  3  0  0  0  0  0  0
  181.6890  173.5300  137.4170 C   0  0  1  0  0  3  0  0  0  0  0  0
  181.1580  172.3560  136.8730 O   0  0  0  0  0  1  0  0  0  0  0  0
  183.1700  173.6440  137.0790 C   0  0  0  0  0  2  0  0  0  0  0  0
  183.8490  172.5170  137.5440 O   0  0  0  0  0  1  0  0  0  0  0  0
  183.9580  178.3700  141.4140 C   0  0  0  0  0  2  0  0  0  0  0  0
  182.8800  178.2600  142.4810 C   0  0  0  0  0  2  0  0  0  0  0  0
  183.4700  178.2670  143.7730 O   0  0  0  0  0  0  0  0  0  0  0  0
  184.8300  180.0650  144.1860 O   0  0  0  0  0  0  0  0  0  0  0  0
  185.8980  177.9990  143.9770 N   0  0  0  0  0  2  0  0  0  0  0  0
  184.7290  178.8240  143.9950 C   0  0  0  0  0  0  0  0  0  0  0  0
  188.2880  177.9580  140.5910 N   0  0  0  0  0  0  0  0  0  0  0  0
  187.0070  177.8730  146.6020 C   0  0  0  0  0  3  0  0  0  0  0  0
  191.5960  177.2880  142.0300 C   0  0  0  0  0  3  0  0  0  0  0  0
  187.5370  177.4310  147.8170 C   0  0  0  0  0  3  0  0  0  0  0  0
  189.2050  177.7410  145.5880 C   0  0  0  0  0  0  0  0  0  0  0  0
  189.7320  177.3090  146.8090 C   0  0  0  0  0  3  0  0  0  0  0  0
  188.9000  177.1450  147.9190 C   0  0  0  0  0  3  0  0  0  0  0  0
  187.8270  178.0190  145.4720 C   0  0  0  0  0  0  0  0  0  0  0  0
  187.5420  178.2440  141.6880 C   0  0  0  0  0  3  0  0  0  0  0  0
  191.6880  177.0050  139.6180 C   0  0  0  0  0  0  0  0  0  0  0  0
  189.4760  177.9010  143.1040 C   0  0  0  0  0  0  0  0  0  0  0  0
  189.6000  177.6310  140.6890 C   0  0  0  0  0  0  0  0  0  0  0  0
  190.1460  177.9830  144.4500 C   0  0  0  0  0  2  0  0  0  0  0  0
  190.3270  177.3300  139.5350 C   0  0  0  0  0  3  0  0  0  0  0  0
  187.2440  178.5320  144.1720 C   0  0  1  0  0  3  0  0  0  0  0  0
  192.3170  176.9900  140.8710 C   0  0  0  0  0  3  0  0  0  0  0  0
  188.1040  178.2000  142.9710 C   0  0  0  0  0  0  0  0  0  0  0  0
  190.2320  177.6060  141.9520 C   0  0  0  0  0  0  0  0  0  0  0  0
  192.4440  176.6830  138.3970 C   0  0  0  0  0  0  0  0  0  0  0  0
  191.8290  176.7550  137.1520 O   0  0  0  0  0  0  0  0  0  0  0  0
  193.6520  176.3340  138.4680 O   0  0  0  0  0  1  0  0  0  0  0  0
  183.9130  177.9240  139.1040 C   0  0  0  0  0  2  0  0  0  0  0  0
  185.0270  178.6520  138.3750 C   0  0  0  0  0  2  0  0  0  0  0  0
  187.4220  175.8600  136.2230 C   0  0  0  0  0  3  0  0  0  0  0  0
  185.8630  177.6910  137.6060 C   0  0  0  0  0  0  0  0  0  0  0  0
  185.3660  176.4670  137.2790 N   0  0  0  0  0  0  0  0  0  0  0  0
  187.9490  177.1120  136.5490 C   0  0  0  0  0  3  0  0  0  0  0  0
  186.1120  175.5530  136.6010 C   0  0  0  0  0  3  0  0  0  0  0  0
  187.1680  178.0370  137.2440 C   0  0  0  0  0  3  0  0  0  0  0  0
  1  2  1  0  0  0  0
  1 21  1  0  0  0  0
  3  2  1  0  0  0  0
  5  6  1  6  0  0  0
  5  3  1  0  0  0  0
  5  4  1  0  0  0  0
  7 13  1  6  0  0  0
  7 16  1  0  0  0  0
  7 14  1  0  0  0  0
  9 15  1  6  0  0  0
  9 11  1  0  0  0  0
  9  5  1  0  0  0  0
 11 10  1  1  0  0  0
 14  8  1  6  0  0  0
 14 17  1  0  0  0  0
 14 11  1  0  0  0  0
 16 12  1  6  0  0  0
 16  9  1  0  0  0  0
 17 18  1  6  0  0  0
 19 17  1  0  0  0  0
 19 20  1  0  0  0  0
 21 22  1  0  0  0  0
 22 23  1  0  0  0  0
 23 26  1  0  0  0  0
 25 26  1  0  0  0  0
 26 24  2  0  0  0  0
 27 38  2  0  0  0  0
 27 35  1  0  0  0  0
 28 30  1  0  0  0  0
 30 33  2  0  0  0  0
 31 32  2  0  0  0  0
 32 33  1  0  0  0  0
 34 31  1  0  0  0  0
 34 28  2  0  0  0  0
 35 43  2  0  0  0  0
 36 42  1  0  0  0  0
 37 39  1  0  0  0  0
 38 44  1  0  0  0  0
 39 31  1  0  0  0  0
 40 36  2  0  0  0  0
 40 38  1  0  0  0  0
 41 25  1  6  0  0  0
 41 34  1  0  0  0  0
 42 29  2  0  0  0  0
 43 37  1  0  0  0  0
 43 41  1  0  0  0  0
 44 29  1  0  0  0  0
 44 37  2  0  0  0  0
 45 47  1  0  0  0  0
 45 36  1  0  0  0  0
 46 45  2  0  0  0  0
 48  1  1  0  0  0  0
 49 48  1  0  0  0  0
 50 53  2  0  0  0  0
 50 54  1  0  0  0  0
 51 49  1  0  0  0  0
 52 51  1  0  0  0  0
 53 55  1  0  0  0  0
 54 52  2  0  0  0  0
 55 51  2  0  0  0  0
M  END
>  <MODEL>
7

>  <REMARK>
 VINA RESULT:      -7.3      2.690      7.004
  Name = 
  15 active torsions:
  status: ('A' for Active; 'I' for Inactive)
    1  A    between atoms: O_4  and  C_37
    2  A    between atoms: O_4  and  C_40
    3  A    between atoms: C_6  and  C_20
    4  A    between atoms: C_8  and  C_22
    5  A    between atoms: C_8  and  N_43
    6  A    between atoms: C_10  and  C_32
    7  A    between atoms: C_11  and  C_29
    8  A    between atoms: N_19  and  C_45
    9  A    between atoms: C_20  and  C_22
   10  A    between atoms: C_27  and  C_54
   11  A    between atoms: C_29  and  C_38
   12  A    between atoms: C_35  and  C_37
   13  A    between atoms: C_35  and  N_43
   14  A    between atoms: N_43  and  C_51
   15  A    between atoms: C_51  and  C_54
                            x       y       z     vdW  Elec       q    Type
                         _______ _______ _______ _____ _____    ______ ____

>  <TORSDO>
F 15

$$$$
=
 OpenBabel10262420263D

 55 60  0  0  1  0  0  0  0  0999 V2000
  191.0400  176.2100  139.3270 N   0  0  0  0  0  0  0  0  0  0  0  0
  191.5070  177.1450  140.3350 C   0  0  0  0  0  2  0  0  0  0  0  0
  190.3550  177.5220  141.2550 C   0  0  0  0  0  2  0  0  0  0  0  0
  191.7050  176.4330  142.8990 O   0  0  0  0  0  1  0  0  0  0  0  0
  190.7050  177.3990  142.7420 C   0  0  1  0  0  0  0  0  0  0  0  0
  191.2940  178.7370  143.1750 C   0  0  0  0  0  1  0  0  0  0  0  0
  188.1140  177.9200  145.4670 C   0  0  2  0  0  3  0  0  0  0  0  0
  186.6660  176.2620  144.5090 O   0  0  0  0  0  1  0  0  0  0  0  0
  189.4620  177.0060  143.6080 C   0  0  1  0  0  0  0  0  0  0  0  0
  188.2160  178.7590  142.4730 O   0  0  0  0  0  1  0  0  0  0  0  0
  188.1040  177.4970  143.0710 C   0  0  2  0  0  3  0  0  0  0  0  0
  190.2010  176.7370  145.9150 O   0  0  0  0  0  1  0  0  0  0  0  0
  187.7580  177.2650  146.6530 O   0  0  0  0  0  1  0  0  0  0  0  0
  187.1870  177.5460  144.3050 C   0  0  2  0  0  0  0  0  0  0  0  0
  189.3940  175.6080  143.6970 O   0  0  0  0  0  1  0  0  0  0  0  0
  189.5440  177.5950  145.0250 C   0  0  2  0  0  3  0  0  0  0  0  0
  186.0090  178.5370  144.2090 C   0  0  1  0  0  3  0  0  0  0  0  0
  184.8700  177.9360  143.6630 O   0  0  0  0  0  1  0  0  0  0  0  0
  185.6790  179.1660  145.5560 C   0  0  0  0  0  2  0  0  0  0  0  0
  184.4920  178.6260  146.0520 O   0  0  0  0  0  1  0  0  0  0  0  0
  189.6920  176.6210  138.9550 C   0  0  0  0  0  2  0  0  0  0  0  0
  189.7270  177.4940  137.7100 C   0  0  0  0  0  2  0  0  0  0  0  0
  188.8770  178.6190  137.8790 O   0  0  0  0  0  0  0  0  0  0  0  0
  187.2230  179.4380  136.5210 O   0  0  0  0  0  0  0  0  0  0  0  0
  186.6030  177.7050  137.9580 N   0  0  0  0  0  2  0  0  0  0  0  0
  187.5630  178.6160  137.4110 C   0  0  0  0  0  0  0  0  0  0  0  0
  183.9140  179.2560  140.7030 N   0  0  0  0  0  0  0  0  0  0  0  0
  185.8380  175.7180  136.0610 C   0  0  0  0  0  3  0  0  0  0  0  0
  180.9870  177.1090  140.1650 C   0  0  0  0  0  3  0  0  0  0  0  0
  185.5440  174.5070  135.4270 C   0  0  0  0  0  3  0  0  0  0  0  0
  183.6140  175.7590  137.0250 C   0  0  0  0  0  0  0  0  0  0  0  0
  183.3220  174.5520  136.3800 C   0  0  0  0  0  3  0  0  0  0  0  0
  184.2870  173.9230  135.5890 C   0  0  0  0  0  3  0  0  0  0  0  0
  184.8860  176.3490  136.8770 C   0  0  0  0  0  0  0  0  0  0  0  0
  184.7030  178.9510  139.6420 C   0  0  0  0  0  3  0  0  0  0  0  0
  180.6900  178.3880  142.2100 C   0  0  0  0  0  0  0  0  0  0  0  0
  183.0450  177.3720  138.8520 C   0  0  0  0  0  0  0  0  0  0  0  0
  182.7140  178.6540  140.8930 C   0  0  0  0  0  0  0  0  0  0  0  0
  182.5250  176.4400  137.7910 C   0  0  0  0  0  2  0  0  0  0  0  0
  181.9400  178.9890  142.0080 C   0  0  0  0  0  3  0  0  0  0  0  0
  185.2070  177.6770  137.5290 C   0  0  1  0  0  3  0  0  0  0  0  0
  180.2190  177.4490  141.2810 C   0  0  0  0  0  3  0  0  0  0  0  0
  184.3050  177.9880  138.7050 C   0  0  0  0  0  0  0  0  0  0  0  0
  182.2420  177.7020  139.9620 C   0  0  0  0  0  0  0  0  0  0  0  0
  179.8860  178.7410  143.3900 C   0  0  0  0  0  0  0  0  0  0  0  0
  179.3620  180.0210  143.5240 O   0  0  0  0  0  0  0  0  0  0  0  0
  179.6670  177.8880  144.2920 O   0  0  0  0  0  1  0  0  0  0  0  0
  191.8960  176.3890  138.1640 C   0  0  0  0  0  2  0  0  0  0  0  0
  192.4210  175.0370  137.7180 C   0  0  0  0  0  2  0  0  0  0  0  0
  195.6720  175.5480  135.0100 C   0  0  0  0  0  3  0  0  0  0  0  0
  193.5700  175.2050  136.7870 C   0  0  0  0  0  0  0  0  0  0  0  0
  194.0510  176.4490  136.5170 N   0  0  0  0  0  0  0  0  0  0  0  0
  195.1930  174.2640  135.2750 C   0  0  0  0  0  3  0  0  0  0  0  0
  195.0820  176.6420  135.6490 C   0  0  0  0  0  3  0  0  0  0  0  0
  194.1350  174.0860  136.1690 C   0  0  0  0  0  3  0  0  0  0  0  0
  1  2  1  0  0  0  0
  2  3  1  0  0  0  0
  3  5  1  0  0  0  0
  5  4  1  0  0  0  0
  5  6  1  1  0  0  0
  5  9  1  0  0  0  0
  7 13  1  1  0  0  0
  9 15  1  1  0  0  0
  9 16  1  0  0  0  0
 11 10  1  1  0  0  0
 11  9  1  0  0  0  0
 11 14  1  0  0  0  0
 14  8  1  1  0  0  0
 14  7  1  0  0  0  0
 16  7  1  0  0  0  0
 16 12  1  1  0  0  0
 17 18  1  1  0  0  0
 17 14  1  0  0  0  0
 17 19  1  0  0  0  0
 19 20  1  0  0  0  0
 21  1  1  0  0  0  0
 22 23  1  0  0  0  0
 22 21  1  0  0  0  0
 24 26  2  0  0  0  0
 26 23  1  0  0  0  0
 26 25  1  0  0  0  0
 27 38  1  0  0  0  0
 28 34  1  0  0  0  0
 29 42  1  0  0  0  0
 30 33  1  0  0  0  0
 30 28  2  0  0  0  0
 31 39  1  0  0  0  0
 32 31  1  0  0  0  0
 33 32  2  0  0  0  0
 34 31  2  0  0  0  0
 34 41  1  0  0  0  0
 35 27  2  0  0  0  0
 36 45  1  0  0  0  0
 37 44  1  0  0  0  0
 38 40  2  0  0  0  0
 39 37  1  0  0  0  0
 40 36  1  0  0  0  0
 41 25  1  1  0  0  0
 41 43  1  0  0  0  0
 42 36  2  0  0  0  0
 43 37  2  0  0  0  0
 43 35  1  0  0  0  0
 44 29  2  0  0  0  0
 44 38  1  0  0  0  0
 45 46  2  0  0  0  0
 45 47  1  0  0  0  0
 48  1  1  0  0  0  0
 49 48  1  0  0  0  0
 50 53  2  0  0  0  0
 50 54  1  0  0  0  0
 51 49  1  0  0  0  0
 52 51  1  0  0  0  0
 53 55  1  0  0  0  0
 54 52  2  0  0  0  0
 55 51  2  0  0  0  0
M  END
>  <MODEL>
8

>  <REMARK>
 VINA RESULT:      -7.3      2.271      6.802
  Name = 
  15 active torsions:
  status: ('A' for Active; 'I' for Inactive)
    1  A    between atoms: O_4  and  C_37
    2  A    between atoms: O_4  and  C_40
    3  A    between atoms: C_6  and  C_20
    4  A    between atoms: C_8  and  C_22
    5  A    between atoms: C_8  and  N_43
    6  A    between atoms: C_10  and  C_32
    7  A    between atoms: C_11  and  C_29
    8  A    between atoms: N_19  and  C_45
    9  A    between atoms: C_20  and  C_22
   10  A    between atoms: C_27  and  C_54
   11  A    between atoms: C_29  and  C_38
   12  A    between atoms: C_35  and  C_37
   13  A    between atoms: C_35  and  N_43
   14  A    between atoms: N_43  and  C_51
   15  A    between atoms: C_51  and  C_54
                            x       y       z     vdW  Elec       q    Type
                         _______ _______ _______ _____ _____    ______ ____

>  <TORSDO>
F 15

$$$$
=
 OpenBabel10262420263D

 55 60  0  0  1  0  0  0  0  0999 V2000
  184.4050  178.2530  143.6450 N   0  0  0  0  0  0  0  0  0  0  0  0
  185.7120  178.6710  144.1190 C   0  0  0  0  0  2  0  0  0  0  0  0
  186.4920  177.4550  144.6010 C   0  0  0  0  0  2  0  0  0  0  0  0
  186.8010  178.8870  146.4900 O   0  0  0  0  0  1  0  0  0  0  0  0
  187.2780  177.7160  145.8910 C   0  0  1  0  0  0  0  0  0  0  0  0
  186.9740  176.5640  146.8410 C   0  0  0  0  0  1  0  0  0  0  0  0
  190.8390  176.4400  145.5630 C   0  0  2  0  0  3  0  0  0  0  0  0
  191.5020  178.3910  144.3330 O   0  0  0  0  0  1  0  0  0  0  0  0
  188.8140  177.8560  145.6240 C   0  0  1  0  0  0  0  0  0  0  0  0
  188.4830  176.6480  143.5400 O   0  0  0  0  0  1  0  0  0  0  0  0
  189.2500  177.6400  144.1630 C   0  0  2  0  0  3  0  0  0  0  0  0
  189.9930  177.3020  147.6840 O   0  0  0  0  0  1  0  0  0  0  0  0
  192.0540  176.6770  146.2160 O   0  0  0  0  0  1  0  0  0  0  0  0
  190.7290  177.2260  144.2510 C   0  0  2  0  0  0  0  0  0  0  0  0
  189.2230  179.1450  145.9960 O   0  0  0  0  0  1  0  0  0  0  0  0
  189.6280  176.8240  146.4200 C   0  0  2  0  0  3  0  0  0  0  0  0
  191.2470  176.3830  143.0680 C   0  0  1  0  0  3  0  0  0  0  0  0
  190.5530  175.1750  142.9490 O   0  0  0  0  0  1  0  0  0  0  0  0
  191.1970  177.1510  141.7530 C   0  0  0  0  0  2  0  0  0  0  0  0
  190.5540  176.3830  140.7820 O   0  0  0  0  0  1  0  0  0  0  0  0
  183.4530  179.2790  144.0550 C   0  0  0  0  0  2  0  0  0  0  0  0
  182.0300  178.7490  143.9680 C   0  0  0  0  0  2  0  0  0  0  0  0
  181.2230  179.6410  143.2130 O   0  0  0  0  0  0  0  0  0  0  0  0
  179.4680  178.7460  142.0410 O   0  0  0  0  0  0  0  0  0  0  0  0
  181.3280  179.3760  140.7780 N   0  0  0  0  0  2  0  0  0  0  0  0
  180.6240  179.2450  142.0170 C   0  0  0  0  0  0  0  0  0  0  0  0
  182.7560  175.7470  139.3750 N   0  0  0  0  0  0  0  0  0  0  0  0
  180.3690  181.3990  139.0110 C   0  0  0  0  0  3  0  0  0  0  0  0
  182.7820  176.3150  135.7500 C   0  0  0  0  0  3  0  0  0  0  0  0
  180.2760  182.4820  138.1320 C   0  0  0  0  0  3  0  0  0  0  0  0
  180.9080  179.9330  137.1570 C   0  0  0  0  0  0  0  0  0  0  0  0
  180.8030  181.0180  136.2800 C   0  0  0  0  0  3  0  0  0  0  0  0
  180.4960  182.2910  136.7660 C   0  0  0  0  0  3  0  0  0  0  0  0
  180.7000  180.1190  138.5390 C   0  0  0  0  0  0  0  0  0  0  0  0
  182.0450  176.8080  139.8340 C   0  0  0  0  0  3  0  0  0  0  0  0
  184.0290  174.2930  136.2640 C   0  0  0  0  0  0  0  0  0  0  0  0
  181.7800  177.6220  137.5700 C   0  0  0  0  0  0  0  0  0  0  0  0
  183.0160  175.5840  138.0550 C   0  0  0  0  0  0  0  0  0  0  0  0
  181.1550  178.5730  136.5840 C   0  0  0  0  0  2  0  0  0  0  0  0
  183.7650  174.4850  137.6270 C   0  0  0  0  0  3  0  0  0  0  0  0
  180.7640  178.9500  139.5000 C   0  0  1  0  0  3  0  0  0  0  0  0
  183.5300  175.2130  135.3300 C   0  0  0  0  0  3  0  0  0  0  0  0
  181.5600  177.7840  138.9540 C   0  0  0  0  0  0  0  0  0  0  0  0
  182.5220  176.5150  137.1140 C   0  0  0  0  0  0  0  0  0  0  0  0
  184.8240  173.1360  135.8230 C   0  0  0  0  0  0  0  0  0  0  0  0
  184.2430  171.8750  135.7430 O   0  0  0  0  0  1  0  0  0  0  0  0
  186.0390  173.2760  135.5190 O   0  0  0  0  0  0  0  0  0  0  0  0
  184.4670  178.2610  142.1910 C   0  0  0  0  0  2  0  0  0  0  0  0
  185.6350  179.1210  141.7450 C   0  0  0  0  0  2  0  0  0  0  0  0
  186.9950  178.0030  137.8650 C   0  0  0  0  0  3  0  0  0  0  0  0
  186.0980  178.7120  140.3920 C   0  0  0  0  0  0  0  0  0  0  0  0
  187.4180  178.4640  140.1710 N   0  0  0  0  0  0  0  0  0  0  0  0
  185.6370  178.2520  138.0720 C   0  0  0  0  0  3  0  0  0  0  0  0
  187.8810  178.1140  138.9400 C   0  0  0  0  0  3  0  0  0  0  0  0
  185.1810  178.6090  139.3430 C   0  0  0  0  0  3  0  0  0  0  0  0
  1 21  1  0  0  0  0
  1  2  1  0  0  0  0
  2  3  1  0  0  0  0
  3  5  1  0  0  0  0
  5  4  1  0  0  0  0
  5  6  1  1  0  0  0
  7 13  1  1  0  0  0
  7 16  1  0  0  0  0
  9  5  1  0  0  0  0
  9 15  1  1  0  0  0
  9 16  1  0  0  0  0
 11 10  1  1  0  0  0
 11 14  1  0  0  0  0
 11  9  1  0  0  0  0
 14  8  1  1  0  0  0
 14  7  1  0  0  0  0
 16 12  1  1  0  0  0
 17 18  1  6  0  0  0
 17 14  1  0  0  0  0
 19 17  1  0  0  0  0
 20 19  1  0  0  0  0
 22 21  1  0  0  0  0
 23 22  1  0  0  0  0
 25 26  1  0  0  0  0
 26 24  2  0  0  0  0
 26 23  1  0  0  0  0
 27 35  1  0  0  0  0
 29 44  1  0  0  0  0
 30 28  2  0  0  0  0
 31 34  2  0  0  0  0
 32 33  2  0  0  0  0
 32 31  1  0  0  0  0
 33 30  1  0  0  0  0
 34 28  1  0  0  0  0
 34 41  1  0  0  0  0
 36 40  2  0  0  0  0
 37 43  1  0  0  0  0
 38 27  2  0  0  0  0
 39 31  1  0  0  0  0
 39 37  1  0  0  0  0
 40 38  1  0  0  0  0
 41 25  1  1  0  0  0
 42 29  2  0  0  0  0
 42 36  1  0  0  0  0
 43 41  1  0  0  0  0
 43 35  2  0  0  0  0
 44 37  2  0  0  0  0
 44 38  1  0  0  0  0
 45 36  1  0  0  0  0
 46 45  1  0  0  0  0
 47 45  2  0  0  0  0
 48  1  1  0  0  0  0
 49 48  1  0  0  0  0
 50 53  2  0  0  0  0
 50 54  1  0  0  0  0
 51 49  1  0  0  0  0
 52 51  1  0  0  0  0
 53 55  1  0  0  0  0
 54 52  2  0  0  0  0
 55 51  2  0  0  0  0
M  END
>  <MODEL>
9

>  <REMARK>
 VINA RESULT:      -7.2      3.329      9.808
  Name = 
  15 active torsions:
  status: ('A' for Active; 'I' for Inactive)
    1  A    between atoms: O_4  and  C_37
    2  A    between atoms: O_4  and  C_40
    3  A    between atoms: C_6  and  C_20
    4  A    between atoms: C_8  and  C_22
    5  A    between atoms: C_8  and  N_43
    6  A    between atoms: C_10  and  C_32
    7  A    between atoms: C_11  and  C_29
    8  A    between atoms: N_19  and  C_45
    9  A    between atoms: C_20  and  C_22
   10  A    between atoms: C_27  and  C_54
   11  A    between atoms: C_29  and  C_38
   12  A    between atoms: C_35  and  C_37
   13  A    between atoms: C_35  and  N_43
   14  A    between atoms: N_43  and  C_51
   15  A    between atoms: C_51  and  C_54
                            x       y       z     vdW  Elec       q    Type
                         _______ _______ _______ _____ _____    ______ ____

>  <TORSDO>
F 15

$$$$
