=
 OpenBabel10252415093D

 34 38  0  0  1  0  0  0  0  0999 V2000
  190.0550  177.0160  147.1220 C   0  0  0  0  0  0  0  0  0  0  0  0
  190.9550  176.2870  144.9660 C   0  0  0  0  0  0  0  0  0  0  0  0
  188.8100  177.4260  145.0810 C   0  0  0  0  0  0  0  0  0  0  0  0
  187.7490  177.7040  142.7620 N   0  0  0  0  0  0  0  0  0  0  0  0
  192.1760  175.8440  147.0150 C   0  0  0  0  0  3  0  0  0  0  0  0
  192.0700  175.7560  145.6200 C   0  0  0  0  0  3  0  0  0  0  0  0
  189.8210  176.7560  142.9330 C   0  0  0  0  0  0  0  0  0  0  0  0
  189.9380  176.9020  145.7260 C   0  0  0  0  0  0  0  0  0  0  0  0
  188.2230  177.5600  141.3850 C   0  0  0  0  0  2  0  0  0  0  0  0
  191.1750  176.4780  147.7640 C   0  0  0  0  0  3  0  0  0  0  0  0
  187.9660  178.2240  147.1530 C   0  0  0  0  0  3  0  0  0  0  0  0
  189.0600  177.6820  147.8400 C   0  0  0  0  0  3  0  0  0  0  0  0
  190.8720  176.2710  143.5280 N   0  0  0  0  0  0  0  0  0  0  0  0
  189.6190  176.8930  141.4620 C   0  0  1  0  0  3  0  0  0  0  0  0
  188.7190  177.2470  143.6580 N   0  0  0  0  0  0  0  0  0  0  0  0
  187.8650  178.0900  145.8000 N   0  0  0  0  0  0  0  0  0  0  0  0
  186.3450  177.7930  143.0260 C   0  0  0  0  0  3  0  0  0  0  0  0
  185.4800  178.2880  142.1430 C   0  0  0  0  0  3  0  0  0  0  0  0
  181.1370  179.1120  143.2600 C   0  0  0  0  0  3  0  0  0  0  0  0
  182.1710  178.8160  144.0460 C   0  0  0  0  0  3  0  0  0  0  0  0
  184.0320  178.3850  142.3880 C   0  0  0  0  0  0  0  0  0  0  0  0
  183.5790  178.7270  143.6090 C   0  0  0  0  0  3  0  0  0  0  0  0
  181.9260  178.3900  141.0370 C   0  0  0  0  0  3  0  0  0  0  0  0
  183.1580  177.9430  141.2820 C   0  0  0  0  0  3  0  0  0  0  0  0
  181.2840  179.4830  141.8230 C   0  0  0  0  0  2  0  0  0  0  0  0
  190.6390  177.8410  140.8470 C   0  0  0  0  0  2  0  0  0  0  0  0
  191.4920  177.1360  139.8060 C   0  0  0  0  0  2  0  0  0  0  0  0
  190.7350  176.1630  139.1530 O   0  0  0  0  0  0  0  0  0  0  0  0
  190.3290  176.7680  137.9630 C   0  0  0  0  0  2  0  0  0  0  0  0
  188.8320  176.5910  137.7750 C   0  0  0  0  0  2  0  0  0  0  0  0
  188.9870  179.3070  137.8110 O   0  0  0  0  0  1  0  0  0  0  0  0
  187.6000  178.3070  135.8330 O   0  0  0  0  0  0  0  0  0  0  0  0
  188.0270  178.1920  137.4650 P   0  0  0  0  0  0  0  0  0  0  0  0
  186.6390  178.3340  138.4220 O   0  0  0  0  0  1  0  0  0  0  0  0
  1 10  1  0  0  0  0
  1 12  1  0  0  0  0
  2  6  2  0  0  0  0
  2  8  1  0  0  0  0
  3  8  1  0  0  0  0
  3 16  2  0  0  0  0
  4 17  1  0  0  0  0
  4 15  1  0  0  0  0
  5 10  2  0  0  0  0
  6  5  1  0  0  0  0
  7 13  2  0  0  0  0
  7 15  1  0  0  0  0
  8  1  2  0  0  0  0
  9 14  1  0  0  0  0
  9  4  1  0  0  0  0
 11 12  2  0  0  0  0
 13  2  1  0  0  0  0
 14 26  1  1  0  0  0
 14  7  1  0  0  0  0
 15  3  1  0  0  0  0
 16 11  1  0  0  0  0
 18 21  1  0  0  0  0
 18 17  2  0  0  0  0
 19 20  2  0  0  0  0
 21 22  2  0  0  0  0
 22 20  1  0  0  0  0
 23 24  2  0  0  0  0
 23 25  1  0  0  0  0
 24 21  1  0  0  0  0
 25 19  1  0  0  0  0
 27 26  1  0  0  0  0
 28 27  1  0  0  0  0
 29 28  1  0  0  0  0
 30 29  1  0  0  0  0
 32 33  2  0  0  0  0
 33 30  1  0  0  0  0
 33 31  1  0  0  0  0
 33 34  1  0  0  0  0
M  END
>  <MODEL>
1

>  <REMARK>
 VINA RESULT:      -8.9      0.000      0.000
  Name = 
  8 active torsions:
  status: ('A' for Active; 'I' for Inactive)
    1  A    between atoms: C_3  and  O_13
    2  A    between atoms: C_3  and  C_17
    3  A    between atoms: N_5  and  C_26
    4  A    between atoms: C_12  and  C_28
    5  A    between atoms: O_13  and  C_33
    6  A    between atoms: C_17  and  C_29
    7  A    between atoms: P_20  and  C_34
    8  A    between atoms: C_33  and  C_34
                            x       y       z     vdW  Elec       q    Type
                         _______ _______ _______ _____ _____    ______ ____

>  <TORSDO>
F 8

$$$$
=
 OpenBabel10252415093D

 34 38  0  0  1  0  0  0  0  0999 V2000
  188.1650  177.8480  147.2620 C   0  0  0  0  0  0  0  0  0  0  0  0
  189.0860  177.2070  145.0870 C   0  0  0  0  0  0  0  0  0  0  0  0
  186.8730  178.2020  145.2410 C   0  0  0  0  0  0  0  0  0  0  0  0
  185.7690  178.4420  142.9370 N   0  0  0  0  0  0  0  0  0  0  0  0
  190.3560  176.8180  147.1160 C   0  0  0  0  0  3  0  0  0  0  0  0
  190.2400  176.7410  145.7210 C   0  0  0  0  0  3  0  0  0  0  0  0
  187.9000  177.6280  143.0730 C   0  0  0  0  0  0  0  0  0  0  0  0
  188.0400  177.7450  145.8660 C   0  0  0  0  0  0  0  0  0  0  0  0
  186.2350  178.3470  141.5530 C   0  0  0  0  0  2  0  0  0  0  0  0
  189.3250  177.3750  147.8850 C   0  0  0  0  0  3  0  0  0  0  0  0
  186.0030  178.9160  147.3320 C   0  0  0  0  0  3  0  0  0  0  0  0
  187.1370  178.4380  148.0000 C   0  0  0  0  0  3  0  0  0  0  0  0
  188.9870  177.2050  143.6490 N   0  0  0  0  0  0  0  0  0  0  0  0
  187.6720  177.7710  141.6060 C   0  0  1  0  0  3  0  0  0  0  0  0
  186.7770  178.0360  143.8160 N   0  0  0  0  0  0  0  0  0  0  0  0
  185.8950  178.7940  145.9780 N   0  0  0  0  0  0  0  0  0  0  0  0
  184.3650  178.4350  143.2170 C   0  0  0  0  0  3  0  0  0  0  0  0
  183.4600  178.8900  142.3530 C   0  0  0  0  0  3  0  0  0  0  0  0
  179.1230  179.1630  143.7350 C   0  0  0  0  0  3  0  0  0  0  0  0
  180.1420  178.4900  144.2710 C   0  0  0  0  0  3  0  0  0  0  0  0
  182.0120  178.8900  142.6150 C   0  0  0  0  0  0  0  0  0  0  0  0
  181.5520  178.5930  143.8460 C   0  0  0  0  0  3  0  0  0  0  0  0
  179.9230  179.6170  141.4460 C   0  0  0  0  0  3  0  0  0  0  0  0
  181.1410  179.0770  141.4360 C   0  0  0  0  0  3  0  0  0  0  0  0
  179.2960  180.1930  142.6710 C   0  0  0  0  0  2  0  0  0  0  0  0
  188.6210  178.7910  140.9930 C   0  0  0  0  0  2  0  0  0  0  0  0
  189.2530  178.2620  139.7170 C   0  0  0  0  0  2  0  0  0  0  0  0
  189.0030  179.1410  138.6640 O   0  0  0  0  0  0  0  0  0  0  0  0
  189.0470  178.3460  137.5180 C   0  0  0  0  0  2  0  0  0  0  0  0
  188.1300  177.1460  137.6840 C   0  0  0  0  0  2  0  0  0  0  0  0
  185.8710  178.6360  137.9670 O   0  0  0  0  0  1  0  0  0  0  0  0
  186.5040  178.0490  135.4990 O   0  0  0  0  0  0  0  0  0  0  0  0
  186.4480  177.5350  137.1080 P   0  0  0  0  0  0  0  0  0  0  0  0
  185.4670  176.1620  137.2290 O   0  0  0  0  0  1  0  0  0  0  0  0
  1 10  1  0  0  0  0
  1 12  1  0  0  0  0
  2  6  2  0  0  0  0
  2  8  1  0  0  0  0
  3  8  1  0  0  0  0
  3 16  2  0  0  0  0
  4 17  1  0  0  0  0
  4 15  1  0  0  0  0
  5 10  2  0  0  0  0
  6  5  1  0  0  0  0
  7 13  2  0  0  0  0
  7 15  1  0  0  0  0
  8  1  2  0  0  0  0
  9 14  1  0  0  0  0
  9  4  1  0  0  0  0
 11 12  2  0  0  0  0
 13  2  1  0  0  0  0
 14 26  1  1  0  0  0
 14  7  1  0  0  0  0
 15  3  1  0  0  0  0
 16 11  1  0  0  0  0
 18 21  1  0  0  0  0
 18 17  2  0  0  0  0
 19 20  2  0  0  0  0
 21 22  2  0  0  0  0
 22 20  1  0  0  0  0
 23 25  1  0  0  0  0
 24 23  2  0  0  0  0
 24 21  1  0  0  0  0
 25 19  1  0  0  0  0
 27 26  1  0  0  0  0
 28 27  1  0  0  0  0
 29 30  1  0  0  0  0
 29 28  1  0  0  0  0
 32 33  2  0  0  0  0
 33 34  1  0  0  0  0
 33 30  1  0  0  0  0
 33 31  1  0  0  0  0
M  END
>  <MODEL>
2

>  <REMARK>
 VINA RESULT:      -8.8      1.487      2.190
  Name = 
  8 active torsions:
  status: ('A' for Active; 'I' for Inactive)
    1  A    between atoms: C_3  and  O_13
    2  A    between atoms: C_3  and  C_17
    3  A    between atoms: N_5  and  C_26
    4  A    between atoms: C_12  and  C_28
    5  A    between atoms: O_13  and  C_33
    6  A    between atoms: C_17  and  C_29
    7  A    between atoms: P_20  and  C_34
    8  A    between atoms: C_33  and  C_34
                            x       y       z     vdW  Elec       q    Type
                         _______ _______ _______ _____ _____    ______ ____

>  <TORSDO>
F 8

$$$$
=
 OpenBabel10252415093D

 34 38  0  0  1  0  0  0  0  0999 V2000
  188.2820  177.7810  147.1230 C   0  0  0  0  0  0  0  0  0  0  0  0
  189.1940  177.1310  144.9480 C   0  0  0  0  0  0  0  0  0  0  0  0
  186.9720  178.1040  145.1080 C   0  0  0  0  0  0  0  0  0  0  0  0
  185.8500  178.3110  142.8100 N   0  0  0  0  0  0  0  0  0  0  0  0
  190.4830  176.7740  146.9720 C   0  0  0  0  0  3  0  0  0  0  0  0
  190.3580  176.6830  145.5790 C   0  0  0  0  0  3  0  0  0  0  0  0
  187.9900  177.5210  142.9380 C   0  0  0  0  0  0  0  0  0  0  0  0
  188.1480  177.6650  145.7300 C   0  0  0  0  0  0  0  0  0  0  0  0
  186.3080  178.2080  141.4240 C   0  0  0  0  0  2  0  0  0  0  0  0
  189.4510  177.3270  147.7430 C   0  0  0  0  0  3  0  0  0  0  0  0
  186.1080  178.8270  147.1990 C   0  0  0  0  0  3  0  0  0  0  0  0
  187.2520  178.3670  147.8630 C   0  0  0  0  0  3  0  0  0  0  0  0
  189.0860  177.1150  143.5110 N   0  0  0  0  0  0  0  0  0  0  0  0
  187.7510  177.6480  141.4730 C   0  0  1  0  0  3  0  0  0  0  0  0
  186.8680  177.9240  143.6860 N   0  0  0  0  0  0  0  0  0  0  0  0
  185.9920  178.6910  145.8480 N   0  0  0  0  0  0  0  0  0  0  0  0
  184.4480  178.2910  143.1000 C   0  0  0  0  0  3  0  0  0  0  0  0
  183.5470  178.8860  142.3210 C   0  0  0  0  0  3  0  0  0  0  0  0
  179.2180  179.1530  143.7260 C   0  0  0  0  0  3  0  0  0  0  0  0
  180.2480  178.5140  144.2780 C   0  0  0  0  0  3  0  0  0  0  0  0
  182.1010  178.8760  142.5940 C   0  0  0  0  0  0  0  0  0  0  0  0
  181.6540  178.6200  143.8380 C   0  0  0  0  0  3  0  0  0  0  0  0
  179.9940  179.5330  141.4160 C   0  0  0  0  0  3  0  0  0  0  0  0
  181.2190  179.0080  141.4160 C   0  0  0  0  0  3  0  0  0  0  0  0
  179.3690  180.1450  142.6230 C   0  0  0  0  0  2  0  0  0  0  0  0
  188.6850  178.6730  140.8440 C   0  0  0  0  0  2  0  0  0  0  0  0
  189.1800  178.2090  139.4850 C   0  0  0  0  0  2  0  0  0  0  0  0
  190.5180  177.8240  139.5730 O   0  0  0  0  0  0  0  0  0  0  0  0
  190.5690  176.5730  138.9580 C   0  0  0  0  0  2  0  0  0  0  0  0
  191.3360  176.6670  137.6500 C   0  0  0  0  0  2  0  0  0  0  0  0
  193.1820  174.6820  137.8830 O   0  0  0  0  0  1  0  0  0  0  0  0
  194.0140  176.8220  136.6320 O   0  0  0  0  0  0  0  0  0  0  0  0
  193.0750  176.1890  137.8870 P   0  0  0  0  0  0  0  0  0  0  0  0
  193.6390  176.7840  139.3680 O   0  0  0  0  0  1  0  0  0  0  0  0
  1 10  1  0  0  0  0
  1 12  1  0  0  0  0
  2  6  2  0  0  0  0
  2  8  1  0  0  0  0
  3  8  1  0  0  0  0
  3 16  2  0  0  0  0
  4 17  1  0  0  0  0
  4 15  1  0  0  0  0
  5 10  2  0  0  0  0
  6  5  1  0  0  0  0
  7 13  2  0  0  0  0
  7 15  1  0  0  0  0
  8  1  2  0  0  0  0
  9 14  1  0  0  0  0
  9  4  1  0  0  0  0
 11 12  2  0  0  0  0
 13  2  1  0  0  0  0
 14 26  1  1  0  0  0
 14  7  1  0  0  0  0
 15  3  1  0  0  0  0
 16 11  1  0  0  0  0
 18 21  1  0  0  0  0
 18 17  2  0  0  0  0
 19 20  2  0  0  0  0
 21 22  2  0  0  0  0
 22 20  1  0  0  0  0
 23 25  1  0  0  0  0
 24 23  2  0  0  0  0
 24 21  1  0  0  0  0
 25 19  1  0  0  0  0
 27 28  1  0  0  0  0
 27 26  1  0  0  0  0
 29 28  1  0  0  0  0
 30 33  1  0  0  0  0
 30 29  1  0  0  0  0
 31 33  1  0  0  0  0
 32 33  2  0  0  0  0
 33 34  1  0  0  0  0
M  END
>  <MODEL>
3

>  <REMARK>
 VINA RESULT:      -8.7      1.958      2.902
  Name = 
  8 active torsions:
  status: ('A' for Active; 'I' for Inactive)
    1  A    between atoms: C_3  and  O_13
    2  A    between atoms: C_3  and  C_17
    3  A    between atoms: N_5  and  C_26
    4  A    between atoms: C_12  and  C_28
    5  A    between atoms: O_13  and  C_33
    6  A    between atoms: C_17  and  C_29
    7  A    between atoms: P_20  and  C_34
    8  A    between atoms: C_33  and  C_34
                            x       y       z     vdW  Elec       q    Type
                         _______ _______ _______ _____ _____    ______ ____

>  <TORSDO>
F 8

$$$$
=
 OpenBabel10252415093D

 34 38  0  0  1  0  0  0  0  0999 V2000
  188.2140  177.8040  147.1330 C   0  0  0  0  0  0  0  0  0  0  0  0
  189.1470  177.2160  144.9490 C   0  0  0  0  0  0  0  0  0  0  0  0
  186.9080  178.1460  145.1190 C   0  0  0  0  0  0  0  0  0  0  0  0
  185.7920  178.3820  142.8210 N   0  0  0  0  0  0  0  0  0  0  0  0
  190.4330  176.8380  146.9710 C   0  0  0  0  0  3  0  0  0  0  0  0
  190.3160  176.7750  145.5750 C   0  0  0  0  0  3  0  0  0  0  0  0
  187.9450  177.6270  142.9420 C   0  0  0  0  0  0  0  0  0  0  0  0
  188.0880  177.7140  145.7370 C   0  0  0  0  0  0  0  0  0  0  0  0
  186.2580  178.3170  141.4350 C   0  0  0  0  0  2  0  0  0  0  0  0
  189.3880  177.3560  147.7480 C   0  0  0  0  0  3  0  0  0  0  0  0
  186.0230  178.8100  147.2210 C   0  0  0  0  0  3  0  0  0  0  0  0
  187.1720  178.3560  147.8810 C   0  0  0  0  0  3  0  0  0  0  0  0
  189.0460  177.2280  143.5120 N   0  0  0  0  0  0  0  0  0  0  0  0
  187.7100  177.7810  141.4780 C   0  0  1  0  0  3  0  0  0  0  0  0
  186.8130  177.9950  143.6930 N   0  0  0  0  0  0  0  0  0  0  0  0
  185.9150  178.7010  145.8660 N   0  0  0  0  0  0  0  0  0  0  0  0
  184.3890  178.3320  143.1030 C   0  0  0  0  0  3  0  0  0  0  0  0
  183.4860  178.9680  142.3610 C   0  0  0  0  0  3  0  0  0  0  0  0
  179.1450  179.1510  143.7420 C   0  0  0  0  0  3  0  0  0  0  0  0
  180.1870  178.5430  144.3070 C   0  0  0  0  0  3  0  0  0  0  0  0
  182.0390  178.9280  142.6270 C   0  0  0  0  0  0  0  0  0  0  0  0
  181.5920  178.6750  143.8720 C   0  0  0  0  0  3  0  0  0  0  0  0
  179.9230  179.5220  141.4320 C   0  0  0  0  0  3  0  0  0  0  0  0
  181.1600  179.0260  141.4440 C   0  0  0  0  0  3  0  0  0  0  0  0
  179.2790  180.1340  142.6290 C   0  0  0  0  0  2  0  0  0  0  0  0
  188.6290  178.8360  140.8760 C   0  0  0  0  0  2  0  0  0  0  0  0
  189.3040  178.3250  139.6150 C   0  0  0  0  0  2  0  0  0  0  0  0
  188.8930  179.0810  138.5170 O   0  0  0  0  0  0  0  0  0  0  0  0
  188.9460  178.1980  137.4370 C   0  0  0  0  0  2  0  0  0  0  0  0
  188.5810  176.7950  137.8950 C   0  0  0  0  0  2  0  0  0  0  0  0
  188.9490  174.3710  136.7160 O   0  0  0  0  0  1  0  0  0  0  0  0
  190.5670  176.2540  135.8950 O   0  0  0  0  0  0  0  0  0  0  0  0
  189.7310  175.5710  137.1970 P   0  0  0  0  0  0  0  0  0  0  0  0
  190.8350  175.0780  138.3800 O   0  0  0  0  0  1  0  0  0  0  0  0
  1 10  1  0  0  0  0
  1 12  1  0  0  0  0
  2  6  2  0  0  0  0
  2  8  1  0  0  0  0
  3  8  1  0  0  0  0
  3 16  2  0  0  0  0
  4 17  1  0  0  0  0
  4 15  1  0  0  0  0
  5 10  2  0  0  0  0
  6  5  1  0  0  0  0
  7 13  2  0  0  0  0
  7 15  1  0  0  0  0
  8  1  2  0  0  0  0
  9 14  1  0  0  0  0
  9  4  1  0  0  0  0
 11 12  2  0  0  0  0
 13  2  1  0  0  0  0
 14 26  1  1  0  0  0
 14  7  1  0  0  0  0
 15  3  1  0  0  0  0
 16 11  1  0  0  0  0
 18 21  1  0  0  0  0
 18 17  2  0  0  0  0
 19 20  2  0  0  0  0
 21 22  2  0  0  0  0
 22 20  1  0  0  0  0
 23 24  2  0  0  0  0
 23 25  1  0  0  0  0
 24 21  1  0  0  0  0
 25 19  1  0  0  0  0
 27 26  1  0  0  0  0
 28 27  1  0  0  0  0
 29 30  1  0  0  0  0
 29 28  1  0  0  0  0
 31 33  1  0  0  0  0
 32 33  2  0  0  0  0
 33 30  1  0  0  0  0
 33 34  1  0  0  0  0
M  END
>  <MODEL>
4

>  <REMARK>
 VINA RESULT:      -8.6      1.592      2.498
  Name = 
  8 active torsions:
  status: ('A' for Active; 'I' for Inactive)
    1  A    between atoms: C_3  and  O_13
    2  A    between atoms: C_3  and  C_17
    3  A    between atoms: N_5  and  C_26
    4  A    between atoms: C_12  and  C_28
    5  A    between atoms: O_13  and  C_33
    6  A    between atoms: C_17  and  C_29
    7  A    between atoms: P_20  and  C_34
    8  A    between atoms: C_33  and  C_34
                            x       y       z     vdW  Elec       q    Type
                         _______ _______ _______ _____ _____    ______ ____

>  <TORSDO>
F 8

$$$$
=
 OpenBabel10252415093D

 34 38  0  0  1  0  0  0  0  0999 V2000
  187.1910  177.7540  145.6930 C   0  0  0  0  0  0  0  0  0  0  0  0
  185.3200  178.8330  144.5420 C   0  0  0  0  0  0  0  0  0  0  0  0
  187.1830  177.9200  143.2740 C   0  0  0  0  0  0  0  0  0  0  0  0
  186.8760  178.2530  140.7480 N   0  0  0  0  0  0  0  0  0  0  0  0
  185.3540  178.7000  146.9640 C   0  0  0  0  0  3  0  0  0  0  0  0
  184.7220  179.0950  145.7770 C   0  0  0  0  0  3  0  0  0  0  0  0
  185.2200  178.9280  142.1710 C   0  0  0  0  0  0  0  0  0  0  0  0
  186.5680  178.1750  144.5060 C   0  0  0  0  0  0  0  0  0  0  0  0
  185.7590  178.6400  139.8850 C   0  0  0  0  0  2  0  0  0  0  0  0
  186.5830  178.0260  146.9230 C   0  0  0  0  0  3  0  0  0  0  0  0
  188.9600  176.7870  144.3680 C   0  0  0  0  0  3  0  0  0  0  0  0
  188.3970  177.0550  145.6220 C   0  0  0  0  0  3  0  0  0  0  0  0
  184.6440  179.1640  143.3140 N   0  0  0  0  0  0  0  0  0  0  0  0
  184.6250  179.1300  140.8190 C   0  0  1  0  0  3  0  0  0  0  0  0
  186.5250  178.4080  142.0930 N   0  0  0  0  0  0  0  0  0  0  0  0
  188.3470  177.2170  143.2290 N   0  0  0  0  0  0  0  0  0  0  0  0
  188.2100  178.2540  140.2290 C   0  0  0  0  0  3  0  0  0  0  0  0
  188.8110  177.1470  139.7970 C   0  0  0  0  0  3  0  0  0  0  0  0
  193.2070  176.7460  138.6560 C   0  0  0  0  0  3  0  0  0  0  0  0
  192.6570  177.3690  139.6980 C   0  0  0  0  0  3  0  0  0  0  0  0
  190.1790  177.1220  139.2550 C   0  0  0  0  0  0  0  0  0  0  0  0
  191.2300  177.3060  140.0750 C   0  0  0  0  0  3  0  0  0  0  0  0
  191.3030  176.5010  137.1070 C   0  0  0  0  0  3  0  0  0  0  0  0
  190.2890  177.0410  137.7830 C   0  0  0  0  0  3  0  0  0  0  0  0
  192.4510  175.8160  137.7690 C   0  0  0  0  0  2  0  0  0  0  0  0
  183.4090  178.2370  140.6080 C   0  0  0  0  0  2  0  0  0  0  0  0
  182.4270  178.8620  139.6330 C   0  0  0  0  0  2  0  0  0  0  0  0
  181.2730  178.0830  139.5570 O   0  0  0  0  0  0  0  0  0  0  0  0
  181.0810  177.6050  140.8540 C   0  0  0  0  0  2  0  0  0  0  0  0
  179.7710  178.1330  141.4140 C   0  0  0  0  0  2  0  0  0  0  0  0
  178.9310  178.6380  143.9520 O   0  0  0  0  0  1  0  0  0  0  0  0
  181.5250  178.5090  143.6530 O   0  0  0  0  0  1  0  0  0  0  0  0
  180.0450  178.9910  142.9940 P   0  0  0  0  0  0  0  0  0  0  0  0
  180.0560  180.6650  142.7460 O   0  0  0  0  0  0  0  0  0  0  0  0
  1 10  2  0  0  0  0
  2  6  1  0  0  0  0
  3  8  1  0  0  0  0
  4 15  1  0  0  0  0
  6  5  2  0  0  0  0
  7 13  2  0  0  0  0
  8  2  2  0  0  0  0
  8  1  1  0  0  0  0
  9  4  1  0  0  0  0
  9 14  1  0  0  0  0
 10  5  1  0  0  0  0
 11 12  2  0  0  0  0
 12  1  1  0  0  0  0
 13  2  1  0  0  0  0
 14 26  1  1  0  0  0
 14  7  1  0  0  0  0
 15  7  1  0  0  0  0
 15  3  1  0  0  0  0
 16  3  2  0  0  0  0
 16 11  1  0  0  0  0
 17  4  1  0  0  0  0
 18 17  2  0  0  0  0
 19 20  2  0  0  0  0
 20 22  1  0  0  0  0
 21 18  1  0  0  0  0
 21 22  2  0  0  0  0
 23 25  1  0  0  0  0
 23 24  2  0  0  0  0
 24 21  1  0  0  0  0
 25 19  1  0  0  0  0
 27 26  1  0  0  0  0
 28 27  1  0  0  0  0
 28 29  1  0  0  0  0
 29 30  1  0  0  0  0
 30 33  1  0  0  0  0
 33 32  1  0  0  0  0
 33 31  1  0  0  0  0
 34 33  2  0  0  0  0
M  END
>  <MODEL>
5

>  <REMARK>
 VINA RESULT:      -8.2      3.664      7.610
  Name = 
  8 active torsions:
  status: ('A' for Active; 'I' for Inactive)
    1  A    between atoms: C_3  and  O_13
    2  A    between atoms: C_3  and  C_17
    3  A    between atoms: N_5  and  C_26
    4  A    between atoms: C_12  and  C_28
    5  A    between atoms: O_13  and  C_33
    6  A    between atoms: C_17  and  C_29
    7  A    between atoms: P_20  and  C_34
    8  A    between atoms: C_33  and  C_34
                            x       y       z     vdW  Elec       q    Type
                         _______ _______ _______ _____ _____    ______ ____

>  <TORSDO>
F 8

$$$$
=
 OpenBabel10252415093D

 34 38  0  0  1  0  0  0  0  0999 V2000
  188.1630  177.7200  137.0700 C   0  0  0  0  0  0  0  0  0  0  0  0
  185.7320  177.5950  136.8210 C   0  0  0  0  0  0  0  0  0  0  0  0
  186.7180  178.2730  138.9370 C   0  0  0  0  0  0  0  0  0  0  0  0
  184.9310  178.7880  140.7050 N   0  0  0  0  0  0  0  0  0  0  0  0
  187.1830  177.0040  134.9700 C   0  0  0  0  0  3  0  0  0  0  0  0
  185.8960  177.1650  135.5020 C   0  0  0  0  0  3  0  0  0  0  0  0
  184.2760  178.2250  138.5900 C   0  0  0  0  0  0  0  0  0  0  0  0
  186.8730  177.8550  137.6100 C   0  0  0  0  0  0  0  0  0  0  0  0
  183.4830  178.9990  140.6800 C   0  0  0  0  0  2  0  0  0  0  0  0
  188.3140  177.2860  135.7490 C   0  0  0  0  0  3  0  0  0  0  0  0
  189.0720  178.4910  139.1680 C   0  0  0  0  0  3  0  0  0  0  0  0
  189.2710  178.0400  137.8570 C   0  0  0  0  0  3  0  0  0  0  0  0
  184.4150  177.8390  137.3540 N   0  0  0  0  0  0  0  0  0  0  0  0
  183.0000  178.6000  139.2630 C   0  0  1  0  0  3  0  0  0  0  0  0
  185.3790  178.3550  139.4540 N   0  0  0  0  0  0  0  0  0  0  0  0
  187.8120  178.6010  139.6770 N   0  0  0  0  0  0  0  0  0  0  0  0
  185.5950  178.5620  141.9530 C   0  0  0  0  0  3  0  0  0  0  0  0
  184.9340  178.3570  143.0900 C   0  0  0  0  0  3  0  0  0  0  0  0
  187.5000  177.8940  146.8310 C   0  0  0  0  0  3  0  0  0  0  0  0
  187.6740  177.3760  145.6150 C   0  0  0  0  0  3  0  0  0  0  0  0
  185.5930  178.1180  144.3840 C   0  0  0  0  0  0  0  0  0  0  0  0
  186.8770  177.7150  144.4190 C   0  0  0  0  0  3  0  0  0  0  0  0
  185.1190  178.5400  146.8040 C   0  0  0  0  0  3  0  0  0  0  0  0
  184.7250  178.2010  145.5770 C   0  0  0  0  0  3  0  0  0  0  0  0
  186.5110  178.9710  147.1240 C   0  0  0  0  0  2  0  0  0  0  0  0
  182.3660  179.8210  138.6110 C   0  0  0  0  0  2  0  0  0  0  0  0
  180.9060  179.9640  139.0080 C   0  0  0  0  0  2  0  0  0  0  0  0
  180.1810  180.5240  137.9570 O   0  0  0  0  0  0  0  0  0  0  0  0
  180.9470  181.6100  137.5350 C   0  0  0  0  0  2  0  0  0  0  0  0
  180.2280  182.9100  137.8550 C   0  0  0  0  0  2  0  0  0  0  0  0
  181.1600  183.8200  135.4660 O   0  0  0  0  0  0  0  0  0  0  0  0
  179.8240  185.5750  136.8710 O   0  0  0  0  0  1  0  0  0  0  0  0
  180.9170  184.2850  136.8830 P   0  0  0  0  0  0  0  0  0  0  0  0
  182.3810  184.7920  137.5620 O   0  0  0  0  0  1  0  0  0  0  0  0
  1  8  2  0  0  0  0
  1 12  1  0  0  0  0
  2 13  1  0  0  0  0
  2  8  1  0  0  0  0
  3 15  1  0  0  0  0
  3 16  2  0  0  0  0
  4 17  1  0  0  0  0
  5  6  1  0  0  0  0
  5 10  2  0  0  0  0
  6  2  2  0  0  0  0
  7 14  1  0  0  0  0
  7 15  1  0  0  0  0
  8  3  1  0  0  0  0
  9  4  1  0  0  0  0
 10  1  1  0  0  0  0
 11 16  1  0  0  0  0
 12 11  2  0  0  0  0
 13  7  2  0  0  0  0
 14 26  1  6  0  0  0
 14  9  1  0  0  0  0
 15  4  1  0  0  0  0
 17 18  2  0  0  0  0
 18 21  1  0  0  0  0
 19 25  1  0  0  0  0
 20 19  2  0  0  0  0
 21 22  2  0  0  0  0
 21 24  1  0  0  0  0
 22 20  1  0  0  0  0
 23 25  1  0  0  0  0
 24 23  2  0  0  0  0
 26 27  1  0  0  0  0
 28 27  1  0  0  0  0
 29 30  1  0  0  0  0
 29 28  1  0  0  0  0
 31 33  2  0  0  0  0
 32 33  1  0  0  0  0
 33 34  1  0  0  0  0
 33 30  1  0  0  0  0
M  END
>  <MODEL>
6

>  <REMARK>
 VINA RESULT:      -7.9      4.455      8.368
  Name = 
  8 active torsions:
  status: ('A' for Active; 'I' for Inactive)
    1  A    between atoms: C_3  and  O_13
    2  A    between atoms: C_3  and  C_17
    3  A    between atoms: N_5  and  C_26
    4  A    between atoms: C_12  and  C_28
    5  A    between atoms: O_13  and  C_33
    6  A    between atoms: C_17  and  C_29
    7  A    between atoms: P_20  and  C_34
    8  A    between atoms: C_33  and  C_34
                            x       y       z     vdW  Elec       q    Type
                         _______ _______ _______ _____ _____    ______ ____

>  <TORSDO>
F 8

$$$$
=
 OpenBabel10252415093D

 34 38  0  0  1  0  0  0  0  0999 V2000
  183.5420  178.9200  141.4820 C   0  0  0  0  0  0  0  0  0  0  0  0
  184.8670  178.9530  139.4250 C   0  0  0  0  0  0  0  0  0  0  0  0
  185.8850  178.2950  141.5330 C   0  0  0  0  0  0  0  0  0  0  0  0
  188.3640  177.6970  141.2520 N   0  0  0  0  0  0  0  0  0  0  0  0
  182.5340  179.6150  139.3890 C   0  0  0  0  0  3  0  0  0  0  0  0
  183.7470  179.4000  138.7200 C   0  0  0  0  0  3  0  0  0  0  0  0
  187.1360  178.2530  139.4070 C   0  0  0  0  0  0  0  0  0  0  0  0
  184.7640  178.7310  140.8150 C   0  0  0  0  0  0  0  0  0  0  0  0
  189.2400  177.4300  140.1100 C   0  0  0  0  0  2  0  0  0  0  0  0
  182.4290  179.3700  140.7650 C   0  0  0  0  0  3  0  0  0  0  0  0
  184.5920  178.1670  143.5200 C   0  0  0  0  0  3  0  0  0  0  0  0
  183.4570  178.6350  142.8470 C   0  0  0  0  0  3  0  0  0  0  0  0
  186.0960  178.6540  138.7350 N   0  0  0  0  0  0  0  0  0  0  0  0
  188.4460  177.8220  138.8400 C   0  0  1  0  0  3  0  0  0  0  0  0
  187.1200  178.1570  140.8110 N   0  0  0  0  0  0  0  0  0  0  0  0
  185.7720  178.0040  142.8570 N   0  0  0  0  0  0  0  0  0  0  0  0
  188.9330  177.9370  142.5440 C   0  0  0  0  0  3  0  0  0  0  0  0
  188.8970  177.0340  143.5220 C   0  0  0  0  0  3  0  0  0  0  0  0
  190.1800  177.4000  147.8820 C   0  0  0  0  0  3  0  0  0  0  0  0
  189.0920  177.8760  147.2770 C   0  0  0  0  0  3  0  0  0  0  0  0
  189.4780  177.2560  144.8560 C   0  0  0  0  0  0  0  0  0  0  0  0
  188.6790  177.5670  145.8930 C   0  0  0  0  0  3  0  0  0  0  0  0
  191.6850  176.9240  145.9870 C   0  0  0  0  0  3  0  0  0  0  0  0
  190.9540  177.2620  144.9250 C   0  0  0  0  0  3  0  0  0  0  0  0
  191.0920  176.4030  147.2520 C   0  0  0  0  0  2  0  0  0  0  0  0
  188.2940  176.5840  137.9670 C   0  0  0  0  0  2  0  0  0  0  0  0
  188.4770  176.9180  136.4960 C   0  0  0  0  0  2  0  0  0  0  0  0
  189.8270  177.1420  136.2250 O   0  0  0  0  0  0  0  0  0  0  0  0
  190.3510  175.8770  135.9580 C   0  0  0  0  0  2  0  0  0  0  0  0
  191.8630  175.9570  135.8300 C   0  0  0  0  0  2  0  0  0  0  0  0
  191.6180  174.9510  138.3470 O   0  0  0  0  0  1  0  0  0  0  0  0
  193.7670  174.1980  137.0610 O   0  0  0  0  0  0  0  0  0  0  0  0
  192.6680  175.4430  137.3790 P   0  0  0  0  0  0  0  0  0  0  0  0
  193.4860  176.7560  138.0640 O   0  0  0  0  0  1  0  0  0  0  0  0
  1 12  1  0  0  0  0
  2  8  1  0  0  0  0
  3 16  2  0  0  0  0
  4 17  1  0  0  0  0
  5 10  2  0  0  0  0
  6  5  1  0  0  0  0
  6  2  2  0  0  0  0
  7 15  1  0  0  0  0
  8  1  2  0  0  0  0
  8  3  1  0  0  0  0
  9  4  1  0  0  0  0
 10  1  1  0  0  0  0
 12 11  2  0  0  0  0
 13  7  2  0  0  0  0
 13  2  1  0  0  0  0
 14 26  1  6  0  0  0
 14  7  1  0  0  0  0
 14  9  1  0  0  0  0
 15  4  1  0  0  0  0
 15  3  1  0  0  0  0
 16 11  1  0  0  0  0
 17 18  2  0  0  0  0
 18 21  1  0  0  0  0
 20 19  2  0  0  0  0
 21 24  1  0  0  0  0
 21 22  2  0  0  0  0
 22 20  1  0  0  0  0
 23 25  1  0  0  0  0
 24 23  2  0  0  0  0
 25 19  1  0  0  0  0
 27 26  1  0  0  0  0
 28 27  1  0  0  0  0
 29 28  1  0  0  0  0
 30 29  1  0  0  0  0
 30 33  1  0  0  0  0
 32 33  2  0  0  0  0
 33 34  1  0  0  0  0
 33 31  1  0  0  0  0
M  END
>  <MODEL>
7

>  <REMARK>
 VINA RESULT:      -7.9      2.156      7.000
  Name = 
  8 active torsions:
  status: ('A' for Active; 'I' for Inactive)
    1  A    between atoms: C_3  and  O_13
    2  A    between atoms: C_3  and  C_17
    3  A    between atoms: N_5  and  C_26
    4  A    between atoms: C_12  and  C_28
    5  A    between atoms: O_13  and  C_33
    6  A    between atoms: C_17  and  C_29
    7  A    between atoms: P_20  and  C_34
    8  A    between atoms: C_33  and  C_34
                            x       y       z     vdW  Elec       q    Type
                         _______ _______ _______ _____ _____    ______ ____

>  <TORSDO>
F 8

$$$$
=
 OpenBabel10252415093D

 34 38  0  0  1  0  0  0  0  0999 V2000
  188.5310  177.3520  136.7260 C   0  0  0  0  0  0  0  0  0  0  0  0
  186.0890  177.4060  136.8690 C   0  0  0  0  0  0  0  0  0  0  0  0
  187.4470  178.0940  138.7640 C   0  0  0  0  0  0  0  0  0  0  0  0
  186.0060  178.8190  140.7600 N   0  0  0  0  0  0  0  0  0  0  0  0
  187.1790  176.6260  134.8470 C   0  0  0  0  0  3  0  0  0  0  0  0
  186.0090  176.9090  135.5650 C   0  0  0  0  0  3  0  0  0  0  0  0
  184.9830  178.2200  138.8070 C   0  0  0  0  0  0  0  0  0  0  0  0
  187.3570  177.6090  137.4530 C   0  0  0  0  0  0  0  0  0  0  0  0
  184.5920  179.1410  140.9500 C   0  0  0  0  0  2  0  0  0  0  0  0
  188.4380  176.8530  135.4230 C   0  0  0  0  0  3  0  0  0  0  0  0
  189.8160  178.1380  138.6110 C   0  0  0  0  0  3  0  0  0  0  0  0
  189.7710  177.6190  137.3110 C   0  0  0  0  0  3  0  0  0  0  0  0
  184.8950  177.7730  137.5870 N   0  0  0  0  0  0  0  0  0  0  0  0
  183.8610  178.7210  139.6510 C   0  0  1  0  0  3  0  0  0  0  0  0
  186.2170  178.3010  139.4790 N   0  0  0  0  0  0  0  0  0  0  0  0
  188.6650  178.3670  139.3050 N   0  0  0  0  0  0  0  0  0  0  0  0
  186.8450  178.5960  141.8990 C   0  0  0  0  0  3  0  0  0  0  0  0
  186.5080  177.7670  142.8850 C   0  0  0  0  0  3  0  0  0  0  0  0
  189.5440  177.4180  146.2690 C   0  0  0  0  0  3  0  0  0  0  0  0
  189.6800  177.1240  144.9760 C   0  0  0  0  0  3  0  0  0  0  0  0
  187.3540  177.5170  144.0620 C   0  0  0  0  0  0  0  0  0  0  0  0
  188.6900  177.4250  143.9220 C   0  0  0  0  0  3  0  0  0  0  0  0
  187.0940  177.4850  146.5510 C   0  0  0  0  0  3  0  0  0  0  0  0
  186.6390  177.2320  145.3240 C   0  0  0  0  0  3  0  0  0  0  0  0
  188.3860  178.1830  146.8130 C   0  0  0  0  0  2  0  0  0  0  0  0
  183.2170  179.9580  139.0410 C   0  0  0  0  0  2  0  0  0  0  0  0
  181.7140  179.7860  138.9000 C   0  0  0  0  0  2  0  0  0  0  0  0
  181.0600  180.4660  139.9280 O   0  0  0  0  0  0  0  0  0  0  0  0
  179.8800  179.7500  140.1320 C   0  0  0  0  0  2  0  0  0  0  0  0
  180.1340  178.5870  141.0770 C   0  0  0  0  0  2  0  0  0  0  0  0
  179.9170  180.6260  142.8650 O   0  0  0  0  0  0  0  0  0  0  0  0
  179.3820  178.2540  143.8260 O   0  0  0  0  0  1  0  0  0  0  0  0
  180.3410  179.1780  142.7850 P   0  0  0  0  0  0  0  0  0  0  0  0
  181.9630  179.0470  143.2470 O   0  0  0  0  0  1  0  0  0  0  0  0
  1 12  2  0  0  0  0
  1  8  1  0  0  0  0
  2  8  1  0  0  0  0
  2 13  1  0  0  0  0
  3 16  1  0  0  0  0
  3 15  1  0  0  0  0
  4  9  1  0  0  0  0
  4 17  1  0  0  0  0
  5 10  2  0  0  0  0
  5  6  1  0  0  0  0
  6  2  2  0  0  0  0
  7 15  1  0  0  0  0
  7 14  1  0  0  0  0
  8  3  2  0  0  0  0
 10  1  1  0  0  0  0
 11 16  2  0  0  0  0
 12 11  1  0  0  0  0
 13  7  2  0  0  0  0
 14 26  1  6  0  0  0
 14  9  1  0  0  0  0
 15  4  1  0  0  0  0
 17 18  2  0  0  0  0
 18 21  1  0  0  0  0
 19 25  1  0  0  0  0
 20 19  2  0  0  0  0
 21 24  1  0  0  0  0
 22 21  2  0  0  0  0
 22 20  1  0  0  0  0
 23 25  1  0  0  0  0
 24 23  2  0  0  0  0
 27 26  1  0  0  0  0
 27 28  1  0  0  0  0
 28 29  1  0  0  0  0
 29 30  1  0  0  0  0
 30 33  1  0  0  0  0
 33 31  2  0  0  0  0
 33 34  1  0  0  0  0
 33 32  1  0  0  0  0
M  END
>  <MODEL>
8

>  <REMARK>
 VINA RESULT:      -7.8      4.000      8.484
  Name = 
  8 active torsions:
  status: ('A' for Active; 'I' for Inactive)
    1  A    between atoms: C_3  and  O_13
    2  A    between atoms: C_3  and  C_17
    3  A    between atoms: N_5  and  C_26
    4  A    between atoms: C_12  and  C_28
    5  A    between atoms: O_13  and  C_33
    6  A    between atoms: C_17  and  C_29
    7  A    between atoms: P_20  and  C_34
    8  A    between atoms: C_33  and  C_34
                            x       y       z     vdW  Elec       q    Type
                         _______ _______ _______ _____ _____    ______ ____

>  <TORSDO>
F 8

$$$$
=
 OpenBabel10252415093D

 34 38  0  0  1  0  0  0  0  0999 V2000
  190.0570  176.9720  146.7960 C   0  0  0  0  0  0  0  0  0  0  0  0
  191.1480  176.1050  144.7840 C   0  0  0  0  0  0  0  0  0  0  0  0
  189.0450  177.3140  144.6190 C   0  0  0  0  0  0  0  0  0  0  0  0
  188.2400  177.5050  142.1900 N   0  0  0  0  0  0  0  0  0  0  0  0
  192.1340  175.7310  146.9690 C   0  0  0  0  0  3  0  0  0  0  0  0
  192.1700  175.5740  145.5760 C   0  0  0  0  0  3  0  0  0  0  0  0
  190.2470  176.5030  142.6230 C   0  0  0  0  0  0  0  0  0  0  0  0
  190.0810  176.7900  145.4030 C   0  0  0  0  0  0  0  0  0  0  0  0
  188.8470  177.2750  140.8790 C   0  0  0  0  0  2  0  0  0  0  0  0
  191.0850  176.4330  147.5780 C   0  0  0  0  0  3  0  0  0  0  0  0
  188.0210  178.2430  146.5500 C   0  0  0  0  0  3  0  0  0  0  0  0
  189.0180  177.7040  147.3730 C   0  0  0  0  0  3  0  0  0  0  0  0
  191.2130  176.0180  143.3480 N   0  0  0  0  0  0  0  0  0  0  0  0
  190.2020  176.5710  141.1350 C   0  0  1  0  0  3  0  0  0  0  0  0
  189.0950  177.0640  143.2050 N   0  0  0  0  0  0  0  0  0  0  0  0
  188.0550  178.0430  145.2020 N   0  0  0  0  0  0  0  0  0  0  0  0
  186.8190  177.6500  142.3010 C   0  0  0  0  0  3  0  0  0  0  0  0
  186.2390  178.8100  142.6010 C   0  0  0  0  0  3  0  0  0  0  0  0
  181.6800  178.7660  142.6830 C   0  0  0  0  0  3  0  0  0  0  0  0
  182.5080  178.7200  141.6400 C   0  0  0  0  0  3  0  0  0  0  0  0
  184.7820  178.9850  142.7150 C   0  0  0  0  0  0  0  0  0  0  0  0
  183.9760  178.5740  141.7190 C   0  0  0  0  0  3  0  0  0  0  0  0
  183.1310  179.6190  144.4860 C   0  0  0  0  0  3  0  0  0  0  0  0
  184.3140  179.7570  143.8850 C   0  0  0  0  0  3  0  0  0  0  0  0
  182.1330  178.5840  144.0920 C   0  0  0  0  0  2  0  0  0  0  0  0
  191.3140  177.4540  140.5850 C   0  0  0  0  0  2  0  0  0  0  0  0
  191.5510  177.1890  139.1080 C   0  0  0  0  0  2  0  0  0  0  0  0
  191.6450  175.8160  138.8800 O   0  0  0  0  0  0  0  0  0  0  0  0
  191.9290  175.7000  137.5190 C   0  0  0  0  0  2  0  0  0  0  0  0
  193.3180  176.2430  137.2300 C   0  0  0  0  0  2  0  0  0  0  0  0
  195.8550  175.4320  136.6730 O   0  0  0  0  0  1  0  0  0  0  0  0
  194.3480  173.6310  137.8240 O   0  0  0  0  0  1  0  0  0  0  0  0
  194.4390  174.9050  136.7160 P   0  0  0  0  0  0  0  0  0  0  0  0
  194.0050  174.3490  135.1790 O   0  0  0  0  0  0  0  0  0  0  0  0
  1 12  1  0  0  0  0
  1 10  2  0  0  0  0
  2  8  2  0  0  0  0
  2  6  1  0  0  0  0
  3 16  2  0  0  0  0
  3  8  1  0  0  0  0
  4 17  1  0  0  0  0
  4 15  1  0  0  0  0
  5 10  1  0  0  0  0
  6  5  2  0  0  0  0
  7 15  1  0  0  0  0
  7 13  2  0  0  0  0
  8  1  1  0  0  0  0
  9 14  1  0  0  0  0
  9  4  1  0  0  0  0
 11 12  2  0  0  0  0
 13  2  1  0  0  0  0
 14 26  1  1  0  0  0
 14  7  1  0  0  0  0
 15  3  1  0  0  0  0
 16 11  1  0  0  0  0
 17 18  2  0  0  0  0
 18 21  1  0  0  0  0
 19 25  1  0  0  0  0
 20 22  1  0  0  0  0
 20 19  2  0  0  0  0
 21 24  1  0  0  0  0
 22 21  2  0  0  0  0
 24 23  2  0  0  0  0
 25 23  1  0  0  0  0
 27 26  1  0  0  0  0
 28 27  1  0  0  0  0
 29 28  1  0  0  0  0
 30 29  1  0  0  0  0
 31 33  1  0  0  0  0
 33 30  1  0  0  0  0
 33 32  1  0  0  0  0
 34 33  2  0  0  0  0
M  END
>  <MODEL>
9

>  <REMARK>
 VINA RESULT:      -7.8      2.204      3.187
  Name = 
  8 active torsions:
  status: ('A' for Active; 'I' for Inactive)
    1  A    between atoms: C_3  and  O_13
    2  A    between atoms: C_3  and  C_17
    3  A    between atoms: N_5  and  C_26
    4  A    between atoms: C_12  and  C_28
    5  A    between atoms: O_13  and  C_33
    6  A    between atoms: C_17  and  C_29
    7  A    between atoms: P_20  and  C_34
    8  A    between atoms: C_33  and  C_34
                            x       y       z     vdW  Elec       q    Type
                         _______ _______ _______ _____ _____    ______ ____

>  <TORSDO>
F 8

$$$$
