=
 OpenBabel10262421453D

 30 31  0  0  1  0  0  0  0  0999 V2000
  182.2410  177.4090  139.7880 O   0  0  0  0  0  0  0  0  0  0  0  0
  180.8580  175.3590  139.6000 C   0  0  2  0  0  3  0  0  0  0  0  0
  183.6660  178.1300  137.2210 C   0  0  0  0  0  2  0  0  0  0  0  0
  183.1680  177.4720  140.8320 C   0  0  0  0  0  2  0  0  0  0  0  0
  185.4100  178.3580  139.0680 C   0  0  0  0  0  2  0  0  0  0  0  0
  187.2230  176.7520  137.5310 N   0  0  0  0  0  2  0  0  0  0  0  0
  184.4040  179.3550  139.6490 C   0  0  0  0  0  2  0  0  0  0  0  0
  183.7600  178.8700  140.9520 C   0  0  2  0  0  3  0  0  0  0  0  0
  184.9940  177.8280  137.7640 N   0  0  0  0  0  0  0  0  0  0  0  0
  180.2120  174.9750  138.2720 C   0  0  0  0  0  2  0  0  0  0  0  0
  179.6830  176.3040  140.6220 S   0  0  0  0  0  1  0  0  0  0  0  0
  183.3940  173.9820  136.3420 C   0  0  0  0  0  1  0  0  0  0  0  0
  181.1190  174.0820  137.4150 C   0  0  0  0  0  2  0  0  0  0  0  0
  182.2290  176.0570  139.4260 C   0  0  1  0  0  3  0  0  0  0  0  0
  182.8300  176.8670  136.9790 C   0  0  1  0  0  3  0  0  0  0  0  0
  185.6590  176.7400  135.8010 O   0  0  0  0  0  0  0  0  0  0  0  0
  182.6170  174.3610  137.5910 C   0  0  2  0  0  3  0  0  0  0  0  0
  182.9350  175.7820  138.0810 C   0  0  2  0  0  3  0  0  0  0  0  0
  185.9460  177.0920  136.9780 C   0  0  0  0  0  0  0  0  0  0  0  0
  188.2380  176.0270  136.7830 C   0  0  0  0  0  2  0  0  0  0  0  0
  189.2870  176.9900  136.2600 C   0  0  0  0  0  1  0  0  0  0  0  0
  184.7570  178.9020  142.0990 C   0  0  0  0  0  2  0  0  0  0  0  0
  183.8460  179.4100  144.0410 C   0  0  0  0  0  1  0  0  0  0  0  0
  184.1940  178.3260  143.2370 O   0  0  0  0  0  0  0  0  0  0  0  0
  181.4170  177.1570  136.4550 C   0  0  1  0  0  3  0  0  0  0  0  0
  179.5790  178.5060  137.5240 C   0  0  0  0  0  1  0  0  0  0  0  0
  180.9080  178.5660  136.7970 C   0  0  2  0  0  3  0  0  0  0  0  0
  180.7840  179.3570  135.6530 O   0  0  0  0  0  1  0  0  0  0  0  0
  181.3270  176.8350  134.9680 C   0  0  0  0  0  2  0  0  0  0  0  0
  179.7290  176.0610  134.5940 S   0  0  0  0  0  1  0  0  0  0  0  0
  1  4  1  0  0  0  0
  2 11  1  6  0  0  0
  3  9  1  0  0  0  0
  4  8  1  0  0  0  0
  5  7  1  0  0  0  0
  7  8  1  0  0  0  0
  8 22  1  1  0  0  0
  9  5  1  0  0  0  0
 10  2  1  0  0  0  0
 13 17  1  0  0  0  0
 13 10  1  0  0  0  0
 14  2  1  0  0  0  0
 14  1  1  6  0  0  0
 15 25  1  1  0  0  0
 15  3  1  0  0  0  0
 15 18  1  0  0  0  0
 16 19  2  0  0  0  0
 17 12  1  6  0  0  0
 17 18  1  0  0  0  0
 18 14  1  0  0  0  0
 19  6  1  0  0  0  0
 19  9  1  0  0  0  0
 20  6  1  0  0  0  0
 21 20  1  0  0  0  0
 22 24  1  0  0  0  0
 24 23  1  0  0  0  0
 25 27  1  0  0  0  0
 27 26  1  0  0  0  0
 28 27  1  0  0  0  0
 29 25  1  0  0  0  0
 30 29  1  0  0  0  0
M  END
>  <MODEL>
1

>  <REMARK>
 VINA RESULT:      -4.1      0.000      0.000
  Name = 
  6 active torsions:
  status: ('A' for Active; 'I' for Inactive)
    1  A    between atoms: N_7  and  C_16
    2  A    between atoms: C_9  and  C_12
    3  A    between atoms: C_9  and  O_21
    4  A    between atoms: C_10  and  C_25
    5  A    between atoms: C_11  and  C_25
    6  A    between atoms: C_23  and  C_25
                            x       y       z     vdW  Elec       q    Type
                         _______ _______ _______ _____ _____    ______ ____

>  <TORSDO>
F 6

$$$$
=
 OpenBabel10262421453D

 30 31  0  0  1  0  0  0  0  0999 V2000
  182.3850  178.5680  141.0400 O   0  0  0  0  0  0  0  0  0  0  0  0
  180.1880  177.4350  140.8470 C   0  0  2  0  0  3  0  0  0  0  0  0
  183.6110  179.2660  138.3660 C   0  0  0  0  0  2  0  0  0  0  0  0
  183.3660  177.9500  141.8200 C   0  0  0  0  0  2  0  0  0  0  0  0
  185.4920  178.2290  139.7410 C   0  0  0  0  0  2  0  0  0  0  0  0
  186.1010  176.4750  137.5530 N   0  0  0  0  0  2  0  0  0  0  0  0
  185.1680  179.3660  140.7130 C   0  0  0  0  0  2  0  0  0  0  0  0
  184.5590  178.8750  142.0300 C   0  0  2  0  0  3  0  0  0  0  0  0
  184.7000  178.2950  138.5070 N   0  0  0  0  0  0  0  0  0  0  0  0
  179.2600  177.7320  139.6720 C   0  0  0  0  0  2  0  0  0  0  0  0
  179.7520  178.4820  142.2730 S   0  0  0  0  0  1  0  0  0  0  0  0
  181.2950  176.0290  136.8800 C   0  0  0  0  0  1  0  0  0  0  0  0
  179.5100  176.8000  138.4780 C   0  0  0  0  0  2  0  0  0  0  0  0
  181.6870  177.5000  140.4650 C   0  0  1  0  0  3  0  0  0  0  0  0
  182.2530  178.5940  138.1230 C   0  0  1  0  0  3  0  0  0  0  0  0
  184.4940  177.5920  136.2840 O   0  0  0  0  0  0  0  0  0  0  0  0
  180.9700  176.3560  138.3270 C   0  0  2  0  0  3  0  0  0  0  0  0
  181.9850  177.3190  138.9610 C   0  0  2  0  0  3  0  0  0  0  0  0
  185.0730  177.4610  137.3970 C   0  0  0  0  0  0  0  0  0  0  0  0
  186.5390  175.6140  136.4650 C   0  0  0  0  0  2  0  0  0  0  0  0
  186.3190  174.1590  136.8320 C   0  0  0  0  0  1  0  0  0  0  0  0
  185.6000  178.1720  142.8850 C   0  0  0  0  0  2  0  0  0  0  0  0
  186.3210  177.7320  144.9220 C   0  0  0  0  0  1  0  0  0  0  0  0
  185.1980  178.1670  144.2200 O   0  0  0  0  0  0  0  0  0  0  0  0
  181.0870  179.5870  138.0180 C   0  0  1  0  0  3  0  0  0  0  0  0
  180.1170  181.1770  139.7130 C   0  0  0  0  0  1  0  0  0  0  0  0
  181.3050  180.8810  138.8170 C   0  0  2  0  0  3  0  0  0  0  0  0
  181.5410  181.9690  137.9750 O   0  0  0  0  0  1  0  0  0  0  0  0
  180.7360  179.8400  136.5580 C   0  0  0  0  0  2  0  0  0  0  0  0
  178.9350  179.7910  136.3330 S   0  0  0  0  0  1  0  0  0  0  0  0
  1  4  1  0  0  0  0
  2 11  1  1  0  0  0
  3  9  1  0  0  0  0
  4  8  1  0  0  0  0
  5  7  1  0  0  0  0
  7  8  1  0  0  0  0
  8 22  1  6  0  0  0
  9  5  1  0  0  0  0
 10  2  1  0  0  0  0
 13 10  1  0  0  0  0
 14  2  1  0  0  0  0
 14  1  1  6  0  0  0
 15 25  1  1  0  0  0
 15  3  1  0  0  0  0
 15 18  1  0  0  0  0
 16 19  2  0  0  0  0
 17 12  1  6  0  0  0
 17 13  1  0  0  0  0
 17 18  1  0  0  0  0
 18 14  1  0  0  0  0
 19  6  1  0  0  0  0
 19  9  1  0  0  0  0
 20 21  1  0  0  0  0
 20  6  1  0  0  0  0
 22 24  1  0  0  0  0
 24 23  1  0  0  0  0
 25 27  1  0  0  0  0
 27 26  1  0  0  0  0
 28 27  1  0  0  0  0
 29 25  1  0  0  0  0
 30 29  1  0  0  0  0
M  END
>  <MODEL>
2

>  <REMARK>
 VINA RESULT:      -4.1      2.069      2.493
  Name = 
  6 active torsions:
  status: ('A' for Active; 'I' for Inactive)
    1  A    between atoms: N_7  and  C_16
    2  A    between atoms: C_9  and  C_12
    3  A    between atoms: C_9  and  O_21
    4  A    between atoms: C_10  and  C_25
    5  A    between atoms: C_11  and  C_25
    6  A    between atoms: C_23  and  C_25
                            x       y       z     vdW  Elec       q    Type
                         _______ _______ _______ _____ _____    ______ ____

>  <TORSDO>
F 6

$$$$
=
 OpenBabel10262421453D

 30 31  0  0  1  0  0  0  0  0999 V2000
  180.1620  178.7650  136.7640 O   0  0  0  0  0  0  0  0  0  0  0  0
  179.0580  176.5970  136.2840 C   0  0  2  0  0  3  0  0  0  0  0  0
  182.5240  178.5180  138.6340 C   0  0  0  0  0  2  0  0  0  0  0  0
  179.3580  179.8160  137.2160 C   0  0  0  0  0  2  0  0  0  0  0  0
  181.1720  180.5050  139.4860 C   0  0  0  0  0  2  0  0  0  0  0  0
  181.2360  179.3930  142.1300 N   0  0  0  0  0  2  0  0  0  0  0  0
  181.4130  181.0470  138.0740 C   0  0  0  0  0  2  0  0  0  0  0  0
  180.1340  181.1270  137.2350 C   0  0  2  0  0  3  0  0  0  0  0  0
  181.8520  179.2270  139.7270 N   0  0  0  0  0  0  0  0  0  0  0  0
  179.8600  175.2990  136.2810 C   0  0  0  0  0  2  0  0  0  0  0  0
  178.9340  177.2660  134.5940 S   0  0  0  0  0  1  0  0  0  0  0  0
  180.5540  175.0340  140.0600 C   0  0  0  0  0  1  0  0  0  0  0  0
  179.9020  174.6320  137.6630 C   0  0  0  0  0  2  0  0  0  0  0  0
  179.5740  177.6250  137.3220 C   0  0  1  0  0  3  0  0  0  0  0  0
  181.9400  177.1200  138.3940 C   0  0  1  0  0  3  0  0  0  0  0  0
  182.6290  177.7030  141.3250 O   0  0  0  0  0  0  0  0  0  0  0  0
  179.8750  175.6220  138.8350 C   0  0  2  0  0  3  0  0  0  0  0  0
  180.3950  177.0230  138.4820 C   0  0  2  0  0  3  0  0  0  0  0  0
  181.9380  178.7290  141.0720 C   0  0  0  0  0  0  0  0  0  0  0  0
  181.2980  178.9530  143.5150 C   0  0  0  0  0  2  0  0  0  0  0  0
  179.9290  178.4890  143.9750 C   0  0  0  0  0  1  0  0  0  0  0  0
  179.2280  182.2440  137.7250 C   0  0  0  0  0  2  0  0  0  0  0  0
  179.5690  184.4210  137.8190 C   0  0  0  0  0  1  0  0  0  0  0  0
  179.3820  183.3720  136.9200 O   0  0  0  0  0  0  0  0  0  0  0  0
  182.5940  176.3730  137.2240 C   0  0  1  0  0  3  0  0  0  0  0  0
  182.6930  177.0790  134.8080 C   0  0  0  0  0  1  0  0  0  0  0  0
  183.2630  177.2990  136.1960 C   0  0  2  0  0  3  0  0  0  0  0  0
  184.6480  177.1200  136.1710 O   0  0  0  0  0  1  0  0  0  0  0  0
  183.5270  175.2870  137.7440 C   0  0  0  0  0  2  0  0  0  0  0  0
  183.4170  173.8140  136.6890 S   0  0  0  0  0  1  0  0  0  0  0  0
  1  4  1  0  0  0  0
  2 11  1  6  0  0  0
  2 14  1  0  0  0  0
  3  9  1  0  0  0  0
  4  8  1  0  0  0  0
  5  9  1  0  0  0  0
  6 20  1  0  0  0  0
  7  5  1  0  0  0  0
  8 22  1  1  0  0  0
  8  7  1  0  0  0  0
  9 19  1  0  0  0  0
 10  2  1  0  0  0  0
 10 13  1  0  0  0  0
 13 17  1  0  0  0  0
 14  1  1  6  0  0  0
 14 18  1  0  0  0  0
 15 25  1  6  0  0  0
 15 18  1  0  0  0  0
 15  3  1  0  0  0  0
 17 12  1  1  0  0  0
 18 17  1  0  0  0  0
 19 16  2  0  0  0  0
 19  6  1  0  0  0  0
 20 21  1  0  0  0  0
 24 22  1  0  0  0  0
 24 23  1  0  0  0  0
 25 29  1  0  0  0  0
 26 27  1  0  0  0  0
 27 25  1  0  0  0  0
 28 27  1  0  0  0  0
 30 29  1  0  0  0  0
M  END
>  <MODEL>
3

>  <REMARK>
 VINA RESULT:      -3.6      2.778      5.672
  Name = 
  6 active torsions:
  status: ('A' for Active; 'I' for Inactive)
    1  A    between atoms: N_7  and  C_16
    2  A    between atoms: C_9  and  C_12
    3  A    between atoms: C_9  and  O_21
    4  A    between atoms: C_10  and  C_25
    5  A    between atoms: C_11  and  C_25
    6  A    between atoms: C_23  and  C_25
                            x       y       z     vdW  Elec       q    Type
                         _______ _______ _______ _____ _____    ______ ____

>  <TORSDO>
F 6

$$$$
=
 OpenBabel10262421453D

 30 31  0  0  1  0  0  0  0  0999 V2000
  183.6770  177.8030  138.2270 O   0  0  0  0  0  0  0  0  0  0  0  0
  183.2230  177.9180  140.6620 C   0  0  2  0  0  3  0  0  0  0  0  0
  181.1720  177.8840  136.5370 C   0  0  0  0  0  2  0  0  0  0  0  0
  184.4780  176.7540  137.7660 C   0  0  0  0  0  2  0  0  0  0  0  0
  182.6000  176.0070  135.5680 C   0  0  0  0  0  2  0  0  0  0  0  0
  180.3320  174.2540  135.6680 N   0  0  0  0  0  2  0  0  0  0  0  0
  183.6330  177.1230  135.3950 C   0  0  0  0  0  2  0  0  0  0  0  0
  184.8550  176.9580  136.3040 C   0  0  2  0  0  3  0  0  0  0  0  0
  181.3180  176.4970  136.0880 N   0  0  0  0  0  0  0  0  0  0  0  0
  182.0070  178.6730  141.1920 C   0  0  0  0  0  2  0  0  0  0  0  0
  184.6910  178.9960  140.6790 S   0  0  0  0  0  1  0  0  0  0  0  0
  179.2530  176.2750  139.9690 C   0  0  0  0  0  1  0  0  0  0  0  0
  180.7650  177.7790  141.3050 C   0  0  0  0  0  2  0  0  0  0  0  0
  182.9650  177.2420  139.2930 C   0  0  1  0  0  3  0  0  0  0  0  0
  180.7710  177.9840  138.0140 C   0  0  1  0  0  3  0  0  0  0  0  0
  179.0360  176.0610  136.3720 O   0  0  0  0  0  0  0  0  0  0  0  0
  180.6930  176.6730  140.2450 C   0  0  2  0  0  3  0  0  0  0  0  0
  181.4790  176.9840  138.9630 C   0  0  2  0  0  3  0  0  0  0  0  0
  180.1770  175.6240  136.0550 C   0  0  0  0  0  0  0  0  0  0  0  0
  179.2150  173.3240  135.5940 C   0  0  0  0  0  2  0  0  0  0  0  0
  179.2860  172.3340  136.7410 C   0  0  0  0  0  1  0  0  0  0  0  0
  185.7290  175.8040  135.8410 C   0  0  0  0  0  2  0  0  0  0  0  0
  187.1780  174.3760  136.6910 C   0  0  0  0  0  1  0  0  0  0  0  0
  185.8920  174.8830  136.8750 O   0  0  0  0  0  0  0  0  0  0  0  0
  180.6570  179.4280  138.5240 C   0  0  1  0  0  3  0  0  0  0  0  0
  182.3260  181.3090  138.6550 C   0  0  0  0  0  1  0  0  0  0  0  0
  181.5060  180.4320  137.7290 C   0  0  2  0  0  3  0  0  0  0  0  0
  180.7130  181.2310  136.9030 O   0  0  0  0  0  1  0  0  0  0  0  0
  179.1940  179.8380  138.6320 C   0  0  0  0  0  2  0  0  0  0  0  0
  178.9410  180.8620  140.1080 S   0  0  0  0  0  1  0  0  0  0  0  0
  2 11  1  6  0  0  0
  2 10  1  0  0  0  0
  3 15  1  0  0  0  0
  4  1  1  0  0  0  0
  5  9  1  0  0  0  0
  6 19  1  0  0  0  0
  7  5  1  0  0  0  0
  7  8  1  0  0  0  0
  8 22  1  6  0  0  0
  8  4  1  0  0  0  0
  9  3  1  0  0  0  0
 10 13  1  0  0  0  0
 14  1  1  6  0  0  0
 14  2  1  0  0  0  0
 15 25  1  1  0  0  0
 15 18  1  0  0  0  0
 17 12  1  6  0  0  0
 17 13  1  0  0  0  0
 18 14  1  0  0  0  0
 18 17  1  0  0  0  0
 19  9  1  0  0  0  0
 19 16  2  0  0  0  0
 20  6  1  0  0  0  0
 20 21  1  0  0  0  0
 22 24  1  0  0  0  0
 23 24  1  0  0  0  0
 25 29  1  0  0  0  0
 27 25  1  0  0  0  0
 27 26  1  0  0  0  0
 28 27  1  0  0  0  0
 29 30  1  0  0  0  0
M  END
>  <MODEL>
4

>  <REMARK>
 VINA RESULT:      -3.5      2.930      5.611
  Name = 
  6 active torsions:
  status: ('A' for Active; 'I' for Inactive)
    1  A    between atoms: N_7  and  C_16
    2  A    between atoms: C_9  and  C_12
    3  A    between atoms: C_9  and  O_21
    4  A    between atoms: C_10  and  C_25
    5  A    between atoms: C_11  and  C_25
    6  A    between atoms: C_23  and  C_25
                            x       y       z     vdW  Elec       q    Type
                         _______ _______ _______ _____ _____    ______ ____

>  <TORSDO>
F 6

$$$$
=
 OpenBabel10262421453D

 30 31  0  0  1  0  0  0  0  0999 V2000
  183.1070  176.9630  138.7220 O   0  0  0  0  0  0  0  0  0  0  0  0
  183.8340  176.4140  136.4160 C   0  0  2  0  0  3  0  0  0  0  0  0
  180.2240  177.8570  138.8870 C   0  0  0  0  0  2  0  0  0  0  0  0
  183.8840  177.8690  139.4490 C   0  0  0  0  0  2  0  0  0  0  0  0
  181.5430  179.5130  140.3070 C   0  0  0  0  0  2  0  0  0  0  0  0
  180.2740  181.6830  138.9250 N   0  0  0  0  0  2  0  0  0  0  0  0
  181.9610  178.2530  141.0700 C   0  0  0  0  0  2  0  0  0  0  0  0
  183.4460  177.9170  140.9070 C   0  0  2  0  0  3  0  0  0  0  0  0
  180.5730  179.2350  139.2410 N   0  0  0  0  0  0  0  0  0  0  0  0
  182.8400  175.8680  135.3950 C   0  0  0  0  0  2  0  0  0  0  0  0
  184.7110  175.0450  137.2370 S   0  0  0  0  0  1  0  0  0  0  0  0
  180.7560  179.0590  134.8470 C   0  0  0  0  0  1  0  0  0  0  0  0
  182.1510  176.9800  134.5930 C   0  0  0  0  0  2  0  0  0  0  0  0
  183.1960  177.4220  137.4030 C   0  0  1  0  0  3  0  0  0  0  0  0
  180.5510  177.5250  137.4250 C   0  0  1  0  0  3  0  0  0  0  0  0
  178.9620  180.1220  137.7930 O   0  0  0  0  0  0  0  0  0  0  0  0
  181.9460  178.2820  135.3800 C   0  0  2  0  0  3  0  0  0  0  0  0
  181.8970  178.0900  136.9030 C   0  0  2  0  0  3  0  0  0  0  0  0
  179.8930  180.3370  138.6170 C   0  0  0  0  0  0  0  0  0  0  0  0
  179.6130  182.8420  138.3440 C   0  0  0  0  0  2  0  0  0  0  0  0
  180.5710  183.5840  137.4310 C   0  0  0  0  0  1  0  0  0  0  0  0
  184.3160  178.9060  141.6650 C   0  0  0  0  0  2  0  0  0  0  0  0
  186.5100  178.9840  141.4590 C   0  0  0  0  0  1  0  0  0  0  0  0
  185.3290  179.3850  140.8360 O   0  0  0  0  0  0  0  0  0  0  0  0
  180.2380  176.0720  137.0390 C   0  0  1  0  0  3  0  0  0  0  0  0
  181.0900  173.8550  137.8770 C   0  0  0  0  0  1  0  0  0  0  0  0
  180.2880  175.0950  138.2240 C   0  0  2  0  0  3  0  0  0  0  0  0
  179.0060  174.7260  138.6370 O   0  0  0  0  0  1  0  0  0  0  0  0
  178.9310  176.0010  136.2620 C   0  0  0  0  0  2  0  0  0  0  0  0
  179.1370  174.9580  134.7910 S   0  0  0  0  0  1  0  0  0  0  0  0
  1  4  1  0  0  0  0
  2 11  1  1  0  0  0
  2 14  1  0  0  0  0
  3  9  1  0  0  0  0
  4  8  1  0  0  0  0
  5  7  1  0  0  0  0
  8  7  1  0  0  0  0
  8 22  1  1  0  0  0
  9  5  1  0  0  0  0
 10  2  1  0  0  0  0
 13 17  1  0  0  0  0
 13 10  1  0  0  0  0
 14  1  1  1  0  0  0
 15 25  1  1  0  0  0
 15  3  1  0  0  0  0
 16 19  2  0  0  0  0
 17 12  1  6  0  0  0
 17 18  1  0  0  0  0
 18 14  1  0  0  0  0
 18 15  1  0  0  0  0
 19  6  1  0  0  0  0
 19  9  1  0  0  0  0
 20  6  1  0  0  0  0
 21 20  1  0  0  0  0
 24 23  1  0  0  0  0
 24 22  1  0  0  0  0
 25 27  1  0  0  0  0
 26 27  1  0  0  0  0
 27 28  1  0  0  0  0
 29 25  1  0  0  0  0
 30 29  1  0  0  0  0
M  END
>  <MODEL>
5

>  <REMARK>
 VINA RESULT:      -3.4      2.842      5.083
  Name = 
  6 active torsions:
  status: ('A' for Active; 'I' for Inactive)
    1  A    between atoms: N_7  and  C_16
    2  A    between atoms: C_9  and  C_12
    3  A    between atoms: C_9  and  O_21
    4  A    between atoms: C_10  and  C_25
    5  A    between atoms: C_11  and  C_25
    6  A    between atoms: C_23  and  C_25
                            x       y       z     vdW  Elec       q    Type
                         _______ _______ _______ _____ _____    ______ ____

>  <TORSDO>
F 6

$$$$
=
 OpenBabel10262421453D

 30 31  0  0  1  0  0  0  0  0999 V2000
  182.1000  173.3250  136.0980 O   0  0  0  0  0  0  0  0  0  0  0  0
  180.2840  174.2420  134.6790 C   0  0  2  0  0  3  0  0  0  0  0  0
  183.0510  175.2570  138.2200 C   0  0  0  0  0  2  0  0  0  0  0  0
  183.2240  172.8010  135.4530 C   0  0  0  0  0  2  0  0  0  0  0  0
  185.1630  174.2920  137.1660 C   0  0  0  0  0  2  0  0  0  0  0  0
  186.1850  176.9500  136.8210 N   0  0  0  0  0  2  0  0  0  0  0  0
  184.5610  172.9560  137.6120 C   0  0  0  0  0  2  0  0  0  0  0  0
  184.1280  172.0720  136.4400 C   0  0  2  0  0  3  0  0  0  0  0  0
  184.3630  175.4450  137.5930 N   0  0  0  0  0  0  0  0  0  0  0  0
  179.2930  175.2550  135.2430 C   0  0  0  0  0  2  0  0  0  0  0  0
  179.6070  172.5560  134.8120 S   0  0  0  0  0  1  0  0  0  0  0  0
  181.6650  178.2720  135.5680 C   0  0  0  0  0  1  0  0  0  0  0  0
  179.7640  176.7040  135.0550 C   0  0  0  0  0  2  0  0  0  0  0  0
  181.7050  174.3890  135.2770 C   0  0  1  0  0  3  0  0  0  0  0  0
  181.9200  175.9200  137.4250 C   0  0  1  0  0  3  0  0  0  0  0  0
  184.3170  177.7570  137.9610 O   0  0  0  0  0  0  0  0  0  0  0  0
  181.2880  176.8760  135.1030 C   0  0  2  0  0  3  0  0  0  0  0  0
  182.0170  175.7730  135.8850 C   0  0  2  0  0  3  0  0  0  0  0  0
  184.9280  176.7620  137.4820 C   0  0  0  0  0  0  0  0  0  0  0  0
  186.8200  178.2530  136.6910 C   0  0  0  0  0  2  0  0  0  0  0  0
  188.1340  178.2680  137.4490 C   0  0  0  0  0  1  0  0  0  0  0  0
  185.3330  171.5100  135.7030 C   0  0  0  0  0  2  0  0  0  0  0  0
  186.3490  169.6970  134.9690 C   0  0  0  0  0  1  0  0  0  0  0  0
  185.0980  170.1840  135.3430 O   0  0  0  0  0  0  0  0  0  0  0  0
  180.5280  175.6980  138.0340 C   0  0  1  0  0  3  0  0  0  0  0  0
  179.6750  173.3780  138.5120 C   0  0  0  0  0  1  0  0  0  0  0  0
  180.4760  174.5480  139.0510 C   0  0  2  0  0  3  0  0  0  0  0  0
  179.9370  174.9660  140.2700 O   0  0  0  0  0  1  0  0  0  0  0  0
  179.9760  177.0070  138.5850 C   0  0  0  0  0  2  0  0  0  0  0  0
  181.3020  177.9530  139.3860 S   0  0  0  0  0  1  0  0  0  0  0  0
  2 11  1  1  0  0  0
  2 10  1  0  0  0  0
  2 14  1  0  0  0  0
  4  1  1  0  0  0  0
  4  8  1  0  0  0  0
  5  9  1  0  0  0  0
  5  7  1  0  0  0  0
  6 19  1  0  0  0  0
  8 22  1  6  0  0  0
  8  7  1  0  0  0  0
  9  3  1  0  0  0  0
 13 17  1  0  0  0  0
 13 10  1  0  0  0  0
 14 18  1  0  0  0  0
 14  1  1  1  0  0  0
 15 25  1  1  0  0  0
 15  3  1  0  0  0  0
 17 12  1  1  0  0  0
 17 18  1  0  0  0  0
 18 15  1  0  0  0  0
 19  9  1  0  0  0  0
 19 16  2  0  0  0  0
 20  6  1  0  0  0  0
 20 21  1  0  0  0  0
 23 24  1  0  0  0  0
 24 22  1  0  0  0  0
 25 29  1  0  0  0  0
 25 27  1  0  0  0  0
 26 27  1  0  0  0  0
 27 28  1  0  0  0  0
 29 30  1  0  0  0  0
M  END
>  <MODEL>
6

>  <REMARK>
 VINA RESULT:      -3.2      2.869      5.658
  Name = 
  6 active torsions:
  status: ('A' for Active; 'I' for Inactive)
    1  A    between atoms: N_7  and  C_16
    2  A    between atoms: C_9  and  C_12
    3  A    between atoms: C_9  and  O_21
    4  A    between atoms: C_10  and  C_25
    5  A    between atoms: C_11  and  C_25
    6  A    between atoms: C_23  and  C_25
                            x       y       z     vdW  Elec       q    Type
                         _______ _______ _______ _____ _____    ______ ____

>  <TORSDO>
F 6

$$$$
=
 OpenBabel10262421453D

 30 31  0  0  1  0  0  0  0  0999 V2000
  181.9130  173.8030  135.8320 O   0  0  0  0  0  0  0  0  0  0  0  0
  181.1380  175.8520  134.6710 C   0  0  2  0  0  3  0  0  0  0  0  0
  184.3930  174.2410  137.5040 C   0  0  0  0  0  2  0  0  0  0  0  0
  182.1070  172.6550  135.0600 C   0  0  0  0  0  2  0  0  0  0  0  0
  184.8070  172.0870  136.2040 C   0  0  0  0  0  2  0  0  0  0  0  0
  187.3570  173.1010  135.3690 N   0  0  0  0  0  2  0  0  0  0  0  0
  183.5260  171.6270  136.9060 C   0  0  0  0  0  2  0  0  0  0  0  0
  182.3490  171.4370  135.9430 C   0  0  2  0  0  3  0  0  0  0  0  0
  185.2390  173.4220  136.6320 N   0  0  0  0  0  0  0  0  0  0  0  0
  181.3730  177.2300  135.2830 C   0  0  0  0  0  2  0  0  0  0  0  0
  179.4840  175.2360  135.1210 S   0  0  0  0  0  1  0  0  0  0  0  0
  185.1900  177.4310  134.8150 C   0  0  0  0  0  1  0  0  0  0  0  0
  182.7080  177.8470  134.8440 C   0  0  0  0  0  2  0  0  0  0  0  0
  182.2780  174.8510  134.9790 C   0  0  1  0  0  3  0  0  0  0  0  0
  183.9970  175.5740  136.8560 C   0  0  1  0  0  3  0  0  0  0  0  0
  186.9990  174.9630  136.7280 O   0  0  0  0  0  0  0  0  0  0  0  0
  183.8190  176.8180  134.5940 C   0  0  2  0  0  3  0  0  0  0  0  0
  183.6290  175.4960  135.3530 C   0  0  2  0  0  3  0  0  0  0  0  0
  186.5530  173.8770  136.2650 C   0  0  0  0  0  0  0  0  0  0  0  0
  188.7010  173.4950  134.9740 C   0  0  0  0  0  2  0  0  0  0  0  0
  189.7150  172.9340  135.9520 C   0  0  0  0  0  1  0  0  0  0  0  0
  182.5490  170.2090  135.0710 C   0  0  0  0  0  2  0  0  0  0  0  0
  180.4780  169.8010  135.7080 C   0  0  0  0  0  1  0  0  0  0  0  0
  181.3200  169.7530  134.5980 O   0  0  0  0  0  0  0  0  0  0  0  0
  183.0710  176.4310  137.7310 C   0  0  1  0  0  3  0  0  0  0  0  0
  180.8160  175.7480  138.6190 C   0  0  0  0  0  1  0  0  0  0  0  0
  182.3160  175.6290  138.8030 C   0  0  2  0  0  3  0  0  0  0  0  0
  182.6680  176.0390  140.0900 O   0  0  0  0  0  1  0  0  0  0  0  0
  183.8330  177.6200  138.3020 C   0  0  0  0  0  2  0  0  0  0  0  0
  182.7270  179.0510  138.4580 S   0  0  0  0  0  1  0  0  0  0  0  0
  2 14  1  0  0  0  0
  2 11  1  1  0  0  0
  2 10  1  0  0  0  0
  4  1  1  0  0  0  0
  4  8  1  0  0  0  0
  5  9  1  0  0  0  0
  5  7  1  0  0  0  0
  6 19  1  0  0  0  0
  8 22  1  6  0  0  0
  8  7  1  0  0  0  0
  9  3  1  0  0  0  0
 13 10  1  0  0  0  0
 14 18  1  0  0  0  0
 14  1  1  1  0  0  0
 15  3  1  0  0  0  0
 15 25  1  1  0  0  0
 17 12  1  1  0  0  0
 17 13  1  0  0  0  0
 17 18  1  0  0  0  0
 18 15  1  0  0  0  0
 19  9  1  0  0  0  0
 19 16  2  0  0  0  0
 20  6  1  0  0  0  0
 20 21  1  0  0  0  0
 24 22  1  0  0  0  0
 24 23  1  0  0  0  0
 25 29  1  0  0  0  0
 25 27  1  0  0  0  0
 26 27  1  0  0  0  0
 27 28  1  0  0  0  0
 29 30  1  0  0  0  0
M  END
>  <MODEL>
7

>  <REMARK>
 VINA RESULT:      -2.9      3.058      6.105
  Name = 
  6 active torsions:
  status: ('A' for Active; 'I' for Inactive)
    1  A    between atoms: N_7  and  C_16
    2  A    between atoms: C_9  and  C_12
    3  A    between atoms: C_9  and  O_21
    4  A    between atoms: C_10  and  C_25
    5  A    between atoms: C_11  and  C_25
    6  A    between atoms: C_23  and  C_25
                            x       y       z     vdW  Elec       q    Type
                         _______ _______ _______ _____ _____    ______ ____

>  <TORSDO>
F 6

$$$$
=
 OpenBabel10262421453D

 30 31  0  0  1  0  0  0  0  0999 V2000
  181.9120  177.3260  136.4030 O   0  0  0  0  0  0  0  0  0  0  0  0
  180.2530  179.1310  136.0290 C   0  0  2  0  0  3  0  0  0  0  0  0
  182.2770  176.6230  139.3210 C   0  0  0  0  0  2  0  0  0  0  0  0
  183.1780  177.4810  135.8320 C   0  0  0  0  0  2  0  0  0  0  0  0
  184.6290  176.7970  138.3510 C   0  0  0  0  0  2  0  0  0  0  0  0
  185.3750  178.5260  140.5160 N   0  0  0  0  0  2  0  0  0  0  0  0
  184.1240  175.7120  137.3970 C   0  0  0  0  0  2  0  0  0  0  0  0
  183.9900  176.1980  135.9510 C   0  0  2  0  0  3  0  0  0  0  0  0
  183.6410  177.1570  139.3750 N   0  0  0  0  0  0  0  0  0  0  0  0
  179.0720  179.3120  136.9780 C   0  0  0  0  0  2  0  0  0  0  0  0
  179.7650  178.1080  134.6030 S   0  0  0  0  0  1  0  0  0  0  0  0
  180.9910  180.6050  140.0560 C   0  0  0  0  0  1  0  0  0  0  0  0
  179.3940  180.2590  138.1420 C   0  0  0  0  0  2  0  0  0  0  0  0
  181.5320  178.6300  136.7430 C   0  0  1  0  0  3  0  0  0  0  0  0
  181.2180  177.7280  139.2120 C   0  0  1  0  0  3  0  0  0  0  0  0
  183.2660  178.1740  141.4500 O   0  0  0  0  0  0  0  0  0  0  0  0
  180.8600  180.2160  138.5940 C   0  0  2  0  0  3  0  0  0  0  0  0
  181.5780  178.8990  138.2630 C   0  0  2  0  0  3  0  0  0  0  0  0
  184.0590  177.9610  140.4910 C   0  0  0  0  0  0  0  0  0  0  0  0
  185.8660  179.3310  141.6240 C   0  0  0  0  0  2  0  0  0  0  0  0
  186.2250  178.4390  142.7970 C   0  0  0  0  0  1  0  0  0  0  0  0
  185.3550  176.4020  135.3150 C   0  0  0  0  0  2  0  0  0  0  0  0
  186.9930  177.8780  135.3270 C   0  0  0  0  0  1  0  0  0  0  0  0
  185.6140  177.7630  135.1630 O   0  0  0  0  0  0  0  0  0  0  0  0
  179.7820  177.1950  139.1050 C   0  0  1  0  0  3  0  0  0  0  0  0
  179.0760  175.4890  137.3920 C   0  0  0  0  0  1  0  0  0  0  0  0
  179.7030  175.7000  138.7570 C   0  0  2  0  0  3  0  0  0  0  0  0
  178.9850  174.9880  139.7200 O   0  0  0  0  0  1  0  0  0  0  0  0
  178.9880  177.5590  140.3530 C   0  0  0  0  0  2  0  0  0  0  0  0
  180.0840  177.5930  141.8000 S   0  0  0  0  0  1  0  0  0  0  0  0
  2 11  1  6  0  0  0
  2 14  1  0  0  0  0
  2 10  1  0  0  0  0
  3  9  1  0  0  0  0
  4  8  1  0  0  0  0
  4  1  1  0  0  0  0
  5  9  1  0  0  0  0
  6 20  1  0  0  0  0
  7  5  1  0  0  0  0
  8 22  1  1  0  0  0
  8  7  1  0  0  0  0
  9 19  1  0  0  0  0
 10 13  1  0  0  0  0
 13 17  1  0  0  0  0
 14  1  1  1  0  0  0
 14 18  1  0  0  0  0
 15 25  1  6  0  0  0
 15  3  1  0  0  0  0
 17 12  1  1  0  0  0
 18 17  1  0  0  0  0
 18 15  1  0  0  0  0
 19  6  1  0  0  0  0
 19 16  2  0  0  0  0
 20 21  1  0  0  0  0
 24 22  1  0  0  0  0
 24 23  1  0  0  0  0
 25 29  1  0  0  0  0
 26 27  1  0  0  0  0
 27 25  1  0  0  0  0
 27 28  1  0  0  0  0
 29 30  1  0  0  0  0
M  END
>  <MODEL>
8

>  <REMARK>
 VINA RESULT:      -2.5      1.994      5.495
  Name = 
  6 active torsions:
  status: ('A' for Active; 'I' for Inactive)
    1  A    between atoms: N_7  and  C_16
    2  A    between atoms: C_9  and  C_12
    3  A    between atoms: C_9  and  O_21
    4  A    between atoms: C_10  and  C_25
    5  A    between atoms: C_11  and  C_25
    6  A    between atoms: C_23  and  C_25
                            x       y       z     vdW  Elec       q    Type
                         _______ _______ _______ _____ _____    ______ ____

>  <TORSDO>
F 6

$$$$
=
 OpenBabel10262421453D

 30 31  0  0  1  0  0  0  0  0999 V2000
  181.0250  176.9140  139.1870 O   0  0  0  0  0  0  0  0  0  0  0  0
  180.8240  174.4910  138.7000 C   0  0  2  0  0  3  0  0  0  0  0  0
  183.0690  178.3160  137.4560 C   0  0  0  0  0  2  0  0  0  0  0  0
  181.2480  177.2920  140.5140 C   0  0  0  0  0  2  0  0  0  0  0  0
  183.4980  179.1340  139.8330 C   0  0  0  0  0  2  0  0  0  0  0  0
  186.2830  178.5220  139.5220 N   0  0  0  0  0  2  0  0  0  0  0  0
  182.0380  179.5870  139.7500 C   0  0  0  0  0  2  0  0  0  0  0  0
  181.1110  178.8000  140.6820 C   0  0  2  0  0  3  0  0  0  0  0  0
  183.9860  178.5600  138.5730 N   0  0  0  0  0  0  0  0  0  0  0  0
  181.0830  173.9550  137.2950 C   0  0  0  0  0  2  0  0  0  0  0  0
  179.0440  174.7990  138.9390 S   0  0  0  0  0  1  0  0  0  0  0  0
  184.8940  174.4910  137.1610 C   0  0  0  0  0  1  0  0  0  0  0  0
  182.5520  173.5730  137.0750 C   0  0  0  0  0  2  0  0  0  0  0  0
  181.7170  175.7040  139.0590 C   0  0  1  0  0  3  0  0  0  0  0  0
  183.0160  176.8380  137.0520 C   0  0  1  0  0  3  0  0  0  0  0  0
  185.8560  177.9680  137.2970 O   0  0  0  0  0  0  0  0  0  0  0  0
  183.5470  174.4370  137.8610 C   0  0  2  0  0  3  0  0  0  0  0  0
  183.0110  175.8290  138.2280 C   0  0  2  0  0  3  0  0  0  0  0  0
  185.3960  178.3350  138.4130 C   0  0  0  0  0  0  0  0  0  0  0  0
  187.7220  178.3300  139.4210 C   0  0  0  0  0  2  0  0  0  0  0  0
  188.3220  178.1520  140.8030 C   0  0  0  0  0  1  0  0  0  0  0  0
  181.3530  179.1730  142.1350 C   0  0  0  0  0  2  0  0  0  0  0  0
  179.6010  180.4800  142.4240 C   0  0  0  0  0  1  0  0  0  0  0  0
  180.1390  179.2550  142.8160 O   0  0  0  0  0  0  0  0  0  0  0  0
  182.0270  176.5460  135.9140 C   0  0  1  0  0  3  0  0  0  0  0  0
  181.5260  179.0140  135.9300 C   0  0  0  0  0  1  0  0  0  0  0  0
  180.9460  177.6250  135.7440 C   0  0  2  0  0  3  0  0  0  0  0  0
  179.8870  177.4340  136.6340 O   0  0  0  0  0  1  0  0  0  0  0  0
  182.7780  176.2460  134.6230 C   0  0  0  0  0  2  0  0  0  0  0  0
  184.3520  177.1490  134.5950 S   0  0  0  0  0  1  0  0  0  0  0  0
  1  4  1  0  0  0  0
  2 11  1  6  0  0  0
  2 14  1  0  0  0  0
  3  9  1  0  0  0  0
  4  8  1  0  0  0  0
  7  5  1  0  0  0  0
  7  8  1  0  0  0  0
  8 22  1  1  0  0  0
  9  5  1  0  0  0  0
 10  2  1  0  0  0  0
 13 10  1  0  0  0  0
 13 17  1  0  0  0  0
 14  1  1  6  0  0  0
 15 25  1  1  0  0  0
 15  3  1  0  0  0  0
 15 18  1  0  0  0  0
 16 19  2  0  0  0  0
 17 12  1  6  0  0  0
 17 18  1  0  0  0  0
 18 14  1  0  0  0  0
 19  9  1  0  0  0  0
 19  6  1  0  0  0  0
 20  6  1  0  0  0  0
 20 21  1  0  0  0  0
 22 24  1  0  0  0  0
 23 24  1  0  0  0  0
 27 25  1  0  0  0  0
 27 26  1  0  0  0  0
 27 28  1  0  0  0  0
 29 25  1  0  0  0  0
 30 29  1  0  0  0  0
M  END
>  <MODEL>
9

>  <REMARK>
 VINA RESULT:      -2.2      2.150      2.486
  Name = 
  6 active torsions:
  status: ('A' for Active; 'I' for Inactive)
    1  A    between atoms: N_7  and  C_16
    2  A    between atoms: C_9  and  C_12
    3  A    between atoms: C_9  and  O_21
    4  A    between atoms: C_10  and  C_25
    5  A    between atoms: C_11  and  C_25
    6  A    between atoms: C_23  and  C_25
                            x       y       z     vdW  Elec       q    Type
                         _______ _______ _______ _____ _____    ______ ____

>  <TORSDO>
F 6

$$$$
