=
 OpenBabel10262421143D

 32 37  0  0  1  0  0  0  0  0999 V2000
  189.7130  177.4920  141.2680 C   0  0  1  0  0  3  0  0  0  0  0  0
  188.0290  177.6870  143.0830 C   0  0  1  0  0  3  0  0  0  0  0  0
  191.1520  177.8040  140.8310 C   0  0  0  0  0  2  0  0  0  0  0  0
  189.4630  178.0080  142.6940 C   0  0  1  0  0  3  0  0  0  0  0  0
  187.8040  177.8380  144.5770 C   0  0  0  0  0  0  0  0  0  0  0  0
  182.3550  179.1140  143.2210 C   0  0  0  0  0  2  0  0  0  0  0  0
  187.1060  178.5240  142.1900 C   0  0  1  0  0  3  0  0  0  0  0  0
  184.3050  178.5310  144.5360 N   0  0  0  0  0  0  0  0  0  0  0  0
  185.5270  178.3510  144.1730 C   0  0  0  0  0  0  0  0  0  0  0  0
  190.4970  177.5300  143.7530 C   0  0  1  0  0  3  0  0  0  0  0  0
  186.6190  178.1010  145.0620 N   0  0  0  0  0  0  0  0  0  0  0  0
  189.9110  176.7320  144.7600 O   0  0  0  0  0  0  0  0  0  0  0  0
  191.6640  176.7780  143.1150 C   0  0  0  0  0  2  0  0  0  0  0  0
  187.2280  177.9870  140.7670 C   0  0  0  0  0  2  0  0  0  0  0  0
  188.6870  178.1000  140.2760 C   0  0  2  0  0  3  0  0  0  0  0  0
  185.7210  178.4830  142.7460 C   0  0  0  0  0  0  0  0  0  0  0  0
  188.9800  177.5250  145.4690 C   0  0  2  0  0  3  0  0  0  0  0  0
  192.2080  177.5580  141.9200 C   0  0  0  0  0  2  0  0  0  0  0  0
  183.6370  178.7900  143.3020 C   0  0  0  0  0  0  0  0  0  0  0  0
  184.5730  178.8080  142.1710 C   0  0  0  0  0  3  0  0  0  0  0  0
  187.7480  178.3800  136.8440 C   0  0  0  0  0  0  0  0  0  0  0  0
  187.0690  174.9300  135.9950 O   0  0  0  0  0  0  0  0  0  0  0  0
  187.1730  179.4680  136.5700 O   0  0  0  0  0  0  0  0  0  0  0  0
  188.8920  175.5720  137.3600 C   0  0  0  0  0  2  0  0  0  0  0  0
  188.8170  177.5080  138.8980 C   0  0  0  0  0  0  0  0  0  0  0  0
  187.2140  177.1930  136.3180 O   0  0  0  0  0  0  0  0  0  0  0  0
  188.7800  176.1790  138.7240 C   0  0  0  0  0  3  0  0  0  0  0  0
  188.9830  178.4060  137.7020 C   0  0  2  0  0  3  0  0  0  0  0  0
  189.2920  179.7010  138.0890 F   0  0  0  0  0  0  0  0  0  0  0  0
  187.6820  175.8860  136.5340 C   0  0  0  0  0  0  0  0  0  0  0  0
  188.5390  176.7710  146.7150 C   0  0  0  0  0  2  0  0  0  0  0  0
  188.9140  177.4820  147.8550 O   0  0  0  0  0  1  0  0  0  0  0  0
  1  3  1  6  0  0  0
  1  4  1  0  0  0  0
  2  5  1  1  0  0  0
  3 18  1  0  0  0  0
  4  2  1  0  0  0  0
  4 10  1  0  0  0  0
  5 11  2  0  0  0  0
  5 17  1  0  0  0  0
  6 19  2  0  0  0  0
  7 16  1  0  0  0  0
  7  2  1  0  0  0  0
  9  8  2  0  0  0  0
  9 11  1  0  0  0  0
 10 12  1  0  0  0  0
 12 17  1  0  0  0  0
 13 10  1  0  0  0  0
 14  7  1  0  0  0  0
 15 14  1  0  0  0  0
 15  1  1  0  0  0  0
 16  9  1  0  0  0  0
 17 31  1  0  0  0  0
 18 13  1  0  0  0  0
 19  8  1  0  0  0  0
 20 16  2  0  0  0  0
 20 19  1  0  0  0  0
 21 28  1  0  0  0  0
 22 30  2  0  0  0  0
 23 21  2  0  0  0  0
 24 27  1  0  0  0  0
 25 15  1  0  0  0  0
 26 30  1  0  0  0  0
 26 21  1  0  0  0  0
 27 25  2  0  0  0  0
 28 29  1  0  0  0  0
 28 25  1  0  0  0  0
 30 24  1  0  0  0  0
 31 32  1  0  0  0  0
M  END
>  <MODEL>
1

>  <REMARK>
 VINA RESULT:      -9.1      0.000      0.000
  Name = 
  2 active torsions:
  status: ('A' for Active; 'I' for Inactive)
    1  A    between atoms: C_13  and  C_29
    2  A    between atoms: C_16  and  C_27
                            x       y       z     vdW  Elec       q    Type
                         _______ _______ _______ _____ _____    ______ ____

>  <TORSDO>
F 2

$$$$
=
 OpenBabel10262421143D

 32 37  0  0  1  0  0  0  0  0999 V2000
  189.8730  177.6440  142.0400 C   0  0  1  0  0  3  0  0  0  0  0  0
  187.7010  177.8140  143.2330 C   0  0  1  0  0  3  0  0  0  0  0  0
  191.3550  178.0440  142.0380 C   0  0  0  0  0  2  0  0  0  0  0  0
  189.1630  178.2250  143.2740 C   0  0  1  0  0  3  0  0  0  0  0  0
  187.0150  178.0380  144.5690 C   0  0  0  0  0  0  0  0  0  0  0  0
  182.1910  178.7830  141.5160 C   0  0  0  0  0  2  0  0  0  0  0  0
  187.0530  178.5160  142.0350 C   0  0  1  0  0  3  0  0  0  0  0  0
  183.6670  178.4410  143.4060 N   0  0  0  0  0  0  0  0  0  0  0  0
  184.9500  178.3390  143.4490 C   0  0  0  0  0  0  0  0  0  0  0  0
  189.8440  177.8990  144.6340 C   0  0  1  0  0  3  0  0  0  0  0  0
  185.7250  178.2330  144.6470 N   0  0  0  0  0  0  0  0  0  0  0  0
  189.0220  177.1190  145.4770 O   0  0  0  0  0  0  0  0  0  0  0  0
  191.1930  177.2050  144.4470 C   0  0  0  0  0  2  0  0  0  0  0  0
  187.6410  177.9050  140.7660 C   0  0  0  0  0  2  0  0  0  0  0  0
  189.1710  178.1050  140.7360 C   0  0  2  0  0  3  0  0  0  0  0  0
  185.5690  178.3980  142.1440 C   0  0  0  0  0  0  0  0  0  0  0  0
  187.8730  177.8760  145.8000 C   0  0  2  0  0  3  0  0  0  0  0  0
  192.0350  177.9510  143.4140 C   0  0  0  0  0  2  0  0  0  0  0  0
  183.4010  178.5690  142.0100 C   0  0  0  0  0  0  0  0  0  0  0  0
  184.6390  178.5930  141.2210 C   0  0  0  0  0  3  0  0  0  0  0  0
  188.6240  177.1760  137.3330 C   0  0  0  0  0  0  0  0  0  0  0  0
  190.0290  173.8430  137.2580 O   0  0  0  0  0  0  0  0  0  0  0  0
  187.5860  177.6890  136.8360 O   0  0  0  0  0  0  0  0  0  0  0  0
  191.0430  175.6280  138.4350 C   0  0  0  0  0  2  0  0  0  0  0  0
  189.7560  177.4410  139.5170 C   0  0  0  0  0  0  0  0  0  0  0  0
  188.8840  175.8190  137.0810 O   0  0  0  0  0  0  0  0  0  0  0  0
  190.4670  176.3110  139.6360 C   0  0  0  0  0  3  0  0  0  0  0  0
  189.5410  178.0410  138.1540 C   0  0  2  0  0  3  0  0  0  0  0  0
  189.0510  179.3340  138.2490 F   0  0  0  0  0  0  0  0  0  0  0  0
  189.9590  175.0590  137.5710 C   0  0  0  0  0  0  0  0  0  0  0  0
  187.1120  177.1670  146.9110 C   0  0  0  0  0  2  0  0  0  0  0  0
  187.9340  177.0210  148.0280 O   0  0  0  0  0  1  0  0  0  0  0  0
  1  3  1  6  0  0  0
  1  4  1  0  0  0  0
  2  4  1  0  0  0  0
  2  5  1  1  0  0  0
  3 18  1  0  0  0  0
  4 10  1  0  0  0  0
  5 11  2  0  0  0  0
  5 17  1  0  0  0  0
  6 19  2  0  0  0  0
  7 16  1  0  0  0  0
  7  2  1  0  0  0  0
  8  9  2  0  0  0  0
  9 11  1  0  0  0  0
 10 12  1  0  0  0  0
 12 17  1  0  0  0  0
 13 10  1  0  0  0  0
 14  7  1  0  0  0  0
 15 14  1  0  0  0  0
 15  1  1  0  0  0  0
 16  9  1  0  0  0  0
 17 31  1  0  0  0  0
 18 13  1  0  0  0  0
 19  8  1  0  0  0  0
 20 19  1  0  0  0  0
 20 16  2  0  0  0  0
 21 28  1  0  0  0  0
 22 30  2  0  0  0  0
 23 21  2  0  0  0  0
 24 27  1  0  0  0  0
 25 27  2  0  0  0  0
 25 15  1  0  0  0  0
 26 21  1  0  0  0  0
 26 30  1  0  0  0  0
 28 29  1  0  0  0  0
 28 25  1  0  0  0  0
 30 24  1  0  0  0  0
 31 32  1  0  0  0  0
M  END
>  <MODEL>
2

>  <REMARK>
 VINA RESULT:      -8.9      1.315      1.451
  Name = 
  2 active torsions:
  status: ('A' for Active; 'I' for Inactive)
    1  A    between atoms: C_13  and  C_29
    2  A    between atoms: C_16  and  C_27
                            x       y       z     vdW  Elec       q    Type
                         _______ _______ _______ _____ _____    ______ ____

>  <TORSDO>
F 2

$$$$
=
 OpenBabel10262421143D

 32 37  0  0  1  0  0  0  0  0999 V2000
  187.2010  178.0550  139.1700 C   0  0  1  0  0  3  0  0  0  0  0  0
  187.7840  177.7610  141.5670 C   0  0  1  0  0  3  0  0  0  0  0  0
  187.6520  178.6130  137.8130 C   0  0  0  0  0  2  0  0  0  0  0  0
  188.2730  178.3200  140.2400 C   0  0  1  0  0  3  0  0  0  0  0  0
  188.9080  177.6600  142.5830 C   0  0  0  0  0  0  0  0  0  0  0  0
  184.8230  178.3960  146.5740 C   0  0  0  0  0  2  0  0  0  0  0  0
  186.5730  178.5900  142.0040 C   0  0  1  0  0  3  0  0  0  0  0  0
  186.9680  177.8870  145.5680 N   0  0  0  0  0  0  0  0  0  0  0  0
  187.3350  177.9240  144.3340 C   0  0  0  0  0  0  0  0  0  0  0  0
  189.7020  177.8320  139.8690 C   0  0  1  0  0  3  0  0  0  0  0  0
  188.6670  177.6920  143.8680 N   0  0  0  0  0  0  0  0  0  0  0  0
  190.1730  176.8240  140.7400 O   0  0  0  0  0  0  0  0  0  0  0  0
  189.7820  177.3400  138.4240 C   0  0  0  0  0  2  0  0  0  0  0  0
  185.4310  178.2890  141.0370 C   0  0  0  0  0  2  0  0  0  0  0  0
  185.8390  178.6620  139.5960 C   0  0  2  0  0  3  0  0  0  0  0  0
  186.2640  178.2870  143.4330 C   0  0  0  0  0  0  0  0  0  0  0  0
  190.2850  177.3760  142.0360 C   0  0  2  0  0  3  0  0  0  0  0  0
  189.1300  178.3510  137.4830 C   0  0  0  0  0  2  0  0  0  0  0  0
  185.5850  178.2350  145.5020 C   0  0  0  0  0  0  0  0  0  0  0  0
  185.1660  178.5410  144.1290 C   0  0  0  0  0  3  0  0  0  0  0  0
  182.3120  178.5780  139.0480 C   0  0  0  0  0  0  0  0  0  0  0  0
  181.9000  175.3400  137.4880 O   0  0  0  0  0  0  0  0  0  0  0  0
  181.6560  179.2070  139.9200 O   0  0  0  0  0  0  0  0  0  0  0  0
  183.7070  176.7790  136.9790 C   0  0  0  0  0  2  0  0  0  0  0  0
  184.7360  178.3000  138.6360 C   0  0  0  0  0  0  0  0  0  0  0  0
  181.8450  177.3160  138.6450 O   0  0  0  0  0  0  0  0  0  0  0  0
  184.8000  177.1640  137.9270 C   0  0  0  0  0  3  0  0  0  0  0  0
  183.5490  179.2090  138.4710 C   0  0  2  0  0  3  0  0  0  0  0  0
  183.7860  180.4500  139.0440 F   0  0  0  0  0  0  0  0  0  0  0  0
  182.4490  176.4470  137.7210 C   0  0  0  0  0  0  0  0  0  0  0  0
  191.0380  176.3980  142.9250 C   0  0  0  0  0  2  0  0  0  0  0  0
  190.4230  175.1470  142.8790 O   0  0  0  0  0  1  0  0  0  0  0  0
  1  3  1  6  0  0  0
  1 15  1  0  0  0  0
  1  4  1  0  0  0  0
  2  7  1  0  0  0  0
  2  5  1  1  0  0  0
  4  2  1  0  0  0  0
  5 11  2  0  0  0  0
  7 16  1  0  0  0  0
  9  8  2  0  0  0  0
 10  4  1  0  0  0  0
 10 12  1  0  0  0  0
 11  9  1  0  0  0  0
 12 17  1  0  0  0  0
 13 10  1  0  0  0  0
 14  7  1  0  0  0  0
 15 14  1  0  0  0  0
 16 20  2  0  0  0  0
 16  9  1  0  0  0  0
 17  5  1  0  0  0  0
 17 31  1  0  0  0  0
 18  3  1  0  0  0  0
 18 13  1  0  0  0  0
 19  8  1  0  0  0  0
 19  6  2  0  0  0  0
 20 19  1  0  0  0  0
 21 23  2  0  0  0  0
 22 30  2  0  0  0  0
 24 30  1  0  0  0  0
 24 27  1  0  0  0  0
 25 15  1  0  0  0  0
 26 21  1  0  0  0  0
 27 25  2  0  0  0  0
 28 25  1  0  0  0  0
 28 29  1  0  0  0  0
 28 21  1  0  0  0  0
 30 26  1  0  0  0  0
 32 31  1  0  0  0  0
M  END
>  <MODEL>
3

>  <REMARK>
 VINA RESULT:      -8.4      3.003      4.181
  Name = 
  2 active torsions:
  status: ('A' for Active; 'I' for Inactive)
    1  A    between atoms: C_13  and  C_29
    2  A    between atoms: C_16  and  C_27
                            x       y       z     vdW  Elec       q    Type
                         _______ _______ _______ _____ _____    ______ ____

>  <TORSDO>
F 2

$$$$
=
 OpenBabel10262421143D

 32 37  0  0  1  0  0  0  0  0999 V2000
  185.6440  178.0780  139.5810 C   0  0  1  0  0  3  0  0  0  0  0  0
  186.9630  177.8780  141.6760 C   0  0  1  0  0  3  0  0  0  0  0  0
  185.6120  178.6280  138.1480 C   0  0  0  0  0  2  0  0  0  0  0  0
  186.9770  178.4320  140.2610 C   0  0  1  0  0  3  0  0  0  0  0  0
  188.3520  177.8700  142.2910 C   0  0  0  0  0  0  0  0  0  0  0  0
  185.6780  178.4620  147.3550 C   0  0  0  0  0  2  0  0  0  0  0  0
  185.8980  178.6450  142.4670 C   0  0  1  0  0  3  0  0  0  0  0  0
  187.4300  178.0560  145.7310 N   0  0  0  0  0  0  0  0  0  0  0  0
  187.3900  178.0830  144.4440 C   0  0  0  0  0  0  0  0  0  0  0  0
  188.2470  178.0200  139.4630 C   0  0  1  0  0  3  0  0  0  0  0  0
  188.5220  177.9190  143.5860 N   0  0  0  0  0  0  0  0  0  0  0  0
  189.0300  177.0640  140.1480 O   0  0  0  0  0  0  0  0  0  0  0  0
  187.9040  177.4980  138.0680 C   0  0  0  0  0  2  0  0  0  0  0  0
  184.5340  178.2530  141.9070 C   0  0  0  0  0  2  0  0  0  0  0  0
  184.4470  178.6130  140.4090 C   0  0  2  0  0  3  0  0  0  0  0  0
  186.0710  178.3600  143.9220 C   0  0  0  0  0  0  0  0  0  0  0  0
  189.5050  177.6540  141.3420 C   0  0  2  0  0  3  0  0  0  0  0  0
  186.9280  178.4450  137.3740 C   0  0  0  0  0  2  0  0  0  0  0  0
  186.0760  178.3190  146.1000 C   0  0  0  0  0  0  0  0  0  0  0  0
  185.2310  178.5660  144.9250 C   0  0  0  0  0  3  0  0  0  0  0  0
  180.9530  179.3030  140.1650 C   0  0  0  0  0  0  0  0  0  0  0  0
  179.5330  176.0020  140.5860 O   0  0  0  0  0  0  0  0  0  0  0  0
  180.6370  180.4420  140.6000 O   0  0  0  0  0  0  0  0  0  0  0  0
  181.4800  176.3990  139.3010 C   0  0  0  0  0  2  0  0  0  0  0  0
  183.1250  178.1630  139.8430 C   0  0  0  0  0  0  0  0  0  0  0  0
  180.1470  178.2080  140.5170 O   0  0  0  0  0  0  0  0  0  0  0  0
  182.7950  176.8640  139.8430 C   0  0  0  0  0  3  0  0  0  0  0  0
  182.1620  179.1720  139.2800 C   0  0  2  0  0  3  0  0  0  0  0  0
  182.7770  180.4000  139.0930 F   0  0  0  0  0  0  0  0  0  0  0  0
  180.3490  176.8620  140.1670 C   0  0  0  0  0  0  0  0  0  0  0  0
  190.5590  176.7440  141.9560 C   0  0  0  0  0  2  0  0  0  0  0  0
  191.6810  177.4930  142.3130 O   0  0  0  0  0  1  0  0  0  0  0  0
  1  3  1  6  0  0  0
  1  4  1  0  0  0  0
  1 15  1  0  0  0  0
  2  5  1  1  0  0  0
  2  7  1  0  0  0  0
  4  2  1  0  0  0  0
  5 11  2  0  0  0  0
  7 16  1  0  0  0  0
  8 19  1  0  0  0  0
  9  8  2  0  0  0  0
 10 12  1  0  0  0  0
 10  4  1  0  0  0  0
 11  9  1  0  0  0  0
 12 17  1  0  0  0  0
 13 10  1  0  0  0  0
 14  7  1  0  0  0  0
 15 14  1  0  0  0  0
 16  9  1  0  0  0  0
 16 20  2  0  0  0  0
 17 31  1  0  0  0  0
 17  5  1  0  0  0  0
 18 13  1  0  0  0  0
 18  3  1  0  0  0  0
 19  6  2  0  0  0  0
 20 19  1  0  0  0  0
 21 26  1  0  0  0  0
 21 23  2  0  0  0  0
 24 27  1  0  0  0  0
 24 30  1  0  0  0  0
 25 27  2  0  0  0  0
 25 15  1  0  0  0  0
 28 25  1  0  0  0  0
 28 21  1  0  0  0  0
 29 28  1  0  0  0  0
 30 26  1  0  0  0  0
 30 22  2  0  0  0  0
 31 32  1  0  0  0  0
M  END
>  <MODEL>
4

>  <REMARK>
 VINA RESULT:      -8.4      3.571      5.466
  Name = 
  2 active torsions:
  status: ('A' for Active; 'I' for Inactive)
    1  A    between atoms: C_13  and  C_29
    2  A    between atoms: C_16  and  C_27
                            x       y       z     vdW  Elec       q    Type
                         _______ _______ _______ _____ _____    ______ ____

>  <TORSDO>
F 2

$$$$
=
 OpenBabel10262421143D

 32 37  0  0  1  0  0  0  0  0999 V2000
  189.1050  177.4380  142.4210 C   0  0  1  0  0  3  0  0  0  0  0  0
  186.9830  178.1740  141.3600 C   0  0  1  0  0  3  0  0  0  0  0  0
  190.3250  176.5140  142.3120 C   0  0  0  0  0  2  0  0  0  0  0  0
  188.1790  177.2490  141.2080 C   0  0  1  0  0  3  0  0  0  0  0  0
  186.2100  178.3130  140.0610 C   0  0  0  0  0  0  0  0  0  0  0  0
  181.5890  179.2260  143.3720 C   0  0  0  0  0  2  0  0  0  0  0  0
  186.1670  177.6870  142.5630 C   0  0  1  0  0  3  0  0  0  0  0  0
  183.0070  179.1160  141.4110 N   0  0  0  0  0  0  0  0  0  0  0  0
  184.2310  178.7330  141.2930 C   0  0  0  0  0  0  0  0  0  0  0  0
  188.8770  177.3870  139.8260 C   0  0  1  0  0  3  0  0  0  0  0  0
  184.9390  178.6200  140.0550 N   0  0  0  0  0  0  0  0  0  0  0  0
  188.3770  178.4730  139.0730 O   0  0  0  0  0  0  0  0  0  0  0  0
  190.3940  177.5110  139.9590 C   0  0  0  0  0  2  0  0  0  0  0  0
  186.9930  177.9470  143.8190 C   0  0  0  0  0  2  0  0  0  0  0  0
  188.3340  177.1880  143.7440 C   0  0  2  0  0  3  0  0  0  0  0  0
  184.8340  178.3600  142.5530 C   0  0  0  0  0  0  0  0  0  0  0  0
  187.0150  178.2240  138.7880 C   0  0  2  0  0  3  0  0  0  0  0  0
  190.9330  176.4370  140.9020 C   0  0  0  0  0  2  0  0  0  0  0  0
  182.7690  179.0040  142.8140 C   0  0  0  0  0  0  0  0  0  0  0  0
  183.9370  178.4650  143.5210 C   0  0  0  0  0  3  0  0  0  0  0  0
  191.5780  178.0940  144.9280 C   0  0  0  0  0  0  0  0  0  0  0  0
  191.9080  175.9640  147.8340 O   0  0  0  0  0  0  0  0  0  0  0  0
  192.3700  178.4310  144.0080 O   0  0  0  0  0  0  0  0  0  0  0  0
  189.8860  177.0620  147.2810 C   0  0  0  0  0  2  0  0  0  0  0  0
  189.1760  177.5010  144.9530 C   0  0  0  0  0  0  0  0  0  0  0  0
  192.0540  177.2450  145.9400 O   0  0  0  0  0  0  0  0  0  0  0  0
  189.0480  176.7770  146.0740 C   0  0  0  0  0  3  0  0  0  0  0  0
  190.1720  178.6280  144.9090 C   0  0  2  0  0  3  0  0  0  0  0  0
  189.9630  179.4370  143.8030 F   0  0  0  0  0  0  0  0  0  0  0  0
  191.3240  176.7300  147.0250 C   0  0  0  0  0  0  0  0  0  0  0  0
  186.5330  179.2390  137.7610 C   0  0  0  0  0  2  0  0  0  0  0  0
  187.5500  179.5030  136.8440 O   0  0  0  0  0  1  0  0  0  0  0  0
  1  3  1  6  0  0  0
  1 15  1  0  0  0  0
  2  5  1  6  0  0  0
  2  7  1  0  0  0  0
  4  2  1  0  0  0  0
  4  1  1  0  0  0  0
  7 14  1  0  0  0  0
  8 19  1  0  0  0  0
  9  8  2  0  0  0  0
  9 16  1  0  0  0  0
 10 13  1  0  0  0  0
 10  4  1  0  0  0  0
 11  5  2  0  0  0  0
 11  9  1  0  0  0  0
 12 10  1  0  0  0  0
 13 18  1  0  0  0  0
 15 14  1  0  0  0  0
 15 25  1  0  0  0  0
 16  7  1  0  0  0  0
 16 20  2  0  0  0  0
 17 12  1  0  0  0  0
 17  5  1  0  0  0  0
 18  3  1  0  0  0  0
 19  6  2  0  0  0  0
 19 20  1  0  0  0  0
 21 26  1  0  0  0  0
 23 21  2  0  0  0  0
 25 27  2  0  0  0  0
 26 30  1  0  0  0  0
 27 24  1  0  0  0  0
 28 21  1  0  0  0  0
 28 25  1  0  0  0  0
 29 28  1  0  0  0  0
 30 24  1  0  0  0  0
 30 22  2  0  0  0  0
 31 17  1  0  0  0  0
 32 31  1  0  0  0  0
M  END
>  <MODEL>
5

>  <REMARK>
 VINA RESULT:      -7.7      2.317      6.381
  Name = 
  2 active torsions:
  status: ('A' for Active; 'I' for Inactive)
    1  A    between atoms: C_13  and  C_29
    2  A    between atoms: C_16  and  C_27
                            x       y       z     vdW  Elec       q    Type
                         _______ _______ _______ _____ _____    ______ ____

>  <TORSDO>
F 2

$$$$
=
 OpenBabel10262421143D

 32 37  0  0  1  0  0  0  0  0999 V2000
  185.9780  178.2880  139.5620 C   0  0  1  0  0  3  0  0  0  0  0  0
  187.0370  177.8740  141.7700 C   0  0  1  0  0  3  0  0  0  0  0  0
  186.1730  178.8420  138.1440 C   0  0  0  0  0  2  0  0  0  0  0  0
  187.2760  178.4250  140.3740 C   0  0  1  0  0  3  0  0  0  0  0  0
  188.3400  177.6450  142.5160 C   0  0  0  0  0  0  0  0  0  0  0  0
  185.3050  178.6280  147.3090 C   0  0  0  0  0  2  0  0  0  0  0  0
  186.0320  178.7950  142.4690 C   0  0  1  0  0  3  0  0  0  0  0  0
  187.1240  177.9590  145.8540 N   0  0  0  0  0  0  0  0  0  0  0  0
  187.2160  177.9980  144.5700 C   0  0  0  0  0  0  0  0  0  0  0  0
  188.5380  177.8230  139.6950 C   0  0  1  0  0  3  0  0  0  0  0  0
  188.3870  177.6620  143.8220 N   0  0  0  0  0  0  0  0  0  0  0  0
  189.0920  176.7530  140.4330 O   0  0  0  0  0  0  0  0  0  0  0  0
  188.2570  177.3670  138.2630 C   0  0  0  0  0  2  0  0  0  0  0  0
  184.6850  178.6240  141.7730 C   0  0  0  0  0  2  0  0  0  0  0  0
  184.8030  179.0010  140.2810 C   0  0  2  0  0  3  0  0  0  0  0  0
  186.0140  178.4800  143.9290 C   0  0  0  0  0  0  0  0  0  0  0  0
  189.5330  177.2550  141.6780 C   0  0  2  0  0  3  0  0  0  0  0  0
  187.5130  178.4580  137.4960 C   0  0  0  0  0  2  0  0  0  0  0  0
  185.7980  178.4290  146.0960 C   0  0  0  0  0  0  0  0  0  0  0  0
  185.1220  178.8100  144.8500 C   0  0  0  0  0  3  0  0  0  0  0  0
  182.8860  176.7500  138.2790 C   0  0  0  0  0  0  0  0  0  0  0  0
  181.3690  179.0120  135.8980 O   0  0  0  0  0  0  0  0  0  0  0  0
  183.4050  175.6070  138.1770 O   0  0  0  0  0  0  0  0  0  0  0  0
  181.5960  179.5410  138.1930 C   0  0  0  0  0  2  0  0  0  0  0  0
  183.4890  178.7660  139.5820 C   0  0  0  0  0  0  0  0  0  0  0  0
  182.3590  177.3490  137.1240 O   0  0  0  0  0  0  0  0  0  0  0  0
  182.8930  179.7590  138.9070 C   0  0  0  0  0  3  0  0  0  0  0  0
  182.8400  177.4090  139.6300 C   0  0  2  0  0  3  0  0  0  0  0  0
  183.4300  176.6070  140.5950 F   0  0  0  0  0  0  0  0  0  0  0  0
  181.7770  178.6240  137.0230 C   0  0  0  0  0  0  0  0  0  0  0  0
  190.3670  176.1890  142.3730 C   0  0  0  0  0  2  0  0  0  0  0  0
  191.5550  176.7480  142.8420 O   0  0  0  0  0  1  0  0  0  0  0  0
  1  3  1  6  0  0  0
  1 15  1  0  0  0  0
  1  4  1  0  0  0  0
  2  7  1  0  0  0  0
  2  5  1  1  0  0  0
  4  2  1  0  0  0  0
  5 11  2  0  0  0  0
  7 16  1  0  0  0  0
  8 19  1  0  0  0  0
  9  8  2  0  0  0  0
 10  4  1  0  0  0  0
 10 12  1  0  0  0  0
 11  9  1  0  0  0  0
 12 17  1  0  0  0  0
 13 10  1  0  0  0  0
 14  7  1  0  0  0  0
 15 14  1  0  0  0  0
 16  9  1  0  0  0  0
 16 20  2  0  0  0  0
 17 31  1  0  0  0  0
 17  5  1  0  0  0  0
 18  3  1  0  0  0  0
 18 13  1  0  0  0  0
 19  6  2  0  0  0  0
 20 19  1  0  0  0  0
 21 28  1  0  0  0  0
 22 30  2  0  0  0  0
 23 21  2  0  0  0  0
 24 27  1  0  0  0  0
 25 28  1  0  0  0  0
 25 15  1  0  0  0  0
 26 21  1  0  0  0  0
 27 25  2  0  0  0  0
 28 29  1  0  0  0  0
 30 26  1  0  0  0  0
 30 24  1  0  0  0  0
 31 32  1  0  0  0  0
M  END
>  <MODEL>
6

>  <REMARK>
 VINA RESULT:      -7.7      3.099      4.881
  Name = 
  2 active torsions:
  status: ('A' for Active; 'I' for Inactive)
    1  A    between atoms: C_13  and  C_29
    2  A    between atoms: C_16  and  C_27
                            x       y       z     vdW  Elec       q    Type
                         _______ _______ _______ _____ _____    ______ ____

>  <TORSDO>
F 2

$$$$
=
 OpenBabel10262421143D

 32 37  0  0  1  0  0  0  0  0999 V2000
  186.4680  178.0640  144.0700 C   0  0  1  0  0  3  0  0  0  0  0  0
  188.6230  177.8930  142.8460 C   0  0  1  0  0  3  0  0  0  0  0  0
  185.6480  177.5740  145.2710 C   0  0  0  0  0  2  0  0  0  0  0  0
  187.8490  177.3880  144.0520 C   0  0  1  0  0  3  0  0  0  0  0  0
  190.1000  177.5580  142.9440 C   0  0  0  0  0  0  0  0  0  0  0  0
  190.0570  177.4840  137.1870 C   0  0  0  0  0  2  0  0  0  0  0  0
  187.9130  177.3790  141.5890 C   0  0  1  0  0  3  0  0  0  0  0  0
  190.8830  177.5060  139.4640 N   0  0  0  0  0  0  0  0  0  0  0  0
  190.2400  177.5220  140.5800 C   0  0  0  0  0  0  0  0  0  0  0  0
  188.6520  177.5090  145.3790 C   0  0  1  0  0  3  0  0  0  0  0  0
  190.8420  177.4360  141.8750 N   0  0  0  0  0  0  0  0  0  0  0  0
  189.8530  178.2350  145.2200 O   0  0  0  0  0  0  0  0  0  0  0  0
  187.8200  178.1330  146.4980 C   0  0  0  0  0  2  0  0  0  0  0  0
  186.5700  178.0970  141.4890 C   0  0  0  0  0  2  0  0  0  0  0  0
  185.7140  177.8050  142.7390 C   0  0  2  0  0  3  0  0  0  0  0  0
  188.8060  177.5780  140.4090 C   0  0  0  0  0  0  0  0  0  0  0  0
  190.6900  177.5190  144.3330 C   0  0  2  0  0  3  0  0  0  0  0  0
  186.4500  177.4620  146.5780 C   0  0  0  0  0  2  0  0  0  0  0  0
  189.8410  177.5610  138.4920 C   0  0  0  0  0  0  0  0  0  0  0  0
  188.5130  177.5510  139.1170 C   0  0  0  0  0  3  0  0  0  0  0  0
  183.0680  179.3070  144.6080 C   0  0  0  0  0  0  0  0  0  0  0  0
  180.1690  178.3010  142.6920 O   0  0  0  0  0  0  0  0  0  0  0  0
  183.3070  179.3780  145.8430 O   0  0  0  0  0  0  0  0  0  0  0  0
  182.1920  178.9900  141.6770 C   0  0  0  0  0  2  0  0  0  0  0  0
  184.4180  178.5700  142.6690 C   0  0  0  0  0  0  0  0  0  0  0  0
  181.7930  178.8840  144.1980 O   0  0  0  0  0  0  0  0  0  0  0  0
  183.4930  178.2530  141.7520 C   0  0  0  0  0  3  0  0  0  0  0  0
  184.1490  179.6910  143.6350 C   0  0  2  0  0  3  0  0  0  0  0  0
  185.3060  180.0660  144.3010 F   0  0  0  0  0  0  0  0  0  0  0  0
  181.3450  178.7050  142.8790 C   0  0  0  0  0  0  0  0  0  0  0  0
  192.0790  178.1390  144.3570 C   0  0  0  0  0  2  0  0  0  0  0  0
  191.9770  179.5300  144.3430 O   0  0  0  0  0  1  0  0  0  0  0  0
  1  3  1  1  0  0  0
  2  5  1  1  0  0  0
  2  4  1  0  0  0  0
  3 18  1  0  0  0  0
  4  1  1  0  0  0  0
  4 10  1  0  0  0  0
  5 17  1  0  0  0  0
  6 19  2  0  0  0  0
  7  2  1  0  0  0  0
  8  9  2  0  0  0  0
  9 11  1  0  0  0  0
 10 13  1  0  0  0  0
 11  5  2  0  0  0  0
 12 10  1  0  0  0  0
 13 18  1  0  0  0  0
 14  7  1  0  0  0  0
 14 15  1  0  0  0  0
 15  1  1  0  0  0  0
 16  9  1  0  0  0  0
 16  7  1  0  0  0  0
 17 31  1  0  0  0  0
 17 12  1  0  0  0  0
 19 20  1  0  0  0  0
 19  8  1  0  0  0  0
 20 16  2  0  0  0  0
 21 23  2  0  0  0  0
 22 30  2  0  0  0  0
 24 27  1  0  0  0  0
 24 30  1  0  0  0  0
 25 15  1  0  0  0  0
 25 28  1  0  0  0  0
 26 21  1  0  0  0  0
 27 25  2  0  0  0  0
 28 29  1  0  0  0  0
 28 21  1  0  0  0  0
 30 26  1  0  0  0  0
 32 31  1  0  0  0  0
M  END
>  <MODEL>
7

>  <REMARK>
 VINA RESULT:      -7.6      3.811      6.414
  Name = 
  2 active torsions:
  status: ('A' for Active; 'I' for Inactive)
    1  A    between atoms: C_13  and  C_29
    2  A    between atoms: C_16  and  C_27
                            x       y       z     vdW  Elec       q    Type
                         _______ _______ _______ _____ _____    ______ ____

>  <TORSDO>
F 2

$$$$
=
 OpenBabel10262421143D

 32 37  0  0  1  0  0  0  0  0999 V2000
  185.0270  178.5410  141.1890 C   0  0  1  0  0  3  0  0  0  0  0  0
  187.0200  177.8800  142.5150 C   0  0  1  0  0  3  0  0  0  0  0  0
  184.5040  179.3770  140.0120 C   0  0  0  0  0  2  0  0  0  0  0  0
  186.5470  178.7150  141.3370 C   0  0  1  0  0  3  0  0  0  0  0  0
  188.5300  177.7130  142.5160 C   0  0  0  0  0  0  0  0  0  0  0  0
  188.0790  177.3000  148.2410 C   0  0  0  0  0  2  0  0  0  0  0  0
  186.4250  178.4900  143.7880 C   0  0  1  0  0  3  0  0  0  0  0  0
  189.0220  177.2010  146.0120 N   0  0  0  0  0  0  0  0  0  0  0  0
  188.4950  177.4960  144.8740 C   0  0  0  0  0  0  0  0  0  0  0  0
  187.3640  178.4490  140.0410 C   0  0  1  0  0  3  0  0  0  0  0  0
  189.1880  177.4880  143.6230 N   0  0  0  0  0  0  0  0  0  0  0  0
  188.2470  177.3550  140.1730 O   0  0  0  0  0  0  0  0  0  0  0  0
  186.4610  178.2370  138.8270 C   0  0  0  0  0  2  0  0  0  0  0  0
  184.9180  178.2540  143.7540 C   0  0  0  0  0  2  0  0  0  0  0  0
  184.3000  178.9200  142.5060 C   0  0  2  0  0  3  0  0  0  0  0  0
  187.1120  177.9050  144.9770 C   0  0  0  0  0  0  0  0  0  0  0  0
  189.2020  177.6730  141.1660 C   0  0  2  0  0  3  0  0  0  0  0  0
  185.3960  179.3290  138.7610 C   0  0  0  0  0  2  0  0  0  0  0  0
  187.9480  177.4120  146.9280 C   0  0  0  0  0  0  0  0  0  0  0  0
  186.7480  177.9170  146.2510 C   0  0  0  0  0  3  0  0  0  0  0  0
  181.5190  178.2450  140.3720 C   0  0  0  0  0  0  0  0  0  0  0  0
  178.9320  180.2640  141.8950 O   0  0  0  0  0  0  0  0  0  0  0  0
  181.8490  178.0190  139.1770 O   0  0  0  0  0  0  0  0  0  0  0  0
  180.4940  179.0210  143.1660 C   0  0  0  0  0  2  0  0  0  0  0  0
  182.8240  178.6270  142.4390 C   0  0  0  0  0  0  0  0  0  0  0  0
  180.4210  179.0860  140.6130 O   0  0  0  0  0  0  0  0  0  0  0  0
  181.9650  179.2870  143.2290 C   0  0  0  0  0  3  0  0  0  0  0  0
  182.3020  177.5930  141.4790 C   0  0  2  0  0  3  0  0  0  0  0  0
  183.3320  176.8190  140.9680 F   0  0  0  0  0  0  0  0  0  0  0  0
  179.9210  179.4880  141.8630 C   0  0  0  0  0  0  0  0  0  0  0  0
  190.3110  176.6310  141.1350 C   0  0  0  0  0  2  0  0  0  0  0  0
  190.5870  176.2730  139.8150 O   0  0  0  0  0  1  0  0  0  0  0  0
  1  3  1  6  0  0  0
  1  4  1  0  0  0  0
  1 15  1  0  0  0  0
  2  5  1  1  0  0  0
  2  7  1  0  0  0  0
  4  2  1  0  0  0  0
  5 11  2  0  0  0  0
  7 16  1  0  0  0  0
  8 19  1  0  0  0  0
  9 16  1  0  0  0  0
  9  8  2  0  0  0  0
 10 12  1  0  0  0  0
 10  4  1  0  0  0  0
 11  9  1  0  0  0  0
 12 17  1  0  0  0  0
 13 10  1  0  0  0  0
 14  7  1  0  0  0  0
 15 14  1  0  0  0  0
 16 20  2  0  0  0  0
 17  5  1  0  0  0  0
 18 13  1  0  0  0  0
 18  3  1  0  0  0  0
 19  6  2  0  0  0  0
 20 19  1  0  0  0  0
 21 26  1  0  0  0  0
 21 28  1  0  0  0  0
 23 21  2  0  0  0  0
 24 27  1  0  0  0  0
 25 15  1  0  0  0  0
 25 27  2  0  0  0  0
 26 30  1  0  0  0  0
 28 25  1  0  0  0  0
 29 28  1  0  0  0  0
 30 22  2  0  0  0  0
 30 24  1  0  0  0  0
 31 17  1  0  0  0  0
 32 31  1  0  0  0  0
M  END
>  <MODEL>
8

>  <REMARK>
 VINA RESULT:      -7.5      3.389      6.419
  Name = 
  2 active torsions:
  status: ('A' for Active; 'I' for Inactive)
    1  A    between atoms: C_13  and  C_29
    2  A    between atoms: C_16  and  C_27
                            x       y       z     vdW  Elec       q    Type
                         _______ _______ _______ _____ _____    ______ ____

>  <TORSDO>
F 2

$$$$
=
 OpenBabel10262421143D

 32 37  0  0  1  0  0  0  0  0999 V2000
  185.6810  178.4080  143.7260 C   0  0  1  0  0  3  0  0  0  0  0  0
  183.5360  178.5090  142.4770 C   0  0  1  0  0  3  0  0  0  0  0  0
  186.4900  178.9600  144.9080 C   0  0  0  0  0  2  0  0  0  0  0  0
  184.2980  179.0760  143.6640 C   0  0  1  0  0  3  0  0  0  0  0  0
  182.0560  178.8420  142.5470 C   0  0  0  0  0  0  0  0  0  0  0  0
  182.1470  178.6340  136.7940 C   0  0  0  0  0  2  0  0  0  0  0  0
  184.2540  178.9640  141.2020 C   0  0  1  0  0  3  0  0  0  0  0  0
  181.3020  178.7190  139.0630 N   0  0  0  0  0  0  0  0  0  0  0  0
  181.9360  178.7610  140.1830 C   0  0  0  0  0  0  0  0  0  0  0  0
  183.4840  179.0170  144.9880 C   0  0  1  0  0  3  0  0  0  0  0  0
  181.3230  178.9080  141.4670 N   0  0  0  0  0  0  0  0  0  0  0  0
  182.2870  178.2780  144.8550 O   0  0  0  0  0  0  0  0  0  0  0  0
  184.3100  178.4520  146.1440 C   0  0  0  0  0  2  0  0  0  0  0  0
  185.6010  178.2480  141.1480 C   0  0  0  0  0  2  0  0  0  0  0  0
  186.4450  178.6040  142.3900 C   0  0  2  0  0  3  0  0  0  0  0  0
  183.3720  178.7040  140.0260 C   0  0  0  0  0  0  0  0  0  0  0  0
  181.4550  178.9460  143.9280 C   0  0  2  0  0  3  0  0  0  0  0  0
  185.6760  179.1330  146.2010 C   0  0  0  0  0  2  0  0  0  0  0  0
  182.3530  178.6220  138.1030 C   0  0  0  0  0  0  0  0  0  0  0  0
  183.6750  178.6680  138.7380 C   0  0  0  0  0  3  0  0  0  0  0  0
  188.9210  176.9340  144.3460 C   0  0  0  0  0  0  0  0  0  0  0  0
  191.9740  178.0900  142.7880 O   0  0  0  0  0  0  0  0  0  0  0  0
  188.5750  176.7560  145.5440 O   0  0  0  0  0  0  0  0  0  0  0  0
  190.0510  177.5020  141.5420 C   0  0  0  0  0  2  0  0  0  0  0  0
  187.7450  177.8440  142.3680 C   0  0  0  0  0  0  0  0  0  0  0  0
  190.2260  177.3850  144.0890 O   0  0  0  0  0  0  0  0  0  0  0  0
  188.7460  178.2350  141.5670 C   0  0  0  0  0  3  0  0  0  0  0  0
  187.9310  176.6410  143.2520 C   0  0  2  0  0  3  0  0  0  0  0  0
  186.7220  176.2140  143.7780 F   0  0  0  0  0  0  0  0  0  0  0  0
  190.7880  177.6770  142.8350 C   0  0  0  0  0  0  0  0  0  0  0  0
  180.0680  178.3220  143.9710 C   0  0  0  0  0  2  0  0  0  0  0  0
  179.1240  179.2910  144.3110 O   0  0  0  0  0  1  0  0  0  0  0  0
  1  3  1  1  0  0  0
  2  5  1  6  0  0  0
  2  4  1  0  0  0  0
  3 18  1  0  0  0  0
  4  1  1  0  0  0  0
  4 10  1  0  0  0  0
  5 17  1  0  0  0  0
  6 19  2  0  0  0  0
  7  2  1  0  0  0  0
  8  9  2  0  0  0  0
  9 11  1  0  0  0  0
 10 13  1  0  0  0  0
 11  5  2  0  0  0  0
 12 10  1  0  0  0  0
 13 18  1  0  0  0  0
 14  7  1  0  0  0  0
 14 15  1  0  0  0  0
 15  1  1  0  0  0  0
 16  9  1  0  0  0  0
 16  7  1  0  0  0  0
 17 31  1  0  0  0  0
 17 12  1  0  0  0  0
 19 20  1  0  0  0  0
 19  8  1  0  0  0  0
 20 16  2  0  0  0  0
 21 23  2  0  0  0  0
 22 30  2  0  0  0  0
 24 27  1  0  0  0  0
 24 30  1  0  0  0  0
 25 15  1  0  0  0  0
 25 28  1  0  0  0  0
 26 21  1  0  0  0  0
 27 25  2  0  0  0  0
 28 29  1  0  0  0  0
 28 21  1  0  0  0  0
 30 26  1  0  0  0  0
 31 32  1  0  0  0  0
M  END
>  <MODEL>
9

>  <REMARK>
 VINA RESULT:      -7.4      3.793      6.524
  Name = 
  2 active torsions:
  status: ('A' for Active; 'I' for Inactive)
    1  A    between atoms: C_13  and  C_29
    2  A    between atoms: C_16  and  C_27
                            x       y       z     vdW  Elec       q    Type
                         _______ _______ _______ _____ _____    ______ ____

>  <TORSDO>
F 2

$$$$
