=
 OpenBabel10252414533D

 34 37  0  0  1  0  0  0  0  0999 V2000
  186.8300  178.2850  138.9290 N   0  0  1  0  0  0  0  0  0  0  0  0
  187.9840  178.8870  140.9200 O   0  0  0  0  0  0  0  0  0  0  0  0
  185.5490  178.3250  139.6670 C   0  0  1  0  0  3  0  0  0  0  0  0
  186.8220  179.0510  141.6590 C   0  0  0  0  0  3  0  0  0  0  0  0
  185.6390  178.7420  141.1300 C   0  0  0  0  0  0  0  0  0  0  0  0
  188.0000  178.0230  139.7940 C   0  0  2  0  0  3  0  0  0  0  0  0
  187.5430  176.1550  138.0070 O   0  0  0  0  0  0  0  0  0  0  0  0
  186.9080  177.7670  136.4470 C   0  0  1  0  0  3  0  0  0  0  0  0
  188.2480  176.0180  136.8290 C   0  0  0  0  0  0  0  0  0  0  0  0
  187.9510  176.8910  135.9320 N   0  0  0  0  0  0  0  0  0  0  0  0
  186.6510  177.2560  137.8820 C   0  0  2  0  0  3  0  0  0  0  0  0
  189.2810  174.9710  136.6180 C   0  0  0  0  0  1  0  0  0  0  0  0
  187.3560  179.2210  136.3580 C   0  0  0  0  0  1  0  0  0  0  0  0
  183.4140  178.9540  144.1970 C   0  0  0  0  0  0  0  0  0  0  0  0
  182.1410  178.8650  143.6280 C   0  0  0  0  0  3  0  0  0  0  0  0
  184.4270  178.7630  141.9910 C   0  0  0  0  0  0  0  0  0  0  0  0
  182.0040  178.7210  142.2450 C   0  0  0  0  0  3  0  0  0  0  0  0
  184.5480  178.9090  143.3830 C   0  0  0  0  0  3  0  0  0  0  0  0
  183.1400  178.6710  141.4320 C   0  0  0  0  0  3  0  0  0  0  0  0
  183.5470  179.1030  145.5350 F   0  0  0  0  0  0  0  0  0  0  0  0
  183.4760  178.0700  138.0710 C   0  0  0  0  0  1  0  0  0  0  0  0
  184.4130  179.4500  138.7840 S   0  0  0  0  0  0  0  0  0  0  0  0
  189.3000  178.2570  139.0290 C   0  0  0  0  0  2  0  0  0  0  0  0
  191.0040  176.6080  138.7090 F   0  0  0  0  0  0  0  0  0  0  0  0
  190.4720  177.4890  139.6330 C   0  0  2  0  0  3  0  0  0  0  0  0
  190.0810  176.7960  140.7820 O   0  0  0  0  0  0  0  0  0  0  0  0
  190.9560  177.2400  141.7790 C   0  0  0  0  0  2  0  0  0  0  0  0
  191.5440  176.2860  143.9640 C   0  0  0  0  0  1  0  0  0  0  0  0
  190.4170  176.9190  143.1670 C   0  0  0  0  0  0  0  0  0  0  0  0
  189.9810  178.2190  143.8650 C   0  0  0  0  0  2  0  0  0  0  0  0
  187.9270  177.0370  144.8280 C   0  0  0  0  0  2  0  0  0  0  0  0
  187.9110  176.4710  143.4090 C   0  0  0  0  0  2  0  0  0  0  0  0
  189.2770  175.8910  143.0500 C   0  0  0  0  0  2  0  0  0  0  0  0
  189.1350  177.9410  145.1100 C   0  0  0  0  0  2  0  0  0  0  0  0
  1 11  1  6  0  0  0
  1  3  1  0  0  0  0
  1  6  1  0  0  0  0
  2  4  1  0  0  0  0
  3 22  1  6  0  0  0
  3  5  1  0  0  0  0
  5  4  2  0  0  0  0
  5 16  1  0  0  0  0
  6 23  1  6  0  0  0
  6  2  1  0  0  0  0
  8 13  1  1  0  0  0
  8 11  1  0  0  0  0
  9  7  1  0  0  0  0
 10  8  1  0  0  0  0
 10  9  2  0  0  0  0
 11  7  1  1  0  0  0
 12  9  1  0  0  0  0
 14 20  1  0  0  0  0
 15 14  1  0  0  0  0
 16 18  1  0  0  0  0
 17 15  2  0  0  0  0
 18 14  2  0  0  0  0
 19 16  2  0  0  0  0
 19 17  1  0  0  0  0
 21 22  1  0  0  0  0
 23 25  1  0  0  0  0
 25 24  1  6  0  0  0
 25 26  1  0  0  0  0
 26 27  1  0  0  0  0
 27 29  1  0  0  0  0
 29 30  1  0  0  0  0
 29 28  1  0  0  0  0
 30 34  1  0  0  0  0
 31 34  1  0  0  0  0
 32 31  1  0  0  0  0
 33 29  1  0  0  0  0
 33 32  1  0  0  0  0
M  END
>  <MODEL>
1

>  <REMARK>
 VINA RESULT:      -8.4      0.000      0.000
  Name = 
  8 active torsions:
  status: ('A' for Active; 'I' for Inactive)
    1  A    between atoms: C_3  and  C_13
    2  A    between atoms: C_3  and  O_17
    3  A    between atoms: N_4  and  C_15
    4  A    between atoms: C_10  and  C_29
    5  A    between atoms: C_10  and  C_31
    6  A    between atoms: C_12  and  C_28
    7  A    between atoms: O_17  and  C_29
    8  A    between atoms: C_21  and  S_32
                            x       y       z     vdW  Elec       q    Type
                         _______ _______ _______ _____ _____    ______ ____

>  <TORSDO>
F 8

$$$$
=
 OpenBabel10252414533D

 34 37  0  0  1  0  0  0  0  0999 V2000
  190.8070  175.9040  136.4880 N   0  0  1  0  0  0  0  0  0  0  0  0
  191.9550  176.1620  138.5550 O   0  0  0  0  0  0  0  0  0  0  0  0
  192.1040  175.8920  135.7770 C   0  0  1  0  0  3  0  0  0  0  0  0
  193.2130  176.0540  137.9800 C   0  0  0  0  0  3  0  0  0  0  0  0
  193.3440  175.9810  136.6570 C   0  0  0  0  0  0  0  0  0  0  0  0
  190.8540  176.6150  137.7840 C   0  0  2  0  0  3  0  0  0  0  0  0
  189.2800  177.7280  135.9990 O   0  0  0  0  0  0  0  0  0  0  0  0
  188.6050  175.6220  135.2600 C   0  0  1  0  0  3  0  0  0  0  0  0
  187.9050  177.6110  136.0070 C   0  0  0  0  0  0  0  0  0  0  0  0
  187.4720  176.4620  135.6230 N   0  0  0  0  0  0  0  0  0  0  0  0
  189.8420  176.5050  135.5420 C   0  0  2  0  0  3  0  0  0  0  0  0
  186.9990  178.7030  136.4480 C   0  0  0  0  0  1  0  0  0  0  0  0
  188.5610  174.3170  136.0450 C   0  0  0  0  0  1  0  0  0  0  0  0
  196.9100  175.0600  135.7420 C   0  0  0  0  0  0  0  0  0  0  0  0
  197.2550  176.0980  134.8730 C   0  0  0  0  0  3  0  0  0  0  0  0
  194.7020  176.0370  136.0540 C   0  0  0  0  0  0  0  0  0  0  0  0
  196.3320  177.1080  134.5940 C   0  0  0  0  0  3  0  0  0  0  0  0
  195.6400  175.0280  136.3230 C   0  0  0  0  0  3  0  0  0  0  0  0
  195.0630  177.0780  135.1800 C   0  0  0  0  0  3  0  0  0  0  0  0
  197.8000  174.0750  136.0060 F   0  0  0  0  0  0  0  0  0  0  0  0
  192.0610  173.3010  136.2180 C   0  0  0  0  0  1  0  0  0  0  0  0
  192.1870  174.3760  134.7620 S   0  0  0  0  0  0  0  0  0  0  0  0
  189.5760  176.3660  138.5820 C   0  0  0  0  0  2  0  0  0  0  0  0
  189.6180  178.7280  138.9610 F   0  0  0  0  0  0  0  0  0  0  0  0
  189.2500  177.5210  139.5260 C   0  0  2  0  0  3  0  0  0  0  0  0
  189.8870  177.3570  140.7590 O   0  0  0  0  0  0  0  0  0  0  0  0
  189.0110  177.9270  141.6890 C   0  0  0  0  0  2  0  0  0  0  0  0
  189.9880  176.0020  142.8580 C   0  0  0  0  0  1  0  0  0  0  0  0
  189.1020  177.2220  143.0360 C   0  0  0  0  0  0  0  0  0  0  0  0
  189.7470  178.1620  144.0690 C   0  0  0  0  0  2  0  0  0  0  0  0
  188.1010  177.3600  145.8560 C   0  0  0  0  0  2  0  0  0  0  0  0
  187.1500  177.4910  144.6670 C   0  0  0  0  0  2  0  0  0  0  0  0
  187.7020  176.7390  143.4580 C   0  0  0  0  0  2  0  0  0  0  0  0
  189.5660  177.6460  145.4990 C   0  0  0  0  0  2  0  0  0  0  0  0
  1 11  1  6  0  0  0
  1  6  1  0  0  0  0
  3 22  1  1  0  0  0
  3  1  1  0  0  0  0
  3  5  1  0  0  0  0
  4  2  1  0  0  0  0
  5  4  2  0  0  0  0
  6  2  1  0  0  0  0
  6 23  1  1  0  0  0
  7  9  1  0  0  0  0
  8 11  1  0  0  0  0
  8 10  1  0  0  0  0
  8 13  1  1  0  0  0
  9 12  1  0  0  0  0
 10  9  2  0  0  0  0
 11  7  1  1  0  0  0
 14 20  1  0  0  0  0
 14 18  1  0  0  0  0
 15 14  2  0  0  0  0
 16 18  2  0  0  0  0
 16  5  1  0  0  0  0
 17 15  1  0  0  0  0
 17 19  2  0  0  0  0
 19 16  1  0  0  0  0
 22 21  1  0  0  0  0
 23 25  1  0  0  0  0
 25 24  1  6  0  0  0
 25 26  1  0  0  0  0
 26 27  1  0  0  0  0
 27 29  1  0  0  0  0
 28 29  1  0  0  0  0
 29 33  1  0  0  0  0
 29 30  1  0  0  0  0
 30 34  1  0  0  0  0
 32 31  1  0  0  0  0
 33 32  1  0  0  0  0
 34 31  1  0  0  0  0
M  END
>  <MODEL>
2

>  <REMARK>
 VINA RESULT:      -7.6      4.098      8.203
  Name = 
  8 active torsions:
  status: ('A' for Active; 'I' for Inactive)
    1  A    between atoms: C_3  and  C_13
    2  A    between atoms: C_3  and  O_17
    3  A    between atoms: N_4  and  C_15
    4  A    between atoms: C_10  and  C_29
    5  A    between atoms: C_10  and  C_31
    6  A    between atoms: C_12  and  C_28
    7  A    between atoms: O_17  and  C_29
    8  A    between atoms: C_21  and  S_32
                            x       y       z     vdW  Elec       q    Type
                         _______ _______ _______ _____ _____    ______ ____

>  <TORSDO>
F 8

$$$$
=
 OpenBabel10252414533D

 34 37  0  0  1  0  0  0  0  0999 V2000
  186.8000  177.1590  137.1550 N   0  0  1  0  0  0  0  0  0  0  0  0
  186.4620  178.7280  138.9110 O   0  0  0  0  0  0  0  0  0  0  0  0
  185.3570  176.8340  137.1770 C   0  0  1  0  0  3  0  0  0  0  0  0
  185.0850  178.5610  138.9250 C   0  0  0  0  0  3  0  0  0  0  0  0
  184.5120  177.6330  138.1610 C   0  0  0  0  0  0  0  0  0  0  0  0
  187.3030  177.6870  138.4420 C   0  0  2  0  0  3  0  0  0  0  0  0
  188.4640  175.4670  137.6680 O   0  0  0  0  0  0  0  0  0  0  0  0
  188.2610  176.0320  135.4150 C   0  0  1  0  0  3  0  0  0  0  0  0
  189.6700  175.3410  137.0090 C   0  0  0  0  0  0  0  0  0  0  0  0
  189.6240  175.6550  135.7620 N   0  0  0  0  0  0  0  0  0  0  0  0
  187.4810  175.9120  136.7430 C   0  0  2  0  0  3  0  0  0  0  0  0
  190.9230  174.9090  137.6820 C   0  0  0  0  0  1  0  0  0  0  0  0
  188.2460  177.4210  134.7890 C   0  0  0  0  0  1  0  0  0  0  0  0
  181.2620  175.9690  139.1980 C   0  0  0  0  0  0  0  0  0  0  0  0
  180.3150  176.8500  138.6720 C   0  0  0  0  0  3  0  0  0  0  0  0
  183.0590  177.3550  138.3170 C   0  0  0  0  0  0  0  0  0  0  0  0
  180.7310  177.9810  137.9660 C   0  0  0  0  0  3  0  0  0  0  0  0
  182.6250  176.2230  139.0260 C   0  0  0  0  0  3  0  0  0  0  0  0
  182.0950  178.2320  137.7900 C   0  0  0  0  0  3  0  0  0  0  0  0
  180.8600  174.8780  139.8910 F   0  0  0  0  0  0  0  0  0  0  0  0
  184.0990  175.3430  135.4150 C   0  0  0  0  0  1  0  0  0  0  0  0
  184.6940  177.0550  135.4890 S   0  0  0  0  0  0  0  0  0  0  0  0
  188.7140  178.2470  138.2800 C   0  0  0  0  0  2  0  0  0  0  0  0
  190.8170  177.7930  139.3280 F   0  0  0  0  0  0  0  0  0  0  0  0
  189.5140  178.1830  139.5780 C   0  0  2  0  0  3  0  0  0  0  0  0
  188.9210  177.3070  140.4910 O   0  0  0  0  0  0  0  0  0  0  0  0
  188.7120  178.0790  141.6400 C   0  0  0  0  0  2  0  0  0  0  0  0
  189.9650  176.1430  142.4800 C   0  0  0  0  0  1  0  0  0  0  0  0
  189.0860  177.3080  142.8980 C   0  0  0  0  0  0  0  0  0  0  0  0
  189.8850  178.2210  143.8450 C   0  0  0  0  0  2  0  0  0  0  0  0
  188.6460  177.2490  145.8610 C   0  0  0  0  0  2  0  0  0  0  0  0
  187.4790  177.3980  144.8860 C   0  0  0  0  0  2  0  0  0  0  0  0
  187.8130  176.7380  143.5490 C   0  0  0  0  0  2  0  0  0  0  0  0
  190.0030  177.6220  145.2480 C   0  0  0  0  0  2  0  0  0  0  0  0
  1 11  1  1  0  0  0
  1  3  1  0  0  0  0
  1  6  1  0  0  0  0
  2  4  1  0  0  0  0
  3 22  1  6  0  0  0
  3  5  1  0  0  0  0
  5 16  1  0  0  0  0
  5  4  2  0  0  0  0
  6 23  1  6  0  0  0
  6  2  1  0  0  0  0
  8 13  1  1  0  0  0
  8 10  1  0  0  0  0
  8 11  1  0  0  0  0
  9  7  1  0  0  0  0
  9 12  1  0  0  0  0
 10  9  2  0  0  0  0
 11  7  1  1  0  0  0
 14 20  1  0  0  0  0
 15 14  2  0  0  0  0
 16 18  2  0  0  0  0
 17 15  1  0  0  0  0
 18 14  1  0  0  0  0
 19 17  2  0  0  0  0
 19 16  1  0  0  0  0
 21 22  1  0  0  0  0
 23 25  1  0  0  0  0
 25 24  1  6  0  0  0
 25 26  1  0  0  0  0
 26 27  1  0  0  0  0
 27 29  1  0  0  0  0
 28 29  1  0  0  0  0
 29 33  1  0  0  0  0
 29 30  1  0  0  0  0
 30 34  1  0  0  0  0
 32 31  1  0  0  0  0
 33 32  1  0  0  0  0
 34 31  1  0  0  0  0
M  END
>  <MODEL>
3

>  <REMARK>
 VINA RESULT:      -7.5      2.577      3.164
  Name = 
  8 active torsions:
  status: ('A' for Active; 'I' for Inactive)
    1  A    between atoms: C_3  and  C_13
    2  A    between atoms: C_3  and  O_17
    3  A    between atoms: N_4  and  C_15
    4  A    between atoms: C_10  and  C_29
    5  A    between atoms: C_10  and  C_31
    6  A    between atoms: C_12  and  C_28
    7  A    between atoms: O_17  and  C_29
    8  A    between atoms: C_21  and  S_32
                            x       y       z     vdW  Elec       q    Type
                         _______ _______ _______ _____ _____    ______ ____

>  <TORSDO>
F 8

$$$$
=
 OpenBabel10252414533D

 34 37  0  0  1  0  0  0  0  0999 V2000
  183.5220  178.6840  141.0500 N   0  0  1  0  0  0  0  0  0  0  0  0
  185.8200  179.0810  140.5810 O   0  0  0  0  0  0  0  0  0  0  0  0
  183.8560  178.4770  142.4760 C   0  0  1  0  0  3  0  0  0  0  0  0
  186.2030  179.0080  141.9120 C   0  0  0  0  0  3  0  0  0  0  0  0
  185.3200  178.6670  142.8490 C   0  0  0  0  0  0  0  0  0  0  0  0
  184.6520  178.4100  140.1360 C   0  0  2  0  0  3  0  0  0  0  0  0
  182.6030  176.7920  139.8360 O   0  0  0  0  0  0  0  0  0  0  0  0
  181.1350  178.5670  140.1980 C   0  0  1  0  0  3  0  0  0  0  0  0
  181.6850  176.9000  138.8120 C   0  0  0  0  0  0  0  0  0  0  0  0
  180.8560  177.8740  138.9480 N   0  0  0  0  0  0  0  0  0  0  0  0
  182.3510  177.8180  140.7870 C   0  0  2  0  0  3  0  0  0  0  0  0
  181.6690  175.9920  137.6360 C   0  0  0  0  0  1  0  0  0  0  0  0
  181.3660  180.0500  139.9340 C   0  0  0  0  0  1  0  0  0  0  0  0
  187.4430  177.5250  145.7800 C   0  0  0  0  0  0  0  0  0  0  0  0
  186.7180  178.0260  146.8640 C   0  0  0  0  0  3  0  0  0  0  0  0
  185.7880  178.4300  144.2400 C   0  0  0  0  0  0  0  0  0  0  0  0
  185.5290  178.7240  146.6450 C   0  0  0  0  0  3  0  0  0  0  0  0
  186.9830  177.7310  144.4770 C   0  0  0  0  0  3  0  0  0  0  0  0
  185.0670  178.9250  145.3400 C   0  0  0  0  0  3  0  0  0  0  0  0
  188.6010  176.8570  145.9910 F   0  0  0  0  0  0  0  0  0  0  0  0
  181.6950  178.2710  143.9590 C   0  0  0  0  0  1  0  0  0  0  0  0
  182.8230  179.6050  143.4750 S   0  0  0  0  0  0  0  0  0  0  0  0
  184.3310  178.8910  138.7230 C   0  0  0  0  0  2  0  0  0  0  0  0
  185.1080  176.7570  137.9670 F   0  0  0  0  0  0  0  0  0  0  0  0
  185.0930  178.1050  137.6580 C   0  0  2  0  0  3  0  0  0  0  0  0
  186.4010  178.5790  137.5240 O   0  0  0  0  0  0  0  0  0  0  0  0
  187.1810  177.4270  137.3690 C   0  0  0  0  0  2  0  0  0  0  0  0
  188.9800  179.0970  137.3110 C   0  0  0  0  0  1  0  0  0  0  0  0
  188.6300  177.6880  137.7550 C   0  0  0  0  0  0  0  0  0  0  0  0
  188.7830  177.5940  139.2830 C   0  0  0  0  0  2  0  0  0  0  0  0
  191.0210  176.3860  139.0070 C   0  0  0  0  0  2  0  0  0  0  0  0
  190.2090  175.6820  137.9200 C   0  0  0  0  0  2  0  0  0  0  0  0
  189.5470  176.7070  137.0010 C   0  0  0  0  0  2  0  0  0  0  0  0
  190.2520  177.5160  139.7050 C   0  0  0  0  0  2  0  0  0  0  0  0
  1 11  1  6  0  0  0
  1  3  1  0  0  0  0
  2  4  1  0  0  0  0
  3  5  1  0  0  0  0
  3 22  1  1  0  0  0
  4  5  2  0  0  0  0
  5 16  1  0  0  0  0
  6 23  1  6  0  0  0
  6  2  1  0  0  0  0
  6  1  1  0  0  0  0
  8 13  1  6  0  0  0
  8 11  1  0  0  0  0
  9 10  2  0  0  0  0
  9  7  1  0  0  0  0
 10  8  1  0  0  0  0
 11  7  1  6  0  0  0
 12  9  1  0  0  0  0
 14 20  1  0  0  0  0
 14 15  1  0  0  0  0
 16 18  1  0  0  0  0
 16 19  2  0  0  0  0
 17 15  2  0  0  0  0
 18 14  2  0  0  0  0
 19 17  1  0  0  0  0
 22 21  1  0  0  0  0
 25 24  1  1  0  0  0
 25 23  1  0  0  0  0
 26 25  1  0  0  0  0
 27 26  1  0  0  0  0
 27 29  1  0  0  0  0
 28 29  1  0  0  0  0
 29 30  1  0  0  0  0
 30 34  1  0  0  0  0
 31 34  1  0  0  0  0
 32 31  1  0  0  0  0
 33 29  1  0  0  0  0
 33 32  1  0  0  0  0
M  END
>  <MODEL>
4

>  <REMARK>
 VINA RESULT:      -7.4      2.896      5.415
  Name = 
  8 active torsions:
  status: ('A' for Active; 'I' for Inactive)
    1  A    between atoms: C_3  and  C_13
    2  A    between atoms: C_3  and  O_17
    3  A    between atoms: N_4  and  C_15
    4  A    between atoms: C_10  and  C_29
    5  A    between atoms: C_10  and  C_31
    6  A    between atoms: C_12  and  C_28
    7  A    between atoms: O_17  and  C_29
    8  A    between atoms: C_21  and  S_32
                            x       y       z     vdW  Elec       q    Type
                         _______ _______ _______ _____ _____    ______ ____

>  <TORSDO>
F 8

$$$$
=
 OpenBabel10252414533D

 34 37  0  0  1  0  0  0  0  0999 V2000
  183.1650  177.3840  139.1210 N   0  0  1  0  0  0  0  0  0  0  0  0
  185.1720  178.6590  139.0710 O   0  0  0  0  0  0  0  0  0  0  0  0
  183.1200  177.5250  140.5930 C   0  0  1  0  0  3  0  0  0  0  0  0
  185.1490  178.9280  140.4310 C   0  0  0  0  0  3  0  0  0  0  0  0
  184.2270  178.3670  141.2120 C   0  0  0  0  0  0  0  0  0  0  0  0
  184.5270  177.5020  138.5600 C   0  0  2  0  0  3  0  0  0  0  0  0
  183.4310  175.1320  138.2500 O   0  0  0  0  0  0  0  0  0  0  0  0
  181.3780  176.1480  137.8110 C   0  0  1  0  0  3  0  0  0  0  0  0
  182.9030  174.6980  137.0520 C   0  0  0  0  0  0  0  0  0  0  0  0
  181.7750  175.2360  136.7470 N   0  0  0  0  0  0  0  0  0  0  0  0
  182.5380  176.0760  138.8290 C   0  0  2  0  0  3  0  0  0  0  0  0
  183.5870  173.7150  136.1720 C   0  0  0  0  0  1  0  0  0  0  0  0
  181.1160  177.5360  137.2390 C   0  0  0  0  0  1  0  0  0  0  0  0
  185.6300  178.4290  144.7380 C   0  0  0  0  0  0  0  0  0  0  0  0
  184.5360  178.9000  145.4680 C   0  0  0  0  0  3  0  0  0  0  0  0
  184.3220  178.5330  142.6880 C   0  0  0  0  0  0  0  0  0  0  0  0
  183.3340  179.1850  144.8170 C   0  0  0  0  0  3  0  0  0  0  0  0
  185.5250  178.2530  143.3560 C   0  0  0  0  0  3  0  0  0  0  0  0
  183.2280  179.0030  143.4350 C   0  0  0  0  0  3  0  0  0  0  0  0
  186.7990  178.1630  145.3670 F   0  0  0  0  0  0  0  0  0  0  0  0
  181.6920  179.6270  139.9210 C   0  0  0  0  0  1  0  0  0  0  0  0
  181.4960  178.2230  141.0530 S   0  0  0  0  0  0  0  0  0  0  0  0
  184.4770  177.6150  137.0380 C   0  0  0  0  0  2  0  0  0  0  0  0
  186.0960  175.8530  137.0170 F   0  0  0  0  0  0  0  0  0  0  0  0
  185.7130  177.0160  136.3730 C   0  0  2  0  0  3  0  0  0  0  0  0
  186.7710  177.9280  136.3650 O   0  0  0  0  0  0  0  0  0  0  0  0
  187.9220  177.1370  136.4570 C   0  0  0  0  0  2  0  0  0  0  0  0
  189.0550  179.1770  137.2190 C   0  0  0  0  0  1  0  0  0  0  0  0
  188.8910  177.6930  137.4920 C   0  0  0  0  0  0  0  0  0  0  0  0
  188.3050  177.5050  138.9020 C   0  0  0  0  0  2  0  0  0  0  0  0
  190.6150  176.8780  139.8020 C   0  0  0  0  0  2  0  0  0  0  0  0
  190.6300  176.1020  138.4860 C   0  0  0  0  0  2  0  0  0  0  0  0
  190.2660  177.0200  137.3210 C   0  0  0  0  0  2  0  0  0  0  0  0
  189.3560  177.7340  139.9910 C   0  0  0  0  0  2  0  0  0  0  0  0
  1 11  1  1  0  0  0
  1  3  1  0  0  0  0
  2  4  1  0  0  0  0
  3 22  1  6  0  0  0
  3  5  1  0  0  0  0
  4  5  2  0  0  0  0
  5 16  1  0  0  0  0
  6 23  1  6  0  0  0
  6  2  1  0  0  0  0
  6  1  1  0  0  0  0
  8 13  1  6  0  0  0
  8 11  1  0  0  0  0
  9  7  1  0  0  0  0
 10  9  2  0  0  0  0
 10  8  1  0  0  0  0
 11  7  1  6  0  0  0
 12  9  1  0  0  0  0
 14 20  1  0  0  0  0
 14 15  1  0  0  0  0
 16 18  1  0  0  0  0
 16 19  2  0  0  0  0
 17 15  2  0  0  0  0
 18 14  2  0  0  0  0
 19 17  1  0  0  0  0
 21 22  1  0  0  0  0
 25 24  1  1  0  0  0
 25 23  1  0  0  0  0
 26 25  1  0  0  0  0
 26 27  1  0  0  0  0
 27 29  1  0  0  0  0
 28 29  1  0  0  0  0
 29 30  1  0  0  0  0
 30 34  1  0  0  0  0
 31 34  1  0  0  0  0
 32 31  1  0  0  0  0
 33 29  1  0  0  0  0
 33 32  1  0  0  0  0
M  END
>  <MODEL>
5

>  <REMARK>
 VINA RESULT:      -7.4      2.842      4.684
  Name = 
  8 active torsions:
  status: ('A' for Active; 'I' for Inactive)
    1  A    between atoms: C_3  and  C_13
    2  A    between atoms: C_3  and  O_17
    3  A    between atoms: N_4  and  C_15
    4  A    between atoms: C_10  and  C_29
    5  A    between atoms: C_10  and  C_31
    6  A    between atoms: C_12  and  C_28
    7  A    between atoms: O_17  and  C_29
    8  A    between atoms: C_21  and  S_32
                            x       y       z     vdW  Elec       q    Type
                         _______ _______ _______ _____ _____    ______ ____

>  <TORSDO>
F 8

$$$$
=
 OpenBabel10252414533D

 34 37  0  0  1  0  0  0  0  0999 V2000
  189.3140  177.6270  139.7070 N   0  0  1  0  0  0  0  0  0  0  0  0
  191.3000  177.0680  140.8910 O   0  0  0  0  0  0  0  0  0  0  0  0
  188.5790  177.7020  140.9880 C   0  0  1  0  0  3  0  0  0  0  0  0
  190.7130  177.2200  142.1380 C   0  0  0  0  0  3  0  0  0  0  0  0
  189.4090  177.4650  142.2430 C   0  0  0  0  0  0  0  0  0  0  0  0
  190.5020  176.7500  139.7610 C   0  0  2  0  0  3  0  0  0  0  0  0
  188.6560  175.9540  138.0750 O   0  0  0  0  0  0  0  0  0  0  0  0
  188.1400  178.1590  137.5210 C   0  0  1  0  0  3  0  0  0  0  0  0
  188.6880  176.1480  136.7100 C   0  0  0  0  0  0  0  0  0  0  0  0
  188.4260  177.3530  136.3430 N   0  0  0  0  0  0  0  0  0  0  0  0
  188.3200  177.1830  138.7050 C   0  0  2  0  0  3  0  0  0  0  0  0
  189.0230  175.0710  135.7430 C   0  0  0  0  0  1  0  0  0  0  0  0
  189.0540  179.3780  137.5550 C   0  0  0  0  0  1  0  0  0  0  0  0
  188.9080  177.8460  145.9860 C   0  0  0  0  0  0  0  0  0  0  0  0
  187.5610  177.5020  146.1260 C   0  0  0  0  0  3  0  0  0  0  0  0
  188.7710  177.4560  143.5870 C   0  0  0  0  0  0  0  0  0  0  0  0
  186.8160  177.1300  145.0050 C   0  0  0  0  0  3  0  0  0  0  0  0
  189.5060  177.8290  144.7240 C   0  0  0  0  0  3  0  0  0  0  0  0
  187.4180  177.1080  143.7430 C   0  0  0  0  0  3  0  0  0  0  0  0
  189.6280  178.2160  147.0710 F   0  0  0  0  0  0  0  0  0  0  0  0
  186.1210  178.6260  140.8580 C   0  0  0  0  0  1  0  0  0  0  0  0
  187.7730  179.3380  141.0930 S   0  0  0  0  0  0  0  0  0  0  0  0
  191.3570  176.9210  138.5070 C   0  0  0  0  0  2  0  0  0  0  0  0
  193.6640  176.5600  139.0280 F   0  0  0  0  0  0  0  0  0  0  0  0
  192.5440  175.9620  138.4810 C   0  0  2  0  0  3  0  0  0  0  0  0
  192.8180  175.5370  137.1780 O   0  0  0  0  0  0  0  0  0  0  0  0
  192.9910  174.1520  137.2860 C   0  0  0  0  0  2  0  0  0  0  0  0
  194.4460  172.6390  136.0130 C   0  0  0  0  0  1  0  0  0  0  0  0
  194.4410  173.7580  137.0380 C   0  0  0  0  0  0  0  0  0  0  0  0
  195.2130  174.9610  136.4690 C   0  0  0  0  0  2  0  0  0  0  0  0
  197.2440  174.3660  137.9060 C   0  0  0  0  0  2  0  0  0  0  0  0
  196.1280  174.1350  138.9240 C   0  0  0  0  0  2  0  0  0  0  0  0
  195.0560  173.2160  138.3420 C   0  0  0  0  0  2  0  0  0  0  0  0
  196.7270  174.7370  136.5090 C   0  0  0  0  0  2  0  0  0  0  0  0
  1 11  1  6  0  0  0
  1  6  1  0  0  0  0
  1  3  1  0  0  0  0
  2  4  1  0  0  0  0
  3 22  1  1  0  0  0
  3  5  1  0  0  0  0
  4  5  2  0  0  0  0
  5 16  1  0  0  0  0
  6 23  1  6  0  0  0
  6  2  1  0  0  0  0
  8 13  1  1  0  0  0
  8 11  1  0  0  0  0
  9  7  1  0  0  0  0
 10  9  2  0  0  0  0
 10  8  1  0  0  0  0
 11  7  1  6  0  0  0
 12  9  1  0  0  0  0
 14 15  1  0  0  0  0
 14 20  1  0  0  0  0
 16 19  2  0  0  0  0
 16 18  1  0  0  0  0
 17 15  2  0  0  0  0
 18 14  2  0  0  0  0
 19 17  1  0  0  0  0
 21 22  1  0  0  0  0
 25 23  1  0  0  0  0
 25 24  1  6  0  0  0
 26 27  1  0  0  0  0
 26 25  1  0  0  0  0
 28 29  1  0  0  0  0
 29 27  1  0  0  0  0
 29 33  1  0  0  0  0
 30 34  1  0  0  0  0
 30 29  1  0  0  0  0
 31 32  1  0  0  0  0
 33 32  1  0  0  0  0
 34 31  1  0  0  0  0
M  END
>  <MODEL>
6

>  <REMARK>
 VINA RESULT:      -7.0      3.583      5.694
  Name = 
  8 active torsions:
  status: ('A' for Active; 'I' for Inactive)
    1  A    between atoms: C_3  and  C_13
    2  A    between atoms: C_3  and  O_17
    3  A    between atoms: N_4  and  C_15
    4  A    between atoms: C_10  and  C_29
    5  A    between atoms: C_10  and  C_31
    6  A    between atoms: C_12  and  C_28
    7  A    between atoms: O_17  and  C_29
    8  A    between atoms: C_21  and  S_32
                            x       y       z     vdW  Elec       q    Type
                         _______ _______ _______ _____ _____    ______ ____

>  <TORSDO>
F 8

$$$$
=
 OpenBabel10252414533D

 34 37  0  0  1  0  0  0  0  0999 V2000
  190.2540  176.5000  138.4360 N   0  0  1  0  0  0  0  0  0  0  0  0
  192.3480  177.1370  139.3670 O   0  0  0  0  0  0  0  0  0  0  0  0
  189.6110  176.7190  139.7490 C   0  0  1  0  0  3  0  0  0  0  0  0
  191.8080  177.4680  140.6010 C   0  0  0  0  0  3  0  0  0  0  0  0
  190.5210  177.2350  140.8560 C   0  0  0  0  0  0  0  0  0  0  0  0
  191.6970  176.1930  138.5310 C   0  0  2  0  0  3  0  0  0  0  0  0
  190.2270  174.2230  137.5930 O   0  0  0  0  0  0  0  0  0  0  0  0
  188.9700  175.7630  136.3750 C   0  0  1  0  0  3  0  0  0  0  0  0
  190.1900  173.8920  136.2540 C   0  0  0  0  0  0  0  0  0  0  0  0
  189.5220  174.7160  135.5260 N   0  0  0  0  0  0  0  0  0  0  0  0
  189.4800  175.4160  137.7920 C   0  0  2  0  0  3  0  0  0  0  0  0
  190.8830  172.7050  135.6900 C   0  0  0  0  0  1  0  0  0  0  0  0
  189.3970  177.1330  135.8610 C   0  0  0  0  0  1  0  0  0  0  0  0
  188.3290  176.9860  143.9440 C   0  0  0  0  0  0  0  0  0  0  0  0
  189.0440  177.7630  144.8600 C   0  0  0  0  0  3  0  0  0  0  0  0
  190.0030  177.4380  142.2350 C   0  0  0  0  0  0  0  0  0  0  0  0
  190.2330  178.3820  144.4700 C   0  0  0  0  0  3  0  0  0  0  0  0
  188.8100  176.8210  142.6430 C   0  0  0  0  0  3  0  0  0  0  0  0
  190.7100  178.2200  143.1660 C   0  0  0  0  0  3  0  0  0  0  0  0
  187.1820  176.3780  144.3240 F   0  0  0  0  0  0  0  0  0  0  0  0
  189.2180  179.0030  138.5080 C   0  0  0  0  0  1  0  0  0  0  0  0
  188.2180  177.8780  139.5190 S   0  0  0  0  0  0  0  0  0  0  0  0
  192.3510  176.2410  137.1530 C   0  0  0  0  0  2  0  0  0  0  0  0
  193.3500  174.2250  137.9690 F   0  0  0  0  0  0  0  0  0  0  0  0
  193.4700  175.2130  137.0080 C   0  0  2  0  0  3  0  0  0  0  0  0
  194.7260  175.8200  137.1010 O   0  0  0  0  0  0  0  0  0  0  0  0
  195.3130  175.6140  135.8480 C   0  0  0  0  0  2  0  0  0  0  0  0
  197.5530  175.0610  135.0100 C   0  0  0  0  0  1  0  0  0  0  0  0
  196.4400  174.5930  135.9290 C   0  0  0  0  0  0  0  0  0  0  0  0
  196.9760  174.5290  137.3700 C   0  0  0  0  0  2  0  0  0  0  0  0
  197.1900  171.9860  137.2010 C   0  0  0  0  0  2  0  0  0  0  0  0
  195.8350  172.1790  136.5200 C   0  0  0  0  0  2  0  0  0  0  0  0
  195.9380  173.2310  135.4170 C   0  0  0  0  0  2  0  0  0  0  0  0
  197.8680  173.3060  137.5920 C   0  0  0  0  0  2  0  0  0  0  0  0
  1 11  1  1  0  0  0
  1  6  1  0  0  0  0
  1  3  1  0  0  0  0
  2  4  1  0  0  0  0
  3 22  1  6  0  0  0
  3  5  1  0  0  0  0
  4  5  2  0  0  0  0
  5 16  1  0  0  0  0
  6 23  1  6  0  0  0
  6  2  1  0  0  0  0
  8 13  1  6  0  0  0
  8 11  1  0  0  0  0
  9  7  1  0  0  0  0
 10  9  2  0  0  0  0
 10  8  1  0  0  0  0
 11  7  1  6  0  0  0
 12  9  1  0  0  0  0
 14 20  1  0  0  0  0
 14 15  1  0  0  0  0
 16 18  1  0  0  0  0
 16 19  2  0  0  0  0
 17 15  2  0  0  0  0
 18 14  2  0  0  0  0
 19 17  1  0  0  0  0
 21 22  1  0  0  0  0
 25 26  1  0  0  0  0
 25 23  1  0  0  0  0
 25 24  1  1  0  0  0
 27 29  1  0  0  0  0
 27 26  1  0  0  0  0
 28 29  1  0  0  0  0
 29 30  1  0  0  0  0
 30 34  1  0  0  0  0
 31 34  1  0  0  0  0
 32 31  1  0  0  0  0
 33 29  1  0  0  0  0
 33 32  1  0  0  0  0
M  END
>  <MODEL>
7

>  <REMARK>
 VINA RESULT:      -6.8      4.369      6.771
  Name = 
  8 active torsions:
  status: ('A' for Active; 'I' for Inactive)
    1  A    between atoms: C_3  and  C_13
    2  A    between atoms: C_3  and  O_17
    3  A    between atoms: N_4  and  C_15
    4  A    between atoms: C_10  and  C_29
    5  A    between atoms: C_10  and  C_31
    6  A    between atoms: C_12  and  C_28
    7  A    between atoms: O_17  and  C_29
    8  A    between atoms: C_21  and  S_32
                            x       y       z     vdW  Elec       q    Type
                         _______ _______ _______ _____ _____    ______ ____

>  <TORSDO>
F 8

$$$$
=
 OpenBabel10252414533D

 34 37  0  0  1  0  0  0  0  0999 V2000
  181.5290  179.2620  140.6140 N   0  0  1  0  0  0  0  0  0  0  0  0
  183.2990  179.2990  139.0250 O   0  0  0  0  0  0  0  0  0  0  0  0
  180.7430  180.1690  139.7500 C   0  0  1  0  0  3  0  0  0  0  0  0
  182.5900  180.0610  138.1090 C   0  0  0  0  0  3  0  0  0  0  0  0
  181.3910  180.5500  138.4250 C   0  0  0  0  0  0  0  0  0  0  0  0
  182.9890  179.3730  140.4080 C   0  0  2  0  0  3  0  0  0  0  0  0
  182.2160  179.8260  142.8750 O   0  0  0  0  0  0  0  0  0  0  0  0
  180.3390  178.4530  142.7030 C   0  0  1  0  0  3  0  0  0  0  0  0
  182.1250  178.9650  143.9490 C   0  0  0  0  0  0  0  0  0  0  0  0
  181.1150  178.1700  143.9030 N   0  0  0  0  0  0  0  0  0  0  0  0
  181.1220  179.5840  142.0000 C   0  0  2  0  0  3  0  0  0  0  0  0
  183.1190  178.9350  145.0530 C   0  0  0  0  0  1  0  0  0  0  0  0
  180.1720  177.1840  141.8780 C   0  0  0  0  0  1  0  0  0  0  0  0
  179.9550  183.7540  136.9850 C   0  0  0  0  0  0  0  0  0  0  0  0
  179.5200  183.3270  135.7280 C   0  0  0  0  0  3  0  0  0  0  0  0
  180.7250  181.5020  137.4970 C   0  0  0  0  0  0  0  0  0  0  0  0
  179.6810  181.9920  135.3510 C   0  0  0  0  0  3  0  0  0  0  0  0
  180.5580  182.8480  137.8600 C   0  0  0  0  0  3  0  0  0  0  0  0
  180.2800  181.0850  136.2300 C   0  0  0  0  0  3  0  0  0  0  0  0
  179.8080  185.0500  137.3470 F   0  0  0  0  0  0  0  0  0  0  0  0
  179.8710  178.0200  138.5120 C   0  0  0  0  0  1  0  0  0  0  0  0
  179.1210  179.3930  139.4300 S   0  0  0  0  0  0  0  0  0  0  0  0
  183.7220  178.2410  141.1240 C   0  0  0  0  0  2  0  0  0  0  0  0
  186.0080  178.3970  140.4350 F   0  0  0  0  0  0  0  0  0  0  0  0
  185.1520  178.6230  141.4980 C   0  0  2  0  0  3  0  0  0  0  0  0
  185.5850  177.9120  142.6200 O   0  0  0  0  0  0  0  0  0  0  0  0
  186.9510  178.2020  142.7180 C   0  0  0  0  0  2  0  0  0  0  0  0
  188.0120  176.0680  143.3070 C   0  0  0  0  0  1  0  0  0  0  0  0
  187.5990  177.4230  143.8540 C   0  0  0  0  0  0  0  0  0  0  0  0
  188.8540  178.1680  144.3410 C   0  0  0  0  0  2  0  0  0  0  0  0
  188.2740  177.6020  146.7670 C   0  0  0  0  0  2  0  0  0  0  0  0
  186.8860  177.9720  146.2480 C   0  0  0  0  0  2  0  0  0  0  0  0
  186.5670  177.1930  144.9730 C   0  0  0  0  0  2  0  0  0  0  0  0
  189.3570  177.6220  145.6800 C   0  0  0  0  0  2  0  0  0  0  0  0
  1 11  1  1  0  0  0
  2  6  1  0  0  0  0
  3 22  1  6  0  0  0
  3  1  1  0  0  0  0
  4  5  2  0  0  0  0
  4  2  1  0  0  0  0
  5  3  1  0  0  0  0
  6  1  1  0  0  0  0
  6 23  1  1  0  0  0
  7  9  1  0  0  0  0
  8 13  1  6  0  0  0
  8 10  1  0  0  0  0
  9 12  1  0  0  0  0
 10  9  2  0  0  0  0
 11  8  1  0  0  0  0
 11  7  1  1  0  0  0
 14 20  1  0  0  0  0
 14 18  1  0  0  0  0
 15 14  2  0  0  0  0
 16 18  2  0  0  0  0
 16  5  1  0  0  0  0
 17 15  1  0  0  0  0
 17 19  2  0  0  0  0
 19 16  1  0  0  0  0
 21 22  1  0  0  0  0
 23 25  1  0  0  0  0
 25 24  1  6  0  0  0
 25 26  1  0  0  0  0
 26 27  1  0  0  0  0
 27 29  1  0  0  0  0
 28 29  1  0  0  0  0
 29 30  1  0  0  0  0
 29 33  1  0  0  0  0
 30 34  1  0  0  0  0
 32 31  1  0  0  0  0
 33 32  1  0  0  0  0
 34 31  1  0  0  0  0
M  END
>  <MODEL>
8

>  <REMARK>
 VINA RESULT:      -6.7      4.237      6.706
  Name = 
  8 active torsions:
  status: ('A' for Active; 'I' for Inactive)
    1  A    between atoms: C_3  and  C_13
    2  A    between atoms: C_3  and  O_17
    3  A    between atoms: N_4  and  C_15
    4  A    between atoms: C_10  and  C_29
    5  A    between atoms: C_10  and  C_31
    6  A    between atoms: C_12  and  C_28
    7  A    between atoms: O_17  and  C_29
    8  A    between atoms: C_21  and  S_32
                            x       y       z     vdW  Elec       q    Type
                         _______ _______ _______ _____ _____    ______ ____

>  <TORSDO>
F 8

$$$$
=
 OpenBabel10252414533D

 34 37  0  0  1  0  0  0  0  0999 V2000
  189.0340  177.8670  142.1030 N   0  0  1  0  0  0  0  0  0  0  0  0
  188.1350  178.6940  140.0620 O   0  0  0  0  0  0  0  0  0  0  0  0
  190.0110  177.0610  141.3390 C   0  0  1  0  0  3  0  0  0  0  0  0
  189.0820  178.0560  139.2750 C   0  0  0  0  0  3  0  0  0  0  0  0
  189.9620  177.2220  139.8250 C   0  0  0  0  0  0  0  0  0  0  0  0
  187.8050  178.1780  141.3420 C   0  0  2  0  0  3  0  0  0  0  0  0
  187.3820  177.0150  143.6660 O   0  0  0  0  0  0  0  0  0  0  0  0
  189.4040  177.6950  144.6070 C   0  0  1  0  0  3  0  0  0  0  0  0
  187.2020  177.5020  144.9440 C   0  0  0  0  0  0  0  0  0  0  0  0
  188.2830  177.9080  145.5110 N   0  0  0  0  0  0  0  0  0  0  0  0
  188.7630  177.0950  143.3360 C   0  0  2  0  0  3  0  0  0  0  0  0
  185.8720  177.5790  145.6040 C   0  0  0  0  0  1  0  0  0  0  0  0
  190.1540  179.0030  144.3870 C   0  0  0  0  0  1  0  0  0  0  0  0
  191.1710  174.5890  137.3720 C   0  0  0  0  0  0  0  0  0  0  0  0
  192.5180  174.9330  137.2310 C   0  0  0  0  0  3  0  0  0  0  0  0
  190.8550  176.4200  138.9450 C   0  0  0  0  0  0  0  0  0  0  0  0
  193.0390  176.0140  137.9450 C   0  0  0  0  0  3  0  0  0  0  0  0
  190.3450  175.3320  138.2190 C   0  0  0  0  0  3  0  0  0  0  0  0
  192.2130  176.7530  138.7970 C   0  0  0  0  0  3  0  0  0  0  0  0
  190.6620  173.5480  136.6730 F   0  0  0  0  0  0  0  0  0  0  0  0
  191.7560  175.9960  142.9910 C   0  0  0  0  0  1  0  0  0  0  0  0
  191.6860  177.4720  141.9390 S   0  0  0  0  0  0  0  0  0  0  0  0
  186.9650  179.2200  142.0770 C   0  0  0  0  0  2  0  0  0  0  0  0
  184.9850  177.8780  142.0930 F   0  0  0  0  0  0  0  0  0  0  0  0
  185.4820  179.1160  141.7310 C   0  0  2  0  0  3  0  0  0  0  0  0
  185.2670  179.3360  140.3680 O   0  0  0  0  0  0  0  0  0  0  0  0
  183.8850  179.1940  140.1990 C   0  0  0  0  0  2  0  0  0  0  0  0
  184.8510  177.9300  138.3290 C   0  0  0  0  0  1  0  0  0  0  0  0
  183.5650  178.2030  139.0880 C   0  0  0  0  0  0  0  0  0  0  0  0
  183.0570  176.8860  139.7020 C   0  0  0  0  0  2  0  0  0  0  0  0
  181.3020  176.6780  137.8530 C   0  0  0  0  0  2  0  0  0  0  0  0
  181.1830  178.1710  138.1570 C   0  0  0  0  0  2  0  0  0  0  0  0
  182.5570  178.8350  138.1110 C   0  0  0  0  0  2  0  0  0  0  0  0
  182.4120  175.9800  138.6510 C   0  0  0  0  0  2  0  0  0  0  0  0
  1 11  1  1  0  0  0
  2  6  1  0  0  0  0
  3 22  1  1  0  0  0
  3  1  1  0  0  0  0
  4  5  2  0  0  0  0
  4  2  1  0  0  0  0
  5  3  1  0  0  0  0
  6 23  1  1  0  0  0
  6  1  1  0  0  0  0
  7  9  1  0  0  0  0
  8 13  1  6  0  0  0
  8 10  1  0  0  0  0
  9 10  2  0  0  0  0
  9 12  1  0  0  0  0
 11  7  1  1  0  0  0
 11  8  1  0  0  0  0
 14 18  1  0  0  0  0
 15 14  2  0  0  0  0
 15 17  1  0  0  0  0
 16  5  1  0  0  0  0
 17 19  2  0  0  0  0
 18 16  2  0  0  0  0
 19 16  1  0  0  0  0
 20 14  1  0  0  0  0
 22 21  1  0  0  0  0
 25 23  1  0  0  0  0
 25 24  1  6  0  0  0
 26 25  1  0  0  0  0
 27 26  1  0  0  0  0
 28 29  1  0  0  0  0
 29 30  1  0  0  0  0
 29 27  1  0  0  0  0
 31 32  1  0  0  0  0
 31 34  1  0  0  0  0
 33 32  1  0  0  0  0
 33 29  1  0  0  0  0
 34 30  1  0  0  0  0
M  END
>  <MODEL>
9

>  <REMARK>
 VINA RESULT:      -6.4      2.771      8.164
  Name = 
  8 active torsions:
  status: ('A' for Active; 'I' for Inactive)
    1  A    between atoms: C_3  and  C_13
    2  A    between atoms: C_3  and  O_17
    3  A    between atoms: N_4  and  C_15
    4  A    between atoms: C_10  and  C_29
    5  A    between atoms: C_10  and  C_31
    6  A    between atoms: C_12  and  C_28
    7  A    between atoms: O_17  and  C_29
    8  A    between atoms: C_21  and  S_32
                            x       y       z     vdW  Elec       q    Type
                         _______ _______ _______ _____ _____    ______ ____

>  <TORSDO>
F 8

$$$$
