=
 OpenBabel10262420133D

 27 31  0  0  1  0  0  0  0  0999 V2000
  188.5470  177.3880  143.5490 N   0  0  0  0  0  0  0  0  0  0  0  0
  188.8050  177.5320  142.1330 C   0  0  0  0  0  0  0  0  0  0  0  0
  189.7210  177.7740  138.1350 N   0  0  0  0  0  0  0  0  0  0  0  0
  191.2140  176.2140  136.8830 C   0  0  0  0  0  1  0  0  0  0  0  0
  188.2310  178.5950  141.3890 C   0  0  0  0  0  3  0  0  0  0  0  0
  190.6670  176.0550  139.3130 N   0  0  0  0  0  2  0  0  0  0  0  0
  189.8970  176.8010  140.1170 C   0  0  0  0  0  0  0  0  0  0  0  0
  190.5300  176.6830  138.1170 C   0  0  0  0  0  0  0  0  0  0  0  0
  189.3350  177.8220  139.4170 C   0  0  0  0  0  0  0  0  0  0  0  0
  189.6610  176.6180  141.4770 C   0  0  0  0  0  3  0  0  0  0  0  0
  188.4900  178.7510  140.0160 C   0  0  0  0  0  3  0  0  0  0  0  0
  189.6780  176.9520  145.6590 N   0  0  0  0  0  0  0  0  0  0  0  0
  191.8030  177.9260  144.9390 C   0  0  1  0  0  3  0  0  0  0  0  0
  189.2130  177.5770  146.8950 C   0  0  0  0  0  1  0  0  0  0  0  0
  191.7810  177.6590  143.4440 C   0  0  0  0  0  2  0  0  0  0  0  0
  189.4080  177.9280  144.6080 C   0  0  1  0  0  3  0  0  0  0  0  0
  191.7750  176.4870  147.0170 C   0  0  0  0  0  1  0  0  0  0  0  0
  190.8390  179.8880  143.9910 F   0  0  0  0  0  0  0  0  0  0  0  0
  190.7100  178.5160  144.0830 C   0  0  1  0  0  0  0  0  0  0  0  0
  191.1410  176.7670  145.6550 C   0  0  1  0  0  3  0  0  0  0  0  0
  187.3780  176.6370  143.9950 C   0  0  0  0  0  2  0  0  0  0  0  0
  184.3260  179.2490  145.3920 N   0  0  0  0  0  0  0  0  0  0  0  0
  186.3210  177.5690  144.4840 C   0  0  0  0  0  0  0  0  0  0  0  0
  185.5470  178.2930  143.5740 C   0  0  0  0  0  3  0  0  0  0  0  0
  184.5450  179.1390  144.0530 C   0  0  0  0  0  3  0  0  0  0  0  0
  185.0660  178.5480  146.2930 C   0  0  0  0  0  3  0  0  0  0  0  0
  186.0770  177.6910  145.8550 C   0  0  0  0  0  3  0  0  0  0  0  0
  1 21  1  0  0  0  0
  2  1  1  0  0  0  0
  3  9  1  0  0  0  0
  4  8  1  0  0  0  0
  5  2  2  0  0  0  0
  6  7  1  0  0  0  0
  7 10  2  0  0  0  0
  8  3  2  0  0  0  0
  8  6  1  0  0  0  0
  9 11  2  0  0  0  0
  9  7  1  0  0  0  0
 10  2  1  0  0  0  0
 11  5  1  0  0  0  0
 12 14  1  0  0  0  0
 13 15  1  6  0  0  0
 13 20  1  0  0  0  0
 15 19  1  0  0  0  0
 16  1  1  6  0  0  0
 16 12  1  0  0  0  0
 19 18  1  6  0  0  0
 19 16  1  0  0  0  0
 19 13  1  0  0  0  0
 20 12  1  0  0  0  0
 20 17  1  1  0  0  0
 21 23  1  0  0  0  0
 22 26  1  0  0  0  0
 23 27  1  0  0  0  0
 24 25  1  0  0  0  0
 24 23  2  0  0  0  0
 25 22  2  0  0  0  0
 27 26  2  0  0  0  0
M  END
>  <MODEL>
1

>  <REMARK>
 VINA RESULT:      -9.4      0.000      0.000
  Name = 
  4 active torsions:
  status: ('A' for Active; 'I' for Inactive)
    1  A    between atoms: N_1  and  C_2
    2  A    between atoms: N_1  and  C_15
    3  A    between atoms: N_1  and  C_18
    4  A    between atoms: C_9  and  C_15
                            x       y       z     vdW  Elec       q    Type
                         _______ _______ _______ _____ _____    ______ ____

>  <TORSDO>
F 4

$$$$
=
 OpenBabel10262420133D

 27 31  0  0  1  0  0  0  0  0999 V2000
  188.2190  177.3370  144.6230 N   0  0  0  0  0  0  0  0  0  0  0  0
  186.8620  177.8040  144.7980 C   0  0  0  0  0  0  0  0  0  0  0  0
  182.9860  179.1450  145.0450 N   0  0  0  0  0  0  0  0  0  0  0  0
  181.3790  179.3210  143.1430 C   0  0  0  0  0  1  0  0  0  0  0  0
  186.3850  178.2100  146.0710 C   0  0  0  0  0  3  0  0  0  0  0  0
  183.7310  178.5050  142.9780 N   0  0  0  0  0  2  0  0  0  0  0  0
  184.7020  178.3540  143.8900 C   0  0  0  0  0  0  0  0  0  0  0  0
  182.7050  178.9880  143.7250 C   0  0  0  0  0  0  0  0  0  0  0  0
  184.2590  178.7340  145.1170 C   0  0  0  0  0  0  0  0  0  0  0  0
  185.9960  177.8840  143.6830 C   0  0  0  0  0  3  0  0  0  0  0  0
  185.0710  178.6800  146.2450 C   0  0  0  0  0  3  0  0  0  0  0  0
  189.6470  176.9630  146.5580 N   0  0  0  0  0  0  0  0  0  0  0  0
  191.7310  177.3130  145.3250 C   0  0  1  0  0  3  0  0  0  0  0  0
  189.5750  177.8490  147.7170 C   0  0  0  0  0  1  0  0  0  0  0  0
  191.3540  176.8460  143.9300 C   0  0  0  0  0  2  0  0  0  0  0  0
  189.3660  177.8130  145.4050 C   0  0  1  0  0  3  0  0  0  0  0  0
  191.8430  176.2330  147.6080 C   0  0  0  0  0  1  0  0  0  0  0  0
  190.9990  179.2860  144.2070 F   0  0  0  0  0  0  0  0  0  0  0  0
  190.6250  178.0070  144.5710 C   0  0  1  0  0  0  0  0  0  0  0  0
  191.0140  176.4510  146.3430 C   0  0  1  0  0  3  0  0  0  0  0  0
  188.5130  176.3470  143.5920 C   0  0  0  0  0  2  0  0  0  0  0  0
  189.1210  178.2370  139.8300 N   0  0  0  0  0  0  0  0  0  0  0  0
  188.7420  177.0210  142.2810 C   0  0  0  0  0  0  0  0  0  0  0  0
  189.6710  176.5000  141.3760 C   0  0  0  0  0  3  0  0  0  0  0  0
  189.8490  177.1310  140.1430 C   0  0  0  0  0  3  0  0  0  0  0  0
  188.2080  178.7550  140.6950 C   0  0  0  0  0  3  0  0  0  0  0  0
  188.0000  178.1540  141.9370 C   0  0  0  0  0  3  0  0  0  0  0  0
  1  2  1  0  0  0  0
  2  5  1  0  0  0  0
  3  9  1  0  0  0  0
  4  8  1  0  0  0  0
  5 11  2  0  0  0  0
  6  8  1  0  0  0  0
  6  7  1  0  0  0  0
  7  9  2  0  0  0  0
  8  3  2  0  0  0  0
  9 11  1  0  0  0  0
 10  7  1  0  0  0  0
 10  2  2  0  0  0  0
 12 14  1  0  0  0  0
 13 15  1  6  0  0  0
 13 20  1  0  0  0  0
 15 19  1  0  0  0  0
 16  1  1  6  0  0  0
 16 12  1  0  0  0  0
 19 18  1  6  0  0  0
 19 13  1  0  0  0  0
 19 16  1  0  0  0  0
 20 12  1  0  0  0  0
 20 17  1  1  0  0  0
 21  1  1  0  0  0  0
 22 25  2  0  0  0  0
 22 26  1  0  0  0  0
 23 21  1  0  0  0  0
 24 23  2  0  0  0  0
 25 24  1  0  0  0  0
 26 27  2  0  0  0  0
 27 23  1  0  0  0  0
M  END
>  <MODEL>
2

>  <REMARK>
 VINA RESULT:      -7.8      1.280      5.522
  Name = 
  4 active torsions:
  status: ('A' for Active; 'I' for Inactive)
    1  A    between atoms: N_1  and  C_2
    2  A    between atoms: N_1  and  C_15
    3  A    between atoms: N_1  and  C_18
    4  A    between atoms: C_9  and  C_15
                            x       y       z     vdW  Elec       q    Type
                         _______ _______ _______ _____ _____    ______ ____

>  <TORSDO>
F 4

$$$$
=
 OpenBabel10262420133D

 27 31  0  0  1  0  0  0  0  0999 V2000
  187.6280  177.7600  143.8250 N   0  0  0  0  0  0  0  0  0  0  0  0
  186.2340  178.1340  143.7280 C   0  0  0  0  0  0  0  0  0  0  0  0
  182.2930  179.1680  143.2020 N   0  0  0  0  0  0  0  0  0  0  0  0
  180.9830  178.9020  141.0940 C   0  0  0  0  0  1  0  0  0  0  0  0
  185.5480  178.6970  144.8340 C   0  0  0  0  0  3  0  0  0  0  0  0
  183.3770  178.2690  141.3980 N   0  0  0  0  0  2  0  0  0  0  0  0
  184.2070  178.3480  142.4480 C   0  0  0  0  0  0  0  0  0  0  0  0
  182.2240  178.7780  141.9030 C   0  0  0  0  0  0  0  0  0  0  0  0
  183.5620  178.8810  143.5200 C   0  0  0  0  0  0  0  0  0  0  0  0
  185.5430  177.9610  142.5060 C   0  0  0  0  0  3  0  0  0  0  0  0
  184.1970  179.0770  144.7410 C   0  0  0  0  0  3  0  0  0  0  0  0
  190.0310  177.9220  143.4740 N   0  0  0  0  0  0  0  0  0  0  0  0
  189.8750  177.7830  141.0370 C   0  0  1  0  0  3  0  0  0  0  0  0
  190.7620  179.1200  143.8810 C   0  0  0  0  0  1  0  0  0  0  0  0
  188.6300  176.9340  140.8490 C   0  0  0  0  0  2  0  0  0  0  0  0
  188.7110  178.3950  143.0660 C   0  0  1  0  0  3  0  0  0  0  0  0
  192.1300  177.4410  142.1270 C   0  0  0  0  0  1  0  0  0  0  0  0
  188.0980  179.3570  140.8370 F   0  0  0  0  0  0  0  0  0  0  0  0
  188.5460  178.2680  141.5580 C   0  0  1  0  0  0  0  0  0  0  0  0
  190.6150  177.3050  142.2690 C   0  0  1  0  0  3  0  0  0  0  0  0
  188.0190  176.6630  144.7040 C   0  0  0  0  0  2  0  0  0  0  0  0
  189.0390  178.1010  148.5750 N   0  0  0  0  0  0  0  0  0  0  0  0
  188.3800  177.1870  146.0540 C   0  0  0  0  0  0  0  0  0  0  0  0
  187.4050  177.7790  146.8610 C   0  0  0  0  0  3  0  0  0  0  0  0
  187.7600  178.2370  148.1320 C   0  0  0  0  0  3  0  0  0  0  0  0
  190.0000  177.5220  147.8060 C   0  0  0  0  0  3  0  0  0  0  0  0
  189.6870  177.0510  146.5300 C   0  0  0  0  0  3  0  0  0  0  0  0
  1 21  1  0  0  0  0
  2  1  1  0  0  0  0
  2  5  1  0  0  0  0
  3  9  1  0  0  0  0
  4  8  1  0  0  0  0
  6  8  1  0  0  0  0
  6  7  1  0  0  0  0
  7 10  1  0  0  0  0
  7  9  2  0  0  0  0
  8  3  2  0  0  0  0
  9 11  1  0  0  0  0
 10  2  2  0  0  0  0
 11  5  2  0  0  0  0
 12 14  1  0  0  0  0
 13 15  1  6  0  0  0
 13 19  1  0  0  0  0
 13 20  1  0  0  0  0
 15 19  1  0  0  0  0
 16 12  1  0  0  0  0
 16  1  1  1  0  0  0
 19 18  1  6  0  0  0
 19 16  1  0  0  0  0
 20 17  1  6  0  0  0
 20 12  1  0  0  0  0
 21 23  1  0  0  0  0
 23 27  2  0  0  0  0
 23 24  1  0  0  0  0
 24 25  2  0  0  0  0
 25 22  1  0  0  0  0
 26 22  2  0  0  0  0
 27 26  1  0  0  0  0
M  END
>  <MODEL>
3

>  <REMARK>
 VINA RESULT:      -7.4      2.359      5.424
  Name = 
  4 active torsions:
  status: ('A' for Active; 'I' for Inactive)
    1  A    between atoms: N_1  and  C_2
    2  A    between atoms: N_1  and  C_15
    3  A    between atoms: N_1  and  C_18
    4  A    between atoms: C_9  and  C_15
                            x       y       z     vdW  Elec       q    Type
                         _______ _______ _______ _____ _____    ______ ____

>  <TORSDO>
F 4

$$$$
=
 OpenBabel10262420133D

 27 31  0  0  1  0  0  0  0  0999 V2000
  187.7100  177.5890  143.7800 N   0  0  0  0  0  0  0  0  0  0  0  0
  188.3540  177.5530  142.4850 C   0  0  0  0  0  0  0  0  0  0  0  0
  189.9780  177.5570  138.7110 N   0  0  0  0  0  0  0  0  0  0  0  0
  189.0560  178.7600  136.7270 C   0  0  0  0  0  1  0  0  0  0  0  0
  189.5410  176.8040  142.2780 C   0  0  0  0  0  3  0  0  0  0  0  0
  188.0580  178.7670  139.0140 N   0  0  0  0  0  2  0  0  0  0  0  0
  188.4260  178.1820  140.1630 C   0  0  0  0  0  0  0  0  0  0  0  0
  189.0310  178.3600  138.1580 C   0  0  0  0  0  0  0  0  0  0  0  0
  189.5660  177.4640  139.9830 C   0  0  0  0  0  0  0  0  0  0  0  0
  187.7850  178.2540  141.3960 C   0  0  0  0  0  3  0  0  0  0  0  0
  190.1630  176.7530  141.0180 C   0  0  0  0  0  3  0  0  0  0  0  0
  187.6470  177.7940  146.2040 N   0  0  0  0  0  0  0  0  0  0  0  0
  190.0770  177.6890  146.4650 C   0  0  1  0  0  3  0  0  0  0  0  0
  187.1090  178.9970  146.8340 C   0  0  0  0  0  1  0  0  0  0  0  0
  190.4840  176.8240  145.2860 C   0  0  0  0  0  2  0  0  0  0  0  0
  188.2670  178.2530  144.9640 C   0  0  1  0  0  3  0  0  0  0  0  0
  188.6250  177.3660  148.5090 C   0  0  0  0  0  1  0  0  0  0  0  0
  190.5560  179.2380  144.7190 F   0  0  0  0  0  0  0  0  0  0  0  0
  189.7820  178.1450  145.0580 C   0  0  1  0  0  0  0  0  0  0  0  0
  188.7430  177.2040  146.9950 C   0  0  1  0  0  3  0  0  0  0  0  0
  186.4340  176.9060  143.9680 C   0  0  0  0  0  2  0  0  0  0  0  0
  183.1740  179.4870  143.0740 N   0  0  0  0  0  0  0  0  0  0  0  0
  185.3040  177.8260  143.6490 C   0  0  0  0  0  0  0  0  0  0  0  0
  184.7860  177.8780  142.3520 C   0  0  0  0  0  3  0  0  0  0  0  0
  183.7100  178.7260  142.0820 C   0  0  0  0  0  3  0  0  0  0  0  0
  183.6600  179.4450  144.3440 C   0  0  0  0  0  3  0  0  0  0  0  0
  184.7350  178.6110  144.6560 C   0  0  0  0  0  3  0  0  0  0  0  0
  1 21  1  0  0  0  0
  2  1  1  0  0  0  0
  3  9  1  0  0  0  0
  4  8  1  0  0  0  0
  5  2  1  0  0  0  0
  6  7  1  0  0  0  0
  7 10  1  0  0  0  0
  8  3  2  0  0  0  0
  8  6  1  0  0  0  0
  9  7  2  0  0  0  0
  9 11  1  0  0  0  0
 10  2  2  0  0  0  0
 11  5  2  0  0  0  0
 12 14  1  0  0  0  0
 12 20  1  0  0  0  0
 13 15  1  6  0  0  0
 13 20  1  0  0  0  0
 16  1  1  6  0  0  0
 16 19  1  0  0  0  0
 16 12  1  0  0  0  0
 19 18  1  6  0  0  0
 19 15  1  0  0  0  0
 19 13  1  0  0  0  0
 20 17  1  1  0  0  0
 22 26  1  0  0  0  0
 23 21  1  0  0  0  0
 23 27  1  0  0  0  0
 24 23  2  0  0  0  0
 25 24  1  0  0  0  0
 25 22  2  0  0  0  0
 26 27  2  0  0  0  0
M  END
>  <MODEL>
4

>  <REMARK>
 VINA RESULT:      -7.2      1.512      2.206
  Name = 
  4 active torsions:
  status: ('A' for Active; 'I' for Inactive)
    1  A    between atoms: N_1  and  C_2
    2  A    between atoms: N_1  and  C_15
    3  A    between atoms: N_1  and  C_18
    4  A    between atoms: C_9  and  C_15
                            x       y       z     vdW  Elec       q    Type
                         _______ _______ _______ _____ _____    ______ ____

>  <TORSDO>
F 4

$$$$
=
 OpenBabel10262420133D

 27 31  0  0  1  0  0  0  0  0999 V2000
  189.4660  177.6320  143.8710 N   0  0  0  0  0  0  0  0  0  0  0  0
  189.4130  177.6840  142.4270 C   0  0  0  0  0  0  0  0  0  0  0  0
  189.4540  177.6690  138.3180 N   0  0  0  0  0  0  0  0  0  0  0  0
  190.7140  176.0660  136.8770 C   0  0  0  0  0  1  0  0  0  0  0  0
  188.6510  178.6750  141.7570 C   0  0  0  0  0  3  0  0  0  0  0  0
  190.6990  176.0630  139.3720 N   0  0  0  0  0  2  0  0  0  0  0  0
  190.0850  176.8430  140.2740 C   0  0  0  0  0  0  0  0  0  0  0  0
  190.2860  176.6020  138.1960 C   0  0  0  0  0  0  0  0  0  0  0  0
  189.3450  177.7960  139.6470 C   0  0  0  0  0  0  0  0  0  0  0  0
  190.1490  176.7500  141.6610 C   0  0  0  0  0  3  0  0  0  0  0  0
  188.6080  178.7410  140.3530 C   0  0  0  0  0  3  0  0  0  0  0  0
  188.0910  178.0930  145.8260 N   0  0  0  0  0  0  0  0  0  0  0  0
  185.9810  177.5890  144.6950 C   0  0  1  0  0  3  0  0  0  0  0  0
  188.2340  177.2930  147.0400 C   0  0  0  0  0  1  0  0  0  0  0  0
  186.2940  177.9690  143.2590 C   0  0  0  0  0  2  0  0  0  0  0  0
  188.3630  177.1740  144.7240 C   0  0  1  0  0  3  0  0  0  0  0  0
  185.9080  178.8220  146.9010 C   0  0  0  0  0  1  0  0  0  0  0  0
  186.7440  175.5680  143.6910 F   0  0  0  0  0  0  0  0  0  0  0  0
  187.0850  176.8800  143.9510 C   0  0  1  0  0  0  0  0  0  0  0  0
  186.7010  178.5430  145.6260 C   0  0  1  0  0  3  0  0  0  0  0  0
  190.6680  178.0830  144.5650 C   0  0  0  0  0  2  0  0  0  0  0  0
  192.5810  174.7600  146.4040 N   0  0  0  0  0  0  0  0  0  0  0  0
  191.3570  176.9280  145.2080 C   0  0  0  0  0  0  0  0  0  0  0  0
  191.5790  176.9220  146.5880 C   0  0  0  0  0  3  0  0  0  0  0  0
  192.2010  175.8170  147.1730 C   0  0  0  0  0  3  0  0  0  0  0  0
  192.3680  174.7450  145.0610 C   0  0  0  0  0  3  0  0  0  0  0  0
  191.7490  175.8290  144.4370 C   0  0  0  0  0  3  0  0  0  0  0  0
  1 21  1  0  0  0  0
  2  1  1  0  0  0  0
  3  9  1  0  0  0  0
  4  8  1  0  0  0  0
  5  2  1  0  0  0  0
  6  7  1  0  0  0  0
  7 10  1  0  0  0  0
  8  3  2  0  0  0  0
  8  6  1  0  0  0  0
  9  7  2  0  0  0  0
  9 11  1  0  0  0  0
 10  2  2  0  0  0  0
 11  5  2  0  0  0  0
 12 14  1  0  0  0  0
 13 15  1  6  0  0  0
 13 20  1  0  0  0  0
 15 19  1  0  0  0  0
 16  1  1  6  0  0  0
 16 12  1  0  0  0  0
 19 18  1  6  0  0  0
 19 13  1  0  0  0  0
 19 16  1  0  0  0  0
 20 12  1  0  0  0  0
 20 17  1  1  0  0  0
 21 23  1  0  0  0  0
 22 25  1  0  0  0  0
 23 24  1  0  0  0  0
 24 25  2  0  0  0  0
 26 22  2  0  0  0  0
 27 26  1  0  0  0  0
 27 23  2  0  0  0  0
M  END
>  <MODEL>
5

>  <REMARK>
 VINA RESULT:      -7.1      1.652      4.515
  Name = 
  4 active torsions:
  status: ('A' for Active; 'I' for Inactive)
    1  A    between atoms: N_1  and  C_2
    2  A    between atoms: N_1  and  C_15
    3  A    between atoms: N_1  and  C_18
    4  A    between atoms: C_9  and  C_15
                            x       y       z     vdW  Elec       q    Type
                         _______ _______ _______ _____ _____    ______ ____

>  <TORSDO>
F 4

$$$$
=
 OpenBabel10262420133D

 27 31  0  0  1  0  0  0  0  0999 V2000
  188.1070  177.4160  143.0240 N   0  0  0  0  0  0  0  0  0  0  0  0
  187.4100  177.8760  141.8440 C   0  0  0  0  0  0  0  0  0  0  0  0
  185.2190  179.1900  138.6260 N   0  0  0  0  0  0  0  0  0  0  0  0
  182.8900  180.0830  138.7130 C   0  0  0  0  0  1  0  0  0  0  0  0
  188.0190  177.8180  140.5640 C   0  0  0  0  0  3  0  0  0  0  0  0
  184.2080  179.2870  140.6770 N   0  0  0  0  0  2  0  0  0  0  0  0
  185.4470  178.7890  140.7920 C   0  0  0  0  0  0  0  0  0  0  0  0
  184.1120  179.5180  139.3420 C   0  0  0  0  0  0  0  0  0  0  0  0
  186.0480  178.7320  139.5740 C   0  0  0  0  0  0  0  0  0  0  0  0
  186.0900  178.3710  141.9540 C   0  0  0  0  0  3  0  0  0  0  0  0
  187.3410  178.2490  139.4100 C   0  0  0  0  0  3  0  0  0  0  0  0
  189.8140  177.6950  144.7370 N   0  0  0  0  0  0  0  0  0  0  0  0
  191.4310  176.2320  143.6300 C   0  0  1  0  0  3  0  0  0  0  0  0
  190.3960  179.0090  144.9990 C   0  0  0  0  0  1  0  0  0  0  0  0
  190.5260  175.2530  142.9040 C   0  0  0  0  0  2  0  0  0  0  0  0
  189.5230  177.6800  143.3060 C   0  0  1  0  0  3  0  0  0  0  0  0
  191.8210  176.8570  146.0490 C   0  0  0  0  0  1  0  0  0  0  0  0
  191.1410  177.1770  141.4630 F   0  0  0  0  0  0  0  0  0  0  0  0
  190.4680  176.7310  142.5830 C   0  0  1  0  0  0  0  0  0  0  0  0
  190.7900  176.6100  144.9490 C   0  0  1  0  0  3  0  0  0  0  0  0
  187.3970  176.6080  144.0110 C   0  0  0  0  0  2  0  0  0  0  0  0
  185.6760  179.0540  147.0350 N   0  0  0  0  0  0  0  0  0  0  0  0
  186.8050  177.4820  145.0650 C   0  0  0  0  0  0  0  0  0  0  0  0
  185.6770  178.2560  144.7820 C   0  0  0  0  0  3  0  0  0  0  0  0
  185.1230  179.0460  145.7920 C   0  0  0  0  0  3  0  0  0  0  0  0
  186.7710  178.3020  147.3300 C   0  0  0  0  0  3  0  0  0  0  0  0
  187.3550  177.4990  146.3490 C   0  0  0  0  0  3  0  0  0  0  0  0
  1 21  1  0  0  0  0
  2 10  1  0  0  0  0
  2  1  1  0  0  0  0
  3  8  2  0  0  0  0
  3  9  1  0  0  0  0
  4  8  1  0  0  0  0
  5  2  2  0  0  0  0
  6  7  1  0  0  0  0
  7 10  2  0  0  0  0
  8  6  1  0  0  0  0
  9  7  1  0  0  0  0
 11  9  2  0  0  0  0
 11  5  1  0  0  0  0
 12 20  1  0  0  0  0
 12 14  1  0  0  0  0
 13 15  1  1  0  0  0
 13 20  1  0  0  0  0
 16  1  1  1  0  0  0
 16 12  1  0  0  0  0
 19 18  1  6  0  0  0
 19 15  1  0  0  0  0
 19 16  1  0  0  0  0
 19 13  1  0  0  0  0
 20 17  1  1  0  0  0
 21 23  1  0  0  0  0
 22 26  1  0  0  0  0
 23 27  1  0  0  0  0
 24 23  2  0  0  0  0
 24 25  1  0  0  0  0
 25 22  2  0  0  0  0
 27 26  2  0  0  0  0
M  END
>  <MODEL>
6

>  <REMARK>
 VINA RESULT:      -7.0      2.428      3.508
  Name = 
  4 active torsions:
  status: ('A' for Active; 'I' for Inactive)
    1  A    between atoms: N_1  and  C_2
    2  A    between atoms: N_1  and  C_15
    3  A    between atoms: N_1  and  C_18
    4  A    between atoms: C_9  and  C_15
                            x       y       z     vdW  Elec       q    Type
                         _______ _______ _______ _____ _____    ______ ____

>  <TORSDO>
F 4

$$$$
=
 OpenBabel10262420133D

 27 31  0  0  1  0  0  0  0  0999 V2000
  189.4050  177.6130  144.2090 N   0  0  0  0  0  0  0  0  0  0  0  0
  189.5780  177.5070  142.7780 C   0  0  0  0  0  0  0  0  0  0  0  0
  189.8780  177.3670  138.6820 N   0  0  0  0  0  0  0  0  0  0  0  0
  188.7370  178.9050  137.0820 C   0  0  0  0  0  1  0  0  0  0  0  0
  190.3960  176.4960  142.2110 C   0  0  0  0  0  3  0  0  0  0  0  0
  188.5440  179.0030  139.5680 N   0  0  0  0  0  2  0  0  0  0  0  0
  189.0840  178.2620  140.5470 C   0  0  0  0  0  0  0  0  0  0  0  0
  189.0550  178.4230  138.4510 C   0  0  0  0  0  0  0  0  0  0  0  0
  189.8760  177.2910  140.0200 C   0  0  0  0  0  0  0  0  0  0  0  0
  188.9050  178.4070  141.9190 C   0  0  0  0  0  3  0  0  0  0  0  0
  190.5550  176.3780  140.8190 C   0  0  0  0  0  3  0  0  0  0  0  0
  187.8920  178.0640  146.0610 N   0  0  0  0  0  0  0  0  0  0  0  0
  185.8650  177.7830  144.7210 C   0  0  1  0  0  3  0  0  0  0  0  0
  187.8670  177.1890  147.2300 C   0  0  0  0  0  1  0  0  0  0  0  0
  186.3340  178.2190  143.3440 C   0  0  0  0  0  2  0  0  0  0  0  0
  188.2000  177.1910  144.9320 C   0  0  1  0  0  3  0  0  0  0  0  0
  185.6740  178.8920  146.9840 C   0  0  0  0  0  1  0  0  0  0  0  0
  186.5760  175.7710  143.6620 F   0  0  0  0  0  0  0  0  0  0  0  0
  186.9810  177.0380  144.0330 C   0  0  1  0  0  0  0  0  0  0  0  0
  186.5600  178.6270  145.7690 C   0  0  1  0  0  3  0  0  0  0  0  0
  190.4670  178.2000  145.0210 C   0  0  0  0  0  2  0  0  0  0  0  0
  192.5360  175.2020  147.2150 N   0  0  0  0  0  0  0  0  0  0  0  0
  191.1750  177.1370  145.7920 C   0  0  0  0  0  0  0  0  0  0  0  0
  191.7440  176.0490  145.1260 C   0  0  0  0  0  3  0  0  0  0  0  0
  192.4260  175.0790  145.8640 C   0  0  0  0  0  3  0  0  0  0  0  0
  191.9940  176.2570  147.8800 C   0  0  0  0  0  3  0  0  0  0  0  0
  191.3040  177.2480  147.1790 C   0  0  0  0  0  3  0  0  0  0  0  0
  1 21  1  0  0  0  0
  2  1  1  0  0  0  0
  3  9  1  0  0  0  0
  4  8  1  0  0  0  0
  5  2  1  0  0  0  0
  6  7  1  0  0  0  0
  7 10  1  0  0  0  0
  8  3  2  0  0  0  0
  8  6  1  0  0  0  0
  9  7  2  0  0  0  0
  9 11  1  0  0  0  0
 10  2  2  0  0  0  0
 11  5  2  0  0  0  0
 12 14  1  0  0  0  0
 13 15  1  6  0  0  0
 13 20  1  0  0  0  0
 15 19  1  0  0  0  0
 16  1  1  6  0  0  0
 16 12  1  0  0  0  0
 19 18  1  6  0  0  0
 19 13  1  0  0  0  0
 19 16  1  0  0  0  0
 20 12  1  0  0  0  0
 20 17  1  1  0  0  0
 21 23  1  0  0  0  0
 22 26  1  0  0  0  0
 23 27  1  0  0  0  0
 24 23  2  0  0  0  0
 24 25  1  0  0  0  0
 25 22  2  0  0  0  0
 27 26  2  0  0  0  0
M  END
>  <MODEL>
7

>  <REMARK>
 VINA RESULT:      -7.0      1.897      4.691
  Name = 
  4 active torsions:
  status: ('A' for Active; 'I' for Inactive)
    1  A    between atoms: N_1  and  C_2
    2  A    between atoms: N_1  and  C_15
    3  A    between atoms: N_1  and  C_18
    4  A    between atoms: C_9  and  C_15
                            x       y       z     vdW  Elec       q    Type
                         _______ _______ _______ _____ _____    ______ ____

>  <TORSDO>
F 4

$$$$
=
 OpenBabel10262420133D

 27 31  0  0  1  0  0  0  0  0999 V2000
  187.0810  178.1650  142.6220 N   0  0  0  0  0  0  0  0  0  0  0  0
  185.6650  178.4410  142.7260 C   0  0  0  0  0  0  0  0  0  0  0  0
  181.6200  179.1630  142.7790 N   0  0  0  0  0  0  0  0  0  0  0  0
  180.0030  178.5390  140.9830 C   0  0  0  0  0  1  0  0  0  0  0  0
  185.1290  179.1070  143.8580 C   0  0  0  0  0  3  0  0  0  0  0  0
  182.4580  178.0940  140.9360 N   0  0  0  0  0  2  0  0  0  0  0  0
  183.4420  178.3620  141.8070 C   0  0  0  0  0  0  0  0  0  0  0  0
  181.3680  178.5990  141.5690 C   0  0  0  0  0  0  0  0  0  0  0  0
  182.9440  178.9970  142.9010 C   0  0  0  0  0  0  0  0  0  0  0  0
  184.7960  178.0650  141.6760 C   0  0  0  0  0  3  0  0  0  0  0  0
  183.7560  179.3920  143.9580 C   0  0  0  0  0  3  0  0  0  0  0  0
  189.2410  177.2780  143.3070 N   0  0  0  0  0  0  0  0  0  0  0  0
  188.6620  177.1820  145.6810 C   0  0  1  0  0  3  0  0  0  0  0  0
  189.6940  175.9740  142.8290 C   0  0  0  0  0  1  0  0  0  0  0  0
  187.6730  178.3270  145.8110 C   0  0  0  0  0  2  0  0  0  0  0  0
  187.7910  177.1630  143.4260 C   0  0  1  0  0  3  0  0  0  0  0  0
  191.0930  176.9790  145.0200 C   0  0  0  0  0  1  0  0  0  0  0  0
  186.5280  176.1750  145.3490 F   0  0  0  0  0  0  0  0  0  0  0  0
  187.3780  177.1630  144.8910 C   0  0  1  0  0  0  0  0  0  0  0  0
  189.7250  177.5610  144.6710 C   0  0  1  0  0  3  0  0  0  0  0  0
  187.8980  178.9340  141.6880 C   0  0  0  0  0  2  0  0  0  0  0  0
  187.9560  177.1060  137.8490 N   0  0  0  0  0  0  0  0  0  0  0  0
  187.9080  178.2760  140.3500 C   0  0  0  0  0  0  0  0  0  0  0  0
  186.8350  178.4540  139.4720 C   0  0  0  0  0  3  0  0  0  0  0  0
  186.8780  177.8520  138.2130 C   0  0  0  0  0  3  0  0  0  0  0  0
  189.0120  176.9260  138.6870 C   0  0  0  0  0  3  0  0  0  0  0  0
  189.0090  177.5110  139.9540 C   0  0  0  0  0  3  0  0  0  0  0  0
  1  2  1  0  0  0  0
  2  5  1  0  0  0  0
  3  9  1  0  0  0  0
  4  8  1  0  0  0  0
  5 11  2  0  0  0  0
  6  8  1  0  0  0  0
  6  7  1  0  0  0  0
  7  9  2  0  0  0  0
  8  3  2  0  0  0  0
  9 11  1  0  0  0  0
 10  7  1  0  0  0  0
 10  2  2  0  0  0  0
 12 16  1  0  0  0  0
 12 20  1  0  0  0  0
 13 15  1  1  0  0  0
 14 12  1  0  0  0  0
 16  1  1  6  0  0  0
 16 19  1  0  0  0  0
 19 18  1  1  0  0  0
 19 13  1  0  0  0  0
 19 15  1  0  0  0  0
 20 17  1  1  0  0  0
 20 13  1  0  0  0  0
 21  1  1  0  0  0  0
 22 25  2  0  0  0  0
 22 26  1  0  0  0  0
 23 21  1  0  0  0  0
 24 23  2  0  0  0  0
 25 24  1  0  0  0  0
 26 27  2  0  0  0  0
 27 23  1  0  0  0  0
M  END
>  <MODEL>
8

>  <REMARK>
 VINA RESULT:      -6.8      2.487      6.121
  Name = 
  4 active torsions:
  status: ('A' for Active; 'I' for Inactive)
    1  A    between atoms: N_1  and  C_2
    2  A    between atoms: N_1  and  C_15
    3  A    between atoms: N_1  and  C_18
    4  A    between atoms: C_9  and  C_15
                            x       y       z     vdW  Elec       q    Type
                         _______ _______ _______ _____ _____    ______ ____

>  <TORSDO>
F 4

$$$$
=
 OpenBabel10262420133D

 27 31  0  0  1  0  0  0  0  0999 V2000
  189.8360  177.2660  141.3680 N   0  0  0  0  0  0  0  0  0  0  0  0
  190.3300  177.3860  142.7210 C   0  0  0  0  0  0  0  0  0  0  0  0
  191.7380  177.4770  146.5800 N   0  0  0  0  0  0  0  0  0  0  0  0
  192.6280  175.5240  147.8550 C   0  0  0  0  0  1  0  0  0  0  0  0
  190.3100  178.6310  143.4010 C   0  0  0  0  0  3  0  0  0  0  0  0
  191.7750  175.4530  145.5110 N   0  0  0  0  0  2  0  0  0  0  0  0
  191.2740  176.3980  144.7020 C   0  0  0  0  0  0  0  0  0  0  0  0
  192.0450  176.1550  146.6420 C   0  0  0  0  0  0  0  0  0  0  0  0
  191.2520  177.6000  145.3380 C   0  0  0  0  0  0  0  0  0  0  0  0
  190.8220  176.2440  143.3950 C   0  0  0  0  0  3  0  0  0  0  0  0
  190.7740  178.7520  144.7230 C   0  0  0  0  0  3  0  0  0  0  0  0
  191.6560  176.7130  139.8490 N   0  0  0  0  0  0  0  0  0  0  0  0
  190.3460  177.1280  137.8260 C   0  0  1  0  0  3  0  0  0  0  0  0
  192.8840  177.5030  139.8430 C   0  0  0  0  0  1  0  0  0  0  0  0
  188.9400  176.7820  138.2840 C   0  0  0  0  0  2  0  0  0  0  0  0
  190.5910  177.6580  140.1720 C   0  0  1  0  0  3  0  0  0  0  0  0
  192.5250  175.8640  137.6180 C   0  0  0  0  0  1  0  0  0  0  0  0
  189.4300  179.1970  138.5730 F   0  0  0  0  0  0  0  0  0  0  0  0
  189.7090  177.8990  138.9550 C   0  0  1  0  0  0  0  0  0  0  0  0
  191.3280  176.1980  138.5070 C   0  0  1  0  0  3  0  0  0  0  0  0
  188.4890  176.7530  141.1350 C   0  0  0  0  0  2  0  0  0  0  0  0
  185.6100  178.9530  143.3610 N   0  0  0  0  0  0  0  0  0  0  0  0
  187.4950  177.5380  141.9220 C   0  0  0  0  0  0  0  0  0  0  0  0
  186.8580  178.6410  141.3480 C   0  0  0  0  0  3  0  0  0  0  0  0
  185.9100  179.3450  142.0930 C   0  0  0  0  0  3  0  0  0  0  0  0
  186.2140  177.8780  143.9350 C   0  0  0  0  0  3  0  0  0  0  0  0
  187.1680  177.1480  143.2240 C   0  0  0  0  0  3  0  0  0  0  0  0
  1  2  1  0  0  0  0
  2 10  2  0  0  0  0
  2  5  1  0  0  0  0
  3  8  2  0  0  0  0
  5 11  2  0  0  0  0
  6  8  1  0  0  0  0
  7  9  2  0  0  0  0
  7  6  1  0  0  0  0
  8  4  1  0  0  0  0
  9  3  1  0  0  0  0
 10  7  1  0  0  0  0
 11  9  1  0  0  0  0
 12 16  1  0  0  0  0
 13 15  1  1  0  0  0
 13 20  1  0  0  0  0
 13 19  1  0  0  0  0
 14 12  1  0  0  0  0
 15 19  1  0  0  0  0
 16  1  1  1  0  0  0
 19 18  1  6  0  0  0
 19 16  1  0  0  0  0
 20 17  1  6  0  0  0
 20 12  1  0  0  0  0
 21  1  1  0  0  0  0
 21 23  1  0  0  0  0
 22 26  1  0  0  0  0
 23 27  1  0  0  0  0
 24 23  2  0  0  0  0
 24 25  1  0  0  0  0
 25 22  2  0  0  0  0
 27 26  2  0  0  0  0
M  END
>  <MODEL>
9

>  <REMARK>
 VINA RESULT:      -6.8      1.955      5.735
  Name = 
  4 active torsions:
  status: ('A' for Active; 'I' for Inactive)
    1  A    between atoms: N_1  and  C_2
    2  A    between atoms: N_1  and  C_15
    3  A    between atoms: N_1  and  C_18
    4  A    between atoms: C_9  and  C_15
                            x       y       z     vdW  Elec       q    Type
                         _______ _______ _______ _____ _____    ______ ____

>  <TORSDO>
F 4

$$$$
