=
 OpenBabel10262419243D

 31 34  0  0  1  0  0  0  0  0999 V2000
  187.7290  177.9370  144.7470 C   0  0  1  0  0  3  0  0  0  0  0  0
  186.4790  178.5690  145.3910 C   0  0  1  0  0  3  0  0  0  0  0  0
  185.3750  178.8140  144.3780 C   0  0  0  0  0  0  0  0  0  0  0  0
  185.2550  178.4750  141.9340 C   0  0  0  0  0  3  0  0  0  0  0  0
  185.7420  179.3590  143.0310 C   0  0  0  0  0  2  0  0  0  0  0  0
  183.8100  178.4950  146.1290 O   0  0  0  0  0  0  0  0  0  0  0  0
  183.9630  178.2410  141.7210 C   0  0  0  0  0  3  0  0  0  0  0  0
  186.0100  177.7710  146.5280 N   0  0  0  0  0  2  0  0  0  0  0  0
  182.8680  178.7410  142.5730 C   0  0  0  0  0  3  0  0  0  0  0  0
  184.8480  178.4350  147.1030 C   0  0  0  0  0  2  0  0  0  0  0  0
  184.0890  178.7630  144.7850 C   0  0  0  0  0  0  0  0  0  0  0  0
  182.9290  178.9730  143.8900 C   0  0  0  0  0  3  0  0  0  0  0  0
  190.0510  176.4950  147.1090 N   0  0  0  0  0  0  0  0  0  0  0  0
  189.6670  177.7650  147.7070 C   0  0  0  0  0  2  0  0  0  0  0  0
  191.5010  176.4270  147.1560 C   0  0  0  0  0  1  0  0  0  0  0  0
  189.6800  176.6240  145.7190 C   0  0  0  0  0  2  0  0  0  0  0  0
  189.0040  177.9670  145.6000 C   0  0  2  0  0  3  0  0  0  0  0  0
  188.7160  178.4040  146.8960 O   0  0  0  0  0  0  0  0  0  0  0  0
  187.5080  176.6160  144.0000 C   0  0  0  0  0  2  0  0  0  0  0  0
  188.5660  176.3450  142.9340 C   0  0  0  0  0  2  0  0  0  0  0  0
  188.8320  177.5780  142.0730 C   0  0  1  0  0  3  0  0  0  0  0  0
  190.9990  177.1400  142.1960 C   0  0  0  0  0  1  0  0  0  0  0  0
  190.0610  178.1520  142.4100 O   0  0  0  0  0  0  0  0  0  0  0  0
  188.8050  177.2400  140.5860 C   0  0  0  0  0  2  0  0  0  0  0  0
  186.8460  177.8740  138.3780 C   0  0  2  0  0  3  0  0  0  0  0  0
  187.8790  178.1580  137.3220 C   0  0  2  0  0  3  0  0  0  0  0  0
  185.5680  178.2530  137.9610 O   0  0  0  0  0  1  0  0  0  0  0  0
  187.2220  178.6090  139.5730 N   0  0  0  0  0  2  0  0  0  0  0  0
  189.4310  178.1940  138.2320 S   0  0  0  0  0  0  0  0  0  0  0  0
  188.6080  178.4460  139.7890 N   0  0  0  0  0  0  0  0  0  0  0  0
  187.6580  179.4620  136.7170 N   0  0  0  0  0  1  0  0  0  0  0  0
  1 19  1  1  0  0  0
  2  1  1  6  0  0  0
  2  8  1  0  0  0  0
  3 11  2  0  0  0  0
  3  2  1  0  0  0  0
  4  5  1  0  0  0  0
  5  3  1  0  0  0  0
  6 10  1  0  0  0  0
  7  4  2  0  0  0  0
  7  9  1  0  0  0  0
  8 10  1  0  0  0  0
  9 12  2  0  0  0  0
 11  6  1  0  0  0  0
 12 11  1  0  0  0  0
 13 15  1  0  0  0  0
 13 14  1  0  0  0  0
 16 13  1  0  0  0  0
 17  1  1  6  0  0  0
 17 16  1  0  0  0  0
 17 18  1  0  0  0  0
 18 14  1  0  0  0  0
 20 19  1  0  0  0  0
 21 24  1  6  0  0  0
 21 23  1  0  0  0  0
 21 20  1  0  0  0  0
 22 23  1  0  0  0  0
 25 27  1  6  0  0  0
 25 28  1  0  0  0  0
 26 31  1  1  0  0  0
 26 29  1  0  0  0  0
 26 25  1  0  0  0  0
 28 30  1  0  0  0  0
 29 30  1  0  0  0  0
 30 24  1  0  0  0  0
M  END
>  <MODEL>
1

>  <REMARK>
 VINA RESULT:      -8.2      0.000      0.000
  Name = 
  8 active torsions:
  status: ('A' for Active; 'I' for Inactive)
    1  A    between atoms: C_3  and  C_9
    2  A    between atoms: C_3  and  N_22
    3  A    between atoms: C_4  and  C_12
    4  A    between atoms: C_9  and  C_15
    5  A    between atoms: C_9  and  O_23
    6  A    between atoms: C_12  and  C_20
    7  A    between atoms: C_12  and  C_27
    8  A    between atoms: C_15  and  C_20
                            x       y       z     vdW  Elec       q    Type
                         _______ _______ _______ _____ _____    ______ ____

>  <TORSDO>
F 8

$$$$
=
 OpenBabel10262419243D

 31 34  0  0  1  0  0  0  0  0999 V2000
  185.7260  178.1510  141.7570 C   0  0  1  0  0  3  0  0  0  0  0  0
  185.2560  178.2010  143.2250 C   0  0  1  0  0  3  0  0  0  0  0  0
  186.3340  177.7340  144.1870 C   0  0  0  0  0  0  0  0  0  0  0  0
  188.6120  176.8480  143.8300 C   0  0  0  0  0  3  0  0  0  0  0  0
  187.1550  176.5350  143.8220 C   0  0  0  0  0  2  0  0  0  0  0  0
  185.4090  179.1980  145.8050 O   0  0  0  0  0  0  0  0  0  0  0  0
  189.2600  177.2180  144.9310 C   0  0  0  0  0  3  0  0  0  0  0  0
  184.7530  179.5330  143.5740 N   0  0  0  0  0  2  0  0  0  0  0  0
  188.6250  177.4480  146.2420 C   0  0  0  0  0  3  0  0  0  0  0  0
  184.3040  179.5030  144.9600 C   0  0  0  0  0  2  0  0  0  0  0  0
  186.3700  178.2520  145.4330 C   0  0  0  0  0  0  0  0  0  0  0  0
  187.3770  177.8850  146.4530 C   0  0  0  0  0  3  0  0  0  0  0  0
  182.8160  179.2580  139.9270 N   0  0  0  0  0  0  0  0  0  0  0  0
  182.4100  177.9940  140.5240 C   0  0  0  0  0  2  0  0  0  0  0  0
  182.4470  179.1990  138.5230 C   0  0  0  0  0  1  0  0  0  0  0  0
  184.2580  179.2370  139.9860 C   0  0  0  0  0  2  0  0  0  0  0  0
  184.6190  177.9650  140.7120 C   0  0  2  0  0  3  0  0  0  0  0  0
  183.4530  177.4840  141.3130 O   0  0  0  0  0  0  0  0  0  0  0  0
  186.7990  179.1710  141.3580 C   0  0  0  0  0  2  0  0  0  0  0  0
  188.1410  178.5270  141.0180 C   0  0  0  0  0  2  0  0  0  0  0  0
  188.1590  177.9730  139.5950 C   0  0  1  0  0  3  0  0  0  0  0  0
  186.8960  177.8840  137.7790 C   0  0  0  0  0  1  0  0  0  0  0  0
  187.3700  178.7620  138.7550 O   0  0  0  0  0  0  0  0  0  0  0  0
  189.5800  177.8880  139.0460 C   0  0  0  0  0  2  0  0  0  0  0  0
  192.2360  176.6840  138.2650 C   0  0  2  0  0  3  0  0  0  0  0  0
  191.6730  175.6160  137.3680 C   0  0  2  0  0  3  0  0  0  0  0  0
  193.5970  176.4850  138.5090 O   0  0  0  0  0  1  0  0  0  0  0  0
  191.4930  176.6510  139.5130 N   0  0  0  0  0  2  0  0  0  0  0  0
  189.9010  175.6830  137.6750 S   0  0  0  0  0  0  0  0  0  0  0  0
  190.1160  176.5420  139.2180 N   0  0  0  0  0  0  0  0  0  0  0  0
  192.1670  174.3030  137.7510 N   0  0  0  0  0  1  0  0  0  0  0  0
  1 19  1  6  0  0  0
  2  1  1  6  0  0  0
  2  8  1  0  0  0  0
  2  3  1  0  0  0  0
  3 11  2  0  0  0  0
  4  7  2  0  0  0  0
  5  4  1  0  0  0  0
  5  3  1  0  0  0  0
  7  9  1  0  0  0  0
  8 10  1  0  0  0  0
  9 12  2  0  0  0  0
 10  6  1  0  0  0  0
 11  6  1  0  0  0  0
 11 12  1  0  0  0  0
 13 16  1  0  0  0  0
 13 14  1  0  0  0  0
 14 18  1  0  0  0  0
 15 13  1  0  0  0  0
 16 17  1  0  0  0  0
 17 18  1  0  0  0  0
 17  1  1  1  0  0  0
 20 19  1  0  0  0  0
 21 24  1  6  0  0  0
 21 20  1  0  0  0  0
 22 23  1  0  0  0  0
 23 21  1  0  0  0  0
 24 30  1  0  0  0  0
 25 27  1  1  0  0  0
 25 28  1  0  0  0  0
 26 29  1  0  0  0  0
 26 31  1  1  0  0  0
 26 25  1  0  0  0  0
 29 30  1  0  0  0  0
 30 28  1  0  0  0  0
M  END
>  <MODEL>
2

>  <REMARK>
 VINA RESULT:      -8.0      2.716      5.787
  Name = 
  8 active torsions:
  status: ('A' for Active; 'I' for Inactive)
    1  A    between atoms: C_3  and  C_9
    2  A    between atoms: C_3  and  N_22
    3  A    between atoms: C_4  and  C_12
    4  A    between atoms: C_9  and  C_15
    5  A    between atoms: C_9  and  O_23
    6  A    between atoms: C_12  and  C_20
    7  A    between atoms: C_12  and  C_27
    8  A    between atoms: C_15  and  C_20
                            x       y       z     vdW  Elec       q    Type
                         _______ _______ _______ _____ _____    ______ ____

>  <TORSDO>
F 8

$$$$
=
 OpenBabel10262419243D

 31 34  0  0  1  0  0  0  0  0999 V2000
  188.3610  178.1510  142.3810 C   0  0  1  0  0  3  0  0  0  0  0  0
  186.8380  177.9610  142.2420 C   0  0  1  0  0  3  0  0  0  0  0  0
  186.1310  178.0000  143.5860 C   0  0  0  0  0  0  0  0  0  0  0  0
  186.9680  178.2180  145.8990 C   0  0  0  0  0  3  0  0  0  0  0  0
  186.7570  177.2940  144.7490 C   0  0  0  0  0  2  0  0  0  0  0  0
  184.2320  178.8740  142.4690 O   0  0  0  0  0  0  0  0  0  0  0  0
  185.9620  178.8160  146.5330 C   0  0  0  0  0  3  0  0  0  0  0  0
  186.2690  178.9270  141.2980 N   0  0  0  0  0  2  0  0  0  0  0  0
  184.5450  178.7170  146.1390 C   0  0  0  0  0  3  0  0  0  0  0  0
  184.8370  178.6760  141.1950 C   0  0  0  0  0  2  0  0  0  0  0  0
  184.8630  178.4570  143.6460 C   0  0  0  0  0  0  0  0  0  0  0  0
  184.0760  178.5530  144.8960 C   0  0  0  0  0  3  0  0  0  0  0  0
  191.2910  176.7860  143.9930 N   0  0  0  0  0  0  0  0  0  0  0  0
  190.6160  175.6280  143.4250 C   0  0  0  0  0  2  0  0  0  0  0  0
  191.6000  176.4600  145.3740 C   0  0  0  0  0  1  0  0  0  0  0  0
  190.2800  177.8160  144.0180 C   0  0  0  0  0  2  0  0  0  0  0  0
  189.0620  177.2090  143.3680 C   0  0  2  0  0  3  0  0  0  0  0  0
  189.4750  176.0410  142.7210 O   0  0  0  0  0  0  0  0  0  0  0  0
  189.1340  178.3780  141.0760 C   0  0  0  0  0  2  0  0  0  0  0  0
  189.0630  177.1890  140.1230 C   0  0  0  0  0  2  0  0  0  0  0  0
  188.6850  177.6190  138.7070 C   0  0  1  0  0  3  0  0  0  0  0  0
  189.0360  179.2470  137.2470 C   0  0  0  0  0  1  0  0  0  0  0  0
  188.7360  179.0100  138.5900 O   0  0  0  0  0  0  0  0  0  0  0  0
  189.5950  176.9750  137.6650 C   0  0  0  0  0  2  0  0  0  0  0  0
  192.5110  176.4080  137.1260 C   0  0  2  0  0  3  0  0  0  0  0  0
  192.3360  174.9480  136.8090 C   0  0  2  0  0  3  0  0  0  0  0  0
  193.8590  176.7450  137.2660 O   0  0  0  0  0  1  0  0  0  0  0  0
  191.7940  176.6820  138.3600 N   0  0  0  0  0  2  0  0  0  0  0  0
  190.6310  174.6060  137.2710 S   0  0  0  0  0  0  0  0  0  0  0  0
  190.5310  176.0540  138.3000 N   0  0  0  0  0  0  0  0  0  0  0  0
  193.2180  174.1300  137.6280 N   0  0  0  0  0  1  0  0  0  0  0  0
  1 19  1  6  0  0  0
  2  1  1  1  0  0  0
  2  3  1  0  0  0  0
  3 11  2  0  0  0  0
  3  5  1  0  0  0  0
  4  7  2  0  0  0  0
  5  4  1  0  0  0  0
  6 11  1  0  0  0  0
  8  2  1  0  0  0  0
  9  7  1  0  0  0  0
 10  8  1  0  0  0  0
 10  6  1  0  0  0  0
 11 12  1  0  0  0  0
 12  9  2  0  0  0  0
 13 16  1  0  0  0  0
 13 15  1  0  0  0  0
 14 13  1  0  0  0  0
 17  1  1  6  0  0  0
 17 16  1  0  0  0  0
 18 17  1  0  0  0  0
 18 14  1  0  0  0  0
 20 19  1  0  0  0  0
 21 24  1  6  0  0  0
 21 20  1  0  0  0  0
 22 23  1  0  0  0  0
 23 21  1  0  0  0  0
 24 30  1  0  0  0  0
 25 27  1  1  0  0  0
 25 28  1  0  0  0  0
 26 25  1  0  0  0  0
 26 29  1  0  0  0  0
 26 31  1  1  0  0  0
 29 30  1  0  0  0  0
 30 28  1  0  0  0  0
M  END
>  <MODEL>
3

>  <REMARK>
 VINA RESULT:      -7.9      2.927      4.351
  Name = 
  8 active torsions:
  status: ('A' for Active; 'I' for Inactive)
    1  A    between atoms: C_3  and  C_9
    2  A    between atoms: C_3  and  N_22
    3  A    between atoms: C_4  and  C_12
    4  A    between atoms: C_9  and  C_15
    5  A    between atoms: C_9  and  O_23
    6  A    between atoms: C_12  and  C_20
    7  A    between atoms: C_12  and  C_27
    8  A    between atoms: C_15  and  C_20
                            x       y       z     vdW  Elec       q    Type
                         _______ _______ _______ _____ _____    ______ ____

>  <TORSDO>
F 8

$$$$
=
 OpenBabel10262419243D

 31 34  0  0  1  0  0  0  0  0999 V2000
  185.3450  178.2250  142.0740 C   0  0  1  0  0  3  0  0  0  0  0  0
  184.9730  178.1620  143.5690 C   0  0  1  0  0  3  0  0  0  0  0  0
  186.1570  177.7760  144.4380 C   0  0  0  0  0  0  0  0  0  0  0  0
  188.4870  177.1610  143.8960 C   0  0  0  0  0  3  0  0  0  0  0  0
  187.0740  176.6910  143.9630 C   0  0  0  0  0  2  0  0  0  0  0  0
  185.1920  179.0610  146.1800 O   0  0  0  0  0  0  0  0  0  0  0  0
  189.1650  177.5540  144.9710 C   0  0  0  0  0  3  0  0  0  0  0  0
  184.3550  179.4150  144.0130 N   0  0  0  0  0  2  0  0  0  0  0  0
  188.5990  177.6590  146.3280 C   0  0  0  0  0  3  0  0  0  0  0  0
  184.0060  179.2780  145.4210 C   0  0  0  0  0  2  0  0  0  0  0  0
  186.2220  178.2430  145.7020 C   0  0  0  0  0  0  0  0  0  0  0  0
  187.3280  177.9460  146.6390 C   0  0  0  0  0  3  0  0  0  0  0  0
  183.4680  178.2230  138.9880 N   0  0  0  0  0  0  0  0  0  0  0  0
  183.9900  179.5770  139.0940 C   0  0  0  0  0  2  0  0  0  0  0  0
  182.0510  178.3390  138.6910 C   0  0  0  0  0  1  0  0  0  0  0  0
  183.5760  177.6890  140.3250 C   0  0  0  0  0  2  0  0  0  0  0  0
  184.2530  178.7630  141.1400 C   0  0  2  0  0  3  0  0  0  0  0  0
  184.7890  179.6900  140.2430 O   0  0  0  0  0  0  0  0  0  0  0  0
  186.7530  178.7370  141.7510 C   0  0  0  0  0  2  0  0  0  0  0  0
  187.2730  178.2500  140.4010 C   0  0  0  0  0  2  0  0  0  0  0  0
  188.8000  178.2510  140.3480 C   0  0  1  0  0  3  0  0  0  0  0  0
  190.6960  177.2420  140.8870 C   0  0  0  0  0  1  0  0  0  0  0  0
  189.3090  177.1010  140.9570 O   0  0  0  0  0  0  0  0  0  0  0  0
  189.3100  178.3500  138.9140 C   0  0  0  0  0  2  0  0  0  0  0  0
  190.0120  176.8590  136.3840 C   0  0  2  0  0  3  0  0  0  0  0  0
  189.0450  177.5880  135.4930 C   0  0  2  0  0  3  0  0  0  0  0  0
  190.5610  175.7450  135.7440 O   0  0  0  0  0  1  0  0  0  0  0  0
  189.2910  176.4480  137.5770 N   0  0  0  0  0  2  0  0  0  0  0  0
  188.0370  178.5440  136.6370 S   0  0  0  0  0  0  0  0  0  0  0  0
  188.4990  177.5280  138.0230 N   0  0  0  0  0  0  0  0  0  0  0  0
  188.1890  176.6520  134.7810 N   0  0  0  0  0  1  0  0  0  0  0  0
  1 19  1  1  0  0  0
  2  1  1  6  0  0  0
  2  8  1  0  0  0  0
  2  3  1  0  0  0  0
  3 11  2  0  0  0  0
  4  5  1  0  0  0  0
  4  7  2  0  0  0  0
  5  3  1  0  0  0  0
  7  9  1  0  0  0  0
  8 10  1  0  0  0  0
  9 12  2  0  0  0  0
 10  6  1  0  0  0  0
 11  6  1  0  0  0  0
 11 12  1  0  0  0  0
 13 14  1  0  0  0  0
 13 16  1  0  0  0  0
 14 18  1  0  0  0  0
 15 13  1  0  0  0  0
 16 17  1  0  0  0  0
 17  1  1  6  0  0  0
 18 17  1  0  0  0  0
 20 19  1  0  0  0  0
 21 24  1  6  0  0  0
 21 20  1  0  0  0  0
 21 23  1  0  0  0  0
 22 23  1  0  0  0  0
 25 27  1  6  0  0  0
 25 28  1  0  0  0  0
 26 31  1  1  0  0  0
 26 25  1  0  0  0  0
 26 29  1  0  0  0  0
 28 30  1  0  0  0  0
 29 30  1  0  0  0  0
 30 24  1  0  0  0  0
M  END
>  <MODEL>
4

>  <REMARK>
 VINA RESULT:      -7.7      2.310      5.290
  Name = 
  8 active torsions:
  status: ('A' for Active; 'I' for Inactive)
    1  A    between atoms: C_3  and  C_9
    2  A    between atoms: C_3  and  N_22
    3  A    between atoms: C_4  and  C_12
    4  A    between atoms: C_9  and  C_15
    5  A    between atoms: C_9  and  O_23
    6  A    between atoms: C_12  and  C_20
    7  A    between atoms: C_12  and  C_27
    8  A    between atoms: C_15  and  C_20
                            x       y       z     vdW  Elec       q    Type
                         _______ _______ _______ _____ _____    ______ ____

>  <TORSDO>
F 8

$$$$
=
 OpenBabel10262419243D

 31 34  0  0  1  0  0  0  0  0999 V2000
  188.0850  178.2900  142.5300 C   0  0  1  0  0  3  0  0  0  0  0  0
  186.5600  178.0690  142.5030 C   0  0  1  0  0  3  0  0  0  0  0  0
  185.9600  178.0420  143.8970 C   0  0  0  0  0  0  0  0  0  0  0  0
  186.9710  178.1950  146.1460 C   0  0  0  0  0  3  0  0  0  0  0  0
  186.6900  177.3090  144.9810 C   0  0  0  0  0  2  0  0  0  0  0  0
  183.9610  178.9110  142.9660 O   0  0  0  0  0  0  0  0  0  0  0  0
  186.0060  178.7460  146.8780 C   0  0  0  0  0  3  0  0  0  0  0  0
  185.8980  179.0550  141.6430 N   0  0  0  0  0  2  0  0  0  0  0  0
  184.5650  178.6280  146.5920 C   0  0  0  0  0  3  0  0  0  0  0  0
  184.4680  178.7740  141.6420 C   0  0  0  0  0  2  0  0  0  0  0  0
  184.6910  178.4670  144.0740 C   0  0  0  0  0  0  0  0  0  0  0  0
  184.0030  178.4980  145.3830 C   0  0  0  0  0  3  0  0  0  0  0  0
  191.1660  176.7320  143.5910 N   0  0  0  0  0  0  0  0  0  0  0  0
  190.3480  175.6280  143.1100 C   0  0  0  0  0  2  0  0  0  0  0  0
  191.6800  176.3400  144.8920 C   0  0  0  0  0  1  0  0  0  0  0  0
  190.2260  177.8050  143.8150 C   0  0  0  0  0  2  0  0  0  0  0  0
  188.8890  177.2800  143.3580 C   0  0  2  0  0  3  0  0  0  0  0  0
  189.1290  176.1200  142.6170 O   0  0  0  0  0  0  0  0  0  0  0  0
  188.7360  178.6610  141.1920 C   0  0  0  0  0  2  0  0  0  0  0  0
  188.6880  177.5310  140.1670 C   0  0  0  0  0  2  0  0  0  0  0  0
  189.9250  177.5250  139.2720 C   0  0  1  0  0  3  0  0  0  0  0  0
  191.9590  177.1280  140.0520 C   0  0  0  0  0  1  0  0  0  0  0  0
  190.7880  176.4900  139.6390 O   0  0  0  0  0  0  0  0  0  0  0  0
  189.5500  177.3920  137.7990 C   0  0  0  0  0  2  0  0  0  0  0  0
  187.9200  176.1900  135.5610 C   0  0  2  0  0  3  0  0  0  0  0  0
  187.0980  177.4180  135.2810 C   0  0  2  0  0  3  0  0  0  0  0  0
  187.4180  175.0720  134.8900 O   0  0  0  0  0  1  0  0  0  0  0  0
  187.9010  175.9630  136.9960 N   0  0  0  0  0  2  0  0  0  0  0  0
  187.4930  178.5240  136.6440 S   0  0  0  0  0  0  0  0  0  0  0  0
  188.1110  177.1950  137.6520 N   0  0  0  0  0  0  0  0  0  0  0  0
  185.6760  177.1110  135.3210 N   0  0  0  0  0  1  0  0  0  0  0  0
  1 19  1  6  0  0  0
  2  1  1  1  0  0  0
  2  3  1  0  0  0  0
  3 11  2  0  0  0  0
  3  5  1  0  0  0  0
  4  7  2  0  0  0  0
  5  4  1  0  0  0  0
  6 11  1  0  0  0  0
  8  2  1  0  0  0  0
  9  7  1  0  0  0  0
 10  8  1  0  0  0  0
 10  6  1  0  0  0  0
 11 12  1  0  0  0  0
 12  9  2  0  0  0  0
 13 16  1  0  0  0  0
 13 15  1  0  0  0  0
 14 13  1  0  0  0  0
 17  1  1  6  0  0  0
 17 16  1  0  0  0  0
 18 14  1  0  0  0  0
 18 17  1  0  0  0  0
 20 19  1  0  0  0  0
 21 24  1  6  0  0  0
 21 23  1  0  0  0  0
 21 20  1  0  0  0  0
 23 22  1  0  0  0  0
 25 27  1  6  0  0  0
 25 28  1  0  0  0  0
 26 31  1  1  0  0  0
 26 25  1  0  0  0  0
 26 29  1  0  0  0  0
 28 30  1  0  0  0  0
 29 30  1  0  0  0  0
 30 24  1  0  0  0  0
M  END
>  <MODEL>
5

>  <REMARK>
 VINA RESULT:      -7.5      2.436      3.499
  Name = 
  8 active torsions:
  status: ('A' for Active; 'I' for Inactive)
    1  A    between atoms: C_3  and  C_9
    2  A    between atoms: C_3  and  N_22
    3  A    between atoms: C_4  and  C_12
    4  A    between atoms: C_9  and  C_15
    5  A    between atoms: C_9  and  O_23
    6  A    between atoms: C_12  and  C_20
    7  A    between atoms: C_12  and  C_27
    8  A    between atoms: C_15  and  C_20
                            x       y       z     vdW  Elec       q    Type
                         _______ _______ _______ _____ _____    ______ ____

>  <TORSDO>
F 8

$$$$
=
 OpenBabel10262419243D

 31 34  0  0  1  0  0  0  0  0999 V2000
  187.9750  178.4150  141.9750 C   0  0  1  0  0  3  0  0  0  0  0  0
  186.4530  178.1930  141.8720 C   0  0  1  0  0  3  0  0  0  0  0  0
  185.7840  178.1690  143.2350 C   0  0  0  0  0  0  0  0  0  0  0  0
  186.6820  178.3290  145.5310 C   0  0  0  0  0  3  0  0  0  0  0  0
  186.4600  177.4390  144.3560 C   0  0  0  0  0  2  0  0  0  0  0  0
  183.8340  179.0340  142.2020 O   0  0  0  0  0  0  0  0  0  0  0  0
  185.6810  178.8800  146.2120 C   0  0  0  0  0  3  0  0  0  0  0  0
  185.8350  179.1760  140.9780 N   0  0  0  0  0  2  0  0  0  0  0  0
  184.2560  178.7610  145.8550 C   0  0  0  0  0  3  0  0  0  0  0  0
  184.4070  178.8940  140.9060 C   0  0  0  0  0  2  0  0  0  0  0  0
  184.5080  178.5930  143.3470 C   0  0  0  0  0  0  0  0  0  0  0  0
  183.7550  178.6280  144.6200 C   0  0  0  0  0  3  0  0  0  0  0  0
  190.9660  177.0040  143.4270 N   0  0  0  0  0  0  0  0  0  0  0  0
  190.1820  175.8480  143.0150 C   0  0  0  0  0  2  0  0  0  0  0  0
  191.3840  176.7640  144.7970 C   0  0  0  0  0  1  0  0  0  0  0  0
  190.0160  178.0900  143.4590 C   0  0  0  0  0  2  0  0  0  0  0  0
  188.7140  177.5090  142.9680 C   0  0  2  0  0  3  0  0  0  0  0  0
  189.0040  176.2740  142.3830 O   0  0  0  0  0  0  0  0  0  0  0  0
  188.7170  178.6260  140.6490 C   0  0  0  0  0  2  0  0  0  0  0  0
  188.6840  177.3990  139.7420 C   0  0  0  0  0  2  0  0  0  0  0  0
  187.8950  177.6620  138.4610 C   0  0  1  0  0  3  0  0  0  0  0  0
  189.0560  179.0200  137.1530 C   0  0  0  0  0  1  0  0  0  0  0  0
  188.0150  179.0020  138.0820 O   0  0  0  0  0  0  0  0  0  0  0  0
  188.3550  176.7560  137.3240 C   0  0  0  0  0  2  0  0  0  0  0  0
  186.8250  174.1620  137.1110 C   0  0  2  0  0  3  0  0  0  0  0  0
  187.1180  173.9200  135.6560 C   0  0  2  0  0  3  0  0  0  0  0  0
  185.8490  173.2870  137.5910 O   0  0  0  0  0  1  0  0  0  0  0  0
  186.3760  175.5370  137.2490 N   0  0  0  0  0  2  0  0  0  0  0  0
  187.8740  175.4570  135.1050 S   0  0  0  0  0  0  0  0  0  0  0  0
  187.2240  176.3700  136.4860 N   0  0  0  0  0  0  0  0  0  0  0  0
  185.8890  173.7060  134.9080 N   0  0  0  0  0  1  0  0  0  0  0  0
  1 19  1  6  0  0  0
  2  1  1  1  0  0  0
  2  3  1  0  0  0  0
  3 11  2  0  0  0  0
  3  5  1  0  0  0  0
  4  7  2  0  0  0  0
  5  4  1  0  0  0  0
  6 11  1  0  0  0  0
  8  2  1  0  0  0  0
  9  7  1  0  0  0  0
 10  8  1  0  0  0  0
 10  6  1  0  0  0  0
 11 12  1  0  0  0  0
 12  9  2  0  0  0  0
 13 16  1  0  0  0  0
 13 15  1  0  0  0  0
 14 13  1  0  0  0  0
 17  1  1  6  0  0  0
 17 16  1  0  0  0  0
 18 17  1  0  0  0  0
 18 14  1  0  0  0  0
 20 19  1  0  0  0  0
 21 24  1  6  0  0  0
 21 20  1  0  0  0  0
 22 23  1  0  0  0  0
 23 21  1  0  0  0  0
 25 28  1  0  0  0  0
 25 27  1  6  0  0  0
 26 31  1  6  0  0  0
 26 25  1  0  0  0  0
 29 26  1  0  0  0  0
 29 30  1  0  0  0  0
 30 28  1  0  0  0  0
 30 24  1  0  0  0  0
M  END
>  <MODEL>
6

>  <REMARK>
 VINA RESULT:      -7.3      2.684      4.093
  Name = 
  8 active torsions:
  status: ('A' for Active; 'I' for Inactive)
    1  A    between atoms: C_3  and  C_9
    2  A    between atoms: C_3  and  N_22
    3  A    between atoms: C_4  and  C_12
    4  A    between atoms: C_9  and  C_15
    5  A    between atoms: C_9  and  O_23
    6  A    between atoms: C_12  and  C_20
    7  A    between atoms: C_12  and  C_27
    8  A    between atoms: C_15  and  C_20
                            x       y       z     vdW  Elec       q    Type
                         _______ _______ _______ _____ _____    ______ ____

>  <TORSDO>
F 8

$$$$
=
 OpenBabel10262419243D

 31 34  0  0  1  0  0  0  0  0999 V2000
  186.9830  178.0680  143.3430 C   0  0  1  0  0  3  0  0  0  0  0  0
  186.1190  177.9100  144.6100 C   0  0  1  0  0  3  0  0  0  0  0  0
  186.9620  177.8070  145.8680 C   0  0  0  0  0  0  0  0  0  0  0  0
  189.4040  177.7560  146.2350 C   0  0  0  0  0  3  0  0  0  0  0  0
  188.2040  176.9680  145.8360 C   0  0  0  0  0  2  0  0  0  0  0  0
  185.1740  178.8190  147.0510 O   0  0  0  0  0  0  0  0  0  0  0  0
  189.5420  178.2900  147.4460 C   0  0  0  0  0  3  0  0  0  0  0  0
  185.1230  178.9820  144.7070 N   0  0  0  0  0  2  0  0  0  0  0  0
  188.5160  178.2510  148.5030 C   0  0  0  0  0  3  0  0  0  0  0  0
  184.3270  178.7580  145.9070 C   0  0  0  0  0  2  0  0  0  0  0  0
  186.4600  178.2670  147.0340 C   0  0  0  0  0  0  0  0  0  0  0  0
  187.1890  178.2310  148.3210 C   0  0  0  0  0  3  0  0  0  0  0  0
  190.2250  177.2890  141.9540 N   0  0  0  0  0  0  0  0  0  0  0  0
  189.6930  176.0020  142.3800 C   0  0  0  0  0  2  0  0  0  0  0  0
  191.5750  177.3820  142.4790 C   0  0  0  0  0  1  0  0  0  0  0  0
  189.4270  178.2600  142.6640 C   0  0  0  0  0  2  0  0  0  0  0  0
  188.3910  177.4660  143.4190 C   0  0  2  0  0  3  0  0  0  0  0  0
  188.3990  176.1700  142.8970 O   0  0  0  0  0  0  0  0  0  0  0  0
  186.2700  177.8270  142.0060 C   0  0  0  0  0  2  0  0  0  0  0  0
  185.7320  179.1070  141.3740 C   0  0  0  0  0  2  0  0  0  0  0  0
  184.9260  178.8190  140.1090 C   0  0  1  0  0  3  0  0  0  0  0  0
  183.2740  179.8660  139.0700 C   0  0  0  0  0  1  0  0  0  0  0  0
  184.6100  180.0100  139.4510 O   0  0  0  0  0  0  0  0  0  0  0  0
  185.6790  177.8870  139.1650 C   0  0  0  0  0  2  0  0  0  0  0  0
  187.2320  177.1370  136.6880 C   0  0  2  0  0  3  0  0  0  0  0  0
  188.5980  177.3140  137.2930 C   0  0  2  0  0  3  0  0  0  0  0  0
  187.3010  176.9730  135.3020 O   0  0  0  0  0  1  0  0  0  0  0  0
  186.4480  178.3160  137.0130 N   0  0  0  0  0  2  0  0  0  0  0  0
  188.2700  178.0980  138.8790 S   0  0  0  0  0  0  0  0  0  0  0  0
  186.6510  178.6340  138.3740 N   0  0  0  0  0  0  0  0  0  0  0  0
  189.4110  178.2090  136.4850 N   0  0  0  0  0  1  0  0  0  0  0  0
  1 19  1  6  0  0  0
  2  1  1  6  0  0  0
  2  8  1  0  0  0  0
  2  3  1  0  0  0  0
  3 11  2  0  0  0  0
  4  7  2  0  0  0  0
  5  3  1  0  0  0  0
  5  4  1  0  0  0  0
  7  9  1  0  0  0  0
  8 10  1  0  0  0  0
 10  6  1  0  0  0  0
 11  6  1  0  0  0  0
 11 12  1  0  0  0  0
 12  9  2  0  0  0  0
 13 14  1  0  0  0  0
 13 15  1  0  0  0  0
 13 16  1  0  0  0  0
 14 18  1  0  0  0  0
 16 17  1  0  0  0  0
 17  1  1  6  0  0  0
 18 17  1  0  0  0  0
 20 19  1  0  0  0  0
 21 24  1  6  0  0  0
 21 20  1  0  0  0  0
 22 23  1  0  0  0  0
 23 21  1  0  0  0  0
 25 27  1  6  0  0  0
 25 28  1  0  0  0  0
 25 26  1  0  0  0  0
 26 31  1  6  0  0  0
 26 29  1  0  0  0  0
 28 30  1  0  0  0  0
 30 29  1  0  0  0  0
 30 24  1  0  0  0  0
M  END
>  <MODEL>
7

>  <REMARK>
 VINA RESULT:      -7.0      2.032      4.358
  Name = 
  8 active torsions:
  status: ('A' for Active; 'I' for Inactive)
    1  A    between atoms: C_3  and  C_9
    2  A    between atoms: C_3  and  N_22
    3  A    between atoms: C_4  and  C_12
    4  A    between atoms: C_9  and  C_15
    5  A    between atoms: C_9  and  O_23
    6  A    between atoms: C_12  and  C_20
    7  A    between atoms: C_12  and  C_27
    8  A    between atoms: C_15  and  C_20
                            x       y       z     vdW  Elec       q    Type
                         _______ _______ _______ _____ _____    ______ ____

>  <TORSDO>
F 8

$$$$
=
 OpenBabel10262419243D

 31 34  0  0  1  0  0  0  0  0999 V2000
  185.0420  178.3220  139.4040 C   0  0  1  0  0  3  0  0  0  0  0  0
  183.8370  178.9310  138.6590 C   0  0  1  0  0  3  0  0  0  0  0  0
  182.6440  177.9930  138.6370 C   0  0  0  0  0  0  0  0  0  0  0  0
  182.3210  175.6920  139.4760 C   0  0  0  0  0  3  0  0  0  0  0  0
  182.8790  176.5350  138.3810 C   0  0  0  0  0  2  0  0  0  0  0  0
  181.2440  179.9050  138.5950 O   0  0  0  0  0  0  0  0  0  0  0  0
  181.0210  175.6490  139.7570 C   0  0  0  0  0  3  0  0  0  0  0  0
  183.4870  180.2450  139.2070 N   0  0  0  0  0  2  0  0  0  0  0  0
  179.9920  176.4730  139.0980 C   0  0  0  0  0  3  0  0  0  0  0  0
  182.3630  180.7730  138.4450 C   0  0  0  0  0  2  0  0  0  0  0  0
  181.3990  178.5140  138.6100 C   0  0  0  0  0  0  0  0  0  0  0  0
  180.1620  177.7040  138.5960 C   0  0  0  0  0  3  0  0  0  0  0  0
  188.3610  178.8060  138.0630 N   0  0  0  0  0  0  0  0  0  0  0  0
  187.5060  178.7020  136.8890 C   0  0  0  0  0  2  0  0  0  0  0  0
  189.4820  177.9090  137.8490 C   0  0  0  0  0  1  0  0  0  0  0  0
  187.5700  178.2460  139.1340 C   0  0  0  0  0  2  0  0  0  0  0  0
  186.2310  177.9160  138.5240 C   0  0  2  0  0  3  0  0  0  0  0  0
  186.1670  178.5610  137.2870 O   0  0  0  0  0  0  0  0  0  0  0  0
  185.4400  179.0080  140.7170 C   0  0  0  0  0  2  0  0  0  0  0  0
  184.9700  178.2500  141.9550 C   0  0  0  0  0  2  0  0  0  0  0  0
  185.9990  178.3140  143.0820 C   0  0  1  0  0  3  0  0  0  0  0  0
  184.5410  179.1350  144.5330 C   0  0  0  0  0  1  0  0  0  0  0  0
  185.3910  178.0490  144.3120 O   0  0  0  0  0  0  0  0  0  0  0  0
  187.1470  177.3380  142.8490 C   0  0  0  0  0  2  0  0  0  0  0  0
  189.9770  176.8980  141.8940 C   0  0  2  0  0  3  0  0  0  0  0  0
  190.5210  176.4210  143.2130 C   0  0  2  0  0  3  0  0  0  0  0  0
  191.0010  177.1440  140.9760 O   0  0  0  0  0  1  0  0  0  0  0  0
  189.2220  178.1140  142.1410 N   0  0  0  0  0  2  0  0  0  0  0  0
  189.1890  176.7530  144.3760 S   0  0  0  0  0  0  0  0  0  0  0  0
  188.4130  177.9210  143.2820 N   0  0  0  0  0  0  0  0  0  0  0  0
  191.6890  177.1940  143.6030 N   0  0  0  0  0  1  0  0  0  0  0  0
  1 19  1  1  0  0  0
  2  8  1  0  0  0  0
  2  1  1  1  0  0  0
  3  2  1  0  0  0  0
  4  7  2  0  0  0  0
  5  3  1  0  0  0  0
  5  4  1  0  0  0  0
  6 11  1  0  0  0  0
  9  7  1  0  0  0  0
 10  6  1  0  0  0  0
 10  8  1  0  0  0  0
 11  3  2  0  0  0  0
 12 11  1  0  0  0  0
 12  9  2  0  0  0  0
 13 16  1  0  0  0  0
 14 18  1  0  0  0  0
 14 13  1  0  0  0  0
 15 13  1  0  0  0  0
 17 16  1  0  0  0  0
 17  1  1  1  0  0  0
 18 17  1  0  0  0  0
 19 20  1  0  0  0  0
 21 20  1  6  0  0  0
 21 23  1  0  0  0  0
 23 22  1  0  0  0  0
 24 21  1  0  0  0  0
 24 30  1  0  0  0  0
 25 27  1  6  0  0  0
 25 28  1  0  0  0  0
 25 26  1  0  0  0  0
 26 31  1  1  0  0  0
 26 29  1  0  0  0  0
 28 30  1  0  0  0  0
 30 29  1  0  0  0  0
M  END
>  <MODEL>
8

>  <REMARK>
 VINA RESULT:      -6.9      3.110      6.767
  Name = 
  8 active torsions:
  status: ('A' for Active; 'I' for Inactive)
    1  A    between atoms: C_3  and  C_9
    2  A    between atoms: C_3  and  N_22
    3  A    between atoms: C_4  and  C_12
    4  A    between atoms: C_9  and  C_15
    5  A    between atoms: C_9  and  O_23
    6  A    between atoms: C_12  and  C_20
    7  A    between atoms: C_12  and  C_27
    8  A    between atoms: C_15  and  C_20
                            x       y       z     vdW  Elec       q    Type
                         _______ _______ _______ _____ _____    ______ ____

>  <TORSDO>
F 8

$$$$
=
 OpenBabel10262419243D

 31 34  0  0  1  0  0  0  0  0999 V2000
  190.3990  176.8700  138.5750 C   0  0  1  0  0  3  0  0  0  0  0  0
  190.6080  175.8220  137.4640 C   0  0  1  0  0  3  0  0  0  0  0  0
  192.0470  175.3410  137.3940 C   0  0  0  0  0  0  0  0  0  0  0  0
  194.0780  175.9840  138.6450 C   0  0  0  0  0  3  0  0  0  0  0  0
  193.1490  176.3460  137.5370 C   0  0  0  0  0  2  0  0  0  0  0  0
  191.2270  173.2610  136.6090 O   0  0  0  0  0  0  0  0  0  0  0  0
  194.8070  174.8710  138.6350 C   0  0  0  0  0  3  0  0  0  0  0  0
  189.6670  174.7070  137.6050 N   0  0  0  0  0  2  0  0  0  0  0  0
  194.7350  173.8290  137.5950 C   0  0  0  0  0  3  0  0  0  0  0  0
  189.9010  173.7700  136.5140 C   0  0  0  0  0  2  0  0  0  0  0  0
  192.2980  174.0830  136.9750 C   0  0  0  0  0  0  0  0  0  0  0  0
  193.6540  173.4990  136.8760 C   0  0  0  0  0  3  0  0  0  0  0  0
  187.1140  177.7140  137.3310 N   0  0  0  0  0  0  0  0  0  0  0  0
  187.9930  178.7150  136.7440 C   0  0  0  0  0  2  0  0  0  0  0  0
  185.9890  178.4260  137.9100 C   0  0  0  0  0  1  0  0  0  0  0  0
  187.8760  177.1650  138.4270 C   0  0  0  0  0  2  0  0  0  0  0  0
  189.2250  177.8360  138.3640 C   0  0  2  0  0  3  0  0  0  0  0  0
  189.3220  178.4590  137.1180 O   0  0  0  0  0  0  0  0  0  0  0  0
  190.5430  176.3650  140.0150 C   0  0  0  0  0  2  0  0  0  0  0  0
  191.0230  177.4420  140.9840 C   0  0  0  0  0  2  0  0  0  0  0  0
  190.0830  177.5900  142.1780 C   0  0  1  0  0  3  0  0  0  0  0  0
  187.9420  178.0930  141.9190 C   0  0  0  0  0  1  0  0  0  0  0  0
  188.8380  177.0230  141.8920 O   0  0  0  0  0  0  0  0  0  0  0  0
  190.6690  176.9520  143.4340 C   0  0  0  0  0  2  0  0  0  0  0  0
  191.3080  176.5610  146.3590 C   0  0  2  0  0  3  0  0  0  0  0  0
  189.8990  176.7310  146.8570 C   0  0  2  0  0  3  0  0  0  0  0  0
  192.2280  176.5580  147.4100 O   0  0  0  0  0  1  0  0  0  0  0  0
  191.5910  177.6580  145.4480 N   0  0  0  0  0  2  0  0  0  0  0  0
  188.9970  177.3150  145.4130 S   0  0  0  0  0  0  0  0  0  0  0  0
  190.4860  177.8290  144.5870 N   0  0  0  0  0  0  0  0  0  0  0  0
  189.8350  177.7490  147.8940 N   0  0  0  0  0  1  0  0  0  0  0  0
  1 19  1  1  0  0  0
  2  8  1  0  0  0  0
  2  1  1  1  0  0  0
  3  2  1  0  0  0  0
  3  5  1  0  0  0  0
  5  4  1  0  0  0  0
  6 11  1  0  0  0  0
  7  4  2  0  0  0  0
  9  7  1  0  0  0  0
 10  6  1  0  0  0  0
 10  8  1  0  0  0  0
 11  3  2  0  0  0  0
 12 11  1  0  0  0  0
 12  9  2  0  0  0  0
 13 15  1  0  0  0  0
 13 16  1  0  0  0  0
 14 18  1  0  0  0  0
 14 13  1  0  0  0  0
 17 16  1  0  0  0  0
 17  1  1  6  0  0  0
 18 17  1  0  0  0  0
 19 20  1  0  0  0  0
 21 20  1  6  0  0  0
 21 24  1  0  0  0  0
 23 22  1  0  0  0  0
 23 21  1  0  0  0  0
 24 30  1  0  0  0  0
 25 26  1  0  0  0  0
 25 27  1  1  0  0  0
 26 31  1  1  0  0  0
 28 25  1  0  0  0  0
 29 26  1  0  0  0  0
 30 29  1  0  0  0  0
 30 28  1  0  0  0  0
M  END
>  <MODEL>
9

>  <REMARK>
 VINA RESULT:      -6.9      3.953      9.399
  Name = 
  8 active torsions:
  status: ('A' for Active; 'I' for Inactive)
    1  A    between atoms: C_3  and  C_9
    2  A    between atoms: C_3  and  N_22
    3  A    between atoms: C_4  and  C_12
    4  A    between atoms: C_9  and  C_15
    5  A    between atoms: C_9  and  O_23
    6  A    between atoms: C_12  and  C_20
    7  A    between atoms: C_12  and  C_27
    8  A    between atoms: C_15  and  C_20
                            x       y       z     vdW  Elec       q    Type
                         _______ _______ _______ _____ _____    ______ ____

>  <TORSDO>
F 8

$$$$
