=
 OpenBabel10262422583D

 37 39  0  0  1  0  0  0  0  0999 V2000
  182.7790  178.7890  137.3530 C   0  0  0  0  0  2  0  0  0  0  0  0
  185.6110  178.7330  138.8490 O   0  0  0  0  0  0  0  0  0  0  0  0
  181.4080  175.3110  136.1550 C   0  0  0  0  0  2  0  0  0  0  0  0
  183.2760  178.2450  138.7040 C   0  0  2  0  0  3  0  0  0  0  0  0
  182.0080  176.3600  137.1050 C   0  0  1  0  0  3  0  0  0  0  0  0
  184.1400  180.4840  138.9920 O   0  0  0  0  0  1  0  0  0  0  0  0
  182.3670  177.8600  135.1040 C   0  0  0  0  0  1  0  0  0  0  0  0
  183.4580  175.9860  137.4780 C   0  0  2  0  0  3  0  0  0  0  0  0
  183.2040  173.7940  136.9820 C   0  0  0  0  0  2  0  0  0  0  0  0
  181.9000  177.8060  136.5570 C   0  0  2  0  0  0  0  0  0  0  0  0
  183.5030  174.6910  138.0220 O   0  0  0  0  0  0  0  0  0  0  0  0
  184.3460  179.1410  139.3260 C   0  0  2  0  0  0  0  0  0  0  0  0
  184.0460  176.9700  138.5030 C   0  0  1  0  0  3  0  0  0  0  0  0
  181.7210  173.8880  136.6170 C   0  0  1  0  0  3  0  0  0  0  0  0
  185.4790  177.4480  138.2680 C   0  0  1  0  0  3  0  0  0  0  0  0
  180.6500  172.1990  137.5650 C   0  0  0  0  0  1  0  0  0  0  0  0
  180.9310  173.5570  137.7210 O   0  0  0  0  0  0  0  0  0  0  0  0
  180.2550  179.7190  136.9590 C   0  0  0  0  0  1  0  0  0  0  0  0
  180.4320  178.2380  136.6490 C   0  0  0  0  0  2  0  0  0  0  0  0
  185.8940  177.4930  136.7780 C   0  0  2  0  0  3  0  0  0  0  0  0
  186.4550  175.8890  135.0800 O   0  0  0  0  0  0  0  0  0  0  0  0
  187.0130  175.3070  137.2250 O   0  0  0  0  0  1  0  0  0  0  0  0
  186.4750  176.1950  136.3030 C   0  0  0  0  0  0  0  0  0  0  0  0
  186.8220  178.6620  136.4340 C   0  0  0  0  0  2  0  0  0  0  0  0
  188.2940  178.2650  136.4560 C   0  0  0  0  0  2  0  0  0  0  0  0
  188.9700  178.8090  137.7000 C   0  0  0  0  0  2  0  0  0  0  0  0
  188.8880  177.9130  140.0060 C   0  0  0  0  0  1  0  0  0  0  0  0
  189.4050  177.6710  138.6040 C   0  0  0  0  0  2  0  0  0  0  0  0
  184.3490  179.0130  140.8540 C   0  0  0  0  0  2  0  0  0  0  0  0
  185.7490  179.0680  141.4530 C   0  0  0  0  0  2  0  0  0  0  0  0
  184.4600  178.1100  143.2130 O   0  0  0  0  0  1  0  0  0  0  0  0
  185.6980  178.6810  142.9220 C   0  0  1  0  0  3  0  0  0  0  0  0
  186.8000  177.6870  143.2490 C   0  0  0  0  0  2  0  0  0  0  0  0
  187.0490  177.6130  144.7560 C   0  0  0  0  0  2  0  0  0  0  0  0
  188.4730  177.3210  145.1450 C   0  0  0  0  0  3  0  0  0  0  0  0
  188.8740  177.1470  146.3770 C   0  0  0  0  0  0  0  0  0  0  0  0
  189.2550  176.9860  147.5430 O   0  0  0  0  0  0  0  0  0  0  0  0
  2 12  1  0  0  0  0
  3 14  1  0  0  0  0
  4  1  1  6  0  0  0
  4 12  1  0  0  0  0
  5  3  1  6  0  0  0
  5  8  1  0  0  0  0
  8 11  1  1  0  0  0
  8 13  1  0  0  0  0
  9 11  1  0  0  0  0
 10  7  1  6  0  0  0
 10 19  1  0  0  0  0
 10  5  1  0  0  0  0
 10  1  1  0  0  0  0
 12  6  1  6  0  0  0
 12 29  1  0  0  0  0
 13  4  1  0  0  0  0
 14  9  1  0  0  0  0
 14 17  1  0  0  0  0
 15 13  1  0  0  0  0
 15  2  1  0  0  0  0
 16 17  1  0  0  0  0
 19 18  1  0  0  0  0
 20 15  1  0  0  0  0
 21 23  2  0  0  0  0
 23 20  1  0  0  0  0
 23 22  1  0  0  0  0
 24 25  1  0  0  0  0
 24 20  1  0  0  0  0
 25 26  1  0  0  0  0
 26 28  1  0  0  0  0
 28 27  1  0  0  0  0
 29 30  1  0  0  0  0
 30 32  1  0  0  0  0
 32 31  1  0  0  0  0
 32 33  1  0  0  0  0
 33 34  1  0  0  0  0
 34 35  1  0  0  0  0
 35 36  2  0  0  0  0
 36 37  2  0  0  0  0
M  END
>  <MODEL>
1

>  <REMARK>
 VINA RESULT:      -5.8      0.000      0.000
  Name = 
  14 active torsions:
  status: ('A' for Active; 'I' for Inactive)
    1  A    between atoms: C_1  and  C_23
    2  A    between atoms: C_1  and  C_33
    3  A    between atoms: C_1  and  C_36
    4  A    between atoms: C_6  and  C_8
    5  A    between atoms: C_6  and  C_31
    6  A    between atoms: C_8  and  C_19
    7  A    between atoms: C_15  and  C_19
    8  A    between atoms: C_17  and  C_26
    9  A    between atoms: C_17  and  C_33
   10  A    between atoms: C_24  and  C_28
   11  A    between atoms: C_26  and  C_34
   12  A    between atoms: C_27  and  C_37
   13  A    between atoms: O_30  and  C_32
   14  A    between atoms: C_31  and  C_37
                            x       y       z     vdW  Elec       q    Type
                         _______ _______ _______ _____ _____    ______ ____

>  <TORSDO>
F 14

$$$$
=
 OpenBabel10262422583D

 37 39  0  0  1  0  0  0  0  0999 V2000
  181.5790  178.0630  137.4350 C   0  0  0  0  0  2  0  0  0  0  0  0
  182.9100  178.3730  140.3320 O   0  0  0  0  0  0  0  0  0  0  0  0
  179.8330  181.2730  136.0020 C   0  0  0  0  0  2  0  0  0  0  0  0
  182.7850  178.8400  137.9910 C   0  0  2  0  0  3  0  0  0  0  0  0
  180.9290  180.4110  136.6480 C   0  0  1  0  0  3  0  0  0  0  0  0
  183.4350  176.6850  138.8720 O   0  0  0  0  0  1  0  0  0  0  0  0
  179.2200  178.5700  136.9180 C   0  0  0  0  0  1  0  0  0  0  0  0
  181.1620  180.8370  138.1120 C   0  0  2  0  0  3  0  0  0  0  0  0
  180.2880  182.9040  137.8310 C   0  0  0  0  0  2  0  0  0  0  0  0
  180.6580  178.8910  136.5170 C   0  0  2  0  0  0  0  0  0  0  0  0
  181.4590  182.2100  138.1790 O   0  0  0  0  0  0  0  0  0  0  0  0
  183.5100  178.0650  139.0910 C   0  0  2  0  0  0  0  0  0  0  0  0
  182.3210  180.0530  138.7480 C   0  0  1  0  0  3  0  0  0  0  0  0
  180.0130  182.7550  136.3340 C   0  0  1  0  0  3  0  0  0  0  0  0
  182.1120  179.5310  140.1700 C   0  0  1  0  0  3  0  0  0  0  0  0
  180.9020  184.6690  135.6650 C   0  0  0  0  0  1  0  0  0  0  0  0
  181.0730  183.2860  135.5940 O   0  0  0  0  0  0  0  0  0  0  0  0
  181.5280  177.1140  134.9000 C   0  0  0  0  0  1  0  0  0  0  0  0
  180.8940  178.4910  135.0560 C   0  0  0  0  0  2  0  0  0  0  0  0
  180.6380  179.2140  140.5170 C   0  0  2  0  0  3  0  0  0  0  0  0
  179.2170  181.1140  140.8960 O   0  0  0  0  0  0  0  0  0  0  0  0
  180.3340  180.3220  142.7330 O   0  0  0  0  0  1  0  0  0  0  0  0
  180.0110  180.2650  141.3830 C   0  0  0  0  0  0  0  0  0  0  0  0
  180.4340  177.8200  141.1200 C   0  0  0  0  0  2  0  0  0  0  0  0
  179.5340  176.9390  140.2610 C   0  0  0  0  0  2  0  0  0  0  0  0
  180.2270  175.6280  139.9410 C   0  0  0  0  0  2  0  0  0  0  0  0
  180.8280  174.5180  137.8110 C   0  0  0  0  0  1  0  0  0  0  0  0
  179.6830  175.0460  138.6500 C   0  0  0  0  0  2  0  0  0  0  0  0
  184.9880  178.4690  139.1630 C   0  0  0  0  0  2  0  0  0  0  0  0
  185.6980  178.3740  137.8190 C   0  0  0  0  0  2  0  0  0  0  0  0
  186.8310  176.3820  137.1640 O   0  0  0  0  0  1  0  0  0  0  0  0
  186.9510  177.5240  137.9550 C   0  0  1  0  0  3  0  0  0  0  0  0
  188.1770  178.3110  137.5210 C   0  0  0  0  0  2  0  0  0  0  0  0
  189.0900  178.6130  138.7100 C   0  0  0  0  0  2  0  0  0  0  0  0
  189.0210  177.6080  139.8280 C   0  0  0  0  0  3  0  0  0  0  0  0
  188.8150  177.9190  141.0810 C   0  0  0  0  0  0  0  0  0  0  0  0
  188.6240  178.2120  142.2670 O   0  0  0  0  0  0  0  0  0  0  0  0
  3 14  1  0  0  0  0
  4  1  1  1  0  0  0
  4 13  1  0  0  0  0
  4 12  1  0  0  0  0
  5  3  1  1  0  0  0
  5  8  1  0  0  0  0
  8 11  1  6  0  0  0
  8 13  1  0  0  0  0
  9 11  1  0  0  0  0
 10  5  1  0  0  0  0
 10  7  1  1  0  0  0
 10  1  1  0  0  0  0
 12  6  1  6  0  0  0
 12 29  1  0  0  0  0
 12  2  1  0  0  0  0
 13 15  1  0  0  0  0
 14  9  1  0  0  0  0
 15  2  1  0  0  0  0
 15 20  1  0  0  0  0
 17 16  1  0  0  0  0
 17 14  1  0  0  0  0
 18 19  1  0  0  0  0
 19 10  1  0  0  0  0
 20 24  1  0  0  0  0
 20 23  1  0  0  0  0
 21 23  2  0  0  0  0
 23 22  1  0  0  0  0
 25 24  1  0  0  0  0
 26 25  1  0  0  0  0
 27 28  1  0  0  0  0
 28 26  1  0  0  0  0
 30 32  1  0  0  0  0
 30 29  1  0  0  0  0
 31 32  1  0  0  0  0
 33 32  1  0  0  0  0
 33 34  1  0  0  0  0
 34 35  1  0  0  0  0
 35 36  2  0  0  0  0
 36 37  2  0  0  0  0
M  END
>  <MODEL>
2

>  <REMARK>
 VINA RESULT:      -5.5      2.777      6.775
  Name = 
  14 active torsions:
  status: ('A' for Active; 'I' for Inactive)
    1  A    between atoms: C_1  and  C_23
    2  A    between atoms: C_1  and  C_33
    3  A    between atoms: C_1  and  C_36
    4  A    between atoms: C_6  and  C_8
    5  A    between atoms: C_6  and  C_31
    6  A    between atoms: C_8  and  C_19
    7  A    between atoms: C_15  and  C_19
    8  A    between atoms: C_17  and  C_26
    9  A    between atoms: C_17  and  C_33
   10  A    between atoms: C_24  and  C_28
   11  A    between atoms: C_26  and  C_34
   12  A    between atoms: C_27  and  C_37
   13  A    between atoms: O_30  and  C_32
   14  A    between atoms: C_31  and  C_37
                            x       y       z     vdW  Elec       q    Type
                         _______ _______ _______ _____ _____    ______ ____

>  <TORSDO>
F 14

$$$$
=
 OpenBabel10262422583D

 37 39  0  0  1  0  0  0  0  0999 V2000
  181.5640  178.0310  137.3270 C   0  0  0  0  0  2  0  0  0  0  0  0
  183.0300  178.1590  140.1720 O   0  0  0  0  0  0  0  0  0  0  0  0
  179.7680  181.3270  136.1780 C   0  0  0  0  0  2  0  0  0  0  0  0
  182.7980  178.7700  137.8730 C   0  0  2  0  0  3  0  0  0  0  0  0
  180.8900  180.4240  136.7170 C   0  0  1  0  0  3  0  0  0  0  0  0
  183.4780  176.5630  138.5890 O   0  0  0  0  0  1  0  0  0  0  0  0
  179.1860  178.5740  136.9540 C   0  0  0  0  0  1  0  0  0  0  0  0
  181.1930  180.7590  138.1920 C   0  0  2  0  0  3  0  0  0  0  0  0
  180.3170  182.8410  138.0800 C   0  0  0  0  0  2  0  0  0  0  0  0
  180.6060  178.9150  136.5060 C   0  0  2  0  0  0  0  0  0  0  0  0
  181.5000  182.1240  138.3300 O   0  0  0  0  0  0  0  0  0  0  0  0
  183.5700  177.9270  138.8880 C   0  0  2  0  0  0  0  0  0  0  0  0
  182.3760  179.9340  138.7240 C   0  0  1  0  0  3  0  0  0  0  0  0
  179.9720  182.7850  136.5910 C   0  0  1  0  0  3  0  0  0  0  0  0
  182.2310  179.3270  140.1200 C   0  0  1  0  0  3  0  0  0  0  0  0
  180.3750  184.3480  135.0760 C   0  0  0  0  0  1  0  0  0  0  0  0
  180.9990  183.3590  135.8360 O   0  0  0  0  0  0  0  0  0  0  0  0
  181.4140  177.2520  134.7440 C   0  0  0  0  0  1  0  0  0  0  0  0
  180.7710  178.6060  135.0140 C   0  0  0  0  0  2  0  0  0  0  0  0
  180.7730  178.9920  140.5150 C   0  0  2  0  0  3  0  0  0  0  0  0
  180.3980  179.3280  142.8640 O   0  0  0  0  0  1  0  0  0  0  0  0
  179.7140  181.0300  141.4920 O   0  0  0  0  0  0  0  0  0  0  0  0
  180.2990  179.7870  141.6940 C   0  0  0  0  0  0  0  0  0  0  0  0
  180.5230  177.4950  140.7320 C   0  0  0  0  0  2  0  0  0  0  0  0
  179.0750  177.1010  140.4650 C   0  0  0  0  0  2  0  0  0  0  0  0
  179.0170  175.8210  139.6540 C   0  0  0  0  0  2  0  0  0  0  0  0
  180.5500  174.5580  138.1770 C   0  0  0  0  0  1  0  0  0  0  0  0
  180.4000  175.2090  139.5360 C   0  0  0  0  0  2  0  0  0  0  0  0
  185.0520  178.3220  138.9160 C   0  0  0  0  0  2  0  0  0  0  0  0
  185.7650  178.0490  137.5980 C   0  0  0  0  0  2  0  0  0  0  0  0
  187.5610  178.4280  139.1190 O   0  0  0  0  0  1  0  0  0  0  0  0
  187.2670  177.9950  137.8260 C   0  0  1  0  0  3  0  0  0  0  0  0
  187.7830  176.5780  137.6410 C   0  0  0  0  0  2  0  0  0  0  0  0
  186.8170  175.7430  136.7990 C   0  0  0  0  0  2  0  0  0  0  0  0
  186.9400  174.2550  136.9890 C   0  0  0  0  0  3  0  0  0  0  0  0
  185.9960  173.5000  137.4880 C   0  0  0  0  0  0  0  0  0  0  0  0
  185.1050  172.7860  137.9620 O   0  0  0  0  0  0  0  0  0  0  0  0
  3 14  1  0  0  0  0
  4  1  1  1  0  0  0
  4 13  1  0  0  0  0
  4 12  1  0  0  0  0
  5  3  1  1  0  0  0
  5  8  1  0  0  0  0
  8 11  1  6  0  0  0
  8 13  1  0  0  0  0
  9 11  1  0  0  0  0
 10  5  1  0  0  0  0
 10  7  1  1  0  0  0
 10  1  1  0  0  0  0
 12  6  1  6  0  0  0
 12 29  1  0  0  0  0
 12  2  1  0  0  0  0
 13 15  1  0  0  0  0
 14  9  1  0  0  0  0
 15  2  1  0  0  0  0
 15 20  1  0  0  0  0
 16 17  1  0  0  0  0
 17 14  1  0  0  0  0
 18 19  1  0  0  0  0
 19 10  1  0  0  0  0
 20 24  1  0  0  0  0
 20 23  1  0  0  0  0
 22 23  2  0  0  0  0
 23 21  1  0  0  0  0
 25 24  1  0  0  0  0
 26 25  1  0  0  0  0
 27 28  1  0  0  0  0
 28 26  1  0  0  0  0
 30 32  1  0  0  0  0
 30 29  1  0  0  0  0
 32 31  1  0  0  0  0
 33 32  1  0  0  0  0
 34 35  1  0  0  0  0
 34 33  1  0  0  0  0
 35 36  2  0  0  0  0
 36 37  2  0  0  0  0
M  END
>  <MODEL>
3

>  <REMARK>
 VINA RESULT:      -5.3      3.391      7.217
  Name = 
  14 active torsions:
  status: ('A' for Active; 'I' for Inactive)
    1  A    between atoms: C_1  and  C_23
    2  A    between atoms: C_1  and  C_33
    3  A    between atoms: C_1  and  C_36
    4  A    between atoms: C_6  and  C_8
    5  A    between atoms: C_6  and  C_31
    6  A    between atoms: C_8  and  C_19
    7  A    between atoms: C_15  and  C_19
    8  A    between atoms: C_17  and  C_26
    9  A    between atoms: C_17  and  C_33
   10  A    between atoms: C_24  and  C_28
   11  A    between atoms: C_26  and  C_34
   12  A    between atoms: C_27  and  C_37
   13  A    between atoms: O_30  and  C_32
   14  A    between atoms: C_31  and  C_37
                            x       y       z     vdW  Elec       q    Type
                         _______ _______ _______ _____ _____    ______ ____

>  <TORSDO>
F 14

$$$$
=
 OpenBabel10262422583D

 37 39  0  0  1  0  0  0  0  0999 V2000
  182.6370  178.0880  138.4310 C   0  0  0  0  0  2  0  0  0  0  0  0
  179.5970  177.8200  139.4030 O   0  0  0  0  0  0  0  0  0  0  0  0
  185.2350  179.0920  141.1970 C   0  0  0  0  0  2  0  0  0  0  0  0
  181.8800  177.1130  139.3490 C   0  0  2  0  0  3  0  0  0  0  0  0
  184.0830  178.3230  140.5310 C   0  0  1  0  0  3  0  0  0  0  0  0
  180.3890  176.9010  137.4580 O   0  0  0  0  0  1  0  0  0  0  0  0
  184.0300  180.1010  138.7370 C   0  0  0  0  0  1  0  0  0  0  0  0
  182.7550  178.5880  141.2710 C   0  0  2  0  0  3  0  0  0  0  0  0
  183.7560  179.2190  143.1980 C   0  0  0  0  0  2  0  0  0  0  0  0
  183.9700  178.6000  139.0100 C   0  0  2  0  0  0  0  0  0  0  0  0
  182.8850  178.2710  142.6350 O   0  0  0  0  0  0  0  0  0  0  0  0
  180.4590  176.8440  138.8540 C   0  0  2  0  0  0  0  0  0  0  0  0
  181.6060  177.7540  140.6810 C   0  0  1  0  0  3  0  0  0  0  0  0
  185.1870  178.9700  142.7200 C   0  0  1  0  0  3  0  0  0  0  0  0
  180.2680  178.4620  140.4720 C   0  0  1  0  0  3  0  0  0  0  0  0
  186.0870  177.8660  144.4140 C   0  0  0  0  0  1  0  0  0  0  0  0
  185.6120  177.6980  143.1130 O   0  0  0  0  0  0  0  0  0  0  0  0
  184.7340  177.1740  137.0330 C   0  0  0  0  0  1  0  0  0  0  0  0
  185.1390  177.8950  138.3120 C   0  0  0  0  0  2  0  0  0  0  0  0
  180.3900  179.9770  140.1890 C   0  0  2  0  0  3  0  0  0  0  0  0
  178.9330  181.7230  140.9630 O   0  0  0  0  0  0  0  0  0  0  0  0
  180.1070  180.6120  142.5870 O   0  0  0  0  0  1  0  0  0  0  0  0
  179.7570  180.8160  141.2590 C   0  0  0  0  0  0  0  0  0  0  0  0
  179.8800  180.3880  138.8030 C   0  0  0  0  0  2  0  0  0  0  0  0
  180.8570  181.2990  138.0690 C   0  0  0  0  0  2  0  0  0  0  0  0
  180.1840  182.6090  137.7020 C   0  0  0  0  0  2  0  0  0  0  0  0
  181.0730  184.3380  136.1710 C   0  0  0  0  0  1  0  0  0  0  0  0
  181.2200  183.7050  137.5390 C   0  0  0  0  0  2  0  0  0  0  0  0
  179.9690  175.4650  139.3120 C   0  0  0  0  0  2  0  0  0  0  0  0
  179.6260  174.5400  138.1510 C   0  0  0  0  0  2  0  0  0  0  0  0
  180.1160  172.2920  137.5280 O   0  0  0  0  0  1  0  0  0  0  0  0
  180.6930  173.4640  138.0160 C   0  0  1  0  0  3  0  0  0  0  0  0
  181.7890  173.9190  137.0680 C   0  0  0  0  0  2  0  0  0  0  0  0
  183.0150  173.0090  137.1630 C   0  0  0  0  0  2  0  0  0  0  0  0
  184.2860  173.7050  137.5700 C   0  0  0  0  0  3  0  0  0  0  0  0
  185.4710  173.1560  137.5160 C   0  0  0  0  0  0  0  0  0  0  0  0
  186.5920  172.6360  137.4690 O   0  0  0  0  0  0  0  0  0  0  0  0
  1 10  1  0  0  0  0
  2 15  1  0  0  0  0
  3 14  1  0  0  0  0
  4  1  1  6  0  0  0
  4 13  1  0  0  0  0
  5  3  1  1  0  0  0
  5  8  1  0  0  0  0
  8 11  1  1  0  0  0
 10  7  1  6  0  0  0
 10  5  1  0  0  0  0
 11  9  1  0  0  0  0
 12  6  1  6  0  0  0
 12 29  1  0  0  0  0
 12  4  1  0  0  0  0
 12  2  1  0  0  0  0
 13  8  1  0  0  0  0
 14 17  1  0  0  0  0
 14  9  1  0  0  0  0
 15 13  1  0  0  0  0
 17 16  1  0  0  0  0
 18 19  1  0  0  0  0
 19 10  1  0  0  0  0
 20 15  1  0  0  0  0
 20 23  1  0  0  0  0
 21 23  2  0  0  0  0
 23 22  1  0  0  0  0
 24 20  1  0  0  0  0
 25 24  1  0  0  0  0
 26 25  1  0  0  0  0
 27 28  1  0  0  0  0
 28 26  1  0  0  0  0
 30 29  1  0  0  0  0
 31 32  1  0  0  0  0
 32 30  1  0  0  0  0
 33 34  1  0  0  0  0
 33 32  1  0  0  0  0
 34 35  1  0  0  0  0
 36 35  2  0  0  0  0
 37 36  2  0  0  0  0
M  END
>  <MODEL>
4

>  <REMARK>
 VINA RESULT:      -5.2      2.665      7.773
  Name = 
  14 active torsions:
  status: ('A' for Active; 'I' for Inactive)
    1  A    between atoms: C_1  and  C_23
    2  A    between atoms: C_1  and  C_33
    3  A    between atoms: C_1  and  C_36
    4  A    between atoms: C_6  and  C_8
    5  A    between atoms: C_6  and  C_31
    6  A    between atoms: C_8  and  C_19
    7  A    between atoms: C_15  and  C_19
    8  A    between atoms: C_17  and  C_26
    9  A    between atoms: C_17  and  C_33
   10  A    between atoms: C_24  and  C_28
   11  A    between atoms: C_26  and  C_34
   12  A    between atoms: C_27  and  C_37
   13  A    between atoms: O_30  and  C_32
   14  A    between atoms: C_31  and  C_37
                            x       y       z     vdW  Elec       q    Type
                         _______ _______ _______ _____ _____    ______ ____

>  <TORSDO>
F 14

$$$$
=
 OpenBabel10262422583D

 37 39  0  0  1  0  0  0  0  0999 V2000
  189.2830  177.3730  137.0740 C   0  0  0  0  0  2  0  0  0  0  0  0
  191.7200  176.2980  138.8540 O   0  0  0  0  0  0  0  0  0  0  0  0
  187.4200  174.6750  134.9160 C   0  0  0  0  0  2  0  0  0  0  0  0
  189.3990  176.4590  138.3060 C   0  0  2  0  0  3  0  0  0  0  0  0
  188.0560  175.3220  136.1570 C   0  0  1  0  0  3  0  0  0  0  0  0
  190.6660  178.2990  139.2280 O   0  0  0  0  0  1  0  0  0  0  0  0
  189.0860  177.0550  134.6350 C   0  0  0  0  0  1  0  0  0  0  0  0
  189.2980  174.5250  136.6070 C   0  0  2  0  0  3  0  0  0  0  0  0
  188.6630  172.6170  135.5730 C   0  0  0  0  0  2  0  0  0  0  0  0
  188.3660  176.8280  135.9620 C   0  0  2  0  0  0  0  0  0  0  0  0
  188.9600  173.1780  136.8260 O   0  0  0  0  0  0  0  0  0  0  0  0
  190.5100  176.9090  139.2540 C   0  0  2  0  0  0  0  0  0  0  0  0
  189.8940  175.0990  137.9040 C   0  0  1  0  0  3  0  0  0  0  0  0
  187.3270  173.1560  135.0580 C   0  0  1  0  0  3  0  0  0  0  0  0
  191.4150  175.2340  137.9700 C   0  0  1  0  0  3  0  0  0  0  0  0
  185.4470  171.9960  135.2060 C   0  0  0  0  0  1  0  0  0  0  0  0
  186.2990  172.8190  135.9430 O   0  0  0  0  0  0  0  0  0  0  0  0
  186.6110  178.0830  134.5940 C   0  0  0  0  0  1  0  0  0  0  0  0
  187.0370  177.5900  135.9720 C   0  0  0  0  0  2  0  0  0  0  0  0
  192.0890  175.4730  136.5980 C   0  0  2  0  0  3  0  0  0  0  0  0
  192.4250  174.1920  134.5940 O   0  0  0  0  0  0  0  0  0  0  0  0
  192.4620  173.0060  136.5530 O   0  0  0  0  0  1  0  0  0  0  0  0
  192.3440  174.1980  135.8520 C   0  0  0  0  0  0  0  0  0  0  0  0
  193.3640  176.3200  136.6790 C   0  0  0  0  0  2  0  0  0  0  0  0
  194.6280  175.4680  136.7290 C   0  0  0  0  0  2  0  0  0  0  0  0
  195.6050  175.9080  135.6550 C   0  0  0  0  0  2  0  0  0  0  0  0
  196.1450  178.1890  134.8620 C   0  0  0  0  0  1  0  0  0  0  0  0
  195.0700  177.1240  134.9230 C   0  0  0  0  0  2  0  0  0  0  0  0
  190.2120  176.4770  140.6940 C   0  0  0  0  0  2  0  0  0  0  0  0
  188.9580  177.1300  141.2640 C   0  0  0  0  0  2  0  0  0  0  0  0
  190.0690  177.9330  143.2130 O   0  0  0  0  0  1  0  0  0  0  0  0
  189.0180  177.1240  142.7830 C   0  0  1  0  0  3  0  0  0  0  0  0
  187.7140  177.6390  143.3680 C   0  0  0  0  0  2  0  0  0  0  0  0
  187.4120  176.9780  144.7140 C   0  0  0  0  0  2  0  0  0  0  0  0
  187.1090  177.9380  145.8330 C   0  0  0  0  0  3  0  0  0  0  0  0
  185.9370  178.4790  146.0370 C   0  0  0  0  0  0  0  0  0  0  0  0
  184.8280  178.9930  146.2270 O   0  0  0  0  0  0  0  0  0  0  0  0
  2 12  1  0  0  0  0
  3 14  1  0  0  0  0
  4  1  1  6  0  0  0
  4 12  1  0  0  0  0
  5  3  1  6  0  0  0
  5  8  1  0  0  0  0
  8 11  1  1  0  0  0
  8 13  1  0  0  0  0
  9 11  1  0  0  0  0
 10  7  1  6  0  0  0
 10 19  1  0  0  0  0
 10  5  1  0  0  0  0
 10  1  1  0  0  0  0
 12  6  1  6  0  0  0
 12 29  1  0  0  0  0
 13 15  1  0  0  0  0
 13  4  1  0  0  0  0
 14  9  1  0  0  0  0
 14 17  1  0  0  0  0
 15  2  1  0  0  0  0
 16 17  1  0  0  0  0
 18 19  1  0  0  0  0
 20 24  1  0  0  0  0
 20 15  1  0  0  0  0
 21 23  2  0  0  0  0
 23 22  1  0  0  0  0
 23 20  1  0  0  0  0
 24 25  1  0  0  0  0
 26 25  1  0  0  0  0
 27 28  1  0  0  0  0
 28 26  1  0  0  0  0
 29 30  1  0  0  0  0
 30 32  1  0  0  0  0
 32 31  1  0  0  0  0
 32 33  1  0  0  0  0
 33 34  1  0  0  0  0
 34 35  1  0  0  0  0
 35 36  2  0  0  0  0
 36 37  2  0  0  0  0
M  END
>  <MODEL>
5

>  <REMARK>
 VINA RESULT:      -4.7      3.968      5.992
  Name = 
  14 active torsions:
  status: ('A' for Active; 'I' for Inactive)
    1  A    between atoms: C_1  and  C_23
    2  A    between atoms: C_1  and  C_33
    3  A    between atoms: C_1  and  C_36
    4  A    between atoms: C_6  and  C_8
    5  A    between atoms: C_6  and  C_31
    6  A    between atoms: C_8  and  C_19
    7  A    between atoms: C_15  and  C_19
    8  A    between atoms: C_17  and  C_26
    9  A    between atoms: C_17  and  C_33
   10  A    between atoms: C_24  and  C_28
   11  A    between atoms: C_26  and  C_34
   12  A    between atoms: C_27  and  C_37
   13  A    between atoms: O_30  and  C_32
   14  A    between atoms: C_31  and  C_37
                            x       y       z     vdW  Elec       q    Type
                         _______ _______ _______ _____ _____    ______ ____

>  <TORSDO>
F 14

$$$$
=
 OpenBabel10262422583D

 37 39  0  0  1  0  0  0  0  0999 V2000
  181.4090  177.7680  137.4150 C   0  0  0  0  0  2  0  0  0  0  0  0
  182.2960  177.6730  140.4910 O   0  0  0  0  0  0  0  0  0  0  0  0
  179.7880  181.1320  136.2040 C   0  0  0  0  0  2  0  0  0  0  0  0
  182.4960  178.4700  138.2460 C   0  0  2  0  0  3  0  0  0  0  0  0
  180.8060  180.1970  136.8770 C   0  0  1  0  0  3  0  0  0  0  0  0
  183.0800  176.2180  138.9030 O   0  0  0  0  0  1  0  0  0  0  0  0
  179.1350  178.3190  136.6320 C   0  0  0  0  0  1  0  0  0  0  0  0
  180.8120  180.4120  138.4050 C   0  0  2  0  0  3  0  0  0  0  0  0
  179.9230  182.4890  138.2900 C   0  0  0  0  0  2  0  0  0  0  0  0
  180.6050  178.7080  136.4970 C   0  0  2  0  0  0  0  0  0  0  0  0
  181.0530  181.7640  138.7070 O   0  0  0  0  0  0  0  0  0  0  0  0
  183.0790  177.5530  139.3210 C   0  0  2  0  0  0  0  0  0  0  0  0
  181.8900  179.5560  139.0890 C   0  0  1  0  0  3  0  0  0  0  0  0
  179.8720  182.5520  136.7630 C   0  0  1  0  0  3  0  0  0  0  0  0
  181.4940  178.8350  140.3770 C   0  0  1  0  0  3  0  0  0  0  0  0
  180.8890  184.5170  136.6970 C   0  0  0  0  0  1  0  0  0  0  0  0
  181.0110  183.1950  136.2690 O   0  0  0  0  0  0  0  0  0  0  0  0
  181.3380  177.0730  134.6760 C   0  0  0  0  0  1  0  0  0  0  0  0
  181.0620  178.5250  135.0450 C   0  0  0  0  0  2  0  0  0  0  0  0
  179.9960  178.4560  140.4550 C   0  0  2  0  0  3  0  0  0  0  0  0
  178.9560  180.4380  141.3270 O   0  0  0  0  0  0  0  0  0  0  0  0
  178.9380  178.6120  142.7100 O   0  0  0  0  0  1  0  0  0  0  0  0
  179.2600  179.2280  141.5080 C   0  0  0  0  0  0  0  0  0  0  0  0
  179.7500  176.9510  140.6130 C   0  0  0  0  0  2  0  0  0  0  0  0
  179.1800  176.3180  139.3480 C   0  0  0  0  0  2  0  0  0  0  0  0
  179.7810  174.9410  139.1300 C   0  0  0  0  0  2  0  0  0  0  0  0
  180.9380  174.1250  137.1000 C   0  0  0  0  0  1  0  0  0  0  0  0
  179.5960  174.5090  137.6880 C   0  0  0  0  0  2  0  0  0  0  0  0
  184.5170  177.9570  139.6670 C   0  0  0  0  0  2  0  0  0  0  0  0
  184.5880  179.1200  140.6500 C   0  0  0  0  0  2  0  0  0  0  0  0
  186.0570  180.1330  142.2300 O   0  0  0  0  0  1  0  0  0  0  0  0
  185.7650  178.9280  141.5920 C   0  0  1  0  0  3  0  0  0  0  0  0
  185.4440  177.8710  142.6370 C   0  0  0  0  0  2  0  0  0  0  0  0
  185.3540  178.4850  144.0350 C   0  0  0  0  0  2  0  0  0  0  0  0
  183.9710  178.5030  144.6260 C   0  0  0  0  0  3  0  0  0  0  0  0
  182.9550  179.1320  144.0950 C   0  0  0  0  0  0  0  0  0  0  0  0
  181.9950  179.7300  143.5950 O   0  0  0  0  0  0  0  0  0  0  0  0
  3 14  1  0  0  0  0
  4  1  1  1  0  0  0
  4 13  1  0  0  0  0
  4 12  1  0  0  0  0
  5  3  1  6  0  0  0
  5  8  1  0  0  0  0
  8 11  1  6  0  0  0
  8 13  1  0  0  0  0
  9 11  1  0  0  0  0
 10  7  1  1  0  0  0
 10  5  1  0  0  0  0
 10  1  1  0  0  0  0
 12  6  1  6  0  0  0
 12 29  1  0  0  0  0
 12  2  1  0  0  0  0
 13 15  1  0  0  0  0
 14  9  1  0  0  0  0
 15 20  1  0  0  0  0
 15  2  1  0  0  0  0
 17 16  1  0  0  0  0
 17 14  1  0  0  0  0
 18 19  1  0  0  0  0
 19 10  1  0  0  0  0
 20 24  1  0  0  0  0
 20 23  1  0  0  0  0
 21 23  2  0  0  0  0
 23 22  1  0  0  0  0
 25 24  1  0  0  0  0
 26 25  1  0  0  0  0
 27 28  1  0  0  0  0
 28 26  1  0  0  0  0
 29 30  1  0  0  0  0
 30 32  1  0  0  0  0
 32 31  1  0  0  0  0
 32 33  1  0  0  0  0
 33 34  1  0  0  0  0
 34 35  1  0  0  0  0
 36 35  2  0  0  0  0
 37 36  2  0  0  0  0
M  END
>  <MODEL>
6

>  <REMARK>
 VINA RESULT:      -4.7      3.055      6.659
  Name = 
  14 active torsions:
  status: ('A' for Active; 'I' for Inactive)
    1  A    between atoms: C_1  and  C_23
    2  A    between atoms: C_1  and  C_33
    3  A    between atoms: C_1  and  C_36
    4  A    between atoms: C_6  and  C_8
    5  A    between atoms: C_6  and  C_31
    6  A    between atoms: C_8  and  C_19
    7  A    between atoms: C_15  and  C_19
    8  A    between atoms: C_17  and  C_26
    9  A    between atoms: C_17  and  C_33
   10  A    between atoms: C_24  and  C_28
   11  A    between atoms: C_26  and  C_34
   12  A    between atoms: C_27  and  C_37
   13  A    between atoms: O_30  and  C_32
   14  A    between atoms: C_31  and  C_37
                            x       y       z     vdW  Elec       q    Type
                         _______ _______ _______ _____ _____    ______ ____

>  <TORSDO>
F 14

$$$$
=
 OpenBabel10262422583D

 37 39  0  0  1  0  0  0  0  0999 V2000
  189.3280  177.6700  137.2520 C   0  0  0  0  0  2  0  0  0  0  0  0
  191.6200  176.1100  138.8560 O   0  0  0  0  0  0  0  0  0  0  0  0
  186.9520  175.4410  135.0620 C   0  0  0  0  0  2  0  0  0  0  0  0
  189.3380  176.6830  138.4310 C   0  0  2  0  0  3  0  0  0  0  0  0
  187.7370  175.9050  136.3000 C   0  0  1  0  0  3  0  0  0  0  0  0
  190.9340  178.2340  139.3760 O   0  0  0  0  0  1  0  0  0  0  0  0
  188.9810  177.5250  134.8130 C   0  0  0  0  0  1  0  0  0  0  0  0
  188.8450  174.8890  136.6500 C   0  0  2  0  0  3  0  0  0  0  0  0
  187.8560  173.1730  135.5580 C   0  0  0  0  0  2  0  0  0  0  0  0
  188.2880  177.3470  136.1620 C   0  0  2  0  0  0  0  0  0  0  0  0
  188.2950  173.6060  136.8210 O   0  0  0  0  0  0  0  0  0  0  0  0
  190.5480  176.8900  139.3430 C   0  0  2  0  0  0  0  0  0  0  0  0
  189.5810  175.2840  137.9410 C   0  0  1  0  0  3  0  0  0  0  0  0
  186.6100  173.9530  135.1370 C   0  0  1  0  0  3  0  0  0  0  0  0
  191.1050  175.1620  137.9380 C   0  0  1  0  0  3  0  0  0  0  0  0
  184.5600  173.1380  135.3160 C   0  0  0  0  0  1  0  0  0  0  0  0
  185.5770  173.7430  136.0540 O   0  0  0  0  0  0  0  0  0  0  0  0
  186.1780  178.0080  137.4420 C   0  0  0  0  0  1  0  0  0  0  0  0
  187.1060  178.3170  136.2740 C   0  0  0  0  0  2  0  0  0  0  0  0
  191.7530  175.3610  136.5480 C   0  0  2  0  0  3  0  0  0  0  0  0
  193.0270  173.3260  136.4780 O   0  0  0  0  0  1  0  0  0  0  0  0
  191.6460  173.7000  134.6880 O   0  0  0  0  0  0  0  0  0  0  0  0
  192.1760  174.0680  135.9180 C   0  0  0  0  0  0  0  0  0  0  0  0
  192.9080  176.3690  136.5470 C   0  0  0  0  0  2  0  0  0  0  0  0
  193.7100  176.3350  135.2500 C   0  0  0  0  0  2  0  0  0  0  0  0
  195.1940  176.4520  135.5440 C   0  0  0  0  0  2  0  0  0  0  0  0
  196.3040  174.2580  135.8280 C   0  0  0  0  0  1  0  0  0  0  0  0
  195.9600  175.3500  134.8370 C   0  0  0  0  0  2  0  0  0  0  0  0
  190.2400  176.4340  140.7750 C   0  0  0  0  0  2  0  0  0  0  0  0
  190.5560  177.4980  141.8190 C   0  0  0  0  0  2  0  0  0  0  0  0
  188.8010  176.3920  142.9920 O   0  0  0  0  0  1  0  0  0  0  0  0
  189.3870  177.6400  142.7810 C   0  0  1  0  0  3  0  0  0  0  0  0
  189.8580  178.2060  144.1100 C   0  0  0  0  0  2  0  0  0  0  0  0
  191.2880  177.7630  144.4240 C   0  0  0  0  0  2  0  0  0  0  0  0
  191.3920  176.5870  145.3580 C   0  0  0  0  0  3  0  0  0  0  0  0
  191.6810  176.6850  146.6290 C   0  0  0  0  0  0  0  0  0  0  0  0
  191.9580  176.7750  147.8310 O   0  0  0  0  0  0  0  0  0  0  0  0
  2 12  1  0  0  0  0
  3 14  1  0  0  0  0
  4  1  1  6  0  0  0
  4 12  1  0  0  0  0
  5  3  1  6  0  0  0
  5  8  1  0  0  0  0
  8 11  1  1  0  0  0
  8 13  1  0  0  0  0
  9 11  1  0  0  0  0
 10  7  1  6  0  0  0
 10 19  1  0  0  0  0
 10  5  1  0  0  0  0
 10  1  1  0  0  0  0
 12  6  1  1  0  0  0
 12 29  1  0  0  0  0
 13  4  1  0  0  0  0
 14  9  1  0  0  0  0
 14 17  1  0  0  0  0
 15 13  1  0  0  0  0
 15  2  1  0  0  0  0
 16 17  1  0  0  0  0
 19 18  1  0  0  0  0
 20 15  1  0  0  0  0
 22 23  2  0  0  0  0
 23 21  1  0  0  0  0
 23 20  1  0  0  0  0
 24 20  1  0  0  0  0
 25 26  1  0  0  0  0
 25 24  1  0  0  0  0
 28 26  1  0  0  0  0
 28 27  1  0  0  0  0
 29 30  1  0  0  0  0
 30 32  1  0  0  0  0
 32 31  1  0  0  0  0
 32 33  1  0  0  0  0
 33 34  1  0  0  0  0
 34 35  1  0  0  0  0
 35 36  2  0  0  0  0
 36 37  2  0  0  0  0
M  END
>  <MODEL>
7

>  <REMARK>
 VINA RESULT:      -4.6      3.809      5.852
  Name = 
  14 active torsions:
  status: ('A' for Active; 'I' for Inactive)
    1  A    between atoms: C_1  and  C_23
    2  A    between atoms: C_1  and  C_33
    3  A    between atoms: C_1  and  C_36
    4  A    between atoms: C_6  and  C_8
    5  A    between atoms: C_6  and  C_31
    6  A    between atoms: C_8  and  C_19
    7  A    between atoms: C_15  and  C_19
    8  A    between atoms: C_17  and  C_26
    9  A    between atoms: C_17  and  C_33
   10  A    between atoms: C_24  and  C_28
   11  A    between atoms: C_26  and  C_34
   12  A    between atoms: C_27  and  C_37
   13  A    between atoms: O_30  and  C_32
   14  A    between atoms: C_31  and  C_37
                            x       y       z     vdW  Elec       q    Type
                         _______ _______ _______ _____ _____    ______ ____

>  <TORSDO>
F 14

$$$$
=
 OpenBabel10262422583D

 37 39  0  0  1  0  0  0  0  0999 V2000
  181.8510  179.1230  140.1380 C   0  0  0  0  0  2  0  0  0  0  0  0
  183.4470  178.7770  137.3820 O   0  0  0  0  0  0  0  0  0  0  0  0
  179.2280  176.3210  140.9600 C   0  0  0  0  0  2  0  0  0  0  0  0
  182.9050  178.1300  139.6190 C   0  0  2  0  0  3  0  0  0  0  0  0
  180.5720  176.9440  140.5490 C   0  0  1  0  0  3  0  0  0  0  0  0
  184.1520  180.1320  139.0910 O   0  0  0  0  0  1  0  0  0  0  0  0
  179.3920  179.1670  140.3330 C   0  0  0  0  0  1  0  0  0  0  0  0
  180.8920  176.6170  139.0760 C   0  0  2  0  0  3  0  0  0  0  0  0
  179.5300  174.8130  138.9990 C   0  0  0  0  0  2  0  0  0  0  0  0
  180.6490  178.4640  140.8410 C   0  0  2  0  0  0  0  0  0  0  0  0
  180.8670  175.2270  138.8670 O   0  0  0  0  0  0  0  0  0  0  0  0
  183.9310  178.8040  138.7090 C   0  0  2  0  0  0  0  0  0  0  0  0
  182.2770  177.1490  138.6700 C   0  0  1  0  0  3  0  0  0  0  0  0
  179.1010  174.8800  140.4660 C   0  0  1  0  0  3  0  0  0  0  0  0
  182.3860  177.8410  137.3110 C   0  0  1  0  0  3  0  0  0  0  0  0
  179.0080  173.3820  142.0930 C   0  0  0  0  0  1  0  0  0  0  0  0
  179.8990  174.0340  141.2410 O   0  0  0  0  0  0  0  0  0  0  0  0
  179.7580  179.6270  142.9340 C   0  0  0  0  0  1  0  0  0  0  0  0
  180.7740  178.6490  142.3570 C   0  0  0  0  0  2  0  0  0  0  0  0
  181.0870  178.5450  136.8530 C   0  0  2  0  0  3  0  0  0  0  0  0
  179.9940  178.5310  134.7140 O   0  0  0  0  0  0  0  0  0  0  0  0
  180.3160  176.4800  135.6810 O   0  0  0  0  0  1  0  0  0  0  0  0
  180.4440  177.8620  135.6830 C   0  0  0  0  0  0  0  0  0  0  0  0
  181.2620  180.0420  136.5800 C   0  0  0  0  0  2  0  0  0  0  0  0
  180.2840  180.8990  137.3760 C   0  0  0  0  0  2  0  0  0  0  0  0
  181.0100  182.0540  138.0380 C   0  0  0  0  0  2  0  0  0  0  0  0
  180.8650  184.3200  137.0540 C   0  0  0  0  0  1  0  0  0  0  0  0
  180.1760  183.3180  137.9550 C   0  0  0  0  0  2  0  0  0  0  0  0
  185.2700  178.0570  138.7430 C   0  0  0  0  0  2  0  0  0  0  0  0
  185.7100  177.5620  137.3710 C   0  0  0  0  0  2  0  0  0  0  0  0
  187.5070  178.9810  138.0340 O   0  0  0  0  0  1  0  0  0  0  0  0
  187.1240  178.0380  137.0790 C   0  0  1  0  0  3  0  0  0  0  0  0
  188.0950  176.8700  137.1090 C   0  0  0  0  0  2  0  0  0  0  0  0
  187.9400  175.9900  135.8670 C   0  0  0  0  0  2  0  0  0  0  0  0
  187.8290  174.5160  136.1500 C   0  0  0  0  0  3  0  0  0  0  0  0
  186.8780  173.9770  136.8670 C   0  0  0  0  0  0  0  0  0  0  0  0
  185.9810  173.4680  137.5490 O   0  0  0  0  0  0  0  0  0  0  0  0
  1 10  1  0  0  0  0
  2 12  1  0  0  0  0
  4  1  1  6  0  0  0
  5 10  1  0  0  0  0
  5  3  1  6  0  0  0
  8 11  1  1  0  0  0
  8  5  1  0  0  0  0
  9 14  1  0  0  0  0
 10  7  1  6  0  0  0
 10 19  1  0  0  0  0
 11  9  1  0  0  0  0
 12 29  1  0  0  0  0
 12  6  1  1  0  0  0
 12  4  1  0  0  0  0
 13  8  1  0  0  0  0
 13  4  1  0  0  0  0
 14  3  1  0  0  0  0
 14 17  1  0  0  0  0
 15  2  1  0  0  0  0
 15 13  1  0  0  0  0
 17 16  1  0  0  0  0
 19 18  1  0  0  0  0
 20 15  1  0  0  0  0
 21 23  2  0  0  0  0
 22 23  1  0  0  0  0
 23 20  1  0  0  0  0
 24 20  1  0  0  0  0
 24 25  1  0  0  0  0
 25 26  1  0  0  0  0
 27 28  1  0  0  0  0
 28 26  1  0  0  0  0
 30 29  1  0  0  0  0
 32 33  1  0  0  0  0
 32 30  1  0  0  0  0
 32 31  1  0  0  0  0
 34 35  1  0  0  0  0
 34 33  1  0  0  0  0
 35 36  2  0  0  0  0
 36 37  2  0  0  0  0
M  END
>  <MODEL>
8

>  <REMARK>
 VINA RESULT:      -4.5      3.507      6.168
  Name = 
  14 active torsions:
  status: ('A' for Active; 'I' for Inactive)
    1  A    between atoms: C_1  and  C_23
    2  A    between atoms: C_1  and  C_33
    3  A    between atoms: C_1  and  C_36
    4  A    between atoms: C_6  and  C_8
    5  A    between atoms: C_6  and  C_31
    6  A    between atoms: C_8  and  C_19
    7  A    between atoms: C_15  and  C_19
    8  A    between atoms: C_17  and  C_26
    9  A    between atoms: C_17  and  C_33
   10  A    between atoms: C_24  and  C_28
   11  A    between atoms: C_26  and  C_34
   12  A    between atoms: C_27  and  C_37
   13  A    between atoms: O_30  and  C_32
   14  A    between atoms: C_31  and  C_37
                            x       y       z     vdW  Elec       q    Type
                         _______ _______ _______ _____ _____    ______ ____

>  <TORSDO>
F 14

$$$$
=
 OpenBabel10262422583D

 37 39  0  0  1  0  0  0  0  0999 V2000
  182.8790  179.5080  139.5150 C   0  0  0  0  0  2  0  0  0  0  0  0
  185.7580  178.1240  139.7570 O   0  0  0  0  0  0  0  0  0  0  0  0
  180.0280  177.2740  138.0030 C   0  0  0  0  0  2  0  0  0  0  0  0
  183.4610  178.3690  140.3700 C   0  0  2  0  0  3  0  0  0  0  0  0
  181.2060  177.6680  138.9090 C   0  0  1  0  0  3  0  0  0  0  0  0
  185.1550  180.0020  140.9250 O   0  0  0  0  0  1  0  0  0  0  0  0
  181.5800  179.6770  137.4250 C   0  0  0  0  0  1  0  0  0  0  0  0
  182.4470  176.8090  138.5890 C   0  0  2  0  0  3  0  0  0  0  0  0
  181.2580  175.1380  137.6350 C   0  0  0  0  0  2  0  0  0  0  0  0
  181.5180  179.1850  138.8690 C   0  0  2  0  0  0  0  0  0  0  0  0
  182.1340  175.4420  138.6910 O   0  0  0  0  0  0  0  0  0  0  0  0
  184.9130  178.6330  140.7680 C   0  0  2  0  0  0  0  0  0  0  0  0
  183.6080  177.1200  139.5480 C   0  0  1  0  0  3  0  0  0  0  0  0
  179.8840  175.7560  137.8950 C   0  0  1  0  0  3  0  0  0  0  0  0
  185.0010  177.2540  138.9340 C   0  0  1  0  0  3  0  0  0  0  0  0
  178.9310  173.9480  138.7470 C   0  0  0  0  0  1  0  0  0  0  0  0
  179.3400  175.2410  139.0760 O   0  0  0  0  0  0  0  0  0  0  0  0
  180.3770  179.6090  141.1150 C   0  0  0  0  0  1  0  0  0  0  0  0
  180.4040  179.9180  139.6230 C   0  0  0  0  0  2  0  0  0  0  0  0
  185.0030  177.7660  137.4750 C   0  0  2  0  0  3  0  0  0  0  0  0
  185.1050  175.4670  136.7860 O   0  0  0  0  0  1  0  0  0  0  0  0
  184.4270  176.9580  135.1840 O   0  0  0  0  0  0  0  0  0  0  0  0
  184.8420  176.6590  136.4760 C   0  0  0  0  0  0  0  0  0  0  0  0
  186.2170  178.6360  137.1300 C   0  0  0  0  0  2  0  0  0  0  0  0
  187.4610  177.8090  136.8270 C   0  0  0  0  0  2  0  0  0  0  0  0
  188.7140  178.6250  137.0820 C   0  0  0  0  0  2  0  0  0  0  0  0
  189.6240  177.3070  138.9690 C   0  0  0  0  0  1  0  0  0  0  0  0
  189.0380  178.6430  138.5640 C   0  0  0  0  0  2  0  0  0  0  0  0
  185.2610  177.9210  142.0810 C   0  0  0  0  0  2  0  0  0  0  0  0
  184.3200  178.2850  143.2230 C   0  0  0  0  0  2  0  0  0  0  0  0
  184.5430  180.3790  144.3390 O   0  0  0  0  0  1  0  0  0  0  0  0
  185.0700  179.0890  144.2730 C   0  0  1  0  0  3  0  0  0  0  0  0
  184.9500  178.4270  145.6350 C   0  0  0  0  0  2  0  0  0  0  0  0
  186.1450  177.5130  145.9120 C   0  0  0  0  0  2  0  0  0  0  0  0
  187.4270  177.9320  145.2440 C   0  0  0  0  0  3  0  0  0  0  0  0
  188.1930  177.1250  144.5580 C   0  0  0  0  0  0  0  0  0  0  0  0
  188.9200  176.3620  143.9110 O   0  0  0  0  0  0  0  0  0  0  0  0
  2 12  1  0  0  0  0
  4  1  1  6  0  0  0
  4 12  1  0  0  0  0
  5  3  1  6  0  0  0
  8 11  1  1  0  0  0
  8  5  1  0  0  0  0
  8 13  1  0  0  0  0
  9 14  1  0  0  0  0
  9 11  1  0  0  0  0
 10  7  1  6  0  0  0
 10  5  1  0  0  0  0
 10  1  1  0  0  0  0
 10 19  1  0  0  0  0
 12  6  1  1  0  0  0
 12 29  1  0  0  0  0
 13  4  1  0  0  0  0
 14  3  1  0  0  0  0
 14 17  1  0  0  0  0
 15 13  1  0  0  0  0
 15  2  1  0  0  0  0
 16 17  1  0  0  0  0
 19 18  1  0  0  0  0
 20 15  1  0  0  0  0
 22 23  2  0  0  0  0
 23 21  1  0  0  0  0
 23 20  1  0  0  0  0
 24 20  1  0  0  0  0
 25 26  1  0  0  0  0
 25 24  1  0  0  0  0
 26 28  1  0  0  0  0
 28 27  1  0  0  0  0
 29 30  1  0  0  0  0
 30 32  1  0  0  0  0
 32 31  1  0  0  0  0
 32 33  1  0  0  0  0
 33 34  1  0  0  0  0
 35 34  1  0  0  0  0
 36 35  2  0  0  0  0
 37 36  2  0  0  0  0
M  END
>  <MODEL>
9

>  <REMARK>
 VINA RESULT:      -4.5      1.857      2.274
  Name = 
  14 active torsions:
  status: ('A' for Active; 'I' for Inactive)
    1  A    between atoms: C_1  and  C_23
    2  A    between atoms: C_1  and  C_33
    3  A    between atoms: C_1  and  C_36
    4  A    between atoms: C_6  and  C_8
    5  A    between atoms: C_6  and  C_31
    6  A    between atoms: C_8  and  C_19
    7  A    between atoms: C_15  and  C_19
    8  A    between atoms: C_17  and  C_26
    9  A    between atoms: C_17  and  C_33
   10  A    between atoms: C_24  and  C_28
   11  A    between atoms: C_26  and  C_34
   12  A    between atoms: C_27  and  C_37
   13  A    between atoms: O_30  and  C_32
   14  A    between atoms: C_31  and  C_37
                            x       y       z     vdW  Elec       q    Type
                         _______ _______ _______ _____ _____    ______ ____

>  <TORSDO>
F 14

$$$$
