=
 OpenBabel10262419483D

 25 28  0  0  1  0  0  0  0  0999 V2000
  187.3840  177.7890  145.5880 C   0  0  0  0  0  0  0  0  0  0  0  0
  188.6710  177.2750  145.3300 C   0  0  0  0  0  0  0  0  0  0  0  0
  187.8950  177.8910  147.9590 C   0  0  0  0  0  3  0  0  0  0  0  0
  186.3330  178.0500  144.6870 C   0  0  0  0  0  0  0  0  0  0  0  0
  184.0350  178.6840  143.2220 C   0  0  0  0  0  3  0  0  0  0  0  0
  189.1450  177.4240  147.6920 N   0  0  0  0  0  0  0  0  0  0  0  0
  185.1890  178.5350  145.3180 C   0  0  0  0  0  0  0  0  0  0  0  0
  184.0320  178.8560  144.6140 C   0  0  0  0  0  3  0  0  0  0  0  0
  190.9680  176.7330  146.1880 C   0  0  0  0  0  0  0  0  0  0  0  0
  191.7790  176.1710  147.3040 C   0  0  0  0  0  1  0  0  0  0  0  0
  189.1930  176.7460  143.6870 S   0  0  0  0  0  0  0  0  0  0  0  0
  185.1810  178.1990  142.5670 C   0  0  0  0  0  3  0  0  0  0  0  0
  187.0190  178.0830  146.9010 C   0  0  0  0  0  0  0  0  0  0  0  0
  185.4350  178.6550  146.9790 S   0  0  0  0  0  0  0  0  0  0  0  0
  191.5270  176.8900  145.0250 N   0  0  0  0  0  0  0  0  0  0  0  0
  186.3360  177.8800  143.2980 C   0  0  0  0  0  3  0  0  0  0  0  0
  190.8380  177.4990  143.8890 C   0  0  1  0  0  3  0  0  0  0  0  0
  189.5600  177.1270  146.4220 C   0  0  0  0  0  0  0  0  0  0  0  0
  191.6640  177.3400  142.6200 C   0  0  0  0  0  2  0  0  0  0  0  0
  190.9120  176.7320  141.6120 O   0  0  0  0  0  0  0  0  0  0  0  0
  191.3130  177.3730  140.4390 C   0  0  0  0  0  2  0  0  0  0  0  0
  190.2440  177.2180  139.3520 C   0  0  0  0  0  2  0  0  0  0  0  0
  189.3820  178.3950  139.1730 N   0  0  0  0  0  0  0  0  0  0  0  0
  189.0310  178.5480  137.7690 C   0  0  0  0  0  1  0  0  0  0  0  0
  188.1520  178.2490  139.9400 C   0  0  0  0  0  1  0  0  0  0  0  0
  1 13  1  0  0  0  0
  2  1  2  0  0  0  0
  2 18  1  0  0  0  0
  4  7  1  0  0  0  0
  4  1  1  0  0  0  0
  5  8  1  0  0  0  0
  6  3  1  0  0  0  0
  7 14  1  0  0  0  0
  8  7  2  0  0  0  0
  9 18  1  0  0  0  0
  9 10  1  0  0  0  0
 11 17  1  0  0  0  0
 11  2  1  0  0  0  0
 12  5  2  0  0  0  0
 12 16  1  0  0  0  0
 13 14  1  0  0  0  0
 13  3  2  0  0  0  0
 15  9  2  0  0  0  0
 16  4  2  0  0  0  0
 17 19  1  6  0  0  0
 17 15  1  0  0  0  0
 18  6  2  0  0  0  0
 20 19  1  0  0  0  0
 21 20  1  0  0  0  0
 22 21  1  0  0  0  0
 23 22  1  0  0  0  0
 23 25  1  0  0  0  0
 24 23  1  0  0  0  0
M  END
>  <MODEL>
1

>  <REMARK>
 VINA RESULT:      -9.3      0.000      0.000
  Name = 
  5 active torsions:
  status: ('A' for Active; 'I' for Inactive)
    1  A    between atoms: N_2  and  C_21
    2  A    between atoms: C_6  and  O_15
    3  A    between atoms: C_6  and  C_23
    4  A    between atoms: O_15  and  C_25
    5  A    between atoms: C_21  and  C_25
                            x       y       z     vdW  Elec       q    Type
                         _______ _______ _______ _____ _____    ______ ____

>  <TORSDO>
F 5

$$$$
=
 OpenBabel10262419483D

 25 28  0  0  1  0  0  0  0  0999 V2000
  187.5010  177.7830  145.5870 C   0  0  0  0  0  0  0  0  0  0  0  0
  188.7360  177.2490  145.1670 C   0  0  0  0  0  0  0  0  0  0  0  0
  188.3020  177.8500  147.8770 C   0  0  0  0  0  3  0  0  0  0  0  0
  186.3530  178.0730  144.8230 C   0  0  0  0  0  0  0  0  0  0  0  0
  183.9050  178.7640  143.6570 C   0  0  0  0  0  3  0  0  0  0  0  0
  189.5000  177.3640  147.4550 N   0  0  0  0  0  0  0  0  0  0  0  0
  185.3040  178.5720  145.5940 C   0  0  0  0  0  0  0  0  0  0  0  0
  184.0760  178.9220  145.0400 C   0  0  0  0  0  3  0  0  0  0  0  0
  191.1110  176.6550  145.7330 C   0  0  0  0  0  0  0  0  0  0  0  0
  192.0410  176.0670  146.7360 C   0  0  0  0  0  1  0  0  0  0  0  0
  189.0430  176.7280  143.4680 S   0  0  0  0  0  0  0  0  0  0  0  0
  184.9530  178.2650  142.8620 C   0  0  0  0  0  3  0  0  0  0  0  0
  187.3060  178.0700  146.9360 C   0  0  0  0  0  0  0  0  0  0  0  0
  185.7550  178.6690  147.2140 S   0  0  0  0  0  0  0  0  0  0  0  0
  191.5260  176.8150  144.5110 N   0  0  0  0  0  0  0  0  0  0  0  0
  186.1830  177.9180  143.4420 C   0  0  0  0  0  3  0  0  0  0  0  0
  190.7140  177.4490  143.4730 C   0  0  1  0  0  3  0  0  0  0  0  0
  189.7500  177.0730  146.1410 C   0  0  0  0  0  0  0  0  0  0  0  0
  191.3760  177.2890  142.1110 C   0  0  0  0  0  2  0  0  0  0  0  0
  190.5610  176.5510  141.2480 O   0  0  0  0  0  0  0  0  0  0  0  0
  190.5190  177.3050  140.0750 C   0  0  0  0  0  2  0  0  0  0  0  0
  191.4090  176.6730  139.0000 C   0  0  0  0  0  2  0  0  0  0  0  0
  190.9020  175.4030  138.4590 N   0  0  0  0  0  0  0  0  0  0  0  0
  189.7530  175.6510  137.6010 C   0  0  0  0  0  1  0  0  0  0  0  0
  191.9300  174.7370  137.6690 C   0  0  0  0  0  1  0  0  0  0  0  0
  1 13  1  0  0  0  0
  2  1  2  0  0  0  0
  2 18  1  0  0  0  0
  4  1  1  0  0  0  0
  4  7  1  0  0  0  0
  5  8  1  0  0  0  0
  6  3  1  0  0  0  0
  7 14  1  0  0  0  0
  8  7  2  0  0  0  0
  9 18  1  0  0  0  0
  9 10  1  0  0  0  0
 11 17  1  0  0  0  0
 11  2  1  0  0  0  0
 12 16  1  0  0  0  0
 12  5  2  0  0  0  0
 13 14  1  0  0  0  0
 13  3  2  0  0  0  0
 15  9  2  0  0  0  0
 16  4  2  0  0  0  0
 17 19  1  6  0  0  0
 17 15  1  0  0  0  0
 18  6  2  0  0  0  0
 20 19  1  0  0  0  0
 21 20  1  0  0  0  0
 22 21  1  0  0  0  0
 23 22  1  0  0  0  0
 24 23  1  0  0  0  0
 25 23  1  0  0  0  0
M  END
>  <MODEL>
2

>  <REMARK>
 VINA RESULT:      -9.0      1.184      1.527
  Name = 
  5 active torsions:
  status: ('A' for Active; 'I' for Inactive)
    1  A    between atoms: N_2  and  C_21
    2  A    between atoms: C_6  and  O_15
    3  A    between atoms: C_6  and  C_23
    4  A    between atoms: O_15  and  C_25
    5  A    between atoms: C_21  and  C_25
                            x       y       z     vdW  Elec       q    Type
                         _______ _______ _______ _____ _____    ______ ____

>  <TORSDO>
F 5

$$$$
=
 OpenBabel10262419483D

 25 28  0  0  1  0  0  0  0  0999 V2000
  186.1690  178.4630  142.5420 C   0  0  0  0  0  0  0  0  0  0  0  0
  187.4360  178.3120  141.9440 C   0  0  0  0  0  0  0  0  0  0  0  0
  185.1790  178.8500  140.3600 C   0  0  0  0  0  3  0  0  0  0  0  0
  185.8170  178.4040  143.9050 C   0  0  0  0  0  0  0  0  0  0  0  0
  184.7390  178.3660  146.4870 C   0  0  0  0  0  3  0  0  0  0  0  0
  186.4020  178.6700  139.7920 N   0  0  0  0  0  0  0  0  0  0  0  0
  184.4580  178.6300  144.1210 C   0  0  0  0  0  0  0  0  0  0  0  0
  183.8970  178.6190  145.3960 C   0  0  0  0  0  3  0  0  0  0  0  0
  188.7960  178.0960  139.8430 C   0  0  0  0  0  0  0  0  0  0  0  0
  189.0190  178.5760  138.4510 C   0  0  0  0  0  1  0  0  0  0  0  0
  188.9440  178.0850  142.9070 S   0  0  0  0  0  0  0  0  0  0  0  0
  186.1120  178.1330  146.2890 C   0  0  0  0  0  3  0  0  0  0  0  0
  185.0640  178.7340  141.7380 C   0  0  0  0  0  0  0  0  0  0  0  0
  183.6640  178.9050  142.6620 S   0  0  0  0  0  0  0  0  0  0  0  0
  189.7270  177.3970  140.4230 N   0  0  0  0  0  0  0  0  0  0  0  0
  186.6570  178.1500  144.9950 C   0  0  0  0  0  3  0  0  0  0  0  0
  189.5740  176.8220  141.7580 C   0  0  1  0  0  3  0  0  0  0  0  0
  187.5190  178.3940  140.5320 C   0  0  0  0  0  0  0  0  0  0  0  0
  190.9000  176.2580  142.2480 C   0  0  0  0  0  2  0  0  0  0  0  0
  190.7200  175.5130  143.4160 O   0  0  0  0  0  0  0  0  0  0  0  0
  191.8140  175.8450  144.2170 C   0  0  0  0  0  2  0  0  0  0  0  0
  191.4920  177.0720  145.0780 C   0  0  0  0  0  2  0  0  0  0  0  0
  191.6790  176.8680  146.5220 N   0  0  0  0  0  0  0  0  0  0  0  0
  190.3970  176.9430  147.2050 C   0  0  0  0  0  1  0  0  0  0  0  0
  192.2620  175.5580  146.7820 C   0  0  0  0  0  1  0  0  0  0  0  0
  1  4  1  0  0  0  0
  2  1  1  0  0  0  0
  2 11  1  0  0  0  0
  3 13  1  0  0  0  0
  4  7  2  0  0  0  0
  4 16  1  0  0  0  0
  6  3  2  0  0  0  0
  6 18  1  0  0  0  0
  7  8  1  0  0  0  0
  8  5  2  0  0  0  0
  9 15  2  0  0  0  0
  9 18  1  0  0  0  0
 10  9  1  0  0  0  0
 12  5  1  0  0  0  0
 13  1  2  0  0  0  0
 13 14  1  0  0  0  0
 14  7  1  0  0  0  0
 15 17  1  0  0  0  0
 16 12  2  0  0  0  0
 17 19  1  1  0  0  0
 17 11  1  0  0  0  0
 18  2  2  0  0  0  0
 19 20  1  0  0  0  0
 20 21  1  0  0  0  0
 21 22  1  0  0  0  0
 22 23  1  0  0  0  0
 23 25  1  0  0  0  0
 23 24  1  0  0  0  0
M  END
>  <MODEL>
3

>  <REMARK>
 VINA RESULT:      -8.5      1.752      5.459
  Name = 
  5 active torsions:
  status: ('A' for Active; 'I' for Inactive)
    1  A    between atoms: N_2  and  C_21
    2  A    between atoms: C_6  and  O_15
    3  A    between atoms: C_6  and  C_23
    4  A    between atoms: O_15  and  C_25
    5  A    between atoms: C_21  and  C_25
                            x       y       z     vdW  Elec       q    Type
                         _______ _______ _______ _____ _____    ______ ____

>  <TORSDO>
F 5

$$$$
=
 OpenBabel10262419483D

 25 28  0  0  1  0  0  0  0  0999 V2000
  187.2580  177.8600  145.0730 C   0  0  0  0  0  0  0  0  0  0  0  0
  188.5020  177.3260  144.6840 C   0  0  0  0  0  0  0  0  0  0  0  0
  188.0350  178.0140  147.3670 C   0  0  0  0  0  3  0  0  0  0  0  0
  186.1130  178.1110  144.2900 C   0  0  0  0  0  0  0  0  0  0  0  0
  183.6690  178.7340  143.0800 C   0  0  0  0  0  3  0  0  0  0  0  0
  189.2430  177.5270  146.9730 N   0  0  0  0  0  0  0  0  0  0  0  0
  185.0520  178.6230  145.0350 C   0  0  0  0  0  0  0  0  0  0  0  0
  183.8250  178.9410  144.4570 C   0  0  0  0  0  3  0  0  0  0  0  0
  190.8770  176.7790  145.2900 C   0  0  0  0  0  0  0  0  0  0  0  0
  191.8050  176.2360  146.3210 C   0  0  0  0  0  1  0  0  0  0  0  0
  188.8300  176.7510  143.0060 S   0  0  0  0  0  0  0  0  0  0  0  0
  184.7300  178.2200  142.3120 C   0  0  0  0  0  3  0  0  0  0  0  0
  187.0460  178.1900  146.4110 C   0  0  0  0  0  0  0  0  0  0  0  0
  185.4860  178.7810  146.6540 S   0  0  0  0  0  0  0  0  0  0  0  0
  191.3020  176.9020  144.0670 N   0  0  0  0  0  0  0  0  0  0  0  0
  185.9580  177.9070  142.9140 C   0  0  0  0  0  3  0  0  0  0  0  0
  190.4940  177.4910  143.0010 C   0  0  1  0  0  3  0  0  0  0  0  0
  189.5090  177.1940  145.6720 C   0  0  0  0  0  0  0  0  0  0  0  0
  191.1700  177.2920  141.6520 C   0  0  0  0  0  2  0  0  0  0  0  0
  190.3590  177.7680  140.6170 O   0  0  0  0  0  0  0  0  0  0  0  0
  190.5630  176.8680  139.5700 C   0  0  0  0  0  2  0  0  0  0  0  0
  189.9260  177.3960  138.2800 C   0  0  0  0  0  2  0  0  0  0  0  0
  188.6850  176.7130  137.8890 N   0  0  0  0  0  0  0  0  0  0  0  0
  187.5370  177.5560  138.1890 C   0  0  0  0  0  1  0  0  0  0  0  0
  188.6860  176.4290  136.4600 C   0  0  0  0  0  1  0  0  0  0  0  0
  1 13  1  0  0  0  0
  2  1  2  0  0  0  0
  2 18  1  0  0  0  0
  4  7  1  0  0  0  0
  4  1  1  0  0  0  0
  5  8  1  0  0  0  0
  6  3  1  0  0  0  0
  7 14  1  0  0  0  0
  8  7  2  0  0  0  0
  9 18  1  0  0  0  0
  9 10  1  0  0  0  0
 11  2  1  0  0  0  0
 12 16  1  0  0  0  0
 12  5  2  0  0  0  0
 13 14  1  0  0  0  0
 13  3  2  0  0  0  0
 15  9  2  0  0  0  0
 16  4  2  0  0  0  0
 17 19  1  6  0  0  0
 17 11  1  0  0  0  0
 17 15  1  0  0  0  0
 18  6  2  0  0  0  0
 20 19  1  0  0  0  0
 21 20  1  0  0  0  0
 22 21  1  0  0  0  0
 23 24  1  0  0  0  0
 23 22  1  0  0  0  0
 25 23  1  0  0  0  0
M  END
>  <MODEL>
4

>  <REMARK>
 VINA RESULT:      -8.3      1.053      1.240
  Name = 
  5 active torsions:
  status: ('A' for Active; 'I' for Inactive)
    1  A    between atoms: N_2  and  C_21
    2  A    between atoms: C_6  and  O_15
    3  A    between atoms: C_6  and  C_23
    4  A    between atoms: O_15  and  C_25
    5  A    between atoms: C_21  and  C_25
                            x       y       z     vdW  Elec       q    Type
                         _______ _______ _______ _____ _____    ______ ____

>  <TORSDO>
F 5

$$$$
=
 OpenBabel10262419483D

 25 28  0  0  1  0  0  0  0  0999 V2000
  189.3390  177.4920  143.9860 C   0  0  0  0  0  0  0  0  0  0  0  0
  188.5740  177.5810  142.8060 C   0  0  0  0  0  0  0  0  0  0  0  0
  191.3690  177.3390  142.6640 C   0  0  0  0  0  3  0  0  0  0  0  0
  188.9070  177.4850  145.3270 C   0  0  0  0  0  0  0  0  0  0  0  0
  188.4410  177.4320  148.0850 C   0  0  0  0  0  3  0  0  0  0  0  0
  190.6220  177.4580  141.5340 N   0  0  0  0  0  0  0  0  0  0  0  0
  189.9600  177.3550  146.2320 C   0  0  0  0  0  0  0  0  0  0  0  0
  189.7550  177.3250  147.6090 C   0  0  0  0  0  3  0  0  0  0  0  0
  188.5200  177.8300  140.3070 C   0  0  0  0  0  0  0  0  0  0  0  0
  189.1210  177.4320  139.0030 C   0  0  0  0  0  1  0  0  0  0  0  0
  186.7710  177.6180  142.8170 S   0  0  0  0  0  0  0  0  0  0  0  0
  187.3670  177.5660  147.1880 C   0  0  0  0  0  3  0  0  0  0  0  0
  190.7240  177.3680  143.8920 C   0  0  0  0  0  0  0  0  0  0  0  0
  191.4300  177.2480  145.4190 S   0  0  0  0  0  0  0  0  0  0  0  0
  187.3560  178.4100  140.3090 N   0  0  0  0  0  0  0  0  0  0  0  0
  187.5960  177.5940  145.8030 C   0  0  0  0  0  3  0  0  0  0  0  0
  186.7170  178.9020  141.5290 C   0  0  1  0  0  3  0  0  0  0  0  0
  189.2610  177.5910  141.5660 C   0  0  0  0  0  0  0  0  0  0  0  0
  185.2810  179.3210  141.2430 C   0  0  0  0  0  2  0  0  0  0  0  0
  185.0870  179.5190  139.8730 O   0  0  0  0  0  0  0  0  0  0  0  0
  183.7180  179.3230  139.6810 C   0  0  0  0  0  2  0  0  0  0  0  0
  183.1270  178.5100  140.8380 C   0  0  0  0  0  2  0  0  0  0  0  0
  181.7430  178.8640  141.1870 N   0  0  0  0  0  0  0  0  0  0  0  0
  180.8340  177.8210  140.7370 C   0  0  0  0  0  1  0  0  0  0  0  0
  181.6010  179.0070  142.6300 C   0  0  0  0  0  1  0  0  0  0  0  0
  1  4  1  0  0  0  0
  2 11  1  0  0  0  0
  2  1  1  0  0  0  0
  3 13  1  0  0  0  0
  4 16  2  0  0  0  0
  4  7  1  0  0  0  0
  6 18  1  0  0  0  0
  6  3  2  0  0  0  0
  7  8  2  0  0  0  0
  8  5  1  0  0  0  0
  9 15  2  0  0  0  0
  9 18  1  0  0  0  0
 10  9  1  0  0  0  0
 12  5  2  0  0  0  0
 13  1  2  0  0  0  0
 13 14  1  0  0  0  0
 14  7  1  0  0  0  0
 15 17  1  0  0  0  0
 16 12  1  0  0  0  0
 17 19  1  6  0  0  0
 17 11  1  0  0  0  0
 18  2  2  0  0  0  0
 20 19  1  0  0  0  0
 21 20  1  0  0  0  0
 21 22  1  0  0  0  0
 22 23  1  0  0  0  0
 23 25  1  0  0  0  0
 24 23  1  0  0  0  0
M  END
>  <MODEL>
5

>  <REMARK>
 VINA RESULT:      -8.3      2.842      6.091
  Name = 
  5 active torsions:
  status: ('A' for Active; 'I' for Inactive)
    1  A    between atoms: N_2  and  C_21
    2  A    between atoms: C_6  and  O_15
    3  A    between atoms: C_6  and  C_23
    4  A    between atoms: O_15  and  C_25
    5  A    between atoms: C_21  and  C_25
                            x       y       z     vdW  Elec       q    Type
                         _______ _______ _______ _____ _____    ______ ____

>  <TORSDO>
F 5

$$$$
=
 OpenBabel10262419483D

 25 28  0  0  1  0  0  0  0  0999 V2000
  189.2220  177.5170  144.0980 C   0  0  0  0  0  0  0  0  0  0  0  0
  188.4620  177.6070  142.9150 C   0  0  0  0  0  0  0  0  0  0  0  0
  191.2540  177.3280  142.7850 C   0  0  0  0  0  3  0  0  0  0  0  0
  188.7840  177.5250  145.4380 C   0  0  0  0  0  0  0  0  0  0  0  0
  188.3090  177.4970  148.1950 C   0  0  0  0  0  3  0  0  0  0  0  0
  190.5130  177.4480  141.6510 N   0  0  0  0  0  0  0  0  0  0  0  0
  189.8320  177.3880  146.3470 C   0  0  0  0  0  0  0  0  0  0  0  0
  189.6230  177.3690  147.7240 C   0  0  0  0  0  3  0  0  0  0  0  0
  188.4200  177.8400  140.4140 C   0  0  0  0  0  0  0  0  0  0  0  0
  189.0200  177.4240  139.1160 C   0  0  0  0  0  1  0  0  0  0  0  0
  186.6590  177.6670  142.9200 S   0  0  0  0  0  0  0  0  0  0  0  0
  187.2390  177.6390  147.2920 C   0  0  0  0  0  3  0  0  0  0  0  0
  190.6050  177.3740  144.0110 C   0  0  0  0  0  0  0  0  0  0  0  0
  191.3040  177.2560  145.5400 S   0  0  0  0  0  0  0  0  0  0  0  0
  187.2630  178.4340  140.4080 N   0  0  0  0  0  0  0  0  0  0  0  0
  187.4730  177.6540  145.9090 C   0  0  0  0  0  3  0  0  0  0  0  0
  186.6260  178.9430  141.6220 C   0  0  1  0  0  3  0  0  0  0  0  0
  189.1530  177.5990  141.6780 C   0  0  0  0  0  0  0  0  0  0  0  0
  185.1970  179.3780  141.3280 C   0  0  0  0  0  2  0  0  0  0  0  0
  185.0590  179.7520  139.9890 O   0  0  0  0  0  0  0  0  0  0  0  0
  183.7720  179.3410  139.6400 C   0  0  0  0  0  2  0  0  0  0  0  0
  183.8050  177.9300  139.0430 C   0  0  0  0  0  2  0  0  0  0  0  0
  184.1240  177.8820  137.6090 N   0  0  0  0  0  0  0  0  0  0  0  0
  185.3880  177.1900  137.4030 C   0  0  0  0  0  1  0  0  0  0  0  0
  183.0850  177.1690  136.8770 C   0  0  0  0  0  1  0  0  0  0  0  0
  1  4  1  0  0  0  0
  2 11  1  0  0  0  0
  2  1  1  0  0  0  0
  3 13  1  0  0  0  0
  4 16  2  0  0  0  0
  4  7  1  0  0  0  0
  6 18  1  0  0  0  0
  6  3  2  0  0  0  0
  7  8  2  0  0  0  0
  8  5  1  0  0  0  0
  9 18  1  0  0  0  0
 10  9  1  0  0  0  0
 12  5  2  0  0  0  0
 13  1  2  0  0  0  0
 13 14  1  0  0  0  0
 14  7  1  0  0  0  0
 15  9  2  0  0  0  0
 15 17  1  0  0  0  0
 16 12  1  0  0  0  0
 17 19  1  6  0  0  0
 17 11  1  0  0  0  0
 18  2  2  0  0  0  0
 20 19  1  0  0  0  0
 21 20  1  0  0  0  0
 22 21  1  0  0  0  0
 23 22  1  0  0  0  0
 24 23  1  0  0  0  0
 25 23  1  0  0  0  0
M  END
>  <MODEL>
6

>  <REMARK>
 VINA RESULT:      -8.0      2.878      5.642
  Name = 
  5 active torsions:
  status: ('A' for Active; 'I' for Inactive)
    1  A    between atoms: N_2  and  C_21
    2  A    between atoms: C_6  and  O_15
    3  A    between atoms: C_6  and  C_23
    4  A    between atoms: O_15  and  C_25
    5  A    between atoms: C_21  and  C_25
                            x       y       z     vdW  Elec       q    Type
                         _______ _______ _______ _____ _____    ______ ____

>  <TORSDO>
F 5

$$$$
=
 OpenBabel10262419483D

 25 28  0  0  1  0  0  0  0  0999 V2000
  186.5380  178.1390  144.7970 C   0  0  0  0  0  0  0  0  0  0  0  0
  185.5440  178.5310  143.8780 C   0  0  0  0  0  0  0  0  0  0  0  0
  184.9230  178.2570  146.6040 C   0  0  0  0  0  3  0  0  0  0  0  0
  187.9000  177.8570  144.5660 C   0  0  0  0  0  0  0  0  0  0  0  0
  190.6260  177.2320  144.5090 C   0  0  0  0  0  3  0  0  0  0  0  0
  183.9650  178.6040  145.7030 N   0  0  0  0  0  0  0  0  0  0  0  0
  188.5860  177.5250  145.7330 C   0  0  0  0  0  0  0  0  0  0  0  0
  189.9420  177.2110  145.7330 C   0  0  0  0  0  3  0  0  0  0  0  0
  183.1180  179.0000  143.4250 C   0  0  0  0  0  0  0  0  0  0  0  0
  181.8580  179.6210  143.9190 C   0  0  0  0  0  1  0  0  0  0  0  0
  185.8980  178.8420  142.1370 S   0  0  0  0  0  0  0  0  0  0  0  0
  189.9500  177.5620  143.3210 C   0  0  0  0  0  3  0  0  0  0  0  0
  186.2090  178.0140  146.1450 C   0  0  0  0  0  0  0  0  0  0  0  0
  187.5520  177.5670  147.0610 S   0  0  0  0  0  0  0  0  0  0  0  0
  183.2080  178.6800  142.1680 N   0  0  0  0  0  0  0  0  0  0  0  0
  188.5820  177.8760  143.3450 C   0  0  0  0  0  3  0  0  0  0  0  0
  184.3740  178.0020  141.6030 C   0  0  1  0  0  3  0  0  0  0  0  0
  184.2290  178.7330  144.3670 C   0  0  0  0  0  0  0  0  0  0  0  0
  184.2810  177.9650  140.0840 C   0  0  0  0  0  2  0  0  0  0  0  0
  185.2670  178.7690  139.5080 O   0  0  0  0  0  0  0  0  0  0  0  0
  185.3920  178.2910  138.2020 C   0  0  0  0  0  2  0  0  0  0  0  0
  186.8040  177.7420  137.9670 C   0  0  0  0  0  2  0  0  0  0  0  0
  187.8860  178.6300  138.4170 N   0  0  0  0  0  0  0  0  0  0  0  0
  188.6290  178.0010  139.4980 C   0  0  0  0  0  1  0  0  0  0  0  0
  188.8090  178.9050  137.3240 C   0  0  0  0  0  1  0  0  0  0  0  0
  1 13  2  0  0  0  0
  2 18  2  0  0  0  0
  2  1  1  0  0  0  0
  4  1  1  0  0  0  0
  4  7  1  0  0  0  0
  5  8  1  0  0  0  0
  6  3  2  0  0  0  0
  7 14  1  0  0  0  0
  8  7  2  0  0  0  0
  9 10  1  0  0  0  0
  9 18  1  0  0  0  0
 11  2  1  0  0  0  0
 12 16  1  0  0  0  0
 12  5  2  0  0  0  0
 13  3  1  0  0  0  0
 13 14  1  0  0  0  0
 15  9  2  0  0  0  0
 16  4  2  0  0  0  0
 17 19  1  6  0  0  0
 17 11  1  0  0  0  0
 17 15  1  0  0  0  0
 18  6  1  0  0  0  0
 20 19  1  0  0  0  0
 21 20  1  0  0  0  0
 22 21  1  0  0  0  0
 22 23  1  0  0  0  0
 23 24  1  0  0  0  0
 25 23  1  0  0  0  0
M  END
>  <MODEL>
7

>  <REMARK>
 VINA RESULT:      -7.6      2.798      5.450
  Name = 
  5 active torsions:
  status: ('A' for Active; 'I' for Inactive)
    1  A    between atoms: N_2  and  C_21
    2  A    between atoms: C_6  and  O_15
    3  A    between atoms: C_6  and  C_23
    4  A    between atoms: O_15  and  C_25
    5  A    between atoms: C_21  and  C_25
                            x       y       z     vdW  Elec       q    Type
                         _______ _______ _______ _____ _____    ______ ____

>  <TORSDO>
F 5

$$$$
=
 OpenBabel10262419483D

 25 28  0  0  1  0  0  0  0  0999 V2000
  188.5660  177.5500  144.0840 C   0  0  0  0  0  0  0  0  0  0  0  0
  188.7590  177.7190  142.6980 C   0  0  0  0  0  0  0  0  0  0  0  0
  186.1890  177.9610  143.8070 C   0  0  0  0  0  3  0  0  0  0  0  0
  189.5160  177.2780  145.0880 C   0  0  0  0  0  0  0  0  0  0  0  0
  191.0910  176.7520  147.3400 C   0  0  0  0  0  3  0  0  0  0  0  0
  186.3850  178.0900  142.4670 N   0  0  0  0  0  0  0  0  0  0  0  0
  188.9510  177.2040  146.3600 C   0  0  0  0  0  0  0  0  0  0  0  0
  189.7120  176.9450  147.4970 C   0  0  0  0  0  3  0  0  0  0  0  0
  187.7460  178.0040  140.4180 C   0  0  0  0  0  0  0  0  0  0  0  0
  186.6920  178.6630  139.5980 C   0  0  0  0  0  1  0  0  0  0  0  0
  190.3940  177.6970  141.9360 S   0  0  0  0  0  0  0  0  0  0  0  0
  191.6790  176.8190  146.0630 C   0  0  0  0  0  3  0  0  0  0  0  0
  187.2830  177.6790  144.6130 C   0  0  0  0  0  0  0  0  0  0  0  0
  187.2900  177.4670  146.2860 S   0  0  0  0  0  0  0  0  0  0  0  0
  188.7550  177.4470  139.8130 N   0  0  0  0  0  0  0  0  0  0  0  0
  190.8930  177.0830  144.9310 C   0  0  0  0  0  3  0  0  0  0  0  0
  189.8010  176.7150  140.5230 C   0  0  1  0  0  3  0  0  0  0  0  0
  187.6210  177.9660  141.8920 C   0  0  0  0  0  0  0  0  0  0  0  0
  190.9470  176.3790  139.5790 C   0  0  0  0  0  2  0  0  0  0  0  0
  190.5580  175.4070  138.6540 O   0  0  0  0  0  0  0  0  0  0  0  0
  191.5370  175.4560  137.6600 C   0  0  0  0  0  2  0  0  0  0  0  0
  192.6840  176.3800  138.0860 C   0  0  0  0  0  2  0  0  0  0  0  0
  193.9750  176.0790  137.4500 N   0  0  0  0  0  0  0  0  0  0  0  0
  194.4900  174.8110  137.9430 C   0  0  0  0  0  1  0  0  0  0  0  0
  193.8220  175.9830  136.0040 C   0  0  0  0  0  1  0  0  0  0  0  0
  1 13  2  0  0  0  0
  1  4  1  0  0  0  0
  2  1  1  0  0  0  0
  3 13  1  0  0  0  0
  4  7  1  0  0  0  0
  5  8  1  0  0  0  0
  6  3  2  0  0  0  0
  7  8  2  0  0  0  0
  9 18  1  0  0  0  0
 10  9  1  0  0  0  0
 11  2  1  0  0  0  0
 12  5  2  0  0  0  0
 13 14  1  0  0  0  0
 14  7  1  0  0  0  0
 15  9  2  0  0  0  0
 15 17  1  0  0  0  0
 16  4  2  0  0  0  0
 16 12  1  0  0  0  0
 17 19  1  6  0  0  0
 17 11  1  0  0  0  0
 18  6  1  0  0  0  0
 18  2  2  0  0  0  0
 20 19  1  0  0  0  0
 21 22  1  0  0  0  0
 21 20  1  0  0  0  0
 23 24  1  0  0  0  0
 23 22  1  0  0  0  0
 25 23  1  0  0  0  0
M  END
>  <MODEL>
8

>  <REMARK>
 VINA RESULT:      -7.2      2.530      5.225
  Name = 
  5 active torsions:
  status: ('A' for Active; 'I' for Inactive)
    1  A    between atoms: N_2  and  C_21
    2  A    between atoms: C_6  and  O_15
    3  A    between atoms: C_6  and  C_23
    4  A    between atoms: O_15  and  C_25
    5  A    between atoms: C_21  and  C_25
                            x       y       z     vdW  Elec       q    Type
                         _______ _______ _______ _____ _____    ______ ____

>  <TORSDO>
F 5

$$$$
=
 OpenBabel10262419483D

 25 28  0  0  1  0  0  0  0  0999 V2000
  187.9580  177.6200  142.4130 C   0  0  0  0  0  0  0  0  0  0  0  0
  186.7100  178.1700  142.7650 C   0  0  0  0  0  0  0  0  0  0  0  0
  188.2640  176.8410  144.6910 C   0  0  0  0  0  3  0  0  0  0  0  0
  188.6190  177.6400  141.1680 C   0  0  0  0  0  0  0  0  0  0  0  0
  190.2280  177.4780  138.8850 C   0  0  0  0  0  3  0  0  0  0  0  0
  187.0440  177.3490  145.0110 N   0  0  0  0  0  0  0  0  0  0  0  0
  189.8620  177.0100  141.2070 C   0  0  0  0  0  0  0  0  0  0  0  0
  190.6830  176.9170  140.0870 C   0  0  0  0  0  3  0  0  0  0  0  0
  184.8900  178.4170  144.4790 C   0  0  0  0  0  0  0  0  0  0  0  0
  184.5530  178.6280  145.9140 C   0  0  0  0  0  1  0  0  0  0  0  0
  185.7150  179.1390  141.6140 S   0  0  0  0  0  0  0  0  0  0  0  0
  188.9760  178.1150  138.8260 C   0  0  0  0  0  3  0  0  0  0  0  0
  188.7150  176.9690  143.3850 C   0  0  0  0  0  0  0  0  0  0  0  0
  190.1780  176.4180  142.7520 S   0  0  0  0  0  0  0  0  0  0  0  0
  183.9610  178.5910  143.5850 N   0  0  0  0  0  0  0  0  0  0  0  0
  188.1650  178.1990  139.9680 C   0  0  0  0  0  3  0  0  0  0  0  0
  184.1740  178.3390  142.1610 C   0  0  1  0  0  3  0  0  0  0  0  0
  186.2550  177.9900  144.0950 C   0  0  0  0  0  0  0  0  0  0  0  0
  182.9870  178.8420  141.3510 C   0  0  0  0  0  2  0  0  0  0  0  0
  182.2520  177.7720  140.8330 O   0  0  0  0  0  0  0  0  0  0  0  0
  180.9550  178.2700  140.6970 C   0  0  0  0  0  2  0  0  0  0  0  0
  180.0060  177.5640  141.6720 C   0  0  0  0  0  2  0  0  0  0  0  0
  179.4000  178.4470  142.6790 N   0  0  0  0  0  0  0  0  0  0  0  0
  180.0540  178.2570  143.9660 C   0  0  0  0  0  1  0  0  0  0  0  0
  179.5470  179.8430  142.2900 C   0  0  0  0  0  1  0  0  0  0  0  0
  1  2  2  0  0  0  0
  1 13  1  0  0  0  0
  2 18  1  0  0  0  0
  3  6  1  0  0  0  0
  4  7  1  0  0  0  0
  4  1  1  0  0  0  0
  5  8  1  0  0  0  0
  7 14  1  0  0  0  0
  8  7  2  0  0  0  0
  9 10  1  0  0  0  0
 11 17  1  0  0  0  0
 11  2  1  0  0  0  0
 12  5  2  0  0  0  0
 12 16  1  0  0  0  0
 13  3  2  0  0  0  0
 14 13  1  0  0  0  0
 15  9  2  0  0  0  0
 16  4  2  0  0  0  0
 17 19  1  6  0  0  0
 17 15  1  0  0  0  0
 18  9  1  0  0  0  0
 18  6  2  0  0  0  0
 20 19  1  0  0  0  0
 21 20  1  0  0  0  0
 21 22  1  0  0  0  0
 22 23  1  0  0  0  0
 23 24  1  0  0  0  0
 25 23  1  0  0  0  0
M  END
>  <MODEL>
9

>  <REMARK>
 VINA RESULT:      -7.1      3.836      7.144
  Name = 
  5 active torsions:
  status: ('A' for Active; 'I' for Inactive)
    1  A    between atoms: N_2  and  C_21
    2  A    between atoms: C_6  and  O_15
    3  A    between atoms: C_6  and  C_23
    4  A    between atoms: O_15  and  C_25
    5  A    between atoms: C_21  and  C_25
                            x       y       z     vdW  Elec       q    Type
                         _______ _______ _______ _____ _____    ______ ____

>  <TORSDO>
F 5

$$$$
