=
 OpenBabel10262420323D

 55 63  0  0  1  0  0  0  0  0999 V2000
  186.6130  178.3230  142.0280 C   0  0  0  0  0  0  0  0  0  0  0  0
  183.2480  176.9040  139.3780 C   0  0  0  0  0  3  0  0  0  0  0  0
  186.1320  177.5470  136.6860 C   0  0  0  0  0  2  0  0  0  0  0  0
  180.2350  178.0750  140.3930 C   0  0  0  0  0  2  0  0  0  0  0  0
  180.8380  176.7560  139.8780 C   0  0  2  0  0  3  0  0  0  0  0  0
  189.0850  177.6300  136.3310 C   0  0  0  0  0  2  0  0  0  0  0  0
  190.0380  176.7610  142.8190 C   0  0  0  0  0  2  0  0  0  0  0  0
  190.1500  176.7370  135.7010 C   0  0  0  0  0  2  0  0  0  0  0  0
  190.0400  176.9160  138.5620 C   0  0  0  0  0  0  0  0  0  0  0  0
  191.2620  176.3450  137.8940 C   0  0  0  0  0  2  0  0  0  0  0  0
  186.5950  178.4220  137.7230 C   0  0  1  0  0  3  0  0  0  0  0  0
  191.4500  176.8900  136.4810 C   0  0  0  0  0  2  0  0  0  0  0  0
  185.4760  179.7820  143.7270 C   0  0  0  0  0  3  0  0  0  0  0  0
  188.9440  177.4160  137.8230 C   0  0  0  0  0  0  0  0  0  0  0  0
  182.9710  178.8570  142.8800 C   0  0  0  0  0  0  0  0  0  0  0  0
  186.6530  178.3250  140.6300 C   0  0  0  0  0  3  0  0  0  0  0  0
  184.1350  178.3810  142.2700 C   0  0  0  0  0  3  0  0  0  0  0  0
  188.9570  177.4520  144.9340 C   0  0  2  0  0  3  0  0  0  0  0  0
  188.8530  177.3130  140.6450 C   0  0  0  0  0  0  0  0  0  0  0  0
  187.7070  177.8000  142.7550 C   0  0  0  0  0  0  0  0  0  0  0  0
  181.8800  177.0140  138.7950 C   0  0  0  0  0  2  0  0  0  0  0  0
  189.9730  176.8490  139.9500 C   0  0  0  0  0  3  0  0  0  0  0  0
  184.2850  177.2440  138.6710 C   0  0  0  0  0  0  0  0  0  0  0  0
  187.6050  177.6600  144.2560 C   0  0  0  0  0  2  0  0  0  0  0  0
  185.3110  177.6040  137.9570 C   0  0  0  0  0  0  0  0  0  0  0  0
  184.3120  180.2660  144.3330 C   0  0  0  0  0  3  0  0  0  0  0  0
  185.3950  178.8330  142.6910 C   0  0  0  0  0  0  0  0  0  0  0  0
  187.7680  177.8400  138.5000 C   0  0  0  0  0  0  0  0  0  0  0  0
  189.7030  176.3250  144.2330 C   0  0  0  0  0  2  0  0  0  0  0  0
  187.7500  177.8250  139.9200 C   0  0  0  0  0  0  0  0  0  0  0  0
  181.2820  178.9380  141.0850 C   0  0  0  0  0  2  0  0  0  0  0  0
  188.8250  177.2750  142.0580 C   0  0  0  0  0  0  0  0  0  0  0  0
  181.6430  178.3490  142.4350 C   0  0  0  0  0  2  0  0  0  0  0  0
  183.0590  179.8030  143.9100 C   0  0  0  0  0  3  0  0  0  0  0  0
  188.7640  177.1960  146.4030 C   0  0  0  0  0  0  0  0  0  0  0  0
  187.5840  177.4600  146.9640 C   0  0  0  0  0  2  0  0  0  0  0  0
  189.8730  176.6750  147.2740 C   0  0  0  0  0  1  0  0  0  0  0  0
  178.9310  176.1530  138.2490 C   0  0  0  0  0  2  0  0  0  0  0  0
  180.1310  175.2680  137.9560 C   0  0  1  0  0  3  0  0  0  0  0  0
  179.8290  175.6950  139.3880 C   0  0  1  0  0  3  0  0  0  0  0  0
  179.6570  173.8430  137.7000 C   0  0  0  0  0  2  0  0  0  0  0  0
  183.0270  171.5380  135.0100 C   0  0  0  0  0  1  0  0  0  0  0  0
  180.2220  173.2380  136.4160 C   0  0  2  0  0  3  0  0  0  0  0  0
  181.3440  171.3700  137.4020 O   0  0  0  0  0  0  0  0  0  0  0  0
  181.3930  172.3460  136.6630 C   0  0  0  0  0  0  0  0  0  0  0  0
  182.6110  172.7160  135.8840 C   0  0  2  0  0  0  0  0  0  0  0  0
  180.7840  174.3620  135.5550 C   0  0  0  0  0  2  0  0  0  0  0  0
  182.1030  173.8490  134.9680 C   0  0  1  0  0  3  0  0  0  0  0  0
  185.0580  172.6580  136.6230 N   0  0  0  0  0  2  0  0  0  0  0  0
  186.1520  173.0020  137.5070 C   0  0  0  0  0  1  0  0  0  0  0  0
  183.7260  173.1370  136.8270 C   0  0  0  0  0  0  0  0  0  0  0  0
  183.4900  173.9540  137.7610 O   0  0  0  0  0  0  0  0  0  0  0  0
  183.0920  174.9890  134.6920 C   0  0  0  0  0  3  0  0  0  0  0  0
  184.3980  174.4870  134.5940 O   0  0  0  0  0  1  0  0  0  0  0  0
  183.0360  175.9250  135.7290 O   0  0  0  0  0  1  0  0  0  0  0  0
  1 27  1  0  0  0  0
  1 20  1  0  0  0  0
  3 25  1  0  0  0  0
  4 31  1  0  0  0  0
  5 21  1  6  0  0  0
  5  4  1  0  0  0  0
  6 14  1  0  0  0  0
  7 29  1  0  0  0  0
  8  6  1  0  0  0  0
  8 12  1  0  0  0  0
  9 22  1  0  0  0  0
 10  9  1  0  0  0  0
 11  3  1  6  0  0  0
 11 25  1  0  0  0  0
 11 28  1  0  0  0  0
 12 10  1  0  0  0  0
 13 26  1  0  0  0  0
 14 28  1  0  0  0  0
 14  9  2  0  0  0  0
 15 34  1  0  0  0  0
 16  1  2  0  0  0  0
 17 27  1  0  0  0  0
 17 15  2  0  0  0  0
 18 35  1  1  0  0  0
 19 32  1  0  0  0  0
 20 24  1  0  0  0  0
 21  2  1  0  0  0  0
 22 19  2  0  0  0  0
 23  2  2  0  0  0  0
 24 18  1  0  0  0  0
 25 23  2  0  0  0  0
 27 13  2  0  0  0  0
 28 30  2  0  0  0  0
 29 18  1  0  0  0  0
 30 16  1  0  0  0  0
 30 19  1  0  0  0  0
 31 33  1  0  0  0  0
 32 20  2  0  0  0  0
 32  7  1  0  0  0  0
 33 15  1  0  0  0  0
 34 26  2  0  0  0  0
 35 36  2  0  0  0  0
 35 37  1  0  0  0  0
 39 41  1  1  0  0  0
 39 38  1  0  0  0  0
 39 40  1  0  0  0  0
 40 38  1  6  0  0  0
 40  5  1  0  0  0  0
 43 45  1  0  0  0  0
 43 41  1  1  0  0  0
 45 44  2  0  0  0  0
 46 42  1  6  0  0  0
 46 45  1  0  0  0  0
 46 51  1  0  0  0  0
 47 43  1  0  0  0  0
 48 53  1  1  0  0  0
 48 47  1  0  0  0  0
 48 46  1  0  0  0  0
 49 51  1  0  0  0  0
 49 50  1  0  0  0  0
 51 52  2  0  0  0  0
 53 55  1  0  0  0  0
 54 53  1  0  0  0  0
M  END
>  <MODEL>
1

>  <REMARK>
 VINA RESULT:      -9.8      0.000      0.000
  Name = 
  6 active torsions:
  status: ('A' for Active; 'I' for Inactive)
    1  A    between atoms: C_1  and  C_53
    2  A    between atoms: C_6  and  C_20
    3  A    between atoms: C_8  and  C_43
    4  A    between atoms: C_10  and  C_32
    5  A    between atoms: C_20  and  C_42
    6  A    between atoms: C_29  and  C_38
                            x       y       z     vdW  Elec       q    Type
                         _______ _______ _______ _____ _____    ______ ____

>  <TORSDO>
F 6

$$$$
=
 OpenBabel10262420323D

 55 63  0  0  1  0  0  0  0  0999 V2000
  187.0980  178.2120  139.2320 C   0  0  0  0  0  0  0  0  0  0  0  0
  190.4690  175.3180  138.4400 C   0  0  0  0  0  3  0  0  0  0  0  0
  191.5240  176.7750  142.0100 C   0  0  0  0  0  2  0  0  0  0  0  0
  191.4030  175.2990  135.1830 C   0  0  0  0  0  2  0  0  0  0  0  0
  191.1540  174.2810  136.3100 C   0  0  2  0  0  3  0  0  0  0  0  0
  190.4430  177.9830  144.5050 C   0  0  0  0  0  2  0  0  0  0  0  0
  184.3550  178.2200  141.9280 C   0  0  0  0  0  2  0  0  0  0  0  0
  190.1950  177.5260  145.9380 C   0  0  0  0  0  2  0  0  0  0  0  0
  187.9280  177.9330  144.2280 C   0  0  0  0  0  0  0  0  0  0  0  0
  187.7340  177.8280  145.7160 C   0  0  0  0  0  2  0  0  0  0  0  0
  190.7040  177.8620  141.5580 C   0  0  1  0  0  3  0  0  0  0  0  0
  188.9780  178.2580  146.4900 C   0  0  0  0  0  2  0  0  0  0  0  0
  186.6620  179.2660  136.9940 C   0  0  0  0  0  3  0  0  0  0  0  0
  189.2090  177.8830  143.6330 C   0  0  0  0  0  0  0  0  0  0  0  0
  188.2770  177.3450  135.7480 C   0  0  0  0  0  0  0  0  0  0  0  0
  188.2390  178.0880  140.0310 C   0  0  0  0  0  3  0  0  0  0  0  0
  188.0900  177.3100  137.1330 C   0  0  0  0  0  3  0  0  0  0  0  0
  183.3190  178.6360  139.7190 C   0  0  2  0  0  3  0  0  0  0  0  0
  186.8820  178.0360  142.0360 C   0  0  0  0  0  0  0  0  0  0  0  0
  185.8220  178.2400  139.8380 C   0  0  0  0  0  0  0  0  0  0  0  0
  191.6340  174.8200  137.6530 C   0  0  0  0  0  2  0  0  0  0  0  0
  186.7900  177.9860  143.4300 C   0  0  0  0  0  3  0  0  0  0  0  0
  190.6650  175.9680  139.5490 C   0  0  0  0  0  0  0  0  0  0  0  0
  184.5840  178.2230  138.9720 C   0  0  0  0  0  2  0  0  0  0  0  0
  190.8770  176.6310  140.6480 C   0  0  0  0  0  0  0  0  0  0  0  0
  186.8550  179.3080  135.6080 C   0  0  0  0  0  3  0  0  0  0  0  0
  187.2770  178.2630  137.7650 C   0  0  0  0  0  0  0  0  0  0  0  0
  189.3320  177.8730  142.2170 C   0  0  0  0  0  0  0  0  0  0  0  0
  183.2120  177.8320  141.0080 C   0  0  0  0  0  2  0  0  0  0  0  0
  188.1590  177.9940  141.4250 C   0  0  0  0  0  0  0  0  0  0  0  0
  190.5900  176.5710  135.3840 C   0  0  0  0  0  2  0  0  0  0  0  0
  185.7140  178.1330  141.2490 C   0  0  0  0  0  0  0  0  0  0  0  0
  189.1260  176.3120  135.0900 C   0  0  0  0  0  2  0  0  0  0  0  0
  187.6630  178.3470  134.9850 C   0  0  0  0  0  3  0  0  0  0  0  0
  182.1170  178.4740  138.8310 C   0  0  0  0  0  0  0  0  0  0  0  0
  182.2570  178.6010  137.5120 C   0  0  0  0  0  2  0  0  0  0  0  0
  180.7470  178.2000  139.3860 C   0  0  0  0  0  1  0  0  0  0  0  0
  191.6800  172.3890  134.6390 C   0  0  0  0  0  2  0  0  0  0  0  0
  192.9830  172.9100  135.2240 C   0  0  1  0  0  3  0  0  0  0  0  0
  191.7240  172.8650  136.0830 C   0  0  1  0  0  3  0  0  0  0  0  0
  193.9000  171.7350  135.5380 C   0  0  0  0  0  2  0  0  0  0  0  0
  198.3220  173.0000  137.1990 C   0  0  0  0  0  1  0  0  0  0  0  0
  195.3840  172.0710  135.3990 C   0  0  2  0  0  3  0  0  0  0  0  0
  196.1410  171.0580  137.4290 O   0  0  0  0  0  0  0  0  0  0  0  0
  196.1090  172.0440  136.7030 C   0  0  0  0  0  0  0  0  0  0  0  0
  196.8390  173.3070  137.0160 C   0  0  2  0  0  0  0  0  0  0  0  0
  195.5130  173.5140  134.9290 C   0  0  0  0  0  2  0  0  0  0  0  0
  196.6680  174.1330  135.7240 C   0  0  1  0  0  3  0  0  0  0  0  0
  197.0900  174.6600  139.1710 N   0  0  0  0  0  2  0  0  0  0  0  0
  196.5810  175.2760  140.3800 C   0  0  0  0  0  1  0  0  0  0  0  0
  196.2450  173.9630  138.2510 C   0  0  0  0  0  0  0  0  0  0  0  0
  194.9960  173.9400  138.4400 O   0  0  0  0  0  0  0  0  0  0  0  0
  196.4930  175.6470  135.9070 C   0  0  0  0  0  3  0  0  0  0  0  0
  195.8940  176.2070  134.7710 O   0  0  0  0  0  1  0  0  0  0  0  0
  197.7400  176.2450  136.1110 O   0  0  0  0  0  1  0  0  0  0  0  0
  1 20  2  0  0  0  0
  1 16  1  0  0  0  0
  2 23  2  0  0  0  0
  4 31  1  0  0  0  0
  5  4  1  6  0  0  0
  5 21  1  0  0  0  0
  6  8  1  0  0  0  0
  8 12  1  0  0  0  0
  9 10  1  0  0  0  0
 10 12  1  0  0  0  0
 11  3  1  1  0  0  0
 11 28  1  0  0  0  0
 13 27  1  0  0  0  0
 14  9  1  0  0  0  0
 14  6  1  0  0  0  0
 15 17  1  0  0  0  0
 16 30  2  0  0  0  0
 17 27  2  0  0  0  0
 18 35  1  6  0  0  0
 18 29  1  0  0  0  0
 19 22  1  0  0  0  0
 20 32  1  0  0  0  0
 21  2  1  0  0  0  0
 22  9  2  0  0  0  0
 23 25  2  0  0  0  0
 24 18  1  0  0  0  0
 24 20  1  0  0  0  0
 25 11  1  0  0  0  0
 25  3  1  0  0  0  0
 26 13  2  0  0  0  0
 27  1  1  0  0  0  0
 28 14  2  0  0  0  0
 29  7  1  0  0  0  0
 30 19  1  0  0  0  0
 30 28  1  0  0  0  0
 32  7  1  0  0  0  0
 32 19  2  0  0  0  0
 33 31  1  0  0  0  0
 33 15  1  0  0  0  0
 34 26  1  0  0  0  0
 34 15  2  0  0  0  0
 35 37  1  0  0  0  0
 36 35  2  0  0  0  0
 38 39  1  0  0  0  0
 39 41  1  1  0  0  0
 39 40  1  0  0  0  0
 40 38  1  6  0  0  0
 40  5  1  0  0  0  0
 43 41  1  1  0  0  0
 43 45  1  0  0  0  0
 45 46  1  0  0  0  0
 45 44  2  0  0  0  0
 46 42  1  1  0  0  0
 46 51  1  0  0  0  0
 47 43  1  0  0  0  0
 47 48  1  0  0  0  0
 48 53  1  1  0  0  0
 48 46  1  0  0  0  0
 49 50  1  0  0  0  0
 51 52  2  0  0  0  0
 51 49  1  0  0  0  0
 53 55  1  0  0  0  0
 54 53  1  0  0  0  0
M  END
>  <MODEL>
2

>  <REMARK>
 VINA RESULT:      -9.0      4.800     10.177
  Name = 
  6 active torsions:
  status: ('A' for Active; 'I' for Inactive)
    1  A    between atoms: C_1  and  C_53
    2  A    between atoms: C_6  and  C_20
    3  A    between atoms: C_8  and  C_43
    4  A    between atoms: C_10  and  C_32
    5  A    between atoms: C_20  and  C_42
    6  A    between atoms: C_29  and  C_38
                            x       y       z     vdW  Elec       q    Type
                         _______ _______ _______ _____ _____    ______ ____

>  <TORSDO>
F 6

$$$$
=
 OpenBabel10262420323D

 55 63  0  0  1  0  0  0  0  0999 V2000
  186.6260  178.2750  140.2240 C   0  0  0  0  0  0  0  0  0  0  0  0
  186.5410  175.5050  136.6630 C   0  0  0  0  0  3  0  0  0  0  0  0
  190.4340  176.3880  136.8620 C   0  0  0  0  0  2  0  0  0  0  0  0
  183.7920  175.9740  134.7380 C   0  0  0  0  0  2  0  0  0  0  0  0
  184.6160  174.7990  135.2930 C   0  0  2  0  0  3  0  0  0  0  0  0
  192.5990  177.2100  138.7310 C   0  0  0  0  0  2  0  0  0  0  0  0
  188.2670  177.8960  143.6820 C   0  0  0  0  0  2  0  0  0  0  0  0
  193.7930  176.5410  139.4040 C   0  0  0  0  0  2  0  0  0  0  0  0
  191.5240  177.2270  141.0210 C   0  0  0  0  0  0  0  0  0  0  0  0
  192.8390  176.8970  141.6760 C   0  0  0  0  0  2  0  0  0  0  0  0
  189.9090  177.5380  137.5380 C   0  0  1  0  0  3  0  0  0  0  0  0
  194.0250  177.1920  140.7620 C   0  0  0  0  0  2  0  0  0  0  0  0
  184.5480  179.6630  139.9650 C   0  0  0  0  0  3  0  0  0  0  0  0
  191.3720  177.2560  139.6170 C   0  0  0  0  0  0  0  0  0  0  0  0
  183.6180  177.9400  137.9610 C   0  0  0  0  0  0  0  0  0  0  0  0
  187.7220  178.0190  139.3940 C   0  0  0  0  0  3  0  0  0  0  0  0
  184.8480  177.6950  138.5790 C   0  0  0  0  0  3  0  0  0  0  0  0
  185.9300  178.6550  143.9750 C   0  0  2  0  0  3  0  0  0  0  0  0
  189.1540  177.6740  141.3160 C   0  0  0  0  0  0  0  0  0  0  0  0
  186.7870  178.2220  141.6270 C   0  0  0  0  0  0  0  0  0  0  0  0
  186.1060  175.1210  135.2890 C   0  0  0  0  0  2  0  0  0  0  0  0
  190.4200  177.4120  141.8470 C   0  0  0  0  0  3  0  0  0  0  0  0
  187.7370  175.9750  136.8580 C   0  0  0  0  0  0  0  0  0  0  0  0
  185.5760  178.3490  142.5220 C   0  0  0  0  0  2  0  0  0  0  0  0
  188.9320  176.4600  137.0350 C   0  0  0  0  0  0  0  0  0  0  0  0
  183.3210  179.9140  139.3420 C   0  0  0  0  0  3  0  0  0  0  0  0
  185.3200  178.5480  139.5880 C   0  0  0  0  0  0  0  0  0  0  0  0
  190.0850  177.4620  139.0480 C   0  0  0  0  0  0  0  0  0  0  0  0
  186.9810  177.6640  144.4550 C   0  0  0  0  0  2  0  0  0  0  0  0
  188.9860  177.7140  139.9110 C   0  0  0  0  0  0  0  0  0  0  0  0
  183.9070  177.2080  135.6230 C   0  0  0  0  0  2  0  0  0  0  0  0
  188.0550  177.9010  142.1750 C   0  0  0  0  0  0  0  0  0  0  0  0
  183.1230  177.0110  136.9060 C   0  0  0  0  0  2  0  0  0  0  0  0
  182.8560  179.0530  138.3400 C   0  0  0  0  0  3  0  0  0  0  0  0
  184.6890  178.6430  144.8230 C   0  0  0  0  0  0  0  0  0  0  0  0
  184.8040  178.5720  146.1490 C   0  0  0  0  0  2  0  0  0  0  0  0
  183.3120  178.6800  144.2220 C   0  0  0  0  0  1  0  0  0  0  0  0
  185.5930  172.5170  134.5950 C   0  0  0  0  0  2  0  0  0  0  0  0
  184.5060  172.2930  135.6340 C   0  0  1  0  0  3  0  0  0  0  0  0
  184.3770  173.4280  134.6240 C   0  0  1  0  0  3  0  0  0  0  0  0
  183.6550  171.0980  135.2240 C   0  0  0  0  0  2  0  0  0  0  0  0
  179.0030  171.0890  136.7300 C   0  0  0  0  0  1  0  0  0  0  0  0
  182.5200  170.7990  136.2030 C   0  0  2  0  0  3  0  0  0  0  0  0
  180.8310  170.2700  134.5940 O   0  0  0  0  0  0  0  0  0  0  0  0
  181.1700  170.9160  135.5770 C   0  0  0  0  0  0  0  0  0  0  0  0
  180.2510  171.8490  136.2930 C   0  0  2  0  0  0  0  0  0  0  0  0
  182.5220  171.8660  137.2900 C   0  0  0  0  0  2  0  0  0  0  0  0
  181.0570  172.2290  137.5520 C   0  0  1  0  0  3  0  0  0  0  0  0
  180.7180  174.2070  135.4210 N   0  0  0  0  0  2  0  0  0  0  0  0
  180.4180  175.3720  134.6150 C   0  0  0  0  0  1  0  0  0  0  0  0
  179.9060  173.0290  135.4010 C   0  0  0  0  0  0  0  0  0  0  0  0
  178.9310  172.9540  134.6010 O   0  0  0  0  0  0  0  0  0  0  0  0
  180.9020  173.6750  138.0430 C   0  0  0  0  0  3  0  0  0  0  0  0
  182.1560  174.2170  138.3590 O   0  0  0  0  0  1  0  0  0  0  0  0
  180.0890  173.7030  139.1800 O   0  0  0  0  0  1  0  0  0  0  0  0
  1 20  1  0  0  0  0
  2 23  2  0  0  0  0
  3 25  1  0  0  0  0
  4 31  1  0  0  0  0
  5  4  1  6  0  0  0
  6  8  1  0  0  0  0
  6 14  1  0  0  0  0
  7 29  1  0  0  0  0
  8 12  1  0  0  0  0
  9 10  1  0  0  0  0
  9 22  1  0  0  0  0
 11  3  1  6  0  0  0
 11 28  1  0  0  0  0
 12 10  1  0  0  0  0
 14  9  2  0  0  0  0
 15 34  2  0  0  0  0
 15 17  1  0  0  0  0
 16 30  1  0  0  0  0
 16  1  2  0  0  0  0
 17 27  2  0  0  0  0
 18 29  1  0  0  0  0
 18 35  1  1  0  0  0
 19 22  2  0  0  0  0
 19 32  1  0  0  0  0
 20 32  2  0  0  0  0
 20 24  1  0  0  0  0
 21  5  1  0  0  0  0
 21  2  1  0  0  0  0
 23 25  2  0  0  0  0
 24 18  1  0  0  0  0
 25 11  1  0  0  0  0
 26 13  2  0  0  0  0
 27 13  1  0  0  0  0
 27  1  1  0  0  0  0
 28 14  1  0  0  0  0
 28 30  2  0  0  0  0
 30 19  1  0  0  0  0
 31 33  1  0  0  0  0
 32  7  1  0  0  0  0
 33 15  1  0  0  0  0
 34 26  1  0  0  0  0
 35 36  2  0  0  0  0
 37 35  1  0  0  0  0
 38 39  1  0  0  0  0
 39 41  1  6  0  0  0
 40 38  1  6  0  0  0
 40  5  1  0  0  0  0
 40 39  1  0  0  0  0
 43 41  1  6  0  0  0
 43 47  1  0  0  0  0
 44 45  2  0  0  0  0
 45 43  1  0  0  0  0
 45 46  1  0  0  0  0
 46 42  1  1  0  0  0
 46 48  1  0  0  0  0
 47 48  1  0  0  0  0
 48 53  1  6  0  0  0
 50 49  1  0  0  0  0
 51 49  1  0  0  0  0
 51 46  1  0  0  0  0
 52 51  2  0  0  0  0
 53 54  1  0  0  0  0
 53 55  1  0  0  0  0
M  END
>  <MODEL>
3

>  <REMARK>
 VINA RESULT:      -8.3      2.038      4.442
  Name = 
  6 active torsions:
  status: ('A' for Active; 'I' for Inactive)
    1  A    between atoms: C_1  and  C_53
    2  A    between atoms: C_6  and  C_20
    3  A    between atoms: C_8  and  C_43
    4  A    between atoms: C_10  and  C_32
    5  A    between atoms: C_20  and  C_42
    6  A    between atoms: C_29  and  C_38
                            x       y       z     vdW  Elec       q    Type
                         _______ _______ _______ _____ _____    ______ ____

>  <TORSDO>
F 6

$$$$
=
 OpenBabel10262420323D

 55 63  0  0  1  0  0  0  0  0999 V2000
  185.7610  178.7210  141.7500 C   0  0  0  0  0  0  0  0  0  0  0  0
  188.6040  176.1660  139.3510 C   0  0  0  0  0  3  0  0  0  0  0  0
  190.8980  177.1530  142.4710 C   0  0  0  0  0  2  0  0  0  0  0  0
  188.2740  176.6660  136.0160 C   0  0  0  0  0  2  0  0  0  0  0  0
  188.4560  175.4850  136.9860 C   0  0  2  0  0  3  0  0  0  0  0  0
  190.8120  177.9270  145.3430 C   0  0  0  0  0  2  0  0  0  0  0  0
  184.2030  178.1870  145.2260 C   0  0  0  0  0  2  0  0  0  0  0  0
  191.1090  177.2560  146.6790 C   0  0  0  0  0  2  0  0  0  0  0  0
  188.3720  177.7760  145.9950 C   0  0  0  0  0  0  0  0  0  0  0  0
  188.7390  177.4480  147.4170 C   0  0  0  0  0  2  0  0  0  0  0  0
  189.9700  178.2450  142.5210 C   0  0  1  0  0  3  0  0  0  0  0  0
  190.1800  177.8320  147.7410 C   0  0  0  0  0  2  0  0  0  0  0  0
  184.5330  180.0580  140.0150 C   0  0  0  0  0  3  0  0  0  0  0  0
  189.3430  177.8840  144.9750 C   0  0  0  0  0  0  0  0  0  0  0  0
  185.5750  178.4300  137.9870 C   0  0  0  0  0  0  0  0  0  0  0  0
  187.1160  178.5480  142.0510 C   0  0  0  0  0  3  0  0  0  0  0  0
  185.9100  178.1860  139.3220 C   0  0  0  0  0  3  0  0  0  0  0  0
  182.4270  178.8560  143.6380 C   0  0  2  0  0  3  0  0  0  0  0  0
  186.5930  178.1330  144.3780 C   0  0  0  0  0  0  0  0  0  0  0  0
  184.7980  178.5900  142.7760 C   0  0  0  0  0  0  0  0  0  0  0  0
  189.3970  175.8520  138.1280 C   0  0  0  0  0  2  0  0  0  0  0  0
  187.0200  177.8780  145.6850 C   0  0  0  0  0  3  0  0  0  0  0  0
  189.1940  176.6600  140.3990 C   0  0  0  0  0  0  0  0  0  0  0  0
  183.3280  178.6270  142.4270 C   0  0  0  0  0  2  0  0  0  0  0  0
  189.7960  177.1690  141.4340 C   0  0  0  0  0  0  0  0  0  0  0  0
  184.2020  180.3090  138.6780 C   0  0  0  0  0  3  0  0  0  0  0  0
  185.3880  178.9920  140.3460 C   0  0  0  0  0  0  0  0  0  0  0  0
  188.9370  178.0840  143.6280 C   0  0  0  0  0  0  0  0  0  0  0  0
  182.8010  177.8710  144.7370 C   0  0  0  0  0  2  0  0  0  0  0  0
  187.5550  178.2510  143.3460 C   0  0  0  0  0  0  0  0  0  0  0  0
  187.5920  177.8480  136.6920 C   0  0  0  0  0  2  0  0  0  0  0  0
  185.2160  178.2750  144.0940 C   0  0  0  0  0  0  0  0  0  0  0  0
  186.1220  177.5510  136.9150 C   0  0  0  0  0  2  0  0  0  0  0  0
  184.7230  179.4950  137.6650 C   0  0  0  0  0  3  0  0  0  0  0  0
  180.9820  178.7560  143.2340 C   0  0  0  0  0  0  0  0  0  0  0  0
  180.0520  178.5860  144.1730 C   0  0  0  0  0  2  0  0  0  0  0  0
  180.5510  178.8140  141.7960 C   0  0  0  0  0  1  0  0  0  0  0  0
  188.9360  174.1510  134.8310 C   0  0  0  0  0  2  0  0  0  0  0  0
  190.2290  174.3060  135.6160 C   0  0  1  0  0  3  0  0  0  0  0  0
  188.9020  174.1500  136.3510 C   0  0  1  0  0  3  0  0  0  0  0  0
  190.9960  172.9900  135.5890 C   0  0  0  0  0  2  0  0  0  0  0  0
  195.8840  173.0170  135.4730 C   0  0  0  0  0  1  0  0  0  0  0  0
  192.3610  173.0990  134.9110 C   0  0  2  0  0  3  0  0  0  0  0  0
  193.5140  171.4750  136.2370 O   0  0  0  0  0  0  0  0  0  0  0  0
  193.4760  172.6080  135.7740 C   0  0  0  0  0  0  0  0  0  0  0  0
  194.5690  173.6050  135.9740 C   0  0  2  0  0  0  0  0  0  0  0  0
  192.6780  174.5720  134.6920 C   0  0  0  0  0  2  0  0  0  0  0  0
  194.1600  174.7580  135.0340 C   0  0  1  0  0  3  0  0  0  0  0  0
  195.9280  174.1590  138.0680 N   0  0  0  0  0  2  0  0  0  0  0  0
  196.0670  174.5050  139.4670 C   0  0  0  0  0  1  0  0  0  0  0  0
  194.6530  174.0020  137.4380 C   0  0  0  0  0  0  0  0  0  0  0  0
  193.5980  174.2460  138.0890 O   0  0  0  0  0  0  0  0  0  0  0  0
  194.4600  176.1780  135.5360 C   0  0  0  0  0  3  0  0  0  0  0  0
  193.8350  177.1250  134.7140 O   0  0  0  0  0  1  0  0  0  0  0  0
  195.8400  176.4000  135.5260 O   0  0  0  0  0  1  0  0  0  0  0  0
  1 16  2  0  0  0  0
  1 20  1  0  0  0  0
  2 23  2  0  0  0  0
  4 31  1  0  0  0  0
  5  4  1  6  0  0  0
  5 21  1  0  0  0  0
  6  8  1  0  0  0  0
  8 12  1  0  0  0  0
  9 10  1  0  0  0  0
 10 12  1  0  0  0  0
 11  3  1  1  0  0  0
 11 28  1  0  0  0  0
 13 27  1  0  0  0  0
 14  6  1  0  0  0  0
 14  9  2  0  0  0  0
 15 17  1  0  0  0  0
 16 30  1  0  0  0  0
 17 27  2  0  0  0  0
 18 35  1  6  0  0  0
 18 29  1  0  0  0  0
 19 22  2  0  0  0  0
 20 32  2  0  0  0  0
 21  2  1  0  0  0  0
 22  9  1  0  0  0  0
 23 25  2  0  0  0  0
 24 20  1  0  0  0  0
 24 18  1  0  0  0  0
 25  3  1  0  0  0  0
 25 11  1  0  0  0  0
 26 13  2  0  0  0  0
 27  1  1  0  0  0  0
 28 14  1  0  0  0  0
 29  7  1  0  0  0  0
 30 28  2  0  0  0  0
 30 19  1  0  0  0  0
 31 33  1  0  0  0  0
 32 19  1  0  0  0  0
 32  7  1  0  0  0  0
 33 15  1  0  0  0  0
 34 15  2  0  0  0  0
 34 26  1  0  0  0  0
 35 36  2  0  0  0  0
 37 35  1  0  0  0  0
 38 39  1  0  0  0  0
 39 41  1  1  0  0  0
 39 40  1  0  0  0  0
 40 38  1  6  0  0  0
 40  5  1  0  0  0  0
 43 41  1  1  0  0  0
 43 45  1  0  0  0  0
 45 46  1  0  0  0  0
 45 44  2  0  0  0  0
 46 42  1  6  0  0  0
 46 51  1  0  0  0  0
 47 43  1  0  0  0  0
 47 48  1  0  0  0  0
 48 53  1  1  0  0  0
 48 46  1  0  0  0  0
 49 50  1  0  0  0  0
 51 49  1  0  0  0  0
 51 52  2  0  0  0  0
 54 53  1  0  0  0  0
 55 53  1  0  0  0  0
M  END
>  <MODEL>
4

>  <REMARK>
 VINA RESULT:      -7.3      4.479      8.610
  Name = 
  6 active torsions:
  status: ('A' for Active; 'I' for Inactive)
    1  A    between atoms: C_1  and  C_53
    2  A    between atoms: C_6  and  C_20
    3  A    between atoms: C_8  and  C_43
    4  A    between atoms: C_10  and  C_32
    5  A    between atoms: C_20  and  C_42
    6  A    between atoms: C_29  and  C_38
                            x       y       z     vdW  Elec       q    Type
                         _______ _______ _______ _____ _____    ______ ____

>  <TORSDO>
F 6

$$$$
