=
 OpenBabel10262421093D

 32 36  0  0  1  0  0  0  0  0999 V2000
  186.3830  177.4780  144.3830 C   0  0  1  0  0  3  0  0  0  0  0  0
  186.2430  178.2040  141.9900 C   0  0  1  0  0  3  0  0  0  0  0  0
  185.9870  177.8030  145.8370 C   0  0  0  0  0  2  0  0  0  0  0  0
  185.7270  178.4370  143.4020 C   0  0  1  0  0  3  0  0  0  0  0  0
  185.6200  179.2380  141.0500 C   0  0  0  0  0  2  0  0  0  0  0  0
  187.7800  178.2910  141.9630 C   0  0  1  0  0  3  0  0  0  0  0  0
  184.2110  178.2900  143.4680 C   0  0  2  0  0  3  0  0  0  0  0  0
  183.5650  179.3330  142.5580 C   0  0  0  0  0  2  0  0  0  0  0  0
  183.6760  178.3830  144.9080 C   0  0  0  0  0  2  0  0  0  0  0  0
  188.3730  178.3960  143.2520 O   0  0  0  0  0  0  0  0  0  0  0  0
  187.8960  177.3540  144.0840 C   0  0  1  0  0  3  0  0  0  0  0  0
  184.0840  179.2150  141.1160 C   0  0  2  0  0  3  0  0  0  0  0  0
  184.7600  178.7260  145.9420 C   0  0  0  0  0  2  0  0  0  0  0  0
  191.1110  177.1530  146.2830 C   0  0  2  0  0  3  0  0  0  0  0  0
  190.5450  178.6750  148.8970 F   0  0  0  0  0  0  0  0  0  0  0  0
  192.3440  176.5860  146.0120 F   0  0  0  0  0  0  0  0  0  0  0  0
  188.6850  178.3220  147.4580 C   0  0  0  0  0  2  0  0  0  0  0  0
  188.7320  177.2050  145.2770 N   0  0  0  0  0  0  0  0  0  0  0  0
  190.6230  176.6510  147.6330 C   0  0  0  0  0  2  0  0  0  0  0  0
  188.0340  177.2870  146.5560 C   0  0  0  0  0  2  0  0  0  0  0  0
  190.1290  176.8370  145.1830 C   0  0  0  0  0  0  0  0  0  0  0  0
  190.5670  176.3220  144.1160 O   0  0  0  0  0  0  0  0  0  0  0  0
  189.7510  177.6850  148.3490 C   0  0  1  0  0  3  0  0  0  0  0  0
  183.5440  178.0190  140.4530 C   0  0  0  0  0  0  0  0  0  0  0  0
  183.1000  177.0390  139.9100 C   0  0  0  0  0  3  0  0  0  0  0  0
  188.3740  177.1470  141.1420 C   0  0  0  0  0  2  0  0  0  0  0  0
  190.5630  176.6720  140.0360 C   0  0  0  0  0  2  0  0  0  0  0  0
  189.5130  176.6710  137.5540 S   0  0  0  0  0  0  0  0  0  0  0  0
  188.8140  177.7460  138.7890 C   0  0  0  0  0  0  0  0  0  0  0  0
  187.9830  178.5930  138.5030 O   0  0  0  0  0  0  0  0  0  0  0  0
  191.0080  176.6250  138.5820 C   0  0  0  0  0  2  0  0  0  0  0  0
  189.4080  177.6580  140.1490 C   0  0  1  0  0  3  0  0  0  0  0  0
  1  3  1  1  0  0  0
  2  5  1  6  0  0  0
  2  4  1  0  0  0  0
  3 13  1  0  0  0  0
  4  7  1  0  0  0  0
  4  1  1  0  0  0  0
  5 12  1  0  0  0  0
  6  2  1  0  0  0  0
  6 10  1  0  0  0  0
  7  9  1  0  0  0  0
  8  7  1  0  0  0  0
  9 13  1  0  0  0  0
 10 11  1  0  0  0  0
 11  1  1  0  0  0  0
 11 18  1  0  0  0  0
 12  8  1  0  0  0  0
 14 19  1  0  0  0  0
 16 14  1  0  0  0  0
 17 23  1  0  0  0  0
 18 20  1  0  0  0  0
 19 23  1  0  0  0  0
 20 17  1  0  0  0  0
 21 18  1  0  0  0  0
 21 14  1  0  0  0  0
 22 21  2  0  0  0  0
 23 15  1  0  0  0  0
 24 12  1  0  0  0  0
 25 24  3  0  0  0  0
 26  6  1  0  0  0  0
 27 32  1  0  0  0  0
 28 31  1  0  0  0  0
 28 29  1  0  0  0  0
 29 32  1  0  0  0  0
 30 29  2  0  0  0  0
 31 27  1  0  0  0  0
 32 26  1  0  0  0  0
M  END
>  <MODEL>
1

>  <REMARK>
 VINA RESULT:      -9.3      0.000      0.000
  Name = 
  4 active torsions:
  status: ('A' for Active; 'I' for Inactive)
    1  A    between atoms: C_10  and  C_28
    2  A    between atoms: C_13  and  C_29
    3  A    between atoms: N_16  and  C_27
    4  A    between atoms: C_28  and  C_32
                            x       y       z     vdW  Elec       q    Type
                         _______ _______ _______ _____ _____    ______ ____

>  <TORSDO>
F 4

$$$$
=
 OpenBabel10262421093D

 32 36  0  0  1  0  0  0  0  0999 V2000
  186.0520  178.7910  144.2680 C   0  0  1  0  0  3  0  0  0  0  0  0
  188.0870  177.8110  143.1860 C   0  0  1  0  0  3  0  0  0  0  0  0
  185.0570  178.6820  145.4400 C   0  0  0  0  0  2  0  0  0  0  0  0
  187.1960  177.8010  144.4190 C   0  0  1  0  0  3  0  0  0  0  0  0
  189.1770  176.7490  143.3440 C   0  0  0  0  0  2  0  0  0  0  0  0
  187.2480  177.5550  141.9200 C   0  0  1  0  0  3  0  0  0  0  0  0
  187.9940  178.1190  145.6790 C   0  0  2  0  0  3  0  0  0  0  0  0
  189.0710  177.0540  145.8740 C   0  0  0  0  0  2  0  0  0  0  0  0
  187.0960  178.2530  146.9220 C   0  0  0  0  0  2  0  0  0  0  0  0
  185.8450  177.5360  142.1550 O   0  0  0  0  0  0  0  0  0  0  0  0
  185.4590  178.7140  142.8410 C   0  0  1  0  0  3  0  0  0  0  0  0
  189.9810  176.9460  144.6400 C   0  0  2  0  0  3  0  0  0  0  0  0
  185.6220  177.9160  146.6500 C   0  0  0  0  0  2  0  0  0  0  0  0
  181.7940  178.4570  141.5350 C   0  0  2  0  0  3  0  0  0  0  0  0
  179.9690  178.0070  143.9720 F   0  0  0  0  0  0  0  0  0  0  0  0
  181.3020  178.4860  140.2410 F   0  0  0  0  0  0  0  0  0  0  0  0
  182.2410  178.5320  144.4380 C   0  0  0  0  0  2  0  0  0  0  0  0
  184.0090  178.9090  142.7830 N   0  0  0  0  0  0  0  0  0  0  0  0
  181.0130  179.4500  142.3820 C   0  0  0  0  0  2  0  0  0  0  0  0
  183.3900  179.4250  144.0000 C   0  0  0  0  0  2  0  0  0  0  0  0
  183.2720  178.7550  141.5470 C   0  0  0  0  0  0  0  0  0  0  0  0
  183.8900  178.7750  140.4470 O   0  0  0  0  0  0  0  0  0  0  0  0
  180.9150  179.0060  143.8430 C   0  0  1  0  0  3  0  0  0  0  0  0
  190.8750  178.1080  144.5350 C   0  0  0  0  0  0  0  0  0  0  0  0
  191.6070  179.0620  144.4470 C   0  0  0  0  0  3  0  0  0  0  0  0
  187.6380  178.5240  140.8050 C   0  0  0  0  0  2  0  0  0  0  0  0
  186.7810  178.1490  138.4890 C   0  0  0  0  0  2  0  0  0  0  0  0
  189.0230  179.0770  137.3170 S   0  0  0  0  0  0  0  0  0  0  0  0
  189.1490  178.2300  138.8770 C   0  0  0  0  0  0  0  0  0  0  0  0
  190.2310  177.9200  139.3490 O   0  0  0  0  0  0  0  0  0  0  0  0
  187.4190  178.2530  137.1110 C   0  0  0  0  0  2  0  0  0  0  0  0
  187.8700  177.7900  139.4920 C   0  0  1  0  0  3  0  0  0  0  0  0
  1  4  1  0  0  0  0
  1  3  1  1  0  0  0
  2  5  1  1  0  0  0
  2  4  1  0  0  0  0
  3 13  1  0  0  0  0
  4  7  1  0  0  0  0
  5 12  1  0  0  0  0
  6 10  1  0  0  0  0
  6  2  1  0  0  0  0
  7  8  1  0  0  0  0
  7  9  1  0  0  0  0
 10 11  1  0  0  0  0
 11  1  1  0  0  0  0
 12  8  1  0  0  0  0
 13  9  1  0  0  0  0
 14 21  1  0  0  0  0
 14 19  1  0  0  0  0
 16 14  1  0  0  0  0
 18 11  1  0  0  0  0
 18 20  1  0  0  0  0
 19 23  1  0  0  0  0
 20 17  1  0  0  0  0
 21 18  1  0  0  0  0
 22 21  2  0  0  0  0
 23 15  1  0  0  0  0
 23 17  1  0  0  0  0
 24 12  1  0  0  0  0
 25 24  3  0  0  0  0
 26  6  1  0  0  0  0
 27 32  1  0  0  0  0
 28 29  1  0  0  0  0
 29 30  2  0  0  0  0
 29 32  1  0  0  0  0
 31 28  1  0  0  0  0
 31 27  1  0  0  0  0
 32 26  1  0  0  0  0
M  END
>  <MODEL>
2

>  <REMARK>
 VINA RESULT:      -9.1      3.680      6.349
  Name = 
  4 active torsions:
  status: ('A' for Active; 'I' for Inactive)
    1  A    between atoms: C_10  and  C_28
    2  A    between atoms: C_13  and  C_29
    3  A    between atoms: N_16  and  C_27
    4  A    between atoms: C_28  and  C_32
                            x       y       z     vdW  Elec       q    Type
                         _______ _______ _______ _____ _____    ______ ____

>  <TORSDO>
F 4

$$$$
=
 OpenBabel10262421093D

 32 36  0  0  1  0  0  0  0  0999 V2000
  183.9920  178.0660  142.4600 C   0  0  1  0  0  3  0  0  0  0  0  0
  184.5760  178.8190  140.1440 C   0  0  1  0  0  3  0  0  0  0  0  0
  183.1170  178.3300  143.7010 C   0  0  0  0  0  2  0  0  0  0  0  0
  183.6100  178.9820  141.3080 C   0  0  1  0  0  3  0  0  0  0  0  0
  184.2060  179.8120  139.0400 C   0  0  0  0  0  2  0  0  0  0  0  0
  186.0250  179.0400  140.6190 C   0  0  1  0  0  3  0  0  0  0  0  0
  182.1750  178.7020  140.8770 C   0  0  2  0  0  3  0  0  0  0  0  0
  181.7710  179.7010  139.7940 C   0  0  0  0  0  2  0  0  0  0  0  0
  181.1930  178.7240  142.0620 C   0  0  0  0  0  2  0  0  0  0  0  0
  186.1530  179.1740  142.0290 O   0  0  0  0  0  0  0  0  0  0  0  0
  185.5240  178.0800  142.6730 C   0  0  1  0  0  3  0  0  0  0  0  0
  182.7400  179.6540  138.6010 C   0  0  2  0  0  3  0  0  0  0  0  0
  181.8460  179.1410  143.3890 C   0  0  0  0  0  2  0  0  0  0  0  0
  187.8500  177.5980  145.7660 C   0  0  2  0  0  3  0  0  0  0  0  0
  187.0350  179.6880  147.8740 F   0  0  0  0  0  0  0  0  0  0  0  0
  188.9090  176.7290  145.9610 F   0  0  0  0  0  0  0  0  0  0  0  0
  185.6070  179.4850  145.9830 C   0  0  0  0  0  2  0  0  0  0  0  0
  185.9360  177.9830  144.0750 N   0  0  0  0  0  0  0  0  0  0  0  0
  186.8990  177.4910  146.9490 C   0  0  0  0  0  2  0  0  0  0  0  0
  184.9680  178.4660  145.0550 C   0  0  0  0  0  2  0  0  0  0  0  0
  187.1530  177.3010  144.4620 C   0  0  0  0  0  0  0  0  0  0  0  0
  187.7050  176.5050  143.6540 O   0  0  0  0  0  0  0  0  0  0  0  0
  186.1810  178.8120  147.2300 C   0  0  1  0  0  3  0  0  0  0  0  0
  182.5540  178.4280  137.8130 C   0  0  0  0  0  0  0  0  0  0  0  0
  182.4010  177.4200  137.1680 C   0  0  0  0  0  3  0  0  0  0  0  0
  186.9520  177.9670  140.0500 C   0  0  0  0  0  2  0  0  0  0  0  0
  189.2380  177.3960  140.8780 C   0  0  0  0  0  2  0  0  0  0  0  0
  190.3040  177.2970  138.4050 S   0  0  0  0  0  0  0  0  0  0  0  0
  188.9830  178.4430  138.7330 C   0  0  0  0  0  0  0  0  0  0  0  0
  188.6560  179.2920  137.9180 O   0  0  0  0  0  0  0  0  0  0  0  0
  190.5930  177.2710  140.1970 C   0  0  0  0  0  2  0  0  0  0  0  0
  188.4070  178.4090  140.1030 C   0  0  1  0  0  3  0  0  0  0  0  0
  1 11  1  0  0  0  0
  1  3  1  1  0  0  0
  2  5  1  6  0  0  0
  2  6  1  0  0  0  0
  2  4  1  0  0  0  0
  4  1  1  0  0  0  0
  6 10  1  0  0  0  0
  7  4  1  0  0  0  0
  7  9  1  0  0  0  0
  8  7  1  0  0  0  0
  9 13  1  0  0  0  0
 10 11  1  0  0  0  0
 11 18  1  0  0  0  0
 12  5  1  0  0  0  0
 12  8  1  0  0  0  0
 13  3  1  0  0  0  0
 14 16  1  0  0  0  0
 14 19  1  0  0  0  0
 17 23  1  0  0  0  0
 18 21  1  0  0  0  0
 18 20  1  0  0  0  0
 19 23  1  0  0  0  0
 20 17  1  0  0  0  0
 21 14  1  0  0  0  0
 22 21  2  0  0  0  0
 23 15  1  0  0  0  0
 24 12  1  0  0  0  0
 25 24  3  0  0  0  0
 26 32  1  0  0  0  0
 26  6  1  0  0  0  0
 28 29  1  0  0  0  0
 28 31  1  0  0  0  0
 29 32  1  0  0  0  0
 30 29  2  0  0  0  0
 31 27  1  0  0  0  0
 32 27  1  0  0  0  0
M  END
>  <MODEL>
3

>  <REMARK>
 VINA RESULT:      -8.8      1.960      2.950
  Name = 
  4 active torsions:
  status: ('A' for Active; 'I' for Inactive)
    1  A    between atoms: C_10  and  C_28
    2  A    between atoms: C_13  and  C_29
    3  A    between atoms: N_16  and  C_27
    4  A    between atoms: C_28  and  C_32
                            x       y       z     vdW  Elec       q    Type
                         _______ _______ _______ _____ _____    ______ ____

>  <TORSDO>
F 4

$$$$
=
 OpenBabel10262421093D

 32 36  0  0  1  0  0  0  0  0999 V2000
  186.7410  177.6530  143.0320 C   0  0  1  0  0  3  0  0  0  0  0  0
  185.7550  178.3440  140.8360 C   0  0  1  0  0  3  0  0  0  0  0  0
  186.8040  177.9410  144.5450 C   0  0  0  0  0  2  0  0  0  0  0  0
  185.7030  178.5270  142.3450 C   0  0  1  0  0  3  0  0  0  0  0  0
  184.7540  179.2960  140.1780 C   0  0  0  0  0  2  0  0  0  0  0  0
  187.1830  178.6030  140.3170 C   0  0  1  0  0  3  0  0  0  0  0  0
  184.3150  178.2110  142.8920 C   0  0  2  0  0  3  0  0  0  0  0  0
  183.3000  179.1690  142.2710 C   0  0  0  0  0  2  0  0  0  0  0  0
  184.2680  178.2530  144.4290 C   0  0  0  0  0  2  0  0  0  0  0  0
  188.1460  178.7830  141.3480 O   0  0  0  0  0  0  0  0  0  0  0  0
  188.0800  177.6990  142.2580 C   0  0  1  0  0  3  0  0  0  0  0  0
  183.3330  179.1010  140.7360 C   0  0  2  0  0  3  0  0  0  0  0  0
  185.5850  178.7220  145.0680 C   0  0  0  0  0  2  0  0  0  0  0  0
  191.5210  176.5120  143.6560 C   0  0  2  0  0  3  0  0  0  0  0  0
  193.1600  179.0240  144.3440 F   0  0  0  0  0  0  0  0  0  0  0  0
  192.0340  175.2340  143.8000 F   0  0  0  0  0  0  0  0  0  0  0  0
  190.8800  179.3770  143.7670 C   0  0  0  0  0  2  0  0  0  0  0  0
  189.2680  177.6520  143.1120 N   0  0  0  0  0  0  0  0  0  0  0  0
  191.6800  177.2590  144.9720 C   0  0  0  0  0  2  0  0  0  0  0  0
  189.4820  178.8160  143.9650 C   0  0  0  0  0  2  0  0  0  0  0  0
  190.0790  176.4580  143.2170 C   0  0  0  0  0  0  0  0  0  0  0  0
  189.6060  175.3490  142.8440 O   0  0  0  0  0  0  0  0  0  0  0  0
  191.8680  178.7630  144.7580 C   0  0  1  0  0  3  0  0  0  0  0  0
  182.7410  177.8480  140.2460 C   0  0  0  0  0  0  0  0  0  0  0  0
  182.2570  176.8200  139.8430 C   0  0  0  0  0  3  0  0  0  0  0  0
  187.5980  177.5290  139.3140 C   0  0  0  0  0  2  0  0  0  0  0  0
  189.7430  176.5450  138.4920 C   0  0  0  0  0  2  0  0  0  0  0  0
  189.4310  177.5010  135.9920 S   0  0  0  0  0  0  0  0  0  0  0  0
  188.8010  178.4440  137.3640 C   0  0  0  0  0  0  0  0  0  0  0  0
  188.3770  179.5800  137.2180 O   0  0  0  0  0  0  0  0  0  0  0  0
  190.5160  176.6720  137.1870 C   0  0  0  0  0  2  0  0  0  0  0  0
  188.9620  177.8340  138.7090 C   0  0  1  0  0  3  0  0  0  0  0  0
  1  3  1  1  0  0  0
  2  5  1  6  0  0  0
  2  4  1  0  0  0  0
  3 13  1  0  0  0  0
  4  7  1  0  0  0  0
  4  1  1  0  0  0  0
  5 12  1  0  0  0  0
  6  2  1  0  0  0  0
  6 10  1  0  0  0  0
  7  9  1  0  0  0  0
  8  7  1  0  0  0  0
  9 13  1  0  0  0  0
 10 11  1  0  0  0  0
 11  1  1  0  0  0  0
 11 18  1  0  0  0  0
 12  8  1  0  0  0  0
 14 16  1  0  0  0  0
 14 19  1  0  0  0  0
 15 23  1  0  0  0  0
 17 20  1  0  0  0  0
 17 23  1  0  0  0  0
 18 21  1  0  0  0  0
 18 20  1  0  0  0  0
 21 14  1  0  0  0  0
 22 21  2  0  0  0  0
 23 19  1  0  0  0  0
 24 12  1  0  0  0  0
 25 24  3  0  0  0  0
 26  6  1  0  0  0  0
 27 32  1  0  0  0  0
 28 31  1  0  0  0  0
 28 29  1  0  0  0  0
 29 32  1  0  0  0  0
 30 29  2  0  0  0  0
 31 27  1  0  0  0  0
 32 26  1  0  0  0  0
M  END
>  <MODEL>
4

>  <REMARK>
 VINA RESULT:      -8.7      1.935      2.211
  Name = 
  4 active torsions:
  status: ('A' for Active; 'I' for Inactive)
    1  A    between atoms: C_10  and  C_28
    2  A    between atoms: C_13  and  C_29
    3  A    between atoms: N_16  and  C_27
    4  A    between atoms: C_28  and  C_32
                            x       y       z     vdW  Elec       q    Type
                         _______ _______ _______ _____ _____    ______ ____

>  <TORSDO>
F 4

$$$$
=
 OpenBabel10262421093D

 32 36  0  0  1  0  0  0  0  0999 V2000
  187.2300  178.5990  142.2990 C   0  0  1  0  0  3  0  0  0  0  0  0
  187.3060  177.6700  144.6240 C   0  0  1  0  0  3  0  0  0  0  0  0
  186.3680  178.8000  141.0380 C   0  0  0  0  0  2  0  0  0  0  0  0
  186.4140  178.0050  143.4380 C   0  0  1  0  0  3  0  0  0  0  0  0
  186.4640  177.0040  145.7150 C   0  0  0  0  0  2  0  0  0  0  0  0
  188.4590  176.7500  144.1810 C   0  0  1  0  0  3  0  0  0  0  0  0
  185.3030  178.9690  143.8380 C   0  0  2  0  0  3  0  0  0  0  0  0
  184.4290  178.3140  144.9060 C   0  0  0  0  0  2  0  0  0  0  0  0
  184.4700  179.4340  142.6300 C   0  0  0  0  0  2  0  0  0  0  0  0
  188.5350  176.5600  142.7740 O   0  0  0  0  0  0  0  0  0  0  0  0
  188.5530  177.8180  142.1220 C   0  0  1  0  0  3  0  0  0  0  0  0
  185.2640  177.8780  146.1210 C   0  0  2  0  0  3  0  0  0  0  0  0
  184.8550  178.7370  141.3170 C   0  0  0  0  0  2  0  0  0  0  0  0
  190.6320  176.6140  139.0490 C   0  0  2  0  0  3  0  0  0  0  0  0
  188.6610  176.0850  136.7450 F   0  0  0  0  0  0  0  0  0  0  0  0
  191.9890  176.3760  138.9280 F   0  0  0  0  0  0  0  0  0  0  0  0
  187.7650  177.1430  138.6780 C   0  0  0  0  0  2  0  0  0  0  0  0
  188.9890  177.6860  140.7300 N   0  0  0  0  0  0  0  0  0  0  0  0
  190.1840  177.5120  137.9060 C   0  0  0  0  0  2  0  0  0  0  0  0
  188.0660  178.2020  139.7250 C   0  0  0  0  0  2  0  0  0  0  0  0
  190.3190  177.2240  140.3930 C   0  0  0  0  0  0  0  0  0  0  0  0
  191.2250  177.2410  141.2710 O   0  0  0  0  0  0  0  0  0  0  0  0
  188.7330  177.2420  137.4990 C   0  0  1  0  0  3  0  0  0  0  0  0
  185.7000  179.0380  146.9110 C   0  0  0  0  0  0  0  0  0  0  0  0
  186.0560  179.9890  147.5600 C   0  0  0  0  0  3  0  0  0  0  0  0
  189.7860  177.2180  144.7770 C   0  0  0  0  0  2  0  0  0  0  0  0
  191.7930  176.0040  145.6360 C   0  0  0  0  0  2  0  0  0  0  0  0
  191.6480  177.1280  148.0810 S   0  0  0  0  0  0  0  0  0  0  0  0
  190.1440  176.8110  147.1840 C   0  0  0  0  0  0  0  0  0  0  0  0
  189.0490  176.9400  147.7070 O   0  0  0  0  0  0  0  0  0  0  0  0
  192.4310  175.8870  147.0130 C   0  0  0  0  0  2  0  0  0  0  0  0
  190.3000  176.2380  145.8220 C   0  0  1  0  0  3  0  0  0  0  0  0
  1  3  1  6  0  0  0
  1  4  1  0  0  0  0
  2  5  1  1  0  0  0
  3 13  1  0  0  0  0
  4  7  1  0  0  0  0
  4  2  1  0  0  0  0
  5 12  1  0  0  0  0
  6  2  1  0  0  0  0
  6 26  1  0  0  0  0
  7  8  1  0  0  0  0
  8 12  1  0  0  0  0
  9  7  1  0  0  0  0
 10  6  1  0  0  0  0
 11  1  1  0  0  0  0
 11 10  1  0  0  0  0
 12 24  1  0  0  0  0
 13  9  1  0  0  0  0
 14 21  1  0  0  0  0
 15 23  1  0  0  0  0
 16 14  1  0  0  0  0
 17 20  1  0  0  0  0
 18 11  1  0  0  0  0
 19 14  1  0  0  0  0
 20 18  1  0  0  0  0
 21 18  1  0  0  0  0
 21 22  2  0  0  0  0
 23 19  1  0  0  0  0
 23 17  1  0  0  0  0
 24 25  3  0  0  0  0
 26 32  1  0  0  0  0
 27 32  1  0  0  0  0
 27 31  1  0  0  0  0
 29 30  2  0  0  0  0
 29 28  1  0  0  0  0
 31 28  1  0  0  0  0
 32 29  1  0  0  0  0
M  END
>  <MODEL>
5

>  <REMARK>
 VINA RESULT:      -8.7      3.364      6.524
  Name = 
  4 active torsions:
  status: ('A' for Active; 'I' for Inactive)
    1  A    between atoms: C_10  and  C_28
    2  A    between atoms: C_13  and  C_29
    3  A    between atoms: N_16  and  C_27
    4  A    between atoms: C_28  and  C_32
                            x       y       z     vdW  Elec       q    Type
                         _______ _______ _______ _____ _____    ______ ____

>  <TORSDO>
F 4

$$$$
=
 OpenBabel10262421093D

 32 36  0  0  1  0  0  0  0  0999 V2000
  186.6750  177.5790  143.4120 C   0  0  1  0  0  3  0  0  0  0  0  0
  185.9940  178.3170  141.1170 C   0  0  1  0  0  3  0  0  0  0  0  0
  186.5600  177.8560  144.9240 C   0  0  0  0  0  2  0  0  0  0  0  0
  185.7610  178.4940  142.6100 C   0  0  1  0  0  3  0  0  0  0  0  0
  185.1150  179.3080  140.3500 C   0  0  0  0  0  2  0  0  0  0  0  0
  187.4820  178.5270  140.7820 C   0  0  1  0  0  3  0  0  0  0  0  0
  184.3060  178.2250  142.9780 C   0  0  2  0  0  3  0  0  0  0  0  0
  183.4100  179.2230  142.2460 C   0  0  0  0  0  2  0  0  0  0  0  0
  184.0710  178.2600  144.4980 C   0  0  0  0  0  2  0  0  0  0  0  0
  188.3160  178.6660  141.9260 O   0  0  0  0  0  0  0  0  0  0  0  0
  188.1000  177.5810  142.8090 C   0  0  1  0  0  3  0  0  0  0  0  0
  183.6310  179.1620  140.7260 C   0  0  2  0  0  3  0  0  0  0  0  0
  185.3130  178.6770  145.3000 C   0  0  0  0  0  2  0  0  0  0  0  0
  191.2700  178.5580  144.8600 C   0  0  2  0  0  3  0  0  0  0  0  0
  190.7300  177.8370  147.8030 F   0  0  0  0  0  0  0  0  0  0  0  0
  192.4410  179.1720  144.4540 F   0  0  0  0  0  0  0  0  0  0  0  0
  189.1270  177.0760  146.2190 C   0  0  0  0  0  2  0  0  0  0  0  0
  189.1710  177.4850  143.8030 N   0  0  0  0  0  0  0  0  0  0  0  0
  191.6180  177.3060  145.6510 C   0  0  0  0  0  2  0  0  0  0  0  0
  188.9910  176.4680  144.8340 C   0  0  0  0  0  2  0  0  0  0  0  0
  190.3980  178.2420  143.6710 C   0  0  0  0  0  0  0  0  0  0  0  0
  190.7070  178.7340  142.5510 O   0  0  0  0  0  0  0  0  0  0  0  0
  190.5680  176.9930  146.7200 C   0  0  1  0  0  3  0  0  0  0  0  0
  183.0610  177.9340  140.1550 C   0  0  0  0  0  0  0  0  0  0  0  0
  182.5930  176.9270  139.6840 C   0  0  0  0  0  3  0  0  0  0  0  0
  187.9810  177.4440  139.8270 C   0  0  0  0  0  2  0  0  0  0  0  0
  190.2570  176.5660  139.2880 C   0  0  0  0  0  2  0  0  0  0  0  0
  190.0440  177.1190  136.6590 S   0  0  0  0  0  0  0  0  0  0  0  0
  189.2360  178.1830  137.8350 C   0  0  0  0  0  0  0  0  0  0  0  0
  188.7260  179.2390  137.4970 O   0  0  0  0  0  0  0  0  0  0  0  0
  191.1080  176.5800  138.0260 C   0  0  0  0  0  2  0  0  0  0  0  0
  189.3520  177.7910  139.2640 C   0  0  1  0  0  3  0  0  0  0  0  0
  1  3  1  1  0  0  0
  2  5  1  6  0  0  0
  2  4  1  0  0  0  0
  3 13  1  0  0  0  0
  4  7  1  0  0  0  0
  4  1  1  0  0  0  0
  5 12  1  0  0  0  0
  6  2  1  0  0  0  0
  6 10  1  0  0  0  0
  7  9  1  0  0  0  0
  8  7  1  0  0  0  0
  9 13  1  0  0  0  0
 10 11  1  0  0  0  0
 11  1  1  0  0  0  0
 11 18  1  0  0  0  0
 12  8  1  0  0  0  0
 14 19  1  0  0  0  0
 16 14  1  0  0  0  0
 17 23  1  0  0  0  0
 18 20  1  0  0  0  0
 19 23  1  0  0  0  0
 20 17  1  0  0  0  0
 21 18  1  0  0  0  0
 21 14  1  0  0  0  0
 22 21  2  0  0  0  0
 23 15  1  0  0  0  0
 24 12  1  0  0  0  0
 25 24  3  0  0  0  0
 26  6  1  0  0  0  0
 28 29  1  0  0  0  0
 28 31  1  0  0  0  0
 29 32  1  0  0  0  0
 30 29  2  0  0  0  0
 31 27  1  0  0  0  0
 32 27  1  0  0  0  0
 32 26  1  0  0  0  0
M  END
>  <MODEL>
6

>  <REMARK>
 VINA RESULT:      -8.5      1.260      1.451
  Name = 
  4 active torsions:
  status: ('A' for Active; 'I' for Inactive)
    1  A    between atoms: C_10  and  C_28
    2  A    between atoms: C_13  and  C_29
    3  A    between atoms: N_16  and  C_27
    4  A    between atoms: C_28  and  C_32
                            x       y       z     vdW  Elec       q    Type
                         _______ _______ _______ _____ _____    ______ ____

>  <TORSDO>
F 4

$$$$
=
 OpenBabel10262421093D

 32 36  0  0  1  0  0  0  0  0999 V2000
  186.7220  178.6670  142.8300 C   0  0  1  0  0  3  0  0  0  0  0  0
  188.9970  177.8390  142.1880 C   0  0  1  0  0  3  0  0  0  0  0  0
  185.4880  178.4320  143.7240 C   0  0  0  0  0  2  0  0  0  0  0  0
  187.8460  177.7010  143.1730 C   0  0  1  0  0  3  0  0  0  0  0  0
  190.0700  176.7990  142.5190 C   0  0  0  0  0  2  0  0  0  0  0  0
  188.4880  177.6650  140.7450 C   0  0  1  0  0  3  0  0  0  0  0  0
  188.3130  177.9360  144.6050 C   0  0  2  0  0  3  0  0  0  0  0  0
  189.3650  176.8890  144.9690 C   0  0  0  0  0  2  0  0  0  0  0  0
  187.1450  177.9400  145.6080 C   0  0  0  0  0  2  0  0  0  0  0  0
  187.0710  177.5870  140.6400 O   0  0  0  0  0  0  0  0  0  0  0  0
  186.4810  178.6910  141.3020 C   0  0  1  0  0  3  0  0  0  0  0  0
  190.5400  176.9110  143.9790 C   0  0  2  0  0  3  0  0  0  0  0  0
  185.7920  177.5850  144.9720 C   0  0  0  0  0  2  0  0  0  0  0  0
  183.2520  178.5050  139.1240 C   0  0  2  0  0  3  0  0  0  0  0  0
  180.9340  177.6700  140.9690 F   0  0  0  0  0  0  0  0  0  0  0  0
  183.0800  178.6970  137.7640 F   0  0  0  0  0  0  0  0  0  0  0  0
  182.9950  178.1950  142.0340 C   0  0  0  0  0  2  0  0  0  0  0  0
  185.0770  178.8490  140.9190 N   0  0  0  0  0  0  0  0  0  0  0  0
  182.2320  179.3490  139.8740 C   0  0  0  0  0  2  0  0  0  0  0  0
  184.1560  179.1740  142.0040 C   0  0  0  0  0  2  0  0  0  0  0  0
  184.6640  178.8430  139.5320 C   0  0  0  0  0  0  0  0  0  0  0  0
  185.5220  179.0330  138.6260 O   0  0  0  0  0  0  0  0  0  0  0  0
  181.8200  178.7060  141.2000 C   0  0  1  0  0  3  0  0  0  0  0  0
  191.3770  178.1030  144.1740 C   0  0  0  0  0  0  0  0  0  0  0  0
  192.0630  179.0820  144.3320 C   0  0  0  0  0  3  0  0  0  0  0  0
  189.0800  178.7340  139.8280 C   0  0  0  0  0  2  0  0  0  0  0  0
  189.8350  176.6270  138.7190 C   0  0  0  0  0  2  0  0  0  0  0  0
  187.9420  176.7440  136.8050 S   0  0  0  0  0  0  0  0  0  0  0  0
  188.6130  178.2600  137.4520 C   0  0  0  0  0  0  0  0  0  0  0  0
  188.3570  179.3400  136.9440 O   0  0  0  0  0  0  0  0  0  0  0  0
  189.4420  175.9310  137.4240 C   0  0  0  0  0  2  0  0  0  0  0  0
  189.6150  178.1230  138.5410 C   0  0  1  0  0  3  0  0  0  0  0  0
  1  4  1  0  0  0  0
  1  3  1  1  0  0  0
  2  5  1  1  0  0  0
  2  4  1  0  0  0  0
  3 13  1  0  0  0  0
  4  7  1  0  0  0  0
  5 12  1  0  0  0  0
  6  2  1  0  0  0  0
  7  8  1  0  0  0  0
  7  9  1  0  0  0  0
 10  6  1  0  0  0  0
 10 11  1  0  0  0  0
 11  1  1  0  0  0  0
 12 24  1  0  0  0  0
 12  8  1  0  0  0  0
 13  9  1  0  0  0  0
 14 21  1  0  0  0  0
 14 19  1  0  0  0  0
 15 23  1  0  0  0  0
 16 14  1  0  0  0  0
 18 11  1  0  0  0  0
 18 20  1  0  0  0  0
 19 23  1  0  0  0  0
 20 17  1  0  0  0  0
 21 18  1  0  0  0  0
 22 21  2  0  0  0  0
 23 17  1  0  0  0  0
 24 25  3  0  0  0  0
 26  6  1  0  0  0  0
 28 31  1  0  0  0  0
 28 29  1  0  0  0  0
 29 32  1  0  0  0  0
 30 29  2  0  0  0  0
 31 27  1  0  0  0  0
 32 27  1  0  0  0  0
 32 26  1  0  0  0  0
M  END
>  <MODEL>
7

>  <REMARK>
 VINA RESULT:      -8.3      3.759      6.511
  Name = 
  4 active torsions:
  status: ('A' for Active; 'I' for Inactive)
    1  A    between atoms: C_10  and  C_28
    2  A    between atoms: C_13  and  C_29
    3  A    between atoms: N_16  and  C_27
    4  A    between atoms: C_28  and  C_32
                            x       y       z     vdW  Elec       q    Type
                         _______ _______ _______ _____ _____    ______ ____

>  <TORSDO>
F 4

$$$$
=
 OpenBabel10262421093D

 32 36  0  0  1  0  0  0  0  0999 V2000
  184.0100  178.0540  142.4080 C   0  0  1  0  0  3  0  0  0  0  0  0
  184.5790  178.7970  140.0850 C   0  0  1  0  0  3  0  0  0  0  0  0
  183.1430  178.3230  143.6530 C   0  0  0  0  0  2  0  0  0  0  0  0
  183.6200  178.9650  141.2540 C   0  0  1  0  0  3  0  0  0  0  0  0
  184.2010  179.7850  138.9790 C   0  0  0  0  0  2  0  0  0  0  0  0
  186.0300  179.0200  140.5490 C   0  0  1  0  0  3  0  0  0  0  0  0
  182.1820  178.6830  140.8340 C   0  0  2  0  0  3  0  0  0  0  0  0
  181.7720  179.6780  139.7490 C   0  0  0  0  0  2  0  0  0  0  0  0
  181.2090  178.7100  142.0260 C   0  0  0  0  0  2  0  0  0  0  0  0
  186.1680  179.1600  141.9580 O   0  0  0  0  0  0  0  0  0  0  0  0
  185.5440  178.0690  142.6100 C   0  0  1  0  0  3  0  0  0  0  0  0
  182.7320  179.6260  138.5500 C   0  0  2  0  0  3  0  0  0  0  0  0
  181.8700  179.1330  143.3460 C   0  0  0  0  0  2  0  0  0  0  0  0
  187.9030  177.6910  145.6920 C   0  0  2  0  0  3  0  0  0  0  0  0
  186.9630  179.6930  147.8320 F   0  0  0  0  0  0  0  0  0  0  0  0
  189.0160  176.8890  145.8720 F   0  0  0  0  0  0  0  0  0  0  0  0
  185.5460  179.4270  145.9410 C   0  0  0  0  0  2  0  0  0  0  0  0
  185.9640  177.9770  144.0100 N   0  0  0  0  0  0  0  0  0  0  0  0
  186.9650  177.5060  146.8750 C   0  0  0  0  0  2  0  0  0  0  0  0
  184.9700  178.3830  144.9990 C   0  0  0  0  0  2  0  0  0  0  0  0
  187.2240  177.3690  144.3850 C   0  0  0  0  0  0  0  0  0  0  0  0
  187.8230  176.6220  143.5640 O   0  0  0  0  0  0  0  0  0  0  0  0
  186.1640  178.7740  147.1770 C   0  0  1  0  0  3  0  0  0  0  0  0
  182.5410  178.3960  137.7690 C   0  0  0  0  0  0  0  0  0  0  0  0
  182.3820  177.3860  137.1290 C   0  0  0  0  0  3  0  0  0  0  0  0
  186.9530  177.9440  139.9790 C   0  0  0  0  0  2  0  0  0  0  0  0
  188.9920  178.4240  138.6170 C   0  0  0  0  0  2  0  0  0  0  0  0
  188.5140  176.4280  136.8710 S   0  0  0  0  0  0  0  0  0  0  0  0
  187.1370  177.2790  137.6100 C   0  0  0  0  0  0  0  0  0  0  0  0
  185.9920  177.0930  137.2300 O   0  0  0  0  0  0  0  0  0  0  0  0
  189.5140  177.8830  137.2940 C   0  0  0  0  0  2  0  0  0  0  0  0
  187.4720  178.3340  138.6020 C   0  0  1  0  0  3  0  0  0  0  0  0
  1 11  1  0  0  0  0
  1  3  1  1  0  0  0
  2  5  1  6  0  0  0
  2  6  1  0  0  0  0
  2  4  1  0  0  0  0
  4  1  1  0  0  0  0
  6 10  1  0  0  0  0
  7  4  1  0  0  0  0
  7  9  1  0  0  0  0
  8  7  1  0  0  0  0
  9 13  1  0  0  0  0
 10 11  1  0  0  0  0
 11 18  1  0  0  0  0
 12  5  1  0  0  0  0
 12  8  1  0  0  0  0
 13  3  1  0  0  0  0
 14 16  1  0  0  0  0
 14 19  1  0  0  0  0
 17 23  1  0  0  0  0
 18 21  1  0  0  0  0
 18 20  1  0  0  0  0
 19 23  1  0  0  0  0
 20 17  1  0  0  0  0
 21 14  1  0  0  0  0
 22 21  2  0  0  0  0
 23 15  1  0  0  0  0
 24 12  1  0  0  0  0
 25 24  3  0  0  0  0
 26  6  1  0  0  0  0
 28 31  1  0  0  0  0
 28 29  1  0  0  0  0
 29 32  1  0  0  0  0
 30 29  2  0  0  0  0
 31 27  1  0  0  0  0
 32 27  1  0  0  0  0
 32 26  1  0  0  0  0
M  END
>  <MODEL>
8

>  <REMARK>
 VINA RESULT:      -8.3      2.117      3.074
  Name = 
  4 active torsions:
  status: ('A' for Active; 'I' for Inactive)
    1  A    between atoms: C_10  and  C_28
    2  A    between atoms: C_13  and  C_29
    3  A    between atoms: N_16  and  C_27
    4  A    between atoms: C_28  and  C_32
                            x       y       z     vdW  Elec       q    Type
                         _______ _______ _______ _____ _____    ______ ____

>  <TORSDO>
F 4

$$$$
=
 OpenBabel10262421093D

 32 36  0  0  1  0  0  0  0  0999 V2000
  188.3840  177.2400  140.4630 C   0  0  1  0  0  3  0  0  0  0  0  0
  189.2880  177.2040  138.1270 C   0  0  1  0  0  3  0  0  0  0  0  0
  187.5600  178.0330  141.4960 C   0  0  0  0  0  2  0  0  0  0  0  0
  188.3510  177.9090  139.0970 C   0  0  1  0  0  3  0  0  0  0  0  0
  189.2860  177.9520  136.7920 C   0  0  0  0  0  2  0  0  0  0  0  0
  190.7090  177.1320  138.7160 C   0  0  1  0  0  3  0  0  0  0  0  0
  186.9230  177.9330  138.5660 C   0  0  2  0  0  3  0  0  0  0  0  0
  186.8900  178.7020  137.2460 C   0  0  0  0  0  2  0  0  0  0  0  0
  185.9290  178.5160  139.5860 C   0  0  0  0  0  2  0  0  0  0  0  0
  190.7960  177.5720  140.0650 O   0  0  0  0  0  0  0  0  0  0  0  0
  189.8390  176.8870  140.8540 C   0  0  1  0  0  3  0  0  0  0  0  0
  187.8650  178.0970  136.2220 C   0  0  2  0  0  3  0  0  0  0  0  0
  186.6040  179.0560  140.8570 C   0  0  0  0  0  2  0  0  0  0  0  0
  191.1760  178.4610  144.1620 C   0  0  2  0  0  3  0  0  0  0  0  0
  189.0390  178.0160  146.3310 F   0  0  0  0  0  0  0  0  0  0  0  0
  192.3430  179.1620  144.4100 F   0  0  0  0  0  0  0  0  0  0  0  0
  188.6910  176.8960  144.2620 C   0  0  0  0  0  2  0  0  0  0  0  0
  190.1280  177.0330  142.2820 N   0  0  0  0  0  0  0  0  0  0  0  0
  191.0340  177.3570  145.1980 C   0  0  0  0  0  2  0  0  0  0  0  0
  189.4100  176.1240  143.1700 C   0  0  0  0  0  2  0  0  0  0  0  0
  191.1760  177.9110  142.7580 C   0  0  0  0  0  0  0  0  0  0  0  0
  192.0670  178.3080  141.9570 O   0  0  0  0  0  0  0  0  0  0  0  0
  189.5680  177.0430  145.5050 C   0  0  1  0  0  3  0  0  0  0  0  0
  187.3670  176.8120  135.7110 C   0  0  0  0  0  0  0  0  0  0  0  0
  186.9580  175.7590  135.2910 C   0  0  0  0  0  3  0  0  0  0  0  0
  191.3080  175.7400  138.5180 C   0  0  0  0  0  2  0  0  0  0  0  0
  193.5990  175.2180  137.6700 C   0  0  0  0  0  2  0  0  0  0  0  0
  192.7350  173.2910  135.9960 S   0  0  0  0  0  0  0  0  0  0  0  0
  191.6870  174.6930  136.3160 C   0  0  0  0  0  0  0  0  0  0  0  0
  190.6630  174.8840  135.6800 O   0  0  0  0  0  0  0  0  0  0  0  0
  194.1190  174.3230  136.5540 C   0  0  0  0  0  2  0  0  0  0  0  0
  192.2030  175.6920  137.2880 C   0  0  1  0  0  3  0  0  0  0  0  0
  1 11  1  0  0  0  0
  1  3  1  1  0  0  0
  2  5  1  6  0  0  0
  2  6  1  0  0  0  0
  2  4  1  0  0  0  0
  4  1  1  0  0  0  0
  6 10  1  0  0  0  0
  7  4  1  0  0  0  0
  7  9  1  0  0  0  0
  8  7  1  0  0  0  0
  9 13  1  0  0  0  0
 10 11  1  0  0  0  0
 11 18  1  0  0  0  0
 12  5  1  0  0  0  0
 12  8  1  0  0  0  0
 13  3  1  0  0  0  0
 14 16  1  0  0  0  0
 14 19  1  0  0  0  0
 17 23  1  0  0  0  0
 18 21  1  0  0  0  0
 18 20  1  0  0  0  0
 19 23  1  0  0  0  0
 20 17  1  0  0  0  0
 21 14  1  0  0  0  0
 22 21  2  0  0  0  0
 23 15  1  0  0  0  0
 24 12  1  0  0  0  0
 25 24  3  0  0  0  0
 26  6  1  0  0  0  0
 28 29  1  0  0  0  0
 28 31  1  0  0  0  0
 29 32  1  0  0  0  0
 30 29  2  0  0  0  0
 31 27  1  0  0  0  0
 32 27  1  0  0  0  0
 32 26  1  0  0  0  0
M  END
>  <MODEL>
9

>  <REMARK>
 VINA RESULT:      -7.9      2.761      4.587
  Name = 
  4 active torsions:
  status: ('A' for Active; 'I' for Inactive)
    1  A    between atoms: C_10  and  C_28
    2  A    between atoms: C_13  and  C_29
    3  A    between atoms: N_16  and  C_27
    4  A    between atoms: C_28  and  C_32
                            x       y       z     vdW  Elec       q    Type
                         _______ _______ _______ _____ _____    ______ ____

>  <TORSDO>
F 4

$$$$
