=
 OpenBabel10262420433D

 28 30  0  0  1  0  0  0  0  0999 V2000
  187.9130  177.7410  145.4790 C   0  0  2  0  0  3  0  0  0  0  0  0
  183.4750  179.5580  144.1290 C   0  0  0  0  0  1  0  0  0  0  0  0
  186.1470  177.8650  142.0540 C   0  0  0  0  0  2  0  0  0  0  0  0
  185.6850  178.6170  144.7920 C   0  0  1  0  0  3  0  0  0  0  0  0
  187.3080  178.0300  143.0260 C   0  0  0  0  0  2  0  0  0  0  0  0
  186.4730  178.3690  147.1240 C   0  0  0  0  0  2  0  0  0  0  0  0
  184.5370  178.5200  143.7770 C   0  0  2  0  0  3  0  0  0  0  0  0
  185.2370  178.3350  146.2250 C   0  0  0  0  0  2  0  0  0  0  0  0
  185.0340  178.7570  142.4020 N   0  0  0  0  0  0  0  0  0  0  0  0
  187.3820  177.3680  146.7330 O   0  0  0  0  0  0  0  0  0  0  0  0
  186.8110  177.6580  144.4120 C   0  0  1  0  0  3  0  0  0  0  0  0
  189.0680  176.8100  145.1300 C   0  0  0  0  0  2  0  0  0  0  0  0
  190.3890  177.5070  145.2750 C   0  0  0  0  0  0  0  0  0  0  0  0
  190.7610  178.4130  144.3660 C   0  0  0  0  0  3  0  0  0  0  0  0
  191.9380  179.0860  144.4760 F   0  0  0  0  0  0  0  0  0  0  0  0
  190.4760  177.2120  147.6280 O   0  0  0  0  0  1  0  0  0  0  0  0
  191.2550  177.2340  146.4710 C   0  0  1  0  0  3  0  0  0  0  0  0
  192.6880  175.6230  147.5030 O   0  0  0  0  0  1  0  0  0  0  0  0
  191.9930  175.9110  146.3280 C   0  0  0  0  0  2  0  0  0  0  0  0
  183.9750  178.5740  141.3940 C   0  0  0  0  0  2  0  0  0  0  0  0
  184.2020  179.3370  140.0790 C   0  0  0  0  0  2  0  0  0  0  0  0
  183.2060  177.7740  138.3590 C   0  0  0  0  0  3  0  0  0  0  0  0
  186.6450  178.6250  138.6180 O   0  0  0  0  0  0  0  0  0  0  0  0
  185.4470  177.2670  137.2210 N   0  0  0  0  0  0  0  0  0  0  0  0
  184.3200  178.4200  138.9040 C   0  0  0  0  0  0  0  0  0  0  0  0
  185.5440  178.1280  138.2590 C   0  0  0  0  0  0  0  0  0  0  0  0
  186.5220  176.7780  136.3750 C   0  0  0  0  0  1  0  0  0  0  0  0
  183.8470  176.8690  137.0980 S   0  0  0  0  0  0  0  0  0  0  0  0
  1 12  1  6  0  0  0
  1 10  1  0  0  0  0
  3  9  1  0  0  0  0
  3  5  1  0  0  0  0
  4  8  1  1  0  0  0
  7  2  1  1  0  0  0
  7  4  1  0  0  0  0
  8  6  1  0  0  0  0
  9  7  1  0  0  0  0
 10  6  1  0  0  0  0
 11  5  1  6  0  0  0
 11  4  1  0  0  0  0
 11  1  1  0  0  0  0
 12 13  1  0  0  0  0
 13 17  1  0  0  0  0
 14 15  1  0  0  0  0
 14 13  2  0  0  0  0
 17 16  1  1  0  0  0
 19 17  1  0  0  0  0
 19 18  1  0  0  0  0
 20  9  1  0  0  0  0
 21 20  1  0  0  0  0
 22 25  2  0  0  0  0
 24 26  1  0  0  0  0
 25 21  1  0  0  0  0
 26 23  2  0  0  0  0
 26 25  1  0  0  0  0
 27 24  1  0  0  0  0
 28 24  1  0  0  0  0
 28 22  1  0  0  0  0
M  END
>  <MODEL>
1

>  <REMARK>
 VINA RESULT:      -7.9      0.000      0.000
  Name = 
  7 active torsions:
  status: ('A' for Active; 'I' for Inactive)
    1  A    between atoms: C_1  and  C_2
    2  A    between atoms: C_2  and  C_3
    3  A    between atoms: C_3  and  C_11
    4  A    between atoms: C_11  and  C_22
    5  A    between atoms: C_13  and  C_18
    6  A    between atoms: C_14  and  C_18
    7  A    between atoms: C_14  and  N_25
                            x       y       z     vdW  Elec       q    Type
                         _______ _______ _______ _____ _____    ______ ____

>  <TORSDO>
F 7

$$$$
=
 OpenBabel10262420433D

 28 30  0  0  1  0  0  0  0  0999 V2000
  189.2310  177.0660  143.6360 C   0  0  2  0  0  3  0  0  0  0  0  0
  185.9220  178.9450  146.8520 C   0  0  0  0  0  1  0  0  0  0  0  0
  185.4850  177.8920  143.2450 C   0  0  0  0  0  2  0  0  0  0  0  0
  187.5570  177.9760  145.2390 C   0  0  1  0  0  3  0  0  0  0  0  0
  186.9560  177.8820  142.8460 C   0  0  0  0  0  2  0  0  0  0  0  0
  189.8450  177.2360  145.8190 C   0  0  0  0  0  2  0  0  0  0  0  0
  186.0700  178.0630  145.6150 C   0  0  2  0  0  3  0  0  0  0  0  0
  188.4130  177.3540  146.3410 C   0  0  0  0  0  2  0  0  0  0  0  0
  185.2820  178.6310  144.4970 N   0  0  0  0  0  0  0  0  0  0  0  0
  189.8800  176.3930  144.6930 O   0  0  0  0  0  0  0  0  0  0  0  0
  187.7310  177.1810  143.9480 C   0  0  1  0  0  3  0  0  0  0  0  0
  189.4520  176.2920  142.3410 C   0  0  0  0  0  2  0  0  0  0  0  0
  190.4490  176.9840  141.4600 C   0  0  0  0  0  0  0  0  0  0  0  0
  191.6040  177.4100  141.9780 C   0  0  0  0  0  3  0  0  0  0  0  0
  192.5460  178.0180  141.2070 F   0  0  0  0  0  0  0  0  0  0  0  0
  190.5450  175.9730  139.3150 O   0  0  0  0  0  1  0  0  0  0  0  0
  190.1760  177.1360  139.9910 C   0  0  1  0  0  3  0  0  0  0  0  0
  188.5530  178.7570  139.3190 O   0  0  0  0  0  1  0  0  0  0  0  0
  188.7070  177.4330  139.7300 C   0  0  0  0  0  2  0  0  0  0  0  0
  183.8380  178.6360  144.7890 C   0  0  0  0  0  2  0  0  0  0  0  0
  183.0270  179.6770  143.9980 C   0  0  0  0  0  2  0  0  0  0  0  0
  180.6770  178.7500  143.8710 C   0  0  0  0  0  3  0  0  0  0  0  0
  182.9600  178.9490  141.1570 O   0  0  0  0  0  0  0  0  0  0  0  0
  180.8200  178.1750  141.3760 N   0  0  0  0  0  0  0  0  0  0  0  0
  181.8910  179.0600  143.2470 C   0  0  0  0  0  0  0  0  0  0  0  0
  181.9450  178.7360  141.8730 C   0  0  0  0  0  0  0  0  0  0  0  0
  180.5770  177.7350  140.0130 C   0  0  0  0  0  1  0  0  0  0  0  0
  179.7550  178.0820  142.6380 S   0  0  0  0  0  0  0  0  0  0  0  0
  1 12  1  6  0  0  0
  1 11  1  0  0  0  0
  1 10  1  0  0  0  0
  3  9  1  0  0  0  0
  4  7  1  0  0  0  0
  4  8  1  1  0  0  0
  5  3  1  0  0  0  0
  6  8  1  0  0  0  0
  7  2  1  1  0  0  0
  9 20  1  0  0  0  0
  9  7  1  0  0  0  0
 10  6  1  0  0  0  0
 11  5  1  6  0  0  0
 11  4  1  0  0  0  0
 13 14  2  0  0  0  0
 13 12  1  0  0  0  0
 15 14  1  0  0  0  0
 17 16  1  6  0  0  0
 17 13  1  0  0  0  0
 18 19  1  0  0  0  0
 19 17  1  0  0  0  0
 21 20  1  0  0  0  0
 23 26  2  0  0  0  0
 24 26  1  0  0  0  0
 24 28  1  0  0  0  0
 25 22  2  0  0  0  0
 25 21  1  0  0  0  0
 26 25  1  0  0  0  0
 27 24  1  0  0  0  0
 28 22  1  0  0  0  0
M  END
>  <MODEL>
2

>  <REMARK>
 VINA RESULT:      -7.9      2.903      4.843
  Name = 
  7 active torsions:
  status: ('A' for Active; 'I' for Inactive)
    1  A    between atoms: C_1  and  C_2
    2  A    between atoms: C_2  and  C_3
    3  A    between atoms: C_3  and  C_11
    4  A    between atoms: C_11  and  C_22
    5  A    between atoms: C_13  and  C_18
    6  A    between atoms: C_14  and  C_18
    7  A    between atoms: C_14  and  N_25
                            x       y       z     vdW  Elec       q    Type
                         _______ _______ _______ _____ _____    ______ ____

>  <TORSDO>
F 7

$$$$
=
 OpenBabel10262420433D

 28 30  0  0  1  0  0  0  0  0999 V2000
  187.2940  177.9040  145.2750 C   0  0  2  0  0  3  0  0  0  0  0  0
  182.7490  179.6360  144.1950 C   0  0  0  0  0  1  0  0  0  0  0  0
  185.3150  177.9730  141.9670 C   0  0  0  0  0  2  0  0  0  0  0  0
  185.0120  178.7360  144.7240 C   0  0  1  0  0  3  0  0  0  0  0  0
  186.5310  178.1650  142.8630 C   0  0  0  0  0  2  0  0  0  0  0  0
  185.9490  178.5190  147.0030 C   0  0  0  0  0  2  0  0  0  0  0  0
  183.8040  178.6130  143.7830 C   0  0  2  0  0  3  0  0  0  0  0  0
  184.6600  178.4570  146.1840 C   0  0  0  0  0  2  0  0  0  0  0  0
  184.2100  178.8490  142.3790 N   0  0  0  0  0  0  0  0  0  0  0  0
  186.8490  177.5310  146.5610 O   0  0  0  0  0  0  0  0  0  0  0  0
  186.1290  177.7940  144.2800 C   0  0  1  0  0  3  0  0  0  0  0  0
  188.4410  176.9900  144.8590 C   0  0  0  0  0  2  0  0  0  0  0  0
  189.7680  177.6630  145.0540 C   0  0  0  0  0  0  0  0  0  0  0  0
  190.1680  178.5970  144.1870 C   0  0  0  0  0  3  0  0  0  0  0  0
  191.3510  179.2490  144.3430 F   0  0  0  0  0  0  0  0  0  0  0  0
  189.8190  176.7420  147.2400 O   0  0  0  0  0  1  0  0  0  0  0  0
  190.6090  177.3330  146.2540 C   0  0  1  0  0  3  0  0  0  0  0  0
  192.4620  176.0410  147.0340 O   0  0  0  0  0  1  0  0  0  0  0  0
  191.7520  176.3990  145.8880 C   0  0  0  0  0  2  0  0  0  0  0  0
  183.0940  178.6400  141.4400 C   0  0  0  0  0  2  0  0  0  0  0  0
  183.3770  177.6220  140.3230 C   0  0  0  0  0  2  0  0  0  0  0  0
  180.8690  177.2990  140.3060 C   0  0  0  0  0  3  0  0  0  0  0  0
  183.2160  175.2760  138.5690 O   0  0  0  0  0  0  0  0  0  0  0  0
  180.9380  175.2480  138.7680 N   0  0  0  0  0  0  0  0  0  0  0  0
  182.1430  176.9000  139.8880 C   0  0  0  0  0  0  0  0  0  0  0  0
  182.1560  175.7690  139.0400 C   0  0  0  0  0  0  0  0  0  0  0  0
  180.6340  174.0950  137.9390 C   0  0  0  0  0  1  0  0  0  0  0  0
  179.8430  176.1890  139.5760 S   0  0  0  0  0  0  0  0  0  0  0  0
  1 12  1  6  0  0  0
  1 10  1  0  0  0  0
  3  9  1  0  0  0  0
  3  5  1  0  0  0  0
  4  8  1  1  0  0  0
  7  2  1  1  0  0  0
  7  4  1  0  0  0  0
  8  6  1  0  0  0  0
  9  7  1  0  0  0  0
 10  6  1  0  0  0  0
 11  5  1  6  0  0  0
 11  4  1  0  0  0  0
 11  1  1  0  0  0  0
 12 13  1  0  0  0  0
 13 17  1  0  0  0  0
 14 15  1  0  0  0  0
 14 13  2  0  0  0  0
 17 16  1  1  0  0  0
 19 17  1  0  0  0  0
 19 18  1  0  0  0  0
 20  9  1  0  0  0  0
 21 20  1  0  0  0  0
 23 26  2  0  0  0  0
 24 26  1  0  0  0  0
 24 28  1  0  0  0  0
 25 22  2  0  0  0  0
 25 21  1  0  0  0  0
 26 25  1  0  0  0  0
 27 24  1  0  0  0  0
 28 22  1  0  0  0  0
M  END
>  <MODEL>
3

>  <REMARK>
 VINA RESULT:      -7.7      2.148      2.434
  Name = 
  7 active torsions:
  status: ('A' for Active; 'I' for Inactive)
    1  A    between atoms: C_1  and  C_2
    2  A    between atoms: C_2  and  C_3
    3  A    between atoms: C_3  and  C_11
    4  A    between atoms: C_11  and  C_22
    5  A    between atoms: C_13  and  C_18
    6  A    between atoms: C_14  and  C_18
    7  A    between atoms: C_14  and  N_25
                            x       y       z     vdW  Elec       q    Type
                         _______ _______ _______ _____ _____    ______ ____

>  <TORSDO>
F 7

$$$$
=
 OpenBabel10262420433D

 28 30  0  0  1  0  0  0  0  0999 V2000
  187.7750  177.8040  145.4050 C   0  0  2  0  0  3  0  0  0  0  0  0
  183.1670  179.4970  144.5600 C   0  0  0  0  0  1  0  0  0  0  0  0
  185.6600  177.9330  142.1840 C   0  0  0  0  0  2  0  0  0  0  0  0
  185.4620  178.6170  144.9710 C   0  0  1  0  0  3  0  0  0  0  0  0
  186.9100  178.1170  143.0340 C   0  0  0  0  0  2  0  0  0  0  0  0
  186.4950  178.3520  147.2020 C   0  0  0  0  0  2  0  0  0  0  0  0
  184.2180  178.5010  144.0770 C   0  0  2  0  0  3  0  0  0  0  0  0
  185.1740  178.2940  146.4360 C   0  0  0  0  0  2  0  0  0  0  0  0
  184.5620  178.7810  142.6650 N   0  0  0  0  0  0  0  0  0  0  0  0
  187.3890  177.3900  146.6980 O   0  0  0  0  0  0  0  0  0  0  0  0
  186.5710  177.7030  144.4560 C   0  0  1  0  0  3  0  0  0  0  0  0
  188.9160  176.9170  144.9180 C   0  0  0  0  0  2  0  0  0  0  0  0
  190.2320  177.6320  145.0060 C   0  0  0  0  0  0  0  0  0  0  0  0
  190.4910  178.6450  144.1740 C   0  0  0  0  0  3  0  0  0  0  0  0
  191.6610  179.3350  144.2400 F   0  0  0  0  0  0  0  0  0  0  0  0
  190.5810  177.1390  147.3010 O   0  0  0  0  0  1  0  0  0  0  0  0
  191.2240  177.2520  146.0680 C   0  0  1  0  0  3  0  0  0  0  0  0
  192.3440  175.3130  146.9030 O   0  0  0  0  0  1  0  0  0  0  0  0
  191.9170  175.9400  145.7330 C   0  0  0  0  0  2  0  0  0  0  0  0
  183.4110  178.5810  141.7670 C   0  0  0  0  0  2  0  0  0  0  0  0
  183.7800  178.1810  140.3290 C   0  0  0  0  0  2  0  0  0  0  0  0
  181.7400  177.4840  139.0070 C   0  0  0  0  0  3  0  0  0  0  0  0
  183.2390  180.7030  138.9310 O   0  0  0  0  0  0  0  0  0  0  0  0
  181.4400  179.7660  137.8760 N   0  0  0  0  0  0  0  0  0  0  0  0
  182.6760  178.4620  139.3610 C   0  0  0  0  0  0  0  0  0  0  0  0
  182.4890  179.7110  138.7270 C   0  0  0  0  0  0  0  0  0  0  0  0
  181.0020  180.9010  137.0830 C   0  0  0  0  0  1  0  0  0  0  0  0
  180.7400  178.2670  137.9100 S   0  0  0  0  0  0  0  0  0  0  0  0
  1 12  1  6  0  0  0
  1 10  1  0  0  0  0
  3  9  1  0  0  0  0
  3  5  1  0  0  0  0
  4  8  1  1  0  0  0
  7  2  1  1  0  0  0
  7  4  1  0  0  0  0
  8  6  1  0  0  0  0
  9  7  1  0  0  0  0
 10  6  1  0  0  0  0
 11  5  1  6  0  0  0
 11  4  1  0  0  0  0
 11  1  1  0  0  0  0
 12 13  1  0  0  0  0
 13 17  1  0  0  0  0
 14 15  1  0  0  0  0
 14 13  2  0  0  0  0
 17 16  1  1  0  0  0
 19 17  1  0  0  0  0
 19 18  1  0  0  0  0
 20  9  1  0  0  0  0
 21 20  1  0  0  0  0
 22 25  2  0  0  0  0
 24 28  1  0  0  0  0
 24 26  1  0  0  0  0
 25 21  1  0  0  0  0
 26 23  2  0  0  0  0
 26 25  1  0  0  0  0
 27 24  1  0  0  0  0
 28 22  1  0  0  0  0
M  END
>  <MODEL>
4

>  <REMARK>
 VINA RESULT:      -7.7      1.822      2.086
  Name = 
  7 active torsions:
  status: ('A' for Active; 'I' for Inactive)
    1  A    between atoms: C_1  and  C_2
    2  A    between atoms: C_2  and  C_3
    3  A    between atoms: C_3  and  C_11
    4  A    between atoms: C_11  and  C_22
    5  A    between atoms: C_13  and  C_18
    6  A    between atoms: C_14  and  C_18
    7  A    between atoms: C_14  and  N_25
                            x       y       z     vdW  Elec       q    Type
                         _______ _______ _______ _____ _____    ______ ____

>  <TORSDO>
F 7

$$$$
=
 OpenBabel10262420433D

 28 30  0  0  1  0  0  0  0  0999 V2000
  189.7100  177.3610  146.1610 C   0  0  2  0  0  3  0  0  0  0  0  0
  185.0920  179.0970  146.8550 C   0  0  0  0  0  1  0  0  0  0  0  0
  186.6650  177.5140  143.8000 C   0  0  0  0  0  2  0  0  0  0  0  0
  187.3890  178.1960  146.5000 C   0  0  1  0  0  3  0  0  0  0  0  0
  188.1250  177.6860  144.1990 C   0  0  0  0  0  2  0  0  0  0  0  0
  189.0880  177.9190  148.2760 C   0  0  0  0  0  2  0  0  0  0  0  0
  185.9210  178.0920  146.0590 C   0  0  2  0  0  3  0  0  0  0  0  0
  187.5890  177.8730  147.9800 C   0  0  0  0  0  2  0  0  0  0  0  0
  185.7910  178.3710  144.6100 N   0  0  0  0  0  0  0  0  0  0  0  0
  189.7610  176.9490  147.5100 O   0  0  0  0  0  0  0  0  0  0  0  0
  188.2630  177.2730  145.6540 C   0  0  1  0  0  3  0  0  0  0  0  0
  190.6230  176.4650  145.3310 C   0  0  0  0  0  2  0  0  0  0  0  0
  191.1900  177.2090  144.1580 C   0  0  0  0  0  0  0  0  0  0  0  0
  191.6510  178.4520  144.3240 C   0  0  0  0  0  3  0  0  0  0  0  0
  192.1970  179.1490  143.2920 F   0  0  0  0  0  0  0  0  0  0  0  0
  190.6360  175.3050  142.8540 O   0  0  0  0  0  1  0  0  0  0  0  0
  191.2970  176.5340  142.8210 C   0  0  1  0  0  3  0  0  0  0  0  0
  191.5940  177.4660  140.6400 O   0  0  0  0  0  1  0  0  0  0  0  0
  190.7090  177.3990  141.7160 C   0  0  0  0  0  2  0  0  0  0  0  0
  184.4090  178.1830  144.1360 C   0  0  0  0  0  2  0  0  0  0  0  0
  183.9040  179.2770  143.1800 C   0  0  0  0  0  2  0  0  0  0  0  0
  182.6450  178.1460  141.3010 C   0  0  0  0  0  3  0  0  0  0  0  0
  185.9210  179.4980  141.0610 O   0  0  0  0  0  0  0  0  0  0  0  0
  184.5350  178.4260  139.5920 N   0  0  0  0  0  0  0  0  0  0  0  0
  183.7930  178.7930  141.7700 C   0  0  0  0  0  0  0  0  0  0  0  0
  184.8200  178.9380  140.8100 C   0  0  0  0  0  0  0  0  0  0  0  0
  185.3850  178.4190  138.4140 C   0  0  0  0  0  1  0  0  0  0  0  0
  183.0100  177.7950  139.7010 S   0  0  0  0  0  0  0  0  0  0  0  0
  1 12  1  6  0  0  0
  1 10  1  0  0  0  0
  3  5  1  0  0  0  0
  3  9  1  0  0  0  0
  4  8  1  1  0  0  0
  7  4  1  0  0  0  0
  7  2  1  1  0  0  0
  8  6  1  0  0  0  0
  9  7  1  0  0  0  0
 10  6  1  0  0  0  0
 11  5  1  6  0  0  0
 11  1  1  0  0  0  0
 11  4  1  0  0  0  0
 13 14  2  0  0  0  0
 13 12  1  0  0  0  0
 15 14  1  0  0  0  0
 17 16  1  1  0  0  0
 17 13  1  0  0  0  0
 18 19  1  0  0  0  0
 19 17  1  0  0  0  0
 20  9  1  0  0  0  0
 21 20  1  0  0  0  0
 22 25  2  0  0  0  0
 24 28  1  0  0  0  0
 24 26  1  0  0  0  0
 25 21  1  0  0  0  0
 26 23  2  0  0  0  0
 26 25  1  0  0  0  0
 27 24  1  0  0  0  0
 28 22  1  0  0  0  0
M  END
>  <MODEL>
5

>  <REMARK>
 VINA RESULT:      -7.5      2.127      3.073
  Name = 
  7 active torsions:
  status: ('A' for Active; 'I' for Inactive)
    1  A    between atoms: C_1  and  C_2
    2  A    between atoms: C_2  and  C_3
    3  A    between atoms: C_3  and  C_11
    4  A    between atoms: C_11  and  C_22
    5  A    between atoms: C_13  and  C_18
    6  A    between atoms: C_14  and  C_18
    7  A    between atoms: C_14  and  N_25
                            x       y       z     vdW  Elec       q    Type
                         _______ _______ _______ _____ _____    ______ ____

>  <TORSDO>
F 7

$$$$
=
 OpenBabel10262420433D

 28 30  0  0  1  0  0  0  0  0999 V2000
  183.7670  178.7660  144.3290 C   0  0  2  0  0  3  0  0  0  0  0  0
  188.3650  176.8830  144.6940 C   0  0  0  0  0  1  0  0  0  0  0  0
  186.5800  178.3880  141.7180 C   0  0  0  0  0  2  0  0  0  0  0  0
  186.0790  177.8570  144.5010 C   0  0  1  0  0  3  0  0  0  0  0  0
  185.1560  178.2920  142.2520 C   0  0  0  0  0  2  0  0  0  0  0  0
  184.5580  178.2800  146.4050 C   0  0  0  0  0  2  0  0  0  0  0  0
  187.5040  177.8830  143.9270 C   0  0  2  0  0  3  0  0  0  0  0  0
  186.0240  178.2530  145.9750 C   0  0  0  0  0  2  0  0  0  0  0  0
  187.4930  177.5350  142.4880 N   0  0  0  0  0  0  0  0  0  0  0  0
  183.8530  179.2400  145.6550 O   0  0  0  0  0  0  0  0  0  0  0  0
  185.1650  178.7740  143.6920 C   0  0  1  0  0  3  0  0  0  0  0  0
  182.8150  179.6590  143.5400 C   0  0  0  0  0  2  0  0  0  0  0  0
  181.4780  179.0000  143.3620 C   0  0  0  0  0  0  0  0  0  0  0  0
  180.9790  178.2450  144.3440 C   0  0  0  0  0  3  0  0  0  0  0  0
  179.7590  177.6530  144.2320 F   0  0  0  0  0  0  0  0  0  0  0  0
  180.1000  180.5120  142.1600 O   0  0  0  0  0  1  0  0  0  0  0  0
  180.6810  179.2440  142.1130 C   0  0  1  0  0  3  0  0  0  0  0  0
  181.9360  177.7990  140.6810 O   0  0  0  0  0  1  0  0  0  0  0  0
  181.5500  179.1270  140.8700 C   0  0  0  0  0  2  0  0  0  0  0  0
  188.8320  177.6470  141.8850 C   0  0  0  0  0  2  0  0  0  0  0  0
  188.9090  178.5760  140.6610 C   0  0  0  0  0  2  0  0  0  0  0  0
  190.4490  176.9040  139.5520 C   0  0  0  0  0  3  0  0  0  0  0  0
  188.1290  178.9980  137.8650 O   0  0  0  0  0  0  0  0  0  0  0  0
  189.6390  177.4250  137.1770 N   0  0  0  0  0  0  0  0  0  0  0  0
  189.4530  177.8810  139.4550 C   0  0  0  0  0  0  0  0  0  0  0  0
  189.0200  178.1490  138.1360 C   0  0  0  0  0  0  0  0  0  0  0  0
  189.4140  177.4810  135.7420 C   0  0  0  0  0  1  0  0  0  0  0  0
  190.7200  176.4490  137.9600 S   0  0  0  0  0  0  0  0  0  0  0  0
  1 12  1  6  0  0  0
  1 10  1  0  0  0  0
  3  5  1  0  0  0  0
  3  9  1  0  0  0  0
  4  8  1  1  0  0  0
  7  4  1  0  0  0  0
  7  2  1  1  0  0  0
  8  6  1  0  0  0  0
  9  7  1  0  0  0  0
 10  6  1  0  0  0  0
 11  5  1  6  0  0  0
 11  1  1  0  0  0  0
 11  4  1  0  0  0  0
 13 12  1  0  0  0  0
 13 14  2  0  0  0  0
 15 14  1  0  0  0  0
 17 16  1  1  0  0  0
 17 13  1  0  0  0  0
 18 19  1  0  0  0  0
 19 17  1  0  0  0  0
 20  9  1  0  0  0  0
 21 20  1  0  0  0  0
 23 26  2  0  0  0  0
 24 28  1  0  0  0  0
 24 26  1  0  0  0  0
 25 22  2  0  0  0  0
 25 21  1  0  0  0  0
 26 25  1  0  0  0  0
 27 24  1  0  0  0  0
 28 22  1  0  0  0  0
M  END
>  <MODEL>
6

>  <REMARK>
 VINA RESULT:      -7.4      4.196      6.816
  Name = 
  7 active torsions:
  status: ('A' for Active; 'I' for Inactive)
    1  A    between atoms: C_1  and  C_2
    2  A    between atoms: C_2  and  C_3
    3  A    between atoms: C_3  and  C_11
    4  A    between atoms: C_11  and  C_22
    5  A    between atoms: C_13  and  C_18
    6  A    between atoms: C_14  and  C_18
    7  A    between atoms: C_14  and  N_25
                            x       y       z     vdW  Elec       q    Type
                         _______ _______ _______ _____ _____    ______ ____

>  <TORSDO>
F 7

$$$$
=
 OpenBabel10262420433D

 28 30  0  0  1  0  0  0  0  0999 V2000
  187.9350  177.6850  145.1300 C   0  0  2  0  0  3  0  0  0  0  0  0
  183.3070  179.4750  144.6830 C   0  0  0  0  0  1  0  0  0  0  0  0
  185.5820  177.9290  142.0860 C   0  0  0  0  0  2  0  0  0  0  0  0
  185.6110  178.5470  144.8950 C   0  0  1  0  0  3  0  0  0  0  0  0
  186.8960  178.0720  142.8410 C   0  0  0  0  0  2  0  0  0  0  0  0
  186.8070  178.2100  147.0340 C   0  0  0  0  0  2  0  0  0  0  0  0
  184.3000  178.4740  144.0980 C   0  0  2  0  0  3  0  0  0  0  0  0
  185.4300  178.1930  146.3700 C   0  0  0  0  0  2  0  0  0  0  0  0
  184.5400  178.7830  142.6700 N   0  0  0  0  0  0  0  0  0  0  0  0
  187.6410  177.2460  146.4390 O   0  0  0  0  0  0  0  0  0  0  0  0
  186.6600  177.6280  144.2750 C   0  0  1  0  0  3  0  0  0  0  0  0
  189.0190  176.7930  144.5360 C   0  0  0  0  0  2  0  0  0  0  0  0
  190.1730  177.6070  144.0290 C   0  0  0  0  0  0  0  0  0  0  0  0
  190.2980  178.8810  144.4080 C   0  0  0  0  0  3  0  0  0  0  0  0
  191.3440  179.6450  143.9920 F   0  0  0  0  0  0  0  0  0  0  0  0
  191.3740  175.6290  143.5020 O   0  0  0  0  0  1  0  0  0  0  0  0
  191.2140  176.9700  143.1530 C   0  0  1  0  0  3  0  0  0  0  0  0
  191.9370  177.5010  140.9380 O   0  0  0  0  0  1  0  0  0  0  0  0
  190.8370  177.0730  141.6830 C   0  0  0  0  0  2  0  0  0  0  0  0
  183.3200  178.6250  141.8600 C   0  0  0  0  0  2  0  0  0  0  0  0
  183.4960  177.7700  140.5930 C   0  0  0  0  0  2  0  0  0  0  0  0
  180.9780  177.5430  140.6560 C   0  0  0  0  0  3  0  0  0  0  0  0
  183.1730  175.5630  138.6870 O   0  0  0  0  0  0  0  0  0  0  0  0
  180.9060  175.6070  138.9770 N   0  0  0  0  0  0  0  0  0  0  0  0
  182.2180  177.1270  140.1600 C   0  0  0  0  0  0  0  0  0  0  0  0
  182.1530  176.0610  139.2340 C   0  0  0  0  0  0  0  0  0  0  0  0
  180.5240  174.5280  138.0820 C   0  0  0  0  0  1  0  0  0  0  0  0
  179.8820  176.5270  139.8930 S   0  0  0  0  0  0  0  0  0  0  0  0
  1 12  1  6  0  0  0
  1 10  1  0  0  0  0
  3  9  1  0  0  0  0
  3  5  1  0  0  0  0
  4  8  1  1  0  0  0
  7  2  1  1  0  0  0
  7  4  1  0  0  0  0
  8  6  1  0  0  0  0
  9  7  1  0  0  0  0
 10  6  1  0  0  0  0
 11  5  1  6  0  0  0
 11  4  1  0  0  0  0
 11  1  1  0  0  0  0
 13 14  2  0  0  0  0
 13 12  1  0  0  0  0
 15 14  1  0  0  0  0
 17 16  1  1  0  0  0
 17 13  1  0  0  0  0
 18 19  1  0  0  0  0
 19 17  1  0  0  0  0
 20  9  1  0  0  0  0
 21 20  1  0  0  0  0
 23 26  2  0  0  0  0
 24 26  1  0  0  0  0
 24 28  1  0  0  0  0
 25 21  1  0  0  0  0
 25 22  2  0  0  0  0
 26 25  1  0  0  0  0
 27 24  1  0  0  0  0
 28 22  1  0  0  0  0
M  END
>  <MODEL>
7

>  <REMARK>
 VINA RESULT:      -7.4      2.543      3.060
  Name = 
  7 active torsions:
  status: ('A' for Active; 'I' for Inactive)
    1  A    between atoms: C_1  and  C_2
    2  A    between atoms: C_2  and  C_3
    3  A    between atoms: C_3  and  C_11
    4  A    between atoms: C_11  and  C_22
    5  A    between atoms: C_13  and  C_18
    6  A    between atoms: C_14  and  C_18
    7  A    between atoms: C_14  and  N_25
                            x       y       z     vdW  Elec       q    Type
                         _______ _______ _______ _____ _____    ______ ____

>  <TORSDO>
F 7

$$$$
=
 OpenBabel10262420433D

 28 30  0  0  1  0  0  0  0  0999 V2000
  187.8320  177.7660  143.0680 C   0  0  2  0  0  3  0  0  0  0  0  0
  188.6890  178.8820  138.2890 C   0  0  0  0  0  1  0  0  0  0  0  0
  190.5430  176.5430  140.6130 C   0  0  0  0  0  2  0  0  0  0  0  0
  188.2570  178.2890  140.6700 C   0  0  1  0  0  3  0  0  0  0  0  0
  190.0020  177.0800  141.9320 C   0  0  0  0  0  2  0  0  0  0  0  0
  186.2550  178.9670  141.9540 C   0  0  0  0  0  2  0  0  0  0  0  0
  188.8650  177.7980  139.3480 C   0  0  2  0  0  3  0  0  0  0  0  0
  186.7600  178.5780  140.5650 C   0  0  0  0  0  2  0  0  0  0  0  0
  190.3040  177.4910  139.5180 N   0  0  0  0  0  0  0  0  0  0  0  0
  186.4440  177.9000  142.8530 O   0  0  0  0  0  0  0  0  0  0  0  0
  188.5020  177.2670  141.7780 C   0  0  1  0  0  3  0  0  0  0  0  0
  188.0670  176.7810  144.2080 C   0  0  0  0  0  2  0  0  0  0  0  0
  188.0710  177.4810  145.5350 C   0  0  0  0  0  0  0  0  0  0  0  0
  186.9400  178.0180  146.0020 C   0  0  0  0  0  3  0  0  0  0  0  0
  186.8960  178.6370  147.2120 F   0  0  0  0  0  0  0  0  0  0  0  0
  189.2080  176.6510  147.4460 O   0  0  0  0  0  1  0  0  0  0  0  0
  189.3250  177.5200  146.3610 C   0  0  1  0  0  3  0  0  0  0  0  0
  191.6810  177.1170  146.3410 O   0  0  0  0  0  1  0  0  0  0  0  0
  190.5440  177.1410  145.5330 C   0  0  0  0  0  2  0  0  0  0  0  0
  190.8940  176.9230  138.2930 C   0  0  0  0  0  2  0  0  0  0  0  0
  192.3270  176.3910  138.4580 C   0  0  0  0  0  2  0  0  0  0  0  0
  191.6000  174.3770  137.1130 C   0  0  0  0  0  3  0  0  0  0  0  0
  194.9290  175.5890  137.3660 O   0  0  0  0  0  0  0  0  0  0  0  0
  193.9600  173.8310  136.2710 N   0  0  0  0  0  0  0  0  0  0  0  0
  192.6120  175.2380  137.5510 C   0  0  0  0  0  0  0  0  0  0  0  0
  193.9030  174.9190  137.0720 C   0  0  0  0  0  0  0  0  0  0  0  0
  195.1350  173.2600  135.6360 C   0  0  0  0  0  1  0  0  0  0  0  0
  192.4110  173.2650  136.1520 S   0  0  0  0  0  0  0  0  0  0  0  0
  1 12  1  1  0  0  0
  3  5  1  0  0  0  0
  4  8  1  6  0  0  0
  4 11  1  0  0  0  0
  6 10  1  0  0  0  0
  7  2  1  6  0  0  0
  7  9  1  0  0  0  0
  7  4  1  0  0  0  0
  8  6  1  0  0  0  0
  9  3  1  0  0  0  0
 10  1  1  0  0  0  0
 11  5  1  1  0  0  0
 11  1  1  0  0  0  0
 12 13  1  0  0  0  0
 13 14  2  0  0  0  0
 13 17  1  0  0  0  0
 14 15  1  0  0  0  0
 17 16  1  1  0  0  0
 19 18  1  0  0  0  0
 19 17  1  0  0  0  0
 20 21  1  0  0  0  0
 20  9  1  0  0  0  0
 22 25  2  0  0  0  0
 24 26  1  0  0  0  0
 25 21  1  0  0  0  0
 26 23  2  0  0  0  0
 26 25  1  0  0  0  0
 27 24  1  0  0  0  0
 28 24  1  0  0  0  0
 28 22  1  0  0  0  0
M  END
>  <MODEL>
8

>  <REMARK>
 VINA RESULT:      -7.1      4.941      6.219
  Name = 
  7 active torsions:
  status: ('A' for Active; 'I' for Inactive)
    1  A    between atoms: C_1  and  C_2
    2  A    between atoms: C_2  and  C_3
    3  A    between atoms: C_3  and  C_11
    4  A    between atoms: C_11  and  C_22
    5  A    between atoms: C_13  and  C_18
    6  A    between atoms: C_14  and  C_18
    7  A    between atoms: C_14  and  N_25
                            x       y       z     vdW  Elec       q    Type
                         _______ _______ _______ _____ _____    ______ ____

>  <TORSDO>
F 7

$$$$
=
 OpenBabel10262420433D

 28 30  0  0  1  0  0  0  0  0999 V2000
  188.5260  177.2770  144.2410 C   0  0  2  0  0  3  0  0  0  0  0  0
  184.0950  179.3790  145.1150 C   0  0  0  0  0  1  0  0  0  0  0  0
  185.5040  177.9020  141.9300 C   0  0  0  0  0  2  0  0  0  0  0  0
  186.2950  178.2970  144.6680 C   0  0  1  0  0  3  0  0  0  0  0  0
  186.9750  177.9050  142.3260 C   0  0  0  0  0  2  0  0  0  0  0  0
  187.9640  177.7210  146.3990 C   0  0  0  0  0  2  0  0  0  0  0  0
  184.8230  178.3670  144.2340 C   0  0  2  0  0  3  0  0  0  0  0  0
  186.4670  177.8400  146.1150 C   0  0  0  0  0  2  0  0  0  0  0  0
  184.7160  178.7710  142.8130 N   0  0  0  0  0  0  0  0  0  0  0  0
  188.5410  176.7560  145.5530 O   0  0  0  0  0  0  0  0  0  0  0  0
  187.0760  177.3660  143.7430 C   0  0  1  0  0  3  0  0  0  0  0  0
  189.3490  176.3680  143.3340 C   0  0  0  0  0  2  0  0  0  0  0  0
  190.6040  177.0520  142.8780 C   0  0  0  0  0  0  0  0  0  0  0  0
  190.7370  177.4020  141.5960 C   0  0  0  0  0  3  0  0  0  0  0  0
  191.8480  178.0470  141.1490 F   0  0  0  0  0  0  0  0  0  0  0  0
  191.4800  178.6900  144.3540 O   0  0  0  0  0  1  0  0  0  0  0  0
  191.6760  177.3960  143.8730 C   0  0  1  0  0  3  0  0  0  0  0  0
  191.7080  177.1100  146.2450 O   0  0  0  0  0  1  0  0  0  0  0  0
  191.6870  176.4150  145.0360 C   0  0  0  0  0  2  0  0  0  0  0  0
  183.3220  178.7520  142.3390 C   0  0  0  0  0  2  0  0  0  0  0  0
  183.1200  178.0910  140.9650 C   0  0  0  0  0  2  0  0  0  0  0  0
  182.9530  179.7920  139.1010 C   0  0  0  0  0  3  0  0  0  0  0  0
  180.2000  178.3040  140.7800 O   0  0  0  0  0  0  0  0  0  0  0  0
  180.3900  179.8450  139.1020 N   0  0  0  0  0  0  0  0  0  0  0  0
  182.3320  178.9520  140.0310 C   0  0  0  0  0  0  0  0  0  0  0  0
  180.9190  178.9970  140.0110 C   0  0  0  0  0  0  0  0  0  0  0  0
  178.9830  180.1080  138.8510 C   0  0  0  0  0  1  0  0  0  0  0  0
  181.6700  180.5400  138.3190 S   0  0  0  0  0  0  0  0  0  0  0  0
  1 12  1  6  0  0  0
  1 10  1  0  0  0  0
  3  5  1  0  0  0  0
  3  9  1  0  0  0  0
  4  8  1  1  0  0  0
  7  4  1  0  0  0  0
  7  2  1  1  0  0  0
  8  6  1  0  0  0  0
  9  7  1  0  0  0  0
 10  6  1  0  0  0  0
 11  5  1  6  0  0  0
 11  1  1  0  0  0  0
 11  4  1  0  0  0  0
 13 12  1  0  0  0  0
 13 17  1  0  0  0  0
 14 13  2  0  0  0  0
 15 14  1  0  0  0  0
 17 16  1  1  0  0  0
 17 19  1  0  0  0  0
 19 18  1  0  0  0  0
 20  9  1  0  0  0  0
 21 20  1  0  0  0  0
 22 25  2  0  0  0  0
 24 26  1  0  0  0  0
 25 21  1  0  0  0  0
 26 25  1  0  0  0  0
 26 23  2  0  0  0  0
 27 24  1  0  0  0  0
 28 22  1  0  0  0  0
 28 24  1  0  0  0  0
M  END
>  <MODEL>
9

>  <REMARK>
 VINA RESULT:      -6.9      2.687      3.209
  Name = 
  7 active torsions:
  status: ('A' for Active; 'I' for Inactive)
    1  A    between atoms: C_1  and  C_2
    2  A    between atoms: C_2  and  C_3
    3  A    between atoms: C_3  and  C_11
    4  A    between atoms: C_11  and  C_22
    5  A    between atoms: C_13  and  C_18
    6  A    between atoms: C_14  and  C_18
    7  A    between atoms: C_14  and  N_25
                            x       y       z     vdW  Elec       q    Type
                         _______ _______ _______ _____ _____    ______ ____

>  <TORSDO>
F 7

$$$$
