=
 OpenBabel10252415113D

 34 40  0  0  1  0  0  0  0  0999 V2000
  189.0920  177.1440  145.8420 C   0  0  0  0  0  0  0  0  0  0  0  0
  190.6500  177.0210  143.9260 C   0  0  0  0  0  0  0  0  0  0  0  0
  188.3280  177.8310  143.6980 C   0  0  0  0  0  0  0  0  0  0  0  0
  186.9350  178.3560  140.4780 C   0  0  0  0  0  3  0  0  0  0  0  0
  191.3800  176.4530  146.1870 C   0  0  0  0  0  3  0  0  0  0  0  0
  191.6410  176.5960  144.8210 C   0  0  0  0  0  3  0  0  0  0  0  0
  190.3560  177.3090  141.3500 C   0  0  0  0  0  0  0  0  0  0  0  0
  189.3680  177.3350  144.4590 C   0  0  0  0  0  0  0  0  0  0  0  0
  188.2840  177.9740  140.1250 O   0  0  0  0  0  0  0  0  0  0  0  0
  190.1070  176.7130  146.6940 C   0  0  0  0  0  2  0  0  0  0  0  0
  187.0400  178.0230  144.1640 C   0  0  0  0  0  0  0  0  0  0  0  0
  187.7920  177.3690  146.3530 C   0  0  0  0  0  3  0  0  0  0  0  0
  191.0320  177.0190  142.5620 C   0  0  0  0  0  3  0  0  0  0  0  0
  187.0400  178.4410  141.9660 C   0  0  0  0  0  0  0  0  0  0  0  0
  186.2010  178.3750  143.0820 C   0  0  0  0  0  0  0  0  0  0  0  0
  189.0520  177.7930  141.2810 C   0  0  0  0  0  0  0  0  0  0  0  0
  188.2860  178.1300  142.3260 C   0  0  0  0  0  0  0  0  0  0  0  0
  186.7450  177.7930  145.5090 C   0  0  0  0  0  3  0  0  0  0  0  0
  182.6030  178.5700  141.9070 C   0  0  0  0  0  0  0  0  0  0  0  0
  181.9340  178.8060  143.1110 C   0  0  0  0  0  3  0  0  0  0  0  0
  184.7290  178.5260  143.0860 C   0  0  0  0  0  0  0  0  0  0  0  0
  182.6560  178.9010  144.3030 C   0  0  0  0  0  3  0  0  0  0  0  0
  183.9930  178.4300  141.8960 C   0  0  0  0  0  3  0  0  0  0  0  0
  184.0470  178.7610  144.2900 C   0  0  0  0  0  3  0  0  0  0  0  0
  181.8860  178.4740  140.7220 O   0  0  0  0  0  1  0  0  0  0  0  0
  190.7000  176.1670  139.3070 N   0  0  0  0  0  0  0  0  0  0  0  0
  191.0370  177.0950  140.1090 N   0  0  0  0  0  0  0  0  0  0  0  0
  190.2350  173.9210  137.7050 O   0  0  0  0  0  0  0  0  0  0  0  0
  191.4150  175.9770  138.0550 C   0  0  2  0  0  3  0  0  0  0  0  0
  191.3310  174.5370  137.6200 C   0  0  0  0  0  0  0  0  0  0  0  0
  193.7420  174.4450  137.0580 C   0  0  0  0  0  2  0  0  0  0  0  0
  193.7130  175.9660  137.0390 C   0  0  0  0  0  2  0  0  0  0  0  0
  192.8660  176.4380  138.2110 C   0  0  0  0  0  2  0  0  0  0  0  0
  192.4210  173.9100  137.0050 O   0  0  0  0  0  0  0  0  0  0  0  0
  1 12  1  0  0  0  0
  1 10  1  0  0  0  0
  2  8  1  0  0  0  0
  2  6  1  0  0  0  0
  3 11  1  0  0  0  0
  3  8  1  0  0  0  0
  4 14  2  0  0  0  0
  5 10  1  0  0  0  0
  6  5  2  0  0  0  0
  7 13  1  0  0  0  0
  8  1  2  0  0  0  0
  9  4  1  0  0  0  0
  9 16  1  0  0  0  0
 11 18  1  0  0  0  0
 13  2  2  0  0  0  0
 14 17  1  0  0  0  0
 14 15  1  0  0  0  0
 15 21  1  0  0  0  0
 15 11  2  0  0  0  0
 16  7  2  0  0  0  0
 16 17  1  0  0  0  0
 17  3  2  0  0  0  0
 18 12  2  0  0  0  0
 19 20  1  0  0  0  0
 20 22  2  0  0  0  0
 21 24  2  0  0  0  0
 23 19  2  0  0  0  0
 23 21  1  0  0  0  0
 24 22  1  0  0  0  0
 25 19  1  0  0  0  0
 26 27  2  0  0  0  0
 27  7  1  0  0  0  0
 29 33  1  0  0  0  0
 29 26  1  1  0  0  0
 30 28  2  0  0  0  0
 30 29  1  0  0  0  0
 32 31  1  0  0  0  0
 32 33  1  0  0  0  0
 34 31  1  0  0  0  0
 34 30  1  0  0  0  0
M  END
>  <MODEL>
1

>  <REMARK>
 VINA RESULT:     -12.4      0.000      0.000
  Name = 
  3 active torsions:
  status: ('A' for Active; 'I' for Inactive)
    1  A    between atoms: N_3  and  C_13
    2  A    between atoms: C_10  and  N_17
    3  A    between atoms: C_12  and  C_28
                            x       y       z     vdW  Elec       q    Type
                         _______ _______ _______ _____ _____    ______ ____

>  <TORSDO>
F 3

$$$$
=
 OpenBabel10252415113D

 34 40  0  0  1  0  0  0  0  0999 V2000
  184.1210  178.5640  144.8140 C   0  0  0  0  0  0  0  0  0  0  0  0
  184.5210  178.6080  142.3750 C   0  0  0  0  0  0  0  0  0  0  0  0
  186.2730  177.9690  143.9950 C   0  0  0  0  0  0  0  0  0  0  0  0
  189.6350  177.6000  142.9260 C   0  0  0  0  0  3  0  0  0  0  0  0
  182.3120  179.0850  143.3020 C   0  0  0  0  0  3  0  0  0  0  0  0
  183.1720  178.9460  142.2080 C   0  0  0  0  0  3  0  0  0  0  0  0
  186.6620  178.3860  140.9010 C   0  0  0  0  0  0  0  0  0  0  0  0
  184.9860  178.3770  143.7000 C   0  0  0  0  0  0  0  0  0  0  0  0
  188.9860  177.8910  141.6680 O   0  0  0  0  0  0  0  0  0  0  0  0
  182.7870  178.9060  144.6010 C   0  0  0  0  0  2  0  0  0  0  0  0
  186.7850  177.8610  145.2750 C   0  0  0  0  0  0  0  0  0  0  0  0
  184.6100  178.4220  146.1350 C   0  0  0  0  0  3  0  0  0  0  0  0
  185.2910  178.6070  141.1860 C   0  0  0  0  0  3  0  0  0  0  0  0
  188.4560  177.4820  143.8370 C   0  0  0  0  0  0  0  0  0  0  0  0
  188.1700  177.5880  145.2010 C   0  0  0  0  0  0  0  0  0  0  0  0
  187.6020  177.9970  141.8510 C   0  0  0  0  0  0  0  0  0  0  0  0
  187.3450  177.6970  143.1300 C   0  0  0  0  0  0  0  0  0  0  0  0
  185.9580  178.0880  146.3760 C   0  0  0  0  0  3  0  0  0  0  0  0
  191.2750  176.8050  147.2270 C   0  0  0  0  0  0  0  0  0  0  0  0
  190.9970  177.4700  148.4240 C   0  0  0  0  0  3  0  0  0  0  0  0
  189.1470  177.5420  146.3110 C   0  0  0  0  0  0  0  0  0  0  0  0
  189.7970  178.1720  148.5690 C   0  0  0  0  0  3  0  0  0  0  0  0
  190.3550  176.8420  146.1770 C   0  0  0  0  0  3  0  0  0  0  0  0
  188.8770  178.2080  147.5170 C   0  0  0  0  0  3  0  0  0  0  0  0
  192.4670  176.1080  147.0820 O   0  0  0  0  0  1  0  0  0  0  0  0
  186.4400  178.2170  138.5520 N   0  0  0  0  0  0  0  0  0  0  0  0
  187.1290  178.5720  139.5610 N   0  0  0  0  0  0  0  0  0  0  0  0
  184.9820  177.3690  136.3200 O   0  0  0  0  0  0  0  0  0  0  0  0
  186.9450  178.4210  137.2040 C   0  0  2  0  0  3  0  0  0  0  0  0
  186.2310  177.5130  136.2360 C   0  0  0  0  0  0  0  0  0  0  0  0
  188.3390  176.8560  135.1150 C   0  0  0  0  0  2  0  0  0  0  0  0
  188.9660  178.0900  135.7470 C   0  0  0  0  0  2  0  0  0  0  0  0
  188.4590  178.1970  137.1770 C   0  0  0  0  0  2  0  0  0  0  0  0
  186.9160  176.9250  135.1670 O   0  0  0  0  0  0  0  0  0  0  0  0
  1 12  1  0  0  0  0
  2  8  1  0  0  0  0
  3 11  1  0  0  0  0
  4 14  2  0  0  0  0
  5 10  1  0  0  0  0
  6  2  1  0  0  0  0
  6  5  2  0  0  0  0
  7 13  1  0  0  0  0
  7 16  2  0  0  0  0
  8  3  1  0  0  0  0
  8  1  2  0  0  0  0
  9 16  1  0  0  0  0
  9  4  1  0  0  0  0
 10  1  1  0  0  0  0
 11 18  1  0  0  0  0
 12 18  2  0  0  0  0
 13  2  2  0  0  0  0
 14 15  1  0  0  0  0
 15 11  2  0  0  0  0
 15 21  1  0  0  0  0
 16 17  1  0  0  0  0
 17 14  1  0  0  0  0
 17  3  2  0  0  0  0
 19 20  1  0  0  0  0
 20 22  2  0  0  0  0
 21 24  2  0  0  0  0
 23 21  1  0  0  0  0
 23 19  2  0  0  0  0
 24 22  1  0  0  0  0
 25 19  1  0  0  0  0
 26 27  2  0  0  0  0
 27  7  1  0  0  0  0
 29 26  1  1  0  0  0
 30 28  2  0  0  0  0
 30 29  1  0  0  0  0
 31 34  1  0  0  0  0
 31 32  1  0  0  0  0
 32 33  1  0  0  0  0
 33 29  1  0  0  0  0
 34 30  1  0  0  0  0
M  END
>  <MODEL>
2

>  <REMARK>
 VINA RESULT:     -12.3      2.910      6.171
  Name = 
  3 active torsions:
  status: ('A' for Active; 'I' for Inactive)
    1  A    between atoms: N_3  and  C_13
    2  A    between atoms: C_10  and  N_17
    3  A    between atoms: C_12  and  C_28
                            x       y       z     vdW  Elec       q    Type
                         _______ _______ _______ _____ _____    ______ ____

>  <TORSDO>
F 3

$$$$
=
 OpenBabel10252415113D

 34 40  0  0  1  0  0  0  0  0999 V2000
  186.4190  178.0090  146.0980 C   0  0  0  0  0  0  0  0  0  0  0  0
  188.0480  177.9060  144.2400 C   0  0  0  0  0  0  0  0  0  0  0  0
  185.6850  178.5360  143.8980 C   0  0  0  0  0  0  0  0  0  0  0  0
  184.3730  178.8040  140.6140 C   0  0  0  0  0  3  0  0  0  0  0  0
  188.7360  177.5010  146.5490 C   0  0  0  0  0  3  0  0  0  0  0  0
  189.0340  177.5960  145.1860 C   0  0  0  0  0  3  0  0  0  0  0  0
  187.8250  178.0470  141.6450 C   0  0  0  0  0  0  0  0  0  0  0  0
  186.7300  178.1530  144.7160 C   0  0  0  0  0  0  0  0  0  0  0  0
  185.7560  178.5030  140.3240 O   0  0  0  0  0  0  0  0  0  0  0  0
  187.4320  177.6940  147.0020 C   0  0  0  0  0  2  0  0  0  0  0  0
  184.3710  178.6580  144.3130 C   0  0  0  0  0  0  0  0  0  0  0  0
  185.0900  178.1660  146.5550 C   0  0  0  0  0  3  0  0  0  0  0  0
  188.4770  177.8650  142.8910 C   0  0  0  0  0  3  0  0  0  0  0  0
  184.4190  178.9680  142.0980 C   0  0  0  0  0  0  0  0  0  0  0  0
  183.5480  178.8960  143.1890 C   0  0  0  0  0  0  0  0  0  0  0  0
  186.4950  178.4330  141.5110 C   0  0  0  0  0  0  0  0  0  0  0  0
  185.6710  178.7650  142.5130 C   0  0  0  0  0  0  0  0  0  0  0  0
  184.0460  178.4730  145.6580 C   0  0  0  0  0  3  0  0  0  0  0  0
  180.0060  179.3850  141.9320 C   0  0  0  0  0  0  0  0  0  0  0  0
  179.2630  179.0150  143.0560 C   0  0  0  0  0  3  0  0  0  0  0  0
  182.0700  178.9420  143.1390 C   0  0  0  0  0  0  0  0  0  0  0  0
  179.9170  178.6070  144.2210 C   0  0  0  0  0  3  0  0  0  0  0  0
  181.4020  179.3480  141.9740 C   0  0  0  0  0  3  0  0  0  0  0  0
  181.3140  178.5700  144.2620 C   0  0  0  0  0  3  0  0  0  0  0  0
  179.3570  179.7910  140.7740 O   0  0  0  0  0  1  0  0  0  0  0  0
  188.6230  178.6940  139.5140 N   0  0  0  0  0  0  0  0  0  0  0  0
  188.5630  177.8230  140.4390 N   0  0  0  0  0  0  0  0  0  0  0  0
  187.6770  179.5180  137.0140 O   0  0  0  0  0  0  0  0  0  0  0  0
  189.3810  178.4320  138.3010 C   0  0  2  0  0  3  0  0  0  0  0  0
  188.4920  178.5600  137.0920 C   0  0  0  0  0  0  0  0  0  0  0  0
  189.3740  176.4800  136.0780 C   0  0  0  0  0  2  0  0  0  0  0  0
  190.5580  176.6170  137.0230 C   0  0  0  0  0  2  0  0  0  0  0  0
  190.0300  177.0480  138.3830 C   0  0  0  0  0  2  0  0  0  0  0  0
  188.6440  177.7020  135.9970 O   0  0  0  0  0  0  0  0  0  0  0  0
  1 12  1  0  0  0  0
  1 10  1  0  0  0  0
  2  8  1  0  0  0  0
  2  6  1  0  0  0  0
  3 11  1  0  0  0  0
  3  8  1  0  0  0  0
  4 14  2  0  0  0  0
  5 10  1  0  0  0  0
  6  5  2  0  0  0  0
  7 13  1  0  0  0  0
  8  1  2  0  0  0  0
  9  4  1  0  0  0  0
  9 16  1  0  0  0  0
 11 18  1  0  0  0  0
 13  2  2  0  0  0  0
 14 17  1  0  0  0  0
 14 15  1  0  0  0  0
 15 11  2  0  0  0  0
 16  7  2  0  0  0  0
 16 17  1  0  0  0  0
 17  3  2  0  0  0  0
 18 12  2  0  0  0  0
 19 23  2  0  0  0  0
 19 20  1  0  0  0  0
 20 22  2  0  0  0  0
 21 15  1  0  0  0  0
 21 24  2  0  0  0  0
 22 24  1  0  0  0  0
 23 21  1  0  0  0  0
 25 19  1  0  0  0  0
 26 27  2  0  0  0  0
 27  7  1  0  0  0  0
 28 30  2  0  0  0  0
 29 33  1  0  0  0  0
 29 26  1  1  0  0  0
 30 29  1  0  0  0  0
 31 32  1  0  0  0  0
 32 33  1  0  0  0  0
 34 31  1  0  0  0  0
 34 30  1  0  0  0  0
M  END
>  <MODEL>
3

>  <REMARK>
 VINA RESULT:     -12.1      2.229      3.213
  Name = 
  3 active torsions:
  status: ('A' for Active; 'I' for Inactive)
    1  A    between atoms: N_3  and  C_13
    2  A    between atoms: C_10  and  N_17
    3  A    between atoms: C_12  and  C_28
                            x       y       z     vdW  Elec       q    Type
                         _______ _______ _______ _____ _____    ______ ____

>  <TORSDO>
F 3

$$$$
=
 OpenBabel10252415113D

 34 40  0  0  1  0  0  0  0  0999 V2000
  186.6560  177.8460  145.8680 C   0  0  0  0  0  0  0  0  0  0  0  0
  188.3840  177.9310  144.1020 C   0  0  0  0  0  0  0  0  0  0  0  0
  186.0190  178.4970  143.6720 C   0  0  0  0  0  0  0  0  0  0  0  0
  184.8730  178.9440  140.3450 C   0  0  0  0  0  3  0  0  0  0  0  0
  188.9650  177.3920  146.4120 C   0  0  0  0  0  3  0  0  0  0  0  0
  189.3300  177.5920  145.0780 C   0  0  0  0  0  3  0  0  0  0  0  0
  188.2930  178.2430  141.5130 C   0  0  0  0  0  0  0  0  0  0  0  0
  187.0340  178.0960  144.5190 C   0  0  0  0  0  0  0  0  0  0  0  0
  186.2800  178.7140  140.1130 O   0  0  0  0  0  0  0  0  0  0  0  0
  187.6310  177.5060  146.8040 C   0  0  0  0  0  2  0  0  0  0  0  0
  184.6810  178.5420  144.0210 C   0  0  0  0  0  0  0  0  0  0  0  0
  185.2990  177.9220  146.2610 C   0  0  0  0  0  3  0  0  0  0  0  0
  188.8850  177.9990  142.7790 C   0  0  0  0  0  3  0  0  0  0  0  0
  184.8330  179.0070  141.8370 C   0  0  0  0  0  0  0  0  0  0  0  0
  183.9100  178.8270  142.8710 C   0  0  0  0  0  0  0  0  0  0  0  0
  186.9570  178.5890  141.3320 C   0  0  0  0  0  0  0  0  0  0  0  0
  186.0690  178.8210  142.3070 C   0  0  0  0  0  0  0  0  0  0  0  0
  184.2930  178.2530  145.3300 C   0  0  0  0  0  3  0  0  0  0  0  0
  180.4310  178.6250  141.3800 C   0  0  0  0  0  0  0  0  0  0  0  0
  179.6360  178.8070  142.5150 C   0  0  0  0  0  3  0  0  0  0  0  0
  182.4360  178.8230  142.7420 C   0  0  0  0  0  0  0  0  0  0  0  0
  180.2340  178.9960  143.7630 C   0  0  0  0  0  3  0  0  0  0  0  0
  181.8230  178.6320  141.4950 C   0  0  0  0  0  3  0  0  0  0  0  0
  181.6280  179.0030  143.8760 C   0  0  0  0  0  3  0  0  0  0  0  0
  179.8370  178.4360  140.1400 O   0  0  0  0  0  1  0  0  0  0  0  0
  189.6470  177.0310  139.9980 N   0  0  0  0  0  0  0  0  0  0  0  0
  189.1020  178.1300  140.3380 N   0  0  0  0  0  0  0  0  0  0  0  0
  188.7240  175.7150  137.7100 O   0  0  0  0  0  0  0  0  0  0  0  0
  190.4630  176.9520  138.7980 C   0  0  2  0  0  3  0  0  0  0  0  0
  189.9610  175.8520  137.8980 C   0  0  0  0  0  0  0  0  0  0  0  0
  192.2480  174.9970  137.4740 C   0  0  0  0  0  2  0  0  0  0  0  0
  192.7550  176.3440  137.9670 C   0  0  0  0  0  2  0  0  0  0  0  0
  191.9310  176.7450  139.1810 C   0  0  0  0  0  2  0  0  0  0  0  0
  190.8560  175.0590  137.1700 O   0  0  0  0  0  0  0  0  0  0  0  0
  1 12  1  0  0  0  0
  1 10  1  0  0  0  0
  2  8  1  0  0  0  0
  2  6  1  0  0  0  0
  3 11  1  0  0  0  0
  3  8  1  0  0  0  0
  4 14  2  0  0  0  0
  5 10  1  0  0  0  0
  6  5  2  0  0  0  0
  7 13  1  0  0  0  0
  8  1  2  0  0  0  0
  9  4  1  0  0  0  0
  9 16  1  0  0  0  0
 11 18  1  0  0  0  0
 13  2  2  0  0  0  0
 14 17  1  0  0  0  0
 14 15  1  0  0  0  0
 15 11  2  0  0  0  0
 16  7  2  0  0  0  0
 16 17  1  0  0  0  0
 17  3  2  0  0  0  0
 18 12  2  0  0  0  0
 19 23  2  0  0  0  0
 19 20  1  0  0  0  0
 20 22  2  0  0  0  0
 21 15  1  0  0  0  0
 21 24  2  0  0  0  0
 22 24  1  0  0  0  0
 23 21  1  0  0  0  0
 25 19  1  0  0  0  0
 26 27  2  0  0  0  0
 27  7  1  0  0  0  0
 28 30  2  0  0  0  0
 29 33  1  0  0  0  0
 29 26  1  1  0  0  0
 30 29  1  0  0  0  0
 31 32  1  0  0  0  0
 32 33  1  0  0  0  0
 34 31  1  0  0  0  0
 34 30  1  0  0  0  0
M  END
>  <MODEL>
4

>  <REMARK>
 VINA RESULT:     -11.6      1.382      2.241
  Name = 
  3 active torsions:
  status: ('A' for Active; 'I' for Inactive)
    1  A    between atoms: N_3  and  C_13
    2  A    between atoms: C_10  and  N_17
    3  A    between atoms: C_12  and  C_28
                            x       y       z     vdW  Elec       q    Type
                         _______ _______ _______ _____ _____    ______ ____

>  <TORSDO>
F 3

$$$$
=
 OpenBabel10252415113D

 34 40  0  0  1  0  0  0  0  0999 V2000
  185.4730  178.3330  145.3670 C   0  0  0  0  0  0  0  0  0  0  0  0
  185.5510  178.6160  142.9120 C   0  0  0  0  0  0  0  0  0  0  0  0
  187.4090  177.6090  144.1910 C   0  0  0  0  0  0  0  0  0  0  0  0
  190.5300  177.0080  142.6170 C   0  0  0  0  0  3  0  0  0  0  0  0
  183.5580  179.2160  144.1910 C   0  0  0  0  0  3  0  0  0  0  0  0
  184.2430  179.1140  142.9760 C   0  0  0  0  0  3  0  0  0  0  0  0
  187.4360  178.3380  141.1300 C   0  0  0  0  0  0  0  0  0  0  0  0
  186.1540  178.1840  144.1260 C   0  0  0  0  0  0  0  0  0  0  0  0
  189.7630  177.5100  141.5010 O   0  0  0  0  0  0  0  0  0  0  0  0
  184.1750  178.8380  145.3830 C   0  0  0  0  0  2  0  0  0  0  0  0
  188.0680  177.2990  145.3670 C   0  0  0  0  0  0  0  0  0  0  0  0
  186.1100  177.9870  146.5830 C   0  0  0  0  0  3  0  0  0  0  0  0
  186.1510  178.6700  141.6310 C   0  0  0  0  0  3  0  0  0  0  0  0
  189.4770  176.9120  143.6720 C   0  0  0  0  0  0  0  0  0  0  0  0
  189.3870  176.8900  145.0670 C   0  0  0  0  0  0  0  0  0  0  0  0
  188.4380  177.7420  141.8910 C   0  0  0  0  0  0  0  0  0  0  0  0
  188.3170  177.3260  143.1580 C   0  0  0  0  0  0  0  0  0  0  0  0
  187.4270  177.4850  146.5930 C   0  0  0  0  0  3  0  0  0  0  0  0
  191.6890  177.1080  148.0700 C   0  0  0  0  0  0  0  0  0  0  0  0
  192.5790  176.0620  147.8100 C   0  0  0  0  0  3  0  0  0  0  0  0
  190.4890  176.6110  146.0140 C   0  0  0  0  0  0  0  0  0  0  0  0
  192.4270  175.2890  146.6560 C   0  0  0  0  0  3  0  0  0  0  0  0
  190.6490  177.3790  147.1780 C   0  0  0  0  0  3  0  0  0  0  0  0
  191.3870  175.5620  145.7630 C   0  0  0  0  0  3  0  0  0  0  0  0
  191.8380  177.8760  149.2170 O   0  0  0  0  0  1  0  0  0  0  0  0
  187.5710  177.7690  138.8380 N   0  0  0  0  0  0  0  0  0  0  0  0
  187.7420  178.6270  139.7620 N   0  0  0  0  0  0  0  0  0  0  0  0
  185.5780  177.8780  136.8780 O   0  0  0  0  0  0  0  0  0  0  0  0
  187.8920  178.0970  137.4580 C   0  0  2  0  0  3  0  0  0  0  0  0
  186.7750  177.6640  136.5450 C   0  0  0  0  0  0  0  0  0  0  0  0
  188.3420  176.6710  134.9040 C   0  0  0  0  0  2  0  0  0  0  0  0
  189.4320  177.5050  135.5620 C   0  0  0  0  0  2  0  0  0  0  0  0
  189.2240  177.4500  137.0680 C   0  0  0  0  0  2  0  0  0  0  0  0
  187.0480  177.1410  135.2760 O   0  0  0  0  0  0  0  0  0  0  0  0
  1 10  1  0  0  0  0
  1 12  1  0  0  0  0
  2  6  1  0  0  0  0
  2  8  1  0  0  0  0
  3 11  1  0  0  0  0
  4 14  2  0  0  0  0
  5 10  1  0  0  0  0
  6  5  2  0  0  0  0
  7 13  1  0  0  0  0
  7 16  2  0  0  0  0
  8  3  1  0  0  0  0
  8  1  2  0  0  0  0
  9 16  1  0  0  0  0
  9  4  1  0  0  0  0
 11 18  1  0  0  0  0
 12 18  2  0  0  0  0
 13  2  2  0  0  0  0
 14 15  1  0  0  0  0
 15 11  2  0  0  0  0
 15 21  1  0  0  0  0
 16 17  1  0  0  0  0
 17 14  1  0  0  0  0
 17  3  2  0  0  0  0
 19 25  1  0  0  0  0
 20 19  1  0  0  0  0
 21 23  1  0  0  0  0
 22 20  2  0  0  0  0
 23 19  2  0  0  0  0
 24 21  2  0  0  0  0
 24 22  1  0  0  0  0
 26 27  2  0  0  0  0
 27  7  1  0  0  0  0
 29 26  1  1  0  0  0
 30 28  2  0  0  0  0
 30 29  1  0  0  0  0
 31 34  1  0  0  0  0
 31 32  1  0  0  0  0
 32 33  1  0  0  0  0
 33 29  1  0  0  0  0
 34 30  1  0  0  0  0
M  END
>  <MODEL>
5

>  <REMARK>
 VINA RESULT:     -11.4      2.775      6.189
  Name = 
  3 active torsions:
  status: ('A' for Active; 'I' for Inactive)
    1  A    between atoms: N_3  and  C_13
    2  A    between atoms: C_10  and  N_17
    3  A    between atoms: C_12  and  C_28
                            x       y       z     vdW  Elec       q    Type
                         _______ _______ _______ _____ _____    ______ ____

>  <TORSDO>
F 3

$$$$
=
 OpenBabel10252415113D

 34 40  0  0  1  0  0  0  0  0999 V2000
  189.0180  177.4510  146.2090 C   0  0  0  0  0  0  0  0  0  0  0  0
  186.6700  178.1230  145.8190 C   0  0  0  0  0  0  0  0  0  0  0  0
  188.2050  177.5310  143.9760 C   0  0  0  0  0  0  0  0  0  0  0  0
  187.2620  178.1400  140.6110 C   0  0  0  0  0  3  0  0  0  0  0  0
  187.5600  177.8950  148.0820 C   0  0  0  0  0  3  0  0  0  0  0  0
  186.5090  178.1920  147.2090 C   0  0  0  0  0  3  0  0  0  0  0  0
  185.3000  178.7010  143.6750 C   0  0  0  0  0  0  0  0  0  0  0  0
  187.9370  177.7080  145.3200 C   0  0  0  0  0  0  0  0  0  0  0  0
  186.0640  178.5580  141.3030 O   0  0  0  0  0  0  0  0  0  0  0  0
  188.8120  177.5380  147.5850 C   0  0  0  0  0  2  0  0  0  0  0  0
  189.4570  177.2520  143.4580 C   0  0  0  0  0  0  0  0  0  0  0  0
  190.3000  177.1270  145.7070 C   0  0  0  0  0  3  0  0  0  0  0  0
  185.5520  178.5530  145.0630 C   0  0  0  0  0  3  0  0  0  0  0  0
  188.0620  177.5720  141.7380 C   0  0  0  0  0  0  0  0  0  0  0  0
  189.3990  177.3070  142.0470 C   0  0  0  0  0  0  0  0  0  0  0  0
  186.1920  178.3210  142.6770 C   0  0  0  0  0  0  0  0  0  0  0  0
  187.3600  177.6950  142.8660 C   0  0  0  0  0  0  0  0  0  0  0  0
  190.5350  177.0450  144.3200 C   0  0  0  0  0  3  0  0  0  0  0  0
  191.3770  176.7390  138.8640 C   0  0  0  0  0  0  0  0  0  0  0  0
  192.6660  177.0840  139.2770 C   0  0  0  0  0  3  0  0  0  0  0  0
  190.5240  177.2250  141.0890 C   0  0  0  0  0  0  0  0  0  0  0  0
  192.8890  177.5010  140.5920 C   0  0  0  0  0  3  0  0  0  0  0  0
  190.3120  176.8110  139.7650 C   0  0  0  0  0  3  0  0  0  0  0  0
  191.8220  177.5720  141.4930 C   0  0  0  0  0  3  0  0  0  0  0  0
  191.1540  176.3250  137.5580 O   0  0  0  0  0  1  0  0  0  0  0  0
  183.1370  178.5790  142.7240 N   0  0  0  0  0  0  0  0  0  0  0  0
  184.0590  179.2770  143.2560 N   0  0  0  0  0  0  0  0  0  0  0  0
  180.8600  178.4640  144.3450 O   0  0  0  0  0  0  0  0  0  0  0  0
  181.8880  179.1980  142.3090 C   0  0  2  0  0  3  0  0  0  0  0  0
  180.7390  178.6350  143.1030 C   0  0  0  0  0  0  0  0  0  0  0  0
  179.3230  178.3740  141.0870 C   0  0  0  0  0  2  0  0  0  0  0  0
  180.2640  179.3510  140.3990 C   0  0  0  0  0  2  0  0  0  0  0  0
  181.6880  179.0020  140.8040 C   0  0  0  0  0  2  0  0  0  0  0  0
  179.4940  178.4140  142.5020 O   0  0  0  0  0  0  0  0  0  0  0  0
  1 10  1  0  0  0  0
  2  6  1  0  0  0  0
  3  8  1  0  0  0  0
  4  9  1  0  0  0  0
  4 14  2  0  0  0  0
  6  5  2  0  0  0  0
  7 13  1  0  0  0  0
  8  2  1  0  0  0  0
  8  1  2  0  0  0  0
  9 16  1  0  0  0  0
 10  5  1  0  0  0  0
 11  3  1  0  0  0  0
 11 18  1  0  0  0  0
 12  1  1  0  0  0  0
 13  2  2  0  0  0  0
 14 15  1  0  0  0  0
 14 17  1  0  0  0  0
 15 11  2  0  0  0  0
 16 17  1  0  0  0  0
 16  7  2  0  0  0  0
 17  3  2  0  0  0  0
 18 12  2  0  0  0  0
 19 20  2  0  0  0  0
 19 23  1  0  0  0  0
 20 22  1  0  0  0  0
 21 24  1  0  0  0  0
 21 15  1  0  0  0  0
 22 24  2  0  0  0  0
 23 21  2  0  0  0  0
 25 19  1  0  0  0  0
 26 27  2  0  0  0  0
 27  7  1  0  0  0  0
 29 26  1  1  0  0  0
 29 30  1  0  0  0  0
 30 28  2  0  0  0  0
 31 34  1  0  0  0  0
 32 33  1  0  0  0  0
 32 31  1  0  0  0  0
 33 29  1  0  0  0  0
 34 30  1  0  0  0  0
M  END
>  <MODEL>
6

>  <REMARK>
 VINA RESULT:     -11.4      2.596      8.014
  Name = 
  3 active torsions:
  status: ('A' for Active; 'I' for Inactive)
    1  A    between atoms: N_3  and  C_13
    2  A    between atoms: C_10  and  N_17
    3  A    between atoms: C_12  and  C_28
                            x       y       z     vdW  Elec       q    Type
                         _______ _______ _______ _____ _____    ______ ____

>  <TORSDO>
F 3

$$$$
=
 OpenBabel10252415113D

 34 40  0  0  1  0  0  0  0  0999 V2000
  184.3190  178.6670  142.3080 C   0  0  0  0  0  0  0  0  0  0  0  0
  185.7030  178.4360  140.2720 C   0  0  0  0  0  0  0  0  0  0  0  0
  186.5700  177.9340  142.5300 C   0  0  0  0  0  0  0  0  0  0  0  0
  190.0370  177.3670  143.0190 C   0  0  0  0  0  3  0  0  0  0  0  0
  183.3470  179.0650  140.1330 C   0  0  0  0  0  3  0  0  0  0  0  0
  184.5730  178.7870  139.5220 C   0  0  0  0  0  3  0  0  0  0  0  0
  188.2430  178.0020  139.8670 C   0  0  0  0  0  0  0  0  0  0  0  0
  185.5550  178.3390  141.6840 C   0  0  1  0  0  3  0  0  0  0  0  0
  189.9950  177.5360  141.5840 O   0  0  0  0  0  0  0  0  0  0  0  0
  183.2230  179.0170  141.5210 C   0  0  0  0  0  3  0  0  0  0  0  0
  186.4910  177.9530  143.9110 C   0  0  0  0  0  0  0  0  0  0  0  0
  184.2000  178.6580  143.7180 C   0  0  0  0  0  3  0  0  0  0  0  0
  186.8960  178.2860  139.5250 C   0  0  0  0  0  3  0  0  0  0  0  0
  188.5800  177.3780  143.3530 C   0  0  0  0  0  0  0  0  0  0  0  0
  187.7580  177.6400  144.4530 C   0  0  0  0  0  0  0  0  0  0  0  0
  188.6710  177.6950  141.1550 C   0  0  0  0  0  0  0  0  0  0  0  0
  187.8840  177.5430  142.2270 C   0  0  0  0  0  0  0  0  0  0  0  0
  185.2970  178.3190  144.5350 C   0  0  0  0  0  3  0  0  0  0  0  0
  189.8690  177.3850  147.5910 C   0  0  0  0  0  0  0  0  0  0  0  0
  188.9590  177.8000  148.5670 C   0  0  0  0  0  3  0  0  0  0  0  0
  188.1760  177.6900  145.8710 C   0  0  0  0  0  0  0  0  0  0  0  0
  187.6600  178.1620  148.2010 C   0  0  0  0  0  3  0  0  0  0  0  0
  189.4790  177.3320  146.2500 C   0  0  0  0  0  3  0  0  0  0  0  0
  187.2720  178.1080  146.8590 C   0  0  0  0  0  3  0  0  0  0  0  0
  191.1600  177.0260  147.9530 O   0  0  0  0  0  1  0  0  0  0  0  0
  189.5890  176.9800  138.2110 N   0  0  0  0  0  0  0  0  0  0  0  0
  189.2390  178.0300  138.8390 N   0  0  0  0  0  0  0  0  0  0  0  0
  188.9210  176.6380  135.5170 O   0  0  0  0  0  0  0  0  0  0  0  0
  190.6040  177.0440  137.1720 C   0  0  2  0  0  3  0  0  0  0  0  0
  190.0960  176.4050  135.9060 C   0  0  0  0  0  0  0  0  0  0  0  0
  192.2110  175.1670  135.5440 C   0  0  0  0  0  2  0  0  0  0  0  0
  192.8570  176.1490  136.5110 C   0  0  0  0  0  2  0  0  0  0  0  0
  191.8930  176.3800  137.6640 C   0  0  0  0  0  2  0  0  0  0  0  0
  190.9510  175.6560  135.0900 O   0  0  0  0  0  0  0  0  0  0  0  0
  1 12  1  0  0  0  0
  3 11  1  0  0  0  0
  4 14  2  0  0  0  0
  5 10  1  0  0  0  0
  6  5  2  0  0  0  0
  6  2  1  0  0  0  0
  7 16  2  0  0  0  0
  8  2  1  1  0  0  0
  8  1  1  0  0  0  0
  8  3  1  0  0  0  0
  9  4  1  0  0  0  0
 10  1  2  0  0  0  0
 11 15  2  0  0  0  0
 11 18  1  0  0  0  0
 12 18  2  0  0  0  0
 13  7  1  0  0  0  0
 13  2  2  0  0  0  0
 14 15  1  0  0  0  0
 15 21  1  0  0  0  0
 16  9  1  0  0  0  0
 16 17  1  0  0  0  0
 17  3  2  0  0  0  0
 17 14  1  0  0  0  0
 19 25  1  0  0  0  0
 19 20  1  0  0  0  0
 21 23  1  0  0  0  0
 21 24  2  0  0  0  0
 22 20  2  0  0  0  0
 23 19  2  0  0  0  0
 24 22  1  0  0  0  0
 26 27  2  0  0  0  0
 27  7  1  0  0  0  0
 28 30  2  0  0  0  0
 29 33  1  0  0  0  0
 29 26  1  1  0  0  0
 30 29  1  0  0  0  0
 31 32  1  0  0  0  0
 32 33  1  0  0  0  0
 34 31  1  0  0  0  0
 34 30  1  0  0  0  0
M  END
>  <MODEL>
7

>  <REMARK>
 VINA RESULT:     -11.0      2.175      5.298
  Name = 
  3 active torsions:
  status: ('A' for Active; 'I' for Inactive)
    1  A    between atoms: N_3  and  C_13
    2  A    between atoms: C_10  and  N_17
    3  A    between atoms: C_12  and  C_28
                            x       y       z     vdW  Elec       q    Type
                         _______ _______ _______ _____ _____    ______ ____

>  <TORSDO>
F 3

$$$$
=
 OpenBabel10252415113D

 34 40  0  0  1  0  0  0  0  0999 V2000
  186.6100  177.9160  144.6740 C   0  0  0  0  0  0  0  0  0  0  0  0
  188.5250  177.7910  143.1150 C   0  0  0  0  0  0  0  0  0  0  0  0
  186.2520  178.4100  142.3750 C   0  0  0  0  0  0  0  0  0  0  0  0
  185.5050  178.6280  138.9150 C   0  0  0  0  0  3  0  0  0  0  0  0
  188.8190  177.4200  145.5120 C   0  0  0  0  0  3  0  0  0  0  0  0
  189.3400  177.4970  144.2170 C   0  0  0  0  0  3  0  0  0  0  0  0
  188.7370  177.8940  140.5170 C   0  0  0  0  0  0  0  0  0  0  0  0
  187.1460  178.0410  143.3610 C   0  0  0  0  0  0  0  0  0  0  0  0
  186.9170  178.3260  138.8630 O   0  0  0  0  0  0  0  0  0  0  0  0
  187.4580  177.6160  145.7380 C   0  0  0  0  0  2  0  0  0  0  0  0
  184.8870  178.5350  142.5640 C   0  0  0  0  0  0  0  0  0  0  0  0
  185.2220  178.0760  144.9010 C   0  0  0  0  0  3  0  0  0  0  0  0
  189.1720  177.7310  141.8570 C   0  0  0  0  0  3  0  0  0  0  0  0
  185.3030  178.8140  140.3830 C   0  0  0  0  0  0  0  0  0  0  0  0
  184.2630  178.7550  141.3150 C   0  0  0  0  0  0  0  0  0  0  0  0
  187.4480  178.2750  140.1580 C   0  0  0  0  0  0  0  0  0  0  0  0
  186.4680  178.6190  141.0040 C   0  0  0  0  0  0  0  0  0  0  0  0
  184.3430  178.3680  143.8390 C   0  0  0  0  0  3  0  0  0  0  0  0
  180.5120  178.3140  141.6400 C   0  0  0  0  0  0  0  0  0  0  0  0
  180.0650  178.8910  140.4490 C   0  0  0  0  0  3  0  0  0  0  0  0
  182.8140  178.7960  141.0190 C   0  0  0  0  0  0  0  0  0  0  0  0
  180.9850  179.4230  139.5420 C   0  0  0  0  0  3  0  0  0  0  0  0
  181.8800  178.2680  141.9230 C   0  0  0  0  0  3  0  0  0  0  0  0
  182.3530  179.3760  139.8270 C   0  0  0  0  0  3  0  0  0  0  0  0
  179.5980  177.7860  142.5410 O   0  0  0  0  0  1  0  0  0  0  0  0
  190.1640  176.5030  139.2420 N   0  0  0  0  0  0  0  0  0  0  0  0
  189.6660  177.6540  139.4540 N   0  0  0  0  0  0  0  0  0  0  0  0
  189.9890  174.2500  137.5940 O   0  0  0  0  0  0  0  0  0  0  0  0
  191.1050  176.2950  138.1530 C   0  0  2  0  0  3  0  0  0  0  0  0
  191.0880  174.8530  137.7190 C   0  0  0  0  0  0  0  0  0  0  0  0
  193.5610  174.7280  137.6350 C   0  0  0  0  0  2  0  0  0  0  0  0
  193.5550  176.2490  137.6010 C   0  0  0  0  0  2  0  0  0  0  0  0
  192.5040  176.7400  138.5840 C   0  0  0  0  0  2  0  0  0  0  0  0
  192.2690  174.2080  137.3300 O   0  0  0  0  0  0  0  0  0  0  0  0
  1 12  1  0  0  0  0
  1 10  1  0  0  0  0
  2  8  1  0  0  0  0
  2  6  1  0  0  0  0
  3 11  1  0  0  0  0
  3  8  1  0  0  0  0
  4 14  2  0  0  0  0
  5 10  1  0  0  0  0
  6  5  2  0  0  0  0
  7 13  1  0  0  0  0
  8  1  2  0  0  0  0
  9  4  1  0  0  0  0
  9 16  1  0  0  0  0
 11 18  1  0  0  0  0
 13  2  2  0  0  0  0
 14 17  1  0  0  0  0
 14 15  1  0  0  0  0
 15 11  2  0  0  0  0
 16  7  2  0  0  0  0
 16 17  1  0  0  0  0
 17  3  2  0  0  0  0
 18 12  2  0  0  0  0
 19 23  1  0  0  0  0
 19 25  1  0  0  0  0
 20 19  2  0  0  0  0
 21 15  1  0  0  0  0
 21 23  2  0  0  0  0
 22 24  2  0  0  0  0
 22 20  1  0  0  0  0
 24 21  1  0  0  0  0
 26 27  2  0  0  0  0
 27  7  1  0  0  0  0
 28 30  2  0  0  0  0
 29 33  1  0  0  0  0
 29 26  1  1  0  0  0
 30 29  1  0  0  0  0
 32 31  1  0  0  0  0
 32 33  1  0  0  0  0
 34 31  1  0  0  0  0
 34 30  1  0  0  0  0
M  END
>  <MODEL>
8

>  <REMARK>
 VINA RESULT:     -10.7      1.350      2.452
  Name = 
  3 active torsions:
  status: ('A' for Active; 'I' for Inactive)
    1  A    between atoms: N_3  and  C_13
    2  A    between atoms: C_10  and  N_17
    3  A    between atoms: C_12  and  C_28
                            x       y       z     vdW  Elec       q    Type
                         _______ _______ _______ _____ _____    ______ ____

>  <TORSDO>
F 3

$$$$
=
 OpenBabel10252415113D

 34 40  0  0  1  0  0  0  0  0999 V2000
  183.4750  178.8530  142.3570 C   0  0  0  0  0  0  0  0  0  0  0  0
  185.2740  178.5120  144.0180 C   0  0  0  0  0  0  0  0  0  0  0  0
  185.7070  178.5770  141.5870 C   0  0  0  0  0  0  0  0  0  0  0  0
  188.8850  177.6380  140.3210 C   0  0  0  0  0  3  0  0  0  0  0  0
  182.9710  178.9260  144.7180 C   0  0  0  0  0  3  0  0  0  0  0  0
  184.3120  178.6740  145.0230 C   0  0  0  0  0  3  0  0  0  0  0  0
  187.7910  177.8520  143.8300 C   0  0  0  0  0  0  0  0  0  0  0  0
  184.8480  178.6440  142.6670 C   0  0  0  0  0  0  0  0  0  0  0  0
  189.1200  177.5220  141.7420 O   0  0  0  0  0  0  0  0  0  0  0  0
  182.5510  179.0030  143.3900 C   0  0  0  0  0  2  0  0  0  0  0  0
  185.3030  178.5740  140.2650 C   0  0  0  0  0  0  0  0  0  0  0  0
  183.0390  178.8930  141.0120 C   0  0  0  0  0  3  0  0  0  0  0  0
  186.5670  178.1600  144.4770 C   0  0  0  0  0  3  0  0  0  0  0  0
  187.5140  178.2320  140.3030 C   0  0  0  0  0  0  0  0  0  0  0  0
  186.4210  178.3230  139.4370 C   0  0  0  0  0  0  0  0  0  0  0  0
  187.9880  177.9350  142.4550 C   0  0  0  0  0  0  0  0  0  0  0  0
  187.0980  178.3880  141.5620 C   0  0  0  0  0  0  0  0  0  0  0  0
  183.9520  178.7320  139.9500 C   0  0  0  0  0  3  0  0  0  0  0  0
  185.4450  177.1020  135.9840 C   0  0  0  0  0  0  0  0  0  0  0  0
  186.4660  177.6470  135.2020 C   0  0  0  0  0  3  0  0  0  0  0  0
  186.4340  178.0840  137.9770 C   0  0  0  0  0  0  0  0  0  0  0  0
  187.4710  178.4100  135.8010 C   0  0  0  0  0  3  0  0  0  0  0  0
  185.4290  177.3210  137.3640 C   0  0  0  0  0  3  0  0  0  0  0  0
  187.4540  178.6280  137.1820 C   0  0  0  0  0  3  0  0  0  0  0  0
  184.4450  176.3440  135.3900 O   0  0  0  0  0  1  0  0  0  0  0  0
  189.9980  178.0730  144.6530 N   0  0  0  0  0  0  0  0  0  0  0  0
  188.9040  177.4240  144.6230 N   0  0  0  0  0  0  0  0  0  0  0  0
  191.8550  176.2350  143.6550 O   0  0  0  0  0  0  0  0  0  0  0  0
  191.1090  177.6090  145.4690 C   0  0  2  0  0  3  0  0  0  0  0  0
  191.6810  176.3380  144.8980 C   0  0  0  0  0  0  0  0  0  0  0  0
  191.7940  175.2520  147.1220 C   0  0  0  0  0  2  0  0  0  0  0  0
  191.6800  176.6470  147.7180 C   0  0  0  0  0  2  0  0  0  0  0  0
  190.6470  177.4220  146.9160 C   0  0  0  0  0  2  0  0  0  0  0  0
  192.1380  175.3170  145.7390 O   0  0  0  0  0  0  0  0  0  0  0  0
  1  8  2  0  0  0  0
  1 10  1  0  0  0  0
  2 13  2  0  0  0  0
  2  6  1  0  0  0  0
  3  8  1  0  0  0  0
  4  9  1  0  0  0  0
  5  6  2  0  0  0  0
  7 13  1  0  0  0  0
  7 27  1  0  0  0  0
  8  2  1  0  0  0  0
  9 16  1  0  0  0  0
 10  5  1  0  0  0  0
 11  3  1  0  0  0  0
 12  1  1  0  0  0  0
 14  4  2  0  0  0  0
 14 17  1  0  0  0  0
 15 11  2  0  0  0  0
 15 14  1  0  0  0  0
 16  7  2  0  0  0  0
 17  3  2  0  0  0  0
 17 16  1  0  0  0  0
 18 11  1  0  0  0  0
 18 12  2  0  0  0  0
 19 23  1  0  0  0  0
 20 22  1  0  0  0  0
 20 19  2  0  0  0  0
 21 15  1  0  0  0  0
 22 24  2  0  0  0  0
 23 21  2  0  0  0  0
 24 21  1  0  0  0  0
 25 19  1  0  0  0  0
 27 26  2  0  0  0  0
 28 30  2  0  0  0  0
 29 26  1  6  0  0  0
 29 33  1  0  0  0  0
 30 29  1  0  0  0  0
 30 34  1  0  0  0  0
 31 32  1  0  0  0  0
 33 32  1  0  0  0  0
 34 31  1  0  0  0  0
M  END
>  <MODEL>
9

>  <REMARK>
 VINA RESULT:     -10.5      3.215      6.605
  Name = 
  3 active torsions:
  status: ('A' for Active; 'I' for Inactive)
    1  A    between atoms: N_3  and  C_13
    2  A    between atoms: C_10  and  N_17
    3  A    between atoms: C_12  and  C_28
                            x       y       z     vdW  Elec       q    Type
                         _______ _______ _______ _____ _____    ______ ____

>  <TORSDO>
F 3

$$$$
