=
 OpenBabel10262423063D

 37 39  0  0  1  0  0  0  0  0999 V2000
  184.9360  173.3180  136.6280 O   0  0  0  0  0  0  0  0  0  0  0  0
  182.6790  176.8070  138.6030 C   0  0  0  0  0  0  0  0  0  0  0  0
  184.0090  174.0020  135.7650 C   0  0  2  0  0  0  0  0  0  0  0  0
  185.9520  178.2480  137.1600 C   0  0  0  0  0  2  0  0  0  0  0  0
  184.1720  176.8100  138.2820 C   0  0  0  0  0  2  0  0  0  0  0  0
  187.6160  175.5380  136.2760 C   0  0  1  0  0  3  0  0  0  0  0  0
  181.6260  177.1920  137.5590 C   0  0  2  0  0  3  0  0  0  0  0  0
  184.7280  178.2190  138.0880 C   0  0  1  0  0  3  0  0  0  0  0  0
  184.5230  175.3770  135.3300 C   0  0  0  0  0  1  0  0  0  0  0  0
  181.9340  176.6190  136.1740 C   0  0  0  0  0  2  0  0  0  0  0  0
  182.7200  174.1710  136.5870 C   0  0  0  0  0  2  0  0  0  0  0  0
  182.3070  177.0550  140.0500 C   0  0  0  0  0  2  0  0  0  0  0  0
  181.6190  175.1210  136.0750 C   0  0  2  0  0  3  0  0  0  0  0  0
  186.3380  173.4040  136.6180 C   0  0  0  0  0  0  0  0  0  0  0  0
  187.1760  177.5010  137.6950 C   0  0  0  0  0  2  0  0  0  0  0  0
  182.2630  175.6470  139.4780 C   0  0  0  0  0  2  0  0  0  0  0  0
  186.9990  172.6680  137.3950 O   0  0  0  0  0  0  0  0  0  0  0  0
  186.9930  176.0040  137.5400 C   0  0  2  0  0  3  0  0  0  0  0  0
  188.2410  175.3510  137.5260 O   0  0  0  0  0  0  0  0  0  0  0  0
  187.0100  174.3250  135.8040 O   0  0  0  0  0  0  0  0  0  0  0  0
  185.6630  178.2130  140.4480 N   0  0  0  0  0  2  0  0  0  0  0  0
  185.6330  179.9400  142.0330 O   0  0  0  0  0  0  0  0  0  0  0  0
  184.9920  178.9090  139.3890 C   0  0  0  0  0  0  0  0  0  0  0  0
  185.9650  178.7600  141.7350 C   0  0  0  0  0  0  0  0  0  0  0  0
  184.6330  180.1080  139.5310 O   0  0  0  0  0  0  0  0  0  0  0  0
  186.6690  177.9060  142.7370 C   0  0  2  0  0  3  0  0  0  0  0  0
  186.0620  178.1090  144.1140 C   0  0  0  0  0  1  0  0  0  0  0  0
  188.6640  177.1150  142.1960 C   0  0  0  0  0  1  0  0  0  0  0  0
  188.0290  178.2190  142.7680 O   0  0  0  0  0  0  0  0  0  0  0  0
  183.3400  171.8130  134.9990 C   0  0  0  0  0  1  0  0  0  0  0  0
  183.7070  173.1660  134.5970 N   0  0  0  0  0  2  0  0  0  0  0  0
  181.5070  178.7090  137.4710 C   0  0  0  0  0  2  0  0  0  0  0  0
  180.1520  179.1880  137.9690 C   0  0  0  0  0  2  0  0  0  0  0  0
  179.2050  178.0140  138.1320 C   0  0  0  0  0  1  0  0  0  0  0  0
  181.0220  174.7060  134.8000 N   0  0  0  0  0  2  0  0  0  0  0  0
  179.9480  173.7400  134.9990 C   0  0  0  0  0  2  0  0  0  0  0  0
  179.1190  174.1480  136.1970 C   0  0  0  0  0  1  0  0  0  0  0  0
  2 16  1  0  0  0  0
  2 12  1  0  0  0  0
  3  9  1  6  0  0  0
  3 11  1  0  0  0  0
  3  1  1  0  0  0  0
  4 15  1  0  0  0  0
  4  8  1  0  0  0  0
  5  2  1  0  0  0  0
  6 20  1  1  0  0  0
  6 19  1  0  0  0  0
  6 18  1  0  0  0  0
  7 32  1  6  0  0  0
  7  2  1  0  0  0  0
  8  5  1  0  0  0  0
  8 23  1  1  0  0  0
 10  7  1  0  0  0  0
 13 35  1  6  0  0  0
 13 10  1  0  0  0  0
 13 11  1  0  0  0  0
 14  1  1  0  0  0  0
 14 17  2  0  0  0  0
 16 12  1  0  0  0  0
 18 15  1  6  0  0  0
 19 18  1  0  0  0  0
 20 14  1  0  0  0  0
 21 24  1  0  0  0  0
 23 25  2  0  0  0  0
 23 21  1  0  0  0  0
 24 22  2  0  0  0  0
 24 26  1  0  0  0  0
 26 29  1  0  0  0  0
 26 27  1  1  0  0  0
 28 29  1  0  0  0  0
 31 30  1  0  0  0  0
 31  3  1  0  0  0  0
 32 33  1  0  0  0  0
 33 34  1  0  0  0  0
 35 36  1  0  0  0  0
 36 37  1  0  0  0  0
M  END
>  <MODEL>
1

>  <REMARK>
 VINA RESULT:      -5.0      0.000      0.000
  Name = 
  8 active torsions:
  status: ('A' for Active; 'I' for Inactive)
    1  A    between atoms: C_2  and  O_19
    2  A    between atoms: C_2  and  C_35
    3  A    between atoms: C_3  and  N_32
    4  A    between atoms: C_5  and  N_23
    5  A    between atoms: C_9  and  C_13
    6  A    between atoms: C_9  and  C_16
    7  A    between atoms: C_14  and  C_31
    8  A    between atoms: C_25  and  N_32
                            x       y       z     vdW  Elec       q    Type
                         _______ _______ _______ _____ _____    ______ ____

>  <TORSDO>
F 8

$$$$
=
 OpenBabel10262423063D

 37 39  0  0  1  0  0  0  0  0999 V2000
  184.2560  177.6750  141.9980 O   0  0  0  0  0  0  0  0  0  0  0  0
  188.6890  176.7990  142.8630 C   0  0  0  0  0  0  0  0  0  0  0  0
  184.8880  178.6000  142.9010 C   0  0  2  0  0  0  0  0  0  0  0  0
  188.5710  179.0590  139.7420 C   0  0  0  0  0  2  0  0  0  0  0  0
  188.1470  177.2850  141.5220 C   0  0  0  0  0  2  0  0  0  0  0  0
  185.3520  179.1260  139.0100 C   0  0  1  0  0  3  0  0  0  0  0  0
  189.0330  177.7690  143.9980 C   0  0  2  0  0  3  0  0  0  0  0  0
  189.1940  178.0350  140.7020 C   0  0  1  0  0  3  0  0  0  0  0  0
  185.8440  179.5560  142.1820 C   0  0  0  0  0  1  0  0  0  0  0  0
  188.0000  178.8880  144.1480 C   0  0  0  0  0  2  0  0  0  0  0  0
  185.6780  177.7360  143.8980 C   0  0  0  0  0  2  0  0  0  0  0  0
  189.4660  175.4990  142.8370 C   0  0  0  0  0  2  0  0  0  0  0  0
  186.7100  178.4090  144.8260 C   0  0  2  0  0  3  0  0  0  0  0  0
  183.9100  177.8920  140.6540 C   0  0  0  0  0  0  0  0  0  0  0  0
  187.6920  178.4530  138.6450 C   0  0  0  0  0  2  0  0  0  0  0  0
  188.0320  175.5240  143.3410 C   0  0  0  0  0  2  0  0  0  0  0  0
  183.2850  176.9940  140.0330 O   0  0  0  0  0  0  0  0  0  0  0  0
  186.3470  178.0420  139.2090 C   0  0  2  0  0  3  0  0  0  0  0  0
  185.3780  177.9810  138.1890 O   0  0  0  0  0  0  0  0  0  0  0  0
  184.2930  179.0570  139.9770 O   0  0  0  0  0  0  0  0  0  0  0  0
  189.6850  176.3400  138.8770 N   0  0  0  0  0  2  0  0  0  0  0  0
  191.6900  175.2070  138.4400 O   0  0  0  0  0  0  0  0  0  0  0  0
  190.1360  177.1070  140.0010 C   0  0  0  0  0  0  0  0  0  0  0  0
  190.4860  175.4180  138.1310 C   0  0  0  0  0  0  0  0  0  0  0  0
  191.3280  177.0270  140.4010 O   0  0  0  0  0  0  0  0  0  0  0  0
  189.8690  174.6890  136.9830 C   0  0  2  0  0  3  0  0  0  0  0  0
  188.4960  175.2610  136.6790 C   0  0  0  0  0  1  0  0  0  0  0  0
  188.4770  172.9730  136.8610 C   0  0  0  0  0  1  0  0  0  0  0  0
  189.7610  173.3290  137.2780 O   0  0  0  0  0  0  0  0  0  0  0  0
  182.9120  178.4460  144.2790 C   0  0  0  0  0  1  0  0  0  0  0  0
  183.8670  179.3470  143.6440 N   0  0  0  0  0  2  0  0  0  0  0  0
  190.4130  178.3740  143.7670 C   0  0  0  0  0  2  0  0  0  0  0  0
  191.4260  177.8400  144.7680 C   0  0  0  0  0  2  0  0  0  0  0  0
  190.7170  177.1620  145.9250 C   0  0  0  0  0  1  0  0  0  0  0  0
  186.1240  179.3680  145.7700 N   0  0  0  0  0  2  0  0  0  0  0  0
  185.8790  178.7570  147.0720 C   0  0  0  0  0  2  0  0  0  0  0  0
  187.1660  178.1640  147.6020 C   0  0  0  0  0  1  0  0  0  0  0  0
  1  3  1  0  0  0  0
  2 16  1  0  0  0  0
  2  7  1  0  0  0  0
  3  9  1  6  0  0  0
  3 31  1  0  0  0  0
  3 11  1  0  0  0  0
  4  8  1  0  0  0  0
  5  2  1  0  0  0  0
  6 19  1  6  0  0  0
  6 18  1  0  0  0  0
  6 20  1  0  0  0  0
  7 32  1  6  0  0  0
  7 10  1  0  0  0  0
  8 23  1  6  0  0  0
  8  5  1  0  0  0  0
 10 13  1  0  0  0  0
 11 13  1  0  0  0  0
 12  2  1  0  0  0  0
 12 16  1  0  0  0  0
 13 35  1  6  0  0  0
 14  1  1  0  0  0  0
 15  4  1  0  0  0  0
 17 14  2  0  0  0  0
 18 15  1  6  0  0  0
 19 18  1  0  0  0  0
 20 14  1  0  0  0  0
 21 23  1  0  0  0  0
 23 25  2  0  0  0  0
 24 22  2  0  0  0  0
 24 21  1  0  0  0  0
 26 27  1  1  0  0  0
 26 29  1  0  0  0  0
 26 24  1  0  0  0  0
 28 29  1  0  0  0  0
 31 30  1  0  0  0  0
 32 33  1  0  0  0  0
 33 34  1  0  0  0  0
 35 36  1  0  0  0  0
 36 37  1  0  0  0  0
M  END
>  <MODEL>
2

>  <REMARK>
 VINA RESULT:      -4.9      4.229      8.640
  Name = 
  8 active torsions:
  status: ('A' for Active; 'I' for Inactive)
    1  A    between atoms: C_2  and  O_19
    2  A    between atoms: C_2  and  C_35
    3  A    between atoms: C_3  and  N_32
    4  A    between atoms: C_5  and  N_23
    5  A    between atoms: C_9  and  C_13
    6  A    between atoms: C_9  and  C_16
    7  A    between atoms: C_14  and  C_31
    8  A    between atoms: C_25  and  N_32
                            x       y       z     vdW  Elec       q    Type
                         _______ _______ _______ _____ _____    ______ ____

>  <TORSDO>
F 8

$$$$
=
 OpenBabel10262423063D

 37 39  0  0  1  0  0  0  0  0999 V2000
  180.3530  177.8750  136.5970 O   0  0  0  0  0  0  0  0  0  0  0  0
  184.6380  176.2710  136.1130 C   0  0  0  0  0  0  0  0  0  0  0  0
  180.5460  176.5230  137.0520 C   0  0  2  0  0  0  0  0  0  0  0  0
  184.4580  177.9960  139.5560 C   0  0  0  0  0  2  0  0  0  0  0  0
  184.2260  177.3610  137.0990 C   0  0  0  0  0  2  0  0  0  0  0  0
  181.5180  179.4960  139.4680 C   0  0  1  0  0  3  0  0  0  0  0  0
  184.5060  174.7820  136.4490 C   0  0  2  0  0  3  0  0  0  0  0  0
  185.1580  177.4440  138.3060 C   0  0  1  0  0  3  0  0  0  0  0  0
  181.3180  176.4560  138.3720 C   0  0  0  0  0  1  0  0  0  0  0  0
  183.2000  174.4580  137.1770 C   0  0  0  0  0  2  0  0  0  0  0  0
  181.3540  175.8220  135.9460 C   0  0  0  0  0  2  0  0  0  0  0  0
  185.7290  176.6390  135.1290 C   0  0  0  0  0  2  0  0  0  0  0  0
  181.9890  174.4460  136.2340 C   0  0  2  0  0  3  0  0  0  0  0  0
  180.2010  179.0280  137.3830 C   0  0  0  0  0  0  0  0  0  0  0  0
  183.9800  179.4450  139.4320 C   0  0  0  0  0  2  0  0  0  0  0  0
  184.2770  176.5980  134.6820 C   0  0  0  0  0  2  0  0  0  0  0  0
  179.9580  180.1250  136.8160 O   0  0  0  0  0  0  0  0  0  0  0  0
  182.7180  179.5170  138.5940 C   0  0  2  0  0  3  0  0  0  0  0  0
  181.9940  180.6890  138.8880 O   0  0  0  0  0  0  0  0  0  0  0  0
  180.3660  178.9950  138.7740 O   0  0  0  0  0  0  0  0  0  0  0  0
  187.6690  177.7330  138.5420 N   0  0  0  0  0  2  0  0  0  0  0  0
  189.0400  179.3940  137.6170 O   0  0  0  0  0  0  0  0  0  0  0  0
  186.4230  178.1830  137.9960 C   0  0  0  0  0  0  0  0  0  0  0  0
  188.9390  178.3550  138.3260 C   0  0  0  0  0  0  0  0  0  0  0  0
  186.3750  179.1880  137.2390 O   0  0  0  0  0  0  0  0  0  0  0  0
  190.1520  177.7670  138.9680 C   0  0  2  0  0  3  0  0  0  0  0  0
  190.8450  176.8200  138.0050 C   0  0  0  0  0  1  0  0  0  0  0  0
  190.8470  177.3210  141.0220 C   0  0  0  0  0  1  0  0  0  0  0  0
  189.7980  177.0830  140.1320 O   0  0  0  0  0  0  0  0  0  0  0  0
  178.9310  175.5630  138.5680 C   0  0  0  0  0  1  0  0  0  0  0  0
  179.2480  175.8490  137.1740 N   0  0  0  0  0  2  0  0  0  0  0  0
  185.6900  174.3300  137.2960 C   0  0  0  0  0  2  0  0  0  0  0  0
  185.9630  172.8450  137.1180 C   0  0  0  0  0  2  0  0  0  0  0  0
  187.4460  172.5600  137.2570 C   0  0  0  0  0  1  0  0  0  0  0  0
  181.0120  173.3870  136.5080 N   0  0  0  0  0  2  0  0  0  0  0  0
  181.6600  172.1730  136.9930 C   0  0  0  0  0  2  0  0  0  0  0  0
  181.4580  171.0590  135.9880 C   0  0  0  0  0  1  0  0  0  0  0  0
  1  3  1  0  0  0  0
  1 14  1  0  0  0  0
  2  7  1  0  0  0  0
  2  5  1  0  0  0  0
  3 31  1  0  0  0  0
  3  9  1  1  0  0  0
  5  8  1  0  0  0  0
  6 20  1  6  0  0  0
  7 10  1  0  0  0  0
  7 32  1  1  0  0  0
  8 23  1  6  0  0  0
  8  4  1  0  0  0  0
 11 13  1  0  0  0  0
 11  3  1  0  0  0  0
 12  2  1  0  0  0  0
 13 35  1  1  0  0  0
 13 10  1  0  0  0  0
 14 20  1  0  0  0  0
 15  4  1  0  0  0  0
 16 12  1  0  0  0  0
 16  2  1  0  0  0  0
 17 14  2  0  0  0  0
 18 19  1  0  0  0  0
 18 15  1  1  0  0  0
 18  6  1  0  0  0  0
 19  6  1  0  0  0  0
 22 24  2  0  0  0  0
 23 21  1  0  0  0  0
 24 21  1  0  0  0  0
 24 26  1  0  0  0  0
 25 23  2  0  0  0  0
 26 27  1  6  0  0  0
 26 29  1  0  0  0  0
 29 28  1  0  0  0  0
 31 30  1  0  0  0  0
 33 34  1  0  0  0  0
 33 32  1  0  0  0  0
 35 36  1  0  0  0  0
 37 36  1  0  0  0  0
M  END
>  <MODEL>
3

>  <REMARK>
 VINA RESULT:      -4.7      2.772      5.515
  Name = 
  8 active torsions:
  status: ('A' for Active; 'I' for Inactive)
    1  A    between atoms: C_2  and  O_19
    2  A    between atoms: C_2  and  C_35
    3  A    between atoms: C_3  and  N_32
    4  A    between atoms: C_5  and  N_23
    5  A    between atoms: C_9  and  C_13
    6  A    between atoms: C_9  and  C_16
    7  A    between atoms: C_14  and  C_31
    8  A    between atoms: C_25  and  N_32
                            x       y       z     vdW  Elec       q    Type
                         _______ _______ _______ _____ _____    ______ ____

>  <TORSDO>
F 8

$$$$
=
 OpenBabel10262423063D

 37 39  0  0  1  0  0  0  0  0999 V2000
  187.8410  177.6100  136.1450 O   0  0  0  0  0  0  0  0  0  0  0  0
  183.5160  176.0960  136.5520 C   0  0  0  0  0  0  0  0  0  0  0  0
  187.2380  177.8470  137.4300 C   0  0  2  0  0  0  0  0  0  0  0  0
  185.8330  173.1820  137.5550 C   0  0  0  0  0  2  0  0  0  0  0  0
  184.7420  175.1950  136.4350 C   0  0  0  0  0  2  0  0  0  0  0  0
  188.8200  174.2980  136.7020 C   0  0  1  0  0  3  0  0  0  0  0  0
  183.0570  176.6700  137.8950 C   0  0  2  0  0  3  0  0  0  0  0  0
  184.5250  173.8210  137.0660 C   0  0  1  0  0  3  0  0  0  0  0  0
  187.1200  176.5690  138.2650 C   0  0  0  0  0  1  0  0  0  0  0  0
  184.2260  177.1490  138.7590 C   0  0  0  0  0  2  0  0  0  0  0  0
  185.8320  178.3990  137.1350 C   0  0  0  0  0  2  0  0  0  0  0  0
  182.4350  175.8900  135.5090 C   0  0  0  0  0  2  0  0  0  0  0  0
  184.8020  178.4880  138.2790 C   0  0  2  0  0  3  0  0  0  0  0  0
  188.8140  176.6490  135.8210 C   0  0  0  0  0  0  0  0  0  0  0  0
  186.8390  172.8590  136.4470 C   0  0  0  0  0  2  0  0  0  0  0  0
  183.3850  177.0720  135.4050 C   0  0  0  0  0  2  0  0  0  0  0  0
  189.2920  176.6350  134.6580 O   0  0  0  0  0  0  0  0  0  0  0  0
  187.5360  174.1220  135.9800 C   0  0  2  0  0  3  0  0  0  0  0  0
  188.7720  173.8130  135.3800 O   0  0  0  0  0  0  0  0  0  0  0  0
  189.2200  175.6770  136.7440 O   0  0  0  0  0  0  0  0  0  0  0  0
  182.4570  172.4310  136.5780 N   0  0  0  0  0  2  0  0  0  0  0  0
  182.0020  171.1040  134.7010 O   0  0  0  0  0  0  0  0  0  0  0  0
  183.7490  172.9040  136.1740 C   0  0  0  0  0  0  0  0  0  0  0  0
  181.6250  171.5490  135.8190 C   0  0  0  0  0  0  0  0  0  0  0  0
  184.2390  172.5710  135.0620 O   0  0  0  0  0  0  0  0  0  0  0  0
  180.3020  171.1420  136.3790 C   0  0  2  0  0  3  0  0  0  0  0  0
  179.8160  169.8740  135.7020 C   0  0  0  0  0  1  0  0  0  0  0  0
  179.1320  172.6670  137.4780 C   0  0  0  0  0  1  0  0  0  0  0  0
  179.3670  172.1640  136.1970 O   0  0  0  0  0  0  0  0  0  0  0  0
  188.7960  178.2840  139.2210 C   0  0  0  0  0  1  0  0  0  0  0  0
  187.9960  178.8740  138.1540 N   0  0  0  0  0  2  0  0  0  0  0  0
  182.2480  175.6290  138.6600 C   0  0  0  0  0  2  0  0  0  0  0  0
  180.8360  176.1220  138.9390 C   0  0  0  0  0  2  0  0  0  0  0  0
  180.6480  177.5240  138.3910 C   0  0  0  0  0  1  0  0  0  0  0  0
  185.1870  179.4070  139.3550 N   0  0  0  0  0  2  0  0  0  0  0  0
  184.8230  178.8810  140.6660 C   0  0  0  0  0  2  0  0  0  0  0  0
  186.0200  178.9520  141.5890 C   0  0  0  0  0  1  0  0  0  0  0  0
  1  3  1  0  0  0  0
  2  7  1  0  0  0  0
  3 31  1  0  0  0  0
  3  9  1  1  0  0  0
  5  2  1  0  0  0  0
  5  8  1  0  0  0  0
  6 19  1  6  0  0  0
  6 20  1  0  0  0  0
  7 32  1  1  0  0  0
  7 10  1  0  0  0  0
  8 23  1  6  0  0  0
  8  4  1  0  0  0  0
 11  3  1  0  0  0  0
 11 13  1  0  0  0  0
 12  2  1  0  0  0  0
 13 10  1  0  0  0  0
 13 35  1  1  0  0  0
 14  1  1  0  0  0  0
 14 20  1  0  0  0  0
 15  4  1  0  0  0  0
 16 12  1  0  0  0  0
 16  2  1  0  0  0  0
 17 14  2  0  0  0  0
 18 15  1  1  0  0  0
 18  6  1  0  0  0  0
 19 18  1  0  0  0  0
 22 24  2  0  0  0  0
 23 21  1  0  0  0  0
 24 26  1  0  0  0  0
 24 21  1  0  0  0  0
 25 23  2  0  0  0  0
 26 27  1  6  0  0  0
 29 26  1  0  0  0  0
 29 28  1  0  0  0  0
 31 30  1  0  0  0  0
 32 33  1  0  0  0  0
 34 33  1  0  0  0  0
 35 36  1  0  0  0  0
 36 37  1  0  0  0  0
M  END
>  <MODEL>
4

>  <REMARK>
 VINA RESULT:      -4.5      2.428      6.937
  Name = 
  8 active torsions:
  status: ('A' for Active; 'I' for Inactive)
    1  A    between atoms: C_2  and  O_19
    2  A    between atoms: C_2  and  C_35
    3  A    between atoms: C_3  and  N_32
    4  A    between atoms: C_5  and  N_23
    5  A    between atoms: C_9  and  C_13
    6  A    between atoms: C_9  and  C_16
    7  A    between atoms: C_14  and  C_31
    8  A    between atoms: C_25  and  N_32
                            x       y       z     vdW  Elec       q    Type
                         _______ _______ _______ _____ _____    ______ ____

>  <TORSDO>
F 8

$$$$
=
 OpenBabel10262423063D

 37 39  0  0  1  0  0  0  0  0999 V2000
  189.5490  175.1680  135.7700 O   0  0  0  0  0  0  0  0  0  0  0  0
  185.3390  177.0050  136.0420 C   0  0  0  0  0  0  0  0  0  0  0  0
  189.3170  175.9740  136.9400 C   0  0  2  0  0  0  0  0  0  0  0  0
  185.1700  173.5350  137.7140 C   0  0  0  0  0  2  0  0  0  0  0  0
  185.6470  175.5160  136.1840 C   0  0  0  0  0  2  0  0  0  0  0  0
  188.0980  172.2140  136.9530 C   0  0  1  0  0  3  0  0  0  0  0  0
  185.4430  177.9710  137.2260 C   0  0  2  0  0  3  0  0  0  0  0  0
  184.5990  174.7770  137.0140 C   0  0  1  0  0  3  0  0  0  0  0  0
  188.4170  175.2750  137.9620 C   0  0  0  0  0  1  0  0  0  0  0  0
  186.6710  177.7020  138.0980 C   0  0  0  0  0  2  0  0  0  0  0  0
  188.6250  177.2520  136.4350 C   0  0  0  0  0  2  0  0  0  0  0  0
  184.3500  177.3810  134.9580 C   0  0  0  0  0  2  0  0  0  0  0  0
  187.9700  178.2070  137.4540 C   0  0  2  0  0  3  0  0  0  0  0  0
  189.6180  173.7670  135.6970 C   0  0  0  0  0  0  0  0  0  0  0  0
  185.6520  172.4330  136.7680 C   0  0  0  0  0  2  0  0  0  0  0  0
  185.8390  177.5920  134.7420 C   0  0  0  0  0  2  0  0  0  0  0  0
  189.9110  173.2290  134.5980 O   0  0  0  0  0  0  0  0  0  0  0  0
  186.9910  172.8050  136.1600 C   0  0  2  0  0  3  0  0  0  0  0  0
  187.6780  171.6520  135.7310 O   0  0  0  0  0  0  0  0  0  0  0  0
  189.3150  172.9590  136.8000 O   0  0  0  0  0  0  0  0  0  0  0  0
  182.1070  174.3100  136.8850 N   0  0  0  0  0  2  0  0  0  0  0  0
  180.8100  173.8260  134.9940 O   0  0  0  0  0  0  0  0  0  0  0  0
  183.3690  174.4610  136.2210 C   0  0  0  0  0  0  0  0  0  0  0  0
  180.8670  174.0030  136.2410 C   0  0  0  0  0  0  0  0  0  0  0  0
  183.4590  174.3470  134.9700 O   0  0  0  0  0  0  0  0  0  0  0  0
  179.6330  173.8760  137.0720 C   0  0  2  0  0  3  0  0  0  0  0  0
  179.1170  175.2510  137.4540 C   0  0  0  0  0  1  0  0  0  0  0  0
  179.4220  173.9180  139.2750 C   0  0  0  0  0  1  0  0  0  0  0  0
  179.9020  173.1340  138.2240 O   0  0  0  0  0  0  0  0  0  0  0  0
  191.6650  176.3800  136.5520 C   0  0  0  0  0  1  0  0  0  0  0  0
  190.5990  176.3510  137.5470 N   0  0  0  0  0  2  0  0  0  0  0  0
  184.1820  177.8890  138.0790 C   0  0  0  0  0  2  0  0  0  0  0  0
  184.2490  178.8470  139.2580 C   0  0  0  0  0  2  0  0  0  0  0  0
  183.2450  179.9700  139.0840 C   0  0  0  0  0  1  0  0  0  0  0  0
  188.9190  178.8170  138.3920 N   0  0  0  0  0  2  0  0  0  0  0  0
  188.5350  178.5730  139.7780 C   0  0  0  0  0  2  0  0  0  0  0  0
  189.6100  177.7570  140.4630 C   0  0  0  0  0  1  0  0  0  0  0  0
  1  3  1  0  0  0  0
  2  5  1  0  0  0  0
  2  7  1  0  0  0  0
  3 31  1  0  0  0  0
  3  9  1  1  0  0  0
  5  8  1  0  0  0  0
  6 19  1  6  0  0  0
  7 32  1  1  0  0  0
  7 10  1  0  0  0  0
  8 23  1  6  0  0  0
  8  4  1  0  0  0  0
 11  3  1  0  0  0  0
 11 13  1  0  0  0  0
 12  2  1  0  0  0  0
 13 10  1  0  0  0  0
 13 35  1  1  0  0  0
 14  1  1  0  0  0  0
 14 20  1  0  0  0  0
 15  4  1  0  0  0  0
 16 12  1  0  0  0  0
 16  2  1  0  0  0  0
 17 14  2  0  0  0  0
 18 15  1  1  0  0  0
 18  6  1  0  0  0  0
 19 18  1  0  0  0  0
 20  6  1  0  0  0  0
 22 24  2  0  0  0  0
 23 21  1  0  0  0  0
 24 21  1  0  0  0  0
 24 26  1  0  0  0  0
 25 23  2  0  0  0  0
 26 27  1  1  0  0  0
 26 29  1  0  0  0  0
 29 28  1  0  0  0  0
 30 31  1  0  0  0  0
 32 33  1  0  0  0  0
 34 33  1  0  0  0  0
 35 36  1  0  0  0  0
 36 37  1  0  0  0  0
M  END
>  <MODEL>
5

>  <REMARK>
 VINA RESULT:      -4.3      3.234      6.870
  Name = 
  8 active torsions:
  status: ('A' for Active; 'I' for Inactive)
    1  A    between atoms: C_2  and  O_19
    2  A    between atoms: C_2  and  C_35
    3  A    between atoms: C_3  and  N_32
    4  A    between atoms: C_5  and  N_23
    5  A    between atoms: C_9  and  C_13
    6  A    between atoms: C_9  and  C_16
    7  A    between atoms: C_14  and  C_31
    8  A    between atoms: C_25  and  N_32
                            x       y       z     vdW  Elec       q    Type
                         _______ _______ _______ _____ _____    ______ ____

>  <TORSDO>
F 8

$$$$
=
 OpenBabel10262423063D

 37 39  0  0  1  0  0  0  0  0999 V2000
  182.4960  173.9650  136.7550 O   0  0  0  0  0  0  0  0  0  0  0  0
  182.7470  177.9180  139.0960 C   0  0  0  0  0  0  0  0  0  0  0  0
  181.8590  175.0860  136.1160 C   0  0  2  0  0  0  0  0  0  0  0  0
  185.8890  177.7200  136.8710 C   0  0  0  0  0  2  0  0  0  0  0  0
  183.9340  177.2280  138.4300 C   0  0  0  0  0  2  0  0  0  0  0  0
  185.7640  174.6340  135.7040 C   0  0  1  0  0  3  0  0  0  0  0  0
  181.8150  178.8550  138.3220 C   0  0  2  0  0  3  0  0  0  0  0  0
  185.0500  178.2030  138.0630 C   0  0  1  0  0  3  0  0  0  0  0  0
  182.8690  176.0740  135.5270 C   0  0  0  0  0  1  0  0  0  0  0  0
  181.4850  178.3320  136.9230 C   0  0  0  0  0  2  0  0  0  0  0  0
  181.0390  175.7820  137.2160 C   0  0  0  0  0  2  0  0  0  0  0  0
  182.8780  178.1830  140.5820 C   0  0  0  0  0  2  0  0  0  0  0  0
  180.4620  177.1880  136.9500 C   0  0  2  0  0  3  0  0  0  0  0  0
  183.7170  173.3630  136.4080 C   0  0  0  0  0  0  0  0  0  0  0  0
  186.6730  176.4300  137.1220 C   0  0  0  0  0  2  0  0  0  0  0  0
  182.0220  177.0300  140.0830 C   0  0  0  0  0  2  0  0  0  0  0  0
  184.0870  172.3340  137.0300 O   0  0  0  0  0  0  0  0  0  0  0  0
  185.7500  175.2290  137.0640 C   0  0  2  0  0  3  0  0  0  0  0  0
  186.4780  174.0580  136.7740 O   0  0  0  0  0  0  0  0  0  0  0  0
  184.5540  173.9130  135.4290 O   0  0  0  0  0  0  0  0  0  0  0  0
  187.2180  178.0080  139.3700 N   0  0  0  0  0  2  0  0  0  0  0  0
  187.7920  179.0230  141.4030 O   0  0  0  0  0  0  0  0  0  0  0  0
  185.9020  178.5600  139.2420 C   0  0  0  0  0  0  0  0  0  0  0  0
  188.1210  178.2670  140.4490 C   0  0  0  0  0  0  0  0  0  0  0  0
  185.4510  179.3610  140.1020 O   0  0  0  0  0  0  0  0  0  0  0  0
  189.4630  177.6120  140.4420 C   0  0  2  0  0  3  0  0  0  0  0  0
  189.6880  176.8970  139.1220 C   0  0  0  0  0  1  0  0  0  0  0  0
  190.6580  177.1340  142.2440 C   0  0  0  0  0  1  0  0  0  0  0  0
  189.5610  176.7010  141.4960 O   0  0  0  0  0  0  0  0  0  0  0  0
  180.3320  173.3350  135.4590 C   0  0  0  0  0  1  0  0  0  0  0  0
  180.9340  174.6090  135.0810 N   0  0  0  0  0  2  0  0  0  0  0  0
  182.4400  180.2420  138.2160 C   0  0  0  0  0  2  0  0  0  0  0  0
  181.4500  181.3260  138.6140 C   0  0  0  0  0  2  0  0  0  0  0  0
  180.4160  181.5240  137.5230 C   0  0  0  0  0  1  0  0  0  0  0  0
  179.4730  177.2290  135.8670 N   0  0  0  0  0  2  0  0  0  0  0  0
  179.8930  178.1170  134.7890 C   0  0  0  0  0  2  0  0  0  0  0  0
  178.9360  179.2860  134.6960 C   0  0  0  0  0  1  0  0  0  0  0  0
  2 16  1  0  0  0  0
  2 12  1  0  0  0  0
  3  9  1  6  0  0  0
  3  1  1  0  0  0  0
  3 11  1  0  0  0  0
  4 15  1  0  0  0  0
  4  8  1  0  0  0  0
  5  2  1  0  0  0  0
  6 20  1  1  0  0  0
  6 19  1  0  0  0  0
  6 18  1  0  0  0  0
  7 32  1  6  0  0  0
  7  2  1  0  0  0  0
  8  5  1  0  0  0  0
  8 23  1  1  0  0  0
 10 13  1  0  0  0  0
 10  7  1  0  0  0  0
 13 35  1  6  0  0  0
 13 11  1  0  0  0  0
 14  1  1  0  0  0  0
 14 17  2  0  0  0  0
 16 12  1  0  0  0  0
 18 15  1  6  0  0  0
 19 18  1  0  0  0  0
 20 14  1  0  0  0  0
 21 24  1  0  0  0  0
 23 21  1  0  0  0  0
 23 25  2  0  0  0  0
 24 22  2  0  0  0  0
 26 27  1  6  0  0  0
 26 24  1  0  0  0  0
 26 29  1  0  0  0  0
 29 28  1  0  0  0  0
 31 30  1  0  0  0  0
 31  3  1  0  0  0  0
 32 33  1  0  0  0  0
 34 33  1  0  0  0  0
 36 35  1  0  0  0  0
 37 36  1  0  0  0  0
M  END
>  <MODEL>
6

>  <REMARK>
 VINA RESULT:      -4.1      1.739      2.665
  Name = 
  8 active torsions:
  status: ('A' for Active; 'I' for Inactive)
    1  A    between atoms: C_2  and  O_19
    2  A    between atoms: C_2  and  C_35
    3  A    between atoms: C_3  and  N_32
    4  A    between atoms: C_5  and  N_23
    5  A    between atoms: C_9  and  C_13
    6  A    between atoms: C_9  and  C_16
    7  A    between atoms: C_14  and  C_31
    8  A    between atoms: C_25  and  N_32
                            x       y       z     vdW  Elec       q    Type
                         _______ _______ _______ _____ _____    ______ ____

>  <TORSDO>
F 8

$$$$
=
 OpenBabel10262423063D

 37 39  0  0  1  0  0  0  0  0999 V2000
  180.5080  178.0730  137.7810 O   0  0  0  0  0  0  0  0  0  0  0  0
  183.9430  175.6200  135.9490 C   0  0  0  0  0  0  0  0  0  0  0  0
  180.6330  176.7340  138.2930 C   0  0  2  0  0  0  0  0  0  0  0  0
  185.3950  177.5120  138.9790 C   0  0  0  0  0  2  0  0  0  0  0  0
  184.1310  176.8170  136.8770 C   0  0  0  0  0  2  0  0  0  0  0  0
  182.9440  179.5650  139.8010 C   0  0  1  0  0  3  0  0  0  0  0  0
  183.7040  174.2070  136.4880 C   0  0  2  0  0  3  0  0  0  0  0  0
  185.4560  176.7700  137.6350 C   0  0  1  0  0  3  0  0  0  0  0  0
  181.8320  176.5770  139.2320 C   0  0  0  0  0  1  0  0  0  0  0  0
  182.7450  174.1870  137.6800 C   0  0  0  0  0  2  0  0  0  0  0  0
  180.8230  175.8330  137.0610 C   0  0  0  0  0  2  0  0  0  0  0  0
  184.6160  175.7140  134.5950 C   0  0  0  0  0  2  0  0  0  0  0  0
  181.2800  174.3730  137.2590 C   0  0  2  0  0  3  0  0  0  0  0  0
  180.8660  179.2710  138.4220 C   0  0  0  0  0  0  0  0  0  0  0  0
  185.1550  179.0190  138.8650 C   0  0  0  0  0  2  0  0  0  0  0  0
  183.1190  175.9440  134.7240 C   0  0  0  0  0  2  0  0  0  0  0  0
  180.6110  180.3650  137.8550 O   0  0  0  0  0  0  0  0  0  0  0  0
  183.6990  179.3020  138.5500 C   0  0  2  0  0  3  0  0  0  0  0  0
  183.3510  180.6090  138.9450 O   0  0  0  0  0  0  0  0  0  0  0  0
  181.5460  179.2730  139.6460 O   0  0  0  0  0  0  0  0  0  0  0  0
  187.8790  176.5710  136.9040 N   0  0  0  0  0  2  0  0  0  0  0  0
  189.0400  177.8690  135.3350 O   0  0  0  0  0  0  0  0  0  0  0  0
  186.6080  177.2240  136.7940 C   0  0  0  0  0  0  0  0  0  0  0  0
  189.0520  176.9160  136.1620 C   0  0  0  0  0  0  0  0  0  0  0  0
  186.4360  178.1710  135.9810 O   0  0  0  0  0  0  0  0  0  0  0  0
  190.3070  176.1400  136.3910 C   0  0  2  0  0  3  0  0  0  0  0  0
  191.0910  176.7450  137.5420 C   0  0  0  0  0  1  0  0  0  0  0  0
  192.3930  175.9150  135.6850 C   0  0  0  0  0  1  0  0  0  0  0  0
  191.0910  176.1370  135.2350 O   0  0  0  0  0  0  0  0  0  0  0  0
  179.5830  176.2280  140.4070 C   0  0  0  0  0  1  0  0  0  0  0  0
  179.3890  176.3410  138.9660 N   0  0  0  0  0  2  0  0  0  0  0  0
  185.0290  173.5680  136.8870 C   0  0  0  0  0  2  0  0  0  0  0  0
  185.1400  172.1470  136.3580 C   0  0  0  0  0  2  0  0  0  0  0  0
  184.1410  171.9200  135.2390 C   0  0  0  0  0  1  0  0  0  0  0  0
  180.3230  173.5450  138.0010 N   0  0  0  0  0  2  0  0  0  0  0  0
  180.0910  172.2680  137.3370 C   0  0  0  0  0  2  0  0  0  0  0  0
  180.2920  172.4310  135.8450 C   0  0  0  0  0  1  0  0  0  0  0  0
  1  3  1  0  0  0  0
  1 14  1  0  0  0  0
  2  7  1  0  0  0  0
  2  5  1  0  0  0  0
  3 31  1  0  0  0  0
  3  9  1  1  0  0  0
  5  8  1  0  0  0  0
  6 19  1  6  0  0  0
  7 32  1  1  0  0  0
  7 10  1  0  0  0  0
  8 23  1  6  0  0  0
  8  4  1  0  0  0  0
 11 13  1  0  0  0  0
 11  3  1  0  0  0  0
 12 16  1  0  0  0  0
 12  2  1  0  0  0  0
 13 10  1  0  0  0  0
 13 35  1  1  0  0  0
 14 20  1  0  0  0  0
 15  4  1  0  0  0  0
 16  2  1  0  0  0  0
 17 14  2  0  0  0  0
 18 15  1  1  0  0  0
 18 19  1  0  0  0  0
 18  6  1  0  0  0  0
 20  6  1  0  0  0  0
 22 24  2  0  0  0  0
 23 21  1  0  0  0  0
 24 26  1  0  0  0  0
 24 21  1  0  0  0  0
 25 23  2  0  0  0  0
 26 27  1  1  0  0  0
 29 28  1  0  0  0  0
 29 26  1  0  0  0  0
 31 30  1  0  0  0  0
 33 32  1  0  0  0  0
 34 33  1  0  0  0  0
 36 35  1  0  0  0  0
 37 36  1  0  0  0  0
M  END
>  <MODEL>
7

>  <REMARK>
 VINA RESULT:      -3.5      2.915      5.946
  Name = 
  8 active torsions:
  status: ('A' for Active; 'I' for Inactive)
    1  A    between atoms: C_2  and  O_19
    2  A    between atoms: C_2  and  C_35
    3  A    between atoms: C_3  and  N_32
    4  A    between atoms: C_5  and  N_23
    5  A    between atoms: C_9  and  C_13
    6  A    between atoms: C_9  and  C_16
    7  A    between atoms: C_14  and  C_31
    8  A    between atoms: C_25  and  N_32
                            x       y       z     vdW  Elec       q    Type
                         _______ _______ _______ _____ _____    ______ ____

>  <TORSDO>
F 8

$$$$
=
 OpenBabel10262423063D

 37 39  0  0  1  0  0  0  0  0999 V2000
  191.7920  175.5060  136.5920 O   0  0  0  0  0  0  0  0  0  0  0  0
  188.1820  178.1690  137.6150 C   0  0  0  0  0  0  0  0  0  0  0  0
  191.5400  175.6650  138.0010 C   0  0  2  0  0  0  0  0  0  0  0  0
  186.8560  174.5700  137.2160 C   0  0  0  0  0  2  0  0  0  0  0  0
  188.0860  176.7890  136.9700 C   0  0  0  0  0  2  0  0  0  0  0  0
  189.4680  172.9620  135.9940 C   0  0  1  0  0  3  0  0  0  0  0  0
  188.2850  178.3480  139.1330 C   0  0  2  0  0  3  0  0  0  0  0  0
  186.7510  176.1020  137.2460 C   0  0  1  0  0  3  0  0  0  0  0  0
  190.3170  174.8720  138.4680 C   0  0  0  0  0  1  0  0  0  0  0  0
  189.2190  177.3260  139.7840 C   0  0  0  0  0  2  0  0  0  0  0  0
  191.2890  177.1680  138.2120 C   0  0  0  0  0  2  0  0  0  0  0  0
  187.5420  179.3090  136.8500 C   0  0  0  0  0  2  0  0  0  0  0  0
  190.7000  177.6530  139.5530 C   0  0  2  0  0  3  0  0  0  0  0  0
  191.5330  174.3760  135.7990 C   0  0  0  0  0  0  0  0  0  0  0  0
  187.2320  173.9830  135.8530 C   0  0  0  0  0  2  0  0  0  0  0  0
  189.0510  179.1290  136.8360 C   0  0  0  0  0  2  0  0  0  0  0  0
  191.8940  174.3820  134.5940 O   0  0  0  0  0  0  0  0  0  0  0  0
  188.7120  174.1720  135.5840 C   0  0  2  0  0  3  0  0  0  0  0  0
  189.1700  173.2290  134.6430 O   0  0  0  0  0  0  0  0  0  0  0  0
  190.8350  173.2710  136.3030 O   0  0  0  0  0  0  0  0  0  0  0  0
  184.3510  176.8520  136.8930 N   0  0  0  0  0  2  0  0  0  0  0  0
  183.3220  177.5610  134.9100 O   0  0  0  0  0  0  0  0  0  0  0  0
  185.6580  176.6090  136.3570 C   0  0  0  0  0  0  0  0  0  0  0  0
  183.2270  177.3270  136.1460 C   0  0  0  0  0  0  0  0  0  0  0  0
  185.9100  176.8330  135.1440 O   0  0  0  0  0  0  0  0  0  0  0  0
  181.9250  177.5290  136.8480 C   0  0  2  0  0  3  0  0  0  0  0  0
  182.1100  178.4600  138.0330 C   0  0  0  0  0  1  0  0  0  0  0  0
  180.4420  176.6340  138.2280 C   0  0  0  0  0  1  0  0  0  0  0  0
  181.4170  176.3040  137.2850 O   0  0  0  0  0  0  0  0  0  0  0  0
  193.9480  175.4960  137.9890 C   0  0  0  0  0  1  0  0  0  0  0  0
  192.7320  175.2830  138.7660 N   0  0  0  0  0  2  0  0  0  0  0  0
  186.9010  178.2530  139.7660 C   0  0  0  0  0  2  0  0  0  0  0  0
  186.9570  178.5180  141.2620 C   0  0  0  0  0  2  0  0  0  0  0  0
  185.7670  179.3520  141.6960 C   0  0  0  0  0  1  0  0  0  0  0  0
  191.5680  177.4010  140.7090 N   0  0  0  0  0  2  0  0  0  0  0  0
  190.7940  177.0390  141.8910 C   0  0  0  0  0  2  0  0  0  0  0  0
  191.0690  178.0340  142.9980 C   0  0  0  0  0  1  0  0  0  0  0  0
  1  3  1  0  0  0  0
  2  7  1  0  0  0  0
  3 11  1  0  0  0  0
  3  9  1  1  0  0  0
  3 31  1  0  0  0  0
  4  8  1  0  0  0  0
  5  8  1  0  0  0  0
  5  2  1  0  0  0  0
  6 19  1  6  0  0  0
  6 20  1  0  0  0  0
  7 32  1  1  0  0  0
  7 10  1  0  0  0  0
  8 23  1  6  0  0  0
 11 13  1  0  0  0  0
 12  2  1  0  0  0  0
 13 10  1  0  0  0  0
 13 35  1  1  0  0  0
 14 20  1  0  0  0  0
 14  1  1  0  0  0  0
 15  4  1  0  0  0  0
 16 12  1  0  0  0  0
 16  2  1  0  0  0  0
 17 14  2  0  0  0  0
 18 15  1  1  0  0  0
 18  6  1  0  0  0  0
 19 18  1  0  0  0  0
 22 24  2  0  0  0  0
 23 21  1  0  0  0  0
 24 26  1  0  0  0  0
 24 21  1  0  0  0  0
 25 23  2  0  0  0  0
 26 29  1  0  0  0  0
 26 27  1  1  0  0  0
 29 28  1  0  0  0  0
 30 31  1  0  0  0  0
 32 33  1  0  0  0  0
 33 34  1  0  0  0  0
 35 36  1  0  0  0  0
 36 37  1  0  0  0  0
M  END
>  <MODEL>
8

>  <REMARK>
 VINA RESULT:      -3.5      3.332      7.586
  Name = 
  8 active torsions:
  status: ('A' for Active; 'I' for Inactive)
    1  A    between atoms: C_2  and  O_19
    2  A    between atoms: C_2  and  C_35
    3  A    between atoms: C_3  and  N_32
    4  A    between atoms: C_5  and  N_23
    5  A    between atoms: C_9  and  C_13
    6  A    between atoms: C_9  and  C_16
    7  A    between atoms: C_14  and  C_31
    8  A    between atoms: C_25  and  N_32
                            x       y       z     vdW  Elec       q    Type
                         _______ _______ _______ _____ _____    ______ ____

>  <TORSDO>
F 8

$$$$
=
 OpenBabel10262423063D

 37 39  0  0  1  0  0  0  0  0999 V2000
  186.6810  178.6430  136.9930 O   0  0  0  0  0  0  0  0  0  0  0  0
  182.2960  177.5590  137.8650 C   0  0  0  0  0  0  0  0  0  0  0  0
  186.3910  178.3700  138.3760 C   0  0  2  0  0  0  0  0  0  0  0  0
  184.1280  174.2730  137.0200 C   0  0  0  0  0  2  0  0  0  0  0  0
  183.2720  176.6720  137.0960 C   0  0  0  0  0  2  0  0  0  0  0  0
  187.0630  175.3290  135.9400 C   0  0  1  0  0  3  0  0  0  0  0  0
  182.2250  177.5480  139.3950 C   0  0  2  0  0  3  0  0  0  0  0  0
  182.9060  175.1910  137.1720 C   0  0  1  0  0  3  0  0  0  0  0  0
  186.1800  176.8780  138.6440 C   0  0  0  0  0  1  0  0  0  0  0  0
  183.6070  177.4870  140.0470 C   0  0  0  0  0  2  0  0  0  0  0  0
  185.0960  179.1380  138.6900 C   0  0  0  0  0  2  0  0  0  0  0  0
  181.0190  177.9310  137.1390 C   0  0  0  0  0  2  0  0  0  0  0  0
  184.3390  178.8350  139.9990 C   0  0  2  0  0  3  0  0  0  0  0  0
  187.3620  177.8180  136.0820 C   0  0  0  0  0  0  0  0  0  0  0  0
  184.8210  174.3520  135.6580 C   0  0  0  0  0  2  0  0  0  0  0  0
  182.1500  178.9390  137.2660 C   0  0  0  0  0  2  0  0  0  0  0  0
  187.6000  178.2530  134.9260 O   0  0  0  0  0  0  0  0  0  0  0  0
  185.6560  175.6130  135.5610 C   0  0  2  0  0  3  0  0  0  0  0  0
  186.6690  175.4640  134.5940 O   0  0  0  0  0  0  0  0  0  0  0  0
  187.7310  176.5080  136.4140 O   0  0  0  0  0  0  0  0  0  0  0  0
  180.9280  173.7380  136.5250 N   0  0  0  0  0  2  0  0  0  0  0  0
  179.6040  173.8530  134.5940 O   0  0  0  0  0  0  0  0  0  0  0  0
  181.8080  174.8290  136.2230 C   0  0  0  0  0  0  0  0  0  0  0  0
  179.8490  173.2930  135.6970 C   0  0  0  0  0  0  0  0  0  0  0  0
  181.6600  175.5050  135.1700 O   0  0  0  0  0  0  0  0  0  0  0  0
  179.0200  172.1360  136.1500 C   0  0  2  0  0  3  0  0  0  0  0  0
  179.6280  171.5140  137.3940 C   0  0  0  0  0  1  0  0  0  0  0  0
  179.3830  169.9950  135.7220 C   0  0  0  0  0  1  0  0  0  0  0  0
  178.9330  171.1790  135.1360 O   0  0  0  0  0  0  0  0  0  0  0  0
  188.3450  177.8410  139.6930 C   0  0  0  0  0  1  0  0  0  0  0  0
  187.4630  178.9040  139.2240 N   0  0  0  0  0  2  0  0  0  0  0  0
  181.3820  176.3700  139.8710 C   0  0  0  0  0  2  0  0  0  0  0  0
  180.0460  176.8360  140.4290 C   0  0  0  0  0  2  0  0  0  0  0  0
  178.9520  175.8470  140.0770 C   0  0  0  0  0  1  0  0  0  0  0  0
  185.0970  179.1610  141.2120 N   0  0  0  0  0  2  0  0  0  0  0  0
  184.9760  178.1120  142.2190 C   0  0  0  0  0  2  0  0  0  0  0  0
  184.4890  178.7150  143.5190 C   0  0  0  0  0  1  0  0  0  0  0  0
  1  3  1  0  0  0  0
  2  7  1  0  0  0  0
  3  9  1  1  0  0  0
  3 11  1  0  0  0  0
  3 31  1  0  0  0  0
  4  8  1  0  0  0  0
  5  8  1  0  0  0  0
  5  2  1  0  0  0  0
  6 19  1  6  0  0  0
  6 20  1  0  0  0  0
  7 32  1  6  0  0  0
  7 10  1  0  0  0  0
  8 23  1  6  0  0  0
 11 13  1  0  0  0  0
 12 16  1  0  0  0  0
 12  2  1  0  0  0  0
 13 10  1  0  0  0  0
 13 35  1  1  0  0  0
 14 20  1  0  0  0  0
 14  1  1  0  0  0  0
 15  4  1  0  0  0  0
 16  2  1  0  0  0  0
 17 14  2  0  0  0  0
 18 15  1  6  0  0  0
 18  6  1  0  0  0  0
 19 18  1  0  0  0  0
 22 24  2  0  0  0  0
 23 21  1  0  0  0  0
 24 26  1  0  0  0  0
 24 21  1  0  0  0  0
 25 23  2  0  0  0  0
 26 27  1  1  0  0  0
 29 28  1  0  0  0  0
 29 26  1  0  0  0  0
 31 30  1  0  0  0  0
 32 33  1  0  0  0  0
 34 33  1  0  0  0  0
 35 36  1  0  0  0  0
 36 37  1  0  0  0  0
M  END
>  <MODEL>
9

>  <REMARK>
 VINA RESULT:      -3.3      2.399      6.990
  Name = 
  8 active torsions:
  status: ('A' for Active; 'I' for Inactive)
    1  A    between atoms: C_2  and  O_19
    2  A    between atoms: C_2  and  C_35
    3  A    between atoms: C_3  and  N_32
    4  A    between atoms: C_5  and  N_23
    5  A    between atoms: C_9  and  C_13
    6  A    between atoms: C_9  and  C_16
    7  A    between atoms: C_14  and  C_31
    8  A    between atoms: C_25  and  N_32
                            x       y       z     vdW  Elec       q    Type
                         _______ _______ _______ _____ _____    ______ ____

>  <TORSDO>
F 8

$$$$
