=
 OpenBabel10262423213D

 34 39  0  0  1  0  0  0  0  0999 V2000
  187.7130  177.7930  144.9960 C   0  0  0  0  0  0  0  0  0  0  0  0
  191.2290  176.6560  143.8160 C   0  0  0  0  0  2  0  0  0  0  0  0
  191.3360  177.2230  140.3400 C   0  0  0  0  0  0  0  0  0  0  0  0
  190.2660  177.0610  146.0020 C   0  0  0  0  0  3  0  0  0  0  0  0
  185.4740  178.5320  145.6760 C   0  0  0  0  0  0  0  0  0  0  0  0
  186.4030  178.1880  144.6470 C   0  0  0  0  0  3  0  0  0  0  0  0
  187.1640  178.0950  147.3190 C   0  0  0  0  0  0  0  0  0  0  0  0
  187.8360  177.9550  148.4870 N   0  0  0  0  0  0  0  0  0  0  0  0
  192.7180  177.3660  140.2730 O   0  0  0  0  0  1  0  0  0  0  0  0
  185.8560  178.4910  147.0470 C   0  0  0  0  0  3  0  0  0  0  0  0
  189.1660  177.4400  146.8330 N   0  0  0  0  0  0  0  0  0  0  0  0
  188.0040  177.7750  146.3280 C   0  0  0  0  0  0  0  0  0  0  0  0
  189.0720  177.5520  148.1540 N   0  0  0  0  0  0  0  0  0  0  0  0
  191.4310  177.7170  142.7670 C   0  0  0  0  0  2  0  0  0  0  0  0
  190.6960  176.9550  139.2880 O   0  0  0  0  0  0  0  0  0  0  0  0
  190.6510  177.3800  141.5900 N   0  0  0  0  0  0  0  0  0  0  0  0
  189.2190  177.2460  141.6180 C   0  0  0  0  0  3  0  0  0  0  0  0
  190.0740  177.0470  144.6600 C   0  0  0  0  0  0  0  0  0  0  0  0
  188.4150  177.2840  142.6900 C   0  0  0  0  0  3  0  0  0  0  0  0
  188.7720  177.4160  144.0820 N   0  0  0  0  0  0  0  0  0  0  0  0
  184.0950  178.9650  145.3060 C   0  0  0  0  0  2  0  0  0  0  0  0
  184.3880  178.7390  141.4820 C   0  0  0  0  0  2  0  0  0  0  0  0
  182.3110  178.9240  143.5480 C   0  0  0  0  0  2  0  0  0  0  0  0
  181.4320  179.3020  139.4690 C   0  0  2  0  0  3  0  0  0  0  0  0
  182.6620  178.7120  139.8220 O   0  0  0  0  0  0  0  0  0  0  0  0
  182.9580  179.1340  141.1300 C   0  0  1  0  0  3  0  0  0  0  0  0
  180.5560  178.9180  141.7740 C   0  0  0  0  0  2  0  0  0  0  0  0
  181.9760  178.4900  142.1260 C   0  0  2  0  0  3  0  0  0  0  0  0
  180.2890  178.6840  140.2890 C   0  0  0  0  0  2  0  0  0  0  0  0
  183.7460  178.5250  143.8930 C   0  0  1  0  0  3  0  0  0  0  0  0
  184.7180  179.1690  142.9090 C   0  0  0  0  0  2  0  0  0  0  0  0
  181.2010  179.1790  137.9640 C   0  0  1  0  0  3  0  0  0  0  0  0
  181.0380  180.5330  137.2930 C   0  0  0  0  0  1  0  0  0  0  0  0
  182.2910  178.4490  137.3420 N   0  0  0  0  0  1  0  0  0  0  0  0
  1 12  1  0  0  0  0
  2 18  1  0  0  0  0
  3 16  1  0  0  0  0
  4 11  1  0  0  0  0
  5 10  2  0  0  0  0
  6  1  2  0  0  0  0
  6  5  1  0  0  0  0
  7  8  1  0  0  0  0
  9  3  1  0  0  0  0
 10  7  1  0  0  0  0
 11 13  1  0  0  0  0
 12 11  1  0  0  0  0
 12  7  2  0  0  0  0
 13  8  2  0  0  0  0
 14  2  1  0  0  0  0
 15  3  2  0  0  0  0
 16 17  1  0  0  0  0
 16 14  1  0  0  0  0
 17 19  2  0  0  0  0
 18  4  2  0  0  0  0
 19 20  1  0  0  0  0
 20 18  1  0  0  0  0
 20  1  1  0  0  0  0
 21  5  1  0  0  0  0
 22 31  1  0  0  0  0
 23 30  1  0  0  0  0
 24 32  1  6  0  0  0
 24 25  1  0  0  0  0
 24 29  1  0  0  0  0
 25 26  1  0  0  0  0
 26 22  1  1  0  0  0
 26 28  1  0  0  0  0
 28 27  1  6  0  0  0
 28 23  1  0  0  0  0
 29 27  1  0  0  0  0
 30 21  1  1  0  0  0
 31 30  1  0  0  0  0
 32 33  1  6  0  0  0
 34 32  1  0  0  0  0
M  END
>  <MODEL>
1

>  <REMARK>
 VINA RESULT:     -11.4      0.000      0.000
  Name = 
  3 active torsions:
  status: ('A' for Active; 'I' for Inactive)
    1  A    between atoms: C_7  and  C_11
    2  A    between atoms: C_8  and  C_18
    3  A    between atoms: C_18  and  C_30
                            x       y       z     vdW  Elec       q    Type
                         _______ _______ _______ _____ _____    ______ ____

>  <TORSDO>
F 3

$$$$
=
 OpenBabel10262423213D

 34 39  0  0  1  0  0  0  0  0999 V2000
  184.1320  178.7230  141.4800 C   0  0  0  0  0  0  0  0  0  0  0  0
  185.0420  178.5030  137.7160 C   0  0  0  0  0  2  0  0  0  0  0  0
  188.4240  177.5200  137.5730 C   0  0  0  0  0  0  0  0  0  0  0  0
  182.9390  178.6970  138.9040 C   0  0  0  0  0  3  0  0  0  0  0  0
  183.6220  178.8400  143.8780 C   0  0  0  0  0  0  0  0  0  0  0  0
  184.5770  178.7380  142.8210 C   0  0  0  0  0  3  0  0  0  0  0  0
  181.8600  178.8960  142.2530 C   0  0  0  0  0  0  0  0  0  0  0  0
  180.6470  178.9470  141.6530 N   0  0  0  0  0  0  0  0  0  0  0  0
  188.3340  176.9280  136.3180 O   0  0  0  0  0  0  0  0  0  0  0  0
  182.2290  178.9180  143.5970 C   0  0  0  0  0  3  0  0  0  0  0  0
  182.1950  178.8000  140.1190 N   0  0  0  0  0  0  0  0  0  0  0  0
  182.7850  178.8040  141.2910 C   0  0  0  0  0  0  0  0  0  0  0  0
  180.8860  178.8840  140.3340 N   0  0  0  0  0  0  0  0  0  0  0  0
  185.9640  177.3160  137.8120 C   0  0  0  0  0  2  0  0  0  0  0  0
  189.5560  177.8550  138.0140 O   0  0  0  0  0  1  0  0  0  0  0  0
  187.2410  177.7470  138.3530 N   0  0  0  0  0  0  0  0  0  0  0  0
  187.3730  178.3410  139.6560 C   0  0  0  0  0  3  0  0  0  0  0  0
  184.2890  178.6130  138.9890 C   0  0  0  0  0  0  0  0  0  0  0  0
  186.3900  178.6960  140.4960 C   0  0  0  0  0  3  0  0  0  0  0  0
  184.9620  178.6220  140.2980 N   0  0  0  0  0  0  0  0  0  0  0  0
  184.0910  178.8400  145.2940 C   0  0  0  0  0  2  0  0  0  0  0  0
  187.5840  177.3990  144.6010 C   0  0  0  0  0  2  0  0  0  0  0  0
  186.0610  178.5740  146.8180 C   0  0  0  0  0  2  0  0  0  0  0  0
  189.7990  176.7720  147.3950 C   0  0  2  0  0  3  0  0  0  0  0  0
  189.4480  177.1470  146.0830 O   0  0  0  0  0  0  0  0  0  0  0  0
  188.0460  177.2430  146.0450 C   0  0  1  0  0  3  0  0  0  0  0  0
  188.0270  178.2630  148.3240 C   0  0  0  0  0  2  0  0  0  0  0  0
  187.5790  178.4500  146.8780 C   0  0  2  0  0  3  0  0  0  0  0  0
  189.5150  177.9220  148.3720 C   0  0  0  0  0  2  0  0  0  0  0  0
  185.6050  178.7290  145.3670 C   0  0  1  0  0  3  0  0  0  0  0  0
  186.0640  177.5290  144.5450 C   0  0  0  0  0  2  0  0  0  0  0  0
  191.2570  176.3150  147.4400 C   0  0  1  0  0  3  0  0  0  0  0  0
  191.8840  176.2460  146.0580 C   0  0  0  0  0  1  0  0  0  0  0  0
  192.0370  177.1950  148.2920 N   0  0  0  0  0  1  0  0  0  0  0  0
  1  6  1  0  0  0  0
  2 14  1  0  0  0  0
  2 18  1  0  0  0  0
  3 15  1  0  0  0  0
  3 16  1  0  0  0  0
  4 18  2  0  0  0  0
  4 11  1  0  0  0  0
  5 21  1  0  0  0  0
  6  5  2  0  0  0  0
  7 10  2  0  0  0  0
  8  7  1  0  0  0  0
  9  3  2  0  0  0  0
 10  5  1  0  0  0  0
 11 13  1  0  0  0  0
 11 12  1  0  0  0  0
 12  1  2  0  0  0  0
 12  7  1  0  0  0  0
 13  8  2  0  0  0  0
 14 16  1  0  0  0  0
 16 17  1  0  0  0  0
 17 19  2  0  0  0  0
 18 20  1  0  0  0  0
 20 19  1  0  0  0  0
 20  1  1  0  0  0  0
 24 32  1  6  0  0  0
 24 29  1  0  0  0  0
 25 24  1  0  0  0  0
 26 22  1  6  0  0  0
 26 25  1  0  0  0  0
 26 28  1  0  0  0  0
 27 29  1  0  0  0  0
 28 23  1  1  0  0  0
 28 27  1  0  0  0  0
 30 21  1  1  0  0  0
 30 23  1  0  0  0  0
 31 22  1  0  0  0  0
 31 30  1  0  0  0  0
 32 33  1  6  0  0  0
 32 34  1  0  0  0  0
M  END
>  <MODEL>
2

>  <REMARK>
 VINA RESULT:     -11.2      2.693      8.055
  Name = 
  3 active torsions:
  status: ('A' for Active; 'I' for Inactive)
    1  A    between atoms: C_7  and  C_11
    2  A    between atoms: C_8  and  C_18
    3  A    between atoms: C_18  and  C_30
                            x       y       z     vdW  Elec       q    Type
                         _______ _______ _______ _____ _____    ______ ____

>  <TORSDO>
F 3

$$$$
=
 OpenBabel10262423213D

 34 39  0  0  1  0  0  0  0  0999 V2000
  188.4440  177.4400  145.2410 C   0  0  0  0  0  0  0  0  0  0  0  0
  191.6360  176.5060  143.2460 C   0  0  0  0  0  2  0  0  0  0  0  0
  190.7880  176.7820  139.8360 C   0  0  0  0  0  0  0  0  0  0  0  0
  191.2310  177.0140  145.5800 C   0  0  0  0  0  3  0  0  0  0  0  0
  186.3910  178.0450  146.4410 C   0  0  0  0  0  0  0  0  0  0  0  0
  187.0540  177.6930  145.2260 C   0  0  0  0  0  3  0  0  0  0  0  0
  188.4820  177.8920  147.6040 C   0  0  0  0  0  0  0  0  0  0  0  0
  189.4420  177.9090  148.5590 N   0  0  0  0  0  0  0  0  0  0  0  0
  192.0840  177.0350  139.3990 O   0  0  0  0  0  1  0  0  0  0  0  0
  187.1140  178.1520  147.6630 C   0  0  0  0  0  3  0  0  0  0  0  0
  190.3490  177.3680  146.6460 N   0  0  0  0  0  0  0  0  0  0  0  0
  189.0670  177.5600  146.4470 C   0  0  0  0  0  0  0  0  0  0  0  0
  190.5860  177.5840  147.9370 N   0  0  0  0  0  0  0  0  0  0  0  0
  191.4510  177.4870  142.1190 C   0  0  0  0  0  2  0  0  0  0  0  0
  189.9300  176.3720  139.0090 O   0  0  0  0  0  0  0  0  0  0  0  0
  190.4340  176.9860  141.2110 N   0  0  0  0  0  0  0  0  0  0  0  0
  189.0800  176.7370  141.6240 C   0  0  0  0  0  3  0  0  0  0  0  0
  190.7030  176.8690  144.3390 C   0  0  0  0  0  0  0  0  0  0  0  0
  188.5790  176.7970  142.8660 C   0  0  0  0  0  3  0  0  0  0  0  0
  189.2660  177.0770  144.1040 N   0  0  0  0  0  0  0  0  0  0  0  0
  184.9260  178.3270  146.4230 C   0  0  0  0  0  2  0  0  0  0  0  0
  182.5800  179.3100  143.5440 C   0  0  0  0  0  2  0  0  0  0  0  0
  185.3330  178.3770  143.9520 C   0  0  0  0  0  2  0  0  0  0  0  0
  183.6060  178.6140  140.1420 C   0  0  2  0  0  3  0  0  0  0  0  0
  182.9940  179.3380  141.1850 O   0  0  0  0  0  0  0  0  0  0  0  0
  183.3980  178.7390  142.3910 C   0  0  1  0  0  3  0  0  0  0  0  0
  185.6990  178.4000  141.4830 C   0  0  0  0  0  2  0  0  0  0  0  0
  184.8960  179.0010  142.6320 C   0  0  2  0  0  3  0  0  0  0  0  0
  185.1230  178.8560  140.1450 C   0  0  0  0  0  2  0  0  0  0  0  0
  184.5080  178.9530  145.1020 C   0  0  1  0  0  3  0  0  0  0  0  0
  183.0240  178.6870  144.8650 C   0  0  0  0  0  2  0  0  0  0  0  0
  182.9610  178.9720  138.8040 C   0  0  1  0  0  3  0  0  0  0  0  0
  181.6350  178.2600  138.5930 C   0  0  0  0  0  1  0  0  0  0  0  0
  182.7720  180.4080  138.7000 N   0  0  0  0  0  1  0  0  0  0  0  0
  1 12  1  0  0  0  0
  2 18  1  0  0  0  0
  3 16  1  0  0  0  0
  4 11  1  0  0  0  0
  5 10  2  0  0  0  0
  6  1  2  0  0  0  0
  6  5  1  0  0  0  0
  7 10  1  0  0  0  0
  7  8  1  0  0  0  0
  9  3  1  0  0  0  0
 11 13  1  0  0  0  0
 12 11  1  0  0  0  0
 12  7  2  0  0  0  0
 13  8  2  0  0  0  0
 14  2  1  0  0  0  0
 15  3  2  0  0  0  0
 16 17  1  0  0  0  0
 16 14  1  0  0  0  0
 17 19  2  0  0  0  0
 18  4  2  0  0  0  0
 19 20  1  0  0  0  0
 20 18  1  0  0  0  0
 20  1  1  0  0  0  0
 21  5  1  0  0  0  0
 22 31  1  0  0  0  0
 23 30  1  0  0  0  0
 24 32  1  6  0  0  0
 24 29  1  0  0  0  0
 24 25  1  0  0  0  0
 25 26  1  0  0  0  0
 26 28  1  0  0  0  0
 26 22  1  1  0  0  0
 28 27  1  6  0  0  0
 28 23  1  0  0  0  0
 29 27  1  0  0  0  0
 30 21  1  1  0  0  0
 31 30  1  0  0  0  0
 32 33  1  1  0  0  0
 34 32  1  0  0  0  0
M  END
>  <MODEL>
3

>  <REMARK>
 VINA RESULT:     -11.0      1.267      2.007
  Name = 
  3 active torsions:
  status: ('A' for Active; 'I' for Inactive)
    1  A    between atoms: C_7  and  C_11
    2  A    between atoms: C_8  and  C_18
    3  A    between atoms: C_18  and  C_30
                            x       y       z     vdW  Elec       q    Type
                         _______ _______ _______ _____ _____    ______ ____

>  <TORSDO>
F 3

$$$$
=
 OpenBabel10262423213D

 34 39  0  0  1  0  0  0  0  0999 V2000
  184.5280  178.7090  141.5350 C   0  0  0  0  0  0  0  0  0  0  0  0
  185.7390  178.3520  137.8670 C   0  0  0  0  0  2  0  0  0  0  0  0
  189.1420  177.4500  138.0330 C   0  0  0  0  0  0  0  0  0  0  0  0
  183.5450  178.5440  138.8760 C   0  0  0  0  0  3  0  0  0  0  0  0
  183.8270  178.9150  143.8770 C   0  0  0  0  0  0  0  0  0  0  0  0
  184.8650  178.7920  142.9040 C   0  0  0  0  0  3  0  0  0  0  0  0
  182.1980  178.8580  142.1180 C   0  0  0  0  0  0  0  0  0  0  0  0
  181.0360  178.8520  141.4230 N   0  0  0  0  0  0  0  0  0  0  0  0
  189.1660  176.8030  136.8030 O   0  0  0  0  0  0  0  0  0  0  0  0
  182.4590  178.9460  143.4850 C   0  0  0  0  0  3  0  0  0  0  0  0
  182.7050  178.6790  140.0240 N   0  0  0  0  0  0  0  0  0  0  0  0
  183.1990  178.7480  141.2360 C   0  0  0  0  0  0  0  0  0  0  0  0
  181.3810  178.7390  140.1320 N   0  0  0  0  0  0  0  0  0  0  0  0
  186.6770  177.1940  138.0880 C   0  0  0  0  0  2  0  0  0  0  0  0
  190.2280  177.8320  138.5470 O   0  0  0  0  0  1  0  0  0  0  0  0
  187.8970  177.6790  138.7080 N   0  0  0  0  0  0  0  0  0  0  0  0
  187.9120  178.3320  139.9890 C   0  0  0  0  0  3  0  0  0  0  0  0
  184.8860  178.4970  139.0710 C   0  0  0  0  0  0  0  0  0  0  0  0
  186.8570  178.6980  140.7330 C   0  0  0  0  0  3  0  0  0  0  0  0
  185.4520  178.5790  140.4270 N   0  0  0  0  0  0  0  0  0  0  0  0
  184.1820  178.9870  145.3250 C   0  0  0  0  0  2  0  0  0  0  0  0
  187.2260  177.6950  147.2800 C   0  0  0  0  0  2  0  0  0  0  0  0
  186.4050  178.1770  144.5030 C   0  0  0  0  0  2  0  0  0  0  0  0
  190.3530  177.2130  145.5200 C   0  0  2  0  0  3  0  0  0  0  0  0
  189.3460  176.9350  146.4660 O   0  0  0  0  0  0  0  0  0  0  0  0
  188.2520  177.7600  146.1540 C   0  0  1  0  0  3  0  0  0  0  0  0
  188.6410  177.4000  143.7140 C   0  0  0  0  0  2  0  0  0  0  0  0
  187.6090  177.3020  144.8320 C   0  0  2  0  0  3  0  0  0  0  0  0
  189.9350  176.7040  144.1320 C   0  0  0  0  0  2  0  0  0  0  0  0
  185.3810  178.1070  145.6370 C   0  0  1  0  0  3  0  0  0  0  0  0
  186.0190  178.5670  146.9450 C   0  0  0  0  0  2  0  0  0  0  0  0
  191.6850  176.6230  145.9800 C   0  0  1  0  0  3  0  0  0  0  0  0
  191.6620  176.2150  147.4440 C   0  0  0  0  0  1  0  0  0  0  0  0
  192.0460  175.4830  145.1560 N   0  0  0  0  0  1  0  0  0  0  0  0
  1  6  1  0  0  0  0
  2 14  1  0  0  0  0
  2 18  1  0  0  0  0
  3 15  1  0  0  0  0
  3 16  1  0  0  0  0
  4 18  2  0  0  0  0
  4 11  1  0  0  0  0
  5 21  1  0  0  0  0
  6  5  2  0  0  0  0
  7 10  2  0  0  0  0
  8  7  1  0  0  0  0
  9  3  2  0  0  0  0
 10  5  1  0  0  0  0
 11 13  1  0  0  0  0
 11 12  1  0  0  0  0
 12  1  2  0  0  0  0
 12  7  1  0  0  0  0
 13  8  2  0  0  0  0
 14 16  1  0  0  0  0
 16 17  1  0  0  0  0
 17 19  2  0  0  0  0
 18 20  1  0  0  0  0
 20 19  1  0  0  0  0
 20  1  1  0  0  0  0
 23 28  1  0  0  0  0
 23 30  1  0  0  0  0
 24 32  1  1  0  0  0
 24 25  1  0  0  0  0
 26 25  1  0  0  0  0
 26 22  1  1  0  0  0
 27 29  1  0  0  0  0
 28 27  1  6  0  0  0
 28 26  1  0  0  0  0
 29 24  1  0  0  0  0
 30 21  1  6  0  0  0
 30 31  1  0  0  0  0
 31 22  1  0  0  0  0
 32 33  1  1  0  0  0
 34 32  1  0  0  0  0
M  END
>  <MODEL>
4

>  <REMARK>
 VINA RESULT:     -11.0      2.640      7.657
  Name = 
  3 active torsions:
  status: ('A' for Active; 'I' for Inactive)
    1  A    between atoms: C_7  and  C_11
    2  A    between atoms: C_8  and  C_18
    3  A    between atoms: C_18  and  C_30
                            x       y       z     vdW  Elec       q    Type
                         _______ _______ _______ _____ _____    ______ ____

>  <TORSDO>
F 3

$$$$
=
 OpenBabel10262423213D

 34 39  0  0  1  0  0  0  0  0999 V2000
  182.9740  178.6150  141.7820 C   0  0  0  0  0  0  0  0  0  0  0  0
  182.9420  178.2620  137.9200 C   0  0  0  0  0  2  0  0  0  0  0  0
  186.3020  177.8620  136.9350 C   0  0  0  0  0  0  0  0  0  0  0  0
  181.2020  178.1860  139.6050 C   0  0  0  0  0  3  0  0  0  0  0  0
  183.0650  178.8280  144.2250 C   0  0  0  0  0  0  0  0  0  0  0  0
  183.7280  178.8090  142.9610 C   0  0  0  0  0  3  0  0  0  0  0  0
  180.9740  178.4570  143.1110 C   0  0  0  0  0  0  0  0  0  0  0  0
  179.6620  178.2540  142.8450 N   0  0  0  0  0  0  0  0  0  0  0  0
  186.0140  177.1680  135.7660 O   0  0  0  0  0  0  0  0  0  0  0  0
  181.6560  178.6460  144.3130 C   0  0  0  0  0  3  0  0  0  0  0  0
  180.7790  178.2540  140.9680 N   0  0  0  0  0  0  0  0  0  0  0  0
  181.6310  178.4500  141.9450 C   0  0  0  0  0  0  0  0  0  0  0  0
  179.5730  178.1300  141.5120 N   0  0  0  0  0  0  0  0  0  0  0  0
  184.0620  177.2610  137.8100 C   0  0  0  0  0  2  0  0  0  0  0  0
  187.4260  178.4190  137.0570 O   0  0  0  0  0  1  0  0  0  0  0  0
  185.3310  177.9440  137.9880 N   0  0  0  0  0  0  0  0  0  0  0  0
  185.6710  178.6510  139.1930 C   0  0  0  0  0  3  0  0  0  0  0  0
  182.5230  178.3400  139.3400 C   0  0  0  0  0  0  0  0  0  0  0  0
  184.8800  178.8970  140.2470 C   0  0  0  0  0  3  0  0  0  0  0  0
  183.4870  178.5660  140.4290 N   0  0  0  0  0  0  0  0  0  0  0  0
  183.8640  179.0180  145.4710 C   0  0  0  0  0  2  0  0  0  0  0  0
  187.1920  177.5590  146.7180 C   0  0  0  0  0  2  0  0  0  0  0  0
  185.9250  178.3790  144.2000 C   0  0  0  0  0  2  0  0  0  0  0  0
  189.9900  177.3900  144.4280 C   0  0  2  0  0  3  0  0  0  0  0  0
  189.1530  176.9660  145.4780 O   0  0  0  0  0  0  0  0  0  0  0  0
  188.0190  177.7960  145.4590 C   0  0  1  0  0  3  0  0  0  0  0  0
  188.0060  177.7680  142.9630 C   0  0  0  0  0  2  0  0  0  0  0  0
  187.1700  177.4990  144.2100 C   0  0  2  0  0  3  0  0  0  0  0  0
  189.3530  177.0580  143.0700 C   0  0  0  0  0  2  0  0  0  0  0  0
  185.1020  178.1350  145.4640 C   0  0  1  0  0  3  0  0  0  0  0  0
  185.9430  178.4360  146.7020 C   0  0  0  0  0  2  0  0  0  0  0  0
  191.3820  176.7790  144.5830 C   0  0  1  0  0  3  0  0  0  0  0  0
  191.6810  176.3790  146.0180 C   0  0  0  0  0  1  0  0  0  0  0  0
  191.5320  175.6290  143.7090 N   0  0  0  0  0  1  0  0  0  0  0  0
  1 12  2  0  0  0  0
  1  6  1  0  0  0  0
  2 18  1  0  0  0  0
  3 15  1  0  0  0  0
  3 16  1  0  0  0  0
  4 11  1  0  0  0  0
  5 10  1  0  0  0  0
  5 21  1  0  0  0  0
  6  5  2  0  0  0  0
  7 10  2  0  0  0  0
  8  7  1  0  0  0  0
  9  3  2  0  0  0  0
 11 13  1  0  0  0  0
 11 12  1  0  0  0  0
 12  7  1  0  0  0  0
 13  8  2  0  0  0  0
 14  2  1  0  0  0  0
 14 16  1  0  0  0  0
 16 17  1  0  0  0  0
 17 19  2  0  0  0  0
 18  4  2  0  0  0  0
 18 20  1  0  0  0  0
 19 20  1  0  0  0  0
 20  1  1  0  0  0  0
 23 28  1  0  0  0  0
 23 30  1  0  0  0  0
 24 32  1  1  0  0  0
 24 25  1  0  0  0  0
 26 25  1  0  0  0  0
 26 22  1  1  0  0  0
 27 29  1  0  0  0  0
 28 27  1  6  0  0  0
 28 26  1  0  0  0  0
 29 24  1  0  0  0  0
 30 21  1  6  0  0  0
 30 31  1  0  0  0  0
 31 22  1  0  0  0  0
 32 33  1  1  0  0  0
 34 32  1  0  0  0  0
M  END
>  <MODEL>
5

>  <REMARK>
 VINA RESULT:     -10.8      2.771      7.948
  Name = 
  3 active torsions:
  status: ('A' for Active; 'I' for Inactive)
    1  A    between atoms: C_7  and  C_11
    2  A    between atoms: C_8  and  C_18
    3  A    between atoms: C_18  and  C_30
                            x       y       z     vdW  Elec       q    Type
                         _______ _______ _______ _____ _____    ______ ____

>  <TORSDO>
F 3

$$$$
=
 OpenBabel10262423213D

 34 39  0  0  1  0  0  0  0  0999 V2000
  185.7570  178.5800  141.0890 C   0  0  0  0  0  0  0  0  0  0  0  0
  187.7010  177.8960  137.8030 C   0  0  0  0  0  2  0  0  0  0  0  0
  190.9130  176.8080  138.7620 C   0  0  0  0  0  0  0  0  0  0  0  0
  185.3600  178.2880  138.2920 C   0  0  0  0  0  3  0  0  0  0  0  0
  184.5840  178.9910  143.2050 C   0  0  0  0  0  0  0  0  0  0  0  0
  185.7950  178.7390  142.4920 C   0  0  0  0  0  3  0  0  0  0  0  0
  183.3730  178.9070  141.1360 C   0  0  0  0  0  0  0  0  0  0  0  0
  182.3910  178.9220  140.2050 N   0  0  0  0  0  0  0  0  0  0  0  0
  191.1540  176.0760  137.6050 O   0  0  0  0  0  0  0  0  0  0  0  0
  183.3390  179.0750  142.5200 C   0  0  0  0  0  3  0  0  0  0  0  0
  184.3050  178.5530  139.2180 N   0  0  0  0  0  0  0  0  0  0  0  0
  184.5300  178.6770  140.5040 C   0  0  0  0  0  0  0  0  0  0  0  0
  182.9970  178.6980  139.0280 N   0  0  0  0  0  0  0  0  0  0  0  0
  188.4810  176.7030  138.2880 C   0  0  0  0  0  2  0  0  0  0  0  0
  191.8870  177.1600  139.4800 O   0  0  0  0  0  1  0  0  0  0  0  0
  189.5710  177.1570  139.1330 N   0  0  0  0  0  0  0  0  0  0  0  0
  189.3570  177.8960  140.3480 C   0  0  0  0  0  3  0  0  0  0  0  0
  186.6210  178.1750  138.7790 C   0  0  0  0  0  0  0  0  0  0  0  0
  188.1970  178.3750  140.8200 C   0  0  0  0  0  3  0  0  0  0  0  0
  186.8860  178.3180  140.2200 N   0  0  0  0  0  0  0  0  0  0  0  0
  184.6220  179.1420  144.6890 C   0  0  0  0  0  2  0  0  0  0  0  0
  186.7950  177.5550  147.4310 C   0  0  0  0  0  2  0  0  0  0  0  0
  186.9570  178.2400  144.5810 C   0  0  0  0  0  2  0  0  0  0  0  0
  190.3050  176.9750  146.7590 C   0  0  2  0  0  3  0  0  0  0  0  0
  189.0320  176.7090  147.3020 O   0  0  0  0  0  0  0  0  0  0  0  0
  188.1370  177.6170  146.7090 C   0  0  1  0  0  3  0  0  0  0  0  0
  189.2940  177.3680  144.5120 C   0  0  0  0  0  2  0  0  0  0  0  0
  187.9470  177.2740  145.2210 C   0  0  2  0  0  3  0  0  0  0  0  0
  190.3470  176.5710  145.2770 C   0  0  0  0  0  2  0  0  0  0  0  0
  185.6150  178.1720  145.3100 C   0  0  1  0  0  3  0  0  0  0  0  0
  185.8040  178.5190  146.7840 C   0  0  0  0  0  2  0  0  0  0  0  0
  191.3850  176.2770  147.5840 C   0  0  1  0  0  3  0  0  0  0  0  0
  192.3470  175.4780  146.7190 C   0  0  0  0  0  1  0  0  0  0  0  0
  192.1220  177.2460  148.3760 N   0  0  0  0  0  1  0  0  0  0  0  0
  1  6  1  0  0  0  0
  2 14  1  0  0  0  0
  2 18  1  0  0  0  0
  3 16  1  0  0  0  0
  3 15  1  0  0  0  0
  4 18  2  0  0  0  0
  4 11  1  0  0  0  0
  5 21  1  0  0  0  0
  6  5  2  0  0  0  0
  7 10  2  0  0  0  0
  8  7  1  0  0  0  0
  9  3  2  0  0  0  0
 10  5  1  0  0  0  0
 11 12  1  0  0  0  0
 12  1  2  0  0  0  0
 12  7  1  0  0  0  0
 13 11  1  0  0  0  0
 13  8  2  0  0  0  0
 14 16  1  0  0  0  0
 16 17  1  0  0  0  0
 17 19  2  0  0  0  0
 18 20  1  0  0  0  0
 20 19  1  0  0  0  0
 20  1  1  0  0  0  0
 23 28  1  0  0  0  0
 23 30  1  0  0  0  0
 24 25  1  0  0  0  0
 24 32  1  1  0  0  0
 26 25  1  0  0  0  0
 26 22  1  1  0  0  0
 27 29  1  0  0  0  0
 28 27  1  6  0  0  0
 28 26  1  0  0  0  0
 29 24  1  0  0  0  0
 30 21  1  6  0  0  0
 30 31  1  0  0  0  0
 31 22  1  0  0  0  0
 32 33  1  6  0  0  0
 32 34  1  0  0  0  0
M  END
>  <MODEL>
6

>  <REMARK>
 VINA RESULT:     -10.6      2.711      7.749
  Name = 
  3 active torsions:
  status: ('A' for Active; 'I' for Inactive)
    1  A    between atoms: C_7  and  C_11
    2  A    between atoms: C_8  and  C_18
    3  A    between atoms: C_18  and  C_30
                            x       y       z     vdW  Elec       q    Type
                         _______ _______ _______ _____ _____    ______ ____

>  <TORSDO>
F 3

$$$$
=
 OpenBabel10262423213D

 34 39  0  0  1  0  0  0  0  0999 V2000
  187.9800  177.5570  143.9720 C   0  0  0  0  0  0  0  0  0  0  0  0
  191.6130  176.4390  143.2000 C   0  0  0  0  0  2  0  0  0  0  0  0
  192.1560  177.1310  139.7870 C   0  0  0  0  0  0  0  0  0  0  0  0
  190.3850  176.7720  145.2620 C   0  0  0  0  0  3  0  0  0  0  0  0
  185.6760  178.2870  144.3930 C   0  0  0  0  0  0  0  0  0  0  0  0
  186.7250  177.9740  143.4770 C   0  0  0  0  0  3  0  0  0  0  0  0
  187.1460  177.7790  146.2180 C   0  0  0  0  0  0  0  0  0  0  0  0
  187.6660  177.5930  147.4550 N   0  0  0  0  0  0  0  0  0  0  0  0
  193.5350  177.2670  139.8990 O   0  0  0  0  0  1  0  0  0  0  0  0
  185.8820  178.1940  145.7990 C   0  0  0  0  0  3  0  0  0  0  0  0
  189.1910  177.1280  145.9620 N   0  0  0  0  0  0  0  0  0  0  0  0
  188.1020  177.4890  145.3280 C   0  0  0  0  0  0  0  0  0  0  0  0
  188.9320  177.1930  147.2640 N   0  0  0  0  0  0  0  0  0  0  0  0
  191.9470  177.5360  142.2240 C   0  0  0  0  0  2  0  0  0  0  0  0
  191.6520  176.9050  138.6540 O   0  0  0  0  0  0  0  0  0  0  0  0
  191.3190  177.2470  140.9470 N   0  0  0  0  0  0  0  0  0  0  0  0
  189.8960  177.1220  140.7910 C   0  0  0  0  0  3  0  0  0  0  0  0
  190.3630  176.8080  143.9070 C   0  0  0  0  0  0  0  0  0  0  0  0
  188.9640  177.1260  141.7550 C   0  0  0  0  0  3  0  0  0  0  0  0
  189.1440  177.2060  143.1840 N   0  0  0  0  0  0  0  0  0  0  0  0
  184.3540  178.7420  143.8700 C   0  0  0  0  0  2  0  0  0  0  0  0
  184.7020  178.9990  140.0530 C   0  0  0  0  0  2  0  0  0  0  0  0
  182.6940  178.2520  142.0600 C   0  0  0  0  0  2  0  0  0  0  0  0
  181.7320  178.6900  138.0060 C   0  0  2  0  0  3  0  0  0  0  0  0
  183.0910  178.5330  138.3430 O   0  0  0  0  0  0  0  0  0  0  0  0
  183.2230  178.9050  139.6930 C   0  0  1  0  0  3  0  0  0  0  0  0
  181.0490  177.8070  140.2370 C   0  0  0  0  0  2  0  0  0  0  0  0
  182.5300  177.8670  140.5940 C   0  0  2  0  0  3  0  0  0  0  0  0
  180.8780  177.6380  138.7300 C   0  0  0  0  0  2  0  0  0  0  0  0
  184.1790  178.3460  142.4140 C   0  0  1  0  0  3  0  0  0  0  0  0
  184.8630  179.3790  141.5230 C   0  0  0  0  0  2  0  0  0  0  0  0
  181.5570  178.6390  136.4890 C   0  0  1  0  0  3  0  0  0  0  0  0
  180.5900  177.5500  136.0550 C   0  0  0  0  0  1  0  0  0  0  0  0
  181.1080  179.9260  135.9870 N   0  0  0  0  0  1  0  0  0  0  0  0
  1 12  1  0  0  0  0
  2 18  1  0  0  0  0
  3  9  1  0  0  0  0
  3 16  1  0  0  0  0
  4 11  1  0  0  0  0
  5 10  2  0  0  0  0
  6  1  2  0  0  0  0
  6  5  1  0  0  0  0
  7  8  1  0  0  0  0
 10  7  1  0  0  0  0
 11 13  1  0  0  0  0
 12 11  1  0  0  0  0
 12  7  2  0  0  0  0
 13  8  2  0  0  0  0
 14  2  1  0  0  0  0
 15  3  2  0  0  0  0
 16 14  1  0  0  0  0
 17 16  1  0  0  0  0
 17 19  2  0  0  0  0
 18  4  2  0  0  0  0
 19 20  1  0  0  0  0
 20 18  1  0  0  0  0
 20  1  1  0  0  0  0
 21  5  1  0  0  0  0
 22 31  1  0  0  0  0
 23 30  1  0  0  0  0
 24 32  1  6  0  0  0
 24 25  1  0  0  0  0
 24 29  1  0  0  0  0
 25 26  1  0  0  0  0
 26 22  1  1  0  0  0
 26 28  1  0  0  0  0
 28 27  1  6  0  0  0
 28 23  1  0  0  0  0
 29 27  1  0  0  0  0
 30 21  1  1  0  0  0
 31 30  1  0  0  0  0
 32 33  1  1  0  0  0
 34 32  1  0  0  0  0
M  END
>  <MODEL>
7

>  <REMARK>
 VINA RESULT:     -10.5      1.175      1.430
  Name = 
  3 active torsions:
  status: ('A' for Active; 'I' for Inactive)
    1  A    between atoms: C_7  and  C_11
    2  A    between atoms: C_8  and  C_18
    3  A    between atoms: C_18  and  C_30
                            x       y       z     vdW  Elec       q    Type
                         _______ _______ _______ _____ _____    ______ ____

>  <TORSDO>
F 3

$$$$
=
 OpenBabel10262423213D

 34 39  0  0  1  0  0  0  0  0999 V2000
  186.6720  178.0440  143.8040 C   0  0  0  0  0  0  0  0  0  0  0  0
  187.9950  177.2130  147.3540 C   0  0  0  0  0  2  0  0  0  0  0  0
  191.4680  176.7120  147.0220 C   0  0  0  0  0  0  0  0  0  0  0  0
  185.8920  178.0930  146.5340 C   0  0  0  0  0  3  0  0  0  0  0  0
  185.9010  178.5660  141.5340 C   0  0  0  0  0  0  0  0  0  0  0  0
  186.9190  178.0880  142.4140 C   0  0  0  0  0  3  0  0  0  0  0  0
  184.4710  178.9380  143.4220 C   0  0  0  0  0  0  0  0  0  0  0  0
  183.4240  179.2740  144.2120 N   0  0  0  0  0  0  0  0  0  0  0  0
  191.7760  177.0590  148.3330 O   0  0  0  0  0  1  0  0  0  0  0  0
  184.6460  179.0070  142.0400 C   0  0  0  0  0  3  0  0  0  0  0  0
  185.0470  178.5140  145.4620 N   0  0  0  0  0  0  0  0  0  0  0  0
  185.4470  178.4790  144.2140 C   0  0  0  0  0  0  0  0  0  0  0  0
  183.8100  179.0030  145.4690 N   0  0  0  0  0  0  0  0  0  0  0  0
  189.3170  177.9260  147.2370 C   0  0  0  0  0  2  0  0  0  0  0  0
  192.2960  176.0330  146.3570 O   0  0  0  0  0  0  0  0  0  0  0  0
  190.2240  177.1210  146.4370 N   0  0  0  0  0  0  0  0  0  0  0  0
  189.9480  176.7630  145.0730 C   0  0  0  0  0  3  0  0  0  0  0  0
  187.1330  177.6410  146.2270 C   0  0  0  0  0  0  0  0  0  0  0  0
  188.8210  176.9870  144.3800 C   0  0  0  0  0  3  0  0  0  0  0  0
  187.5910  177.5930  144.8290 N   0  0  0  0  0  0  0  0  0  0  0  0
  186.1680  178.6280  140.0670 C   0  0  0  0  0  2  0  0  0  0  0  0
  189.8860  177.8110  139.5460 C   0  0  0  0  0  2  0  0  0  0  0  0
  187.2980  177.3330  138.2440 C   0  0  0  0  0  2  0  0  0  0  0  0
  190.9310  176.3780  136.3900 C   0  0  2  0  0  3  0  0  0  0  0  0
  190.9410  176.5770  137.7850 O   0  0  0  0  0  0  0  0  0  0  0  0
  189.8060  177.3470  138.0960 C   0  0  1  0  0  3  0  0  0  0  0  0
  188.4540  176.0800  136.4220 C   0  0  0  0  0  2  0  0  0  0  0  0
  188.5300  176.5120  137.8820 C   0  0  2  0  0  3  0  0  0  0  0  0
  189.7750  175.4470  135.9920 C   0  0  0  0  0  2  0  0  0  0  0  0
  187.3860  177.7950  139.6990 C   0  0  1  0  0  3  0  0  0  0  0  0
  188.6480  178.6280  139.9070 C   0  0  0  0  0  2  0  0  0  0  0  0
  192.2890  175.8530  135.9240 C   0  0  1  0  0  3  0  0  0  0  0  0
  193.4040  176.1870  136.9010 C   0  0  0  0  0  1  0  0  0  0  0  0
  192.2320  174.4180  135.7120 N   0  0  0  0  0  1  0  0  0  0  0  0
  1 12  1  0  0  0  0
  1 20  1  0  0  0  0
  3  9  1  0  0  0  0
  5 10  2  0  0  0  0
  5  6  1  0  0  0  0
  6  1  2  0  0  0  0
  7  8  1  0  0  0  0
  7 12  2  0  0  0  0
  8 13  2  0  0  0  0
 10  7  1  0  0  0  0
 11 13  1  0  0  0  0
 11  4  1  0  0  0  0
 12 11  1  0  0  0  0
 14  2  1  0  0  0  0
 15  3  2  0  0  0  0
 16  3  1  0  0  0  0
 16 14  1  0  0  0  0
 17 16  1  0  0  0  0
 18  4  2  0  0  0  0
 18  2  1  0  0  0  0
 19 20  1  0  0  0  0
 19 17  2  0  0  0  0
 20 18  1  0  0  0  0
 21  5  1  0  0  0  0
 22 31  1  0  0  0  0
 23 30  1  0  0  0  0
 24 32  1  1  0  0  0
 24 25  1  0  0  0  0
 25 26  1  0  0  0  0
 26 22  1  1  0  0  0
 28 27  1  6  0  0  0
 28 26  1  0  0  0  0
 28 23  1  0  0  0  0
 29 24  1  0  0  0  0
 29 27  1  0  0  0  0
 30 31  1  0  0  0  0
 30 21  1  6  0  0  0
 32 33  1  1  0  0  0
 34 32  1  0  0  0  0
M  END
>  <MODEL>
8

>  <REMARK>
 VINA RESULT:     -10.4      3.485      6.865
  Name = 
  3 active torsions:
  status: ('A' for Active; 'I' for Inactive)
    1  A    between atoms: C_7  and  C_11
    2  A    between atoms: C_8  and  C_18
    3  A    between atoms: C_18  and  C_30
                            x       y       z     vdW  Elec       q    Type
                         _______ _______ _______ _____ _____    ______ ____

>  <TORSDO>
F 3

$$$$
=
 OpenBabel10262423213D

 34 39  0  0  1  0  0  0  0  0999 V2000
  185.9990  178.0330  143.5720 C   0  0  0  0  0  0  0  0  0  0  0  0
  188.2900  177.0000  146.5260 C   0  0  0  0  0  2  0  0  0  0  0  0
  191.4830  176.4280  145.1490 C   0  0  0  0  0  0  0  0  0  0  0  0
  186.0720  177.9700  146.4100 C   0  0  0  0  0  3  0  0  0  0  0  0
  184.6060  178.6820  141.6590 C   0  0  0  0  0  0  0  0  0  0  0  0
  185.8210  178.1380  142.1740 C   0  0  0  0  0  3  0  0  0  0  0  0
  183.8200  178.9990  143.9020 C   0  0  0  0  0  0  0  0  0  0  0  0
  183.0710  179.3220  144.9830 N   0  0  0  0  0  0  0  0  0  0  0  0
  192.1810  176.7040  146.3190 O   0  0  0  0  0  1  0  0  0  0  0  0
  183.5770  179.1290  142.5350 C   0  0  0  0  0  3  0  0  0  0  0  0
  184.9620  178.4630  145.6570 N   0  0  0  0  0  0  0  0  0  0  0  0
  184.9700  178.4780  144.3460 C   0  0  0  0  0  0  0  0  0  0  0  0
  183.8040  178.9810  146.0530 N   0  0  0  0  0  0  0  0  0  0  0  0
  189.5420  177.6840  146.0450 C   0  0  0  0  0  2  0  0  0  0  0  0
  192.0480  175.7630  144.2400 O   0  0  0  0  0  0  0  0  0  0  0  0
  190.1370  176.8960  144.9800 N   0  0  0  0  0  0  0  0  0  0  0  0
  189.4530  176.6110  143.7480 C   0  0  0  0  0  3  0  0  0  0  0  0
  187.1470  177.5030  145.7270 C   0  0  0  0  0  0  0  0  0  0  0  0
  188.1800  176.8960  143.4350 C   0  0  0  0  0  3  0  0  0  0  0  0
  187.1640  177.5100  144.2550 N   0  0  0  0  0  0  0  0  0  0  0  0
  184.4250  178.8080  140.1830 C   0  0  0  0  0  2  0  0  0  0  0  0
  183.6150  176.2640  137.4200 C   0  0  0  0  0  2  0  0  0  0  0  0
  182.5430  177.1640  140.0010 C   0  0  0  0  0  2  0  0  0  0  0  0
  180.4160  174.5720  137.4900 C   0  0  2  0  0  3  0  0  0  0  0  0
  181.8000  174.7090  137.2680 O   0  0  0  0  0  0  0  0  0  0  0  0
  182.1870  175.9330  137.8400 C   0  0  1  0  0  3  0  0  0  0  0  0
  180.6590  175.5430  139.7750 C   0  0  0  0  0  2  0  0  0  0  0  0
  182.0990  175.8480  139.3750 C   0  0  2  0  0  3  0  0  0  0  0  0
  180.1350  174.3480  138.9840 C   0  0  0  0  0  2  0  0  0  0  0  0
  183.9750  177.4890  139.5750 C   0  0  1  0  0  3  0  0  0  0  0  0
  184.0600  177.5790  138.0540 C   0  0  0  0  0  2  0  0  0  0  0  0
  179.8500  173.4520  136.6170 C   0  0  1  0  0  3  0  0  0  0  0  0
  180.9380  172.6970  135.8700 C   0  0  0  0  0  1  0  0  0  0  0  0
  179.0700  172.5280  137.4200 N   0  0  0  0  0  1  0  0  0  0  0  0
  1 20  1  0  0  0  0
  1 12  1  0  0  0  0
  3  9  1  0  0  0  0
  5  6  1  0  0  0  0
  5 10  2  0  0  0  0
  6  1  2  0  0  0  0
  7 12  2  0  0  0  0
  7  8  1  0  0  0  0
  8 13  2  0  0  0  0
 10  7  1  0  0  0  0
 11 13  1  0  0  0  0
 11  4  1  0  0  0  0
 12 11  1  0  0  0  0
 14  2  1  0  0  0  0
 15  3  2  0  0  0  0
 16  3  1  0  0  0  0
 16 14  1  0  0  0  0
 17 16  1  0  0  0  0
 18  4  2  0  0  0  0
 18  2  1  0  0  0  0
 19 17  2  0  0  0  0
 19 20  1  0  0  0  0
 20 18  1  0  0  0  0
 21  5  1  0  0  0  0
 22 31  1  0  0  0  0
 24 32  1  6  0  0  0
 24 29  1  0  0  0  0
 25 24  1  0  0  0  0
 25 26  1  0  0  0  0
 26 22  1  1  0  0  0
 26 28  1  0  0  0  0
 28 27  1  6  0  0  0
 28 23  1  0  0  0  0
 29 27  1  0  0  0  0
 30 23  1  0  0  0  0
 30 21  1  1  0  0  0
 31 30  1  0  0  0  0
 32 33  1  1  0  0  0
 32 34  1  0  0  0  0
M  END
>  <MODEL>
9

>  <REMARK>
 VINA RESULT:     -10.2      3.511      4.636
  Name = 
  3 active torsions:
  status: ('A' for Active; 'I' for Inactive)
    1  A    between atoms: C_7  and  C_11
    2  A    between atoms: C_8  and  C_18
    3  A    between atoms: C_18  and  C_30
                            x       y       z     vdW  Elec       q    Type
                         _______ _______ _______ _____ _____    ______ ____

>  <TORSDO>
F 3

$$$$
