=
 OpenBabel10262422323D

 43 49  0  0  1  0  0  0  0  0999 V2000
  191.6100  176.3860  147.1760 C   0  0  0  0  0  0  0  0  0  0  0  0
  186.9680  177.4030  145.5460 C   0  0  1  0  0  3  0  0  0  0  0  0
  189.3290  177.2050  147.0490 C   0  0  0  0  0  0  0  0  0  0  0  0
  191.6950  176.3860  145.7820 C   0  0  0  0  0  3  0  0  0  0  0  0
  192.7750  175.9540  147.9890 C   0  0  0  0  0  1  0  0  0  0  0  0
  189.4060  177.1810  145.6330 C   0  0  0  0  0  0  0  0  0  0  0  0
  190.4300  176.7930  147.8060 C   0  0  0  0  0  3  0  0  0  0  0  0
  190.6000  176.7910  145.0140 C   0  0  0  0  0  3  0  0  0  0  0  0
  188.0340  177.1990  143.4200 C   0  0  1  0  0  3  0  0  0  0  0  0
  188.2520  177.7240  144.8340 C   0  0  1  0  0  3  0  0  0  0  0  0
  186.9390  178.1390  146.8760 C   0  0  0  0  0  2  0  0  0  0  0  0
  185.8780  177.6710  144.5330 C   0  0  2  0  0  3  0  0  0  0  0  0
  186.5130  177.1540  143.2410 C   0  0  0  0  0  2  0  0  0  0  0  0
  188.0510  177.5770  147.7780 C   0  0  0  0  0  2  0  0  0  0  0  0
  185.5690  179.1670  144.4180 C   0  0  0  0  0  2  0  0  0  0  0  0
  184.0810  179.4510  144.5800 C   0  0  0  0  0  2  0  0  0  0  0  0
  180.9200  178.5590  142.5680 C   0  0  0  0  0  2  0  0  0  0  0  0
  183.4400  178.0080  141.1230 C   0  0  0  0  0  2  0  0  0  0  0  0
  182.1820  178.4190  140.3530 C   0  0  0  0  0  2  0  0  0  0  0  0
  181.8310  179.2880  143.5470 C   0  0  0  0  0  2  0  0  0  0  0  0
  183.2690  178.7840  143.4800 C   0  0  0  0  0  3  0  0  0  0  0  0
  181.1050  179.1390  141.1730 C   0  0  0  0  0  2  0  0  0  0  0  0
  183.9020  179.0610  142.1200 C   0  0  0  0  0  2  0  0  0  0  0  0
  188.6000  178.1790  142.4020 C   0  0  0  0  0  2  0  0  0  0  0  0
  188.7540  177.5370  141.0330 C   0  0  1  0  0  3  0  0  0  0  0  0
  188.6800  175.8450  138.2400 C   0  0  0  0  0  1  0  0  0  0  0  0
  188.6820  177.3050  137.7800 C   0  0  2  0  0  0  0  0  0  0  0  0
  188.3340  178.4630  139.9540 C   0  0  2  0  0  3  0  0  0  0  0  0
  190.2070  177.3840  140.7000 C   0  0  0  0  0  2  0  0  0  0  0  0
  186.8660  178.3010  139.5710 C   0  0  0  0  0  2  0  0  0  0  0  0
  189.2430  178.1980  138.8310 N   0  0  1  0  0  0  0  0  0  0  0  0
  187.2180  177.6840  137.4430 C   0  0  0  0  0  2  0  0  0  0  0  0
  190.4000  177.6500  139.3250 O   0  0  0  0  0  0  0  0  0  0  0  0
  186.7100  178.7220  138.2460 O   0  0  0  0  0  0  0  0  0  0  0  0
  189.5460  177.4550  136.5190 C   0  0  0  0  0  2  0  0  0  0  0  0
  189.9850  176.1340  135.8820 C   0  0  1  0  0  3  0  0  0  0  0  0
  189.4890  176.0600  134.5940 F   0  0  0  0  0  0  0  0  0  0  0  0
  191.4730  176.0130  135.8520 C   0  0  0  0  0  0  0  0  0  0  0  0
  193.6070  176.3900  137.0760 C   0  0  0  0  0  2  0  0  0  0  0  0
  193.5490  175.9660  134.6590 C   0  0  0  0  0  3  0  0  0  0  0  0
  194.2810  176.0800  135.7700 C   0  0  0  0  0  3  0  0  0  0  0  0
  192.1170  176.0560  134.7200 N   0  0  0  0  0  0  0  0  0  0  0  0
  192.2160  175.7540  137.1350 C   0  0  0  0  0  2  0  0  0  0  0  0
  1  7  1  0  0  0  0
  1  5  1  0  0  0  0
  2 11  1  1  0  0  0
  3 14  1  0  0  0  0
  3  7  2  0  0  0  0
  4  1  2  0  0  0  0
  6  3  1  0  0  0  0
  8  6  2  0  0  0  0
  8  4  1  0  0  0  0
  9 24  1  6  0  0  0
  9 10  1  0  0  0  0
 10  2  1  0  0  0  0
 10  6  1  1  0  0  0
 11 14  1  0  0  0  0
 12 15  1  6  0  0  0
 12  2  1  0  0  0  0
 13  9  1  0  0  0  0
 13 12  1  0  0  0  0
 15 16  1  0  0  0  0
 17 20  1  0  0  0  0
 18 23  1  0  0  0  0
 19 18  1  0  0  0  0
 19 22  1  0  0  0  0
 21 20  1  0  0  0  0
 21 16  1  0  0  0  0
 22 17  1  0  0  0  0
 23 21  1  0  0  0  0
 25 24  1  1  0  0  0
 27 26  1  1  0  0  0
 27 31  1  0  0  0  0
 28 30  1  6  0  0  0
 28 25  1  0  0  0  0
 29 25  1  0  0  0  0
 31 33  1  1  0  0  0
 31 28  1  0  0  0  0
 32 27  1  0  0  0  0
 32 34  1  0  0  0  0
 33 29  1  0  0  0  0
 34 30  1  0  0  0  0
 35 27  1  0  0  0  0
 36 37  1  6  0  0  0
 36 35  1  0  0  0  0
 38 36  1  0  0  0  0
 38 43  1  0  0  0  0
 39 43  1  0  0  0  0
 40 42  1  0  0  0  0
 40 41  2  0  0  0  0
 41 39  1  0  0  0  0
 42 38  2  0  0  0  0
M  END
>  <MODEL>
1

>  <REMARK>
 VINA RESULT:     -10.9      0.000      0.000
  Name = 
  8 active torsions:
  status: ('A' for Active; 'I' for Inactive)
    1  A    between atoms: C_1  and  C_28
    2  A    between atoms: C_1  and  C_34
    3  A    between atoms: C_2  and  C_13
    4  A    between atoms: C_4  and  C_22
    5  A    between atoms: C_11  and  C_14
    6  A    between atoms: C_13  and  C_27
    7  A    between atoms: C_14  and  C_22
    8  A    between atoms: C_28  and  C_35
                            x       y       z     vdW  Elec       q    Type
                         _______ _______ _______ _____ _____    ______ ____

>  <TORSDO>
F 8

$$$$
=
 OpenBabel10262422323D

 43 49  0  0  1  0  0  0  0  0999 V2000
  191.5020  176.6840  147.4680 C   0  0  0  0  0  0  0  0  0  0  0  0
  186.9180  177.3040  145.5080 C   0  0  1  0  0  3  0  0  0  0  0  0
  189.1860  177.3430  147.1580 C   0  0  0  0  0  0  0  0  0  0  0  0
  191.6750  176.6160  146.0830 C   0  0  0  0  0  3  0  0  0  0  0  0
  192.6380  176.3730  148.3730 C   0  0  0  0  0  1  0  0  0  0  0  0
  189.3550  177.2490  145.7530 C   0  0  0  0  0  0  0  0  0  0  0  0
  190.2620  177.0450  148.0010 C   0  0  0  0  0  3  0  0  0  0  0  0
  190.6080  176.9060  145.2300 C   0  0  0  0  0  3  0  0  0  0  0  0
  188.1270  177.0590  143.4650 C   0  0  1  0  0  3  0  0  0  0  0  0
  188.2220  177.6710  144.8570 C   0  0  1  0  0  3  0  0  0  0  0  0
  186.7590  178.1060  146.7890 C   0  0  0  0  0  2  0  0  0  0  0  0
  185.8800  177.4450  144.4170 C   0  0  2  0  0  3  0  0  0  0  0  0
  186.6260  176.9040  143.1970 C   0  0  0  0  0  2  0  0  0  0  0  0
  187.8450  177.6670  147.7870 C   0  0  0  0  0  2  0  0  0  0  0  0
  185.4860  178.9100  144.1990 C   0  0  0  0  0  2  0  0  0  0  0  0
  184.0570  179.1850  144.6530 C   0  0  0  0  0  2  0  0  0  0  0  0
  182.9440  179.0490  140.9690 C   0  0  0  0  0  2  0  0  0  0  0  0
  180.7260  179.5440  142.8610 C   0  0  0  0  0  2  0  0  0  0  0  0
  180.4770  178.7680  141.5640 C   0  0  0  0  0  2  0  0  0  0  0  0
  183.7380  178.7450  142.2330 C   0  0  0  0  0  2  0  0  0  0  0  0
  183.1350  179.4110  143.4650 C   0  0  0  0  0  3  0  0  0  0  0  0
  181.7180  178.1490  140.9100 C   0  0  0  0  0  2  0  0  0  0  0  0
  181.7410  178.8730  143.7730 C   0  0  0  0  0  2  0  0  0  0  0  0
  188.6940  178.0190  142.4270 C   0  0  0  0  0  2  0  0  0  0  0  0
  189.4240  177.2770  141.3200 C   0  0  1  0  0  3  0  0  0  0  0  0
  190.5290  175.4360  138.8580 C   0  0  0  0  0  1  0  0  0  0  0  0
  190.9680  176.8530  138.4770 C   0  0  2  0  0  0  0  0  0  0  0  0
  189.7400  178.1800  140.1860 C   0  0  2  0  0  3  0  0  0  0  0  0
  190.8090  176.9210  141.7680 C   0  0  0  0  0  2  0  0  0  0  0  0
  188.6590  178.1810  139.1100 C   0  0  0  0  0  2  0  0  0  0  0  0
  191.0430  177.7310  139.6770 N   0  0  1  0  0  0  0  0  0  0  0  0
  189.9420  177.3920  137.4480 C   0  0  0  0  0  2  0  0  0  0  0  0
  191.7030  177.0740  140.6840 O   0  0  0  0  0  0  0  0  0  0  0  0
  189.2520  178.5340  137.8930 O   0  0  0  0  0  0  0  0  0  0  0  0
  192.3610  176.8130  137.8300 C   0  0  0  0  0  2  0  0  0  0  0  0
  192.5920  175.6360  136.8800 C   0  0  1  0  0  3  0  0  0  0  0  0
  192.8080  176.1150  135.6010 F   0  0  0  0  0  0  0  0  0  0  0  0
  193.7620  174.8130  137.3080 C   0  0  0  0  0  0  0  0  0  0  0  0
  194.7300  172.5270  137.4930 C   0  0  0  0  0  2  0  0  0  0  0  0
  195.6540  174.4370  138.7290 C   0  0  0  0  0  3  0  0  0  0  0  0
  195.7940  173.1680  138.3390 C   0  0  0  0  0  3  0  0  0  0  0  0
  194.5350  175.2170  138.2770 N   0  0  0  0  0  0  0  0  0  0  0  0
  194.0910  173.5530  136.5540 C   0  0  0  0  0  2  0  0  0  0  0  0
  1  7  1  0  0  0  0
  1  5  1  0  0  0  0
  2 11  1  1  0  0  0
  3 14  1  0  0  0  0
  3  7  2  0  0  0  0
  4  1  2  0  0  0  0
  6  3  1  0  0  0  0
  8  6  2  0  0  0  0
  8  4  1  0  0  0  0
  9 24  1  6  0  0  0
  9 10  1  0  0  0  0
 10  2  1  0  0  0  0
 10  6  1  1  0  0  0
 11 14  1  0  0  0  0
 12 15  1  6  0  0  0
 12  2  1  0  0  0  0
 13  9  1  0  0  0  0
 13 12  1  0  0  0  0
 15 16  1  0  0  0  0
 17 20  1  0  0  0  0
 18 23  1  0  0  0  0
 19 18  1  0  0  0  0
 20 21  1  0  0  0  0
 21 23  1  0  0  0  0
 21 16  1  0  0  0  0
 22 17  1  0  0  0  0
 22 19  1  0  0  0  0
 25 29  1  0  0  0  0
 25 24  1  1  0  0  0
 27 26  1  1  0  0  0
 27 31  1  0  0  0  0
 28 30  1  6  0  0  0
 28 25  1  0  0  0  0
 31 28  1  0  0  0  0
 31 33  1  1  0  0  0
 32 34  1  0  0  0  0
 32 27  1  0  0  0  0
 33 29  1  0  0  0  0
 34 30  1  0  0  0  0
 35 27  1  0  0  0  0
 36 37  1  6  0  0  0
 36 38  1  0  0  0  0
 36 35  1  0  0  0  0
 38 42  2  0  0  0  0
 39 41  1  0  0  0  0
 41 40  2  0  0  0  0
 42 40  1  0  0  0  0
 43 38  1  0  0  0  0
 43 39  1  0  0  0  0
M  END
>  <MODEL>
2

>  <REMARK>
 VINA RESULT:      -9.8      1.657      2.180
  Name = 
  8 active torsions:
  status: ('A' for Active; 'I' for Inactive)
    1  A    between atoms: C_1  and  C_28
    2  A    between atoms: C_1  and  C_34
    3  A    between atoms: C_2  and  C_13
    4  A    between atoms: C_4  and  C_22
    5  A    between atoms: C_11  and  C_14
    6  A    between atoms: C_13  and  C_27
    7  A    between atoms: C_14  and  C_22
    8  A    between atoms: C_28  and  C_35
                            x       y       z     vdW  Elec       q    Type
                         _______ _______ _______ _____ _____    ______ ____

>  <TORSDO>
F 8

$$$$
=
 OpenBabel10262422323D

 43 49  0  0  1  0  0  0  0  0999 V2000
  191.2910  176.4620  146.7570 C   0  0  0  0  0  0  0  0  0  0  0  0
  186.7310  177.4700  144.9060 C   0  0  1  0  0  3  0  0  0  0  0  0
  188.9710  177.1500  146.5630 C   0  0  0  0  0  0  0  0  0  0  0  0
  191.4880  176.7190  145.3980 C   0  0  0  0  0  3  0  0  0  0  0  0
  192.4170  175.9630  147.5880 C   0  0  0  0  0  1  0  0  0  0  0  0
  189.1640  177.3860  145.1780 C   0  0  0  0  0  0  0  0  0  0  0  0
  190.0370  176.6770  147.3360 C   0  0  0  0  0  3  0  0  0  0  0  0
  190.4310  177.1870  144.6150 C   0  0  0  0  0  3  0  0  0  0  0  0
  187.9770  177.7180  142.8850 C   0  0  1  0  0  3  0  0  0  0  0  0
  188.0400  177.9930  144.3830 C   0  0  1  0  0  3  0  0  0  0  0  0
  186.5390  177.9520  146.3340 C   0  0  0  0  0  2  0  0  0  0  0  0
  185.7090  177.8490  143.8580 C   0  0  2  0  0  3  0  0  0  0  0  0
  186.4830  177.6130  142.5600 C   0  0  0  0  0  2  0  0  0  0  0  0
  187.6150  177.3060  147.2240 C   0  0  0  0  0  2  0  0  0  0  0  0
  185.2960  179.3200  143.9760 C   0  0  0  0  0  2  0  0  0  0  0  0
  183.8060  179.4690  144.2570 C   0  0  0  0  0  2  0  0  0  0  0  0
  180.5890  178.3900  142.4340 C   0  0  0  0  0  2  0  0  0  0  0  0
  183.0310  178.1220  140.7890 C   0  0  0  0  0  2  0  0  0  0  0  0
  181.6880  178.4540  140.1310 C   0  0  0  0  0  2  0  0  0  0  0  0
  181.5070  179.1540  143.3800 C   0  0  0  0  0  2  0  0  0  0  0  0
  182.9730  178.7800  143.1870 C   0  0  0  0  0  3  0  0  0  0  0  0
  180.6190  179.0420  141.0590 C   0  0  0  0  0  2  0  0  0  0  0  0
  183.4760  179.1680  141.7990 C   0  0  0  0  0  2  0  0  0  0  0  0
  188.5470  178.8980  142.1090 C   0  0  0  0  0  2  0  0  0  0  0  0
  188.6880  178.5790  140.6300 C   0  0  1  0  0  3  0  0  0  0  0  0
  189.4080  178.2220  137.4640 C   0  0  0  0  0  1  0  0  0  0  0  0
  189.2810  176.7830  137.9710 C   0  0  2  0  0  0  0  0  0  0  0  0
  189.1380  177.1800  140.4230 C   0  0  2  0  0  3  0  0  0  0  0  0
  187.3360  178.5190  139.9880 C   0  0  0  0  0  2  0  0  0  0  0  0
  190.6550  177.0540  140.3240 C   0  0  0  0  0  2  0  0  0  0  0  0
  188.4530  176.7220  139.2080 N   0  0  1  0  0  0  0  0  0  0  0  0
  190.7140  176.2560  138.2280 C   0  0  0  0  0  2  0  0  0  0  0  0
  187.3180  177.4750  139.0350 O   0  0  0  0  0  0  0  0  0  0  0  0
  190.9510  175.9120  139.5720 O   0  0  0  0  0  0  0  0  0  0  0  0
  188.6040  175.9100  136.9040 C   0  0  0  0  0  2  0  0  0  0  0  0
  187.0820  176.0530  136.8310 C   0  0  1  0  0  3  0  0  0  0  0  0
  186.7350  176.6560  135.6360 F   0  0  0  0  0  0  0  0  0  0  0  0
  186.4040  174.7260  136.9350 C   0  0  0  0  0  0  0  0  0  0  0  0
  186.2350  172.4110  136.0370 C   0  0  0  0  0  2  0  0  0  0  0  0
  184.4940  173.3830  137.4700 C   0  0  0  0  0  3  0  0  0  0  0  0
  184.9930  172.2970  136.8750 C   0  0  0  0  0  3  0  0  0  0  0  0
  185.1820  174.6410  137.3800 N   0  0  0  0  0  0  0  0  0  0  0  0
  187.1760  173.4780  136.6010 C   0  0  0  0  0  2  0  0  0  0  0  0
  1  7  1  0  0  0  0
  1  5  1  0  0  0  0
  2 11  1  1  0  0  0
  3 14  1  0  0  0  0
  3  7  2  0  0  0  0
  4  1  2  0  0  0  0
  6  3  1  0  0  0  0
  8  6  2  0  0  0  0
  8  4  1  0  0  0  0
  9 24  1  6  0  0  0
  9 10  1  0  0  0  0
 10  2  1  0  0  0  0
 10  6  1  1  0  0  0
 11 14  1  0  0  0  0
 12 15  1  1  0  0  0
 12  2  1  0  0  0  0
 13  9  1  0  0  0  0
 13 12  1  0  0  0  0
 15 16  1  0  0  0  0
 17 20  1  0  0  0  0
 18 23  1  0  0  0  0
 19 18  1  0  0  0  0
 19 22  1  0  0  0  0
 21 20  1  0  0  0  0
 21 16  1  0  0  0  0
 22 17  1  0  0  0  0
 23 21  1  0  0  0  0
 25 24  1  1  0  0  0
 27 26  1  6  0  0  0
 27 32  1  0  0  0  0
 27 31  1  0  0  0  0
 28 30  1  6  0  0  0
 28 25  1  0  0  0  0
 29 25  1  0  0  0  0
 31 33  1  6  0  0  0
 31 28  1  0  0  0  0
 32 34  1  0  0  0  0
 33 29  1  0  0  0  0
 34 30  1  0  0  0  0
 35 27  1  0  0  0  0
 36 37  1  6  0  0  0
 36 35  1  0  0  0  0
 36 38  1  0  0  0  0
 38 42  2  0  0  0  0
 39 43  1  0  0  0  0
 39 41  1  0  0  0  0
 41 40  2  0  0  0  0
 42 40  1  0  0  0  0
 43 38  1  0  0  0  0
M  END
>  <MODEL>
3

>  <REMARK>
 VINA RESULT:      -9.4      1.953      3.442
  Name = 
  8 active torsions:
  status: ('A' for Active; 'I' for Inactive)
    1  A    between atoms: C_1  and  C_28
    2  A    between atoms: C_1  and  C_34
    3  A    between atoms: C_2  and  C_13
    4  A    between atoms: C_4  and  C_22
    5  A    between atoms: C_11  and  C_14
    6  A    between atoms: C_13  and  C_27
    7  A    between atoms: C_14  and  C_22
    8  A    between atoms: C_28  and  C_35
                            x       y       z     vdW  Elec       q    Type
                         _______ _______ _______ _____ _____    ______ ____

>  <TORSDO>
F 8

$$$$
=
 OpenBabel10262422323D

 43 49  0  0  1  0  0  0  0  0999 V2000
  191.5780  176.5690  147.3720 C   0  0  0  0  0  0  0  0  0  0  0  0
  187.3180  177.2050  144.7870 C   0  0  1  0  0  3  0  0  0  0  0  0
  189.3390  177.2520  146.7320 C   0  0  0  0  0  0  0  0  0  0  0  0
  191.9390  176.4640  146.0260 C   0  0  0  0  0  3  0  0  0  0  0  0
  192.5740  176.2650  148.4310 C   0  0  0  0  0  1  0  0  0  0  0  0
  189.6970  177.1210  145.3660 C   0  0  0  0  0  0  0  0  0  0  0  0
  190.2830  176.9610  147.7220 C   0  0  0  0  0  3  0  0  0  0  0  0
  191.0040  176.7480  145.0280 C   0  0  0  0  0  3  0  0  0  0  0  0
  188.7920  176.8920  142.9350 C   0  0  1  0  0  3  0  0  0  0  0  0
  188.7050  177.5370  144.3130 C   0  0  1  0  0  3  0  0  0  0  0  0
  186.9980  178.0400  146.0150 C   0  0  0  0  0  2  0  0  0  0  0  0
  186.4420  177.3330  143.5610 C   0  0  2  0  0  3  0  0  0  0  0  0
  187.3390  176.7510  142.4670 C   0  0  0  0  0  2  0  0  0  0  0  0
  187.9290  177.6110  147.1620 C   0  0  0  0  0  2  0  0  0  0  0  0
  186.1060  178.7970  143.2570 C   0  0  0  0  0  2  0  0  0  0  0  0
  186.1220  179.0830  141.7600 C   0  0  0  0  0  2  0  0  0  0  0  0
  183.3920  179.2800  139.0500 C   0  0  0  0  0  2  0  0  0  0  0  0
  182.3490  178.6280  141.7380 C   0  0  0  0  0  2  0  0  0  0  0  0
  181.6610  178.0740  140.4870 C   0  0  0  0  0  2  0  0  0  0  0  0
  184.7500  179.0290  139.6940 C   0  0  0  0  0  2  0  0  0  0  0  0
  184.7090  179.2050  141.2080 C   0  0  0  0  0  3  0  0  0  0  0  0
  182.5150  178.0480  139.2140 C   0  0  0  0  0  2  0  0  0  0  0  0
  183.7960  178.1780  141.8720 C   0  0  0  0  0  2  0  0  0  0  0  0
  189.5120  177.8180  141.9640 C   0  0  0  0  0  2  0  0  0  0  0  0
  189.9660  177.0770  140.7180 C   0  0  1  0  0  3  0  0  0  0  0  0
  190.5470  175.1470  138.1470 C   0  0  0  0  0  1  0  0  0  0  0  0
  190.5040  176.5530  137.5430 C   0  0  2  0  0  0  0  0  0  0  0  0
  189.6690  177.8560  139.4910 C   0  0  2  0  0  3  0  0  0  0  0  0
  191.4640  177.0490  140.6560 C   0  0  0  0  0  2  0  0  0  0  0  0
  188.3140  177.5080  138.8820 C   0  0  0  0  0  2  0  0  0  0  0  0
  190.7860  177.5890  138.5750 N   0  0  1  0  0  0  0  0  0  0  0  0
  189.0970  176.7460  136.9220 C   0  0  0  0  0  2  0  0  0  0  0  0
  191.8780  177.2120  139.3150 O   0  0  0  0  0  0  0  0  0  0  0  0
  188.3640  177.7920  137.5130 O   0  0  0  0  0  0  0  0  0  0  0  0
  191.5660  176.6820  136.4400 C   0  0  0  0  0  2  0  0  0  0  0  0
  192.1330  175.3520  135.9390 C   0  0  1  0  0  3  0  0  0  0  0  0
  191.5450  175.0290  134.7300 F   0  0  0  0  0  0  0  0  0  0  0  0
  193.6150  175.4210  135.7700 C   0  0  0  0  0  0  0  0  0  0  0  0
  195.5480  176.7740  134.9780 C   0  0  0  0  0  2  0  0  0  0  0  0
  195.7370  174.3660  135.4230 C   0  0  0  0  0  3  0  0  0  0  0  0
  196.3570  175.5200  135.1620 C   0  0  0  0  0  3  0  0  0  0  0  0
  194.3140  174.3320  135.6120 N   0  0  0  0  0  0  0  0  0  0  0  0
  194.3050  176.7540  135.8710 C   0  0  0  0  0  2  0  0  0  0  0  0
  1  7  1  0  0  0  0
  1  5  1  0  0  0  0
  2 11  1  1  0  0  0
  3 14  1  0  0  0  0
  3  7  2  0  0  0  0
  4  1  2  0  0  0  0
  6  3  1  0  0  0  0
  8  6  2  0  0  0  0
  8  4  1  0  0  0  0
  9 24  1  6  0  0  0
  9 10  1  0  0  0  0
 10  2  1  0  0  0  0
 10  6  1  1  0  0  0
 11 14  1  0  0  0  0
 12 15  1  6  0  0  0
 12  2  1  0  0  0  0
 13  9  1  0  0  0  0
 13 12  1  0  0  0  0
 16 15  1  0  0  0  0
 17 22  1  0  0  0  0
 17 20  1  0  0  0  0
 18 23  1  0  0  0  0
 19 18  1  0  0  0  0
 20 21  1  0  0  0  0
 21 16  1  0  0  0  0
 21 23  1  0  0  0  0
 22 19  1  0  0  0  0
 25 24  1  1  0  0  0
 27 26  1  1  0  0  0
 27 31  1  0  0  0  0
 28 30  1  6  0  0  0
 28 25  1  0  0  0  0
 29 25  1  0  0  0  0
 31 33  1  1  0  0  0
 31 28  1  0  0  0  0
 32 34  1  0  0  0  0
 32 27  1  0  0  0  0
 33 29  1  0  0  0  0
 34 30  1  0  0  0  0
 35 27  1  0  0  0  0
 36 37  1  6  0  0  0
 36 35  1  0  0  0  0
 38 43  1  0  0  0  0
 38 36  1  0  0  0  0
 39 41  1  0  0  0  0
 39 43  1  0  0  0  0
 40 42  1  0  0  0  0
 41 40  2  0  0  0  0
 42 38  2  0  0  0  0
M  END
>  <MODEL>
4

>  <REMARK>
 VINA RESULT:      -9.0      1.369      1.990
  Name = 
  8 active torsions:
  status: ('A' for Active; 'I' for Inactive)
    1  A    between atoms: C_1  and  C_28
    2  A    between atoms: C_1  and  C_34
    3  A    between atoms: C_2  and  C_13
    4  A    between atoms: C_4  and  C_22
    5  A    between atoms: C_11  and  C_14
    6  A    between atoms: C_13  and  C_27
    7  A    between atoms: C_14  and  C_22
    8  A    between atoms: C_28  and  C_35
                            x       y       z     vdW  Elec       q    Type
                         _______ _______ _______ _____ _____    ______ ____

>  <TORSDO>
F 8

$$$$
=
 OpenBabel10262422323D

 43 49  0  0  1  0  0  0  0  0999 V2000
  189.3860  177.4890  136.7980 C   0  0  0  0  0  0  0  0  0  0  0  0
  190.1790  176.6350  141.6850 C   0  0  1  0  0  3  0  0  0  0  0  0
  190.4520  177.2840  138.9690 C   0  0  0  0  0  0  0  0  0  0  0  0
  188.1470  177.6770  137.4160 C   0  0  0  0  0  3  0  0  0  0  0  0
  189.4840  177.5000  135.3160 C   0  0  0  0  0  1  0  0  0  0  0  0
  189.1900  177.4480  139.5970 C   0  0  0  0  0  0  0  0  0  0  0  0
  190.5330  177.2930  137.5730 C   0  0  0  0  0  3  0  0  0  0  0  0
  188.0520  177.6650  138.8100 C   0  0  0  0  0  3  0  0  0  0  0  0
  187.8470  177.1290  141.8040 C   0  0  1  0  0  3  0  0  0  0  0  0
  189.1330  177.5410  141.0970 C   0  0  1  0  0  3  0  0  0  0  0  0
  191.5560  177.1410  141.2870 C   0  0  0  0  0  2  0  0  0  0  0  0
  189.8290  176.5290  143.1520 C   0  0  2  0  0  3  0  0  0  0  0  0
  188.3020  176.4700  143.1100 C   0  0  0  0  0  2  0  0  0  0  0  0
  191.7140  177.0040  139.7630 C   0  0  0  0  0  2  0  0  0  0  0  0
  190.2980  177.7600  143.9350 C   0  0  0  0  0  2  0  0  0  0  0  0
  190.5590  177.4330  145.4000 C   0  0  0  0  0  2  0  0  0  0  0  0
  188.3120  177.3520  148.5270 C   0  0  0  0  0  2  0  0  0  0  0  0
  186.8320  177.8460  146.0160 C   0  0  0  0  0  2  0  0  0  0  0  0
  186.3460  178.4580  147.3320 C   0  0  0  0  0  2  0  0  0  0  0  0
  189.5420  177.5840  147.6570 C   0  0  0  0  0  2  0  0  0  0  0  0
  189.2590  177.3250  146.1810 C   0  0  0  0  0  3  0  0  0  0  0  0
  187.3960  178.5640  148.4450 C   0  0  0  0  0  2  0  0  0  0  0  0
  188.2290  178.3030  145.6240 C   0  0  0  0  0  2  0  0  0  0  0  0
  187.0250  178.3610  142.1590 C   0  0  0  0  0  2  0  0  0  0  0  0
  185.5970  178.2440  141.6510 C   0  0  1  0  0  3  0  0  0  0  0  0
  182.5370  177.5090  140.7750 C   0  0  0  0  0  1  0  0  0  0  0  0
  182.4030  178.8790  141.4450 C   0  0  2  0  0  0  0  0  0  0  0  0
  184.6840  179.1350  142.4070 C   0  0  2  0  0  3  0  0  0  0  0  0
  185.4880  178.8520  140.2850 C   0  0  0  0  0  2  0  0  0  0  0  0
  184.0340  178.4430  143.6010 C   0  0  0  0  0  2  0  0  0  0  0  0
  183.6990  179.6130  141.4270 N   0  0  1  0  0  0  0  0  0  0  0  0
  181.9130  178.6380  142.8940 C   0  0  0  0  0  2  0  0  0  0  0  0
  184.2540  179.5320  140.1740 O   0  0  0  0  0  0  0  0  0  0  0  0
  182.8210  179.0840  143.8730 O   0  0  0  0  0  0  0  0  0  0  0  0
  181.3670  179.7300  140.6950 C   0  0  0  0  0  2  0  0  0  0  0  0
  180.8070  179.0840  139.4250 C   0  0  1  0  0  3  0  0  0  0  0  0
  179.5280  178.6190  139.6740 F   0  0  0  0  0  0  0  0  0  0  0  0
  180.7730  180.0540  138.2900 C   0  0  0  0  0  0  0  0  0  0  0  0
  180.9220  182.4410  137.6010 C   0  0  0  0  0  2  0  0  0  0  0  0
  180.0180  180.7090  136.1140 C   0  0  0  0  0  3  0  0  0  0  0  0
  180.4450  181.9660  136.2570 C   0  0  0  0  0  3  0  0  0  0  0  0
  180.0900  179.7870  137.2120 N   0  0  0  0  0  0  0  0  0  0  0  0
  181.6050  181.3050  138.3680 C   0  0  0  0  0  2  0  0  0  0  0  0
  1  4  2  0  0  0  0
  1  7  1  0  0  0  0
  2 11  1  1  0  0  0
  2 12  1  0  0  0  0
  3  6  1  0  0  0  0
  3 14  1  0  0  0  0
  4  8  1  0  0  0  0
  5  1  1  0  0  0  0
  7  3  2  0  0  0  0
  8  6  2  0  0  0  0
  9 24  1  1  0  0  0
  9 13  1  0  0  0  0
 10  6  1  6  0  0  0
 10  2  1  0  0  0  0
 10  9  1  0  0  0  0
 12 15  1  1  0  0  0
 13 12  1  0  0  0  0
 14 11  1  0  0  0  0
 15 16  1  0  0  0  0
 16 21  1  0  0  0  0
 18 19  1  0  0  0  0
 19 22  1  0  0  0  0
 20 17  1  0  0  0  0
 21 20  1  0  0  0  0
 22 17  1  0  0  0  0
 23 18  1  0  0  0  0
 23 21  1  0  0  0  0
 25 24  1  1  0  0  0
 25 28  1  0  0  0  0
 27 26  1  6  0  0  0
 27 32  1  0  0  0  0
 28 30  1  1  0  0  0
 29 25  1  0  0  0  0
 30 34  1  0  0  0  0
 31 33  1  6  0  0  0
 31 27  1  0  0  0  0
 31 28  1  0  0  0  0
 32 34  1  0  0  0  0
 33 29  1  0  0  0  0
 35 27  1  0  0  0  0
 36 37  1  1  0  0  0
 36 35  1  0  0  0  0
 38 43  1  0  0  0  0
 38 36  1  0  0  0  0
 39 43  1  0  0  0  0
 40 41  2  0  0  0  0
 40 42  1  0  0  0  0
 41 39  1  0  0  0  0
 42 38  2  0  0  0  0
M  END
>  <MODEL>
5

>  <REMARK>
 VINA RESULT:      -8.8      3.316      8.508
  Name = 
  8 active torsions:
  status: ('A' for Active; 'I' for Inactive)
    1  A    between atoms: C_1  and  C_28
    2  A    between atoms: C_1  and  C_34
    3  A    between atoms: C_2  and  C_13
    4  A    between atoms: C_4  and  C_22
    5  A    between atoms: C_11  and  C_14
    6  A    between atoms: C_13  and  C_27
    7  A    between atoms: C_14  and  C_22
    8  A    between atoms: C_28  and  C_35
                            x       y       z     vdW  Elec       q    Type
                         _______ _______ _______ _____ _____    ______ ____

>  <TORSDO>
F 8

$$$$
=
 OpenBabel10262422323D

 43 49  0  0  1  0  0  0  0  0999 V2000
  181.1560  178.4580  139.2940 C   0  0  0  0  0  0  0  0  0  0  0  0
  183.3610  179.3600  143.7170 C   0  0  1  0  0  3  0  0  0  0  0  0
  181.5880  178.6070  141.6780 C   0  0  0  0  0  0  0  0  0  0  0  0
  182.5290  178.4250  139.0410 C   0  0  0  0  0  3  0  0  0  0  0  0
  180.1930  178.3930  138.1660 C   0  0  0  0  0  1  0  0  0  0  0  0
  182.9820  178.6000  141.4190 C   0  0  0  0  0  0  0  0  0  0  0  0
  180.6890  178.5500  140.6080 C   0  0  0  0  0  3  0  0  0  0  0  0
  183.4380  178.4870  140.1000 C   0  0  0  0  0  3  0  0  0  0  0  0
  185.3370  179.1280  142.3970 C   0  0  1  0  0  3  0  0  0  0  0  0
  183.9350  178.5580  142.5830 C   0  0  1  0  0  3  0  0  0  0  0  0
  182.0830  178.6950  144.2000 C   0  0  0  0  0  2  0  0  0  0  0  0
  184.5060  179.5460  144.6870 C   0  0  2  0  0  3  0  0  0  0  0  0
  185.6880  179.7710  143.7430 C   0  0  0  0  0  2  0  0  0  0  0  0
  181.0310  178.7710  143.0800 C   0  0  0  0  0  2  0  0  0  0  0  0
  184.7320  178.2940  145.5410 C   0  0  0  0  0  2  0  0  0  0  0  0
  185.4170  178.6260  146.8610 C   0  0  0  0  0  2  0  0  0  0  0  0
  189.0510  178.2520  148.0820 C   0  0  0  0  0  2  0  0  0  0  0  0
  188.7200  177.7830  145.1820 C   0  0  0  0  0  2  0  0  0  0  0  0
  189.7980  177.0320  145.9680 C   0  0  0  0  0  2  0  0  0  0  0  0
  187.5270  178.2120  148.0970 C   0  0  0  0  0  2  0  0  0  0  0  0
  186.9300  178.5420  146.7330 C   0  0  0  0  0  3  0  0  0  0  0  0
  189.5880  176.9590  147.4850 C   0  0  0  0  0  2  0  0  0  0  0  0
  187.3110  177.5030  145.6830 C   0  0  0  0  0  2  0  0  0  0  0  0
  186.3310  178.0040  142.1370 C   0  0  0  0  0  2  0  0  0  0  0  0
  187.2180  178.3090  140.9420 C   0  0  1  0  0  3  0  0  0  0  0  0
  189.3440  179.3350  138.6830 C   0  0  0  0  0  1  0  0  0  0  0  0
  189.5260  177.8150  138.6890 C   0  0  2  0  0  0  0  0  0  0  0  0
  188.1780  177.2070  140.6900 C   0  0  2  0  0  3  0  0  0  0  0  0
  186.4130  178.2520  139.6790 C   0  0  0  0  0  2  0  0  0  0  0  0
  189.5150  177.4100  141.3970 C   0  0  0  0  0  2  0  0  0  0  0  0
  188.3180  177.1320  139.2300 N   0  0  1  0  0  0  0  0  0  0  0  0
  190.7790  177.5030  139.5460 C   0  0  0  0  0  2  0  0  0  0  0  0
  187.1930  177.6700  138.6550 O   0  0  0  0  0  0  0  0  0  0  0  0
  190.4990  176.7210  140.6810 O   0  0  0  0  0  0  0  0  0  0  0  0
  189.7550  177.3100  137.2560 C   0  0  0  0  0  2  0  0  0  0  0  0
  189.7740  175.7860  137.1100 C   0  0  1  0  0  3  0  0  0  0  0  0
  188.7850  175.3980  136.2260 F   0  0  0  0  0  0  0  0  0  0  0  0
  191.1000  175.3040  136.6200 C   0  0  0  0  0  0  0  0  0  0  0  0
  193.5040  174.9490  137.1590 C   0  0  0  0  0  2  0  0  0  0  0  0
  192.6680  174.9220  134.8500 C   0  0  0  0  0  3  0  0  0  0  0  0
  193.6780  174.6810  135.6910 C   0  0  0  0  0  3  0  0  0  0  0  0
  191.3940  175.3550  135.3510 N   0  0  0  0  0  0  0  0  0  0  0  0
  192.0620  174.6780  137.5940 C   0  0  0  0  0  2  0  0  0  0  0  0
  1  7  1  0  0  0  0
  2 11  1  1  0  0  0
  2 12  1  0  0  0  0
  3 14  1  0  0  0  0
  4  1  2  0  0  0  0
  4  8  1  0  0  0  0
  5  1  1  0  0  0  0
  6  3  1  0  0  0  0
  7  3  2  0  0  0  0
  8  6  2  0  0  0  0
  9 24  1  1  0  0  0
  9 10  1  0  0  0  0
  9 13  1  0  0  0  0
 10  6  1  6  0  0  0
 10  2  1  0  0  0  0
 12 15  1  6  0  0  0
 13 12  1  0  0  0  0
 14 11  1  0  0  0  0
 15 16  1  0  0  0  0
 17 20  1  0  0  0  0
 18 23  1  0  0  0  0
 18 19  1  0  0  0  0
 19 22  1  0  0  0  0
 21 16  1  0  0  0  0
 21 20  1  0  0  0  0
 22 17  1  0  0  0  0
 23 21  1  0  0  0  0
 25 24  1  1  0  0  0
 27 26  1  6  0  0  0
 27 31  1  0  0  0  0
 27 32  1  0  0  0  0
 28 25  1  0  0  0  0
 28 30  1  1  0  0  0
 29 25  1  0  0  0  0
 31 33  1  6  0  0  0
 31 28  1  0  0  0  0
 32 34  1  0  0  0  0
 33 29  1  0  0  0  0
 34 30  1  0  0  0  0
 35 27  1  0  0  0  0
 36 37  1  6  0  0  0
 36 35  1  0  0  0  0
 38 36  1  0  0  0  0
 38 43  1  0  0  0  0
 39 43  1  0  0  0  0
 40 42  1  0  0  0  0
 40 41  2  0  0  0  0
 41 39  1  0  0  0  0
 42 38  2  0  0  0  0
M  END
>  <MODEL>
6

>  <REMARK>
 VINA RESULT:      -8.7      1.347      6.308
  Name = 
  8 active torsions:
  status: ('A' for Active; 'I' for Inactive)
    1  A    between atoms: C_1  and  C_28
    2  A    between atoms: C_1  and  C_34
    3  A    between atoms: C_2  and  C_13
    4  A    between atoms: C_4  and  C_22
    5  A    between atoms: C_11  and  C_14
    6  A    between atoms: C_13  and  C_27
    7  A    between atoms: C_14  and  C_22
    8  A    between atoms: C_28  and  C_35
                            x       y       z     vdW  Elec       q    Type
                         _______ _______ _______ _____ _____    ______ ____

>  <TORSDO>
F 8

$$$$
=
 OpenBabel10262422323D

 43 49  0  0  1  0  0  0  0  0999 V2000
  185.1300  178.5160  145.2770 C   0  0  0  0  0  0  0  0  0  0  0  0
  181.8250  178.4070  141.4950 C   0  0  1  0  0  3  0  0  0  0  0  0
  183.1650  178.9120  143.9070 C   0  0  0  0  0  0  0  0  0  0  0  0
  185.8810  178.2380  144.1320 C   0  0  0  0  0  3  0  0  0  0  0  0
  185.7700  178.4570  146.6150 C   0  0  0  0  0  1  0  0  0  0  0  0
  183.9210  178.6040  142.7460 C   0  0  0  0  0  0  0  0  0  0  0  0
  183.7770  178.8500  145.1630 C   0  0  0  0  0  3  0  0  0  0  0  0
  185.2800  178.2910  142.8720 C   0  0  0  0  0  3  0  0  0  0  0  0
  183.7950  177.9380  140.2330 C   0  0  1  0  0  3  0  0  0  0  0  0
  183.2790  178.7750  141.3970 C   0  0  1  0  0  3  0  0  0  0  0  0
  181.1240  179.3900  142.4180 C   0  0  0  0  0  2  0  0  0  0  0  0
  181.3540  178.2770  140.0640 C   0  0  2  0  0  3  0  0  0  0  0  0
  182.5560  177.6110  139.3930 C   0  0  0  0  0  2  0  0  0  0  0  0
  181.6810  179.2160  143.8420 C   0  0  0  0  0  2  0  0  0  0  0  0
  181.0780  179.6470  139.4340 C   0  0  0  0  0  2  0  0  0  0  0  0
  181.0400  179.5720  137.9120 C   0  0  0  0  0  2  0  0  0  0  0  0
  180.5510  183.3790  137.5890 C   0  0  0  0  0  2  0  0  0  0  0  0
  179.8500  181.8800  135.1380 C   0  0  0  0  0  2  0  0  0  0  0  0
  180.4150  183.3000  135.0400 C   0  0  0  0  0  2  0  0  0  0  0  0
  181.1400  182.0470  138.0380 C   0  0  0  0  0  2  0  0  0  0  0  0
  180.5100  180.8640  137.3100 C   0  0  0  0  0  3  0  0  0  0  0  0
  181.1850  183.7960  136.2700 C   0  0  0  0  0  2  0  0  0  0  0  0
  180.8010  180.9040  135.8130 C   0  0  0  0  0  2  0  0  0  0  0  0
  184.7440  178.7610  139.3720 C   0  0  0  0  0  2  0  0  0  0  0  0
  185.8770  177.9120  138.8190 C   0  0  1  0  0  3  0  0  0  0  0  0
  187.9570  175.6910  137.6310 C   0  0  0  0  0  1  0  0  0  0  0  0
  188.1060  176.8770  136.6740 C   0  0  2  0  0  0  0  0  0  0  0  0
  186.2170  178.3080  137.4310 C   0  0  2  0  0  3  0  0  0  0  0  0
  187.1600  178.2550  139.5140 C   0  0  0  0  0  2  0  0  0  0  0  0
  185.4560  177.5030  136.3820 C   0  0  0  0  0  2  0  0  0  0  0  0
  187.6720  178.1460  137.3210 N   0  0  1  0  0  0  0  0  0  0  0  0
  187.2520  176.5650  135.4190 C   0  0  0  0  0  2  0  0  0  0  0  0
  188.2180  178.2280  138.5780 O   0  0  0  0  0  0  0  0  0  0  0  0
  186.2140  177.4900  135.2060 O   0  0  0  0  0  0  0  0  0  0  0  0
  189.5770  177.0340  136.2600 C   0  0  0  0  0  2  0  0  0  0  0  0
  190.3040  175.7180  135.9710 C   0  0  1  0  0  3  0  0  0  0  0  0
  190.4470  175.5640  134.6040 F   0  0  0  0  0  0  0  0  0  0  0  0
  191.6490  175.6870  136.6200 C   0  0  0  0  0  0  0  0  0  0  0  0
  193.6960  174.3470  137.0790 C   0  0  0  0  0  2  0  0  0  0  0  0
  193.1670  176.3910  138.3340 C   0  0  0  0  0  3  0  0  0  0  0  0
  194.0610  175.4420  138.0420 C   0  0  0  0  0  3  0  0  0  0  0  0
  191.8930  176.4160  137.6720 N   0  0  0  0  0  0  0  0  0  0  0  0
  192.7470  174.8680  135.9970 C   0  0  0  0  0  2  0  0  0  0  0  0
  1  5  1  0  0  0  0
  2 11  1  6  0  0  0
  3  7  2  0  0  0  0
  4  1  2  0  0  0  0
  6  8  2  0  0  0  0
  6  3  1  0  0  0  0
  7  1  1  0  0  0  0
  8  4  1  0  0  0  0
  9 24  1  6  0  0  0
  9 10  1  0  0  0  0
 10  2  1  0  0  0  0
 10  6  1  1  0  0  0
 11 14  1  0  0  0  0
 12 15  1  6  0  0  0
 12  2  1  0  0  0  0
 13 12  1  0  0  0  0
 13  9  1  0  0  0  0
 14  3  1  0  0  0  0
 16 15  1  0  0  0  0
 17 20  1  0  0  0  0
 18 23  1  0  0  0  0
 19 18  1  0  0  0  0
 19 22  1  0  0  0  0
 21 16  1  0  0  0  0
 21 20  1  0  0  0  0
 22 17  1  0  0  0  0
 23 21  1  0  0  0  0
 25 24  1  1  0  0  0
 25 29  1  0  0  0  0
 27 31  1  0  0  0  0
 27 26  1  1  0  0  0
 28 30  1  6  0  0  0
 28 25  1  0  0  0  0
 31 28  1  0  0  0  0
 31 33  1  1  0  0  0
 32 27  1  0  0  0  0
 33 29  1  0  0  0  0
 34 32  1  0  0  0  0
 34 30  1  0  0  0  0
 35 27  1  0  0  0  0
 36 37  1  6  0  0  0
 36 35  1  0  0  0  0
 36 38  1  0  0  0  0
 38 42  2  0  0  0  0
 39 41  1  0  0  0  0
 41 40  2  0  0  0  0
 42 40  1  0  0  0  0
 43 38  1  0  0  0  0
 43 39  1  0  0  0  0
M  END
>  <MODEL>
7

>  <REMARK>
 VINA RESULT:      -8.7      2.761      5.321
  Name = 
  8 active torsions:
  status: ('A' for Active; 'I' for Inactive)
    1  A    between atoms: C_1  and  C_28
    2  A    between atoms: C_1  and  C_34
    3  A    between atoms: C_2  and  C_13
    4  A    between atoms: C_4  and  C_22
    5  A    between atoms: C_11  and  C_14
    6  A    between atoms: C_13  and  C_27
    7  A    between atoms: C_14  and  C_22
    8  A    between atoms: C_28  and  C_35
                            x       y       z     vdW  Elec       q    Type
                         _______ _______ _______ _____ _____    ______ ____

>  <TORSDO>
F 8

$$$$
=
 OpenBabel10262422323D

 43 49  0  0  1  0  0  0  0  0999 V2000
  184.0500  178.6360  144.5340 C   0  0  0  0  0  0  0  0  0  0  0  0
  181.7690  178.4350  140.0630 C   0  0  1  0  0  3  0  0  0  0  0  0
  182.4850  179.0020  142.7150 C   0  0  0  0  0  0  0  0  0  0  0  0
  185.0540  178.3220  143.6170 C   0  0  0  0  0  3  0  0  0  0  0  0
  184.3430  178.6130  145.9900 C   0  0  0  0  0  1  0  0  0  0  0  0
  183.4980  178.6570  141.7840 C   0  0  0  0  0  0  0  0  0  0  0  0
  182.7700  178.9740  144.0840 C   0  0  0  0  0  3  0  0  0  0  0  0
  184.7810  178.3410  142.2470 C   0  0  0  0  0  3  0  0  0  0  0  0
  183.9820  177.9180  139.3350 C   0  0  1  0  0  3  0  0  0  0  0  0
  183.2070  178.7920  140.3140 C   0  0  1  0  0  3  0  0  0  0  0  0
  180.8760  179.4480  140.7600 C   0  0  0  0  0  2  0  0  0  0  0  0
  181.6600  178.2660  138.5650 C   0  0  2  0  0  3  0  0  0  0  0  0
  182.9820  177.5740  138.2270 C   0  0  0  0  0  2  0  0  0  0  0  0
  181.0650  179.3130  142.2810 C   0  0  0  0  0  2  0  0  0  0  0  0
  181.5640  179.6180  137.8490 C   0  0  0  0  0  2  0  0  0  0  0  0
  180.2330  179.7820  137.1250 C   0  0  0  0  0  2  0  0  0  0  0  0
  180.3730  183.6020  137.5970 C   0  0  0  0  0  2  0  0  0  0  0  0
  179.6690  182.7710  134.8480 C   0  0  0  0  0  2  0  0  0  0  0  0
  180.4550  184.0630  135.0870 C   0  0  0  0  0  2  0  0  0  0  0  0
  180.7050  182.1260  137.7830 C   0  0  0  0  0  2  0  0  0  0  0  0
  179.9670  181.2400  136.7850 C   0  0  0  0  0  3  0  0  0  0  0  0
  181.1800  184.1620  136.4350 C   0  0  0  0  0  2  0  0  0  0  0  0
  180.3930  181.5300  135.3490 C   0  0  0  0  0  2  0  0  0  0  0  0
  185.1230  178.7120  138.7110 C   0  0  0  0  0  2  0  0  0  0  0  0
  186.4660  178.0450  138.9560 C   0  0  1  0  0  3  0  0  0  0  0  0
  189.1590  176.2110  139.1950 C   0  0  0  0  0  1  0  0  0  0  0  0
  189.6880  177.5760  138.7460 C   0  0  2  0  0  0  0  0  0  0  0  0
  187.5510  178.7370  138.2180 C   0  0  2  0  0  3  0  0  0  0  0  0
  186.9090  178.2890  140.3670 C   0  0  0  0  0  2  0  0  0  0  0  0
  187.8060  178.1380  136.8380 C   0  0  0  0  0  2  0  0  0  0  0  0
  188.7300  178.6630  139.0920 N   0  0  1  0  0  0  0  0  0  0  0  0
  189.9230  177.4990  137.2160 C   0  0  0  0  0  2  0  0  0  0  0  0
  188.3060  178.5020  140.3870 O   0  0  0  0  0  0  0  0  0  0  0  0
  189.1330  178.4040  136.4830 O   0  0  0  0  0  0  0  0  0  0  0  0
  191.0210  177.8780  139.4480 C   0  0  0  0  0  2  0  0  0  0  0  0
  191.4660  176.8180  140.4580 C   0  0  1  0  0  3  0  0  0  0  0  0
  192.8470  176.7560  140.4790 F   0  0  0  0  0  0  0  0  0  0  0  0
  190.9600  177.1270  141.8290 C   0  0  0  0  0  0  0  0  0  0  0  0
  189.1230  176.8110  143.4780 C   0  0  0  0  0  2  0  0  0  0  0  0
  190.8160  178.5700  143.7350 C   0  0  0  0  0  3  0  0  0  0  0  0
  189.8070  177.8840  144.2770 C   0  0  0  0  0  3  0  0  0  0  0  0
  191.3050  178.2320  142.4280 N   0  0  0  0  0  0  0  0  0  0  0  0
  190.1150  176.1100  142.5480 C   0  0  0  0  0  2  0  0  0  0  0  0
  1  5  1  0  0  0  0
  2 10  1  0  0  0  0
  2 11  1  6  0  0  0
  3  7  2  0  0  0  0
  4  1  2  0  0  0  0
  6  8  2  0  0  0  0
  6  3  1  0  0  0  0
  7  1  1  0  0  0  0
  8  4  1  0  0  0  0
  9 24  1  6  0  0  0
  9 10  1  0  0  0  0
 10  6  1  1  0  0  0
 11 14  1  0  0  0  0
 12 15  1  6  0  0  0
 12  2  1  0  0  0  0
 13 12  1  0  0  0  0
 13  9  1  0  0  0  0
 14  3  1  0  0  0  0
 16 15  1  0  0  0  0
 17 20  1  0  0  0  0
 18 19  1  0  0  0  0
 18 23  1  0  0  0  0
 19 22  1  0  0  0  0
 21 16  1  0  0  0  0
 21 20  1  0  0  0  0
 22 17  1  0  0  0  0
 23 21  1  0  0  0  0
 25 24  1  1  0  0  0
 25 29  1  0  0  0  0
 27 31  1  0  0  0  0
 27 26  1  1  0  0  0
 27 35  1  0  0  0  0
 28 30  1  6  0  0  0
 28 25  1  0  0  0  0
 28 31  1  0  0  0  0
 29 33  1  0  0  0  0
 31 33  1  1  0  0  0
 32 27  1  0  0  0  0
 34 30  1  0  0  0  0
 34 32  1  0  0  0  0
 35 36  1  0  0  0  0
 36 37  1  1  0  0  0
 36 38  1  0  0  0  0
 38 42  2  0  0  0  0
 38 43  1  0  0  0  0
 39 41  1  0  0  0  0
 40 41  2  0  0  0  0
 42 40  1  0  0  0  0
 43 39  1  0  0  0  0
M  END
>  <MODEL>
8

>  <REMARK>
 VINA RESULT:      -8.1      3.201      6.693
  Name = 
  8 active torsions:
  status: ('A' for Active; 'I' for Inactive)
    1  A    between atoms: C_1  and  C_28
    2  A    between atoms: C_1  and  C_34
    3  A    between atoms: C_2  and  C_13
    4  A    between atoms: C_4  and  C_22
    5  A    between atoms: C_11  and  C_14
    6  A    between atoms: C_13  and  C_27
    7  A    between atoms: C_14  and  C_22
    8  A    between atoms: C_28  and  C_35
                            x       y       z     vdW  Elec       q    Type
                         _______ _______ _______ _____ _____    ______ ____

>  <TORSDO>
F 8

$$$$
=
 OpenBabel10262422323D

 43 49  0  0  1  0  0  0  0  0999 V2000
  187.8510  177.6030  147.2560 C   0  0  0  0  0  0  0  0  0  0  0  0
  188.6630  178.2490  142.3410 C   0  0  1  0  0  3  0  0  0  0  0  0
  188.8060  177.4620  145.0290 C   0  0  0  0  0  0  0  0  0  0  0  0
  186.6030  177.9110  146.7080 C   0  0  0  0  0  3  0  0  0  0  0  0
  188.0110  177.5100  148.7290 C   0  0  0  0  0  1  0  0  0  0  0  0
  187.5460  177.8000  144.4740 C   0  0  0  0  0  0  0  0  0  0  0  0
  188.9470  177.3800  146.4180 C   0  0  0  0  0  3  0  0  0  0  0  0
  186.4500  178.0010  145.3230 C   0  0  0  0  0  3  0  0  0  0  0  0
  186.3130  178.6670  142.3510 C   0  0  1  0  0  3  0  0  0  0  0  0
  187.3840  177.7820  142.9780 C   0  0  1  0  0  3  0  0  0  0  0  0
  189.7670  177.2530  142.6530 C   0  0  0  0  0  2  0  0  0  0  0  0
  188.3060  178.5240  140.8970 C   0  0  2  0  0  3  0  0  0  0  0  0
  186.9160  179.1480  141.0270 C   0  0  0  0  0  2  0  0  0  0  0  0
  190.0400  177.2750  144.1670 C   0  0  0  0  0  2  0  0  0  0  0  0
  188.2390  177.2320  140.0760 C   0  0  0  0  0  2  0  0  0  0  0  0
  189.2900  177.2070  138.9730 C   0  0  0  0  0  2  0  0  0  0  0  0
  187.6790  175.3990  135.9780 C   0  0  0  0  0  2  0  0  0  0  0  0
  187.1820  178.3130  136.0110 C   0  0  0  0  0  2  0  0  0  0  0  0
  186.1380  177.3580  135.4260 C   0  0  0  0  0  2  0  0  0  0  0  0
  188.2050  175.6370  137.3880 C   0  0  0  0  0  2  0  0  0  0  0  0
  188.6450  177.0820  137.6010 C   0  0  0  0  0  3  0  0  0  0  0  0
  186.2440  175.8970  135.8790 C   0  0  0  0  0  2  0  0  0  0  0  0
  187.4740  178.0520  137.4810 C   0  0  0  0  0  2  0  0  0  0  0  0
  185.0720  177.8430  142.0320 C   0  0  0  0  0  2  0  0  0  0  0  0
  184.1050  178.6110  141.1450 C   0  0  1  0  0  3  0  0  0  0  0  0
  182.4620  180.4740  139.0240 C   0  0  0  0  0  1  0  0  0  0  0  0
  181.8510  179.0830  138.8340 C   0  0  2  0  0  0  0  0  0  0  0  0
  183.4300  177.7090  140.1800 C   0  0  2  0  0  3  0  0  0  0  0  0
  182.9250  179.0670  141.9490 C   0  0  0  0  0  2  0  0  0  0  0  0
  184.1630  177.6150  138.8450 C   0  0  0  0  0  2  0  0  0  0  0  0
  182.0660  178.2340  140.0390 N   0  0  1  0  0  0  0  0  0  0  0  0
  182.5120  178.4560  137.5800 C   0  0  0  0  0  2  0  0  0  0  0  0
  181.7550  178.9540  141.1650 O   0  0  0  0  0  0  0  0  0  0  0  0
  183.2320  177.2790  137.8570 O   0  0  0  0  0  0  0  0  0  0  0  0
  180.3380  179.2030  138.6010 C   0  0  0  0  0  2  0  0  0  0  0  0
  179.7690  180.6100  138.8010 C   0  0  1  0  0  3  0  0  0  0  0  0
  180.3970  181.2100  139.8760 F   0  0  0  0  0  0  0  0  0  0  0  0
  179.9570  181.4500  137.5800 C   0  0  0  0  0  0  0  0  0  0  0  0
  180.8050  181.5460  135.2420 C   0  0  0  0  0  2  0  0  0  0  0  0
  180.3060  183.5750  136.5320 C   0  0  0  0  0  3  0  0  0  0  0  0
  180.6020  183.0310  135.3480 C   0  0  0  0  0  3  0  0  0  0  0  0
  180.0990  182.7420  137.6830 N   0  0  0  0  0  0  0  0  0  0  0  0
  179.8960  180.8020  136.2240 C   0  0  0  0  0  2  0  0  0  0  0  0
  1  5  1  0  0  0  0
  2 11  1  6  0  0  0
  2 10  1  0  0  0  0
  3  7  1  0  0  0  0
  4  1  1  0  0  0  0
  6  3  2  0  0  0  0
  6  8  1  0  0  0  0
  7  1  2  0  0  0  0
  8  4  2  0  0  0  0
  9 24  1  6  0  0  0
  9 10  1  0  0  0  0
 10  6  1  1  0  0  0
 11 14  1  0  0  0  0
 12 15  1  6  0  0  0
 12 13  1  0  0  0  0
 12  2  1  0  0  0  0
 13  9  1  0  0  0  0
 14  3  1  0  0  0  0
 16 15  1  0  0  0  0
 17 20  1  0  0  0  0
 18 23  1  0  0  0  0
 19 22  1  0  0  0  0
 19 18  1  0  0  0  0
 20 21  1  0  0  0  0
 21 16  1  0  0  0  0
 22 17  1  0  0  0  0
 23 21  1  0  0  0  0
 25 29  1  0  0  0  0
 25 24  1  1  0  0  0
 27 26  1  1  0  0  0
 27 31  1  0  0  0  0
 28 30  1  6  0  0  0
 28 25  1  0  0  0  0
 31 28  1  0  0  0  0
 31 33  1  1  0  0  0
 32 34  1  0  0  0  0
 32 27  1  0  0  0  0
 33 29  1  0  0  0  0
 34 30  1  0  0  0  0
 35 36  1  0  0  0  0
 35 27  1  0  0  0  0
 36 37  1  1  0  0  0
 38 42  2  0  0  0  0
 38 36  1  0  0  0  0
 39 41  1  0  0  0  0
 39 43  1  0  0  0  0
 40 42  1  0  0  0  0
 41 40  2  0  0  0  0
 43 38  1  0  0  0  0
M  END
>  <MODEL>
9

>  <REMARK>
 VINA RESULT:      -8.0      3.751      7.938
  Name = 
  8 active torsions:
  status: ('A' for Active; 'I' for Inactive)
    1  A    between atoms: C_1  and  C_28
    2  A    between atoms: C_1  and  C_34
    3  A    between atoms: C_2  and  C_13
    4  A    between atoms: C_4  and  C_22
    5  A    between atoms: C_11  and  C_14
    6  A    between atoms: C_13  and  C_27
    7  A    between atoms: C_14  and  C_22
    8  A    between atoms: C_28  and  C_35
                            x       y       z     vdW  Elec       q    Type
                         _______ _______ _______ _____ _____    ______ ____

>  <TORSDO>
F 8

$$$$
