=
 OpenBabel10262421453D

 30 35  0  0  1  0  0  0  0  0999 V2000
  188.1090  176.0620  136.6680 C   0  0  1  0  0  0  0  0  0  0  0  0
  187.4520  174.8250  137.3270 C   0  0  2  0  0  3  0  0  0  0  0  0
  185.3590  175.4790  136.2460 C   0  0  1  0  0  0  0  0  0  0  0  0
  187.8290  177.4030  137.3940 C   0  0  2  0  0  3  0  0  0  0  0  0
  189.2870  175.8180  135.7090 C   0  0  0  0  0  2  0  0  0  0  0  0
  192.8090  175.9760  137.8140 S   0  0  0  0  0  0  0  0  0  0  0  0
  191.0180  175.7110  137.6030 C   0  0  2  0  0  3  0  0  0  0  0  0
  191.7040  176.0620  135.3350 N   0  0  0  0  0  2  0  0  0  0  0  0
  184.7170  176.8100  136.1210 N   0  0  0  0  0  0  0  0  0  0  0  0
  190.6190  176.3230  136.2560 C   0  0  1  0  0  3  0  0  0  0  0  0
  190.2060  176.2230  138.8000 C   0  0  0  0  0  2  0  0  0  0  0  0
  186.4630  172.5870  136.8010 C   0  0  0  0  0  2  0  0  0  0  0  0
  193.9860  175.5720  135.4460 O   0  0  0  0  0  0  0  0  0  0  0  0
  187.7730  173.3970  136.9130 C   0  0  0  0  0  2  0  0  0  0  0  0
  183.5660  173.8590  136.0750 O   0  0  0  0  0  1  0  0  0  0  0  0
  185.2940  173.1800  137.6190 C   0  0  0  0  0  2  0  0  0  0  0  0
  192.9190  175.8750  136.0390 C   0  0  0  0  0  0  0  0  0  0  0  0
  186.8380  175.5140  136.1270 C   0  0  1  0  0  0  0  0  0  0  0  0
  186.7580  178.2640  136.6960 C   0  0  0  0  0  2  0  0  0  0  0  0
  184.6590  177.3110  134.7500 C   0  0  0  0  0  1  0  0  0  0  0  0
  185.2940  177.8440  137.0090 C   0  0  2  0  0  3  0  0  0  0  0  0
  189.0790  178.2440  137.6570 C   0  0  0  0  0  2  0  0  0  0  0  0
  184.5390  174.3550  136.9430 C   0  0  1  0  0  3  0  0  0  0  0  0
  186.1170  174.8980  134.9770 C   0  0  0  0  0  2  0  0  0  0  0  0
  189.9370  177.7320  138.8230 C   0  0  0  0  0  2  0  0  0  0  0  0
  185.0360  177.5300  138.4870 C   0  0  0  0  0  2  0  0  0  0  0  0
  185.1290  178.7270  139.3930 C   0  0  0  0  0  0  0  0  0  0  0  0
  184.4390  179.7680  139.1100 N   0  0  0  0  0  2  0  0  0  0  0  0
  185.9830  178.7310  140.6250 C   0  0  0  0  0  2  0  0  0  0  0  0
  185.4730  179.6410  141.5530 O   0  0  0  0  0  1  0  0  0  0  0  0
  1  5  1  6  0  0  0
  1  2  1  0  0  0  0
  1  4  1  0  0  0  0
  2 14  1  6  0  0  0
  3 24  1  6  0  0  0
  3 23  1  0  0  0  0
  4 19  1  6  0  0  0
  4 22  1  0  0  0  0
  7  6  1  0  0  0  0
  7 11  1  1  0  0  0
  8 17  1  0  0  0  0
  8 10  1  0  0  0  0
  9  3  1  0  0  0  0
  9 21  1  0  0  0  0
 10  5  1  6  0  0  0
 10  7  1  0  0  0  0
 11 25  1  0  0  0  0
 12 14  1  0  0  0  0
 12 16  1  0  0  0  0
 13 17  2  0  0  0  0
 17  6  1  0  0  0  0
 18 24  1  6  0  0  0
 18  3  1  0  0  0  0
 18  1  1  0  0  0  0
 18  2  1  0  0  0  0
 19 21  1  0  0  0  0
 20  9  1  0  0  0  0
 21 26  1  1  0  0  0
 22 25  1  0  0  0  0
 23 15  1  6  0  0  0
 23 16  1  0  0  0  0
 26 27  1  0  0  0  0
 27 29  1  0  0  0  0
 28 27  2  0  0  0  0
 29 30  1  0  0  0  0
M  END
>  <MODEL>
1

>  <REMARK>
 VINA RESULT:      -6.0      0.000      0.000
  Name = 
  3 active torsions:
  status: ('A' for Active; 'I' for Inactive)
    1  A    between atoms: CA_7  and  C_10
    2  A    between atoms: CA_7  and  C_15
    3  A    between atoms: C_10  and  C_25
                            x       y       z     vdW  Elec       q    Type
                         _______ _______ _______ _____ _____    ______ ____

>  <TORSDO>
F 3

$$$$
=
 OpenBabel10262421453D

 30 35  0  0  1  0  0  0  0  0999 V2000
  189.4060  177.7710  140.8970 C   0  0  1  0  0  0  0  0  0  0  0  0
  188.3560  177.1260  141.8320 C   0  0  2  0  0  3  0  0  0  0  0  0
  189.6280  178.0180  143.7200 C   0  0  1  0  0  0  0  0  0  0  0  0
  190.7220  176.9640  140.7520 C   0  0  2  0  0  3  0  0  0  0  0  0
  188.9130  178.8240  139.8890 C   0  0  0  0  0  2  0  0  0  0  0  0
  187.9610  176.9770  136.3480 S   0  0  0  0  0  0  0  0  0  0  0  0
  188.2110  177.0690  138.1520 C   0  0  2  0  0  3  0  0  0  0  0  0
  188.5100  179.3620  137.5250 N   0  0  0  0  0  2  0  0  0  0  0  0
  191.0880  178.0330  143.9740 N   0  0  0  0  0  0  0  0  0  0  0  0
  188.9970  178.3530  138.4410 C   0  0  1  0  0  3  0  0  0  0  0  0
  188.8460  175.7920  138.7190 C   0  0  0  0  0  2  0  0  0  0  0  0
  186.5130  177.6840  143.4330 C   0  0  0  0  0  2  0  0  0  0  0  0
  187.4080  179.4420  135.4660 O   0  0  0  0  0  0  0  0  0  0  0  0
  186.9250  177.6290  141.9440 C   0  0  0  0  0  2  0  0  0  0  0  0
  188.5750  178.1350  145.8990 O   0  0  0  0  0  1  0  0  0  0  0  0
  187.3490  176.7550  144.3420 C   0  0  0  0  0  2  0  0  0  0  0  0
  187.9520  178.7580  136.3720 C   0  0  0  0  0  0  0  0  0  0  0  0
  189.2640  178.2430  142.2990 C   0  0  1  0  0  0  0  0  0  0  0  0
  191.8870  177.5400  141.5790 C   0  0  0  0  0  2  0  0  0  0  0  0
  191.6760  179.3710  143.9680 C   0  0  0  0  0  1  0  0  0  0  0  0
  191.8640  177.1410  143.0830 C   0  0  2  0  0  3  0  0  0  0  0  0
  191.1700  176.7530  139.3050 C   0  0  0  0  0  2  0  0  0  0  0  0
  188.7280  177.3180  144.7780 C   0  0  1  0  0  3  0  0  0  0  0  0
  188.9460  179.3660  143.2270 C   0  0  0  0  0  2  0  0  0  0  0  0
  190.3670  175.6780  138.5580 C   0  0  0  0  0  2  0  0  0  0  0  0
  191.5360  175.6650  143.3330 C   0  0  0  0  0  2  0  0  0  0  0  0
  192.0200  175.1450  144.6590 C   0  0  0  0  0  0  0  0  0  0  0  0
  192.4320  173.9350  144.7310 N   0  0  0  0  0  2  0  0  0  0  0  0
  192.0550  176.0030  145.8880 C   0  0  0  0  0  2  0  0  0  0  0  0
  192.5010  175.2530  146.9770 O   0  0  0  0  0  1  0  0  0  0  0  0
  1  5  1  6  0  0  0
  1  2  1  0  0  0  0
  1 18  1  0  0  0  0
  2 14  1  6  0  0  0
  2 18  1  0  0  0  0
  3 24  1  1  0  0  0
  3  9  1  0  0  0  0
  3 23  1  0  0  0  0
  4 22  1  6  0  0  0
  4  1  1  0  0  0  0
  4 19  1  0  0  0  0
  6 17  1  0  0  0  0
  6  7  1  0  0  0  0
  7 10  1  0  0  0  0
  7 11  1  6  0  0  0
  8 10  1  0  0  0  0
 10  5  1  1  0  0  0
 12 16  1  0  0  0  0
 13 17  2  0  0  0  0
 14 12  1  0  0  0  0
 16 23  1  0  0  0  0
 17  8  1  0  0  0  0
 18 24  1  6  0  0  0
 18  3  1  0  0  0  0
 19 21  1  0  0  0  0
 20  9  1  0  0  0  0
 21 26  1  6  0  0  0
 21  9  1  0  0  0  0
 23 15  1  1  0  0  0
 25 11  1  0  0  0  0
 25 22  1  0  0  0  0
 26 27  1  0  0  0  0
 27 28  2  0  0  0  0
 27 29  1  0  0  0  0
 29 30  1  0  0  0  0
M  END
>  <MODEL>
2

>  <REMARK>
 VINA RESULT:      -4.7      4.835      7.613
  Name = 
  3 active torsions:
  status: ('A' for Active; 'I' for Inactive)
    1  A    between atoms: CA_7  and  C_10
    2  A    between atoms: CA_7  and  C_15
    3  A    between atoms: C_10  and  C_25
                            x       y       z     vdW  Elec       q    Type
                         _______ _______ _______ _____ _____    ______ ____

>  <TORSDO>
F 3

$$$$
=
 OpenBabel10262421453D

 30 35  0  0  1  0  0  0  0  0999 V2000
  186.4870  175.7840  136.3030 C   0  0  1  0  0  0  0  0  0  0  0  0
  186.0240  174.4910  137.0150 C   0  0  2  0  0  3  0  0  0  0  0  0
  183.7890  174.9080  136.1130 C   0  0  1  0  0  0  0  0  0  0  0  0
  186.1270  177.0950  137.0500 C   0  0  2  0  0  3  0  0  0  0  0  0
  187.6010  175.6590  135.2500 C   0  0  0  0  0  2  0  0  0  0  0  0
  191.2480  176.2100  137.0530 S   0  0  0  0  0  0  0  0  0  0  0  0
  189.4840  175.7540  136.9920 C   0  0  2  0  0  3  0  0  0  0  0  0
  189.9380  176.1560  134.6740 N   0  0  0  0  0  2  0  0  0  0  0  0
  183.0010  176.1610  136.0410 N   0  0  0  0  0  0  0  0  0  0  0  0
  188.9110  176.3070  135.6830 C   0  0  1  0  0  3  0  0  0  0  0  0
  188.7250  176.1880  138.2530 C   0  0  0  0  0  2  0  0  0  0  0  0
  185.2390  172.1550  136.5750 C   0  0  0  0  0  2  0  0  0  0  0  0
  192.2610  175.9120  134.5940 O   0  0  0  0  0  0  0  0  0  0  0  0
  186.4600  173.1010  136.5770 C   0  0  0  0  0  2  0  0  0  0  0  0
  182.1720  173.1040  136.0930 O   0  0  0  0  0  1  0  0  0  0  0  0
  184.0850  172.6280  137.4880 C   0  0  0  0  0  2  0  0  0  0  0  0
  191.2210  176.1050  135.2740 C   0  0  0  0  0  0  0  0  0  0  0  0
  185.2410  175.0990  135.8710 C   0  0  1  0  0  0  0  0  0  0  0  0
  184.9160  177.8300  136.4440 C   0  0  0  0  0  2  0  0  0  0  0  0
  182.7760  176.6410  134.6790 C   0  0  0  0  0  1  0  0  0  0  0  0
  183.5360  177.2590  136.8780 C   0  0  2  0  0  3  0  0  0  0  0  0
  187.2970  178.0670  137.2070 C   0  0  0  0  0  2  0  0  0  0  0  0
  183.1560  173.7100  136.8760 C   0  0  1  0  0  3  0  0  0  0  0  0
  184.4980  174.3990  134.7850 C   0  0  0  0  0  2  0  0  0  0  0  0
  188.2980  177.6600  138.2970 C   0  0  0  0  0  2  0  0  0  0  0  0
  183.4370  176.9340  138.3720 C   0  0  0  0  0  2  0  0  0  0  0  0
  182.9010  178.0610  139.2110 C   0  0  0  0  0  0  0  0  0  0  0  0
  182.1220  177.7840  140.1900 N   0  0  0  0  0  2  0  0  0  0  0  0
  183.2670  179.4920  138.9540 C   0  0  0  0  0  2  0  0  0  0  0  0
  184.5120  179.7730  139.5190 O   0  0  0  0  0  1  0  0  0  0  0  0
  1  5  1  6  0  0  0
  1  2  1  0  0  0  0
  1  4  1  0  0  0  0
  2 14  1  6  0  0  0
  3 24  1  6  0  0  0
  3 23  1  0  0  0  0
  4 19  1  6  0  0  0
  4 22  1  0  0  0  0
  7  6  1  0  0  0  0
  7 11  1  1  0  0  0
  8 17  1  0  0  0  0
  8 10  1  0  0  0  0
  9  3  1  0  0  0  0
  9 21  1  0  0  0  0
 10  5  1  6  0  0  0
 10  7  1  0  0  0  0
 11 25  1  0  0  0  0
 12 14  1  0  0  0  0
 12 16  1  0  0  0  0
 13 17  2  0  0  0  0
 17  6  1  0  0  0  0
 18 24  1  6  0  0  0
 18  3  1  0  0  0  0
 18  1  1  0  0  0  0
 18  2  1  0  0  0  0
 19 21  1  0  0  0  0
 20  9  1  0  0  0  0
 21 26  1  1  0  0  0
 22 25  1  0  0  0  0
 23 15  1  6  0  0  0
 23 16  1  0  0  0  0
 26 27  1  0  0  0  0
 27 28  2  0  0  0  0
 29 27  1  0  0  0  0
 29 30  1  0  0  0  0
M  END
>  <MODEL>
3

>  <REMARK>
 VINA RESULT:      -4.7      1.646      1.898
  Name = 
  3 active torsions:
  status: ('A' for Active; 'I' for Inactive)
    1  A    between atoms: CA_7  and  C_10
    2  A    between atoms: CA_7  and  C_15
    3  A    between atoms: C_10  and  C_25
                            x       y       z     vdW  Elec       q    Type
                         _______ _______ _______ _____ _____    ______ ____

>  <TORSDO>
F 3

$$$$
=
 OpenBabel10262421453D

 30 35  0  0  1  0  0  0  0  0999 V2000
  181.3420  176.6520  138.1440 C   0  0  1  0  0  0  0  0  0  0  0  0
  182.7030  177.1610  137.6140 C   0  0  2  0  0  3  0  0  0  0  0  0
  182.8100  178.6250  139.5700 C   0  0  1  0  0  0  0  0  0  0  0  0
  180.1440  177.5930  137.8520 C   0  0  2  0  0  3  0  0  0  0  0  0
  181.2150  175.1520  138.4610 C   0  0  0  0  0  2  0  0  0  0  0  0
  179.8400  173.1710  135.1370 S   0  0  0  0  0  0  0  0  0  0  0  0
  180.6860  174.5170  136.0300 C   0  0  2  0  0  3  0  0  0  0  0  0
  180.2020  173.0050  137.8240 N   0  0  0  0  0  2  0  0  0  0  0  0
  181.7690  179.4830  140.1850 N   0  0  0  0  0  0  0  0  0  0  0  0
  180.2830  174.4140  137.5050 C   0  0  1  0  0  3  0  0  0  0  0  0
  180.4310  175.8900  135.3940 C   0  0  0  0  0  2  0  0  0  0  0  0
  185.1590  177.1350  138.1010 C   0  0  0  0  0  2  0  0  0  0  0  0
  179.9110  170.9870  136.6820 O   0  0  0  0  0  0  0  0  0  0  0  0
  183.9590  176.3030  137.5950 C   0  0  0  0  0  2  0  0  0  0  0  0
  184.9340  179.6120  140.1880 O   0  0  0  0  0  1  0  0  0  0  0  0
  184.9560  178.6610  137.9680 C   0  0  0  0  0  2  0  0  0  0  0  0
  179.9560  172.2440  136.6540 C   0  0  0  0  0  0  0  0  0  0  0  0
  182.2940  177.3290  139.0610 C   0  0  1  0  0  0  0  0  0  0  0  0
  179.7060  178.4230  139.0740 C   0  0  0  0  0  2  0  0  0  0  0  0
  181.3590  179.0500  141.5200 C   0  0  0  0  0  1  0  0  0  0  0  0
  180.5750  179.6870  139.3350 C   0  0  2  0  0  3  0  0  0  0  0  0
  178.9310  176.8900  137.2420 C   0  0  0  0  0  2  0  0  0  0  0  0
  184.1170  179.3210  139.0940 C   0  0  1  0  0  3  0  0  0  0  0  0
  183.1500  177.2450  140.2790 C   0  0  0  0  0  2  0  0  0  0  0  0
  179.0940  176.5500  135.7540 C   0  0  0  0  0  2  0  0  0  0  0  0
  180.9070  180.4870  138.0720 C   0  0  0  0  0  2  0  0  0  0  0  0
  180.4130  181.9080  138.0990 C   0  0  0  0  0  0  0  0  0  0  0  0
  179.6650  182.2810  139.0690 N   0  0  0  0  0  2  0  0  0  0  0  0
  180.7870  182.9030  137.0420 C   0  0  0  0  0  2  0  0  0  0  0  0
  181.5960  183.8990  137.5920 O   0  0  0  0  0  1  0  0  0  0  0  0
  1  5  1  1  0  0  0
  1 18  1  0  0  0  0
  2 14  1  1  0  0  0
  2  1  1  0  0  0  0
  2 18  1  0  0  0  0
  3  9  1  0  0  0  0
  3 24  1  1  0  0  0
  4 22  1  1  0  0  0
  4  1  1  0  0  0  0
  4 19  1  0  0  0  0
  6  7  1  0  0  0  0
  6 17  1  0  0  0  0
  7 11  1  6  0  0  0
  7 10  1  0  0  0  0
  9 20  1  0  0  0  0
 10  8  1  0  0  0  0
 10  5  1  1  0  0  0
 11 25  1  0  0  0  0
 14 12  1  0  0  0  0
 16 12  1  0  0  0  0
 16 23  1  0  0  0  0
 17 13  2  0  0  0  0
 17  8  1  0  0  0  0
 18  3  1  0  0  0  0
 18 24  1  1  0  0  0
 19 21  1  0  0  0  0
 21 26  1  6  0  0  0
 21  9  1  0  0  0  0
 23  3  1  0  0  0  0
 23 15  1  1  0  0  0
 25 22  1  0  0  0  0
 26 27  1  0  0  0  0
 27 28  2  0  0  0  0
 29 30  1  0  0  0  0
 29 27  1  0  0  0  0
M  END
>  <MODEL>
4

>  <REMARK>
 VINA RESULT:      -4.6      5.393      8.448
  Name = 
  3 active torsions:
  status: ('A' for Active; 'I' for Inactive)
    1  A    between atoms: CA_7  and  C_10
    2  A    between atoms: CA_7  and  C_15
    3  A    between atoms: C_10  and  C_25
                            x       y       z     vdW  Elec       q    Type
                         _______ _______ _______ _____ _____    ______ ____

>  <TORSDO>
F 3

$$$$
=
 OpenBabel10262421453D

 30 35  0  0  1  0  0  0  0  0999 V2000
  180.9130  176.5470  137.9780 C   0  0  1  0  0  0  0  0  0  0  0  0
  179.8230  177.4510  137.3580 C   0  0  2  0  0  3  0  0  0  0  0  0
  181.1960  179.3750  137.9840 C   0  0  1  0  0  0  0  0  0  0  0  0
  180.8570  176.4360  139.5240 C   0  0  2  0  0  3  0  0  0  0  0  0
  181.6040  175.5270  137.0560 C   0  0  0  0  0  2  0  0  0  0  0  0
  179.5790  171.9590  137.2160 S   0  0  0  0  0  0  0  0  0  0  0  0
  179.7560  173.7680  137.3460 C   0  0  2  0  0  3  0  0  0  0  0  0
  181.9100  173.1530  136.4960 N   0  0  0  0  0  2  0  0  0  0  0  0
  181.9210  179.6690  139.2430 N   0  0  0  0  0  0  0  0  0  0  0  0
  181.2550  174.0810  137.3940 C   0  0  1  0  0  3  0  0  0  0  0  0
  178.9460  174.3510  138.5110 C   0  0  0  0  0  2  0  0  0  0  0  0
  179.3820  179.0010  135.4420 C   0  0  0  0  0  2  0  0  0  0  0  0
  181.4680  171.0650  135.5450 O   0  0  0  0  0  0  0  0  0  0  0  0
  179.5580  177.5250  135.8620 C   0  0  0  0  0  2  0  0  0  0  0  0
  180.7500  181.5240  136.9590 O   0  0  0  0  0  1  0  0  0  0  0  0
  178.9690  179.9320  136.6040 C   0  0  0  0  0  2  0  0  0  0  0  0
  181.1260  171.9840  136.3330 C   0  0  0  0  0  0  0  0  0  0  0  0
  181.2340  177.9450  137.5900 C   0  0  1  0  0  0  0  0  0  0  0  0
  181.9180  177.2970  140.2370 C   0  0  0  0  0  2  0  0  0  0  0  0
  183.3760  179.6810  139.0990 C   0  0  0  0  0  1  0  0  0  0  0  0
  181.5370  178.7980  140.3770 C   0  0  2  0  0  3  0  0  0  0  0  0
  180.9140  175.0020  140.0510 C   0  0  0  0  0  2  0  0  0  0  0  0
  180.1290  180.4070  137.5190 C   0  0  1  0  0  3  0  0  0  0  0  0
  182.0440  178.8640  136.7400 C   0  0  0  0  0  2  0  0  0  0  0  0
  179.5950  174.2320  139.8960 C   0  0  0  0  0  2  0  0  0  0  0  0
  180.0870  179.0370  140.8100 C   0  0  0  0  0  2  0  0  0  0  0  0
  179.9470  179.6300  142.1850 C   0  0  0  0  0  0  0  0  0  0  0  0
  179.6820  180.8790  142.2920 N   0  0  0  0  0  2  0  0  0  0  0  0
  180.0840  178.8050  143.4290 C   0  0  0  0  0  2  0  0  0  0  0  0
  179.6830  177.4930  143.1740 O   0  0  0  0  0  1  0  0  0  0  0  0
  1  5  1  6  0  0  0
  1  4  1  0  0  0  0
  2 14  1  6  0  0  0
  2 18  1  0  0  0  0
  2  1  1  0  0  0  0
  3 24  1  6  0  0  0
  3  9  1  0  0  0  0
  4 22  1  6  0  0  0
  4 19  1  0  0  0  0
  6  7  1  0  0  0  0
  7 10  1  0  0  0  0
  7 11  1  1  0  0  0
  8 10  1  0  0  0  0
  9 21  1  0  0  0  0
 10  5  1  6  0  0  0
 11 25  1  0  0  0  0
 12 14  1  0  0  0  0
 12 16  1  0  0  0  0
 13 17  2  0  0  0  0
 16 23  1  0  0  0  0
 17  8  1  0  0  0  0
 17  6  1  0  0  0  0
 18 24  1  6  0  0  0
 18  1  1  0  0  0  0
 18  3  1  0  0  0  0
 19 21  1  0  0  0  0
 20  9  1  0  0  0  0
 21 26  1  6  0  0  0
 23 15  1  6  0  0  0
 23  3  1  0  0  0  0
 25 22  1  0  0  0  0
 26 27  1  0  0  0  0
 27 28  2  0  0  0  0
 27 29  1  0  0  0  0
 30 29  1  0  0  0  0
M  END
>  <MODEL>
5

>  <REMARK>
 VINA RESULT:      -4.5      6.729      8.604
  Name = 
  3 active torsions:
  status: ('A' for Active; 'I' for Inactive)
    1  A    between atoms: CA_7  and  C_10
    2  A    between atoms: CA_7  and  C_15
    3  A    between atoms: C_10  and  C_25
                            x       y       z     vdW  Elec       q    Type
                         _______ _______ _______ _____ _____    ______ ____

>  <TORSDO>
F 3

$$$$
=
 OpenBabel10262421453D

 30 35  0  0  1  0  0  0  0  0999 V2000
  185.1210  177.7350  138.0080 C   0  0  1  0  0  0  0  0  0  0  0  0
  186.2500  177.5210  139.0430 C   0  0  2  0  0  3  0  0  0  0  0  0
  187.8010  177.3020  137.1660 C   0  0  1  0  0  0  0  0  0  0  0  0
  184.5870  176.4320  137.3580 C   0  0  2  0  0  3  0  0  0  0  0  0
  184.3470  179.0640  138.0610 C   0  0  0  0  0  2  0  0  0  0  0  0
  181.0570  178.6270  140.4780 S   0  0  0  0  0  0  0  0  0  0  0  0
  182.7360  178.2420  139.8840 C   0  0  2  0  0  3  0  0  0  0  0  0
  182.2080  180.1670  138.5600 N   0  0  0  0  0  2  0  0  0  0  0  0
  187.6690  176.5530  135.8930 N   0  0  0  0  0  0  0  0  0  0  0  0
  182.8980  178.8960  138.5080 C   0  0  1  0  0  3  0  0  0  0  0  0
  183.0350  176.7370  139.9120 C   0  0  0  0  0  2  0  0  0  0  0  0
  188.3060  178.5930  139.9890 C   0  0  0  0  0  2  0  0  0  0  0  0
  180.5130  181.1640  139.8240 O   0  0  0  0  0  0  0  0  0  0  0  0
  186.7610  178.6280  139.9540 C   0  0  0  0  0  2  0  0  0  0  0  0
  190.1810  177.5030  137.5740 O   0  0  0  0  0  1  0  0  0  0  0  0
  188.9040  177.2210  139.6050 C   0  0  0  0  0  2  0  0  0  0  0  0
  181.2000  180.1450  139.5560 C   0  0  0  0  0  0  0  0  0  0  0  0
  186.5400  177.9410  137.6190 C   0  0  1  0  0  0  0  0  0  0  0  0
  185.1220  176.1970  135.9330 C   0  0  0  0  0  2  0  0  0  0  0  0
  187.6010  177.4070  134.7090 C   0  0  0  0  0  1  0  0  0  0  0  0
  186.5500  175.5840  135.8770 C   0  0  2  0  0  3  0  0  0  0  0  0
  183.0630  176.3090  137.3660 C   0  0  0  0  0  2  0  0  0  0  0  0
  189.0060  176.9450  138.0820 C   0  0  1  0  0  3  0  0  0  0  0  0
  187.5910  178.8770  137.1260 C   0  0  0  0  0  2  0  0  0  0  0  0
  182.4790  175.9270  138.7340 C   0  0  0  0  0  2  0  0  0  0  0  0
  186.7780  174.4390  136.8700 C   0  0  0  0  0  2  0  0  0  0  0  0
  185.9370  173.2210  136.6050 C   0  0  0  0  0  0  0  0  0  0  0  0
  186.1040  172.5860  135.5050 N   0  0  0  0  0  2  0  0  0  0  0  0
  184.9300  172.7150  137.5930 C   0  0  0  0  0  2  0  0  0  0  0  0
  183.6450  172.8240  137.0600 O   0  0  0  0  0  1  0  0  0  0  0  0
  1  5  1  1  0  0  0
  1  2  1  0  0  0  0
  2 14  1  1  0  0  0
  3 24  1  6  0  0  0
  3 18  1  0  0  0  0
  3 23  1  0  0  0  0
  4 19  1  6  0  0  0
  4 22  1  0  0  0  0
  4  1  1  0  0  0  0
  7 11  1  6  0  0  0
  7  6  1  0  0  0  0
  8 17  1  0  0  0  0
  9  3  1  0  0  0  0
 10  5  1  1  0  0  0
 10  8  1  0  0  0  0
 10  7  1  0  0  0  0
 14 12  1  0  0  0  0
 16 12  1  0  0  0  0
 17 13  2  0  0  0  0
 17  6  1  0  0  0  0
 18 24  1  1  0  0  0
 18  1  1  0  0  0  0
 18  2  1  0  0  0  0
 20  9  1  0  0  0  0
 21  9  1  0  0  0  0
 21 19  1  0  0  0  0
 21 26  1  1  0  0  0
 22 25  1  0  0  0  0
 23 15  1  6  0  0  0
 23 16  1  0  0  0  0
 25 11  1  0  0  0  0
 27 26  1  0  0  0  0
 27 29  1  0  0  0  0
 28 27  2  0  0  0  0
 30 29  1  0  0  0  0
M  END
>  <MODEL>
6

>  <REMARK>
 VINA RESULT:      -4.5      3.266      7.233
  Name = 
  3 active torsions:
  status: ('A' for Active; 'I' for Inactive)
    1  A    between atoms: CA_7  and  C_10
    2  A    between atoms: CA_7  and  C_15
    3  A    between atoms: C_10  and  C_25
                            x       y       z     vdW  Elec       q    Type
                         _______ _______ _______ _____ _____    ______ ____

>  <TORSDO>
F 3

$$$$
=
 OpenBabel10262421453D

 30 35  0  0  1  0  0  0  0  0999 V2000
  183.0420  176.6930  137.3730 C   0  0  1  0  0  0  0  0  0  0  0  0
  183.1010  177.7410  138.5090 C   0  0  2  0  0  3  0  0  0  0  0  0
  180.6710  177.9430  138.3210 C   0  0  1  0  0  0  0  0  0  0  0  0
  182.9230  177.2930  135.9480 C   0  0  2  0  0  3  0  0  0  0  0  0
  183.5550  175.2760  137.6830 C   0  0  0  0  0  2  0  0  0  0  0  0
  187.5380  175.0300  136.7180 S   0  0  0  0  0  0  0  0  0  0  0  0
  186.0050  175.8830  137.2110 C   0  0  2  0  0  3  0  0  0  0  0  0
  185.2990  173.5940  137.2650 N   0  0  0  0  0  2  0  0  0  0  0  0
  179.8060  178.0450  137.1210 N   0  0  0  0  0  0  0  0  0  0  0  0
  184.8390  174.9270  136.9370 C   0  0  1  0  0  3  0  0  0  0  0  0
  185.8660  177.2620  136.5510 C   0  0  0  0  0  2  0  0  0  0  0  0
  182.4620  178.1150  140.9010 C   0  0  0  0  0  2  0  0  0  0  0  0
  187.3380  172.4720  137.4750 O   0  0  0  0  0  0  0  0  0  0  0  0
  183.4370  177.3860  139.9500 C   0  0  0  0  0  2  0  0  0  0  0  0
  179.4320  178.9840  140.1230 O   0  0  0  0  0  1  0  0  0  0  0  0
  181.8110  179.3710  140.2790 C   0  0  0  0  0  2  0  0  0  0  0  0
  186.7110  173.5190  137.1720 C   0  0  0  0  0  0  0  0  0  0  0  0
  181.8200  177.0180  138.1540 C   0  0  1  0  0  0  0  0  0  0  0  0
  181.4970  177.2160  135.3700 C   0  0  0  0  0  2  0  0  0  0  0  0
  178.9310  176.8910  136.9240 C   0  0  0  0  0  1  0  0  0  0  0  0
  180.5410  178.3370  135.8700 C   0  0  2  0  0  3  0  0  0  0  0  0
  183.9210  176.7180  134.9420 C   0  0  0  0  0  2  0  0  0  0  0  0
  180.5930  179.1000  139.3570 C   0  0  1  0  0  3  0  0  0  0  0  0
  180.7430  176.5420  139.0680 C   0  0  0  0  0  2  0  0  0  0  0  0
  185.3490  177.2580  135.1070 C   0  0  0  0  0  2  0  0  0  0  0  0
  181.1740  179.7320  135.8970 C   0  0  0  0  0  2  0  0  0  0  0  0
  180.1770  180.8580  135.8770 C   0  0  0  0  0  0  0  0  0  0  0  0
  179.2530  180.8470  134.9900 N   0  0  0  0  0  2  0  0  0  0  0  0
  180.2170  181.9770  136.8740 C   0  0  0  0  0  2  0  0  0  0  0  0
  180.8020  183.1060  136.2970 O   0  0  0  0  0  1  0  0  0  0  0  0
  1  5  1  1  0  0  0
  1 18  1  0  0  0  0
  1  2  1  0  0  0  0
  2 14  1  1  0  0  0
  3 24  1  1  0  0  0
  3 23  1  0  0  0  0
  4 22  1  6  0  0  0
  4  1  1  0  0  0  0
  6 17  1  0  0  0  0
  6  7  1  0  0  0  0
  7 11  1  6  0  0  0
  9  3  1  0  0  0  0
 10  7  1  0  0  0  0
 10  8  1  0  0  0  0
 10  5  1  1  0  0  0
 14 12  1  0  0  0  0
 16 12  1  0  0  0  0
 17  8  1  0  0  0  0
 17 13  2  0  0  0  0
 18  3  1  0  0  0  0
 18  2  1  0  0  0  0
 18 24  1  1  0  0  0
 19 21  1  0  0  0  0
 19  4  1  0  0  0  0
 20  9  1  0  0  0  0
 21 26  1  1  0  0  0
 21  9  1  0  0  0  0
 22 25  1  0  0  0  0
 23 15  1  1  0  0  0
 23 16  1  0  0  0  0
 25 11  1  0  0  0  0
 27 26  1  0  0  0  0
 27 29  1  0  0  0  0
 28 27  2  0  0  0  0
 30 29  1  0  0  0  0
M  END
>  <MODEL>
7

>  <REMARK>
 VINA RESULT:      -4.2      4.134      6.304
  Name = 
  3 active torsions:
  status: ('A' for Active; 'I' for Inactive)
    1  A    between atoms: CA_7  and  C_10
    2  A    between atoms: CA_7  and  C_15
    3  A    between atoms: C_10  and  C_25
                            x       y       z     vdW  Elec       q    Type
                         _______ _______ _______ _____ _____    ______ ____

>  <TORSDO>
F 3

$$$$
=
 OpenBabel10262421453D

 30 35  0  0  1  0  0  0  0  0999 V2000
  188.6580  176.6590  137.9100 C   0  0  1  0  0  0  0  0  0  0  0  0
  188.0920  175.2200  137.9140 C   0  0  2  0  0  3  0  0  0  0  0  0
  186.7650  175.8370  135.9560 C   0  0  1  0  0  0  0  0  0  0  0  0
  187.7190  177.7230  138.5360 C   0  0  2  0  0  3  0  0  0  0  0  0
  190.1790  176.8280  137.7450 C   0  0  0  0  0  2  0  0  0  0  0  0
  191.9470  176.9200  141.4490 S   0  0  0  0  0  0  0  0  0  0  0  0
  190.6530  176.4780  140.2440 C   0  0  2  0  0  3  0  0  0  0  0  0
  192.2930  177.4820  138.8150 N   0  0  0  0  0  2  0  0  0  0  0  0
  185.9680  177.0570  135.6810 N   0  0  0  0  0  0  0  0  0  0  0  0
  190.8640  177.3520  139.0030 C   0  0  1  0  0  3  0  0  0  0  0  0
  189.2440  176.5560  140.8460 C   0  0  0  0  0  2  0  0  0  0  0  0
  188.1120  173.0750  136.6230 C   0  0  0  0  0  2  0  0  0  0  0  0
  194.2320  177.2920  140.1060 O   0  0  0  0  0  0  0  0  0  0  0  0
  188.9270  173.9990  137.5550 C   0  0  0  0  0  2  0  0  0  0  0  0
  185.7890  174.0870  134.5940 O   0  0  0  0  0  1  0  0  0  0  0  0
  186.5840  173.2790  136.7270 C   0  0  0  0  0  2  0  0  0  0  0  0
  192.9750  177.2880  140.0410 C   0  0  0  0  0  0  0  0  0  0  0  0
  188.0310  176.1000  136.6850 C   0  0  1  0  0  0  0  0  0  0  0  0
  186.9830  178.5800  137.4880 C   0  0  0  0  0  2  0  0  0  0  0  0
  186.4990  177.8770  134.5940 C   0  0  0  0  0  1  0  0  0  0  0  0
  185.7260  177.9000  136.8730 C   0  0  2  0  0  3  0  0  0  0  0  0
  188.3980  178.6300  139.5630 C   0  0  0  0  0  2  0  0  0  0  0  0
  186.0170  174.4740  135.9160 C   0  0  1  0  0  3  0  0  0  0  0  0
  188.1850  175.7040  135.2560 C   0  0  0  0  0  2  0  0  0  0  0  0
  188.6320  177.9600  140.9240 C   0  0  0  0  0  2  0  0  0  0  0  0
  184.8350  177.1910  137.8980 C   0  0  0  0  0  2  0  0  0  0  0  0
  183.8690  178.1020  138.6050 C   0  0  0  0  0  0  0  0  0  0  0  0
  182.6240  178.0240  138.3140 N   0  0  0  0  0  2  0  0  0  0  0  0
  184.3130  179.0780  139.6530 C   0  0  0  0  0  2  0  0  0  0  0  0
  184.3690  180.3630  139.1110 O   0  0  0  0  0  1  0  0  0  0  0  0
  1  5  1  1  0  0  0
  1  2  1  0  0  0  0
  1  4  1  0  0  0  0
  2 14  1  6  0  0  0
  3 24  1  6  0  0  0
  3 18  1  0  0  0  0
  4 19  1  6  0  0  0
  4 22  1  0  0  0  0
  7 11  1  1  0  0  0
  7  6  1  0  0  0  0
  8 10  1  0  0  0  0
  8 17  1  0  0  0  0
  9  3  1  0  0  0  0
  9 21  1  0  0  0  0
 10  5  1  6  0  0  0
 10  7  1  0  0  0  0
 11 25  1  0  0  0  0
 12 16  1  0  0  0  0
 12 14  1  0  0  0  0
 17 13  2  0  0  0  0
 17  6  1  0  0  0  0
 18 24  1  6  0  0  0
 18  1  1  0  0  0  0
 18  2  1  0  0  0  0
 20  9  1  0  0  0  0
 21 19  1  0  0  0  0
 21 26  1  1  0  0  0
 22 25  1  0  0  0  0
 23 15  1  6  0  0  0
 23  3  1  0  0  0  0
 23 16  1  0  0  0  0
 26 27  1  0  0  0  0
 27 29  1  0  0  0  0
 28 27  2  0  0  0  0
 30 29  1  0  0  0  0
M  END
>  <MODEL>
8

>  <REMARK>
 VINA RESULT:      -4.1      2.043      2.381
  Name = 
  3 active torsions:
  status: ('A' for Active; 'I' for Inactive)
    1  A    between atoms: CA_7  and  C_10
    2  A    between atoms: CA_7  and  C_15
    3  A    between atoms: C_10  and  C_25
                            x       y       z     vdW  Elec       q    Type
                         _______ _______ _______ _____ _____    ______ ____

>  <TORSDO>
F 3

$$$$
=
 OpenBabel10262421453D

 30 35  0  0  1  0  0  0  0  0999 V2000
  183.4730  177.7100  137.7270 C   0  0  1  0  0  0  0  0  0  0  0  0
  182.9620  176.3230  138.1810 C   0  0  2  0  0  3  0  0  0  0  0  0
  180.9220  176.7630  136.9060 C   0  0  1  0  0  0  0  0  0  0  0  0
  182.8970  178.9050  138.5310 C   0  0  2  0  0  3  0  0  0  0  0  0
  184.7750  177.7580  136.9090 C   0  0  0  0  0  2  0  0  0  0  0  0
  187.9660  178.2200  139.4520 S   0  0  0  0  0  0  0  0  0  0  0  0
  186.2780  177.7080  138.9900 C   0  0  2  0  0  3  0  0  0  0  0  0
  187.1450  178.4100  136.8700 N   0  0  0  0  0  2  0  0  0  0  0  0
  180.0870  177.9850  136.8220 N   0  0  0  0  0  0  0  0  0  0  0  0
  185.9360  178.3970  137.6650 C   0  0  1  0  0  3  0  0  0  0  0  0
  185.2650  177.9540  140.1160 C   0  0  0  0  0  2  0  0  0  0  0  0
  182.4210  174.0310  137.3310 C   0  0  0  0  0  2  0  0  0  0  0  0
  189.4500  178.2660  137.2260 O   0  0  0  0  0  0  0  0  0  0  0  0
  183.5590  175.0150  137.6830 C   0  0  0  0  0  2  0  0  0  0  0  0
  179.4530  174.9160  136.3600 O   0  0  0  0  0  1  0  0  0  0  0  0
  181.0860  174.3440  138.0440 C   0  0  0  0  0  2  0  0  0  0  0  0
  188.2880  178.3340  137.7030 C   0  0  0  0  0  0  0  0  0  0  0  0
  182.3790  177.0370  136.9810 C   0  0  1  0  0  0  0  0  0  0  0  0
  181.7830  179.6630  137.7840 C   0  0  0  0  0  2  0  0  0  0  0  0
  180.1000  178.6210  135.5060 C   0  0  0  0  0  1  0  0  0  0  0  0
  180.3820  178.9910  137.8670 C   0  0  2  0  0  3  0  0  0  0  0  0
  183.9530  179.8930  139.0270 C   0  0  0  0  0  2  0  0  0  0  0  0
  180.2280  175.4570  137.3870 C   0  0  1  0  0  3  0  0  0  0  0  0
  181.9040  176.4490  135.6960 C   0  0  0  0  0  2  0  0  0  0  0  0
  184.7480  179.3930  140.2420 C   0  0  0  0  0  2  0  0  0  0  0  0
  180.0170  178.4800  139.2650 C   0  0  0  0  0  2  0  0  0  0  0  0
  179.7520  179.5700  140.2670 C   0  0  0  0  0  0  0  0  0  0  0  0
  178.9310  180.5030  139.9580 N   0  0  0  0  0  2  0  0  0  0  0  0
  180.3990  179.5870  141.6190 C   0  0  0  0  0  2  0  0  0  0  0  0
  179.9810  180.7120  142.3310 O   0  0  0  0  0  1  0  0  0  0  0  0
  1  5  1  6  0  0  0
  1  2  1  0  0  0  0
  1  4  1  0  0  0  0
  2 14  1  6  0  0  0
  3 24  1  6  0  0  0
  3 18  1  0  0  0  0
  3 23  1  0  0  0  0
  4 19  1  6  0  0  0
  4 22  1  0  0  0  0
  7  6  1  0  0  0  0
  7 11  1  1  0  0  0
  8 10  1  0  0  0  0
  8 17  1  0  0  0  0
  9  3  1  0  0  0  0
  9 21  1  0  0  0  0
 10  5  1  6  0  0  0
 10  7  1  0  0  0  0
 11 25  1  0  0  0  0
 12 14  1  0  0  0  0
 12 16  1  0  0  0  0
 13 17  2  0  0  0  0
 17  6  1  0  0  0  0
 18 24  1  6  0  0  0
 18  1  1  0  0  0  0
 18  2  1  0  0  0  0
 19 21  1  0  0  0  0
 20  9  1  0  0  0  0
 21 26  1  1  0  0  0
 22 25  1  0  0  0  0
 23 15  1  6  0  0  0
 23 16  1  0  0  0  0
 26 27  1  0  0  0  0
 27 29  1  0  0  0  0
 28 27  2  0  0  0  0
 29 30  1  0  0  0  0
M  END
>  <MODEL>
9

>  <REMARK>
 VINA RESULT:      -3.7      3.758      5.124
  Name = 
  3 active torsions:
  status: ('A' for Active; 'I' for Inactive)
    1  A    between atoms: CA_7  and  C_10
    2  A    between atoms: CA_7  and  C_15
    3  A    between atoms: C_10  and  C_25
                            x       y       z     vdW  Elec       q    Type
                         _______ _______ _______ _____ _____    ______ ____

>  <TORSDO>
F 3

$$$$
