=
 OpenBabel10262422293D

 43 48  0  0  1  0  0  0  0  0999 V2000
  191.3820  176.5410  147.1060 C   0  0  0  0  0  0  0  0  0  0  0  0
  189.2090  177.1670  142.6250 C   0  0  0  0  0  0  0  0  0  0  0  0
  190.7310  176.3490  144.7250 C   0  0  2  0  0  3  0  0  0  0  0  0
  190.0750  177.2400  147.4390 C   0  0  0  0  0  2  0  0  0  0  0  0
  192.3020  176.3800  148.0900 F   0  0  0  0  0  0  0  0  0  0  0  0
  189.8090  177.5490  144.9720 C   0  0  2  0  0  3  0  0  0  0  0  0
  191.7140  176.2020  145.8470 C   0  0  0  0  0  3  0  0  0  0  0  0
  189.0710  177.2910  146.2770 C   0  0  0  0  0  2  0  0  0  0  0  0
  187.7130  178.4520  143.7510 N   0  0  0  0  0  2  0  0  0  0  0  0
  188.8940  177.6780  143.7950 C   0  0  0  0  0  0  0  0  0  0  0  0
  190.3870  176.2350  142.4740 C   0  0  0  0  0  2  0  0  0  0  0  0
  188.1620  177.4640  141.6140 C   0  0  1  0  0  3  0  0  0  0  0  0
  187.1840  178.3670  142.3910 C   0  0  1  0  0  3  0  0  0  0  0  0
  191.3680  176.4730  143.4720 O   0  0  0  0  0  0  0  0  0  0  0  0
  188.7680  178.2330  140.4530 C   0  0  0  0  0  2  0  0  0  0  0  0
  187.7760  178.5510  139.5230 O   0  0  0  0  0  0  0  0  0  0  0  0
  187.2330  177.6400  135.9920 C   0  0  0  0  0  2  0  0  0  0  0  0
  190.1810  176.8010  137.2990 C   0  0  0  0  0  2  0  0  0  0  0  0
  189.6980  177.0040  135.8680 C   0  0  0  0  0  2  0  0  0  0  0  0
  187.5540  178.5880  137.1510 C   0  0  0  0  0  2  0  0  0  0  0  0
  188.1470  177.8730  138.3610 C   0  0  0  0  0  3  0  0  0  0  0  0
  188.2590  176.5300  135.7400 C   0  0  0  0  0  2  0  0  0  0  0  0
  189.6680  177.8830  138.2420 C   0  0  0  0  0  2  0  0  0  0  0  0
  185.9200  177.7750  142.4160 O   0  0  0  0  0  0  0  0  0  0  0  0
  185.0450  178.7850  142.0150 C   0  0  1  0  0  3  0  0  0  0  0  0
  184.0440  178.2120  141.0270 C   0  0  1  0  0  3  0  0  0  0  0  0
  183.6440  178.4410  142.4710 C   0  0  0  0  0  2  0  0  0  0  0  0
  183.4730  179.3310  140.1600 C   0  0  1  0  0  3  0  0  0  0  0  0
  184.4680  179.8080  139.3040 O   0  0  0  0  0  1  0  0  0  0  0  0
  181.9130  177.5760  139.6770 O   0  0  0  0  0  1  0  0  0  0  0  0
  182.2430  178.8990  139.3400 C   0  0  1  0  0  0  0  0  0  0  0  0
  181.0570  179.8360  139.6290 C   0  0  0  0  0  2  0  0  0  0  0  0
  179.3190  179.6950  140.9830 C   0  0  0  0  0  1  0  0  0  0  0  0
  180.7080  179.8120  140.9820 O   0  0  0  0  0  0  0  0  0  0  0  0
  182.5960  178.9950  137.9690 O   0  0  0  0  0  0  0  0  0  0  0  0
  182.2400  177.8140  137.2890 C   0  0  1  0  0  3  0  0  0  0  0  0
  181.2580  178.1120  136.3420 O   0  0  0  0  0  1  0  0  0  0  0  0
  183.4700  177.2260  136.5940 C   0  0  0  0  0  3  0  0  0  0  0  0
  182.5820  174.9910  135.8600 C   0  0  0  0  0  2  0  0  0  0  0  0
  183.7020  175.0420  137.8140 C   0  0  0  0  0  2  0  0  0  0  0  0
  183.5900  174.3480  136.5980 O   0  0  0  0  0  0  0  0  0  0  0  0
  184.3310  176.4170  137.5720 C   0  0  0  0  0  2  0  0  0  0  0  0
  183.0740  176.3630  135.3890 C   0  0  0  0  0  2  0  0  0  0  0  0
  1  4  1  0  0  0  0
  1  5  1  0  0  0  0
  2 10  2  0  0  0  0
  3  6  1  0  0  0  0
  3  7  1  1  0  0  0
  6  8  1  1  0  0  0
  7  1  2  0  0  0  0
  8  4  1  0  0  0  0
  9 10  1  0  0  0  0
 10  6  1  0  0  0  0
 11  2  1  0  0  0  0
 11 14  1  0  0  0  0
 12 15  1  6  0  0  0
 12 13  1  0  0  0  0
 12  2  1  0  0  0  0
 13 24  1  1  0  0  0
 13  9  1  0  0  0  0
 14  3  1  0  0  0  0
 16 15  1  0  0  0  0
 17 20  1  0  0  0  0
 18 23  1  0  0  0  0
 19 18  1  0  0  0  0
 20 21  1  0  0  0  0
 21 16  1  0  0  0  0
 22 19  1  0  0  0  0
 22 17  1  0  0  0  0
 23 21  1  0  0  0  0
 25 24  1  1  0  0  0
 25 27  1  0  0  0  0
 26 28  1  6  0  0  0
 26 25  1  0  0  0  0
 26 27  1  0  0  0  0
 28 29  1  6  0  0  0
 31 32  1  0  0  0  0
 31 30  1  1  0  0  0
 31 28  1  0  0  0  0
 32 34  1  0  0  0  0
 34 33  1  0  0  0  0
 35 31  1  0  0  0  0
 36 37  1  6  0  0  0
 36 35  1  0  0  0  0
 38 36  1  0  0  0  0
 38 42  1  0  0  0  0
 39 41  1  0  0  0  0
 41 40  1  0  0  0  0
 42 40  1  0  0  0  0
 43 39  1  0  0  0  0
 43 38  1  0  0  0  0
M  END
>  <MODEL>
1

>  <REMARK>
 VINA RESULT:      -7.7      0.000      0.000
  Name = 
  12 active torsions:
  status: ('A' for Active; 'I' for Inactive)
    1  A    between atoms: C_1  and  O_28
    2  A    between atoms: C_1  and  C_34
    3  A    between atoms: C_2  and  O_13
    4  A    between atoms: C_4  and  C_12
    5  A    between atoms: C_4  and  C_15
    6  A    between atoms: C_4  and  O_22
    7  A    between atoms: C_6  and  C_12
    8  A    between atoms: C_11  and  C_14
    9  A    between atoms: O_13  and  C_38
   10  A    between atoms: C_14  and  O_22
   11  A    between atoms: C_15  and  O_42
   12  A    between atoms: O_28  and  C_35
                            x       y       z     vdW  Elec       q    Type
                         _______ _______ _______ _____ _____    ______ ____

>  <TORSDO>
F 12

$$$$
=
 OpenBabel10262422293D

 43 48  0  0  1  0  0  0  0  0999 V2000
  182.1950  179.0810  141.6300 C   0  0  0  0  0  0  0  0  0  0  0  0
  187.0430  177.9710  142.3070 C   0  0  0  0  0  0  0  0  0  0  0  0
  184.3460  178.2470  142.5270 C   0  0  2  0  0  3  0  0  0  0  0  0
  182.7810  179.1830  140.2320 C   0  0  0  0  0  2  0  0  0  0  0  0
  180.9190  179.4970  141.8310 F   0  0  0  0  0  0  0  0  0  0  0  0
  185.0130  178.9470  141.3360 C   0  0  2  0  0  3  0  0  0  0  0  0
  182.9350  178.7250  142.6940 C   0  0  0  0  0  3  0  0  0  0  0  0
  184.1990  178.6050  140.0970 C   0  0  0  0  0  2  0  0  0  0  0  0
  187.2920  178.6370  140.1500 N   0  0  0  0  0  2  0  0  0  0  0  0
  186.4300  178.4730  141.2580 C   0  0  0  0  0  0  0  0  0  0  0  0
  186.2800  177.6360  143.5670 C   0  0  0  0  0  2  0  0  0  0  0  0
  188.4490  177.6160  141.9850 C   0  0  1  0  0  3  0  0  0  0  0  0
  188.6010  178.1140  140.5340 C   0  0  1  0  0  3  0  0  0  0  0  0
  185.1140  178.4350  143.6950 O   0  0  0  0  0  0  0  0  0  0  0  0
  189.3960  178.3750  142.8970 C   0  0  0  0  0  2  0  0  0  0  0  0
  190.5020  177.5800  143.2040 O   0  0  0  0  0  0  0  0  0  0  0  0
  191.7900  176.3320  146.4250 C   0  0  0  0  0  2  0  0  0  0  0  0
  188.7040  177.5900  146.4540 C   0  0  0  0  0  2  0  0  0  0  0  0
  189.7460  177.3670  147.5430 C   0  0  0  0  0  2  0  0  0  0  0  0
  191.6480  177.3370  145.2780 C   0  0  0  0  0  2  0  0  0  0  0  0
  190.3200  177.2180  144.5400 C   0  0  0  0  0  3  0  0  0  0  0  0
  190.5240  176.0920  147.2560 C   0  0  0  0  0  2  0  0  0  0  0  0
  189.3130  178.1670  145.1800 C   0  0  0  0  0  2  0  0  0  0  0  0
  188.9400  177.0420  139.7060 O   0  0  0  0  0  0  0  0  0  0  0  0
  190.0390  177.4890  138.9730 C   0  0  1  0  0  3  0  0  0  0  0  0
  190.8190  176.2910  138.4640 C   0  0  1  0  0  3  0  0  0  0  0  0
  189.8920  177.0480  137.5330 C   0  0  0  0  0  2  0  0  0  0  0  0
  192.2630  176.6950  138.1790 C   0  0  1  0  0  3  0  0  0  0  0  0
  192.8930  177.0400  139.3770 O   0  0  0  0  0  1  0  0  0  0  0  0
  192.4960  174.3480  137.7470 O   0  0  0  0  0  1  0  0  0  0  0  0
  193.0730  175.5960  137.4630 C   0  0  1  0  0  0  0  0  0  0  0  0
  193.0800  175.8480  135.9450 C   0  0  0  0  0  2  0  0  0  0  0  0
  191.3710  175.3010  134.6610 C   0  0  0  0  0  1  0  0  0  0  0  0
  192.5200  174.7750  135.2480 O   0  0  0  0  0  0  0  0  0  0  0  0
  194.4000  175.6620  137.9590 O   0  0  0  0  0  0  0  0  0  0  0  0
  195.2230  174.7480  137.2720 C   0  0  1  0  0  3  0  0  0  0  0  0
  196.1310  175.4570  136.4820 O   0  0  0  0  0  1  0  0  0  0  0  0
  195.9800  173.8760  138.2760 C   0  0  0  0  0  3  0  0  0  0  0  0
  197.6130  172.7090  136.7610 C   0  0  0  0  0  2  0  0  0  0  0  0
  195.7040  171.6070  137.2310 C   0  0  0  0  0  2  0  0  0  0  0  0
  197.1000  171.4650  137.1670 O   0  0  0  0  0  0  0  0  0  0  0  0
  195.3270  172.4960  138.4200 C   0  0  0  0  0  2  0  0  0  0  0  0
  197.4580  173.7310  137.8910 C   0  0  0  0  0  2  0  0  0  0  0  0
  1  5  1  0  0  0  0
  1  7  2  0  0  0  0
  2 11  1  0  0  0  0
  3  7  1  1  0  0  0
  3 14  1  0  0  0  0
  4  1  1  0  0  0  0
  6  8  1  6  0  0  0
  6  3  1  0  0  0  0
  8  4  1  0  0  0  0
  9 13  1  0  0  0  0
  9 10  1  0  0  0  0
 10  6  1  0  0  0  0
 10  2  2  0  0  0  0
 11 14  1  0  0  0  0
 12  2  1  0  0  0  0
 12 15  1  1  0  0  0
 13 24  1  6  0  0  0
 13 12  1  0  0  0  0
 15 16  1  0  0  0  0
 16 21  1  0  0  0  0
 17 22  1  0  0  0  0
 18 19  1  0  0  0  0
 20 17  1  0  0  0  0
 21 23  1  0  0  0  0
 21 20  1  0  0  0  0
 22 19  1  0  0  0  0
 23 18  1  0  0  0  0
 25 24  1  1  0  0  0
 26 28  1  6  0  0  0
 26 25  1  0  0  0  0
 27 26  1  0  0  0  0
 27 25  1  0  0  0  0
 28 29  1  1  0  0  0
 31 30  1  1  0  0  0
 31 35  1  0  0  0  0
 31 28  1  0  0  0  0
 32 31  1  0  0  0  0
 33 34  1  0  0  0  0
 34 32  1  0  0  0  0
 36 37  1  1  0  0  0
 36 35  1  0  0  0  0
 36 38  1  0  0  0  0
 38 42  1  0  0  0  0
 39 41  1  0  0  0  0
 39 43  1  0  0  0  0
 40 42  1  0  0  0  0
 41 40  1  0  0  0  0
 43 38  1  0  0  0  0
M  END
>  <MODEL>
2

>  <REMARK>
 VINA RESULT:      -7.3      4.547      9.987
  Name = 
  12 active torsions:
  status: ('A' for Active; 'I' for Inactive)
    1  A    between atoms: C_1  and  O_28
    2  A    between atoms: C_1  and  C_34
    3  A    between atoms: C_2  and  O_13
    4  A    between atoms: C_4  and  C_12
    5  A    between atoms: C_4  and  C_15
    6  A    between atoms: C_4  and  O_22
    7  A    between atoms: C_6  and  C_12
    8  A    between atoms: C_11  and  C_14
    9  A    between atoms: O_13  and  C_38
   10  A    between atoms: C_14  and  O_22
   11  A    between atoms: C_15  and  O_42
   12  A    between atoms: O_28  and  C_35
                            x       y       z     vdW  Elec       q    Type
                         _______ _______ _______ _____ _____    ______ ____

>  <TORSDO>
F 12

$$$$
=
 OpenBabel10262422293D

 43 48  0  0  1  0  0  0  0  0999 V2000
  187.6600  177.8050  148.1580 C   0  0  0  0  0  0  0  0  0  0  0  0
  185.3800  178.8920  143.8200 C   0  0  0  0  0  0  0  0  0  0  0  0
  186.2010  178.7790  146.4110 C   0  0  2  0  0  3  0  0  0  0  0  0
  188.6390  177.3090  147.1080 C   0  0  0  0  0  2  0  0  0  0  0  0
  187.8940  177.5030  149.4600 F   0  0  0  0  0  0  0  0  0  0  0  0
  186.8230  177.7590  145.4490 C   0  0  2  0  0  3  0  0  0  0  0  0
  186.5040  178.4110  147.8320 C   0  0  0  0  0  3  0  0  0  0  0  0
  188.3260  177.7800  145.6790 C   0  0  0  0  0  2  0  0  0  0  0  0
  187.0340  177.6590  142.8710 N   0  0  0  0  0  2  0  0  0  0  0  0
  186.4360  178.1460  144.0550 C   0  0  0  0  0  0  0  0  0  0  0  0
  184.6490  179.5820  144.9470 C   0  0  0  0  0  2  0  0  0  0  0  0
  185.1870  179.0990  142.3620 C   0  0  1  0  0  3  0  0  0  0  0  0
  186.2930  178.2220  141.7440 C   0  0  1  0  0  3  0  0  0  0  0  0
  184.8140  178.8880  146.1740 O   0  0  0  0  0  0  0  0  0  0  0  0
  183.8210  178.5840  141.9440 C   0  0  0  0  0  2  0  0  0  0  0  0
  183.9660  177.4960  141.0810 O   0  0  0  0  0  0  0  0  0  0  0  0
  182.4710  179.7600  138.5840 C   0  0  0  0  0  2  0  0  0  0  0  0
  181.7570  176.5210  138.2600 C   0  0  0  0  0  2  0  0  0  0  0  0
  181.7250  177.6950  137.2880 C   0  0  0  0  0  2  0  0  0  0  0  0
  183.5940  178.9330  139.2180 C   0  0  0  0  0  2  0  0  0  0  0  0
  183.0800  177.7520  140.0330 C   0  0  0  0  0  3  0  0  0  0  0  0
  181.2930  178.9560  138.0220 C   0  0  0  0  0  2  0  0  0  0  0  0
  183.0070  176.5250  139.1310 C   0  0  0  0  0  2  0  0  0  0  0  0
  187.1430  179.0170  140.9740 O   0  0  0  0  0  0  0  0  0  0  0  0
  187.2360  178.3580  139.7470 C   0  0  1  0  0  3  0  0  0  0  0  0
  188.6320  178.5490  139.1840 C   0  0  1  0  0  3  0  0  0  0  0  0
  188.2540  177.2440  139.8550 C   0  0  0  0  0  2  0  0  0  0  0  0
  188.6090  178.3650  137.6690 C   0  0  1  0  0  3  0  0  0  0  0  0
  189.0500  179.5390  137.0520 O   0  0  0  0  0  1  0  0  0  0  0  0
  189.7620  177.3490  135.8280 O   0  0  0  0  0  1  0  0  0  0  0  0
  189.4600  177.1730  137.1880 C   0  0  1  0  0  0  0  0  0  0  0  0
  190.7540  177.0780  138.0150 C   0  0  0  0  0  2  0  0  0  0  0  0
  192.6710  175.9870  137.9270 C   0  0  0  0  0  1  0  0  0  0  0  0
  191.2920  175.7890  137.9710 O   0  0  0  0  0  0  0  0  0  0  0  0
  188.6870  176.0000  137.3830 O   0  0  0  0  0  0  0  0  0  0  0  0
  187.7290  175.8700  136.3590 C   0  0  1  0  0  3  0  0  0  0  0  0
  187.9790  174.6930  135.6480 O   0  0  0  0  0  1  0  0  0  0  0  0
  186.3250  175.8210  136.9660 C   0  0  0  0  0  3  0  0  0  0  0  0
  185.0240  174.7870  135.0790 C   0  0  0  0  0  2  0  0  0  0  0  0
  185.0080  177.0370  135.2060 C   0  0  0  0  0  2  0  0  0  0  0  0
  184.1820  175.9120  135.0430 O   0  0  0  0  0  0  0  0  0  0  0  0
  185.5330  177.0930  136.6430 C   0  0  0  0  0  2  0  0  0  0  0  0
  185.5560  174.5780  136.5000 C   0  0  0  0  0  2  0  0  0  0  0  0
  1  5  1  0  0  0  0
  2 10  2  0  0  0  0
  2 11  1  0  0  0  0
  3  7  1  1  0  0  0
  4  1  1  0  0  0  0
  6  8  1  6  0  0  0
  6  3  1  0  0  0  0
  7  1  2  0  0  0  0
  8  4  1  0  0  0  0
  9 10  1  0  0  0  0
 10  6  1  0  0  0  0
 11 14  1  0  0  0  0
 12 15  1  6  0  0  0
 12  2  1  0  0  0  0
 13 24  1  6  0  0  0
 13 12  1  0  0  0  0
 13  9  1  0  0  0  0
 14  3  1  0  0  0  0
 16 15  1  0  0  0  0
 17 20  1  0  0  0  0
 18 23  1  0  0  0  0
 19 22  1  0  0  0  0
 19 18  1  0  0  0  0
 20 21  1  0  0  0  0
 21 16  1  0  0  0  0
 22 17  1  0  0  0  0
 23 21  1  0  0  0  0
 25 27  1  0  0  0  0
 25 24  1  1  0  0  0
 26 28  1  6  0  0  0
 26 25  1  0  0  0  0
 26 27  1  0  0  0  0
 28 29  1  6  0  0  0
 31 30  1  6  0  0  0
 31 35  1  0  0  0  0
 31 28  1  0  0  0  0
 31 32  1  0  0  0  0
 33 34  1  0  0  0  0
 34 32  1  0  0  0  0
 36 37  1  1  0  0  0
 36 38  1  0  0  0  0
 36 35  1  0  0  0  0
 39 43  1  0  0  0  0
 40 42  1  0  0  0  0
 41 39  1  0  0  0  0
 41 40  1  0  0  0  0
 42 38  1  0  0  0  0
 43 38  1  0  0  0  0
M  END
>  <MODEL>
3

>  <REMARK>
 VINA RESULT:      -7.0      2.398      5.966
  Name = 
  12 active torsions:
  status: ('A' for Active; 'I' for Inactive)
    1  A    between atoms: C_1  and  O_28
    2  A    between atoms: C_1  and  C_34
    3  A    between atoms: C_2  and  O_13
    4  A    between atoms: C_4  and  C_12
    5  A    between atoms: C_4  and  C_15
    6  A    between atoms: C_4  and  O_22
    7  A    between atoms: C_6  and  C_12
    8  A    between atoms: C_11  and  C_14
    9  A    between atoms: O_13  and  C_38
   10  A    between atoms: C_14  and  O_22
   11  A    between atoms: C_15  and  O_42
   12  A    between atoms: O_28  and  C_35
                            x       y       z     vdW  Elec       q    Type
                         _______ _______ _______ _____ _____    ______ ____

>  <TORSDO>
F 12

$$$$
=
 OpenBabel10262422293D

 43 48  0  0  1  0  0  0  0  0999 V2000
  191.8850  175.9870  147.4990 C   0  0  0  0  0  0  0  0  0  0  0  0
  188.2830  177.6760  144.4390 C   0  0  0  0  0  0  0  0  0  0  0  0
  189.9460  177.1860  146.5350 C   0  0  2  0  0  3  0  0  0  0  0  0
  192.4220  175.6750  146.1130 C   0  0  0  0  0  2  0  0  0  0  0  0
  192.5460  175.4950  148.5770 F   0  0  0  0  0  0  0  0  0  0  0  0
  190.1610  176.3370  145.2750 C   0  0  2  0  0  3  0  0  0  0  0  0
  190.7100  176.6130  147.6900 C   0  0  0  0  0  3  0  0  0  0  0  0
  191.6500  176.3520  144.9680 C   0  0  0  0  0  2  0  0  0  0  0  0
  189.4610  176.6340  142.8010 N   0  0  0  0  0  2  0  0  0  0  0  0
  189.3280  176.9230  144.1780 C   0  0  0  0  0  0  0  0  0  0  0  0
  188.0120  178.1720  145.8390 C   0  0  0  0  0  2  0  0  0  0  0  0
  187.6030  178.0980  143.1870 C   0  0  1  0  0  3  0  0  0  0  0  0
  188.3950  177.3470  142.1000 C   0  0  1  0  0  3  0  0  0  0  0  0
  188.5680  177.3030  146.8140 O   0  0  0  0  0  0  0  0  0  0  0  0
  186.1600  177.6250  143.1990 C   0  0  0  0  0  2  0  0  0  0  0  0
  185.5010  178.0790  142.0540 O   0  0  0  0  0  0  0  0  0  0  0  0
  182.9480  178.9960  144.5520 C   0  0  0  0  0  2  0  0  0  0  0  0
  181.8630  178.5030  141.4400 C   0  0  0  0  0  2  0  0  0  0  0  0
  181.2920  179.2610  142.6320 C   0  0  0  0  0  2  0  0  0  0  0  0
  184.0960  179.2600  143.5730 C   0  0  0  0  0  2  0  0  0  0  0  0
  184.1710  178.2350  142.4480 C   0  0  0  0  0  3  0  0  0  0  0  0
  181.6340  178.5260  143.9190 C   0  0  0  0  0  2  0  0  0  0  0  0
  183.3580  178.7450  141.2620 C   0  0  0  0  0  2  0  0  0  0  0  0
  188.9530  178.2660  141.2090 O   0  0  0  0  0  0  0  0  0  0  0  0
  188.3490  177.9880  139.9830 C   0  0  1  0  0  3  0  0  0  0  0  0
  189.4120  177.9570  138.9000 C   0  0  1  0  0  3  0  0  0  0  0  0
  188.8600  176.6620  139.4630 C   0  0  0  0  0  2  0  0  0  0  0  0
  188.7750  178.2300  137.5400 C   0  0  1  0  0  3  0  0  0  0  0  0
  188.9840  179.5660  137.1890 O   0  0  0  0  0  1  0  0  0  0  0  0
  189.3500  178.0320  135.2210 O   0  0  0  0  0  1  0  0  0  0  0  0
  189.3050  177.3100  136.4240 C   0  0  1  0  0  0  0  0  0  0  0  0
  190.7070  176.7890  136.7870 C   0  0  0  0  0  2  0  0  0  0  0  0
  191.4360  174.8730  137.6030 C   0  0  0  0  0  1  0  0  0  0  0  0
  190.8440  175.4350  136.4740 O   0  0  0  0  0  0  0  0  0  0  0  0
  188.4080  176.2150  136.3200 O   0  0  0  0  0  0  0  0  0  0  0  0
  187.0990  176.6780  136.0820 C   0  0  1  0  0  3  0  0  0  0  0  0
  186.7600  176.4210  134.7510 O   0  0  0  0  0  1  0  0  0  0  0  0
  186.1190  175.9630  137.0140 C   0  0  0  0  0  3  0  0  0  0  0  0
  184.2630  175.3970  135.4150 C   0  0  0  0  0  2  0  0  0  0  0  0
  184.0270  177.2930  136.6090 C   0  0  0  0  0  2  0  0  0  0  0  0
  183.3580  176.1250  136.2070 O   0  0  0  0  0  0  0  0  0  0  0  0
  185.1150  176.9450  137.6290 C   0  0  0  0  0  2  0  0  0  0  0  0
  185.3830  174.8280  136.2900 C   0  0  0  0  0  2  0  0  0  0  0  0
  1  7  2  0  0  0  0
  1  5  1  0  0  0  0
  2 11  1  0  0  0  0
  3 14  1  0  0  0  0
  3  7  1  1  0  0  0
  4  1  1  0  0  0  0
  6  8  1  6  0  0  0
  6  3  1  0  0  0  0
  8  4  1  0  0  0  0
  9 10  1  0  0  0  0
 10  2  2  0  0  0  0
 10  6  1  0  0  0  0
 11 14  1  0  0  0  0
 12 15  1  1  0  0  0
 12  2  1  0  0  0  0
 13 24  1  6  0  0  0
 13  9  1  0  0  0  0
 13 12  1  0  0  0  0
 16 21  1  0  0  0  0
 16 15  1  0  0  0  0
 18 19  1  0  0  0  0
 19 22  1  0  0  0  0
 20 17  1  0  0  0  0
 21 20  1  0  0  0  0
 22 17  1  0  0  0  0
 23 18  1  0  0  0  0
 23 21  1  0  0  0  0
 25 24  1  1  0  0  0
 26 28  1  6  0  0  0
 26 27  1  0  0  0  0
 26 25  1  0  0  0  0
 27 25  1  0  0  0  0
 28 29  1  6  0  0  0
 31 30  1  6  0  0  0
 31 32  1  0  0  0  0
 31 28  1  0  0  0  0
 34 32  1  0  0  0  0
 34 33  1  0  0  0  0
 35 31  1  0  0  0  0
 36 37  1  6  0  0  0
 36 35  1  0  0  0  0
 36 38  1  0  0  0  0
 38 42  1  0  0  0  0
 39 41  1  0  0  0  0
 39 43  1  0  0  0  0
 40 42  1  0  0  0  0
 41 40  1  0  0  0  0
 43 38  1  0  0  0  0
M  END
>  <MODEL>
4

>  <REMARK>
 VINA RESULT:      -6.9      2.100      5.985
  Name = 
  12 active torsions:
  status: ('A' for Active; 'I' for Inactive)
    1  A    between atoms: C_1  and  O_28
    2  A    between atoms: C_1  and  C_34
    3  A    between atoms: C_2  and  O_13
    4  A    between atoms: C_4  and  C_12
    5  A    between atoms: C_4  and  C_15
    6  A    between atoms: C_4  and  O_22
    7  A    between atoms: C_6  and  C_12
    8  A    between atoms: C_11  and  C_14
    9  A    between atoms: O_13  and  C_38
   10  A    between atoms: C_14  and  O_22
   11  A    between atoms: C_15  and  O_42
   12  A    between atoms: O_28  and  C_35
                            x       y       z     vdW  Elec       q    Type
                         _______ _______ _______ _____ _____    ______ ____

>  <TORSDO>
F 12

$$$$
=
 OpenBabel10262422293D

 43 48  0  0  1  0  0  0  0  0999 V2000
  187.6030  178.0090  147.8920 C   0  0  0  0  0  0  0  0  0  0  0  0
  185.0330  178.8970  143.6730 C   0  0  0  0  0  0  0  0  0  0  0  0
  186.0280  178.9020  146.2040 C   0  0  2  0  0  3  0  0  0  0  0  0
  188.5090  177.4620  146.8020 C   0  0  0  0  0  2  0  0  0  0  0  0
  187.9260  177.7670  149.1870 F   0  0  0  0  0  0  0  0  0  0  0  0
  186.5850  177.8380  145.2500 C   0  0  2  0  0  3  0  0  0  0  0  0
  186.4270  178.6010  147.6170 C   0  0  0  0  0  3  0  0  0  0  0  0
  188.1000  177.8670  145.3760 C   0  0  0  0  0  2  0  0  0  0  0  0
  186.6200  177.6180  142.6720 N   0  0  0  0  0  2  0  0  0  0  0  0
  186.1040  178.1600  143.8700 C   0  0  0  0  0  0  0  0  0  0  0  0
  184.3790  179.6390  144.8140 C   0  0  0  0  0  2  0  0  0  0  0  0
  184.7400  179.0360  142.2230 C   0  0  1  0  0  3  0  0  0  0  0  0
  185.8030  178.1290  141.5730 C   0  0  1  0  0  3  0  0  0  0  0  0
  184.6280  179.0030  146.0570 O   0  0  0  0  0  0  0  0  0  0  0  0
  183.3500  178.5040  141.9230 C   0  0  0  0  0  2  0  0  0  0  0  0
  183.4000  177.6230  140.8410 O   0  0  0  0  0  0  0  0  0  0  0  0
  179.7840  178.0620  140.2650 C   0  0  0  0  0  2  0  0  0  0  0  0
  181.8180  179.3850  137.9800 C   0  0  0  0  0  2  0  0  0  0  0  0
  180.3700  179.6620  138.3690 C   0  0  0  0  0  2  0  0  0  0  0  0
  181.1370  178.3670  140.9150 C   0  0  0  0  0  2  0  0  0  0  0  0
  182.3230  177.9910  140.0330 C   0  0  0  0  0  3  0  0  0  0  0  0
  179.6880  178.3620  138.7650 C   0  0  0  0  0  2  0  0  0  0  0  0
  182.7190  179.2030  139.1970 C   0  0  0  0  0  2  0  0  0  0  0  0
  186.5990  178.8860  140.7100 O   0  0  0  0  0  0  0  0  0  0  0  0
  187.7100  178.0830  140.4520 C   0  0  1  0  0  3  0  0  0  0  0  0
  187.9410  178.0210  138.9530 C   0  0  1  0  0  3  0  0  0  0  0  0
  188.7970  178.9250  139.8190 C   0  0  0  0  0  2  0  0  0  0  0  0
  188.7290  176.7620  138.6020 C   0  0  1  0  0  3  0  0  0  0  0  0
  187.8860  175.8500  137.9630 O   0  0  0  0  0  1  0  0  0  0  0  0
  189.8050  178.2940  137.1030 O   0  0  0  0  0  1  0  0  0  0  0  0
  189.9600  177.0410  137.7170 C   0  0  1  0  0  0  0  0  0  0  0  0
  191.2410  177.0190  138.5700 C   0  0  0  0  0  2  0  0  0  0  0  0
  192.0590  177.4990  140.5630 C   0  0  0  0  0  1  0  0  0  0  0  0
  190.9440  176.9500  139.9330 O   0  0  0  0  0  0  0  0  0  0  0  0
  190.0230  176.0090  136.7460 O   0  0  0  0  0  0  0  0  0  0  0  0
  191.0750  175.1210  137.0450 C   0  0  1  0  0  3  0  0  0  0  0  0
  190.5430  173.9500  137.5900 O   0  0  0  0  0  1  0  0  0  0  0  0
  191.8520  174.7920  135.7690 C   0  0  0  0  0  3  0  0  0  0  0  0
  194.0020  173.9120  136.7320 C   0  0  0  0  0  2  0  0  0  0  0  0
  193.9680  176.0910  136.1580 C   0  0  0  0  0  2  0  0  0  0  0  0
  194.7180  174.9080  136.0450 O   0  0  0  0  0  0  0  0  0  0  0  0
  192.6990  175.9840  135.3070 C   0  0  0  0  0  2  0  0  0  0  0  0
  192.7340  173.5500  135.9540 C   0  0  0  0  0  2  0  0  0  0  0  0
  1  5  1  0  0  0  0
  2 10  2  0  0  0  0
  2 11  1  0  0  0  0
  3  7  1  1  0  0  0
  4  1  1  0  0  0  0
  6  8  1  6  0  0  0
  6  3  1  0  0  0  0
  7  1  2  0  0  0  0
  8  4  1  0  0  0  0
  9 10  1  0  0  0  0
 10  6  1  0  0  0  0
 11 14  1  0  0  0  0
 12 15  1  1  0  0  0
 12  2  1  0  0  0  0
 13 24  1  6  0  0  0
 13 12  1  0  0  0  0
 13  9  1  0  0  0  0
 14  3  1  0  0  0  0
 16 15  1  0  0  0  0
 17 20  1  0  0  0  0
 18 19  1  0  0  0  0
 18 23  1  0  0  0  0
 19 22  1  0  0  0  0
 21 16  1  0  0  0  0
 21 20  1  0  0  0  0
 22 17  1  0  0  0  0
 23 21  1  0  0  0  0
 25 24  1  6  0  0  0
 26 28  1  1  0  0  0
 26 27  1  0  0  0  0
 26 25  1  0  0  0  0
 27 25  1  0  0  0  0
 28 29  1  6  0  0  0
 31 30  1  6  0  0  0
 31 32  1  0  0  0  0
 31 28  1  0  0  0  0
 32 34  1  0  0  0  0
 34 33  1  0  0  0  0
 35 36  1  0  0  0  0
 35 31  1  0  0  0  0
 36 37  1  6  0  0  0
 38 43  1  0  0  0  0
 38 36  1  0  0  0  0
 41 40  1  0  0  0  0
 41 39  1  0  0  0  0
 42 38  1  0  0  0  0
 42 40  1  0  0  0  0
 43 39  1  0  0  0  0
M  END
>  <MODEL>
5

>  <REMARK>
 VINA RESULT:      -6.8      2.931      7.403
  Name = 
  12 active torsions:
  status: ('A' for Active; 'I' for Inactive)
    1  A    between atoms: C_1  and  O_28
    2  A    between atoms: C_1  and  C_34
    3  A    between atoms: C_2  and  O_13
    4  A    between atoms: C_4  and  C_12
    5  A    between atoms: C_4  and  C_15
    6  A    between atoms: C_4  and  O_22
    7  A    between atoms: C_6  and  C_12
    8  A    between atoms: C_11  and  C_14
    9  A    between atoms: O_13  and  C_38
   10  A    between atoms: C_14  and  O_22
   11  A    between atoms: C_15  and  O_42
   12  A    between atoms: O_28  and  C_35
                            x       y       z     vdW  Elec       q    Type
                         _______ _______ _______ _____ _____    ______ ____

>  <TORSDO>
F 12

$$$$
=
 OpenBabel10262422293D

 43 48  0  0  1  0  0  0  0  0999 V2000
  187.7420  178.0220  148.0340 C   0  0  0  0  0  0  0  0  0  0  0  0
  185.5750  178.7320  143.5620 C   0  0  0  0  0  0  0  0  0  0  0  0
  186.3230  178.8340  146.1760 C   0  0  2  0  0  3  0  0  0  0  0  0
  188.7560  177.4570  147.0540 C   0  0  0  0  0  2  0  0  0  0  0  0
  187.9430  177.8260  149.3610 F   0  0  0  0  0  0  0  0  0  0  0  0
  186.9840  177.7510  145.3140 C   0  0  2  0  0  3  0  0  0  0  0  0
  186.5900  178.5840  147.6300 C   0  0  0  0  0  3  0  0  0  0  0  0
  188.4800  177.8100  145.5830 C   0  0  0  0  0  2  0  0  0  0  0  0
  187.2690  177.4500  142.7600 N   0  0  0  0  0  2  0  0  0  0  0  0
  186.6320  178.0210  143.8850 C   0  0  0  0  0  0  0  0  0  0  0  0
  184.8040  179.4980  144.6110 C   0  0  0  0  0  2  0  0  0  0  0  0
  185.4200  178.8200  142.0880 C   0  0  1  0  0  3  0  0  0  0  0  0
  186.5540  177.9120  141.5720 C   0  0  1  0  0  3  0  0  0  0  0  0
  184.9420  178.9060  145.8930 O   0  0  0  0  0  0  0  0  0  0  0  0
  184.0730  178.2550  141.6750 C   0  0  0  0  0  2  0  0  0  0  0  0
  183.7080  178.7580  140.4240 O   0  0  0  0  0  0  0  0  0  0  0  0
  181.1500  176.4850  139.0520 C   0  0  0  0  0  2  0  0  0  0  0  0
  180.1080  178.6800  141.3330 C   0  0  0  0  0  2  0  0  0  0  0  0
  179.5490  177.3520  140.8360 C   0  0  0  0  0  2  0  0  0  0  0  0
  182.3290  176.8740  139.9480 C   0  0  0  0  0  2  0  0  0  0  0  0
  182.3790  178.3660  140.2570 C   0  0  0  0  0  3  0  0  0  0  0  0
  179.8280  177.2020  139.3490 C   0  0  0  0  0  2  0  0  0  0  0  0
  181.6160  178.6270  141.5510 C   0  0  0  0  0  2  0  0  0  0  0  0
  187.4170  178.6560  140.7640 O   0  0  0  0  0  0  0  0  0  0  0  0
  188.1750  177.7050  140.0810 C   0  0  1  0  0  3  0  0  0  0  0  0
  187.9580  177.8750  138.5880 C   0  0  1  0  0  3  0  0  0  0  0  0
  189.2180  178.4090  139.2400 C   0  0  0  0  0  2  0  0  0  0  0  0
  188.2750  176.5680  137.8660 C   0  0  1  0  0  3  0  0  0  0  0  0
  187.1050  175.8180  137.7270 O   0  0  0  0  0  1  0  0  0  0  0  0
  188.6470  175.6650  135.6760 O   0  0  0  0  0  1  0  0  0  0  0  0
  188.9260  176.7790  136.4850 C   0  0  1  0  0  0  0  0  0  0  0  0
  188.3810  178.0620  135.8330 C   0  0  0  0  0  2  0  0  0  0  0  0
  186.4080  177.9010  134.8570 C   0  0  0  0  0  1  0  0  0  0  0  0
  187.7740  177.7900  134.6040 O   0  0  0  0  0  0  0  0  0  0  0  0
  190.3220  176.9120  136.6940 O   0  0  0  0  0  0  0  0  0  0  0  0
  190.9850  175.7220  136.3360 C   0  0  1  0  0  3  0  0  0  0  0  0
  192.0420  176.0290  135.4760 O   0  0  0  0  0  1  0  0  0  0  0  0
  191.5230  175.0310  137.5920 C   0  0  0  0  0  3  0  0  0  0  0  0
  193.1810  176.7390  138.4040 C   0  0  0  0  0  2  0  0  0  0  0  0
  193.9920  175.0680  137.1280 C   0  0  0  0  0  2  0  0  0  0  0  0
  194.2070  175.7820  138.3190 O   0  0  0  0  0  0  0  0  0  0  0  0
  192.7560  174.1760  137.2740 C   0  0  0  0  0  2  0  0  0  0  0  0
  191.8460  176.0460  138.6960 C   0  0  0  0  0  2  0  0  0  0  0  0
  1  5  1  0  0  0  0
  2 10  2  0  0  0  0
  2 11  1  0  0  0  0
  3  7  1  1  0  0  0
  4  1  1  0  0  0  0
  6  8  1  6  0  0  0
  6  3  1  0  0  0  0
  7  1  2  0  0  0  0
  8  4  1  0  0  0  0
  9 10  1  0  0  0  0
 10  6  1  0  0  0  0
 11 14  1  0  0  0  0
 12 15  1  1  0  0  0
 12  2  1  0  0  0  0
 13 24  1  6  0  0  0
 13 12  1  0  0  0  0
 13  9  1  0  0  0  0
 14  3  1  0  0  0  0
 16 15  1  0  0  0  0
 17 22  1  0  0  0  0
 17 20  1  0  0  0  0
 18 23  1  0  0  0  0
 19 18  1  0  0  0  0
 20 21  1  0  0  0  0
 21 16  1  0  0  0  0
 21 23  1  0  0  0  0
 22 19  1  0  0  0  0
 25 24  1  1  0  0  0
 26 28  1  6  0  0  0
 26 27  1  0  0  0  0
 26 25  1  0  0  0  0
 27 25  1  0  0  0  0
 28 29  1  6  0  0  0
 31 30  1  6  0  0  0
 31 35  1  0  0  0  0
 31 28  1  0  0  0  0
 32 31  1  0  0  0  0
 34 33  1  0  0  0  0
 34 32  1  0  0  0  0
 36 37  1  6  0  0  0
 36 35  1  0  0  0  0
 36 38  1  0  0  0  0
 38 43  1  0  0  0  0
 39 43  1  0  0  0  0
 40 42  1  0  0  0  0
 40 41  1  0  0  0  0
 41 39  1  0  0  0  0
 42 38  1  0  0  0  0
M  END
>  <MODEL>
6

>  <REMARK>
 VINA RESULT:      -6.8      2.808      7.144
  Name = 
  12 active torsions:
  status: ('A' for Active; 'I' for Inactive)
    1  A    between atoms: C_1  and  O_28
    2  A    between atoms: C_1  and  C_34
    3  A    between atoms: C_2  and  O_13
    4  A    between atoms: C_4  and  C_12
    5  A    between atoms: C_4  and  C_15
    6  A    between atoms: C_4  and  O_22
    7  A    between atoms: C_6  and  C_12
    8  A    between atoms: C_11  and  C_14
    9  A    between atoms: O_13  and  C_38
   10  A    between atoms: C_14  and  O_22
   11  A    between atoms: C_15  and  O_42
   12  A    between atoms: O_28  and  C_35
                            x       y       z     vdW  Elec       q    Type
                         _______ _______ _______ _____ _____    ______ ____

>  <TORSDO>
F 12

$$$$
=
 OpenBabel10262422293D

 43 48  0  0  1  0  0  0  0  0999 V2000
  191.7480  173.0880  135.7570 C   0  0  0  0  0  0  0  0  0  0  0  0
  188.2050  176.3210  137.2350 C   0  0  0  0  0  0  0  0  0  0  0  0
  189.6450  174.1130  136.5660 C   0  0  2  0  0  3  0  0  0  0  0  0
  192.5360  174.3300  136.1370 C   0  0  0  0  0  2  0  0  0  0  0  0
  192.3980  172.0690  135.1410 F   0  0  0  0  0  0  0  0  0  0  0  0
  190.3190  175.4700  136.3290 C   0  0  2  0  0  3  0  0  0  0  0  0
  190.4110  173.0200  135.8830 C   0  0  0  0  0  3  0  0  0  0  0  0
  191.7240  175.3840  136.9060 C   0  0  0  0  0  2  0  0  0  0  0  0
  189.8860  177.8470  137.2560 N   0  0  0  0  0  2  0  0  0  0  0  0
  189.4790  176.5220  136.9820 C   0  0  0  0  0  0  0  0  0  0  0  0
  187.5910  174.9480  137.0940 C   0  0  0  0  0  2  0  0  0  0  0  0
  187.5850  177.5250  137.8450 C   0  0  1  0  0  3  0  0  0  0  0  0
  188.7320  178.5530  137.8100 C   0  0  1  0  0  3  0  0  0  0  0  0
  188.2980  174.1590  136.1500 O   0  0  0  0  0  0  0  0  0  0  0  0
  186.4300  178.0040  136.9830 C   0  0  0  0  0  2  0  0  0  0  0  0
  185.5490  178.7690  137.7500 O   0  0  0  0  0  0  0  0  0  0  0  0
  182.7220  177.8800  139.9450 C   0  0  0  0  0  2  0  0  0  0  0  0
  183.5080  175.6710  137.5770 C   0  0  0  0  0  2  0  0  0  0  0  0
  182.2400  175.9230  138.3840 C   0  0  0  0  0  2  0  0  0  0  0  0
  183.4090  178.6100  138.7870 C   0  0  0  0  0  2  0  0  0  0  0  0
  184.6110  177.8540  138.2330 C   0  0  0  0  0  3  0  0  0  0  0  0
  182.6080  176.3590  139.7940 C   0  0  0  0  0  2  0  0  0  0  0  0
  184.1470  176.9640  137.0840 C   0  0  0  0  0  2  0  0  0  0  0  0
  189.0200  178.9770  139.1090 O   0  0  0  0  0  0  0  0  0  0  0  0
  188.5550  177.9500  139.9310 C   0  0  1  0  0  3  0  0  0  0  0  0
  189.1610  178.1070  141.3140 C   0  0  1  0  0  3  0  0  0  0  0  0
  187.7330  178.5430  141.0540 C   0  0  0  0  0  2  0  0  0  0  0  0
  189.1570  176.7640  142.0380 C   0  0  1  0  0  3  0  0  0  0  0  0
  190.2980  176.0410  141.6820 O   0  0  0  0  0  1  0  0  0  0  0  0
  190.0010  176.0090  144.1510 O   0  0  0  0  0  1  0  0  0  0  0  0
  189.0820  176.8980  143.5710 C   0  0  1  0  0  0  0  0  0  0  0  0
  189.3990  178.3440  143.9920 C   0  0  0  0  0  2  0  0  0  0  0  0
  191.4820  179.0750  143.9500 C   0  0  0  0  0  1  0  0  0  0  0  0
  190.5650  178.4070  144.7600 O   0  0  0  0  0  0  0  0  0  0  0  0
  187.7560  176.5750  143.9580 O   0  0  0  0  0  0  0  0  0  0  0  0
  187.1820  177.6440  144.6730 C   0  0  1  0  0  3  0  0  0  0  0  0
  186.1170  178.1660  143.9350 O   0  0  0  0  0  1  0  0  0  0  0  0
  186.6790  177.1490  146.0300 C   0  0  0  0  0  3  0  0  0  0  0  0
  186.3090  179.3280  147.2280 C   0  0  0  0  0  2  0  0  0  0  0  0
  188.2860  178.3050  147.5780 C   0  0  0  0  0  2  0  0  0  0  0  0
  187.2100  178.9310  148.2310 O   0  0  0  0  0  0  0  0  0  0  0  0
  187.8370  176.9530  147.0170 C   0  0  0  0  0  2  0  0  0  0  0  0
  185.6290  178.0980  146.6200 C   0  0  0  0  0  2  0  0  0  0  0  0
  1  7  2  0  0  0  0
  1  4  1  0  0  0  0
  2 12  1  0  0  0  0
  3  7  1  6  0  0  0
  4  8  1  0  0  0  0
  5  1  1  0  0  0  0
  6  3  1  0  0  0  0
  6  8  1  1  0  0  0
  6 10  1  0  0  0  0
  9 13  1  0  0  0  0
 10  2  2  0  0  0  0
 10  9  1  0  0  0  0
 11  2  1  0  0  0  0
 12 15  1  6  0  0  0
 13 12  1  0  0  0  0
 13 24  1  1  0  0  0
 14  3  1  0  0  0  0
 14 11  1  0  0  0  0
 15 16  1  0  0  0  0
 16 21  1  0  0  0  0
 18 19  1  0  0  0  0
 19 22  1  0  0  0  0
 20 17  1  0  0  0  0
 21 20  1  0  0  0  0
 22 17  1  0  0  0  0
 23 18  1  0  0  0  0
 23 21  1  0  0  0  0
 25 24  1  6  0  0  0
 25 27  1  0  0  0  0
 25 26  1  0  0  0  0
 26 28  1  1  0  0  0
 27 26  1  0  0  0  0
 28 29  1  1  0  0  0
 28 31  1  0  0  0  0
 31 35  1  0  0  0  0
 31 32  1  0  0  0  0
 31 30  1  1  0  0  0
 32 34  1  0  0  0  0
 33 34  1  0  0  0  0
 35 36  1  0  0  0  0
 36 37  1  6  0  0  0
 36 38  1  0  0  0  0
 38 43  1  0  0  0  0
 38 42  1  0  0  0  0
 39 41  1  0  0  0  0
 40 41  1  0  0  0  0
 42 40  1  0  0  0  0
 43 39  1  0  0  0  0
M  END
>  <MODEL>
7

>  <REMARK>
 VINA RESULT:      -6.7      3.289      8.502
  Name = 
  12 active torsions:
  status: ('A' for Active; 'I' for Inactive)
    1  A    between atoms: C_1  and  O_28
    2  A    between atoms: C_1  and  C_34
    3  A    between atoms: C_2  and  O_13
    4  A    between atoms: C_4  and  C_12
    5  A    between atoms: C_4  and  C_15
    6  A    between atoms: C_4  and  O_22
    7  A    between atoms: C_6  and  C_12
    8  A    between atoms: C_11  and  C_14
    9  A    between atoms: O_13  and  C_38
   10  A    between atoms: C_14  and  O_22
   11  A    between atoms: C_15  and  O_42
   12  A    between atoms: O_28  and  C_35
                            x       y       z     vdW  Elec       q    Type
                         _______ _______ _______ _____ _____    ______ ____

>  <TORSDO>
F 12

$$$$
=
 OpenBabel10262422293D

 43 48  0  0  1  0  0  0  0  0999 V2000
  182.3470  178.9410  143.5000 C   0  0  0  0  0  0  0  0  0  0  0  0
  187.2680  177.9720  143.7090 C   0  0  0  0  0  0  0  0  0  0  0  0
  184.5980  178.1790  144.1910 C   0  0  2  0  0  3  0  0  0  0  0  0
  182.7900  179.0360  142.0500 C   0  0  0  0  0  2  0  0  0  0  0  0
  181.0860  179.3270  143.8210 F   0  0  0  0  0  0  0  0  0  0  0  0
  185.1250  178.8770  142.9310 C   0  0  2  0  0  3  0  0  0  0  0  0
  183.1980  178.6230  144.4910 C   0  0  0  0  0  3  0  0  0  0  0  0
  184.2040  178.4930  141.7830 C   0  0  0  0  0  2  0  0  0  0  0  0
  187.2840  178.6080  141.5290 N   0  0  0  0  0  2  0  0  0  0  0  0
  186.5410  178.4400  142.7190 C   0  0  0  0  0  0  0  0  0  0  0  0
  186.6420  177.6380  145.0430 C   0  0  0  0  0  2  0  0  0  0  0  0
  188.6440  177.6490  143.2540 C   0  0  1  0  0  3  0  0  0  0  0  0
  188.6390  178.1260  141.7890 C   0  0  1  0  0  3  0  0  0  0  0  0
  185.4730  178.4070  145.2750 O   0  0  0  0  0  0  0  0  0  0  0  0
  189.6550  178.4480  144.0580 C   0  0  0  0  0  2  0  0  0  0  0  0
  190.9350  177.9260  143.8670 O   0  0  0  0  0  0  0  0  0  0  0  0
  190.4710  177.5560  147.5060 C   0  0  0  0  0  2  0  0  0  0  0  0
  192.4540  175.3200  146.0330 C   0  0  0  0  0  2  0  0  0  0  0  0
  191.6750  175.3160  147.3430 C   0  0  0  0  0  2  0  0  0  0  0  0
  190.0740  177.4290  146.0320 C   0  0  0  0  0  2  0  0  0  0  0  0
  191.2740  177.3540  145.0940 C   0  0  0  0  0  3  0  0  0  0  0  0
  191.6740  176.7130  147.9430 C   0  0  0  0  0  2  0  0  0  0  0  0
  191.6390  175.8890  144.8770 C   0  0  0  0  0  2  0  0  0  0  0  0
  188.9240  177.0500  140.9460 O   0  0  0  0  0  0  0  0  0  0  0  0
  189.8660  177.5430  140.0420 C   0  0  1  0  0  3  0  0  0  0  0  0
  189.9750  176.5880  138.8680 C   0  0  1  0  0  3  0  0  0  0  0  0
  189.1780  177.8710  138.7350 C   0  0  0  0  0  2  0  0  0  0  0  0
  191.3290  176.7600  138.1850 C   0  0  1  0  0  3  0  0  0  0  0  0
  192.3430  176.7060  139.1440 O   0  0  0  0  0  1  0  0  0  0  0  0
  191.0650  176.1770  135.8740 O   0  0  0  0  0  1  0  0  0  0  0  0
  191.5950  175.7100  137.0870 C   0  0  1  0  0  0  0  0  0  0  0  0
  193.1070  175.4600  136.9490 C   0  0  0  0  0  2  0  0  0  0  0  0
  194.5790  174.1840  137.9870 C   0  0  0  0  0  1  0  0  0  0  0  0
  193.4260  174.1240  137.2060 O   0  0  0  0  0  0  0  0  0  0  0  0
  190.9530  174.5110  137.4880 O   0  0  0  0  0  0  0  0  0  0  0  0
  190.1910  173.9860  136.4260 C   0  0  1  0  0  3  0  0  0  0  0  0
  190.8330  172.8530  135.9210 O   0  0  0  0  0  1  0  0  0  0  0  0
  188.7940  173.6110  136.9250 C   0  0  0  0  0  3  0  0  0  0  0  0
  187.7550  172.7230  134.8150 C   0  0  0  0  0  2  0  0  0  0  0  0
  187.3570  174.8860  135.3050 C   0  0  0  0  0  2  0  0  0  0  0  0
  186.7380  173.6890  134.9090 O   0  0  0  0  0  0  0  0  0  0  0  0
  187.8120  174.7780  136.7630 C   0  0  0  0  0  2  0  0  0  0  0  0
  188.2610  172.3610  136.2140 C   0  0  0  0  0  2  0  0  0  0  0  0
  1  5  1  0  0  0  0
  1  7  2  0  0  0  0
  2 11  1  0  0  0  0
  3  7  1  1  0  0  0
  3 14  1  0  0  0  0
  4  1  1  0  0  0  0
  6  8  1  6  0  0  0
  6  3  1  0  0  0  0
  8  4  1  0  0  0  0
  9 13  1  0  0  0  0
  9 10  1  0  0  0  0
 10  6  1  0  0  0  0
 10  2  2  0  0  0  0
 11 14  1  0  0  0  0
 12  2  1  0  0  0  0
 12 15  1  1  0  0  0
 13 24  1  6  0  0  0
 13 12  1  0  0  0  0
 16 15  1  0  0  0  0
 16 21  1  0  0  0  0
 17 22  1  0  0  0  0
 18 19  1  0  0  0  0
 19 22  1  0  0  0  0
 20 17  1  0  0  0  0
 21 20  1  0  0  0  0
 23 21  1  0  0  0  0
 23 18  1  0  0  0  0
 25 24  1  1  0  0  0
 26 28  1  6  0  0  0
 26 25  1  0  0  0  0
 27 26  1  0  0  0  0
 27 25  1  0  0  0  0
 28 29  1  1  0  0  0
 31 30  1  6  0  0  0
 31 35  1  0  0  0  0
 31 28  1  0  0  0  0
 32 31  1  0  0  0  0
 32 34  1  0  0  0  0
 34 33  1  0  0  0  0
 36 37  1  1  0  0  0
 36 38  1  0  0  0  0
 36 35  1  0  0  0  0
 39 41  1  0  0  0  0
 39 43  1  0  0  0  0
 40 42  1  0  0  0  0
 41 40  1  0  0  0  0
 42 38  1  0  0  0  0
 43 38  1  0  0  0  0
M  END
>  <MODEL>
8

>  <REMARK>
 VINA RESULT:      -6.7      3.780      8.304
  Name = 
  12 active torsions:
  status: ('A' for Active; 'I' for Inactive)
    1  A    between atoms: C_1  and  O_28
    2  A    between atoms: C_1  and  C_34
    3  A    between atoms: C_2  and  O_13
    4  A    between atoms: C_4  and  C_12
    5  A    between atoms: C_4  and  C_15
    6  A    between atoms: C_4  and  O_22
    7  A    between atoms: C_6  and  C_12
    8  A    between atoms: C_11  and  C_14
    9  A    between atoms: O_13  and  C_38
   10  A    between atoms: C_14  and  O_22
   11  A    between atoms: C_15  and  O_42
   12  A    between atoms: O_28  and  C_35
                            x       y       z     vdW  Elec       q    Type
                         _______ _______ _______ _____ _____    ______ ____

>  <TORSDO>
F 12

$$$$
=
 OpenBabel10262422293D

 43 48  0  0  1  0  0  0  0  0999 V2000
  187.2010  177.9240  147.2980 C   0  0  0  0  0  0  0  0  0  0  0  0
  184.3010  178.9400  143.3280 C   0  0  0  0  0  0  0  0  0  0  0  0
  185.4370  178.7960  145.7960 C   0  0  2  0  0  3  0  0  0  0  0  0
  188.0970  177.6080  146.1120 C   0  0  0  0  0  2  0  0  0  0  0  0
  187.6250  177.5870  148.5410 F   0  0  0  0  0  0  0  0  0  0  0  0
  186.0540  177.9140  144.7030 C   0  0  2  0  0  3  0  0  0  0  0  0
  185.9510  178.3970  147.1460 C   0  0  0  0  0  3  0  0  0  0  0  0
  187.5610  178.1100  144.7620 C   0  0  0  0  0  2  0  0  0  0  0  0
  185.9620  177.9740  142.1180 N   0  0  0  0  0  2  0  0  0  0  0  0
  185.4590  178.3200  143.3920 C   0  0  0  0  0  0  0  0  0  0  0  0
  183.6350  179.4740  144.5740 C   0  0  0  0  0  2  0  0  0  0  0  0
  183.9090  179.1960  141.9190 C   0  0  1  0  0  3  0  0  0  0  0  0
  185.0280  178.4970  141.1220 C   0  0  1  0  0  3  0  0  0  0  0  0
  184.0280  178.7440  145.7260 O   0  0  0  0  0  0  0  0  0  0  0  0
  182.5730  178.5360  141.6260 C   0  0  0  0  0  2  0  0  0  0  0  0
  182.2040  178.7760  140.3010 O   0  0  0  0  0  0  0  0  0  0  0  0
  181.3220  175.4520  138.9710 C   0  0  0  0  0  2  0  0  0  0  0  0
  178.9350  177.0500  140.6610 C   0  0  0  0  0  2  0  0  0  0  0  0
  179.1640  175.5820  140.3210 C   0  0  0  0  0  2  0  0  0  0  0  0
  181.9730  176.4300  139.9530 C   0  0  0  0  0  2  0  0  0  0  0  0
  181.2690  177.7820  140.0060 C   0  0  0  0  0  3  0  0  0  0  0  0
  179.7900  175.4670  138.9400 C   0  0  0  0  0  2  0  0  0  0  0  0
  180.2160  177.7460  141.1080 C   0  0  0  0  0  2  0  0  0  0  0  0
  185.6800  179.4310  140.3140 O   0  0  0  0  0  0  0  0  0  0  0  0
  185.3890  179.0370  139.0070 C   0  0  1  0  0  3  0  0  0  0  0  0
  186.4610  178.0760  138.5270 C   0  0  1  0  0  3  0  0  0  0  0  0
  185.1140  177.5500  138.9830 C   0  0  0  0  0  2  0  0  0  0  0  0
  186.5130  178.0780  137.0020 C   0  0  1  0  0  3  0  0  0  0  0  0
  187.0950  179.2680  136.5590 O   0  0  0  0  0  1  0  0  0  0  0  0
  186.7910  176.6070  135.1290 O   0  0  0  0  0  1  0  0  0  0  0  0
  187.2790  176.8750  136.4170 C   0  0  1  0  0  0  0  0  0  0  0  0
  188.7860  177.1820  136.3650 C   0  0  0  0  0  2  0  0  0  0  0  0
  190.1790  177.3530  138.0690 C   0  0  0  0  0  1  0  0  0  0  0  0
  189.4940  176.4170  137.2950 O   0  0  0  0  0  0  0  0  0  0  0  0
  187.0520  175.7730  137.2810 O   0  0  0  0  0  0  0  0  0  0  0  0
  186.3900  174.7400  136.5890 C   0  0  1  0  0  3  0  0  0  0  0  0
  187.2010  173.6030  136.5810 O   0  0  0  0  0  1  0  0  0  0  0  0
  185.0610  174.4240  137.2790 C   0  0  0  0  0  3  0  0  0  0  0  0
  184.6510  172.0770  136.4740 C   0  0  0  0  0  2  0  0  0  0  0  0
  183.6610  173.7330  135.3100 C   0  0  0  0  0  2  0  0  0  0  0  0
  183.4290  172.4840  135.9100 O   0  0  0  0  0  0  0  0  0  0  0  0
  183.8680  174.7980  136.3910 C   0  0  0  0  0  2  0  0  0  0  0  0
  184.9800  172.9480  137.6900 C   0  0  0  0  0  2  0  0  0  0  0  0
  1  5  1  0  0  0  0
  2 10  2  0  0  0  0
  2 11  1  0  0  0  0
  3  7  1  1  0  0  0
  4  1  1  0  0  0  0
  6  8  1  6  0  0  0
  6  3  1  0  0  0  0
  7  1  2  0  0  0  0
  8  4  1  0  0  0  0
  9 10  1  0  0  0  0
 10  6  1  0  0  0  0
 11 14  1  0  0  0  0
 12 15  1  6  0  0  0
 12  2  1  0  0  0  0
 13 24  1  6  0  0  0
 13 12  1  0  0  0  0
 13  9  1  0  0  0  0
 14  3  1  0  0  0  0
 16 15  1  0  0  0  0
 17 20  1  0  0  0  0
 18 23  1  0  0  0  0
 19 18  1  0  0  0  0
 20 21  1  0  0  0  0
 21 16  1  0  0  0  0
 21 23  1  0  0  0  0
 22 17  1  0  0  0  0
 22 19  1  0  0  0  0
 25 24  1  1  0  0  0
 26 28  1  6  0  0  0
 26 27  1  0  0  0  0
 26 25  1  0  0  0  0
 27 25  1  0  0  0  0
 28 29  1  1  0  0  0
 31 30  1  6  0  0  0
 31 28  1  0  0  0  0
 31 35  1  0  0  0  0
 32 31  1  0  0  0  0
 32 34  1  0  0  0  0
 34 33  1  0  0  0  0
 36 37  1  1  0  0  0
 36 38  1  0  0  0  0
 36 35  1  0  0  0  0
 38 43  1  0  0  0  0
 39 43  1  0  0  0  0
 40 41  1  0  0  0  0
 40 42  1  0  0  0  0
 41 39  1  0  0  0  0
 42 38  1  0  0  0  0
M  END
>  <MODEL>
9

>  <REMARK>
 VINA RESULT:      -6.6      2.565      6.204
  Name = 
  12 active torsions:
  status: ('A' for Active; 'I' for Inactive)
    1  A    between atoms: C_1  and  O_28
    2  A    between atoms: C_1  and  C_34
    3  A    between atoms: C_2  and  O_13
    4  A    between atoms: C_4  and  C_12
    5  A    between atoms: C_4  and  C_15
    6  A    between atoms: C_4  and  O_22
    7  A    between atoms: C_6  and  C_12
    8  A    between atoms: C_11  and  C_14
    9  A    between atoms: O_13  and  C_38
   10  A    between atoms: C_14  and  O_22
   11  A    between atoms: C_15  and  O_42
   12  A    between atoms: O_28  and  C_35
                            x       y       z     vdW  Elec       q    Type
                         _______ _______ _______ _____ _____    ______ ____

>  <TORSDO>
F 12

$$$$
