=
 OpenBabel10252415073D

 34 40  0  0  1  0  0  0  0  0999 V2000
  186.8220  177.1340  144.9680 C   0  0  2  0  0  3  0  0  0  0  0  0
  185.0890  178.9390  145.4530 C   0  0  0  0  0  2  0  0  0  0  0  0
  185.8190  178.5990  143.0870 C   0  0  1  0  0  3  0  0  0  0  0  0
  184.4620  178.9340  140.8710 C   0  0  2  0  0  3  0  0  0  0  0  0
  186.7480  178.0690  147.1990 N   0  0  2  0  0  0  0  0  0  0  0  0
  186.4400  179.4900  147.4030 C   0  0  0  0  0  2  0  0  0  0  0  0
  183.5770  179.4010  143.0050 O   0  0  0  0  0  0  0  0  0  0  0  0
  185.5770  177.8880  144.4380 C   0  0  1  0  0  3  0  0  0  0  0  0
  187.5730  177.9610  145.9960 C   0  0  0  0  0  2  0  0  0  0  0  0
  186.7100  177.7490  142.1720 C   0  0  1  0  0  3  0  0  0  0  0  0
  187.7470  176.5650  143.8880 C   0  0  0  0  0  2  0  0  0  0  0  0
  185.3820  178.6030  146.9250 C   0  0  1  0  0  3  0  0  0  0  0  0
  185.7900  178.9100  140.2490 N   0  0  0  0  0  0  0  0  0  0  0  0
  186.8450  178.3820  140.8010 C   0  0  0  0  0  0  0  0  0  0  0  0
  184.5390  178.9890  142.3760 C   0  0  0  0  0  0  0  0  0  0  0  0
  187.9880  177.5420  142.8350 N   0  0  0  0  0  2  0  0  0  0  0  0
  190.1360  177.7640  139.3000 C   0  0  1  0  0  3  0  0  0  0  0  0
  189.2520  177.8760  136.8710 C   0  0  0  0  0  1  0  0  0  0  0  0
  188.0770  178.3050  139.9910 C   0  0  0  0  0  0  0  0  0  0  0  0
  189.4560  178.6040  138.1930 C   0  0  1  0  0  3  0  0  0  0  0  0
  189.1250  177.6410  140.3390 N   0  0  0  0  0  0  0  0  0  0  0  0
  188.1940  178.9120  138.7560 O   0  0  0  0  0  0  0  0  0  0  0  0
  190.6130  176.3820  138.8730 C   0  0  0  0  0  1  0  0  0  0  0  0
  183.6070  177.7660  140.3830 C   0  0  0  0  0  2  0  0  0  0  0  0
  182.3500  178.2340  139.8200 N   0  0  0  0  0  2  0  0  0  0  0  0
  180.1290  177.2450  139.9670 C   0  0  0  0  0  2  0  0  0  0  0  0
  179.2320  177.8190  142.6600 O   0  0  0  0  0  1  0  0  0  0  0  0
  180.0300  178.6470  140.5190 C   0  0  1  0  0  0  0  0  0  0  0  0
  179.0530  178.8090  141.6890 C   0  0  2  0  0  3  0  0  0  0  0  0
  181.3010  177.8360  140.7450 C   0  0  2  0  0  3  0  0  0  0  0  0
  179.0820  181.3490  140.8780 C   0  0  0  0  0  2  0  0  0  0  0  0
  180.2040  181.0360  140.0010 N   0  0  0  0  0  2  0  0  0  0  0  0
  179.9870  179.7130  139.4250 C   0  0  0  0  0  2  0  0  0  0  0  0
  179.2620  180.4520  142.4560 S   0  0  0  0  0  0  0  0  0  0  0  0
  1 11  1  6  0  0  0
  1  9  1  0  0  0  0
  3 15  1  6  0  0  0
  3  8  1  0  0  0  0
  4 24  1  1  0  0  0
  4 15  1  0  0  0  0
  5  9  1  6  0  0  0
  5  6  1  0  0  0  0
  8  1  1  0  0  0  0
  8  2  1  1  0  0  0
 10 14  1  6  0  0  0
 10 16  1  0  0  0  0
 10  3  1  0  0  0  0
 12  2  1  6  0  0  0
 12  5  1  0  0  0  0
 12  6  1  0  0  0  0
 13 14  2  0  0  0  0
 13  4  1  0  0  0  0
 15  7  2  0  0  0  0
 16 11  1  0  0  0  0
 17 23  1  6  0  0  0
 17 21  1  0  0  0  0
 19 21  2  0  0  0  0
 19 14  1  0  0  0  0
 20 18  1  6  0  0  0
 20 22  1  0  0  0  0
 20 17  1  0  0  0  0
 22 19  1  0  0  0  0
 25 24  1  0  0  0  0
 26 28  1  0  0  0  0
 26 30  1  0  0  0  0
 28 33  1  6  0  0  0
 28 30  1  0  0  0  0
 28 29  1  0  0  0  0
 29 34  1  0  0  0  0
 29 27  1  1  0  0  0
 30 25  1  6  0  0  0
 31 34  1  0  0  0  0
 32 31  1  0  0  0  0
 33 32  1  0  0  0  0
M  END
>  <MODEL>
1

>  <REMARK>
 VINA RESULT:      -9.3      0.000      0.000
  Name = 
  4 active torsions:
  status: ('A' for Active; 'I' for Inactive)
    1  A    between atoms: C_5  and  C_18
    2  A    between atoms: C_12  and  C_28
    3  A    between atoms: C_17  and  N_29
    4  A    between atoms: C_18  and  N_29
                            x       y       z     vdW  Elec       q    Type
                         _______ _______ _______ _____ _____    ______ ____

>  <TORSDO>
F 4

$$$$
=
 OpenBabel10252415073D

 34 40  0  0  1  0  0  0  0  0999 V2000
  187.7940  176.6890  145.2520 C   0  0  2  0  0  3  0  0  0  0  0  0
  186.5880  178.5260  146.5440 C   0  0  0  0  0  2  0  0  0  0  0  0
  186.4030  178.5100  144.0520 C   0  0  1  0  0  3  0  0  0  0  0  0
  184.4190  179.3000  142.5340 C   0  0  2  0  0  3  0  0  0  0  0  0
  188.6200  177.2600  147.4550 N   0  0  2  0  0  0  0  0  0  0  0  0
  188.5900  178.6500  147.9260 C   0  0  0  0  0  2  0  0  0  0  0  0
  184.3960  179.4900  144.8830 O   0  0  0  0  0  0  0  0  0  0  0  0
  186.5530  177.6150  145.3030 C   0  0  1  0  0  3  0  0  0  0  0  0
  188.9560  177.2810  146.0310 C   0  0  0  0  0  2  0  0  0  0  0  0
  186.8030  177.7490  142.7820 C   0  0  1  0  0  3  0  0  0  0  0  0
  188.2060  176.2280  143.8510 C   0  0  0  0  0  2  0  0  0  0  0  0
  187.3260  177.9370  147.7590 C   0  0  1  0  0  3  0  0  0  0  0  0
  185.4350  179.2700  141.4770 N   0  0  0  0  0  0  0  0  0  0  0  0
  186.5360  178.5800  141.5420 C   0  0  0  0  0  0  0  0  0  0  0  0
  185.0190  179.1090  143.9040 C   0  0  0  0  0  0  0  0  0  0  0  0
  188.1930  177.3380  142.9080 N   0  0  0  0  0  2  0  0  0  0  0  0
  189.1920  178.4940  139.0100 C   0  0  1  0  0  3  0  0  0  0  0  0
  187.8540  176.9780  137.3950 C   0  0  0  0  0  1  0  0  0  0  0  0
  187.3910  178.5350  140.3390 C   0  0  0  0  0  0  0  0  0  0  0  0
  187.9330  178.3100  138.1290 C   0  0  1  0  0  3  0  0  0  0  0  0
  188.6780  178.5840  140.3680 N   0  0  0  0  0  0  0  0  0  0  0  0
  186.8750  178.3910  139.0650 O   0  0  0  0  0  0  0  0  0  0  0  0
  190.2230  177.3760  138.9190 C   0  0  0  0  0  1  0  0  0  0  0  0
  183.3030  178.2960  142.2510 C   0  0  0  0  0  2  0  0  0  0  0  0
  183.4160  177.7510  140.9070 N   0  0  0  0  0  2  0  0  0  0  0  0
  182.1020  177.0320  138.9860 C   0  0  0  0  0  2  0  0  0  0  0  0
  179.5170  178.2890  139.3360 O   0  0  0  0  0  1  0  0  0  0  0  0
  181.9250  178.5260  139.1140 C   0  0  1  0  0  0  0  0  0  0  0  0
  180.5320  179.0430  138.7390 C   0  0  2  0  0  3  0  0  0  0  0  0
  182.0670  177.6740  140.3700 C   0  0  2  0  0  3  0  0  0  0  0  0
  181.8780  181.3150  138.3720 C   0  0  0  0  0  2  0  0  0  0  0  0
  183.0410  180.7060  139.0070 N   0  0  0  0  0  2  0  0  0  0  0  0
  183.1240  179.3130  138.5830 C   0  0  0  0  0  2  0  0  0  0  0  0
  180.3570  180.7910  139.2330 S   0  0  0  0  0  0  0  0  0  0  0  0
  1 11  1  6  0  0  0
  1  8  1  0  0  0  0
  1  9  1  0  0  0  0
  3 15  1  6  0  0  0
  3  8  1  0  0  0  0
  4 24  1  6  0  0  0
  4 15  1  0  0  0  0
  5  9  1  6  0  0  0
  5 12  1  0  0  0  0
  5  6  1  0  0  0  0
  8  2  1  1  0  0  0
 10 14  1  6  0  0  0
 10 16  1  0  0  0  0
 10  3  1  0  0  0  0
 12  2  1  6  0  0  0
 12  6  1  0  0  0  0
 13 14  2  0  0  0  0
 13  4  1  0  0  0  0
 15  7  2  0  0  0  0
 16 11  1  0  0  0  0
 17 23  1  1  0  0  0
 17 21  1  0  0  0  0
 19 21  2  0  0  0  0
 19 14  1  0  0  0  0
 20 18  1  1  0  0  0
 20 17  1  0  0  0  0
 20 22  1  0  0  0  0
 22 19  1  0  0  0  0
 25 24  1  0  0  0  0
 26 28  1  0  0  0  0
 26 30  1  0  0  0  0
 28 33  1  6  0  0  0
 28 30  1  0  0  0  0
 29 28  1  0  0  0  0
 29 34  1  0  0  0  0
 29 27  1  1  0  0  0
 30 25  1  6  0  0  0
 31 32  1  0  0  0  0
 31 34  1  0  0  0  0
 33 32  1  0  0  0  0
M  END
>  <MODEL>
2

>  <REMARK>
 VINA RESULT:      -8.9      1.745      1.996
  Name = 
  4 active torsions:
  status: ('A' for Active; 'I' for Inactive)
    1  A    between atoms: C_5  and  C_18
    2  A    between atoms: C_12  and  C_28
    3  A    between atoms: C_17  and  N_29
    4  A    between atoms: C_18  and  N_29
                            x       y       z     vdW  Elec       q    Type
                         _______ _______ _______ _____ _____    ______ ____

>  <TORSDO>
F 4

$$$$
=
 OpenBabel10252415073D

 34 40  0  0  1  0  0  0  0  0999 V2000
  187.8040  176.7450  145.3800 C   0  0  2  0  0  3  0  0  0  0  0  0
  186.5930  178.5620  146.6950 C   0  0  0  0  0  2  0  0  0  0  0  0
  186.3560  178.5380  144.2070 C   0  0  1  0  0  3  0  0  0  0  0  0
  184.3270  179.2900  142.7300 C   0  0  2  0  0  3  0  0  0  0  0  0
  188.6660  177.3340  147.5640 N   0  0  2  0  0  0  0  0  0  0  0  0
  188.6220  178.7250  148.0340 C   0  0  0  0  0  2  0  0  0  0  0  0
  184.3510  179.4850  145.0780 O   0  0  0  0  0  0  0  0  0  0  0  0
  186.5480  177.6480  145.4560 C   0  0  1  0  0  3  0  0  0  0  0  0
  188.9710  177.3580  146.1340 C   0  0  0  0  0  2  0  0  0  0  0  0
  186.7430  177.7820  142.9300 C   0  0  1  0  0  3  0  0  0  0  0  0
  188.1940  176.2880  143.9720 C   0  0  0  0  0  2  0  0  0  0  0  0
  187.3670  177.9890  147.8940 C   0  0  1  0  0  3  0  0  0  0  0  0
  185.3210  179.2760  141.6510 N   0  0  0  0  0  0  0  0  0  0  0  0
  186.4360  178.6050  141.6950 C   0  0  0  0  0  0  0  0  0  0  0  0
  184.9590  179.1120  144.0870 C   0  0  0  0  0  0  0  0  0  0  0  0
  188.1420  177.3950  143.0280 N   0  0  0  0  0  2  0  0  0  0  0  0
  189.0380  178.5020  139.1090 C   0  0  1  0  0  3  0  0  0  0  0  0
  187.5970  177.1290  137.4550 C   0  0  0  0  0  1  0  0  0  0  0  0
  187.2650  178.5720  140.4730 C   0  0  0  0  0  0  0  0  0  0  0  0
  187.7560  178.4210  138.2460 C   0  0  1  0  0  3  0  0  0  0  0  0
  188.5530  178.5560  140.4790 N   0  0  0  0  0  0  0  0  0  0  0  0
  186.7200  178.5120  139.2050 O   0  0  0  0  0  0  0  0  0  0  0  0
  190.0100  177.3390  138.9470 C   0  0  0  0  0  1  0  0  0  0  0  0
  183.2230  178.2670  142.4720 C   0  0  0  0  0  2  0  0  0  0  0  0
  181.9950  178.9160  142.0420 N   0  0  0  0  0  2  0  0  0  0  0  0
  180.8370  179.6520  140.0290 C   0  0  0  0  0  2  0  0  0  0  0  0
  181.4330  177.6300  138.0430 O   0  0  0  0  0  1  0  0  0  0  0  0
  180.5120  178.1900  140.2220 C   0  0  1  0  0  0  0  0  0  0  0  0
  180.3740  177.3860  138.9240 C   0  0  2  0  0  3  0  0  0  0  0  0
  181.8920  178.7120  140.6060 C   0  0  2  0  0  3  0  0  0  0  0  0
  178.9400  175.7860  140.5020 C   0  0  0  0  0  2  0  0  0  0  0  0
  179.4060  176.5420  141.6590 N   0  0  0  0  0  2  0  0  0  0  0  0
  179.4550  177.9560  141.3000 C   0  0  0  0  0  2  0  0  0  0  0  0
  180.2970  175.6010  139.2970 S   0  0  0  0  0  0  0  0  0  0  0  0
  1 11  1  6  0  0  0
  1  8  1  0  0  0  0
  1  9  1  0  0  0  0
  3 15  1  6  0  0  0
  3  8  1  0  0  0  0
  4 24  1  6  0  0  0
  4 15  1  0  0  0  0
  5  9  1  6  0  0  0
  5 12  1  0  0  0  0
  5  6  1  0  0  0  0
  8  2  1  1  0  0  0
 10 14  1  6  0  0  0
 10 16  1  0  0  0  0
 10  3  1  0  0  0  0
 12  2  1  6  0  0  0
 12  6  1  0  0  0  0
 13 14  2  0  0  0  0
 13  4  1  0  0  0  0
 15  7  2  0  0  0  0
 16 11  1  0  0  0  0
 17 23  1  1  0  0  0
 17 21  1  0  0  0  0
 19 21  2  0  0  0  0
 19 14  1  0  0  0  0
 20 18  1  1  0  0  0
 20 17  1  0  0  0  0
 20 22  1  0  0  0  0
 22 19  1  0  0  0  0
 25 24  1  0  0  0  0
 26 30  1  0  0  0  0
 28 26  1  6  0  0  0
 28 30  1  0  0  0  0
 28 33  1  0  0  0  0
 29 27  1  6  0  0  0
 29 34  1  0  0  0  0
 29 28  1  0  0  0  0
 30 25  1  1  0  0  0
 31 32  1  0  0  0  0
 33 32  1  0  0  0  0
 34 31  1  0  0  0  0
M  END
>  <MODEL>
3

>  <REMARK>
 VINA RESULT:      -8.8      1.998      2.478
  Name = 
  4 active torsions:
  status: ('A' for Active; 'I' for Inactive)
    1  A    between atoms: C_5  and  C_18
    2  A    between atoms: C_12  and  C_28
    3  A    between atoms: C_17  and  N_29
    4  A    between atoms: C_18  and  N_29
                            x       y       z     vdW  Elec       q    Type
                         _______ _______ _______ _____ _____    ______ ____

>  <TORSDO>
F 4

$$$$
=
 OpenBabel10252415073D

 34 40  0  0  1  0  0  0  0  0999 V2000
  186.8430  177.1700  144.9980 C   0  0  2  0  0  3  0  0  0  0  0  0
  185.0880  178.9490  145.5000 C   0  0  0  0  0  2  0  0  0  0  0  0
  185.7920  178.6120  143.1260 C   0  0  1  0  0  3  0  0  0  0  0  0
  184.4000  178.9180  140.9270 C   0  0  2  0  0  3  0  0  0  0  0  0
  186.7850  178.1110  147.2270 N   0  0  2  0  0  0  0  0  0  0  0  0
  186.4570  179.5280  147.4310 C   0  0  0  0  0  2  0  0  0  0  0  0
  183.5370  179.3790  143.0710 O   0  0  0  0  0  0  0  0  0  0  0  0
  185.5790  177.9020  144.4820 C   0  0  1  0  0  3  0  0  0  0  0  0
  187.5940  178.0130  146.0130 C   0  0  0  0  0  2  0  0  0  0  0  0
  186.6840  177.7730  142.2020 C   0  0  1  0  0  3  0  0  0  0  0  0
  187.7620  176.6120  143.9080 C   0  0  0  0  0  2  0  0  0  0  0  0
  185.4070  178.6230  146.9690 C   0  0  1  0  0  3  0  0  0  0  0  0
  185.7200  178.9120  140.2880 N   0  0  0  0  0  0  0  0  0  0  0  0
  186.7900  178.4040  140.8270 C   0  0  0  0  0  0  0  0  0  0  0  0
  184.4970  178.9800  142.4310 C   0  0  0  0  0  0  0  0  0  0  0  0
  187.9740  177.5880  142.8490 N   0  0  0  0  0  2  0  0  0  0  0  0
  190.0860  177.8680  139.3050 C   0  0  1  0  0  3  0  0  0  0  0  0
  189.1610  177.7980  136.8890 C   0  0  0  0  0  1  0  0  0  0  0  0
  188.0130  178.3420  140.0010 C   0  0  0  0  0  0  0  0  0  0  0  0
  189.3470  178.6090  138.1640 C   0  0  1  0  0  3  0  0  0  0  0  0
  189.0980  177.7530  140.3660 N   0  0  0  0  0  0  0  0  0  0  0  0
  188.0800  178.8840  138.7320 O   0  0  0  0  0  0  0  0  0  0  0  0
  190.6270  176.4900  138.9460 C   0  0  0  0  0  1  0  0  0  0  0  0
  183.5570  177.7350  140.4550 C   0  0  0  0  0  2  0  0  0  0  0  0
  182.5970  178.1460  139.4420 N   0  0  0  0  0  2  0  0  0  0  0  0
  180.2740  178.4200  140.1230 C   0  0  0  0  0  2  0  0  0  0  0  0
  180.0020  181.2380  140.7310 O   0  0  0  0  0  1  0  0  0  0  0  0
  180.5780  179.5100  139.1230 C   0  0  1  0  0  0  0  0  0  0  0  0
  179.8770  180.8450  139.3960 C   0  0  2  0  0  3  0  0  0  0  0  0
  181.6640  179.0520  140.0910 C   0  0  2  0  0  3  0  0  0  0  0  0
  180.3120  181.1830  136.7870 C   0  0  0  0  0  2  0  0  0  0  0  0
  181.1710  180.0050  136.7970 N   0  0  0  0  0  2  0  0  0  0  0  0
  180.5770  179.0060  137.6790 C   0  0  0  0  0  2  0  0  0  0  0  0
  180.5640  182.1460  138.3160 S   0  0  0  0  0  0  0  0  0  0  0  0
  1 11  1  6  0  0  0
  1  9  1  0  0  0  0
  3 15  1  6  0  0  0
  3  8  1  0  0  0  0
  4 24  1  1  0  0  0
  4 15  1  0  0  0  0
  5  9  1  6  0  0  0
  5  6  1  0  0  0  0
  8  1  1  0  0  0  0
  8  2  1  1  0  0  0
 10 14  1  6  0  0  0
 10 16  1  0  0  0  0
 10  3  1  0  0  0  0
 12  2  1  6  0  0  0
 12  5  1  0  0  0  0
 12  6  1  0  0  0  0
 13 14  2  0  0  0  0
 13  4  1  0  0  0  0
 15  7  2  0  0  0  0
 16 11  1  0  0  0  0
 17 23  1  6  0  0  0
 17 21  1  0  0  0  0
 19 21  2  0  0  0  0
 19 14  1  0  0  0  0
 20 18  1  6  0  0  0
 20 22  1  0  0  0  0
 20 17  1  0  0  0  0
 22 19  1  0  0  0  0
 25 24  1  0  0  0  0
 28 33  1  6  0  0  0
 28 29  1  0  0  0  0
 28 30  1  0  0  0  0
 28 26  1  0  0  0  0
 29 27  1  1  0  0  0
 30 25  1  6  0  0  0
 30 26  1  0  0  0  0
 31 32  1  0  0  0  0
 31 34  1  0  0  0  0
 32 33  1  0  0  0  0
 34 29  1  0  0  0  0
M  END
>  <MODEL>
4

>  <REMARK>
 VINA RESULT:      -8.8      1.410      1.619
  Name = 
  4 active torsions:
  status: ('A' for Active; 'I' for Inactive)
    1  A    between atoms: C_5  and  C_18
    2  A    between atoms: C_12  and  C_28
    3  A    between atoms: C_17  and  N_29
    4  A    between atoms: C_18  and  N_29
                            x       y       z     vdW  Elec       q    Type
                         _______ _______ _______ _____ _____    ______ ____

>  <TORSDO>
F 4

$$$$
=
 OpenBabel10252415073D

 34 40  0  0  1  0  0  0  0  0999 V2000
  186.9990  177.0840  145.0800 C   0  0  2  0  0  3  0  0  0  0  0  0
  185.3510  178.9370  145.6660 C   0  0  0  0  0  2  0  0  0  0  0  0
  185.9720  178.6160  143.2670 C   0  0  1  0  0  3  0  0  0  0  0  0
  184.5380  179.0380  141.1150 C   0  0  2  0  0  3  0  0  0  0  0  0
  187.0490  177.9790  147.3280 N   0  0  2  0  0  0  0  0  0  0  0  0
  186.7990  179.4060  147.5690 C   0  0  0  0  0  2  0  0  0  0  0  0
  183.7570  179.4960  143.2910 O   0  0  0  0  0  0  0  0  0  0  0  0
  185.7600  177.8890  144.6140 C   0  0  1  0  0  3  0  0  0  0  0  0
  187.8190  177.8660  146.0900 C   0  0  0  0  0  2  0  0  0  0  0  0
  186.7950  177.7540  142.3020 C   0  0  1  0  0  3  0  0  0  0  0  0
  187.8590  176.5040  143.9530 C   0  0  0  0  0  2  0  0  0  0  0  0
  185.6920  178.5640  147.1190 C   0  0  1  0  0  3  0  0  0  0  0  0
  185.8380  178.9800  140.4390 N   0  0  0  0  0  0  0  0  0  0  0  0
  186.8950  178.4070  140.9380 C   0  0  0  0  0  0  0  0  0  0  0  0
  184.6790  179.0630  142.6160 C   0  0  0  0  0  0  0  0  0  0  0  0
  188.0910  177.4910  142.9080 N   0  0  0  0  0  2  0  0  0  0  0  0
  190.1200  177.7450  139.3150 C   0  0  1  0  0  3  0  0  0  0  0  0
  189.1250  177.7480  136.9260 C   0  0  0  0  0  1  0  0  0  0  0  0
  188.0900  178.3020  140.0760 C   0  0  0  0  0  0  0  0  0  0  0  0
  189.3830  178.5340  138.2050 C   0  0  1  0  0  3  0  0  0  0  0  0
  189.1580  177.6600  140.4030 N   0  0  0  0  0  0  0  0  0  0  0  0
  188.1460  178.8570  138.8120 O   0  0  0  0  0  0  0  0  0  0  0  0
  190.5880  176.3490  138.9250 C   0  0  0  0  0  1  0  0  0  0  0  0
  183.6240  177.9090  140.6430 C   0  0  0  0  0  2  0  0  0  0  0  0
  182.5030  178.4280  139.8740 N   0  0  0  0  0  2  0  0  0  0  0  0
  181.7190  178.8130  137.5990 C   0  0  0  0  0  2  0  0  0  0  0  0
  183.4110  177.1530  135.9350 O   0  0  0  0  0  1  0  0  0  0  0  0
  181.8410  177.3180  137.7830 C   0  0  1  0  0  0  0  0  0  0  0  0
  182.3000  176.5540  136.5360 C   0  0  2  0  0  3  0  0  0  0  0  0
  182.8380  178.2460  138.4700 C   0  0  2  0  0  3  0  0  0  0  0  0
  181.1040  174.5280  137.7920 C   0  0  0  0  0  2  0  0  0  0  0  0
  180.9950  175.3580  138.9860 N   0  0  0  0  0  2  0  0  0  0  0  0
  180.6780  176.7220  138.5750 C   0  0  0  0  0  2  0  0  0  0  0  0
  182.7060  174.8290  136.9730 S   0  0  0  0  0  0  0  0  0  0  0  0
  1 11  1  6  0  0  0
  1  9  1  0  0  0  0
  3 15  1  6  0  0  0
  3  8  1  0  0  0  0
  4 24  1  1  0  0  0
  4 15  1  0  0  0  0
  5  9  1  6  0  0  0
  5  6  1  0  0  0  0
  8  1  1  0  0  0  0
  8  2  1  1  0  0  0
 10 14  1  6  0  0  0
 10 16  1  0  0  0  0
 10  3  1  0  0  0  0
 12  2  1  6  0  0  0
 12  5  1  0  0  0  0
 12  6  1  0  0  0  0
 13 14  2  0  0  0  0
 13  4  1  0  0  0  0
 15  7  2  0  0  0  0
 16 11  1  0  0  0  0
 17 23  1  6  0  0  0
 17 21  1  0  0  0  0
 19 21  2  0  0  0  0
 19 14  1  0  0  0  0
 20 18  1  6  0  0  0
 20 22  1  0  0  0  0
 20 17  1  0  0  0  0
 22 19  1  0  0  0  0
 25 24  1  0  0  0  0
 26 30  1  0  0  0  0
 28 26  1  6  0  0  0
 28 30  1  0  0  0  0
 28 33  1  0  0  0  0
 29 27  1  1  0  0  0
 29 34  1  0  0  0  0
 29 28  1  0  0  0  0
 30 25  1  1  0  0  0
 31 32  1  0  0  0  0
 33 32  1  0  0  0  0
 34 31  1  0  0  0  0
M  END
>  <MODEL>
5

>  <REMARK>
 VINA RESULT:      -8.7      2.266      3.045
  Name = 
  4 active torsions:
  status: ('A' for Active; 'I' for Inactive)
    1  A    between atoms: C_5  and  C_18
    2  A    between atoms: C_12  and  C_28
    3  A    between atoms: C_17  and  N_29
    4  A    between atoms: C_18  and  N_29
                            x       y       z     vdW  Elec       q    Type
                         _______ _______ _______ _____ _____    ______ ____

>  <TORSDO>
F 4

$$$$
=
 OpenBabel10252415073D

 34 40  0  0  1  0  0  0  0  0999 V2000
  191.5780  174.9400  136.4280 C   0  0  2  0  0  3  0  0  0  0  0  0
  193.4440  176.3430  137.4510 C   0  0  0  0  0  2  0  0  0  0  0  0
  191.1050  176.7170  138.2470 C   0  0  1  0  0  3  0  0  0  0  0  0
  190.2600  177.4570  140.6140 C   0  0  2  0  0  3  0  0  0  0  0  0
  193.6050  175.2470  135.1410 N   0  0  2  0  0  0  0  0  0  0  0  0
  194.3350  176.5200  135.1900 C   0  0  0  0  0  2  0  0  0  0  0  0
  192.5440  177.2470  140.0710 O   0  0  0  0  0  0  0  0  0  0  0  0
  192.0890  175.6560  137.7030 C   0  0  1  0  0  3  0  0  0  0  0  0
  192.1750  175.5530  135.1740 C   0  0  0  0  0  2  0  0  0  0  0  0
  189.6530  176.2440  138.1020 C   0  0  1  0  0  3  0  0  0  0  0  0
  190.0570  174.7830  136.3340 C   0  0  0  0  0  2  0  0  0  0  0  0
  194.3200  175.6720  136.3800 C   0  0  1  0  0  3  0  0  0  0  0  0
  189.0160  177.7500  139.8950 N   0  0  0  0  0  0  0  0  0  0  0  0
  188.6940  177.2240  138.7490 C   0  0  0  0  0  0  0  0  0  0  0  0
  191.3940  177.1280  139.6760 C   0  0  0  0  0  0  0  0  0  0  0  0
  189.3790  176.0210  136.6910 N   0  0  0  0  0  2  0  0  0  0  0  0
  185.4030  177.2900  137.1240 C   0  0  1  0  0  3  0  0  0  0  0  0
  184.2750  178.5980  139.0520 C   0  0  0  0  0  1  0  0  0  0  0  0
  187.3430  177.5030  138.2200 C   0  0  0  0  0  0  0  0  0  0  0  0
  185.3460  178.5860  137.9690 C   0  0  1  0  0  3  0  0  0  0  0  0
  186.7060  176.7160  137.4240 N   0  0  0  0  0  0  0  0  0  0  0  0
  186.6240  178.6280  138.5750 O   0  0  0  0  0  0  0  0  0  0  0  0
  184.3080  176.2720  137.4140 C   0  0  0  0  0  1  0  0  0  0  0  0
  190.0450  176.3660  141.6610 C   0  0  0  0  0  2  0  0  0  0  0  0
  190.6700  176.7200  142.9250 N   0  0  0  0  0  2  0  0  0  0  0  0
  190.0880  178.8580  143.9370 C   0  0  0  0  0  2  0  0  0  0  0  0
  187.9370  178.2520  145.7790 O   0  0  0  0  0  1  0  0  0  0  0  0
  190.2240  177.8550  145.0580 C   0  0  1  0  0  0  0  0  0  0  0  0
  189.2480  178.0590  146.2230 C   0  0  2  0  0  3  0  0  0  0  0  0
  189.6610  177.4100  143.7130 C   0  0  2  0  0  3  0  0  0  0  0  0
  191.1130  176.6820  147.5400 C   0  0  0  0  0  2  0  0  0  0  0  0
  191.7600  176.3780  146.2690 N   0  0  0  0  0  2  0  0  0  0  0  0
  191.6800  177.5590  145.4150 C   0  0  0  0  0  2  0  0  0  0  0  0
  189.3010  176.6190  147.3430 S   0  0  0  0  0  0  0  0  0  0  0  0
  1  9  1  6  0  0  0
  1  8  1  0  0  0  0
  3 15  1  1  0  0  0
  4 24  1  1  0  0  0
  5  9  1  1  0  0  0
  5  6  1  0  0  0  0
  5 12  1  0  0  0  0
  8  2  1  6  0  0  0
  8  3  1  0  0  0  0
 10 16  1  6  0  0  0
 10  3  1  0  0  0  0
 10 14  1  0  0  0  0
 11  1  1  0  0  0  0
 11 16  1  0  0  0  0
 12  6  1  6  0  0  0
 12  2  1  0  0  0  0
 13  4  1  0  0  0  0
 14 13  2  0  0  0  0
 15  7  2  0  0  0  0
 15  4  1  0  0  0  0
 17 23  1  1  0  0  0
 17 21  1  0  0  0  0
 17 20  1  0  0  0  0
 19 22  1  0  0  0  0
 19 14  1  0  0  0  0
 20 22  1  0  0  0  0
 20 18  1  1  0  0  0
 21 19  2  0  0  0  0
 24 25  1  0  0  0  0
 28 26  1  6  0  0  0
 28 33  1  0  0  0  0
 28 29  1  0  0  0  0
 29 27  1  6  0  0  0
 29 34  1  0  0  0  0
 30 25  1  6  0  0  0
 30 26  1  0  0  0  0
 30 28  1  0  0  0  0
 32 31  1  0  0  0  0
 33 32  1  0  0  0  0
 34 31  1  0  0  0  0
M  END
>  <MODEL>
6

>  <REMARK>
 VINA RESULT:      -8.1      4.450      9.417
  Name = 
  4 active torsions:
  status: ('A' for Active; 'I' for Inactive)
    1  A    between atoms: C_5  and  C_18
    2  A    between atoms: C_12  and  C_28
    3  A    between atoms: C_17  and  N_29
    4  A    between atoms: C_18  and  N_29
                            x       y       z     vdW  Elec       q    Type
                         _______ _______ _______ _____ _____    ______ ____

>  <TORSDO>
F 4

$$$$
=
 OpenBabel10252415073D

 34 40  0  0  1  0  0  0  0  0999 V2000
  186.3760  176.3080  136.6790 C   0  0  2  0  0  3  0  0  0  0  0  0
  188.5660  177.4840  137.2430 C   0  0  0  0  0  2  0  0  0  0  0  0
  186.5000  178.1660  138.4750 C   0  0  1  0  0  3  0  0  0  0  0  0
  186.2520  179.0520  140.9280 C   0  0  2  0  0  3  0  0  0  0  0  0
  188.1190  176.3330  135.0000 N   0  0  2  0  0  0  0  0  0  0  0  0
  188.9900  177.5050  134.8450 C   0  0  0  0  0  2  0  0  0  0  0  0
  188.3340  178.5460  139.9480 O   0  0  0  0  0  0  0  0  0  0  0  0
  187.2190  176.9790  137.7930 C   0  0  1  0  0  3  0  0  0  0  0  0
  186.7730  176.8170  135.3050 C   0  0  0  0  0  2  0  0  0  0  0  0
  185.0030  177.8760  138.6450 C   0  0  1  0  0  3  0  0  0  0  0  0
  184.8610  176.3420  136.8990 C   0  0  0  0  0  2  0  0  0  0  0  0
  189.1180  176.6870  136.0500 C   0  0  1  0  0  3  0  0  0  0  0  0
  184.9310  179.4850  140.4610 N   0  0  0  0  0  0  0  0  0  0  0  0
  184.3210  178.9810  139.4270 C   0  0  0  0  0  0  0  0  0  0  0  0
  187.1230  178.5640  139.7970 C   0  0  0  0  0  0  0  0  0  0  0  0
  184.4220  177.6620  137.3290 N   0  0  0  0  0  2  0  0  0  0  0  0
  181.1750  180.6620  138.5610 C   0  0  1  0  0  3  0  0  0  0  0  0
  179.9990  178.4780  137.8240 C   0  0  0  0  0  1  0  0  0  0  0  0
  182.9340  179.4180  139.1670 C   0  0  0  0  0  0  0  0  0  0  0  0
  180.6640  179.2550  138.9530 C   0  0  1  0  0  3  0  0  0  0  0  0
  182.6190  180.5830  138.7180 N   0  0  0  0  0  0  0  0  0  0  0  0
  181.8460  178.5850  139.3480 O   0  0  0  0  0  0  0  0  0  0  0  0
  180.8310  181.1130  137.1470 C   0  0  0  0  0  1  0  0  0  0  0  0
  186.1260  178.0160  142.0440 C   0  0  0  0  0  2  0  0  0  0  0  0
  187.1630  178.1980  143.0480 N   0  0  0  0  0  2  0  0  0  0  0  0
  188.0170  176.3780  144.4240 C   0  0  0  0  0  2  0  0  0  0  0  0
  190.1240  175.1740  142.8430 O   0  0  0  0  0  1  0  0  0  0  0  0
  189.2100  177.1530  143.9170 C   0  0  1  0  0  0  0  0  0  0  0  0
  190.4450  176.3000  143.6060 C   0  0  2  0  0  3  0  0  0  0  0  0
  187.9810  176.9960  143.0280 C   0  0  2  0  0  3  0  0  0  0  0  0
  191.6880  178.6330  143.9610 C   0  0  0  0  0  2  0  0  0  0  0  0
  190.3910  179.3000  143.9690 N   0  0  0  0  0  2  0  0  0  0  0  0
  189.4400  178.4560  144.6830 C   0  0  0  0  0  2  0  0  0  0  0  0
  191.6890  177.2980  142.7170 S   0  0  0  0  0  0  0  0  0  0  0  0
  1  9  1  6  0  0  0
  1 11  1  0  0  0  0
  1  8  1  0  0  0  0
  3 10  1  0  0  0  0
  3 15  1  1  0  0  0
  4 24  1  1  0  0  0
  5  6  1  6  0  0  0
  5  9  1  0  0  0  0
  5 12  1  0  0  0  0
  8  2  1  6  0  0  0
  8  3  1  0  0  0  0
 10 16  1  6  0  0  0
 10 14  1  0  0  0  0
 11 16  1  0  0  0  0
 12  6  1  6  0  0  0
 12  2  1  0  0  0  0
 13  4  1  0  0  0  0
 14 13  2  0  0  0  0
 15  7  2  0  0  0  0
 15  4  1  0  0  0  0
 17 23  1  6  0  0  0
 17 21  1  0  0  0  0
 17 20  1  0  0  0  0
 19 22  1  0  0  0  0
 19 14  1  0  0  0  0
 20 18  1  6  0  0  0
 20 22  1  0  0  0  0
 21 19  2  0  0  0  0
 24 25  1  0  0  0  0
 28 26  1  1  0  0  0
 28 33  1  0  0  0  0
 29 27  1  6  0  0  0
 29 28  1  0  0  0  0
 30 25  1  1  0  0  0
 30 28  1  0  0  0  0
 30 26  1  0  0  0  0
 31 32  1  0  0  0  0
 32 33  1  0  0  0  0
 34 29  1  0  0  0  0
 34 31  1  0  0  0  0
M  END
>  <MODEL>
7

>  <REMARK>
 VINA RESULT:      -7.4      3.426      8.726
  Name = 
  4 active torsions:
  status: ('A' for Active; 'I' for Inactive)
    1  A    between atoms: C_5  and  C_18
    2  A    between atoms: C_12  and  C_28
    3  A    between atoms: C_17  and  N_29
    4  A    between atoms: C_18  and  N_29
                            x       y       z     vdW  Elec       q    Type
                         _______ _______ _______ _____ _____    ______ ____

>  <TORSDO>
F 4

$$$$
=
 OpenBabel10252415073D

 34 40  0  0  1  0  0  0  0  0999 V2000
  186.9390  179.0030  146.7700 C   0  0  2  0  0  3  0  0  0  0  0  0
  188.3850  177.0180  146.0880 C   0  0  0  0  0  2  0  0  0  0  0  0
  186.5830  177.7660  144.5260 C   0  0  1  0  0  3  0  0  0  0  0  0
  186.5150  177.6670  141.9090 C   0  0  2  0  0  3  0  0  0  0  0  0
  188.0320  177.7380  148.5200 N   0  0  2  0  0  0  0  0  0  0  0  0
  188.1910  176.2830  148.4030 C   0  0  0  0  0  2  0  0  0  0  0  0
  188.3060  176.8160  143.1820 O   0  0  0  0  0  0  0  0  0  0  0  0
  187.5970  178.2440  145.5900 C   0  0  1  0  0  3  0  0  0  0  0  0
  186.7260  178.0890  147.9640 C   0  0  0  0  0  2  0  0  0  0  0  0
  185.4800  178.8100  144.3120 C   0  0  1  0  0  3  0  0  0  0  0  0
  185.6800  179.7970  146.4110 C   0  0  0  0  0  2  0  0  0  0  0  0
  188.9580  177.1490  147.5090 C   0  0  1  0  0  3  0  0  0  0  0  0
  185.0770  177.8860  142.1040 N   0  0  0  0  0  0  0  0  0  0  0  0
  184.5580  178.4030  143.1800 C   0  0  0  0  0  0  0  0  0  0  0  0
  187.2290  177.3910  143.2080 C   0  0  0  0  0  0  0  0  0  0  0  0
  184.7840  179.0120  145.5730 N   0  0  0  0  0  2  0  0  0  0  0  0
  181.0480  179.2020  142.4620 C   0  0  1  0  0  3  0  0  0  0  0  0
  180.1270  177.6820  144.3440 C   0  0  0  0  0  1  0  0  0  0  0  0
  183.1100  178.6970  143.1700 C   0  0  0  0  0  0  0  0  0  0  0  0
  180.9800  178.8900  143.9760 C   0  0  1  0  0  3  0  0  0  0  0  0
  182.4450  179.0000  142.1100 N   0  0  0  0  0  0  0  0  0  0  0  0
  182.3300  178.6270  144.3080 O   0  0  0  0  0  0  0  0  0  0  0  0
  180.1590  178.3390  141.5750 C   0  0  0  0  0  1  0  0  0  0  0  0
  187.1470  178.8260  141.1410 C   0  0  0  0  0  2  0  0  0  0  0  0
  187.0340  178.6280  139.7040 N   0  0  0  0  0  2  0  0  0  0  0  0
  189.0910  178.6280  138.3980 C   0  0  0  0  0  2  0  0  0  0  0  0
  189.8240  175.8360  138.1610 O   0  0  0  0  0  1  0  0  0  0  0  0
  188.1780  177.5860  137.7950 C   0  0  1  0  0  0  0  0  0  0  0  0
  188.8930  176.3450  137.2500 C   0  0  2  0  0  3  0  0  0  0  0  0
  188.1690  177.8130  139.3030 C   0  0  2  0  0  3  0  0  0  0  0  0
  186.6620  176.1510  135.8020 C   0  0  0  0  0  2  0  0  0  0  0  0
  186.0610  177.1940  136.6250 N   0  0  0  0  0  2  0  0  0  0  0  0
  187.0800  178.1950  136.9230 C   0  0  0  0  0  2  0  0  0  0  0  0
  187.6740  175.0480  136.8450 S   0  0  0  0  0  0  0  0  0  0  0  0
  1 11  1  6  0  0  0
  1  9  1  0  0  0  0
  3 15  1  6  0  0  0
  3  8  1  0  0  0  0
  4 24  1  1  0  0  0
  4 13  1  0  0  0  0
  4 15  1  0  0  0  0
  5  9  1  6  0  0  0
  6  5  1  0  0  0  0
  7 15  2  0  0  0  0
  8  2  1  1  0  0  0
  8  1  1  0  0  0  0
 10 14  1  6  0  0  0
 10  3  1  0  0  0  0
 10 16  1  0  0  0  0
 12  2  1  6  0  0  0
 12  6  1  0  0  0  0
 12  5  1  0  0  0  0
 13 14  2  0  0  0  0
 16 11  1  0  0  0  0
 17 23  1  6  0  0  0
 17 20  1  0  0  0  0
 19 14  1  0  0  0  0
 19 22  1  0  0  0  0
 20 22  1  0  0  0  0
 20 18  1  6  0  0  0
 21 17  1  0  0  0  0
 21 19  2  0  0  0  0
 25 24  1  0  0  0  0
 26 30  1  0  0  0  0
 28 33  1  6  0  0  0
 28 26  1  0  0  0  0
 28 30  1  0  0  0  0
 29 28  1  0  0  0  0
 29 27  1  1  0  0  0
 30 25  1  6  0  0  0
 31 32  1  0  0  0  0
 31 34  1  0  0  0  0
 32 33  1  0  0  0  0
 34 29  1  0  0  0  0
M  END
>  <MODEL>
8

>  <REMARK>
 VINA RESULT:      -7.2      2.895      6.974
  Name = 
  4 active torsions:
  status: ('A' for Active; 'I' for Inactive)
    1  A    between atoms: C_5  and  C_18
    2  A    between atoms: C_12  and  C_28
    3  A    between atoms: C_17  and  N_29
    4  A    between atoms: C_18  and  N_29
                            x       y       z     vdW  Elec       q    Type
                         _______ _______ _______ _____ _____    ______ ____

>  <TORSDO>
F 4

$$$$
=
 OpenBabel10252415073D

 34 40  0  0  1  0  0  0  0  0999 V2000
  189.7950  176.0010  144.2090 C   0  0  2  0  0  3  0  0  0  0  0  0
  188.9080  177.6940  145.8960 C   0  0  0  0  0  2  0  0  0  0  0  0
  188.1900  177.9050  143.5110 C   0  0  1  0  0  3  0  0  0  0  0  0
  185.9300  178.8050  142.5370 C   0  0  2  0  0  3  0  0  0  0  0  0
  191.0800  176.3780  146.2250 N   0  0  2  0  0  0  0  0  0  0  0  0
  191.1620  177.7180  146.8190 C   0  0  0  0  0  2  0  0  0  0  0  0
  186.4170  178.7780  144.8430 O   0  0  0  0  0  0  0  0  0  0  0  0
  188.6000  176.9010  144.6120 C   0  0  1  0  0  3  0  0  0  0  0  0
  191.1010  176.5330  144.7710 C   0  0  0  0  0  2  0  0  0  0  0  0
  188.3010  177.2700  142.1200 C   0  0  1  0  0  3  0  0  0  0  0  0
  189.8910  175.6760  142.7160 C   0  0  0  0  0  2  0  0  0  0  0  0
  189.8870  177.0060  146.8630 C   0  0  1  0  0  3  0  0  0  0  0  0
  186.6940  178.8860  141.2870 N   0  0  0  0  0  0  0  0  0  0  0  0
  187.7790  178.2070  141.0490 C   0  0  0  0  0  0  0  0  0  0  0  0
  186.8110  178.4960  143.7220 C   0  0  0  0  0  0  0  0  0  0  0  0
  189.6830  176.8680  141.9050 N   0  0  0  0  0  2  0  0  0  0  0  0
  189.7930  178.1630  137.9820 C   0  0  1  0  0  3  0  0  0  0  0  0
  187.7950  177.5360  136.4610 C   0  0  0  0  0  1  0  0  0  0  0  0
  188.3530  178.2850  139.6910 C   0  0  0  0  0  0  0  0  0  0  0  0
  188.4030  178.5500  137.4210 C   0  0  1  0  0  3  0  0  0  0  0  0
  189.5780  178.0010  139.4110 N   0  0  0  0  0  0  0  0  0  0  0  0
  187.6020  178.6310  138.5850 O   0  0  0  0  0  0  0  0  0  0  0  0
  190.4020  176.8940  137.4000 C   0  0  0  0  0  1  0  0  0  0  0  0
  184.7730  177.8160  142.4090 C   0  0  0  0  0  2  0  0  0  0  0  0
  183.6600  178.4030  141.6790 N   0  0  0  0  0  2  0  0  0  0  0  0
  183.2700  179.4570  139.5170 C   0  0  0  0  0  2  0  0  0  0  0  0
  184.3170  177.5830  137.5740 O   0  0  0  0  0  1  0  0  0  0  0  0
  182.7910  178.0290  139.4110 C   0  0  1  0  0  0  0  0  0  0  0  0
  183.0170  177.3760  138.0430 C   0  0  2  0  0  3  0  0  0  0  0  0
  184.0090  178.3520  140.2690 C   0  0  2  0  0  3  0  0  0  0  0  0
  181.0350  175.8010  138.8800 C   0  0  0  0  0  2  0  0  0  0  0  0
  181.1590  176.3840  140.2110 N   0  0  0  0  0  2  0  0  0  0  0  0
  181.4280  177.8110  140.0680 C   0  0  0  0  0  2  0  0  0  0  0  0
  182.6890  175.5830  138.1420 S   0  0  0  0  0  0  0  0  0  0  0  0
  1 11  1  6  0  0  0
  1  8  1  0  0  0  0
  1  9  1  0  0  0  0
  3 15  1  1  0  0  0
  3  8  1  0  0  0  0
  4 24  1  6  0  0  0
  4 15  1  0  0  0  0
  5  9  1  6  0  0  0
  5  6  1  0  0  0  0
  5 12  1  0  0  0  0
  6 12  1  0  0  0  0
  8  2  1  1  0  0  0
 10 14  1  6  0  0  0
 10  3  1  0  0  0  0
 12  2  1  6  0  0  0
 13  4  1  0  0  0  0
 14 13  2  0  0  0  0
 15  7  2  0  0  0  0
 16 10  1  0  0  0  0
 16 11  1  0  0  0  0
 17 23  1  6  0  0  0
 17 21  1  0  0  0  0
 19 14  1  0  0  0  0
 20 18  1  6  0  0  0
 20 17  1  0  0  0  0
 20 22  1  0  0  0  0
 21 19  2  0  0  0  0
 22 19  1  0  0  0  0
 25 24  1  0  0  0  0
 26 30  1  0  0  0  0
 28 26  1  6  0  0  0
 28 33  1  0  0  0  0
 28 30  1  0  0  0  0
 29 27  1  1  0  0  0
 29 34  1  0  0  0  0
 29 28  1  0  0  0  0
 30 25  1  1  0  0  0
 31 32  1  0  0  0  0
 33 32  1  0  0  0  0
 34 31  1  0  0  0  0
M  END
>  <MODEL>
9

>  <REMARK>
 VINA RESULT:      -7.0      2.795      3.550
  Name = 
  4 active torsions:
  status: ('A' for Active; 'I' for Inactive)
    1  A    between atoms: C_5  and  C_18
    2  A    between atoms: C_12  and  C_28
    3  A    between atoms: C_17  and  N_29
    4  A    between atoms: C_18  and  N_29
                            x       y       z     vdW  Elec       q    Type
                         _______ _______ _______ _____ _____    ______ ____

>  <TORSDO>
F 4

$$$$
