=
 OpenBabel10262419363D

 31 34  0  0  1  0  0  0  0  0999 V2000
  184.8420  178.3650  144.4210 C   0  0  0  0  0  0  0  0  0  0  0  0
  188.4360  177.8410  143.3440 C   0  0  0  0  0  0  0  0  0  0  0  0
  189.0880  177.5220  144.5720 C   0  0  0  0  0  0  0  0  0  0  0  0
  189.3770  177.1070  146.8000 N   0  0  0  0  0  0  0  0  0  0  0  0
  187.0200  178.1140  143.3190 C   0  0  0  0  0  0  0  0  0  0  0  0
  184.2380  178.6580  143.2020 C   0  0  0  0  0  3  0  0  0  0  0  0
  188.4940  177.4270  145.8330 C   0  0  0  0  0  3  0  0  0  0  0  0
  188.4130  178.2140  140.9110 C   0  0  0  0  0  0  0  0  0  0  0  0
  184.1020  178.3380  145.5550 F   0  0  0  0  0  0  0  0  0  0  0  0
  191.5390  177.3800  142.6480 C   0  0  0  0  0  3  0  0  0  0  0  0
  190.5670  176.9850  146.1990 C   0  0  0  0  0  0  0  0  0  0  0  0
  187.0860  178.4540  140.9490 N   0  0  0  0  0  0  0  0  0  0  0  0
  189.1340  177.9020  142.0870 C   0  0  0  0  0  0  0  0  0  0  0  0
  186.2100  178.0970  144.4730 C   0  0  0  0  0  3  0  0  0  0  0  0
  191.7590  176.6490  146.9030 N   0  0  0  0  0  1  0  0  0  0  0  0
  186.3800  178.4180  142.0940 C   0  0  0  0  0  0  0  0  0  0  0  0
  185.0080  178.6850  142.0420 C   0  0  0  0  0  3  0  0  0  0  0  0
  190.4660  177.6930  141.8890 N   0  0  0  0  0  0  0  0  0  0  0  0
  191.5640  177.1580  144.0020 C   0  0  0  0  0  3  0  0  0  0  0  0
  190.4880  177.2180  144.8480 C   0  0  0  0  0  0  0  0  0  0  0  0
  189.0860  178.2610  139.5710 C   0  0  0  0  0  2  0  0  0  0  0  0
  186.9110  177.8010  137.6300 C   0  0  0  0  0  1  0  0  0  0  0  0
  189.7250  176.0110  139.1360 O   0  0  0  0  0  0  0  0  0  0  0  0
  188.9340  176.9530  138.8570 C   0  0  0  0  0  0  0  0  0  0  0  0
  187.9090  176.7640  137.8700 N   0  0  0  0  0  0  0  0  0  0  0  0
  188.5090  175.7060  135.7430 C   0  0  0  0  0  1  0  0  0  0  0  0
  187.8630  175.5170  137.1030 C   0  0  2  0  0  3  0  0  0  0  0  0
  186.4330  175.0160  136.9390 C   0  0  0  0  0  2  0  0  0  0  0  0
  186.3220  173.5650  137.2800 C   0  0  0  0  0  0  0  0  0  0  0  0
  185.0240  173.0150  137.7570 C   0  0  0  0  0  1  0  0  0  0  0  0
  187.2980  172.8350  137.2000 O   0  0  0  0  0  0  0  0  0  0  0  0
  1 14  1  0  0  0  0
  1  9  1  0  0  0  0
  2  3  1  0  0  0  0
  3 20  1  0  0  0  0
  3  7  2  0  0  0  0
  5  2  1  0  0  0  0
  5 14  2  0  0  0  0
  6  1  2  0  0  0  0
  7  4  1  0  0  0  0
  8 12  2  0  0  0  0
  8 13  1  0  0  0  0
 10 19  1  0  0  0  0
 11  4  2  0  0  0  0
 11 15  1  0  0  0  0
 12 16  1  0  0  0  0
 13  2  2  0  0  0  0
 16  5  1  0  0  0  0
 17 16  2  0  0  0  0
 17  6  1  0  0  0  0
 18 13  1  0  0  0  0
 18 10  2  0  0  0  0
 19 20  2  0  0  0  0
 20 11  1  0  0  0  0
 21  8  1  0  0  0  0
 22 25  1  0  0  0  0
 24 23  2  0  0  0  0
 24 21  1  0  0  0  0
 25 24  1  0  0  0  0
 27 26  1  6  0  0  0
 27 25  1  0  0  0  0
 28 27  1  0  0  0  0
 28 29  1  0  0  0  0
 29 30  1  0  0  0  0
 31 29  2  0  0  0  0
M  END
>  <MODEL>
1

>  <REMARK>
 VINA RESULT:      -9.5      0.000      0.000
  Name = 
  5 active torsions:
  status: ('A' for Active; 'I' for Inactive)
    1  A    between atoms: C_1  and  C_24
    2  A    between atoms: C_9  and  C_23
    3  A    between atoms: C_15  and  C_23
    4  A    between atoms: C_19  and  N_22
    5  A    between atoms: C_19  and  C_24
                            x       y       z     vdW  Elec       q    Type
                         _______ _______ _______ _____ _____    ______ ____

>  <TORSDO>
F 5

$$$$
=
 OpenBabel10262419363D

 31 34  0  0  1  0  0  0  0  0999 V2000
  190.5540  176.6640  145.8350 C   0  0  0  0  0  0  0  0  0  0  0  0
  187.9210  177.9090  143.4110 C   0  0  0  0  0  0  0  0  0  0  0  0
  186.7930  178.1260  144.2570 C   0  0  0  0  0  0  0  0  0  0  0  0
  185.5250  178.2190  146.1550 N   0  0  0  0  0  0  0  0  0  0  0  0
  189.1630  177.4260  143.9620 C   0  0  0  0  0  0  0  0  0  0  0  0
  191.6360  176.4790  144.9810 C   0  0  0  0  0  3  0  0  0  0  0  0
  186.7340  177.9240  145.6390 C   0  0  0  0  0  3  0  0  0  0  0  0
  189.0530  177.9310  141.2260 C   0  0  0  0  0  0  0  0  0  0  0  0
  190.6770  176.3940  147.1560 F   0  0  0  0  0  0  0  0  0  0  0  0
  185.5400  178.9550  141.5250 C   0  0  0  0  0  3  0  0  0  0  0  0
  184.7640  178.6210  145.1300 C   0  0  0  0  0  0  0  0  0  0  0  0
  190.1910  177.4840  141.7980 N   0  0  0  0  0  0  0  0  0  0  0  0
  187.8880  178.1590  141.9940 C   0  0  0  0  0  0  0  0  0  0  0  0
  189.3390  177.1310  145.3290 C   0  0  0  0  0  3  0  0  0  0  0  0
  183.4060  179.0210  145.2840 N   0  0  0  0  0  1  0  0  0  0  0  0
  190.2800  177.2260  143.1150 C   0  0  0  0  0  0  0  0  0  0  0  0
  191.4970  176.7590  143.6230 C   0  0  0  0  0  3  0  0  0  0  0  0
  186.8200  178.6030  141.2740 N   0  0  0  0  0  0  0  0  0  0  0  0
  184.9000  178.9590  142.7380 C   0  0  0  0  0  3  0  0  0  0  0  0
  185.4500  178.5960  143.9400 C   0  0  0  0  0  0  0  0  0  0  0  0
  189.0830  178.2040  139.7510 C   0  0  0  0  0  2  0  0  0  0  0  0
  186.8750  177.6680  137.8680 C   0  0  0  0  0  1  0  0  0  0  0  0
  189.8800  176.0390  139.1750 O   0  0  0  0  0  0  0  0  0  0  0  0
  189.0070  176.9260  138.9750 C   0  0  0  0  0  0  0  0  0  0  0  0
  187.9610  176.7040  138.0160 N   0  0  0  0  0  0  0  0  0  0  0  0
  188.7030  175.7660  135.8770 C   0  0  0  0  0  1  0  0  0  0  0  0
  187.9840  175.4970  137.1860 C   0  0  2  0  0  3  0  0  0  0  0  0
  186.5750  174.9820  136.9130 C   0  0  0  0  0  2  0  0  0  0  0  0
  186.4510  173.5330  137.2560 C   0  0  0  0  0  0  0  0  0  0  0  0
  185.1510  172.9980  137.7470 C   0  0  0  0  0  1  0  0  0  0  0  0
  187.4160  172.7900  137.1640 O   0  0  0  0  0  0  0  0  0  0  0  0
  1  9  1  0  0  0  0
  2  5  1  0  0  0  0
  2  3  1  0  0  0  0
  3  7  2  0  0  0  0
  5 14  2  0  0  0  0
  6  1  2  0  0  0  0
  7  4  1  0  0  0  0
  8 12  2  0  0  0  0
  8 13  1  0  0  0  0
 10 19  1  0  0  0  0
 11 15  1  0  0  0  0
 11  4  2  0  0  0  0
 12 16  1  0  0  0  0
 13  2  2  0  0  0  0
 14  1  1  0  0  0  0
 16 17  2  0  0  0  0
 16  5  1  0  0  0  0
 17  6  1  0  0  0  0
 18 10  2  0  0  0  0
 18 13  1  0  0  0  0
 19 20  2  0  0  0  0
 20  3  1  0  0  0  0
 20 11  1  0  0  0  0
 21  8  1  0  0  0  0
 22 25  1  0  0  0  0
 24 23  2  0  0  0  0
 24 21  1  0  0  0  0
 25 24  1  0  0  0  0
 27 26  1  6  0  0  0
 27 25  1  0  0  0  0
 28 27  1  0  0  0  0
 28 29  1  0  0  0  0
 29 30  1  0  0  0  0
 31 29  2  0  0  0  0
M  END
>  <MODEL>
2

>  <REMARK>
 VINA RESULT:      -9.3      1.894      4.094
  Name = 
  5 active torsions:
  status: ('A' for Active; 'I' for Inactive)
    1  A    between atoms: C_1  and  C_24
    2  A    between atoms: C_9  and  C_23
    3  A    between atoms: C_15  and  C_23
    4  A    between atoms: C_19  and  N_22
    5  A    between atoms: C_19  and  C_24
                            x       y       z     vdW  Elec       q    Type
                         _______ _______ _______ _____ _____    ______ ____

>  <TORSDO>
F 5

$$$$
=
 OpenBabel10262419363D

 31 34  0  0  1  0  0  0  0  0999 V2000
  191.2800  176.7520  144.4110 C   0  0  0  0  0  0  0  0  0  0  0  0
  187.8140  177.8230  143.3190 C   0  0  0  0  0  0  0  0  0  0  0  0
  187.1130  177.9260  144.5580 C   0  0  0  0  0  0  0  0  0  0  0  0
  186.7180  177.8730  146.8070 N   0  0  0  0  0  0  0  0  0  0  0  0
  189.2020  177.4340  143.2980 C   0  0  0  0  0  0  0  0  0  0  0  0
  191.9340  176.6760  143.1860 C   0  0  0  0  0  3  0  0  0  0  0  0
  187.6320  177.6910  145.8340 C   0  0  0  0  0  3  0  0  0  0  0  0
  187.9610  177.9860  140.8680 C   0  0  0  0  0  0  0  0  0  0  0  0
  191.9460  176.4650  145.5550 F   0  0  0  0  0  0  0  0  0  0  0  0
  184.8080  178.7060  142.6070 C   0  0  0  0  0  3  0  0  0  0  0  0
  185.5820  178.2310  146.1970 C   0  0  0  0  0  0  0  0  0  0  0  0
  189.2590  177.6230  140.9110 N   0  0  0  0  0  0  0  0  0  0  0  0
  187.1930  178.1000  142.0510 C   0  0  0  0  0  0  0  0  0  0  0  0
  189.9360  177.1260  144.4610 C   0  0  0  0  0  3  0  0  0  0  0  0
  184.3780  178.5130  146.9050 N   0  0  0  0  0  1  0  0  0  0  0  0
  189.8920  177.3460  142.0650 C   0  0  0  0  0  0  0  0  0  0  0  0
  191.2390  176.9720  142.0150 C   0  0  0  0  0  3  0  0  0  0  0  0
  185.8970  178.4670  141.8460 N   0  0  0  0  0  0  0  0  0  0  0  0
  184.7150  178.6300  143.9740 C   0  0  0  0  0  3  0  0  0  0  0  0
  185.7270  178.2900  144.8320 C   0  0  0  0  0  0  0  0  0  0  0  0
  187.3720  178.2920  139.5220 C   0  0  0  0  0  2  0  0  0  0  0  0
  187.6850  176.0180  137.6680 C   0  0  0  0  0  1  0  0  0  0  0  0
  189.2450  179.2440  138.4070 O   0  0  0  0  0  0  0  0  0  0  0  0
  188.4330  178.2810  138.4660 C   0  0  0  0  0  0  0  0  0  0  0  0
  188.5350  177.1960  137.5310 N   0  0  0  0  0  0  0  0  0  0  0  0
  188.7980  177.5410  135.1190 C   0  0  0  0  0  1  0  0  0  0  0  0
  189.5050  177.2730  136.4360 C   0  0  2  0  0  3  0  0  0  0  0  0
  190.3330  175.9970  136.3340 C   0  0  0  0  0  2  0  0  0  0  0  0
  191.2490  175.8490  137.5060 C   0  0  0  0  0  0  0  0  0  0  0  0
  192.5730  176.5290  137.4990 C   0  0  0  0  0  1  0  0  0  0  0  0
  190.9310  175.1490  138.4550 O   0  0  0  0  0  0  0  0  0  0  0  0
  1 14  1  0  0  0  0
  1  9  1  0  0  0  0
  2  3  1  0  0  0  0
  3 20  1  0  0  0  0
  3  7  2  0  0  0  0
  5  2  1  0  0  0  0
  5 14  2  0  0  0  0
  6  1  2  0  0  0  0
  7  4  1  0  0  0  0
  8 12  2  0  0  0  0
  8 13  1  0  0  0  0
 10 19  1  0  0  0  0
 11  4  2  0  0  0  0
 11 15  1  0  0  0  0
 12 16  1  0  0  0  0
 13  2  2  0  0  0  0
 16  5  1  0  0  0  0
 17 16  2  0  0  0  0
 17  6  1  0  0  0  0
 18 13  1  0  0  0  0
 18 10  2  0  0  0  0
 19 20  2  0  0  0  0
 20 11  1  0  0  0  0
 21  8  1  0  0  0  0
 23 24  2  0  0  0  0
 24 21  1  0  0  0  0
 25 22  1  0  0  0  0
 25 24  1  0  0  0  0
 27 26  1  6  0  0  0
 27 25  1  0  0  0  0
 28 27  1  0  0  0  0
 28 29  1  0  0  0  0
 29 31  2  0  0  0  0
 30 29  1  0  0  0  0
M  END
>  <MODEL>
3

>  <REMARK>
 VINA RESULT:      -9.2      2.395      4.622
  Name = 
  5 active torsions:
  status: ('A' for Active; 'I' for Inactive)
    1  A    between atoms: C_1  and  C_24
    2  A    between atoms: C_9  and  C_23
    3  A    between atoms: C_15  and  C_23
    4  A    between atoms: C_19  and  N_22
    5  A    between atoms: C_19  and  C_24
                            x       y       z     vdW  Elec       q    Type
                         _______ _______ _______ _____ _____    ______ ____

>  <TORSDO>
F 5

$$$$
=
 OpenBabel10262419363D

 31 34  0  0  1  0  0  0  0  0999 V2000
  184.8420  178.4140  144.5260 C   0  0  0  0  0  0  0  0  0  0  0  0
  188.3690  177.8610  143.2570 C   0  0  0  0  0  0  0  0  0  0  0  0
  189.0770  177.5030  144.4430 C   0  0  0  0  0  0  0  0  0  0  0  0
  189.4690  177.0320  146.6440 N   0  0  0  0  0  0  0  0  0  0  0  0
  186.9580  178.1550  143.3100 C   0  0  0  0  0  0  0  0  0  0  0  0
  184.1830  178.7450  143.3460 C   0  0  0  0  0  3  0  0  0  0  0  0
  188.5450  177.3880  145.7310 C   0  0  0  0  0  3  0  0  0  0  0  0
  188.2300  178.2900  140.8380 C   0  0  0  0  0  0  0  0  0  0  0  0
  184.1600  178.3720  145.6950 F   0  0  0  0  0  0  0  0  0  0  0  0
  191.4250  177.3680  142.3960 C   0  0  0  0  0  3  0  0  0  0  0  0
  190.6260  176.9060  145.9820 C   0  0  0  0  0  0  0  0  0  0  0  0
  186.9110  178.5490  140.9480 N   0  0  0  0  0  0  0  0  0  0  0  0
  189.0050  177.9400  141.9680 C   0  0  0  0  0  0  0  0  0  0  0  0
  186.2070  178.1240  144.5030 C   0  0  0  0  0  3  0  0  0  0  0  0
  191.8460  176.5360  146.6170 N   0  0  0  0  0  1  0  0  0  0  0  0
  186.2630  178.4970  142.1260 C   0  0  0  0  0  0  0  0  0  0  0  0
  184.8950  178.7860  142.1490 C   0  0  0  0  0  3  0  0  0  0  0  0
  190.3220  177.7150  141.6990 N   0  0  0  0  0  0  0  0  0  0  0  0
  191.5140  177.1140  143.7410 C   0  0  0  0  0  3  0  0  0  0  0  0
  190.4830  177.1720  144.6420 C   0  0  0  0  0  0  0  0  0  0  0  0
  188.8360  178.3580  139.4670 C   0  0  0  0  0  2  0  0  0  0  0  0
  189.4180  175.8750  137.9810 C   0  0  0  0  0  1  0  0  0  0  0  0
  186.8420  178.4670  138.1740 O   0  0  0  0  0  0  0  0  0  0  0  0
  187.8880  177.8150  138.4430 C   0  0  0  0  0  0  0  0  0  0  0  0
  188.1540  176.5730  137.7720 N   0  0  0  0  0  0  0  0  0  0  0  0
  186.7220  174.6320  137.3420 C   0  0  0  0  0  1  0  0  0  0  0  0
  187.1500  176.0090  136.8680 C   0  0  2  0  0  3  0  0  0  0  0  0
  187.6700  175.9310  135.4370 C   0  0  0  0  0  2  0  0  0  0  0  0
  187.9250  177.2930  134.8760 C   0  0  0  0  0  0  0  0  0  0  0  0
  186.7810  178.2050  134.6000 C   0  0  0  0  0  1  0  0  0  0  0  0
  189.0640  177.6510  134.6140 O   0  0  0  0  0  0  0  0  0  0  0  0
  1  9  1  0  0  0  0
  2  5  1  0  0  0  0
  2  3  1  0  0  0  0
  3 20  1  0  0  0  0
  3  7  2  0  0  0  0
  5 14  2  0  0  0  0
  6  1  2  0  0  0  0
  7  4  1  0  0  0  0
  8 12  2  0  0  0  0
  8 13  1  0  0  0  0
 10 19  1  0  0  0  0
 11 15  1  0  0  0  0
 11  4  2  0  0  0  0
 12 16  1  0  0  0  0
 13  2  2  0  0  0  0
 14  1  1  0  0  0  0
 16 17  2  0  0  0  0
 16  5  1  0  0  0  0
 17  6  1  0  0  0  0
 18 13  1  0  0  0  0
 18 10  2  0  0  0  0
 19 20  2  0  0  0  0
 20 11  1  0  0  0  0
 21  8  1  0  0  0  0
 23 24  2  0  0  0  0
 24 21  1  0  0  0  0
 25 22  1  0  0  0  0
 25 24  1  0  0  0  0
 27 26  1  1  0  0  0
 27 25  1  0  0  0  0
 28 27  1  0  0  0  0
 29 28  1  0  0  0  0
 30 29  1  0  0  0  0
 31 29  2  0  0  0  0
M  END
>  <MODEL>
4

>  <REMARK>
 VINA RESULT:      -9.2      1.411      2.094
  Name = 
  5 active torsions:
  status: ('A' for Active; 'I' for Inactive)
    1  A    between atoms: C_1  and  C_24
    2  A    between atoms: C_9  and  C_23
    3  A    between atoms: C_15  and  C_23
    4  A    between atoms: C_19  and  N_22
    5  A    between atoms: C_19  and  C_24
                            x       y       z     vdW  Elec       q    Type
                         _______ _______ _______ _____ _____    ______ ____

>  <TORSDO>
F 5

$$$$
=
 OpenBabel10262419363D

 31 34  0  0  1  0  0  0  0  0999 V2000
  190.6690  177.4430  140.2040 C   0  0  0  0  0  0  0  0  0  0  0  0
  187.8700  177.9060  142.7160 C   0  0  0  0  0  0  0  0  0  0  0  0
  188.4960  177.5580  143.9500 C   0  0  0  0  0  0  0  0  0  0  0  0
  190.1160  176.9010  145.4210 N   0  0  0  0  0  0  0  0  0  0  0  0
  188.6170  177.8630  141.4830 C   0  0  0  0  0  0  0  0  0  0  0  0
  190.0290  177.8030  139.0220 C   0  0  0  0  0  3  0  0  0  0  0  0
  189.8240  177.1630  144.1310 C   0  0  0  0  0  3  0  0  0  0  0  0
  185.9500  178.6550  141.3710 C   0  0  0  0  0  0  0  0  0  0  0  0
  191.9680  177.0630  140.1830 F   0  0  0  0  0  0  0  0  0  0  0  0
  185.6330  178.2100  145.0020 C   0  0  0  0  0  3  0  0  0  0  0  0
  188.9920  177.1170  146.1140 C   0  0  0  0  0  0  0  0  0  0  0  0
  186.7000  178.6030  140.2510 N   0  0  0  0  0  0  0  0  0  0  0  0
  186.4930  178.3150  142.6320 C   0  0  0  0  0  0  0  0  0  0  0  0
  189.9700  177.4750  141.4120 C   0  0  0  0  0  3  0  0  0  0  0  0
  188.9080  176.9450  147.5260 N   0  0  0  0  0  1  0  0  0  0  0  0
  187.9900  178.2220  140.2650 C   0  0  0  0  0  0  0  0  0  0  0  0
  188.6910  178.1910  139.0550 C   0  0  0  0  0  3  0  0  0  0  0  0
  185.6120  178.4110  143.6670 N   0  0  0  0  0  0  0  0  0  0  0  0
  186.6990  177.8040  145.7650 C   0  0  0  0  0  3  0  0  0  0  0  0
  187.9570  177.5190  145.3050 C   0  0  0  0  0  0  0  0  0  0  0  0
  184.5300  179.1170  141.2310 C   0  0  0  0  0  2  0  0  0  0  0  0
  182.9700  176.9630  139.9530 C   0  0  0  0  0  1  0  0  0  0  0  0
  184.5280  180.1610  139.0930 O   0  0  0  0  0  0  0  0  0  0  0  0
  184.1350  179.1840  139.7880 C   0  0  0  0  0  0  0  0  0  0  0  0
  183.3230  178.1590  139.1950 N   0  0  0  0  0  0  0  0  0  0  0  0
  181.3910  178.7190  137.7960 C   0  0  0  0  0  1  0  0  0  0  0  0
  182.8540  178.3140  137.8160 C   0  0  2  0  0  3  0  0  0  0  0  0
  183.0530  177.0350  137.0120 C   0  0  0  0  0  2  0  0  0  0  0  0
  184.3020  177.0970  136.1930 C   0  0  0  0  0  0  0  0  0  0  0  0
  185.6180  177.2750  136.8650 C   0  0  0  0  0  1  0  0  0  0  0  0
  184.2460  177.0330  134.9740 O   0  0  0  0  0  0  0  0  0  0  0  0
  1 14  1  0  0  0  0
  2  3  1  0  0  0  0
  3  7  2  0  0  0  0
  3 20  1  0  0  0  0
  4 11  2  0  0  0  0
  5  2  1  0  0  0  0
  6 17  1  0  0  0  0
  6  1  2  0  0  0  0
  7  4  1  0  0  0  0
  8 13  1  0  0  0  0
  9  1  1  0  0  0  0
 10 19  1  0  0  0  0
 11 15  1  0  0  0  0
 12 16  1  0  0  0  0
 12  8  2  0  0  0  0
 13  2  2  0  0  0  0
 13 18  1  0  0  0  0
 14  5  2  0  0  0  0
 16  5  1  0  0  0  0
 17 16  2  0  0  0  0
 18 10  2  0  0  0  0
 20 19  2  0  0  0  0
 20 11  1  0  0  0  0
 21  8  1  0  0  0  0
 23 24  2  0  0  0  0
 24 21  1  0  0  0  0
 25 24  1  0  0  0  0
 25 22  1  0  0  0  0
 27 26  1  1  0  0  0
 27 25  1  0  0  0  0
 28 27  1  0  0  0  0
 29 30  1  0  0  0  0
 29 28  1  0  0  0  0
 31 29  2  0  0  0  0
M  END
>  <MODEL>
5

>  <REMARK>
 VINA RESULT:      -9.0      3.151      4.811
  Name = 
  5 active torsions:
  status: ('A' for Active; 'I' for Inactive)
    1  A    between atoms: C_1  and  C_24
    2  A    between atoms: C_9  and  C_23
    3  A    between atoms: C_15  and  C_23
    4  A    between atoms: C_19  and  N_22
    5  A    between atoms: C_19  and  C_24
                            x       y       z     vdW  Elec       q    Type
                         _______ _______ _______ _____ _____    ______ ____

>  <TORSDO>
F 5

$$$$
=
 OpenBabel10262419363D

 31 34  0  0  1  0  0  0  0  0999 V2000
  190.5680  176.7580  146.4810 C   0  0  0  0  0  0  0  0  0  0  0  0
  188.0030  177.8620  143.9210 C   0  0  0  0  0  0  0  0  0  0  0  0
  186.8460  178.1030  144.7200 C   0  0  0  0  0  0  0  0  0  0  0  0
  185.5160  178.2650  146.5710 N   0  0  0  0  0  0  0  0  0  0  0  0
  189.2320  177.4190  144.5320 C   0  0  0  0  0  0  0  0  0  0  0  0
  191.6800  176.5470  145.6710 C   0  0  0  0  0  3  0  0  0  0  0  0
  186.7440  177.9620  146.1070 C   0  0  0  0  0  3  0  0  0  0  0  0
  189.2050  177.8010  141.7750 C   0  0  0  0  0  0  0  0  0  0  0  0
  190.6520  176.5470  147.8160 F   0  0  0  0  0  0  0  0  0  0  0  0
  185.6740  178.7960  141.9140 C   0  0  0  0  0  3  0  0  0  0  0  0
  184.7840  178.6120  145.5040 C   0  0  0  0  0  0  0  0  0  0  0  0
  190.3280  177.3930  142.4020 N   0  0  0  0  0  0  0  0  0  0  0  0
  188.0140  178.0500  142.4940 C   0  0  0  0  0  0  0  0  0  0  0  0
  189.3660  177.1870  145.9160 C   0  0  0  0  0  3  0  0  0  0  0  0
  183.4180  179.0030  145.5970 N   0  0  0  0  0  1  0  0  0  0  0  0
  190.3770  177.1950  143.7320 C   0  0  0  0  0  0  0  0  0  0  0  0
  191.5820  176.7660  144.2990 C   0  0  0  0  0  3  0  0  0  0  0  0
  186.9640  178.4480  141.7210 N   0  0  0  0  0  0  0  0  0  0  0  0
  184.9940  178.8460  143.1050 C   0  0  0  0  0  3  0  0  0  0  0  0
  185.5090  178.5430  144.3390 C   0  0  0  0  0  0  0  0  0  0  0  0
  189.2800  178.0090  140.2900 C   0  0  0  0  0  2  0  0  0  0  0  0
  189.5870  177.8520  137.3600 C   0  0  0  0  0  1  0  0  0  0  0  0
  190.5550  176.0030  140.3650 O   0  0  0  0  0  0  0  0  0  0  0  0
  190.0630  176.9100  139.6410 C   0  0  0  0  0  0  0  0  0  0  0  0
  190.2570  176.8800  138.2190 N   0  0  0  0  0  0  0  0  0  0  0  0
  192.5520  176.3780  137.5230 C   0  0  0  0  0  1  0  0  0  0  0  0
  191.1280  175.8620  137.6280 C   0  0  2  0  0  3  0  0  0  0  0  0
  190.6270  175.4290  136.2540 C   0  0  0  0  0  2  0  0  0  0  0  0
  189.7270  174.2390  136.3550 C   0  0  0  0  0  0  0  0  0  0  0  0
  188.7040  173.9950  135.3020 C   0  0  0  0  0  1  0  0  0  0  0  0
  189.8060  173.4830  137.3110 O   0  0  0  0  0  0  0  0  0  0  0  0
  1  9  1  0  0  0  0
  2  5  1  0  0  0  0
  2  3  1  0  0  0  0
  3  7  2  0  0  0  0
  5 14  2  0  0  0  0
  6  1  2  0  0  0  0
  7  4  1  0  0  0  0
  8 12  2  0  0  0  0
  8 13  1  0  0  0  0
 10 19  1  0  0  0  0
 11 15  1  0  0  0  0
 11  4  2  0  0  0  0
 12 16  1  0  0  0  0
 13  2  2  0  0  0  0
 14  1  1  0  0  0  0
 16 17  2  0  0  0  0
 16  5  1  0  0  0  0
 17  6  1  0  0  0  0
 18 10  2  0  0  0  0
 18 13  1  0  0  0  0
 19 20  2  0  0  0  0
 20  3  1  0  0  0  0
 20 11  1  0  0  0  0
 21  8  1  0  0  0  0
 22 25  1  0  0  0  0
 24 21  1  0  0  0  0
 24 23  2  0  0  0  0
 25 24  1  0  0  0  0
 27 26  1  6  0  0  0
 27 25  1  0  0  0  0
 28 29  1  0  0  0  0
 28 27  1  0  0  0  0
 29 31  2  0  0  0  0
 30 29  1  0  0  0  0
M  END
>  <MODEL>
6

>  <REMARK>
 VINA RESULT:      -9.0      2.374      4.525
  Name = 
  5 active torsions:
  status: ('A' for Active; 'I' for Inactive)
    1  A    between atoms: C_1  and  C_24
    2  A    between atoms: C_9  and  C_23
    3  A    between atoms: C_15  and  C_23
    4  A    between atoms: C_19  and  N_22
    5  A    between atoms: C_19  and  C_24
                            x       y       z     vdW  Elec       q    Type
                         _______ _______ _______ _____ _____    ______ ____

>  <TORSDO>
F 5

$$$$
=
 OpenBabel10262419363D

 31 34  0  0  1  0  0  0  0  0999 V2000
  184.6700  178.6140  145.9470 C   0  0  0  0  0  0  0  0  0  0  0  0
  187.0490  178.0250  143.0580 C   0  0  0  0  0  0  0  0  0  0  0  0
  188.2470  177.6170  143.7160 C   0  0  0  0  0  0  0  0  0  0  0  0
  189.6840  177.0710  145.4060 N   0  0  0  0  0  0  0  0  0  0  0  0
  185.8700  178.3480  143.8230 C   0  0  0  0  0  0  0  0  0  0  0  0
  183.5160  178.9940  145.2700 C   0  0  0  0  0  3  0  0  0  0  0  0
  188.4360  177.4740  145.0930 C   0  0  0  0  0  3  0  0  0  0  0  0
  185.7190  178.5320  141.0500 C   0  0  0  0  0  0  0  0  0  0  0  0
  184.6730  178.5510  147.3000 F   0  0  0  0  0  0  0  0  0  0  0  0
  189.2290  177.4950  140.7580 C   0  0  0  0  0  3  0  0  0  0  0  0
  190.3410  176.9400  144.2470 C   0  0  0  0  0  0  0  0  0  0  0  0
  184.6460  178.8150  141.8180 N   0  0  0  0  0  0  0  0  0  0  0  0
  186.9470  178.1310  141.6260 C   0  0  0  0  0  0  0  0  0  0  0  0
  185.8250  178.2960  145.2310 C   0  0  0  0  0  3  0  0  0  0  0  0
  191.7010  176.5250  144.1700 N   0  0  0  0  0  1  0  0  0  0  0  0
  184.6830  178.7400  143.1600 C   0  0  0  0  0  0  0  0  0  0  0  0
  183.5250  179.0580  143.8780 C   0  0  0  0  0  3  0  0  0  0  0  0
  187.9370  177.8870  140.7230 N   0  0  0  0  0  0  0  0  0  0  0  0
  189.9790  177.1990  141.8690 C   0  0  0  0  0  3  0  0  0  0  0  0
  189.5480  177.2500  143.1680 C   0  0  0  0  0  0  0  0  0  0  0  0
  185.5490  178.6280  139.5620 C   0  0  0  0  0  2  0  0  0  0  0  0
  183.1330  177.0100  139.0560 C   0  0  0  0  0  1  0  0  0  0  0  0
  184.1800  180.5170  139.0940 O   0  0  0  0  0  0  0  0  0  0  0  0
  184.2370  179.2630  139.2200 C   0  0  0  0  0  0  0  0  0  0  0  0
  183.0550  178.4680  139.0380 N   0  0  0  0  0  0  0  0  0  0  0  0
  180.6550  178.3530  139.5160 C   0  0  0  0  0  1  0  0  0  0  0  0
  181.7640  179.1260  138.8260 C   0  0  2  0  0  3  0  0  0  0  0  0
  181.4520  179.2750  137.3410 C   0  0  0  0  0  2  0  0  0  0  0  0
  181.1120  180.6900  136.9970 C   0  0  0  0  0  0  0  0  0  0  0  0
  181.1130  181.7300  138.0610 C   0  0  0  0  0  1  0  0  0  0  0  0
  180.8040  180.9910  135.8540 O   0  0  0  0  0  0  0  0  0  0  0  0
  1  9  1  0  0  0  0
  2  3  1  0  0  0  0
  2  5  1  0  0  0  0
  3  7  2  0  0  0  0
  5 14  1  0  0  0  0
  6  1  1  0  0  0  0
  7  4  1  0  0  0  0
  8 13  1  0  0  0  0
  8 12  2  0  0  0  0
 10 19  1  0  0  0  0
 11  4  2  0  0  0  0
 12 16  1  0  0  0  0
 13  2  2  0  0  0  0
 14  1  2  0  0  0  0
 15 11  1  0  0  0  0
 16  5  2  0  0  0  0
 16 17  1  0  0  0  0
 17  6  2  0  0  0  0
 18 10  2  0  0  0  0
 18 13  1  0  0  0  0
 19 20  2  0  0  0  0
 20  3  1  0  0  0  0
 20 11  1  0  0  0  0
 21  8  1  0  0  0  0
 23 24  2  0  0  0  0
 24 21  1  0  0  0  0
 25 22  1  0  0  0  0
 25 24  1  0  0  0  0
 27 25  1  0  0  0  0
 27 26  1  1  0  0  0
 28 27  1  0  0  0  0
 29 28  1  0  0  0  0
 29 30  1  0  0  0  0
 31 29  2  0  0  0  0
M  END
>  <MODEL>
7

>  <REMARK>
 VINA RESULT:      -8.9      3.634      4.691
  Name = 
  5 active torsions:
  status: ('A' for Active; 'I' for Inactive)
    1  A    between atoms: C_1  and  C_24
    2  A    between atoms: C_9  and  C_23
    3  A    between atoms: C_15  and  C_23
    4  A    between atoms: C_19  and  N_22
    5  A    between atoms: C_19  and  C_24
                            x       y       z     vdW  Elec       q    Type
                         _______ _______ _______ _____ _____    ______ ____

>  <TORSDO>
F 5

$$$$
=
 OpenBabel10262419363D

 31 34  0  0  1  0  0  0  0  0999 V2000
  184.6300  178.5260  145.6280 C   0  0  0  0  0  0  0  0  0  0  0  0
  186.6850  178.2830  142.4540 C   0  0  0  0  0  0  0  0  0  0  0  0
  187.9550  177.8470  142.9360 C   0  0  0  0  0  0  0  0  0  0  0  0
  189.5790  177.1810  144.3990 N   0  0  0  0  0  0  0  0  0  0  0  0
  185.5930  178.4980  143.3700 C   0  0  0  0  0  0  0  0  0  0  0  0
  183.4020  178.9370  145.1190 C   0  0  0  0  0  3  0  0  0  0  0  0
  188.2980  177.5770  144.2640 C   0  0  0  0  0  3  0  0  0  0  0  0
  185.1340  178.9420  140.6610 C   0  0  0  0  0  0  0  0  0  0  0  0
  184.7830  178.3330  146.9590 F   0  0  0  0  0  0  0  0  0  0  0  0
  188.6080  178.0350  139.8920 C   0  0  0  0  0  3  0  0  0  0  0  0
  190.1060  177.1800  143.1690 C   0  0  0  0  0  0  0  0  0  0  0  0
  184.1480  179.1200  141.5640 N   0  0  0  0  0  0  0  0  0  0  0  0
  186.4250  178.5220  141.0590 C   0  0  0  0  0  0  0  0  0  0  0  0
  185.7050  178.3100  144.7630 C   0  0  0  0  0  3  0  0  0  0  0  0
  191.4570  176.8120  142.9050 N   0  0  0  0  0  1  0  0  0  0  0  0
  184.3330  178.9190  142.8810 C   0  0  0  0  0  0  0  0  0  0  0  0
  183.2560  179.1340  143.7480 C   0  0  0  0  0  3  0  0  0  0  0  0
  187.3140  178.3930  140.0350 N   0  0  0  0  0  0  0  0  0  0  0  0
  189.4800  177.6550  140.8800 C   0  0  0  0  0  3  0  0  0  0  0  0
  189.1950  177.5700  142.2180 C   0  0  0  0  0  0  0  0  0  0  0  0
  184.8000  179.1760  139.2170 C   0  0  0  0  0  2  0  0  0  0  0  0
  182.1700  180.4060  138.6910 C   0  0  0  0  0  1  0  0  0  0  0  0
  183.7390  177.1010  138.7420 O   0  0  0  0  0  0  0  0  0  0  0  0
  183.6170  178.3540  138.8090 C   0  0  0  0  0  0  0  0  0  0  0  0
  182.3590  178.9720  138.4950 N   0  0  0  0  0  0  0  0  0  0  0  0
  180.8300  178.6410  136.6100 C   0  0  0  0  0  1  0  0  0  0  0  0
  181.2580  178.1540  137.9820 C   0  0  2  0  0  3  0  0  0  0  0  0
  180.0670  178.1620  138.9340 C   0  0  0  0  0  2  0  0  0  0  0  0
  180.3820  177.4360  140.2030 C   0  0  0  0  0  0  0  0  0  0  0  0
  180.4280  178.1830  141.4900 C   0  0  0  0  0  1  0  0  0  0  0  0
  180.6310  176.2410  140.1860 O   0  0  0  0  0  0  0  0  0  0  0  0
  1  9  1  0  0  0  0
  2  3  1  0  0  0  0
  2  5  1  0  0  0  0
  3  7  2  0  0  0  0
  5 14  1  0  0  0  0
  6  1  1  0  0  0  0
  7  4  1  0  0  0  0
  8 13  1  0  0  0  0
  8 12  2  0  0  0  0
 10 18  2  0  0  0  0
 10 19  1  0  0  0  0
 11  4  2  0  0  0  0
 12 16  1  0  0  0  0
 13  2  2  0  0  0  0
 14  1  2  0  0  0  0
 15 11  1  0  0  0  0
 16  5  2  0  0  0  0
 16 17  1  0  0  0  0
 17  6  2  0  0  0  0
 18 13  1  0  0  0  0
 19 20  2  0  0  0  0
 20  3  1  0  0  0  0
 20 11  1  0  0  0  0
 21  8  1  0  0  0  0
 23 24  2  0  0  0  0
 24 21  1  0  0  0  0
 25 22  1  0  0  0  0
 25 24  1  0  0  0  0
 27 26  1  6  0  0  0
 27 25  1  0  0  0  0
 27 28  1  0  0  0  0
 28 29  1  0  0  0  0
 29 30  1  0  0  0  0
 31 29  2  0  0  0  0
M  END
>  <MODEL>
8

>  <REMARK>
 VINA RESULT:      -8.8      3.384      4.615
  Name = 
  5 active torsions:
  status: ('A' for Active; 'I' for Inactive)
    1  A    between atoms: C_1  and  C_24
    2  A    between atoms: C_9  and  C_23
    3  A    between atoms: C_15  and  C_23
    4  A    between atoms: C_19  and  N_22
    5  A    between atoms: C_19  and  C_24
                            x       y       z     vdW  Elec       q    Type
                         _______ _______ _______ _____ _____    ______ ____

>  <TORSDO>
F 5

$$$$
=
 OpenBabel10262419363D

 31 34  0  0  1  0  0  0  0  0999 V2000
  185.0840  178.5690  145.3530 C   0  0  0  0  0  0  0  0  0  0  0  0
  186.5080  178.3070  141.8520 C   0  0  0  0  0  0  0  0  0  0  0  0
  187.8890  178.0420  142.0940 C   0  0  0  0  0  0  0  0  0  0  0  0
  189.8290  177.6590  143.2390 N   0  0  0  0  0  0  0  0  0  0  0  0
  185.5940  178.4750  142.9540 C   0  0  0  0  0  0  0  0  0  0  0  0
  183.7420  178.8120  145.0780 C   0  0  0  0  0  3  0  0  0  0  0  0
  188.5080  177.9090  143.3400 C   0  0  0  0  0  3  0  0  0  0  0  0
  184.5770  178.6680  140.3700 C   0  0  0  0  0  0  0  0  0  0  0  0
  185.5100  178.4930  146.6360 F   0  0  0  0  0  0  0  0  0  0  0  0
  187.9210  178.0730  138.9760 C   0  0  0  0  0  3  0  0  0  0  0  0
  190.1070  177.6220  141.9300 C   0  0  0  0  0  0  0  0  0  0  0  0
  183.7680  178.8090  141.4410 N   0  0  0  0  0  0  0  0  0  0  0  0
  185.9590  178.4150  140.5260 C   0  0  0  0  0  0  0  0  0  0  0  0
  185.9910  178.4030  144.3050 C   0  0  0  0  0  3  0  0  0  0  0  0
  191.4160  177.3780  141.4240 N   0  0  0  0  0  1  0  0  0  0  0  0
  184.2240  178.7260  142.7030 C   0  0  0  0  0  0  0  0  0  0  0  0
  183.3150  178.8910  143.7540 C   0  0  0  0  0  3  0  0  0  0  0  0
  186.6450  178.3030  139.3540 N   0  0  0  0  0  0  0  0  0  0  0  0
  189.0040  177.8590  139.7900 C   0  0  0  0  0  3  0  0  0  0  0  0
  188.9920  177.8440  141.1600 C   0  0  0  0  0  0  0  0  0  0  0  0
  183.9480  178.7580  139.0110 C   0  0  0  0  0  2  0  0  0  0  0  0
  181.0380  178.9200  138.5480 C   0  0  0  0  0  1  0  0  0  0  0  0
  183.9390  181.1310  138.8370 O   0  0  0  0  0  0  0  0  0  0  0  0
  183.2520  180.0730  138.8380 C   0  0  0  0  0  0  0  0  0  0  0  0
  181.8270  180.1410  138.6750 N   0  0  0  0  0  0  0  0  0  0  0  0
  179.9920  181.4790  139.5940 C   0  0  0  0  0  1  0  0  0  0  0  0
  181.1640  181.4460  138.6310 C   0  0  2  0  0  3  0  0  0  0  0  0
  180.6920  181.7840  137.2210 C   0  0  0  0  0  2  0  0  0  0  0  0
  180.7320  183.2570  136.9730 C   0  0  0  0  0  0  0  0  0  0  0  0
  181.8640  184.0650  137.5020 C   0  0  0  0  0  1  0  0  0  0  0  0
  179.8260  183.8070  136.3650 O   0  0  0  0  0  0  0  0  0  0  0  0
  1  9  1  0  0  0  0
  2  3  1  0  0  0  0
  2  5  1  0  0  0  0
  3  7  2  0  0  0  0
  4  7  1  0  0  0  0
  5 14  1  0  0  0  0
  6  1  1  0  0  0  0
  8 13  1  0  0  0  0
  8 12  2  0  0  0  0
 10 18  2  0  0  0  0
 10 19  1  0  0  0  0
 11  4  2  0  0  0  0
 12 16  1  0  0  0  0
 13  2  2  0  0  0  0
 14  1  2  0  0  0  0
 15 11  1  0  0  0  0
 16  5  2  0  0  0  0
 16 17  1  0  0  0  0
 17  6  2  0  0  0  0
 18 13  1  0  0  0  0
 19 20  2  0  0  0  0
 20 11  1  0  0  0  0
 20  3  1  0  0  0  0
 21  8  1  0  0  0  0
 22 25  1  0  0  0  0
 23 24  2  0  0  0  0
 24 21  1  0  0  0  0
 25 24  1  0  0  0  0
 27 25  1  0  0  0  0
 27 26  1  1  0  0  0
 28 27  1  0  0  0  0
 29 28  1  0  0  0  0
 29 30  1  0  0  0  0
 31 29  2  0  0  0  0
M  END
>  <MODEL>
9

>  <REMARK>
 VINA RESULT:      -8.6      4.405      6.128
  Name = 
  5 active torsions:
  status: ('A' for Active; 'I' for Inactive)
    1  A    between atoms: C_1  and  C_24
    2  A    between atoms: C_9  and  C_23
    3  A    between atoms: C_15  and  C_23
    4  A    between atoms: C_19  and  N_22
    5  A    between atoms: C_19  and  C_24
                            x       y       z     vdW  Elec       q    Type
                         _______ _______ _______ _____ _____    ______ ____

>  <TORSDO>
F 5

$$$$
