=
 OpenBabel10262423253D

 34 39  0  0  1  0  0  0  0  0999 V2000
  189.5160  178.2850  143.9310 C   0  0  1  0  0  3  0  0  0  0  0  0
  191.5660  177.2410  140.8950 C   0  0  0  0  0  2  0  0  0  0  0  0
  191.7300  176.6640  143.3830 C   0  0  0  0  0  3  0  0  0  0  0  0
  188.2820  178.0430  145.7470 N   0  0  0  0  0  0  0  0  0  0  0  0
  188.2940  178.2770  144.3640 N   0  0  0  0  0  2  0  0  0  0  0  0
  189.9430  176.7960  147.0510 C   0  0  0  0  0  2  0  0  0  0  0  0
  191.2520  176.0950  146.9400 C   0  0  0  0  0  3  0  0  0  0  0  0
  189.6120  177.7080  146.1250 C   0  0  1  0  0  3  0  0  0  0  0  0
  191.4320  176.9230  144.6650 C   0  0  0  0  0  0  0  0  0  0  0  0
  190.5180  178.0610  145.0060 C   0  0  1  0  0  3  0  0  0  0  0  0
  191.9530  176.1260  145.7910 C   0  0  0  0  0  3  0  0  0  0  0  0
  190.6370  176.5170  140.0380 N   0  0  0  0  0  0  0  0  0  0  0  0
  189.4530  176.9370  139.7010 C   0  0  0  0  0  0  0  0  0  0  0  0
  188.8740  178.1960  140.2390 C   0  0  0  0  0  3  0  0  0  0  0  0
  191.0240  177.3770  142.2770 C   0  0  0  0  0  0  0  0  0  0  0  0
  189.0680  178.6980  141.4620 C   0  0  0  0  0  3  0  0  0  0  0  0
  189.9060  178.1030  142.5240 C   0  0  0  0  0  0  0  0  0  0  0  0
  188.7230  176.1720  138.7850 O   0  0  0  0  0  0  0  0  0  0  0  0
  188.2100  176.6930  137.5650 C   0  0  0  0  0  2  0  0  0  0  0  0
  189.3370  177.2630  136.7250 C   0  0  0  0  0  1  0  0  0  0  0  0
  187.0860  177.6130  146.4600 C   0  0  0  0  0  2  0  0  0  0  0  0
  183.5880  178.8590  145.7050 C   0  0  0  0  0  3  0  0  0  0  0  0
  185.8180  177.8730  144.3180 C   0  0  0  0  0  3  0  0  0  0  0  0
  182.3330  178.9390  142.2190 C   0  0  0  0  0  0  0  0  0  0  0  0
  182.3840  179.0770  143.6140 C   0  0  0  0  0  3  0  0  0  0  0  0
  183.5390  178.7240  144.3160 C   0  0  0  0  0  0  0  0  0  0  0  0
  184.6120  178.0890  142.2270 C   0  0  0  0  0  3  0  0  0  0  0  0
  184.6620  178.2270  143.6170 C   0  0  0  0  0  0  0  0  0  0  0  0
  183.4520  178.4440  141.5330 C   0  0  0  0  0  3  0  0  0  0  0  0
  185.8640  178.0160  145.7090 C   0  0  0  0  0  0  0  0  0  0  0  0
  184.7480  178.5030  146.4000 C   0  0  0  0  0  3  0  0  0  0  0  0
  181.1120  179.3130  141.4860 C   0  0  0  0  0  0  0  0  0  0  0  0
  180.8070  178.7260  140.4140 O   0  0  0  0  0  0  0  0  0  0  0  0
  180.2850  180.3200  141.9720 O   0  0  0  0  0  1  0  0  0  0  0  0
  1 17  1  6  0  0  0
  1  5  1  0  0  0  0
  1 10  1  0  0  0  0
  2 15  1  0  0  0  0
  3  9  2  0  0  0  0
  4  8  1  0  0  0  0
  4 21  1  0  0  0  0
  5  4  1  0  0  0  0
  7  6  1  0  0  0  0
  8  6  1  6  0  0  0
  9 11  1  0  0  0  0
 10  9  1  6  0  0  0
 10  8  1  0  0  0  0
 11  7  2  0  0  0  0
 12  2  1  0  0  0  0
 13 12  2  0  0  0  0
 13 14  1  0  0  0  0
 14 16  2  0  0  0  0
 15 17  2  0  0  0  0
 15  3  1  0  0  0  0
 16 17  1  0  0  0  0
 18 13  1  0  0  0  0
 19 18  1  0  0  0  0
 20 19  1  0  0  0  0
 22 31  1  0  0  0  0
 23 30  1  0  0  0  0
 24 25  2  0  0  0  0
 25 26  1  0  0  0  0
 26 22  2  0  0  0  0
 27 28  1  0  0  0  0
 28 26  1  0  0  0  0
 28 23  2  0  0  0  0
 29 24  1  0  0  0  0
 29 27  2  0  0  0  0
 30 31  2  0  0  0  0
 30 21  1  0  0  0  0
 32 34  1  0  0  0  0
 32 24  1  0  0  0  0
 33 32  2  0  0  0  0
M  END
>  <MODEL>
1

>  <REMARK>
 VINA RESULT:     -10.7      0.000      0.000
  Name = 
  5 active torsions:
  status: ('A' for Active; 'I' for Inactive)
    1  A    between atoms: O_3  and  C_13
    2  A    between atoms: O_3  and  C_25
    3  A    between atoms: C_7  and  C_11
    4  A    between atoms: N_8  and  C_18
    5  A    between atoms: C_18  and  C_30
                            x       y       z     vdW  Elec       q    Type
                         _______ _______ _______ _____ _____    ______ ____

>  <TORSDO>
F 5

$$$$
=
 OpenBabel10262423253D

 34 39  0  0  1  0  0  0  0  0999 V2000
  188.7410  178.1880  141.7370 C   0  0  1  0  0  3  0  0  0  0  0  0
  190.3020  177.0300  138.4610 C   0  0  0  0  0  2  0  0  0  0  0  0
  190.9940  176.7490  140.9090 C   0  0  0  0  0  3  0  0  0  0  0  0
  187.9040  178.0220  143.7750 N   0  0  0  0  0  0  0  0  0  0  0  0
  187.6300  178.1040  142.4010 N   0  0  0  0  0  2  0  0  0  0  0  0
  189.9150  177.1000  144.8310 C   0  0  0  0  0  2  0  0  0  0  0  0
  191.2560  176.5270  144.5270 C   0  0  0  0  0  3  0  0  0  0  0  0
  189.3110  177.8660  143.9110 C   0  0  1  0  0  3  0  0  0  0  0  0
  190.9100  177.1150  142.1960 C   0  0  0  0  0  0  0  0  0  0  0  0
  189.9440  178.1850  142.6090 C   0  0  1  0  0  3  0  0  0  0  0  0
  191.7220  176.5030  143.2630 C   0  0  0  0  0  3  0  0  0  0  0  0
  189.3240  176.1270  137.8710 N   0  0  0  0  0  0  0  0  0  0  0  0
  188.0570  176.3860  137.7370 C   0  0  0  0  0  0  0  0  0  0  0  0
  187.4400  177.6300  138.2660 C   0  0  0  0  0  3  0  0  0  0  0  0
  190.0140  177.2610  139.9050 C   0  0  0  0  0  0  0  0  0  0  0  0
  187.7950  178.2810  139.3780 C   0  0  0  0  0  3  0  0  0  0  0  0
  188.8820  177.8930  140.3020 C   0  0  0  0  0  0  0  0  0  0  0  0
  187.2670  175.4550  137.0540 O   0  0  0  0  0  0  0  0  0  0  0  0
  187.6830  174.1200  136.7900 C   0  0  0  0  0  2  0  0  0  0  0  0
  186.5840  173.1460  137.1700 C   0  0  0  0  0  1  0  0  0  0  0  0
  186.9210  177.5540  144.7440 C   0  0  0  0  0  2  0  0  0  0  0  0
  183.4460  179.0280  145.0640 C   0  0  0  0  0  3  0  0  0  0  0  0
  185.1110  177.9750  143.0670 C   0  0  0  0  0  3  0  0  0  0  0  0
  181.2480  179.3260  142.0950 C   0  0  0  0  0  0  0  0  0  0  0  0
  181.7080  179.4020  143.4180 C   0  0  0  0  0  3  0  0  0  0  0  0
  182.9900  178.9540  143.7460 C   0  0  0  0  0  0  0  0  0  0  0  0
  183.3720  178.3470  141.4220 C   0  0  0  0  0  3  0  0  0  0  0  0
  183.8290  178.4230  142.7400 C   0  0  0  0  0  0  0  0  0  0  0  0
  182.0870  178.7960  141.1020 C   0  0  0  0  0  3  0  0  0  0  0  0
  185.5640  178.0570  144.3890 C   0  0  0  0  0  0  0  0  0  0  0  0
  184.7300  178.5780  145.3850 C   0  0  0  0  0  3  0  0  0  0  0  0
  179.8960  179.7990  141.7560 C   0  0  0  0  0  0  0  0  0  0  0  0
  179.5390  180.9710  142.0470 O   0  0  0  0  0  1  0  0  0  0  0  0
  179.0000  178.9530  141.1120 O   0  0  0  0  0  0  0  0  0  0  0  0
  1 17  1  6  0  0  0
  1  5  1  0  0  0  0
  1 10  1  0  0  0  0
  2 15  1  0  0  0  0
  3  9  2  0  0  0  0
  4  8  1  0  0  0  0
  4 21  1  0  0  0  0
  5  4  1  0  0  0  0
  7  6  1  0  0  0  0
  8  6  1  6  0  0  0
  9 11  1  0  0  0  0
 10  9  1  6  0  0  0
 10  8  1  0  0  0  0
 11  7  2  0  0  0  0
 12  2  1  0  0  0  0
 13 12  2  0  0  0  0
 13 14  1  0  0  0  0
 14 16  2  0  0  0  0
 15 17  2  0  0  0  0
 15  3  1  0  0  0  0
 16 17  1  0  0  0  0
 18 13  1  0  0  0  0
 19 18  1  0  0  0  0
 19 20  1  0  0  0  0
 22 31  1  0  0  0  0
 23 30  1  0  0  0  0
 24 25  2  0  0  0  0
 25 26  1  0  0  0  0
 26 22  2  0  0  0  0
 27 28  1  0  0  0  0
 28 23  2  0  0  0  0
 28 26  1  0  0  0  0
 29 27  2  0  0  0  0
 29 24  1  0  0  0  0
 30 21  1  0  0  0  0
 30 31  2  0  0  0  0
 32 33  1  0  0  0  0
 32 24  1  0  0  0  0
 34 32  2  0  0  0  0
M  END
>  <MODEL>
2

>  <REMARK>
 VINA RESULT:      -9.9      1.369      2.243
  Name = 
  5 active torsions:
  status: ('A' for Active; 'I' for Inactive)
    1  A    between atoms: O_3  and  C_13
    2  A    between atoms: O_3  and  C_25
    3  A    between atoms: C_7  and  C_11
    4  A    between atoms: N_8  and  C_18
    5  A    between atoms: C_18  and  C_30
                            x       y       z     vdW  Elec       q    Type
                         _______ _______ _______ _____ _____    ______ ____

>  <TORSDO>
F 5

$$$$
=
 OpenBabel10262423253D

 34 39  0  0  1  0  0  0  0  0999 V2000
  181.5960  179.7900  138.9280 C   0  0  1  0  0  3  0  0  0  0  0  0
  179.6850  181.2110  135.9550 C   0  0  0  0  0  2  0  0  0  0  0  0
  179.4770  179.0230  137.2690 C   0  0  0  0  0  3  0  0  0  0  0  0
  181.9050  178.9320  140.9400 N   0  0  0  0  0  0  0  0  0  0  0  0
  181.9150  180.0900  140.1490 N   0  0  0  0  0  2  0  0  0  0  0  0
  180.5500  176.9170  140.5970 C   0  0  0  0  0  2  0  0  0  0  0  0
  179.5790  176.2880  139.6590 C   0  0  0  0  0  3  0  0  0  0  0  0
  181.3570  177.8870  140.1450 C   0  0  1  0  0  3  0  0  0  0  0  0
  179.9890  178.1130  138.1100 C   0  0  0  0  0  0  0  0  0  0  0  0
  181.3330  178.3400  138.7330 C   0  0  1  0  0  3  0  0  0  0  0  0
  179.2830  176.8730  138.4820 C   0  0  0  0  0  3  0  0  0  0  0  0
  179.0510  182.4240  136.4540 N   0  0  0  0  0  0  0  0  0  0  0  0
  179.6550  183.3560  137.1290 C   0  0  0  0  0  0  0  0  0  0  0  0
  181.0760  183.2380  137.5510 C   0  0  0  0  0  3  0  0  0  0  0  0
  180.1440  180.3470  137.0800 C   0  0  0  0  0  0  0  0  0  0  0  0
  181.7090  182.1130  137.8990 C   0  0  0  0  0  3  0  0  0  0  0  0
  181.1200  180.7570  137.9260 C   0  0  0  0  0  0  0  0  0  0  0  0
  178.9310  184.5090  137.4460 O   0  0  0  0  0  0  0  0  0  0  0  0
  179.5410  185.7620  137.7360 C   0  0  0  0  0  2  0  0  0  0  0  0
  178.9830  186.3290  139.0270 C   0  0  0  0  0  1  0  0  0  0  0  0
  181.8540  178.9770  142.3960 C   0  0  0  0  0  2  0  0  0  0  0  0
  185.4870  177.9410  142.6720 C   0  0  0  0  0  3  0  0  0  0  0  0
  183.4120  178.8100  144.3470 C   0  0  0  0  0  3  0  0  0  0  0  0
  187.1860  177.9010  145.9650 C   0  0  0  0  0  0  0  0  0  0  0  0
  186.9620  177.7720  144.5870 C   0  0  0  0  0  3  0  0  0  0  0  0
  185.7100  178.0720  144.0450 C   0  0  0  0  0  0  0  0  0  0  0  0
  184.8870  178.6380  146.2620 C   0  0  0  0  0  3  0  0  0  0  0  0
  184.6650  178.5100  144.8890 C   0  0  0  0  0  0  0  0  0  0  0  0
  186.1420  178.3350  146.7970 C   0  0  0  0  0  3  0  0  0  0  0  0
  183.1970  178.6830  142.9700 C   0  0  0  0  0  0  0  0  0  0  0  0
  184.2320  178.2440  142.1370 C   0  0  0  0  0  3  0  0  0  0  0  0
  188.5070  177.5820  146.5300 C   0  0  0  0  0  0  0  0  0  0  0  0
  188.6100  176.8010  147.5130 O   0  0  0  0  0  1  0  0  0  0  0  0
  189.6560  178.1420  145.9830 O   0  0  0  0  0  0  0  0  0  0  0  0
  1 17  1  1  0  0  0
  1  5  1  0  0  0  0
  2 12  1  0  0  0  0
  2 15  1  0  0  0  0
  3  9  2  0  0  0  0
  4 21  1  0  0  0  0
  5  4  1  0  0  0  0
  7  6  1  0  0  0  0
  8  6  1  1  0  0  0
  8  4  1  0  0  0  0
  9 11  1  0  0  0  0
 10  9  1  1  0  0  0
 10  1  1  0  0  0  0
 10  8  1  0  0  0  0
 11  7  2  0  0  0  0
 12 13  2  0  0  0  0
 13 18  1  0  0  0  0
 13 14  1  0  0  0  0
 14 16  2  0  0  0  0
 15  3  1  0  0  0  0
 15 17  2  0  0  0  0
 16 17  1  0  0  0  0
 18 19  1  0  0  0  0
 19 20  1  0  0  0  0
 21 30  1  0  0  0  0
 22 26  1  0  0  0  0
 23 28  1  0  0  0  0
 24 32  1  0  0  0  0
 24 29  1  0  0  0  0
 25 24  2  0  0  0  0
 26 25  1  0  0  0  0
 26 28  2  0  0  0  0
 27 29  2  0  0  0  0
 28 27  1  0  0  0  0
 30 23  2  0  0  0  0
 31 22  2  0  0  0  0
 31 30  1  0  0  0  0
 32 33  1  0  0  0  0
 34 32  2  0  0  0  0
M  END
>  <MODEL>
3

>  <REMARK>
 VINA RESULT:      -9.4      4.958      9.899
  Name = 
  5 active torsions:
  status: ('A' for Active; 'I' for Inactive)
    1  A    between atoms: O_3  and  C_13
    2  A    between atoms: O_3  and  C_25
    3  A    between atoms: C_7  and  C_11
    4  A    between atoms: N_8  and  C_18
    5  A    between atoms: C_18  and  C_30
                            x       y       z     vdW  Elec       q    Type
                         _______ _______ _______ _____ _____    ______ ____

>  <TORSDO>
F 5

$$$$
=
 OpenBabel10262423253D

 34 39  0  0  1  0  0  0  0  0999 V2000
  189.8930  175.9120  137.8020 C   0  0  1  0  0  3  0  0  0  0  0  0
  192.1760  174.9060  134.9230 C   0  0  0  0  0  2  0  0  0  0  0  0
  189.8160  175.8940  135.0050 C   0  0  0  0  0  3  0  0  0  0  0  0
  188.5940  177.2170  139.0220 N   0  0  0  0  0  0  0  0  0  0  0  0
  189.8790  176.6820  138.8450 N   0  0  0  0  0  2  0  0  0  0  0  0
  186.9190  177.6490  137.2840 C   0  0  0  0  0  2  0  0  0  0  0  0
  186.6530  177.4830  135.8280 C   0  0  0  0  0  3  0  0  0  0  0  0
  187.8330  176.8650  137.8720 C   0  0  1  0  0  3  0  0  0  0  0  0
  188.6830  176.1590  135.6720 C   0  0  0  0  0  0  0  0  0  0  0  0
  188.5730  175.8180  137.1270 C   0  0  1  0  0  3  0  0  0  0  0  0
  187.5100  176.7980  135.0470 C   0  0  0  0  0  3  0  0  0  0  0  0
  193.3360  175.7800  135.0330 N   0  0  0  0  0  0  0  0  0  0  0  0
  194.0050  175.9940  136.1270 C   0  0  0  0  0  0  0  0  0  0  0  0
  193.5920  175.4230  137.4360 C   0  0  0  0  0  3  0  0  0  0  0  0
  191.0360  175.4270  135.7300 C   0  0  0  0  0  0  0  0  0  0  0  0
  192.3380  175.2140  137.8500 C   0  0  0  0  0  3  0  0  0  0  0  0
  191.1100  175.5030  137.0810 C   0  0  0  0  0  0  0  0  0  0  0  0
  195.1590  176.7790  136.0450 O   0  0  0  0  0  0  0  0  0  0  0  0
  195.7010  177.2480  134.8160 C   0  0  0  0  0  2  0  0  0  0  0  0
  196.1810  178.6790  134.9680 C   0  0  0  0  0  1  0  0  0  0  0  0
  188.3370  178.3820  139.8590 C   0  0  0  0  0  2  0  0  0  0  0  0
  187.6730  177.5200  143.4880 C   0  0  0  0  0  3  0  0  0  0  0  0
  189.8640  178.0120  141.8070 C   0  0  0  0  0  3  0  0  0  0  0  0
  190.4810  177.1480  145.8770 C   0  0  0  0  0  0  0  0  0  0  0  0
  189.1800  177.1890  145.3560 C   0  0  0  0  0  3  0  0  0  0  0  0
  188.9690  177.4760  144.0050 C   0  0  0  0  0  0  0  0  0  0  0  0
  191.3700  177.6830  143.6760 C   0  0  0  0  0  3  0  0  0  0  0  0
  190.0730  177.7250  143.1580 C   0  0  0  0  0  0  0  0  0  0  0  0
  191.5720  177.3970  145.0290 C   0  0  0  0  0  3  0  0  0  0  0  0
  188.5630  178.0480  141.2930 C   0  0  0  0  0  0  0  0  0  0  0  0
  187.4700  177.8080  142.1340 C   0  0  0  0  0  3  0  0  0  0  0  0
  190.6960  176.8450  147.3010 C   0  0  0  0  0  0  0  0  0  0  0  0
  190.0600  177.4740  148.1900 O   0  0  0  0  0  1  0  0  0  0  0  0
  191.6030  175.8620  147.6790 O   0  0  0  0  0  0  0  0  0  0  0  0
  1 17  1  6  0  0  0
  1  5  1  0  0  0  0
  2 12  1  0  0  0  0
  2 15  1  0  0  0  0
  3  9  2  0  0  0  0
  3 15  1  0  0  0  0
  4 21  1  0  0  0  0
  5  4  1  0  0  0  0
  7  6  1  0  0  0  0
  8  6  1  6  0  0  0
  8  4  1  0  0  0  0
 10  9  1  6  0  0  0
 10  1  1  0  0  0  0
 10  8  1  0  0  0  0
 11  9  1  0  0  0  0
 11  7  2  0  0  0  0
 12 13  2  0  0  0  0
 13 14  1  0  0  0  0
 14 16  2  0  0  0  0
 15 17  2  0  0  0  0
 17 16  1  0  0  0  0
 18 13  1  0  0  0  0
 19 20  1  0  0  0  0
 19 18  1  0  0  0  0
 21 30  1  0  0  0  0
 22 26  1  0  0  0  0
 23 28  1  0  0  0  0
 24 32  1  0  0  0  0
 25 24  1  0  0  0  0
 26 25  2  0  0  0  0
 27 29  1  0  0  0  0
 28 27  2  0  0  0  0
 28 26  1  0  0  0  0
 29 24  2  0  0  0  0
 30 23  2  0  0  0  0
 30 31  1  0  0  0  0
 31 22  2  0  0  0  0
 32 34  2  0  0  0  0
 32 33  1  0  0  0  0
M  END
>  <MODEL>
4

>  <REMARK>
 VINA RESULT:      -9.3      4.388      8.006
  Name = 
  5 active torsions:
  status: ('A' for Active; 'I' for Inactive)
    1  A    between atoms: O_3  and  C_13
    2  A    between atoms: O_3  and  C_25
    3  A    between atoms: C_7  and  C_11
    4  A    between atoms: N_8  and  C_18
    5  A    between atoms: C_18  and  C_30
                            x       y       z     vdW  Elec       q    Type
                         _______ _______ _______ _____ _____    ______ ____

>  <TORSDO>
F 5

$$$$
=
 OpenBabel10262423253D

 34 39  0  0  1  0  0  0  0  0999 V2000
  188.5570  177.7740  138.2910 C   0  0  1  0  0  3  0  0  0  0  0  0
  185.9480  177.1990  135.5750 C   0  0  0  0  0  2  0  0  0  0  0  0
  188.3950  176.4860  135.8120 C   0  0  0  0  0  3  0  0  0  0  0  0
  190.0810  177.2600  139.8040 N   0  0  0  0  0  0  0  0  0  0  0  0
  188.7380  177.5830  139.5610 N   0  0  0  0  0  2  0  0  0  0  0  0
  191.6380  176.1500  138.2690 C   0  0  0  0  0  2  0  0  0  0  0  0
  191.7610  175.6300  136.8790 C   0  0  0  0  0  3  0  0  0  0  0  0
  190.7010  177.0710  138.5380 C   0  0  1  0  0  3  0  0  0  0  0  0
  189.6010  176.6210  136.3820 C   0  0  0  0  0  0  0  0  0  0  0  0
  189.7990  177.6090  137.4920 C   0  0  1  0  0  3  0  0  0  0  0  0
  190.7760  175.8250  135.9820 C   0  0  0  0  0  3  0  0  0  0  0  0
  184.8960  176.4210  136.2150 N   0  0  0  0  0  0  0  0  0  0  0  0
  184.3480  176.7090  137.3580 C   0  0  0  0  0  0  0  0  0  0  0  0
  184.8100  177.8460  138.1970 C   0  0  0  0  0  3  0  0  0  0  0  0
  187.1990  177.1750  136.3840 C   0  0  0  0  0  0  0  0  0  0  0  0
  186.0660  178.2880  138.3110 C   0  0  0  0  0  3  0  0  0  0  0  0
  187.2480  177.7350  137.6180 C   0  0  0  0  0  0  0  0  0  0  0  0
  183.2770  175.9190  137.7880 O   0  0  0  0  0  0  0  0  0  0  0  0
  182.6510  176.0730  139.0570 C   0  0  0  0  0  2  0  0  0  0  0  0
  181.2940  176.7310  138.8950 C   0  0  0  0  0  1  0  0  0  0  0  0
  190.5250  176.6360  141.0450 C   0  0  0  0  0  2  0  0  0  0  0  0
  189.0970  177.0470  144.5300 C   0  0  0  0  0  3  0  0  0  0  0  0
  188.3110  177.4610  141.8690 C   0  0  0  0  0  3  0  0  0  0  0  0
  185.6530  178.3270  145.0120 C   0  0  0  0  0  0  0  0  0  0  0  0
  186.9360  177.8320  145.2910 C   0  0  0  0  0  3  0  0  0  0  0  0
  187.8220  177.5420  144.2510 C   0  0  0  0  0  0  0  0  0  0  0  0
  186.1490  178.2450  142.6320 C   0  0  0  0  0  3  0  0  0  0  0  0
  187.4250  177.7510  142.9100 C   0  0  0  0  0  0  0  0  0  0  0  0
  185.2670  178.5310  143.6780 C   0  0  0  0  0  3  0  0  0  0  0  0
  189.5900  176.9710  142.1550 C   0  0  0  0  0  0  0  0  0  0  0  0
  189.9790  176.7590  143.4830 C   0  0  0  0  0  3  0  0  0  0  0  0
  184.7240  178.6290  146.1130 C   0  0  0  0  0  0  0  0  0  0  0  0
  185.0980  178.5200  147.3110 O   0  0  0  0  0  1  0  0  0  0  0  0
  183.4240  179.0380  145.8390 O   0  0  0  0  0  0  0  0  0  0  0  0
  1 17  1  6  0  0  0
  1  5  1  0  0  0  0
  2 12  1  0  0  0  0
  2 15  1  0  0  0  0
  3  9  2  0  0  0  0
  3 15  1  0  0  0  0
  4 21  1  0  0  0  0
  5  4  1  0  0  0  0
  7  6  1  0  0  0  0
  8  6  1  6  0  0  0
  8  4  1  0  0  0  0
 10  9  1  6  0  0  0
 10  1  1  0  0  0  0
 10  8  1  0  0  0  0
 11  9  1  0  0  0  0
 11  7  2  0  0  0  0
 12 13  2  0  0  0  0
 13 18  1  0  0  0  0
 13 14  1  0  0  0  0
 14 16  2  0  0  0  0
 15 17  2  0  0  0  0
 17 16  1  0  0  0  0
 18 19  1  0  0  0  0
 20 19  1  0  0  0  0
 21 30  1  0  0  0  0
 23 30  2  0  0  0  0
 23 28  1  0  0  0  0
 24 25  1  0  0  0  0
 24 32  1  0  0  0  0
 26 22  1  0  0  0  0
 26 25  2  0  0  0  0
 27 28  2  0  0  0  0
 27 29  1  0  0  0  0
 28 26  1  0  0  0  0
 29 24  2  0  0  0  0
 30 31  1  0  0  0  0
 31 22  2  0  0  0  0
 32 33  1  0  0  0  0
 34 32  2  0  0  0  0
M  END
>  <MODEL>
5

>  <REMARK>
 VINA RESULT:      -9.3      2.890      6.399
  Name = 
  5 active torsions:
  status: ('A' for Active; 'I' for Inactive)
    1  A    between atoms: O_3  and  C_13
    2  A    between atoms: O_3  and  C_25
    3  A    between atoms: C_7  and  C_11
    4  A    between atoms: N_8  and  C_18
    5  A    between atoms: C_18  and  C_30
                            x       y       z     vdW  Elec       q    Type
                         _______ _______ _______ _____ _____    ______ ____

>  <TORSDO>
F 5

$$$$
=
 OpenBabel10262423253D

 34 39  0  0  1  0  0  0  0  0999 V2000
  185.4850  178.0960  137.9490 C   0  0  1  0  0  3  0  0  0  0  0  0
  181.8330  177.0330  138.1610 C   0  0  0  0  0  2  0  0  0  0  0  0
  183.9690  175.7890  137.4940 C   0  0  0  0  0  3  0  0  0  0  0  0
  187.6590  178.0370  138.3390 N   0  0  0  0  0  0  0  0  0  0  0  0
  186.4240  178.6050  138.6860 N   0  0  0  0  0  2  0  0  0  0  0  0
  188.0500  175.8040  137.4050 C   0  0  0  0  0  2  0  0  0  0  0  0
  187.3480  174.5880  136.9080 C   0  0  0  0  0  3  0  0  0  0  0  0
  187.3890  176.9700  137.4380 C   0  0  1  0  0  3  0  0  0  0  0  0
  185.2500  175.7970  137.1000 C   0  0  0  0  0  0  0  0  0  0  0  0
  185.9870  177.0960  136.9720 C   0  0  1  0  0  3  0  0  0  0  0  0
  186.0060  174.5700  136.7910 C   0  0  0  0  0  3  0  0  0  0  0  0
  181.4770  177.1690  139.5670 N   0  0  0  0  0  0  0  0  0  0  0  0
  181.7180  178.2170  140.2970 C   0  0  0  0  0  0  0  0  0  0  0  0
  182.4810  179.3850  139.7850 C   0  0  0  0  0  3  0  0  0  0  0  0
  183.3130  177.0400  137.9810 C   0  0  0  0  0  0  0  0  0  0  0  0
  183.4930  179.3500  138.9120 C   0  0  0  0  0  3  0  0  0  0  0  0
  184.0500  178.1380  138.2760 C   0  0  0  0  0  0  0  0  0  0  0  0
  181.2190  178.2330  141.6040 O   0  0  0  0  0  0  0  0  0  0  0  0
  181.5400  179.2450  142.5510 C   0  0  0  0  0  2  0  0  0  0  0  0
  181.5050  178.6750  143.9570 C   0  0  0  0  0  1  0  0  0  0  0  0
  188.8280  178.1130  139.2060 C   0  0  0  0  0  2  0  0  0  0  0  0
  188.8580  177.2890  142.9040 C   0  0  0  0  0  3  0  0  0  0  0  0
  187.1860  178.5580  141.0420 C   0  0  0  0  0  3  0  0  0  0  0  0
  186.0060  178.2470  145.0670 C   0  0  0  0  0  0  0  0  0  0  0  0
  187.2370  177.7180  144.6520 C   0  0  0  0  0  3  0  0  0  0  0  0
  187.6330  177.8180  143.3170 C   0  0  0  0  0  0  0  0  0  0  0  0
  185.5650  178.9840  142.7910 C   0  0  0  0  0  3  0  0  0  0  0  0
  186.7910  178.4570  142.3780 C   0  0  0  0  0  0  0  0  0  0  0  0
  185.1750  178.8790  144.1290 C   0  0  0  0  0  3  0  0  0  0  0  0
  188.4180  178.0310  140.6360 C   0  0  0  0  0  0  0  0  0  0  0  0
  189.2480  177.3930  141.5650 C   0  0  0  0  0  3  0  0  0  0  0  0
  185.5940  178.1380  146.4760 C   0  0  0  0  0  0  0  0  0  0  0  0
  184.4200  178.4360  146.8230 O   0  0  0  0  0  0  0  0  0  0  0  0
  186.4990  177.7030  147.4380 O   0  0  0  0  0  1  0  0  0  0  0  0
  1 17  1  1  0  0  0
  1  5  1  0  0  0  0
  2 12  1  0  0  0  0
  3 15  1  0  0  0  0
  4  5  1  0  0  0  0
  4 21  1  0  0  0  0
  7  6  1  0  0  0  0
  8  6  1  1  0  0  0
  8  4  1  0  0  0  0
  9  3  2  0  0  0  0
 10  9  1  1  0  0  0
 10  8  1  0  0  0  0
 10  1  1  0  0  0  0
 11  7  2  0  0  0  0
 11  9  1  0  0  0  0
 12 13  2  0  0  0  0
 13 18  1  0  0  0  0
 14 13  1  0  0  0  0
 15  2  1  0  0  0  0
 15 17  2  0  0  0  0
 16 14  2  0  0  0  0
 17 16  1  0  0  0  0
 18 19  1  0  0  0  0
 19 20  1  0  0  0  0
 21 30  1  0  0  0  0
 22 26  1  0  0  0  0
 23 28  1  0  0  0  0
 24 32  1  0  0  0  0
 25 24  1  0  0  0  0
 26 25  2  0  0  0  0
 27 29  1  0  0  0  0
 28 27  2  0  0  0  0
 28 26  1  0  0  0  0
 29 24  2  0  0  0  0
 30 23  2  0  0  0  0
 30 31  1  0  0  0  0
 31 22  2  0  0  0  0
 32 33  2  0  0  0  0
 32 34  1  0  0  0  0
M  END
>  <MODEL>
6

>  <REMARK>
 VINA RESULT:      -9.2      3.316      7.673
  Name = 
  5 active torsions:
  status: ('A' for Active; 'I' for Inactive)
    1  A    between atoms: O_3  and  C_13
    2  A    between atoms: O_3  and  C_25
    3  A    between atoms: C_7  and  C_11
    4  A    between atoms: N_8  and  C_18
    5  A    between atoms: C_18  and  C_30
                            x       y       z     vdW  Elec       q    Type
                         _______ _______ _______ _____ _____    ______ ____

>  <TORSDO>
F 5

$$$$
=
 OpenBabel10262423253D

 34 39  0  0  1  0  0  0  0  0999 V2000
  182.1870  176.3560  139.7240 C   0  0  1  0  0  3  0  0  0  0  0  0
  180.8550  174.6450  136.5920 C   0  0  0  0  0  2  0  0  0  0  0  0
  179.9780  176.5800  138.0200 C   0  0  0  0  0  3  0  0  0  0  0  0
  182.8680  178.0120  141.0170 N   0  0  0  0  0  0  0  0  0  0  0  0
  183.2440  176.9710  140.1550 N   0  0  0  0  0  2  0  0  0  0  0  0
  180.7680  179.2780  140.9800 C   0  0  0  0  0  2  0  0  0  0  0  0
  179.4440  179.3570  140.3030 C   0  0  0  0  0  3  0  0  0  0  0  0
  181.4510  178.1250  140.9420 C   0  0  1  0  0  3  0  0  0  0  0  0
  179.9720  177.2770  139.1660 C   0  0  0  0  0  0  0  0  0  0  0  0
  180.9220  176.9160  140.2680 C   0  0  1  0  0  3  0  0  0  0  0  0
  179.0720  178.4190  139.4110 C   0  0  0  0  0  3  0  0  0  0  0  0
  181.8580  174.8930  135.5660 N   0  0  0  0  0  0  0  0  0  0  0  0
  183.1360  174.7030  135.7140 C   0  0  0  0  0  0  0  0  0  0  0  0
  183.7330  174.2840  137.0090 C   0  0  0  0  0  3  0  0  0  0  0  0
  181.0390  175.5630  137.7520 C   0  0  0  0  0  0  0  0  0  0  0  0
  183.3070  174.6320  138.2270 C   0  0  0  0  0  3  0  0  0  0  0  0
  182.1480  175.4980  138.5280 C   0  0  0  0  0  0  0  0  0  0  0  0
  183.9590  174.8880  134.5980 O   0  0  0  0  0  0  0  0  0  0  0  0
  185.1550  175.6580  134.6270 C   0  0  0  0  0  2  0  0  0  0  0  0
  184.8260  177.1290  134.8000 C   0  0  0  0  0  1  0  0  0  0  0  0
  183.7680  179.1030  141.3690 C   0  0  0  0  0  2  0  0  0  0  0  0
  184.5210  178.8330  145.0720 C   0  0  0  0  0  3  0  0  0  0  0  0
  185.7650  178.2650  142.6230 C   0  0  0  0  0  3  0  0  0  0  0  0
  187.7730  177.4920  146.2370 C   0  0  0  0  0  0  0  0  0  0  0  0
  186.4790  178.0330  146.2520 C   0  0  0  0  0  3  0  0  0  0  0  0
  185.8080  178.2920  145.0550 C   0  0  0  0  0  0  0  0  0  0  0  0
  187.7230  177.4670  143.8040 C   0  0  0  0  0  3  0  0  0  0  0  0
  186.4350  178.0060  143.8210 C   0  0  0  0  0  0  0  0  0  0  0  0
  188.3890  177.2120  145.0070 C   0  0  0  0  0  3  0  0  0  0  0  0
  184.4720  178.8010  142.6470 C   0  0  0  0  0  0  0  0  0  0  0  0
  183.8550  179.0900  143.8690 C   0  0  0  0  0  3  0  0  0  0  0  0
  188.4750  177.2230  147.5020 C   0  0  0  0  0  0  0  0  0  0  0  0
  189.5740  176.6070  147.5040 O   0  0  0  0  0  0  0  0  0  0  0  0
  187.9290  177.6460  148.7090 O   0  0  0  0  0  1  0  0  0  0  0  0
  1 17  1  6  0  0  0
  1  5  1  0  0  0  0
  1 10  1  0  0  0  0
  2 15  1  0  0  0  0
  3  9  2  0  0  0  0
  4 21  1  0  0  0  0
  5  4  1  0  0  0  0
  7  6  1  0  0  0  0
  8  6  1  6  0  0  0
  8  4  1  0  0  0  0
  9 11  1  0  0  0  0
 10  9  1  6  0  0  0
 10  8  1  0  0  0  0
 11  7  2  0  0  0  0
 12 13  2  0  0  0  0
 12  2  1  0  0  0  0
 13 14  1  0  0  0  0
 14 16  2  0  0  0  0
 15  3  1  0  0  0  0
 15 17  2  0  0  0  0
 16 17  1  0  0  0  0
 18 19  1  0  0  0  0
 18 13  1  0  0  0  0
 19 20  1  0  0  0  0
 21 30  1  0  0  0  0
 23 30  2  0  0  0  0
 23 28  1  0  0  0  0
 24 25  1  0  0  0  0
 24 32  1  0  0  0  0
 26 22  1  0  0  0  0
 26 25  2  0  0  0  0
 27 28  2  0  0  0  0
 27 29  1  0  0  0  0
 28 26  1  0  0  0  0
 29 24  2  0  0  0  0
 30 31  1  0  0  0  0
 31 22  2  0  0  0  0
 32 33  2  0  0  0  0
 32 34  1  0  0  0  0
M  END
>  <MODEL>
7

>  <REMARK>
 VINA RESULT:      -9.1      4.542      8.540
  Name = 
  5 active torsions:
  status: ('A' for Active; 'I' for Inactive)
    1  A    between atoms: O_3  and  C_13
    2  A    between atoms: O_3  and  C_25
    3  A    between atoms: C_7  and  C_11
    4  A    between atoms: N_8  and  C_18
    5  A    between atoms: C_18  and  C_30
                            x       y       z     vdW  Elec       q    Type
                         _______ _______ _______ _____ _____    ______ ____

>  <TORSDO>
F 5

$$$$
=
 OpenBabel10262423253D

 34 39  0  0  1  0  0  0  0  0999 V2000
  187.7040  178.2260  138.7630 C   0  0  1  0  0  3  0  0  0  0  0  0
  184.3190  177.9060  137.0470 C   0  0  0  0  0  2  0  0  0  0  0  0
  186.6920  177.2590  136.3400 C   0  0  0  0  0  3  0  0  0  0  0  0
  189.6500  177.5790  139.5850 N   0  0  0  0  0  0  0  0  0  0  0  0
  188.3080  177.8820  139.8580 N   0  0  0  0  0  2  0  0  0  0  0  0
  190.5770  176.7320  137.4790 C   0  0  0  0  0  2  0  0  0  0  0  0
  190.2130  176.3980  136.0740 C   0  0  0  0  0  3  0  0  0  0  0  0
  189.7980  177.5760  138.1700 C   0  0  1  0  0  3  0  0  0  0  0  0
  188.0220  177.3650  136.4780 C   0  0  0  0  0  0  0  0  0  0  0  0
  188.5970  178.2090  137.5740 C   0  0  1  0  0  3  0  0  0  0  0  0
  188.9810  176.6690  135.6000 C   0  0  0  0  0  3  0  0  0  0  0  0
  183.5430  177.0150  137.8980 N   0  0  0  0  0  0  0  0  0  0  0  0
  183.4210  177.1350  139.1860 C   0  0  0  0  0  0  0  0  0  0  0  0
  184.1520  178.1720  139.9600 C   0  0  0  0  0  3  0  0  0  0  0  0
  185.7710  177.8250  137.3710 C   0  0  0  0  0  0  0  0  0  0  0  0
  185.3760  178.6410  139.6980 C   0  0  0  0  0  3  0  0  0  0  0  0
  186.2440  178.2250  138.5760 C   0  0  0  0  0  0  0  0  0  0  0  0
  182.5540  176.2580  139.8470 O   0  0  0  0  0  0  0  0  0  0  0  0
  181.4600  175.6100  139.2070 C   0  0  0  0  0  2  0  0  0  0  0  0
  180.2150  176.4720  139.3030 C   0  0  0  0  0  1  0  0  0  0  0  0
  190.4860  176.8190  140.5060 C   0  0  0  0  0  2  0  0  0  0  0  0
  190.8260  177.8910  144.1240 C   0  0  0  0  0  3  0  0  0  0  0  0
  188.8270  176.9930  142.3720 C   0  0  0  0  0  3  0  0  0  0  0  0
  187.8830  177.8710  146.3760 C   0  0  0  0  0  0  0  0  0  0  0  0
  189.1970  178.0280  145.9120 C   0  0  0  0  0  3  0  0  0  0  0  0
  189.5160  177.7370  144.5840 C   0  0  0  0  0  0  0  0  0  0  0  0
  187.2000  177.1280  144.1620 C   0  0  0  0  0  3  0  0  0  0  0  0
  188.5090  177.2840  143.7010 C   0  0  0  0  0  0  0  0  0  0  0  0
  186.8890  177.4200  145.4930 C   0  0  0  0  0  3  0  0  0  0  0  0
  190.1400  177.1560  141.9150 C   0  0  0  0  0  0  0  0  0  0  0  0
  191.1370  177.5980  142.7920 C   0  0  0  0  0  3  0  0  0  0  0  0
  187.5540  178.1780  147.7770 C   0  0  0  0  0  0  0  0  0  0  0  0
  186.7530  179.1090  148.0550 O   0  0  0  0  0  0  0  0  0  0  0  0
  188.1270  177.4420  148.8080 O   0  0  0  0  0  1  0  0  0  0  0  0
  1 17  1  6  0  0  0
  1  5  1  0  0  0  0
  2 15  1  0  0  0  0
  2 12  1  0  0  0  0
  3  9  2  0  0  0  0
  3 15  1  0  0  0  0
  4  5  1  0  0  0  0
  4 21  1  0  0  0  0
  7  6  1  0  0  0  0
  8  6  1  6  0  0  0
  8  4  1  0  0  0  0
 10  9  1  6  0  0  0
 10  8  1  0  0  0  0
 10  1  1  0  0  0  0
 11  7  2  0  0  0  0
 11  9  1  0  0  0  0
 12 13  2  0  0  0  0
 13 18  1  0  0  0  0
 13 14  1  0  0  0  0
 15 17  2  0  0  0  0
 16 14  2  0  0  0  0
 17 16  1  0  0  0  0
 19 20  1  0  0  0  0
 19 18  1  0  0  0  0
 21 30  1  0  0  0  0
 22 26  1  0  0  0  0
 23 28  1  0  0  0  0
 24 32  1  0  0  0  0
 25 24  1  0  0  0  0
 26 25  2  0  0  0  0
 27 29  1  0  0  0  0
 28 27  2  0  0  0  0
 28 26  1  0  0  0  0
 29 24  2  0  0  0  0
 30 23  2  0  0  0  0
 30 31  1  0  0  0  0
 31 22  2  0  0  0  0
 32 33  2  0  0  0  0
 32 34  1  0  0  0  0
M  END
>  <MODEL>
8

>  <REMARK>
 VINA RESULT:      -9.0      3.310      7.361
  Name = 
  5 active torsions:
  status: ('A' for Active; 'I' for Inactive)
    1  A    between atoms: O_3  and  C_13
    2  A    between atoms: O_3  and  C_25
    3  A    between atoms: C_7  and  C_11
    4  A    between atoms: N_8  and  C_18
    5  A    between atoms: C_18  and  C_30
                            x       y       z     vdW  Elec       q    Type
                         _______ _______ _______ _____ _____    ______ ____

>  <TORSDO>
F 5

$$$$
=
 OpenBabel10262423253D

 34 39  0  0  1  0  0  0  0  0999 V2000
  180.8420  177.8400  139.9740 C   0  0  1  0  0  3  0  0  0  0  0  0
  182.0460  177.2990  136.4000 C   0  0  0  0  0  2  0  0  0  0  0  0
  180.8120  179.2280  137.5440 C   0  0  0  0  0  3  0  0  0  0  0  0
  180.6190  178.8490  141.9260 N   0  0  0  0  0  0  0  0  0  0  0  0
  181.2950  177.8640  141.1890 N   0  0  0  0  0  2  0  0  0  0  0  0
  179.6040  180.9070  141.0640 C   0  0  0  0  0  2  0  0  0  0  0  0
  179.3140  181.6470  139.8050 C   0  0  0  0  0  3  0  0  0  0  0  0
  179.8220  179.5850  141.0060 C   0  0  1  0  0  3  0  0  0  0  0  0
  180.0810  179.7070  138.5610 C   0  0  0  0  0  0  0  0  0  0  0  0
  179.7610  178.8290  139.7330 C   0  0  1  0  0  3  0  0  0  0  0  0
  179.5700  181.0900  138.6050 C   0  0  0  0  0  3  0  0  0  0  0  0
  183.4960  177.2010  136.4970 N   0  0  0  0  0  0  0  0  0  0  0  0
  184.1360  176.4480  137.3410 C   0  0  0  0  0  0  0  0  0  0  0  0
  183.4390  175.6520  138.3840 C   0  0  0  0  0  3  0  0  0  0  0  0
  181.4660  177.8880  137.6400 C   0  0  0  0  0  0  0  0  0  0  0  0
  182.3210  175.9980  139.0300 C   0  0  0  0  0  3  0  0  0  0  0  0
  181.5510  177.2430  138.8290 C   0  0  0  0  0  0  0  0  0  0  0  0
  185.5300  176.3870  137.2370 O   0  0  0  0  0  0  0  0  0  0  0  0
  186.3780  177.5160  137.4140 C   0  0  0  0  0  2  0  0  0  0  0  0
  186.0070  178.2530  138.6870 C   0  0  0  0  0  1  0  0  0  0  0  0
  181.1320  179.3750  143.1850 C   0  0  0  0  0  2  0  0  0  0  0  0
  184.6640  178.2540  142.4000 C   0  0  0  0  0  3  0  0  0  0  0  0
  183.1370  178.9970  144.6330 C   0  0  0  0  0  3  0  0  0  0  0  0
  187.1610  177.8710  145.1110 C   0  0  0  0  0  0  0  0  0  0  0  0
  186.5790  177.8780  143.8350 C   0  0  0  0  0  3  0  0  0  0  0  0
  185.2440  178.2500  143.6710 C   0  0  0  0  0  0  0  0  0  0  0  0
  185.0530  178.6190  146.0670 C   0  0  0  0  0  3  0  0  0  0  0  0
  184.4740  178.6250  144.7960 C   0  0  0  0  0  0  0  0  0  0  0  0
  186.3900  178.2440  146.2240 C   0  0  0  0  0  3  0  0  0  0  0  0
  182.5640  179.0050  143.3560 C   0  0  0  0  0  0  0  0  0  0  0  0
  183.3260  178.6280  142.2440 C   0  0  0  0  0  3  0  0  0  0  0  0
  188.5700  177.4770  145.2770 C   0  0  0  0  0  0  0  0  0  0  0  0
  189.1830  176.8940  144.3440 O   0  0  0  0  0  0  0  0  0  0  0  0
  189.2360  177.7440  146.4680 O   0  0  0  0  0  1  0  0  0  0  0  0
  1 17  1  6  0  0  0
  1  5  1  0  0  0  0
  2 12  1  0  0  0  0
  2 15  1  0  0  0  0
  3 15  1  0  0  0  0
  3  9  2  0  0  0  0
  4 21  1  0  0  0  0
  5  4  1  0  0  0  0
  7  6  1  0  0  0  0
  8  6  1  6  0  0  0
  8  4  1  0  0  0  0
  9 11  1  0  0  0  0
 10  9  1  6  0  0  0
 10  1  1  0  0  0  0
 10  8  1  0  0  0  0
 11  7  2  0  0  0  0
 12 13  2  0  0  0  0
 13 14  1  0  0  0  0
 14 16  2  0  0  0  0
 15 17  2  0  0  0  0
 17 16  1  0  0  0  0
 18 13  1  0  0  0  0
 18 19  1  0  0  0  0
 19 20  1  0  0  0  0
 21 30  1  0  0  0  0
 22 26  1  0  0  0  0
 23 28  1  0  0  0  0
 24 32  1  0  0  0  0
 24 29  1  0  0  0  0
 25 24  2  0  0  0  0
 26 25  1  0  0  0  0
 26 28  2  0  0  0  0
 27 29  2  0  0  0  0
 28 27  1  0  0  0  0
 30 23  2  0  0  0  0
 31 22  2  0  0  0  0
 31 30  1  0  0  0  0
 32 34  1  0  0  0  0
 33 32  2  0  0  0  0
M  END
>  <MODEL>
9

>  <REMARK>
 VINA RESULT:      -8.9      3.797      8.502
  Name = 
  5 active torsions:
  status: ('A' for Active; 'I' for Inactive)
    1  A    between atoms: O_3  and  C_13
    2  A    between atoms: O_3  and  C_25
    3  A    between atoms: C_7  and  C_11
    4  A    between atoms: N_8  and  C_18
    5  A    between atoms: C_18  and  C_30
                            x       y       z     vdW  Elec       q    Type
                         _______ _______ _______ _____ _____    ______ ____

>  <TORSDO>
F 5

$$$$
