=
 OpenBabel10262419563D

 25 28  0  0  1  0  0  0  0  0999 V2000
  188.7460  176.1310  143.0760 C   0  0  1  0  0  3  0  0  0  0  0  0
  188.2980  176.5740  144.4810 C   0  0  2  0  0  3  0  0  0  0  0  0
  191.1780  176.2190  143.9860 C   0  0  0  0  0  2  0  0  0  0  0  0
  188.7350  177.1500  141.9820 C   0  0  0  0  0  0  0  0  0  0  0  0
  186.4460  177.4620  145.9010 C   0  0  1  0  0  3  0  0  0  0  0  0
  189.0700  178.6200  139.6480 C   0  0  0  0  0  3  0  0  0  0  0  0
  190.5750  176.4840  145.3570 C   0  0  0  0  0  2  0  0  0  0  0  0
  189.8230  176.9330  141.1800 C   0  0  0  0  0  0  0  0  0  0  0  0
  190.0270  177.6540  140.0040 C   0  0  0  0  0  3  0  0  0  0  0  0
  188.9070  177.8830  146.5050 N   0  0  0  0  0  0  0  0  0  0  0  0
  189.8750  178.5500  147.3660 C   0  0  0  0  0  1  0  0  0  0  0  0
  186.9590  177.2890  144.4780 C   0  0  0  0  0  2  0  0  0  0  0  0
  187.9360  178.8300  140.4570 C   0  0  0  0  0  3  0  0  0  0  0  0
  190.2000  175.5660  142.9940 C   0  0  2  0  0  3  0  0  0  0  0  0
  190.6410  175.9420  141.6890 O   0  0  0  0  0  0  0  0  0  0  0  0
  187.5090  177.9770  146.8420 C   0  0  0  0  0  0  0  0  0  0  0  0
  187.7520  178.0790  141.6290 C   0  0  0  0  0  3  0  0  0  0  0  0
  187.1630  178.4320  147.9670 O   0  0  0  0  0  0  0  0  0  0  0  0
  189.3660  177.3920  145.1980 C   0  0  2  0  0  3  0  0  0  0  0  0
  185.1740  178.3150  145.9270 C   0  0  0  0  0  2  0  0  0  0  0  0
  184.8650  178.9590  144.5800 C   0  0  0  0  0  2  0  0  0  0  0  0
  183.0680  179.0340  144.3130 S   0  0  0  0  0  0  0  0  0  0  0  0
  183.2360  178.6370  142.5790 C   0  0  0  0  0  0  0  0  0  0  0  0
  182.1500  178.7830  141.7270 O   0  0  0  0  0  0  0  0  0  0  0  0
  184.3360  178.2200  142.1330 O   0  0  0  0  0  1  0  0  0  0  0  0
  1  4  1  6  0  0  0
  1  2  1  0  0  0  0
  2 12  1  6  0  0  0
  2 19  1  0  0  0  0
  3  7  1  0  0  0  0
  5 20  1  6  0  0  0
  5 16  1  0  0  0  0
  6  9  2  0  0  0  0
  6 13  1  0  0  0  0
  8 15  1  0  0  0  0
  8  4  2  0  0  0  0
  9  8  1  0  0  0  0
 10 16  1  0  0  0  0
 10 11  1  0  0  0  0
 12  5  1  0  0  0  0
 13 17  2  0  0  0  0
 14  1  1  0  0  0  0
 14  3  1  1  0  0  0
 15 14  1  0  0  0  0
 16 18  2  0  0  0  0
 17  4  1  0  0  0  0
 19  7  1  1  0  0  0
 19 10  1  0  0  0  0
 21 20  1  0  0  0  0
 22 21  1  0  0  0  0
 23 22  1  0  0  0  0
 24 23  2  0  0  0  0
 25 23  1  0  0  0  0
M  END
>  <MODEL>
1

>  <REMARK>
 VINA RESULT:      -7.6      0.000      0.000
  Name = 
  4 active torsions:
  status: ('A' for Active; 'I' for Inactive)
    1  A    between atoms: C_2  and  S_21
    2  A    between atoms: C_6  and  C_15
    3  A    between atoms: C_15  and  C_25
    4  A    between atoms: S_21  and  C_25
                            x       y       z     vdW  Elec       q    Type
                         _______ _______ _______ _____ _____    ______ ____

>  <TORSDO>
F 4

$$$$
=
 OpenBabel10262419563D

 25 28  0  0  1  0  0  0  0  0999 V2000
  188.8240  176.7140  145.5510 C   0  0  1  0  0  3  0  0  0  0  0  0
  187.3910  177.2500  145.7230 C   0  0  2  0  0  3  0  0  0  0  0  0
  189.3150  177.6920  147.9070 C   0  0  0  0  0  2  0  0  0  0  0  0
  189.7510  177.4650  144.6500 C   0  0  0  0  0  0  0  0  0  0  0  0
  185.2130  177.7840  144.6270 C   0  0  1  0  0  3  0  0  0  0  0  0
  191.9160  178.5160  143.2620 C   0  0  0  0  0  3  0  0  0  0  0  0
  187.8310  178.0090  148.0020 C   0  0  0  0  0  2  0  0  0  0  0  0
  191.0030  177.4420  145.2040 C   0  0  0  0  0  0  0  0  0  0  0  0
  192.1110  177.9640  144.5380 C   0  0  0  0  0  3  0  0  0  0  0  0
  185.9800  179.0270  146.7400 N   0  0  0  0  0  0  0  0  0  0  0  0
  185.7490  180.0990  147.6990 C   0  0  0  0  0  1  0  0  0  0  0  0
  186.6950  177.5170  144.4010 C   0  0  0  0  0  2  0  0  0  0  0  0
  190.6340  178.5200  142.6760 C   0  0  0  0  0  3  0  0  0  0  0  0
  189.6530  176.6060  146.8710 C   0  0  2  0  0  3  0  0  0  0  0  0
  190.9960  176.8530  146.4540 O   0  0  0  0  0  0  0  0  0  0  0  0
  184.9630  178.7560  145.7540 C   0  0  0  0  0  0  0  0  0  0  0  0
  189.5380  177.9760  143.3660 C   0  0  0  0  0  3  0  0  0  0  0  0
  183.8220  179.2840  145.8680 O   0  0  0  0  0  0  0  0  0  0  0  0
  187.3350  178.4670  146.6400 C   0  0  2  0  0  3  0  0  0  0  0  0
  184.5260  178.2050  143.3240 C   0  0  0  0  0  2  0  0  0  0  0  0
  185.2570  179.3360  142.6080 C   0  0  0  0  0  2  0  0  0  0  0  0
  185.9690  178.7380  141.0450 S   0  0  0  0  0  0  0  0  0  0  0  0
  184.4900  179.1450  140.1310 C   0  0  0  0  0  0  0  0  0  0  0  0
  183.3620  178.3430  140.2450 O   0  0  0  0  0  1  0  0  0  0  0  0
  184.4720  180.1540  139.3790 O   0  0  0  0  0  0  0  0  0  0  0  0
  1  4  1  6  0  0  0
  1  2  1  0  0  0  0
  1 14  1  0  0  0  0
  2 12  1  6  0  0  0
  2 19  1  0  0  0  0
  3  7  1  0  0  0  0
  4  8  1  0  0  0  0
  5 20  1  6  0  0  0
  5 16  1  0  0  0  0
  6  9  1  0  0  0  0
  8 15  1  0  0  0  0
  9  8  2  0  0  0  0
 10 11  1  0  0  0  0
 12  5  1  0  0  0  0
 13  6  2  0  0  0  0
 13 17  1  0  0  0  0
 14  3  1  1  0  0  0
 15 14  1  0  0  0  0
 16 18  2  0  0  0  0
 16 10  1  0  0  0  0
 17  4  2  0  0  0  0
 19 10  1  0  0  0  0
 19  7  1  1  0  0  0
 21 20  1  0  0  0  0
 22 21  1  0  0  0  0
 23 24  1  0  0  0  0
 23 22  1  0  0  0  0
 25 23  2  0  0  0  0
M  END
>  <MODEL>
2

>  <REMARK>
 VINA RESULT:      -7.0      2.428      3.443
  Name = 
  4 active torsions:
  status: ('A' for Active; 'I' for Inactive)
    1  A    between atoms: C_2  and  S_21
    2  A    between atoms: C_6  and  C_15
    3  A    between atoms: C_15  and  C_25
    4  A    between atoms: S_21  and  C_25
                            x       y       z     vdW  Elec       q    Type
                         _______ _______ _______ _____ _____    ______ ____

>  <TORSDO>
F 4

$$$$
=
 OpenBabel10262419563D

 25 28  0  0  1  0  0  0  0  0999 V2000
  186.4610  177.0690  144.3030 C   0  0  1  0  0  3  0  0  0  0  0  0
  187.5410  176.8780  143.2230 C   0  0  2  0  0  3  0  0  0  0  0  0
  185.4500  178.8970  142.7590 C   0  0  0  0  0  2  0  0  0  0  0  0
  186.8340  177.8130  145.5450 C   0  0  0  0  0  0  0  0  0  0  0  0
  189.7600  175.8970  142.6360 C   0  0  1  0  0  3  0  0  0  0  0  0
  186.9060  179.2260  147.9360 C   0  0  0  0  0  3  0  0  0  0  0  0
  186.4750  178.4780  141.7180 C   0  0  0  0  0  2  0  0  0  0  0  0
  185.7670  178.5810  145.9250 C   0  0  0  0  0  0  0  0  0  0  0  0
  185.7680  179.3070  147.1150 C   0  0  0  0  0  3  0  0  0  0  0  0
  188.8710  177.9890  141.4400 N   0  0  0  0  0  0  0  0  0  0  0  0
  189.1120  179.0740  140.4970 C   0  0  0  0  0  1  0  0  0  0  0  0
  188.8370  176.3120  143.7740 C   0  0  0  0  0  2  0  0  0  0  0  0
  187.9980  178.4180  147.5620 C   0  0  0  0  0  3  0  0  0  0  0  0
  185.1790  177.8270  143.8300 C   0  0  2  0  0  3  0  0  0  0  0  0
  184.7440  178.5260  144.9970 O   0  0  0  0  0  0  0  0  0  0  0  0
  189.8620  176.9490  141.5590 C   0  0  0  0  0  0  0  0  0  0  0  0
  187.9620  177.6880  146.3630 C   0  0  0  0  0  3  0  0  0  0  0  0
  190.7930  176.8700  140.7100 O   0  0  0  0  0  0  0  0  0  0  0  0
  187.7850  178.1480  142.4170 C   0  0  2  0  0  3  0  0  0  0  0  0
  191.1300  175.4670  143.1700 C   0  0  0  0  0  2  0  0  0  0  0  0
  191.4980  176.1530  144.4810 C   0  0  0  0  0  2  0  0  0  0  0  0
  192.1630  174.9430  145.6630 S   0  0  0  0  0  0  0  0  0  0  0  0
  192.1290  176.1230  147.0030 C   0  0  0  0  0  0  0  0  0  0  0  0
  192.8650  175.8850  148.1550 O   0  0  0  0  0  1  0  0  0  0  0  0
  191.4330  177.1670  146.9040 O   0  0  0  0  0  0  0  0  0  0  0  0
  1  4  1  1  0  0  0
  2 12  1  1  0  0  0
  2  1  1  0  0  0  0
  4  8  2  0  0  0  0
  4 17  1  0  0  0  0
  5 20  1  1  0  0  0
  5 12  1  0  0  0  0
  7  3  1  0  0  0  0
  8  9  1  0  0  0  0
  9  6  2  0  0  0  0
 10 16  1  0  0  0  0
 10 19  1  0  0  0  0
 11 10  1  0  0  0  0
 13  6  1  0  0  0  0
 14  3  1  6  0  0  0
 14  1  1  0  0  0  0
 14 15  1  0  0  0  0
 15  8  1  0  0  0  0
 16  5  1  0  0  0  0
 17 13  2  0  0  0  0
 18 16  2  0  0  0  0
 19  7  1  6  0  0  0
 19  2  1  0  0  0  0
 20 21  1  0  0  0  0
 21 22  1  0  0  0  0
 22 23  1  0  0  0  0
 23 24  1  0  0  0  0
 25 23  2  0  0  0  0
M  END
>  <MODEL>
3

>  <REMARK>
 VINA RESULT:      -6.9      2.996      6.957
  Name = 
  4 active torsions:
  status: ('A' for Active; 'I' for Inactive)
    1  A    between atoms: C_2  and  S_21
    2  A    between atoms: C_6  and  C_15
    3  A    between atoms: C_15  and  C_25
    4  A    between atoms: S_21  and  C_25
                            x       y       z     vdW  Elec       q    Type
                         _______ _______ _______ _____ _____    ______ ____

>  <TORSDO>
F 4

$$$$
=
 OpenBabel10262419563D

 25 28  0  0  1  0  0  0  0  0999 V2000
  189.4500  178.0300  139.8280 C   0  0  1  0  0  3  0  0  0  0  0  0
  188.4060  177.8140  138.7160 C   0  0  2  0  0  3  0  0  0  0  0  0
  190.8990  176.2510  138.6090 C   0  0  0  0  0  2  0  0  0  0  0  0
  189.1850  177.4220  141.1670 C   0  0  0  0  0  0  0  0  0  0  0  0
  186.0590  178.1860  137.9510 C   0  0  1  0  0  3  0  0  0  0  0  0
  189.3030  176.4110  143.7530 C   0  0  0  0  0  3  0  0  0  0  0  0
  189.8590  176.2720  137.5010 C   0  0  0  0  0  2  0  0  0  0  0  0
  190.3730  176.9720  141.6790 C   0  0  0  0  0  0  0  0  0  0  0  0
  190.4690  176.4550  142.9700 C   0  0  0  0  0  3  0  0  0  0  0  0
  187.4290  176.1790  137.1170 N   0  0  0  0  0  0  0  0  0  0  0  0
  187.4700  174.9370  136.3570 C   0  0  0  0  0  1  0  0  0  0  0  0
  186.9950  178.1620  139.1520 C   0  0  0  0  0  2  0  0  0  0  0  0
  188.0830  176.8950  143.2400 C   0  0  0  0  0  3  0  0  0  0  0  0
  190.8840  177.5060  139.4980 C   0  0  2  0  0  3  0  0  0  0  0  0
  191.4030  177.1060  140.7670 O   0  0  0  0  0  0  0  0  0  0  0  0
  186.2350  176.9840  137.0550 C   0  0  0  0  0  0  0  0  0  0  0  0
  188.0200  177.4220  141.9400 C   0  0  0  0  0  3  0  0  0  0  0  0
  185.3500  176.7280  136.1930 O   0  0  0  0  0  0  0  0  0  0  0  0
  188.4770  176.4120  138.1210 C   0  0  2  0  0  3  0  0  0  0  0  0
  184.6060  178.3840  138.3910 C   0  0  0  0  0  2  0  0  0  0  0  0
  184.4830  179.1610  139.6970 C   0  0  0  0  0  2  0  0  0  0  0  0
  183.5870  178.1770  140.9360 S   0  0  0  0  0  0  0  0  0  0  0  0
  184.6250  178.7690  142.2640 C   0  0  0  0  0  0  0  0  0  0  0  0
  184.5250  178.2020  143.5270 O   0  0  0  0  0  1  0  0  0  0  0  0
  185.4410  179.7040  142.0560 O   0  0  0  0  0  0  0  0  0  0  0  0
  1  4  1  1  0  0  0
  2 12  1  1  0  0  0
  2  1  1  0  0  0  0
  4  8  2  0  0  0  0
  4 17  1  0  0  0  0
  5 20  1  1  0  0  0
  5 12  1  0  0  0  0
  7  3  1  0  0  0  0
  8  9  1  0  0  0  0
  9  6  2  0  0  0  0
 10 19  1  0  0  0  0
 11 10  1  0  0  0  0
 13  6  1  0  0  0  0
 14  3  1  6  0  0  0
 14  1  1  0  0  0  0
 14 15  1  0  0  0  0
 15  8  1  0  0  0  0
 16 10  1  0  0  0  0
 16  5  1  0  0  0  0
 17 13  2  0  0  0  0
 18 16  2  0  0  0  0
 19  7  1  6  0  0  0
 19  2  1  0  0  0  0
 20 21  1  0  0  0  0
 21 22  1  0  0  0  0
 22 23  1  0  0  0  0
 23 24  1  0  0  0  0
 25 23  2  0  0  0  0
M  END
>  <MODEL>
4

>  <REMARK>
 VINA RESULT:      -6.8      3.263      6.117
  Name = 
  4 active torsions:
  status: ('A' for Active; 'I' for Inactive)
    1  A    between atoms: C_2  and  S_21
    2  A    between atoms: C_6  and  C_15
    3  A    between atoms: C_15  and  C_25
    4  A    between atoms: S_21  and  C_25
                            x       y       z     vdW  Elec       q    Type
                         _______ _______ _______ _____ _____    ______ ____

>  <TORSDO>
F 4

$$$$
=
 OpenBabel10262419563D

 25 28  0  0  1  0  0  0  0  0999 V2000
  185.5410  179.3170  141.8660 C   0  0  1  0  0  3  0  0  0  0  0  0
  186.9720  178.7520  141.7980 C   0  0  2  0  0  3  0  0  0  0  0  0
  185.3700  178.2040  144.2060 C   0  0  0  0  0  2  0  0  0  0  0  0
  184.4790  178.6350  141.0650 C   0  0  0  0  0  0  0  0  0  0  0  0
  188.9600  178.2570  140.3710 C   0  0  1  0  0  3  0  0  0  0  0  0
  182.1160  177.6980  139.9430 C   0  0  0  0  0  3  0  0  0  0  0  0
  186.8450  177.8620  144.0690 C   0  0  0  0  0  2  0  0  0  0  0  0
  183.3200  178.6400  141.7930 C   0  0  0  0  0  0  0  0  0  0  0  0
  182.1170  178.1740  141.2650 C   0  0  0  0  0  3  0  0  0  0  0  0
  188.4750  176.8980  142.4960 N   0  0  0  0  0  0  0  0  0  0  0  0
  188.8170  175.7660  143.3480 C   0  0  0  0  0  1  0  0  0  0  0  0
  187.4670  178.5570  140.3770 C   0  0  0  0  0  2  0  0  0  0  0  0
  183.3010  177.7130  139.1800 C   0  0  0  0  0  3  0  0  0  0  0  0
  184.9120  179.3550  143.2950 C   0  0  2  0  0  3  0  0  0  0  0  0
  183.5180  179.1520  143.0610 O   0  0  0  0  0  0  0  0  0  0  0  0
  189.3460  177.2140  141.3920 C   0  0  0  0  0  0  0  0  0  0  0  0
  184.4960  178.2000  139.7360 C   0  0  0  0  0  3  0  0  0  0  0  0
  190.4790  176.6660  141.3100 O   0  0  0  0  0  0  0  0  0  0  0  0
  187.1320  177.4810  142.6240 C   0  0  2  0  0  3  0  0  0  0  0  0
  189.4440  177.9070  138.9600 C   0  0  0  0  0  2  0  0  0  0  0  0
  188.5970  176.8280  138.2940 C   0  0  0  0  0  2  0  0  0  0  0  0
  188.5540  177.0800  136.4940 S   0  0  0  0  0  0  0  0  0  0  0  0
  187.1590  178.1890  136.6100 C   0  0  0  0  0  0  0  0  0  0  0  0
  185.8680  177.6930  136.4910 O   0  0  0  0  0  0  0  0  0  0  0  0
  187.3470  179.4200  136.7920 O   0  0  0  0  0  1  0  0  0  0  0  0
  1  4  1  6  0  0  0
  1 14  1  0  0  0  0
  2 12  1  6  0  0  0
  2  1  1  0  0  0  0
  2 19  1  0  0  0  0
  4  8  1  0  0  0  0
  5 20  1  6  0  0  0
  5 12  1  0  0  0  0
  5 16  1  0  0  0  0
  6  9  1  0  0  0  0
  7  3  1  0  0  0  0
  8 15  1  0  0  0  0
  9  8  2  0  0  0  0
 10 19  1  0  0  0  0
 10 11  1  0  0  0  0
 13 17  1  0  0  0  0
 13  6  2  0  0  0  0
 14  3  1  1  0  0  0
 15 14  1  0  0  0  0
 16 10  1  0  0  0  0
 17  4  2  0  0  0  0
 18 16  2  0  0  0  0
 19  7  1  1  0  0  0
 21 20  1  0  0  0  0
 22 23  1  0  0  0  0
 22 21  1  0  0  0  0
 23 25  1  0  0  0  0
 24 23  2  0  0  0  0
M  END
>  <MODEL>
5

>  <REMARK>
 VINA RESULT:      -6.7      3.233      6.229
  Name = 
  4 active torsions:
  status: ('A' for Active; 'I' for Inactive)
    1  A    between atoms: C_2  and  S_21
    2  A    between atoms: C_6  and  C_15
    3  A    between atoms: C_15  and  C_25
    4  A    between atoms: S_21  and  C_25
                            x       y       z     vdW  Elec       q    Type
                         _______ _______ _______ _____ _____    ______ ____

>  <TORSDO>
F 4

$$$$
=
 OpenBabel10262419563D

 25 28  0  0  1  0  0  0  0  0999 V2000
  190.0530  178.8040  143.7270 C   0  0  1  0  0  3  0  0  0  0  0  0
  189.5580  178.6010  142.2830 C   0  0  2  0  0  3  0  0  0  0  0  0
  192.1700  177.4700  143.0320 C   0  0  0  0  0  2  0  0  0  0  0  0
  189.4390  177.9680  144.8040 C   0  0  0  0  0  0  0  0  0  0  0  0
  187.6350  178.7230  140.6960 C   0  0  1  0  0  3  0  0  0  0  0  0
  188.7930  176.6090  147.1390 C   0  0  0  0  0  3  0  0  0  0  0  0
  191.6310  177.5000  141.6110 C   0  0  0  0  0  2  0  0  0  0  0  0
  190.4170  177.6320  145.7000 C   0  0  0  0  0  0  0  0  0  0  0  0
  190.1310  176.9470  146.8800 C   0  0  0  0  0  3  0  0  0  0  0  0
  189.5840  177.0970  140.3040 N   0  0  0  0  0  0  0  0  0  0  0  0
  190.1480  176.0040  139.5220 C   0  0  0  0  0  1  0  0  0  0  0  0
  188.0460  178.6610  142.1610 C   0  0  0  0  0  2  0  0  0  0  0  0
  187.7770  176.9730  146.2320 C   0  0  0  0  0  3  0  0  0  0  0  0
  191.5810  178.5590  143.9430 C   0  0  2  0  0  3  0  0  0  0  0  0
  191.6620  178.0570  145.2770 O   0  0  0  0  0  0  0  0  0  0  0  0
  188.3630  177.7110  139.8450 C   0  0  0  0  0  0  0  0  0  0  0  0
  188.0950  177.6740  145.0570 C   0  0  0  0  0  3  0  0  0  0  0  0
  187.9280  177.4550  138.6890 O   0  0  0  0  0  0  0  0  0  0  0  0
  190.1190  177.3320  141.6520 C   0  0  2  0  0  3  0  0  0  0  0  0
  186.1130  178.6290  140.5480 C   0  0  0  0  0  2  0  0  0  0  0  0
  185.3640  179.3080  141.6900 C   0  0  0  0  0  2  0  0  0  0  0  0
  183.8660  178.3680  142.1100 S   0  0  0  0  0  0  0  0  0  0  0  0
  183.7910  179.0770  143.7480 C   0  0  0  0  0  0  0  0  0  0  0  0
  184.6430  180.1180  144.0910 O   0  0  0  0  0  0  0  0  0  0  0  0
  182.9710  178.6300  144.5910 O   0  0  0  0  0  1  0  0  0  0  0  0
  1 14  1  0  0  0  0
  1  4  1  1  0  0  0
  2 12  1  1  0  0  0
  2  1  1  0  0  0  0
  4 17  2  0  0  0  0
  4  8  1  0  0  0  0
  5 20  1  1  0  0  0
  5 12  1  0  0  0  0
  7  3  1  0  0  0  0
  8  9  2  0  0  0  0
  9  6  1  0  0  0  0
 10 19  1  0  0  0  0
 11 10  1  0  0  0  0
 13  6  2  0  0  0  0
 14  3  1  6  0  0  0
 14 15  1  0  0  0  0
 15  8  1  0  0  0  0
 16 10  1  0  0  0  0
 16  5  1  0  0  0  0
 17 13  1  0  0  0  0
 18 16  2  0  0  0  0
 19  7  1  6  0  0  0
 19  2  1  0  0  0  0
 20 21  1  0  0  0  0
 21 22  1  0  0  0  0
 22 23  1  0  0  0  0
 23 24  2  0  0  0  0
 23 25  1  0  0  0  0
M  END
>  <MODEL>
6

>  <REMARK>
 VINA RESULT:      -6.7      2.437      4.987
  Name = 
  4 active torsions:
  status: ('A' for Active; 'I' for Inactive)
    1  A    between atoms: C_2  and  S_21
    2  A    between atoms: C_6  and  C_15
    3  A    between atoms: C_15  and  C_25
    4  A    between atoms: S_21  and  C_25
                            x       y       z     vdW  Elec       q    Type
                         _______ _______ _______ _____ _____    ______ ____

>  <TORSDO>
F 4

$$$$
=
 OpenBabel10262419563D

 25 28  0  0  1  0  0  0  0  0999 V2000
  185.0250  179.5690  143.4090 C   0  0  1  0  0  3  0  0  0  0  0  0
  186.3320  178.9530  142.8760 C   0  0  2  0  0  3  0  0  0  0  0  0
  185.4840  178.2700  145.6110 C   0  0  0  0  0  2  0  0  0  0  0  0
  183.7310  179.0010  142.9200 C   0  0  0  0  0  0  0  0  0  0  0  0
  187.7700  178.4980  140.8870 C   0  0  1  0  0  3  0  0  0  0  0  0
  181.0860  178.2620  142.5000 C   0  0  0  0  0  3  0  0  0  0  0  0
  186.8270  177.8800  145.0130 C   0  0  0  0  0  2  0  0  0  0  0  0
  182.8430  178.9930  143.9620 C   0  0  0  0  0  0  0  0  0  0  0  0
  181.5090  178.6240  143.7900 C   0  0  0  0  0  3  0  0  0  0  0  0
  187.8500  176.9850  142.9620 N   0  0  0  0  0  0  0  0  0  0  0  0
  188.3550  175.7730  143.5920 C   0  0  0  0  0  1  0  0  0  0  0  0
  186.3680  178.8580  141.3620 C   0  0  0  0  0  2  0  0  0  0  0  0
  181.9900  178.2920  141.4190 C   0  0  0  0  0  3  0  0  0  0  0  0
  184.8520  179.5120  144.9610 C   0  0  2  0  0  3  0  0  0  0  0  0
  183.4410  179.3880  145.1440 O   0  0  0  0  0  0  0  0  0  0  0  0
  188.3730  177.3580  141.6710 C   0  0  0  0  0  0  0  0  0  0  0  0
  183.3240  178.6800  141.6220 C   0  0  0  0  0  3  0  0  0  0  0  0
  189.3930  176.7720  141.2140 O   0  0  0  0  0  0  0  0  0  0  0  0
  186.6460  177.6110  143.5270 C   0  0  2  0  0  3  0  0  0  0  0  0
  187.7900  178.2480  139.3750 C   0  0  0  0  0  2  0  0  0  0  0  0
  189.0570  178.7680  138.7060 C   0  0  0  0  0  2  0  0  0  0  0  0
  188.8700  178.7500  136.8980 S   0  0  0  0  0  0  0  0  0  0  0  0
  188.9550  176.9670  136.8330 C   0  0  0  0  0  0  0  0  0  0  0  0
  190.0060  176.3010  137.4490 O   0  0  0  0  0  1  0  0  0  0  0  0
  188.0670  176.3160  136.2250 O   0  0  0  0  0  0  0  0  0  0  0  0
  1  4  1  6  0  0  0
  1 14  1  0  0  0  0
  2 12  1  6  0  0  0
  2  1  1  0  0  0  0
  2 19  1  0  0  0  0
  4  8  1  0  0  0  0
  5 20  1  6  0  0  0
  5 12  1  0  0  0  0
  5 16  1  0  0  0  0
  6  9  1  0  0  0  0
  7  3  1  0  0  0  0
  8 15  1  0  0  0  0
  9  8  2  0  0  0  0
 10 19  1  0  0  0  0
 10 11  1  0  0  0  0
 13 17  1  0  0  0  0
 13  6  2  0  0  0  0
 14 15  1  0  0  0  0
 14  3  1  6  0  0  0
 16 10  1  0  0  0  0
 17  4  2  0  0  0  0
 18 16  2  0  0  0  0
 19  7  1  1  0  0  0
 21 20  1  0  0  0  0
 22 21  1  0  0  0  0
 23 22  1  0  0  0  0
 23 24  1  0  0  0  0
 25 23  2  0  0  0  0
M  END
>  <MODEL>
7

>  <REMARK>
 VINA RESULT:      -6.6      2.921      6.608
  Name = 
  4 active torsions:
  status: ('A' for Active; 'I' for Inactive)
    1  A    between atoms: C_2  and  S_21
    2  A    between atoms: C_6  and  C_15
    3  A    between atoms: C_15  and  C_25
    4  A    between atoms: S_21  and  C_25
                            x       y       z     vdW  Elec       q    Type
                         _______ _______ _______ _____ _____    ______ ____

>  <TORSDO>
F 4

$$$$
=
 OpenBabel10262419563D

 25 28  0  0  1  0  0  0  0  0999 V2000
  184.2040  179.3810  142.3620 C   0  0  1  0  0  3  0  0  0  0  0  0
  185.6100  178.9550  142.8230 C   0  0  2  0  0  3  0  0  0  0  0  0
  183.4450  179.0030  144.8170 C   0  0  0  0  0  2  0  0  0  0  0  0
  183.3940  178.3980  141.5800 C   0  0  0  0  0  0  0  0  0  0  0  0
  187.9050  178.2420  142.1490 C   0  0  1  0  0  3  0  0  0  0  0  0
  181.4140  176.9580  140.2660 C   0  0  0  0  0  3  0  0  0  0  0  0
  184.9090  178.7730  145.1550 C   0  0  0  0  0  2  0  0  0  0  0  0
  182.0860  178.5130  141.9660 C   0  0  0  0  0  0  0  0  0  0  0  0
  181.0660  177.8040  141.3320 C   0  0  0  0  0  3  0  0  0  0  0  0
  186.9020  177.5380  144.4060 N   0  0  0  0  0  0  0  0  0  0  0  0
  187.0250  176.7470  145.6230 C   0  0  0  0  0  1  0  0  0  0  0  0
  186.4590  178.3930  141.6980 C   0  0  0  0  0  2  0  0  0  0  0  0
  182.7560  176.8540  139.8480 C   0  0  0  0  0  3  0  0  0  0  0  0
  183.2250  179.7840  143.5110 C   0  0  2  0  0  3  0  0  0  0  0  0
  181.9420  179.3950  143.0200 O   0  0  0  0  0  0  0  0  0  0  0  0
  188.0260  177.5900  143.5050 C   0  0  0  0  0  0  0  0  0  0  0  0
  183.7600  177.5910  140.4980 C   0  0  0  0  0  3  0  0  0  0  0  0
  189.1480  177.1480  143.8750 O   0  0  0  0  0  0  0  0  0  0  0  0
  185.5650  178.0070  144.0160 C   0  0  2  0  0  3  0  0  0  0  0  0
  188.7430  177.5350  141.0790 C   0  0  0  0  0  2  0  0  0  0  0  0
  188.8120  178.3130  139.7700 C   0  0  0  0  0  2  0  0  0  0  0  0
  188.3850  177.2340  138.3700 S   0  0  0  0  0  0  0  0  0  0  0  0
  188.3010  178.6130  137.2380 C   0  0  0  0  0  0  0  0  0  0  0  0
  189.0550  179.7540  137.4790 O   0  0  0  0  0  1  0  0  0  0  0  0
  187.5550  178.5530  136.2270 O   0  0  0  0  0  0  0  0  0  0  0  0
  1  4  1  1  0  0  0
  1  2  1  0  0  0  0
  1 14  1  0  0  0  0
  2 12  1  6  0  0  0
  2 19  1  0  0  0  0
  3  7  1  0  0  0  0
  4  8  1  0  0  0  0
  5 20  1  6  0  0  0
  5 16  1  0  0  0  0
  6  9  1  0  0  0  0
  8 15  1  0  0  0  0
  9  8  2  0  0  0  0
 10 11  1  0  0  0  0
 12  5  1  0  0  0  0
 13  6  2  0  0  0  0
 13 17  1  0  0  0  0
 14  3  1  1  0  0  0
 15 14  1  0  0  0  0
 16 18  2  0  0  0  0
 16 10  1  0  0  0  0
 17  4  2  0  0  0  0
 19 10  1  0  0  0  0
 19  7  1  1  0  0  0
 21 20  1  0  0  0  0
 22 21  1  0  0  0  0
 23 24  1  0  0  0  0
 23 22  1  0  0  0  0
 25 23  2  0  0  0  0
M  END
>  <MODEL>
8

>  <REMARK>
 VINA RESULT:      -6.3      3.020      6.333
  Name = 
  4 active torsions:
  status: ('A' for Active; 'I' for Inactive)
    1  A    between atoms: C_2  and  S_21
    2  A    between atoms: C_6  and  C_15
    3  A    between atoms: C_15  and  C_25
    4  A    between atoms: S_21  and  C_25
                            x       y       z     vdW  Elec       q    Type
                         _______ _______ _______ _____ _____    ______ ____

>  <TORSDO>
F 4

$$$$
=
 OpenBabel10262419563D

 25 28  0  0  1  0  0  0  0  0999 V2000
  187.6830  178.9410  141.4150 C   0  0  1  0  0  3  0  0  0  0  0  0
  186.1700  179.0570  141.6810 C   0  0  2  0  0  3  0  0  0  0  0  0
  187.0530  178.1140  139.0350 C   0  0  0  0  0  2  0  0  0  0  0  0
  188.4150  177.7850  142.0160 C   0  0  0  0  0  0  0  0  0  0  0  0
  184.3610  179.3370  143.3780 C   0  0  1  0  0  3  0  0  0  0  0  0
  190.2240  175.7980  142.7230 C   0  0  0  0  0  3  0  0  0  0  0  0
  185.6100  178.4400  139.3860 C   0  0  0  0  0  2  0  0  0  0  0  0
  189.3560  177.3570  141.1190 C   0  0  0  0  0  0  0  0  0  0  0  0
  190.2770  176.3600  141.4370 C   0  0  0  0  0  3  0  0  0  0  0  0
  183.9240  178.1300  141.1520 N   0  0  0  0  0  0  0  0  0  0  0  0
  183.0110  177.3570  140.3210 C   0  0  0  0  0  1  0  0  0  0  0  0
  185.8170  178.9520  143.1530 C   0  0  0  0  0  2  0  0  0  0  0  0
  189.2730  176.2510  143.6600 C   0  0  0  0  0  3  0  0  0  0  0  0
  188.0840  178.8470  139.9090 C   0  0  2  0  0  3  0  0  0  0  0  0
  189.2570  178.0320  139.9170 O   0  0  0  0  0  0  0  0  0  0  0  0
  183.4280  178.6800  142.3890 C   0  0  0  0  0  0  0  0  0  0  0  0
  188.3660  177.2670  143.3140 C   0  0  0  0  0  3  0  0  0  0  0  0
  182.1880  178.6790  142.6240 O   0  0  0  0  0  0  0  0  0  0  0  0
  185.3600  178.0760  140.8410 C   0  0  2  0  0  3  0  0  0  0  0  0
  183.9460  179.0910  144.8310 C   0  0  0  0  0  2  0  0  0  0  0  0
  184.9850  178.2990  145.6180 C   0  0  0  0  0  2  0  0  0  0  0  0
  185.6970  179.3280  146.9370 S   0  0  0  0  0  0  0  0  0  0  0  0
  186.9850  178.1370  147.2710 C   0  0  0  0  0  0  0  0  0  0  0  0
  187.7670  178.2640  148.4110 O   0  0  0  0  0  1  0  0  0  0  0  0
  187.1870  177.1880  146.4710 O   0  0  0  0  0  0  0  0  0  0  0  0
  1  2  1  0  0  0  0
  1  4  1  1  0  0  0
  2 12  1  1  0  0  0
  3  7  1  0  0  0  0
  4 17  1  0  0  0  0
  5 20  1  1  0  0  0
  6 13  1  0  0  0  0
  8  9  1  0  0  0  0
  8  4  2  0  0  0  0
  9  6  2  0  0  0  0
 10 16  1  0  0  0  0
 11 10  1  0  0  0  0
 12  5  1  0  0  0  0
 14  3  1  6  0  0  0
 14 15  1  0  0  0  0
 14  1  1  0  0  0  0
 15  8  1  0  0  0  0
 16 18  2  0  0  0  0
 16  5  1  0  0  0  0
 17 13  2  0  0  0  0
 19  7  1  6  0  0  0
 19 10  1  0  0  0  0
 19  2  1  0  0  0  0
 20 21  1  0  0  0  0
 21 22  1  0  0  0  0
 22 23  1  0  0  0  0
 23 24  1  0  0  0  0
 25 23  2  0  0  0  0
M  END
>  <MODEL>
9

>  <REMARK>
 VINA RESULT:      -6.2      2.190      5.204
  Name = 
  4 active torsions:
  status: ('A' for Active; 'I' for Inactive)
    1  A    between atoms: C_2  and  S_21
    2  A    between atoms: C_6  and  C_15
    3  A    between atoms: C_15  and  C_25
    4  A    between atoms: S_21  and  C_25
                            x       y       z     vdW  Elec       q    Type
                         _______ _______ _______ _____ _____    ______ ____

>  <TORSDO>
F 4

$$$$
