=
 OpenBabel10262422163D

 43 47  0  0  1  0  0  0  0  0999 V2000
  190.2520  176.0480  138.4390 N   0  0  0  0  0  2  0  0  0  0  0  0
  189.4280  178.2600  139.0120 C   0  0  2  0  0  3  0  0  0  0  0  0
  190.4990  177.2090  138.9280 C   0  0  0  0  0  0  0  0  0  0  0  0
  189.6450  176.8320  141.7940 N   0  0  0  0  0  0  0  0  0  0  0  0
  188.3440  177.9160  140.0280 C   0  0  0  0  0  2  0  0  0  0  0  0
  191.9350  176.6810  140.8910 C   0  0  0  0  0  2  0  0  0  0  0  0
  191.0510  177.2520  141.9980 C   0  0  2  0  0  3  0  0  0  0  0  0
  188.8800  178.0240  141.4510 C   0  0  0  0  0  2  0  0  0  0  0  0
  191.8080  177.4730  139.5970 C   0  0  0  0  0  2  0  0  0  0  0  0
  191.4240  176.5460  146.1750 C   0  0  1  0  0  3  0  0  0  0  0  0
  191.5000  178.0430  144.4700 C   0  0  0  0  0  0  0  0  0  0  0  0
  191.9710  175.3970  145.3300 C   0  0  0  0  0  2  0  0  0  0  0  0
  191.7660  176.3050  147.6290 C   0  0  0  0  0  1  0  0  0  0  0  0
  191.7080  176.9720  143.3750 C   0  0  1  0  0  3  0  0  0  0  0  0
  191.9930  177.7640  145.7580 O   0  0  0  0  0  0  0  0  0  0  0  0
  191.4650  175.5520  143.9010 C   0  0  0  0  0  2  0  0  0  0  0  0
  191.9490  179.4170  144.0200 C   0  0  0  0  0  2  0  0  0  0  0  0
  190.4890  179.1670  144.3580 C   0  0  0  0  0  2  0  0  0  0  0  0
  189.0030  176.2370  142.9660 C   0  0  0  0  0  2  0  0  0  0  0  0
  187.1140  178.0380  145.8220 C   0  0  0  0  0  2  0  0  0  0  0  0
  185.7000  177.8990  145.2550 C   0  0  2  0  0  3  0  0  0  0  0  0
  186.6390  177.1030  143.0790 C   0  0  0  0  0  2  0  0  0  0  0  0
  188.0490  177.0280  145.1650 C   0  0  0  0  0  2  0  0  0  0  0  0
  188.0530  177.2190  143.6470 C   0  0  1  0  0  3  0  0  0  0  0  0
  185.7220  178.1230  143.7460 C   0  0  0  0  0  2  0  0  0  0  0  0
  183.4770  179.0130  145.1210 C   0  0  0  0  0  1  0  0  0  0  0  0
  184.7760  178.9140  145.9000 C   0  0  0  0  0  2  0  0  0  0  0  0
  188.8690  178.6720  137.6470 C   0  0  0  0  0  2  0  0  0  0  0  0
  188.1770  177.5400  136.8890 C   0  0  0  0  0  2  0  0  0  0  0  0
  186.6400  177.8490  134.9320 C   0  0  0  0  0  1  0  0  0  0  0  0
  186.7720  177.9250  136.4470 C   0  0  1  0  0  3  0  0  0  0  0  0
  185.7240  177.0750  137.1820 C   0  0  1  0  0  3  0  0  0  0  0  0
  184.6620  177.8560  137.9030 C   0  0  0  0  0  0  0  0  0  0  0  0
  184.0580  179.3770  139.6930 C   0  0  0  0  0  3  0  0  0  0  0  0
  182.3390  178.4710  138.2490 C   0  0  0  0  0  3  0  0  0  0  0  0
  182.7130  179.2830  139.3230 C   0  0  0  0  0  3  0  0  0  0  0  0
  183.3110  177.7590  137.5420 C   0  0  0  0  0  3  0  0  0  0  0  0
  185.0300  178.6630  138.9850 C   0  0  0  0  0  3  0  0  0  0  0  0
  185.2190  175.8230  136.4460 C   0  0  0  0  0  2  0  0  0  0  0  0
  185.5780  174.5360  137.1160 C   0  0  0  0  0  0  0  0  0  0  0  0
  184.6470  173.8140  137.6530 N   0  0  0  0  0  2  0  0  0  0  0  0
  187.7050  174.0380  135.9690 C   0  0  0  0  0  1  0  0  0  0  0  0
  186.9120  174.1230  137.1420 O   0  0  0  0  0  0  0  0  0  0  0  0
  1  3  2  0  0  0  0
  2 28  1  6  0  0  0
  2  5  1  0  0  0  0
  3  2  1  0  0  0  0
  3  9  1  0  0  0  0
  4  7  1  0  0  0  0
  4 19  1  0  0  0  0
  5  8  1  0  0  0  0
  7  6  1  6  0  0  0
  7 14  1  0  0  0  0
  8  4  1  0  0  0  0
  9  6  1  0  0  0  0
 10 13  1  1  0  0  0
 11 15  1  0  0  0  0
 12 10  1  0  0  0  0
 14 16  1  1  0  0  0
 14 11  1  0  0  0  0
 15 10  1  0  0  0  0
 16 12  1  0  0  0  0
 17 18  1  0  0  0  0
 17 11  1  0  0  0  0
 18 11  1  0  0  0  0
 21 20  1  0  0  0  0
 21 27  1  1  0  0  0
 22 24  1  0  0  0  0
 22 25  1  0  0  0  0
 23 20  1  0  0  0  0
 24 19  1  6  0  0  0
 24 23  1  0  0  0  0
 25 21  1  0  0  0  0
 26 27  1  0  0  0  0
 29 28  1  0  0  0  0
 31 30  1  6  0  0  0
 31 29  1  0  0  0  0
 31 32  1  0  0  0  0
 32 39  1  6  0  0  0
 32 33  1  0  0  0  0
 33 38  1  0  0  0  0
 35 36  2  0  0  0  0
 36 34  1  0  0  0  0
 37 33  2  0  0  0  0
 37 35  1  0  0  0  0
 38 34  2  0  0  0  0
 39 40  1  0  0  0  0
 40 43  1  0  0  0  0
 40 41  2  0  0  0  0
 42 43  1  0  0  0  0
M  END
>  <MODEL>
1

>  <REMARK>
 VINA RESULT:      -8.7      0.000      0.000
  Name = 
  12 active torsions:
  status: ('A' for Active; 'I' for Inactive)
    1  A    between atoms: C_1  and  N_8
    2  A    between atoms: C_1  and  C_35
    3  A    between atoms: C_4  and  C_12
    4  A    between atoms: C_4  and  C_14
    5  A    between atoms: C_6  and  C_17
    6  A    between atoms: C_10  and  C_41
    7  A    between atoms: C_10  and  O_42
    8  A    between atoms: C_11  and  C_14
    9  A    between atoms: C_12  and  C_17
   10  A    between atoms: C_14  and  C_41
   11  A    between atoms: C_19  and  C_37
   12  A    between atoms: C_21  and  C_30
                            x       y       z     vdW  Elec       q    Type
                         _______ _______ _______ _____ _____    ______ ____

>  <TORSDO>
F 12

$$$$
=
 OpenBabel10262422163D

 43 47  0  0  1  0  0  0  0  0999 V2000
  190.3320  175.9020  138.4350 N   0  0  0  0  0  2  0  0  0  0  0  0
  189.4790  178.1180  138.9460 C   0  0  2  0  0  3  0  0  0  0  0  0
  190.5620  177.0760  138.9000 C   0  0  0  0  0  0  0  0  0  0  0  0
  189.6750  176.7580  141.7630 N   0  0  0  0  0  0  0  0  0  0  0  0
  188.3860  177.7870  139.9560 C   0  0  0  0  0  2  0  0  0  0  0  0
  191.9780  176.6100  140.8930 C   0  0  0  0  0  2  0  0  0  0  0  0
  191.0740  177.1980  141.9740 C   0  0  2  0  0  3  0  0  0  0  0  0
  188.9020  177.9340  141.3830 C   0  0  0  0  0  2  0  0  0  0  0  0
  191.8600  177.3690  139.5790 C   0  0  0  0  0  2  0  0  0  0  0  0
  191.4030  176.6190  146.1750 C   0  0  1  0  0  3  0  0  0  0  0  0
  191.5040  178.0620  144.4250 C   0  0  0  0  0  0  0  0  0  0  0  0
  191.9510  175.4420  145.3710 C   0  0  0  0  0  2  0  0  0  0  0  0
  191.7290  176.4210  147.6390 C   0  0  0  0  0  1  0  0  0  0  0  0
  191.7160  176.9570  143.3660 C   0  0  1  0  0  3  0  0  0  0  0  0
  191.9830  177.8200  145.7260 O   0  0  0  0  0  0  0  0  0  0  0  0
  191.4600  175.5550  143.9330 C   0  0  0  0  0  2  0  0  0  0  0  0
  191.9650  179.4200  143.9370 C   0  0  0  0  0  2  0  0  0  0  0  0
  190.5010  179.1880  144.2690 C   0  0  0  0  0  2  0  0  0  0  0  0
  189.0230  176.1850  142.9410 C   0  0  0  0  0  2  0  0  0  0  0  0
  187.1370  178.0560  145.7530 C   0  0  0  0  0  2  0  0  0  0  0  0
  185.7220  177.8890  145.1990 C   0  0  2  0  0  3  0  0  0  0  0  0
  186.6540  177.0350  143.0420 C   0  0  0  0  0  2  0  0  0  0  0  0
  188.0770  177.0340  145.1210 C   0  0  0  0  0  2  0  0  0  0  0  0
  188.0710  177.1790  143.5970 C   0  0  1  0  0  3  0  0  0  0  0  0
  185.7320  178.0680  143.6830 C   0  0  0  0  0  2  0  0  0  0  0  0
  183.6340  179.2100  144.8840 C   0  0  0  0  0  1  0  0  0  0  0  0
  184.7930  178.9160  145.8180 C   0  0  0  0  0  2  0  0  0  0  0  0
  188.9330  178.4920  137.5640 C   0  0  0  0  0  2  0  0  0  0  0  0
  187.4090  178.4500  137.4630 C   0  0  0  0  0  2  0  0  0  0  0  0
  188.1260  177.4760  135.2670 C   0  0  0  0  0  1  0  0  0  0  0  0
  186.9420  177.9250  136.1120 C   0  0  1  0  0  3  0  0  0  0  0  0
  185.8890  176.8220  136.2990 C   0  0  1  0  0  3  0  0  0  0  0  0
  186.3820  175.4230  136.0610 C   0  0  0  0  0  0  0  0  0  0  0  0
  187.6300  173.4980  136.8500 C   0  0  0  0  0  3  0  0  0  0  0  0
  186.6420  173.4710  134.6400 C   0  0  0  0  0  3  0  0  0  0  0  0
  187.3830  172.8390  135.6420 C   0  0  0  0  0  3  0  0  0  0  0  0
  186.1450  174.7600  134.8480 C   0  0  0  0  0  3  0  0  0  0  0  0
  187.1330  174.7890  137.0570 C   0  0  0  0  0  3  0  0  0  0  0  0
  184.9400  176.9770  137.5000 C   0  0  0  0  0  2  0  0  0  0  0  0
  183.5910  177.5140  137.1440 C   0  0  0  0  0  0  0  0  0  0  0  0
  182.9800  177.0640  136.0940 N   0  0  0  0  0  2  0  0  0  0  0  0
  183.0520  178.4250  139.3730 C   0  0  0  0  0  1  0  0  0  0  0  0
  183.0010  178.4850  137.9560 O   0  0  0  0  0  0  0  0  0  0  0  0
  1  3  2  0  0  0  0
  2 28  1  6  0  0  0
  2  5  1  0  0  0  0
  3  2  1  0  0  0  0
  3  9  1  0  0  0  0
  4  7  1  0  0  0  0
  4 19  1  0  0  0  0
  5  8  1  0  0  0  0
  7  6  1  6  0  0  0
  7 14  1  0  0  0  0
  8  4  1  0  0  0  0
  9  6  1  0  0  0  0
 10 13  1  1  0  0  0
 11 15  1  0  0  0  0
 12 10  1  0  0  0  0
 14 16  1  1  0  0  0
 14 11  1  0  0  0  0
 15 10  1  0  0  0  0
 16 12  1  0  0  0  0
 17 18  1  0  0  0  0
 17 11  1  0  0  0  0
 18 11  1  0  0  0  0
 21 20  1  0  0  0  0
 21 27  1  1  0  0  0
 22 24  1  0  0  0  0
 22 25  1  0  0  0  0
 23 20  1  0  0  0  0
 24 19  1  6  0  0  0
 24 23  1  0  0  0  0
 25 21  1  0  0  0  0
 26 27  1  0  0  0  0
 29 28  1  0  0  0  0
 31 30  1  1  0  0  0
 31 32  1  0  0  0  0
 31 29  1  0  0  0  0
 32 39  1  1  0  0  0
 33 32  1  0  0  0  0
 33 38  1  0  0  0  0
 34 38  2  0  0  0  0
 35 37  1  0  0  0  0
 35 36  2  0  0  0  0
 36 34  1  0  0  0  0
 37 33  2  0  0  0  0
 40 39  1  0  0  0  0
 40 43  1  0  0  0  0
 41 40  2  0  0  0  0
 43 42  1  0  0  0  0
M  END
>  <MODEL>
2

>  <REMARK>
 VINA RESULT:      -8.0      1.295      2.944
  Name = 
  12 active torsions:
  status: ('A' for Active; 'I' for Inactive)
    1  A    between atoms: C_1  and  N_8
    2  A    between atoms: C_1  and  C_35
    3  A    between atoms: C_4  and  C_12
    4  A    between atoms: C_4  and  C_14
    5  A    between atoms: C_6  and  C_17
    6  A    between atoms: C_10  and  C_41
    7  A    between atoms: C_10  and  O_42
    8  A    between atoms: C_11  and  C_14
    9  A    between atoms: C_12  and  C_17
   10  A    between atoms: C_14  and  C_41
   11  A    between atoms: C_19  and  C_37
   12  A    between atoms: C_21  and  C_30
                            x       y       z     vdW  Elec       q    Type
                         _______ _______ _______ _____ _____    ______ ____

>  <TORSDO>
F 12

$$$$
=
 OpenBabel10262422163D

 43 47  0  0  1  0  0  0  0  0999 V2000
  187.5680  179.2520  136.9890 N   0  0  0  0  0  2  0  0  0  0  0  0
  187.1960  177.9230  138.9880 C   0  0  2  0  0  3  0  0  0  0  0  0
  187.4060  178.0890  137.5090 C   0  0  0  0  0  0  0  0  0  0  0  0
  184.4000  177.8840  137.5710 N   0  0  0  0  0  0  0  0  0  0  0  0
  185.8500  178.4640  139.4550 C   0  0  0  0  0  2  0  0  0  0  0  0
  185.9200  176.9550  135.8660 C   0  0  0  0  0  2  0  0  0  0  0  0
  184.7230  176.6790  136.7740 C   0  0  2  0  0  3  0  0  0  0  0  0
  184.7080  177.5820  138.9630 C   0  0  0  0  0  2  0  0  0  0  0  0
  187.2370  176.8950  136.6280 C   0  0  0  0  0  2  0  0  0  0  0  0
  180.8470  175.3020  135.6940 C   0  0  1  0  0  3  0  0  0  0  0  0
  182.8790  174.8090  136.5800 C   0  0  0  0  0  0  0  0  0  0  0  0
  181.4090  176.3210  134.7060 C   0  0  0  0  0  2  0  0  0  0  0  0
  179.5630  174.7240  135.1420 C   0  0  0  0  0  1  0  0  0  0  0  0
  183.5900  176.0240  135.9420 C   0  0  1  0  0  3  0  0  0  0  0  0
  181.7770  174.2640  135.8950 O   0  0  0  0  0  0  0  0  0  0  0  0
  182.5950  177.0290  135.3490 C   0  0  0  0  0  2  0  0  0  0  0  0
  183.8520  173.7150  136.9680 C   0  0  0  0  0  2  0  0  0  0  0  0
  183.0340  174.4200  138.0370 C   0  0  0  0  0  2  0  0  0  0  0  0
  182.9970  178.2960  137.5270 C   0  0  0  0  0  2  0  0  0  0  0  0
  180.6110  177.1360  140.3430 C   0  0  0  0  0  2  0  0  0  0  0  0
  180.0920  178.5150  140.7550 C   0  0  2  0  0  3  0  0  0  0  0  0
  181.8380  179.6080  139.3390 C   0  0  0  0  0  2  0  0  0  0  0  0
  181.2240  177.1970  138.9470 C   0  0  0  0  0  2  0  0  0  0  0  0
  182.3490  178.2340  138.9070 C   0  0  1  0  0  3  0  0  0  0  0  0
  181.2340  179.5270  140.7370 C   0  0  0  0  0  2  0  0  0  0  0  0
  179.9550  179.6460  142.9690 C   0  0  0  0  0  1  0  0  0  0  0  0
  179.4960  178.4550  142.1490 C   0  0  0  0  0  2  0  0  0  0  0  0
  188.3740  178.4200  139.8310 C   0  0  0  0  0  2  0  0  0  0  0  0
  188.0120  178.7390  141.2810 C   0  0  0  0  0  2  0  0  0  0  0  0
  189.1080  176.6020  142.0040 C   0  0  0  0  0  1  0  0  0  0  0  0
  187.8680  177.4780  142.1230 C   0  0  1  0  0  3  0  0  0  0  0  0
  187.5270  177.8380  143.5770 C   0  0  1  0  0  3  0  0  0  0  0  0
  186.0830  178.1650  143.8310 C   0  0  0  0  0  0  0  0  0  0  0  0
  183.8400  178.4750  142.9600 C   0  0  0  0  0  3  0  0  0  0  0  0
  184.2860  178.8600  145.3080 C   0  0  0  0  0  3  0  0  0  0  0  0
  183.3910  178.8310  144.2350 C   0  0  0  0  0  3  0  0  0  0  0  0
  185.6290  178.5300  145.1060 C   0  0  0  0  0  3  0  0  0  0  0  0
  185.1840  178.1460  142.7580 C   0  0  0  0  0  3  0  0  0  0  0  0
  188.1990  176.9880  144.6690 C   0  0  0  0  0  2  0  0  0  0  0  0
  189.2460  177.7150  145.4490 C   0  0  0  0  0  0  0  0  0  0  0  0
  190.0860  178.4830  144.8300 N   0  0  0  0  0  2  0  0  0  0  0  0
  188.1280  177.4250  147.6290 C   0  0  0  0  0  1  0  0  0  0  0  0
  189.2960  177.5680  146.8370 O   0  0  0  0  0  0  0  0  0  0  0  0
  1  3  2  0  0  0  0
  2  5  1  0  0  0  0
  2 28  1  1  0  0  0
  3  2  1  0  0  0  0
  4  8  1  0  0  0  0
  6  9  1  0  0  0  0
  7  6  1  6  0  0  0
  7  4  1  0  0  0  0
  8  5  1  0  0  0  0
  9  3  1  0  0  0  0
 10 13  1  6  0  0  0
 10 15  1  0  0  0  0
 11 17  1  0  0  0  0
 11 18  1  0  0  0  0
 12 16  1  0  0  0  0
 12 10  1  0  0  0  0
 14 16  1  1  0  0  0
 14 11  1  0  0  0  0
 14  7  1  0  0  0  0
 15 11  1  0  0  0  0
 17 18  1  0  0  0  0
 19  4  1  0  0  0  0
 20 21  1  0  0  0  0
 21 27  1  1  0  0  0
 22 25  1  0  0  0  0
 23 20  1  0  0  0  0
 24 19  1  6  0  0  0
 24 23  1  0  0  0  0
 24 22  1  0  0  0  0
 25 21  1  0  0  0  0
 27 26  1  0  0  0  0
 28 29  1  0  0  0  0
 29 31  1  0  0  0  0
 31 30  1  1  0  0  0
 31 32  1  0  0  0  0
 32 33  1  0  0  0  0
 32 39  1  1  0  0  0
 33 37  1  0  0  0  0
 34 36  2  0  0  0  0
 36 35  1  0  0  0  0
 37 35  2  0  0  0  0
 38 34  1  0  0  0  0
 38 33  2  0  0  0  0
 39 40  1  0  0  0  0
 40 43  1  0  0  0  0
 41 40  2  0  0  0  0
 43 42  1  0  0  0  0
M  END
>  <MODEL>
3

>  <REMARK>
 VINA RESULT:      -7.9      2.475      8.764
  Name = 
  12 active torsions:
  status: ('A' for Active; 'I' for Inactive)
    1  A    between atoms: C_1  and  N_8
    2  A    between atoms: C_1  and  C_35
    3  A    between atoms: C_4  and  C_12
    4  A    between atoms: C_4  and  C_14
    5  A    between atoms: C_6  and  C_17
    6  A    between atoms: C_10  and  C_41
    7  A    between atoms: C_10  and  O_42
    8  A    between atoms: C_11  and  C_14
    9  A    between atoms: C_12  and  C_17
   10  A    between atoms: C_14  and  C_41
   11  A    between atoms: C_19  and  C_37
   12  A    between atoms: C_21  and  C_30
                            x       y       z     vdW  Elec       q    Type
                         _______ _______ _______ _____ _____    ______ ____

>  <TORSDO>
F 12

$$$$
=
 OpenBabel10262422163D

 43 47  0  0  1  0  0  0  0  0999 V2000
  180.4090  178.0510  143.9250 N   0  0  0  0  0  2  0  0  0  0  0  0
  182.4810  179.0980  143.2130 C   0  0  2  0  0  3  0  0  0  0  0  0
  180.9850  179.0390  143.3420 C   0  0  0  0  0  0  0  0  0  0  0  0
  181.2900  177.9750  140.5390 N   0  0  0  0  0  0  0  0  0  0  0  0
  183.0310  178.0440  142.2580 C   0  0  0  0  0  2  0  0  0  0  0  0
  179.5090  179.4580  141.3820 C   0  0  0  0  0  2  0  0  0  0  0  0
  180.5180  179.2080  140.2630 C   0  0  2  0  0  3  0  0  0  0  0  0
  182.6650  178.3740  140.8150 C   0  0  0  0  0  2  0  0  0  0  0  0
  180.1680  180.0580  142.6170 C   0  0  0  0  0  2  0  0  0  0  0  0
  179.9200  179.1650  136.0530 C   0  0  1  0  0  3  0  0  0  0  0  0
  180.3720  180.3870  137.9130 C   0  0  0  0  0  0  0  0  0  0  0  0
  179.0080  178.1870  136.7890 C   0  0  0  0  0  2  0  0  0  0  0  0
  179.5150  179.2280  134.5960 C   0  0  0  0  0  1  0  0  0  0  0  0
  179.8040  179.3350  138.8920 C   0  0  1  0  0  3  0  0  0  0  0  0
  179.8110  180.4480  136.6230 O   0  0  0  0  0  0  0  0  0  0  0  0
  179.5370  177.9900  138.2050 C   0  0  0  0  0  2  0  0  0  0  0  0
  180.4290  181.7700  138.5280 C   0  0  0  0  0  2  0  0  0  0  0  0
  181.7100  181.0720  138.1050 C   0  0  0  0  0  2  0  0  0  0  0  0
  181.3400  177.0170  139.4350 C   0  0  0  0  0  2  0  0  0  0  0  0
  184.6970  177.6900  137.6350 C   0  0  0  0  0  2  0  0  0  0  0  0
  184.8040  176.3580  136.8910 C   0  0  2  0  0  3  0  0  0  0  0  0
  182.8950  175.4470  138.2240 C   0  0  0  0  0  2  0  0  0  0  0  0
  183.2580  177.9350  138.0760 C   0  0  0  0  0  2  0  0  0  0  0  0
  182.7700  176.7820  138.9570 C   0  0  1  0  0  3  0  0  0  0  0  0
  184.3410  175.2190  137.7950 C   0  0  0  0  0  2  0  0  0  0  0  0
  187.1950  176.8450  137.3840 C   0  0  0  0  0  1  0  0  0  0  0  0
  186.2380  176.1090  136.4650 C   0  0  0  0  0  2  0  0  0  0  0  0
  183.2100  179.1330  144.5590 C   0  0  0  0  0  2  0  0  0  0  0  0
  184.6880  179.5080  144.4590 C   0  0  0  0  0  2  0  0  0  0  0  0
  184.6170  178.1540  146.5690 C   0  0  0  0  0  1  0  0  0  0  0  0
  185.4810  179.0240  145.6660 C   0  0  1  0  0  3  0  0  0  0  0  0
  186.7710  178.3220  145.2160 C   0  0  1  0  0  3  0  0  0  0  0  0
  187.7610  178.0450  146.3110 C   0  0  0  0  0  0  0  0  0  0  0  0
  189.8820  177.0920  147.0020 C   0  0  0  0  0  3  0  0  0  0  0  0
  188.4180  178.0940  148.6480 C   0  0  0  0  0  3  0  0  0  0  0  0
  189.6130  177.4460  148.3270 C   0  0  0  0  0  3  0  0  0  0  0  0
  187.4930  178.3910  147.6440 C   0  0  0  0  0  3  0  0  0  0  0  0
  188.9560  177.3890  145.9970 C   0  0  0  0  0  3  0  0  0  0  0  0
  186.6120  177.1900  144.1870 C   0  0  0  0  0  2  0  0  0  0  0  0
  187.4690  177.3470  142.9720 C   0  0  0  0  0  0  0  0  0  0  0  0
  188.4880  176.5650  142.8040 N   0  0  0  0  0  2  0  0  0  0  0  0
  187.7150  178.3350  140.7250 C   0  0  0  0  0  1  0  0  0  0  0  0
  187.1520  178.3250  142.0270 O   0  0  0  0  0  0  0  0  0  0  0  0
  2  3  1  0  0  0  0
  2 28  1  1  0  0  0
  3  1  2  0  0  0  0
  4  8  1  0  0  0  0
  5  2  1  0  0  0  0
  6  9  1  0  0  0  0
  7  4  1  0  0  0  0
  7  6  1  1  0  0  0
  8  5  1  0  0  0  0
  9  3  1  0  0  0  0
 10 13  1  6  0  0  0
 10 15  1  0  0  0  0
 10 12  1  0  0  0  0
 11 18  1  0  0  0  0
 11 17  1  0  0  0  0
 11 14  1  0  0  0  0
 12 16  1  0  0  0  0
 14 16  1  6  0  0  0
 14  7  1  0  0  0  0
 15 11  1  0  0  0  0
 18 17  1  0  0  0  0
 19  4  1  0  0  0  0
 20 23  1  0  0  0  0
 21 27  1  1  0  0  0
 21 20  1  0  0  0  0
 21 25  1  0  0  0  0
 22 24  1  0  0  0  0
 23 24  1  0  0  0  0
 24 19  1  6  0  0  0
 25 22  1  0  0  0  0
 27 26  1  0  0  0  0
 29 28  1  0  0  0  0
 29 31  1  0  0  0  0
 31 30  1  6  0  0  0
 32 39  1  1  0  0  0
 32 31  1  0  0  0  0
 32 33  1  0  0  0  0
 33 37  1  0  0  0  0
 34 36  2  0  0  0  0
 36 35  1  0  0  0  0
 37 35  2  0  0  0  0
 38 33  2  0  0  0  0
 38 34  1  0  0  0  0
 40 39  1  0  0  0  0
 41 40  2  0  0  0  0
 42 43  1  0  0  0  0
 43 40  1  0  0  0  0
M  END
>  <MODEL>
4

>  <REMARK>
 VINA RESULT:      -7.4      3.228     10.438
  Name = 
  12 active torsions:
  status: ('A' for Active; 'I' for Inactive)
    1  A    between atoms: C_1  and  N_8
    2  A    between atoms: C_1  and  C_35
    3  A    between atoms: C_4  and  C_12
    4  A    between atoms: C_4  and  C_14
    5  A    between atoms: C_6  and  C_17
    6  A    between atoms: C_10  and  C_41
    7  A    between atoms: C_10  and  O_42
    8  A    between atoms: C_11  and  C_14
    9  A    between atoms: C_12  and  C_17
   10  A    between atoms: C_14  and  C_41
   11  A    between atoms: C_19  and  C_37
   12  A    between atoms: C_21  and  C_30
                            x       y       z     vdW  Elec       q    Type
                         _______ _______ _______ _____ _____    ______ ____

>  <TORSDO>
F 12

$$$$
=
 OpenBabel10262422163D

 43 47  0  0  1  0  0  0  0  0999 V2000
  185.2370  180.3230  144.3760 N   0  0  0  0  0  2  0  0  0  0  0  0
  184.8860  178.0230  143.6810 C   0  0  2  0  0  3  0  0  0  0  0  0
  185.2480  179.0780  144.6880 C   0  0  0  0  0  0  0  0  0  0  0  0
  188.0090  178.2690  143.7910 N   0  0  0  0  0  0  0  0  0  0  0  0
  185.9220  177.8890  142.5710 C   0  0  0  0  0  2  0  0  0  0  0  0
  187.3050  178.8770  146.0750 C   0  0  0  0  0  2  0  0  0  0  0  0
  188.0770  177.8770  145.2170 C   0  0  2  0  0  3  0  0  0  0  0  0
  187.2090  177.2660  143.1000 C   0  0  0  0  0  2  0  0  0  0  0  0
  185.8020  178.6440  146.0060 C   0  0  0  0  0  2  0  0  0  0  0  0
  191.3070  175.8680  147.1190 C   0  0  1  0  0  3  0  0  0  0  0  0
  189.5000  177.2260  147.3360 C   0  0  0  0  0  0  0  0  0  0  0  0
  191.6760  176.4030  145.7370 C   0  0  0  0  0  2  0  0  0  0  0  0
  192.5520  175.3420  147.8010 C   0  0  0  0  0  1  0  0  0  0  0  0
  189.4740  177.6350  145.8450 C   0  0  1  0  0  3  0  0  0  0  0  0
  190.7460  176.8950  147.9000 O   0  0  0  0  0  0  0  0  0  0  0  0
  190.3970  176.7580  144.9890 C   0  0  0  0  0  2  0  0  0  0  0  0
  188.7690  178.2180  148.2150 C   0  0  0  0  0  2  0  0  0  0  0  0
  188.2690  176.7880  148.1040 C   0  0  0  0  0  2  0  0  0  0  0  0
  189.3000  178.3290  143.1040 C   0  0  0  0  0  2  0  0  0  0  0  0
  190.4270  176.6770  139.7930 C   0  0  0  0  0  2  0  0  0  0  0  0
  189.9130  177.7560  138.8380 C   0  0  2  0  0  3  0  0  0  0  0  0
  188.6790  178.8480  140.7180 C   0  0  0  0  0  2  0  0  0  0  0  0
  190.5540  177.2380  141.2060 C   0  0  0  0  0  2  0  0  0  0  0  0
  189.2060  177.7850  141.6820 C   0  0  1  0  0  3  0  0  0  0  0  0
  188.5560  178.2660  139.3140 C   0  0  0  0  0  2  0  0  0  0  0  0
  189.0570  178.1820  136.5390 C   0  0  0  0  0  1  0  0  0  0  0  0
  189.7730  177.1910  137.4370 C   0  0  0  0  0  2  0  0  0  0  0  0
  183.4520  178.1440  143.1580 C   0  0  0  0  0  2  0  0  0  0  0  0
  183.3390  178.8290  141.7970 C   0  0  0  0  0  2  0  0  0  0  0  0
  180.8560  178.5980  141.5420 C   0  0  0  0  0  1  0  0  0  0  0  0
  182.2150  178.2420  140.9550 C   0  0  1  0  0  3  0  0  0  0  0  0
  182.3630  178.6690  139.4860 C   0  0  1  0  0  3  0  0  0  0  0  0
  183.3200  177.8420  138.6760 C   0  0  0  0  0  0  0  0  0  0  0  0
  183.8370  175.7400  137.5820 C   0  0  0  0  0  3  0  0  0  0  0  0
  185.4680  177.5270  137.5890 C   0  0  0  0  0  3  0  0  0  0  0  0
  185.0930  176.2330  137.2200 C   0  0  0  0  0  3  0  0  0  0  0  0
  184.5850  178.3290  138.3160 C   0  0  0  0  0  3  0  0  0  0  0  0
  182.9530  176.5420  138.3120 C   0  0  0  0  0  3  0  0  0  0  0  0
  181.0690  179.0650  138.7540 C   0  0  0  0  0  2  0  0  0  0  0  0
  181.0600  180.4730  138.2520 C   0  0  0  0  0  0  0  0  0  0  0  0
  181.9570  181.3070  138.6730 N   0  0  0  0  0  2  0  0  0  0  0  0
  180.4290  181.4060  136.0570 C   0  0  0  0  0  1  0  0  0  0  0  0
  180.0920  180.8670  137.3260 O   0  0  0  0  0  0  0  0  0  0  0  0
  1  3  2  0  0  0  0
  2 28  1  6  0  0  0
  2  3  1  0  0  0  0
  3  9  1  0  0  0  0
  4  7  1  0  0  0  0
  5  8  1  0  0  0  0
  5  2  1  0  0  0  0
  7 14  1  0  0  0  0
  7  6  1  1  0  0  0
  8  4  1  0  0  0  0
  9  6  1  0  0  0  0
 10 13  1  1  0  0  0
 10 15  1  0  0  0  0
 11 15  1  0  0  0  0
 11 18  1  0  0  0  0
 11 17  1  0  0  0  0
 12 10  1  0  0  0  0
 14 16  1  6  0  0  0
 14 11  1  0  0  0  0
 16 12  1  0  0  0  0
 18 17  1  0  0  0  0
 19  4  1  0  0  0  0
 20 23  1  0  0  0  0
 21 27  1  6  0  0  0
 21 25  1  0  0  0  0
 21 20  1  0  0  0  0
 22 24  1  0  0  0  0
 23 24  1  0  0  0  0
 24 19  1  1  0  0  0
 25 22  1  0  0  0  0
 26 27  1  0  0  0  0
 29 28  1  0  0  0  0
 31 30  1  1  0  0  0
 31 29  1  0  0  0  0
 32 39  1  6  0  0  0
 32 31  1  0  0  0  0
 33 32  1  0  0  0  0
 34 38  1  0  0  0  0
 35 37  2  0  0  0  0
 36 34  2  0  0  0  0
 36 35  1  0  0  0  0
 37 33  1  0  0  0  0
 38 33  2  0  0  0  0
 40 41  2  0  0  0  0
 40 39  1  0  0  0  0
 42 43  1  0  0  0  0
 43 40  1  0  0  0  0
M  END
>  <MODEL>
5

>  <REMARK>
 VINA RESULT:      -7.1      2.706      5.918
  Name = 
  12 active torsions:
  status: ('A' for Active; 'I' for Inactive)
    1  A    between atoms: C_1  and  N_8
    2  A    between atoms: C_1  and  C_35
    3  A    between atoms: C_4  and  C_12
    4  A    between atoms: C_4  and  C_14
    5  A    between atoms: C_6  and  C_17
    6  A    between atoms: C_10  and  C_41
    7  A    between atoms: C_10  and  O_42
    8  A    between atoms: C_11  and  C_14
    9  A    between atoms: C_12  and  C_17
   10  A    between atoms: C_14  and  C_41
   11  A    between atoms: C_19  and  C_37
   12  A    between atoms: C_21  and  C_30
                            x       y       z     vdW  Elec       q    Type
                         _______ _______ _______ _____ _____    ______ ____

>  <TORSDO>
F 12

$$$$
=
 OpenBabel10262422163D

 43 47  0  0  1  0  0  0  0  0999 V2000
  187.3230  178.3980  134.6280 N   0  0  0  0  0  2  0  0  0  0  0  0
  187.6850  177.7790  136.9480 C   0  0  2  0  0  3  0  0  0  0  0  0
  187.5510  177.4690  135.4840 C   0  0  0  0  0  0  0  0  0  0  0  0
  184.7550  176.8120  136.3970 N   0  0  0  0  0  0  0  0  0  0  0  0
  186.3690  178.2200  137.5800 C   0  0  0  0  0  2  0  0  0  0  0  0
  186.0820  175.6220  134.6930 C   0  0  0  0  0  2  0  0  0  0  0  0
  185.1910  175.4780  135.9250 C   0  0  2  0  0  3  0  0  0  0  0  0
  185.3970  177.0510  137.6830 C   0  0  0  0  0  2  0  0  0  0  0  0
  187.4990  176.0370  135.0620 C   0  0  0  0  0  2  0  0  0  0  0  0
  181.7800  173.0060  136.5100 C   0  0  1  0  0  3  0  0  0  0  0  0
  184.0370  173.2200  136.6370 C   0  0  0  0  0  0  0  0  0  0  0  0
  181.6600  173.8970  135.2760 C   0  0  0  0  0  2  0  0  0  0  0  0
  180.6240  172.0300  136.5390 C   0  0  0  0  0  1  0  0  0  0  0  0
  184.1040  174.4070  135.6490 C   0  0  1  0  0  3  0  0  0  0  0  0
  182.9920  172.2920  136.4720 O   0  0  0  0  0  0  0  0  0  0  0  0
  182.7170  174.9910  135.3520 C   0  0  0  0  0  2  0  0  0  0  0  0
  185.3650  172.5030  136.7610 C   0  0  0  0  0  2  0  0  0  0  0  0
  184.7600  173.2000  137.9690 C   0  0  0  0  0  2  0  0  0  0  0  0
  183.3140  176.9520  136.6100 C   0  0  0  0  0  2  0  0  0  0  0  0
  181.9040  177.1070  140.2090 C   0  0  0  0  0  2  0  0  0  0  0  0
  181.1790  178.4480  140.0900 C   0  0  2  0  0  3  0  0  0  0  0  0
  182.2900  178.8650  137.8900 C   0  0  0  0  0  2  0  0  0  0  0  0
  182.1800  176.5290  138.8240 C   0  0  0  0  0  2  0  0  0  0  0  0
  183.0010  177.5170  137.9920 C   0  0  1  0  0  3  0  0  0  0  0  0
  182.0280  179.4270  139.2830 C   0  0  0  0  0  2  0  0  0  0  0  0
  182.0290  178.6290  142.4240 C   0  0  0  0  0  1  0  0  0  0  0  0
  180.9200  179.0270  141.4680 C   0  0  0  0  0  2  0  0  0  0  0  0
  188.8540  178.7150  137.2690 C   0  0  0  0  0  2  0  0  0  0  0  0
  189.1810  178.8170  138.7580 C   0  0  0  0  0  2  0  0  0  0  0  0
  189.8860  176.4140  138.8750 C   0  0  0  0  0  1  0  0  0  0  0  0
  188.9900  177.4880  139.4760 C   0  0  1  0  0  3  0  0  0  0  0  0
  189.1940  177.6600  140.9890 C   0  0  1  0  0  3  0  0  0  0  0  0
  187.9340  177.8460  141.7850 C   0  0  0  0  0  0  0  0  0  0  0  0
  185.7300  178.8410  141.9830 C   0  0  0  0  0  3  0  0  0  0  0  0
  186.6170  177.5060  143.7970 C   0  0  0  0  0  3  0  0  0  0  0  0
  185.5870  178.2790  143.2550 C   0  0  0  0  0  3  0  0  0  0  0  0
  187.7880  177.2910  143.0650 C   0  0  0  0  0  3  0  0  0  0  0  0
  186.9030  178.6270  141.2520 C   0  0  0  0  0  3  0  0  0  0  0  0
  190.2460  176.7500  141.6460 C   0  0  0  0  0  2  0  0  0  0  0  0
  191.5530  177.4240  141.9140 C   0  0  0  0  0  0  0  0  0  0  0  0
  192.3820  177.6200  140.9390 N   0  0  0  0  0  2  0  0  0  0  0  0
  191.2710  177.2530  144.3600 C   0  0  0  0  0  1  0  0  0  0  0  0
  191.8570  177.8450  143.2110 O   0  0  0  0  0  0  0  0  0  0  0  0
  1  3  2  0  0  0  0
  2 28  1  6  0  0  0
  2  5  1  0  0  0  0
  3  2  1  0  0  0  0
  4 19  1  0  0  0  0
  4  8  1  0  0  0  0
  5  8  1  0  0  0  0
  6  9  1  0  0  0  0
  7  6  1  6  0  0  0
  7  4  1  0  0  0  0
  9  3  1  0  0  0  0
 10 13  1  6  0  0  0
 11 17  1  0  0  0  0
 11 18  1  0  0  0  0
 12 16  1  0  0  0  0
 12 10  1  0  0  0  0
 14 16  1  1  0  0  0
 14  7  1  0  0  0  0
 14 11  1  0  0  0  0
 15 10  1  0  0  0  0
 15 11  1  0  0  0  0
 17 18  1  0  0  0  0
 21 20  1  0  0  0  0
 21 27  1  1  0  0  0
 22 24  1  0  0  0  0
 22 25  1  0  0  0  0
 23 20  1  0  0  0  0
 24 19  1  6  0  0  0
 24 23  1  0  0  0  0
 25 21  1  0  0  0  0
 27 26  1  0  0  0  0
 28 29  1  0  0  0  0
 29 31  1  0  0  0  0
 31 30  1  6  0  0  0
 31 32  1  0  0  0  0
 32 39  1  1  0  0  0
 32 33  1  0  0  0  0
 33 37  1  0  0  0  0
 34 36  2  0  0  0  0
 36 35  1  0  0  0  0
 37 35  2  0  0  0  0
 38 33  2  0  0  0  0
 38 34  1  0  0  0  0
 39 40  1  0  0  0  0
 40 43  1  0  0  0  0
 41 40  2  0  0  0  0
 43 42  1  0  0  0  0
M  END
>  <MODEL>
6

>  <REMARK>
 VINA RESULT:      -7.1      2.283      8.260
  Name = 
  12 active torsions:
  status: ('A' for Active; 'I' for Inactive)
    1  A    between atoms: C_1  and  N_8
    2  A    between atoms: C_1  and  C_35
    3  A    between atoms: C_4  and  C_12
    4  A    between atoms: C_4  and  C_14
    5  A    between atoms: C_6  and  C_17
    6  A    between atoms: C_10  and  C_41
    7  A    between atoms: C_10  and  O_42
    8  A    between atoms: C_11  and  C_14
    9  A    between atoms: C_12  and  C_17
   10  A    between atoms: C_14  and  C_41
   11  A    between atoms: C_19  and  C_37
   12  A    between atoms: C_21  and  C_30
                            x       y       z     vdW  Elec       q    Type
                         _______ _______ _______ _____ _____    ______ ____

>  <TORSDO>
F 12

$$$$
=
 OpenBabel10262422163D

 43 47  0  0  1  0  0  0  0  0999 V2000
  185.0550  180.1410  144.4030 N   0  0  0  0  0  2  0  0  0  0  0  0
  184.9090  177.8780  143.5320 C   0  0  2  0  0  3  0  0  0  0  0  0
  185.1510  178.8800  144.6250 C   0  0  0  0  0  0  0  0  0  0  0  0
  187.9970  178.3500  143.7870 N   0  0  0  0  0  0  0  0  0  0  0  0
  185.9910  177.9050  142.4580 C   0  0  0  0  0  2  0  0  0  0  0  0
  187.1670  178.7310  146.0780 C   0  0  0  0  0  2  0  0  0  0  0  0
  188.0450  177.8580  145.1830 C   0  0  2  0  0  3  0  0  0  0  0  0
  187.3030  177.3430  142.9940 C   0  0  0  0  0  2  0  0  0  0  0  0
  185.6900  178.3920  145.9300 C   0  0  0  0  0  2  0  0  0  0  0  0
  191.2970  175.9930  147.1920 C   0  0  1  0  0  3  0  0  0  0  0  0
  189.4360  177.2860  147.3450 C   0  0  0  0  0  0  0  0  0  0  0  0
  191.6800  176.5250  145.8130 C   0  0  0  0  0  2  0  0  0  0  0  0
  192.5410  175.5220  147.9110 C   0  0  0  0  0  1  0  0  0  0  0  0
  189.4330  177.6750  145.8490 C   0  0  1  0  0  3  0  0  0  0  0  0
  190.6780  177.0080  147.9450 O   0  0  0  0  0  0  0  0  0  0  0  0
  190.4090  176.8230  145.0280 C   0  0  0  0  0  2  0  0  0  0  0  0
  188.6470  178.2610  148.1930 C   0  0  0  0  0  2  0  0  0  0  0  0
  188.2020  176.8120  148.0870 C   0  0  0  0  0  2  0  0  0  0  0  0
  189.3030  178.5570  143.1600 C   0  0  0  0  0  2  0  0  0  0  0  0
  190.9380  176.5640  140.2750 C   0  0  0  0  0  2  0  0  0  0  0  0
  190.4400  177.4300  139.1170 C   0  0  2  0  0  3  0  0  0  0  0  0
  188.9100  178.6510  140.6740 C   0  0  0  0  0  2  0  0  0  0  0  0
  190.8550  177.3370  141.5880 C   0  0  0  0  0  2  0  0  0  0  0  0
  189.4190  177.8030  141.8390 C   0  0  1  0  0  3  0  0  0  0  0  0
  188.9980  177.8600  139.3720 C   0  0  0  0  0  2  0  0  0  0  0  0
  189.4730  177.1740  136.8370 C   0  0  0  0  0  1  0  0  0  0  0  0
  190.5100  176.6550  137.8160 C   0  0  0  0  0  2  0  0  0  0  0  0
  183.4890  177.9300  142.9600 C   0  0  0  0  0  2  0  0  0  0  0  0
  183.3690  178.7180  141.6560 C   0  0  0  0  0  2  0  0  0  0  0  0
  181.2590  177.8880  140.5860 C   0  0  0  0  0  1  0  0  0  0  0  0
  182.7810  177.8750  140.5330 C   0  0  1  0  0  3  0  0  0  0  0  0
  183.3360  178.3260  139.1730 C   0  0  1  0  0  3  0  0  0  0  0  0
  182.4120  179.1920  138.3640 C   0  0  0  0  0  0  0  0  0  0  0  0
  181.3830  181.3570  138.0000 C   0  0  0  0  0  3  0  0  0  0  0  0
  180.7960  179.4900  136.5780 C   0  0  0  0  0  3  0  0  0  0  0  0
  180.6530  180.8340  136.9290 C   0  0  0  0  0  3  0  0  0  0  0  0
  181.6720  178.6700  137.2940 C   0  0  0  0  0  3  0  0  0  0  0  0
  182.2580  180.5370  138.7180 C   0  0  0  0  0  3  0  0  0  0  0  0
  184.8140  178.7530  139.1440 C   0  0  0  0  0  2  0  0  0  0  0  0
  185.5710  178.2460  137.9600 C   0  0  0  0  0  0  0  0  0  0  0  0
  186.4690  178.9960  137.4060 N   0  0  0  0  0  2  0  0  0  0  0  0
  184.7430  176.7370  136.1910 C   0  0  0  0  0  1  0  0  0  0  0  0
  185.3080  176.9630  137.4730 O   0  0  0  0  0  0  0  0  0  0  0  0
  1  3  2  0  0  0  0
  2 28  1  6  0  0  0
  2  3  1  0  0  0  0
  3  9  1  0  0  0  0
  4  7  1  0  0  0  0
  5  8  1  0  0  0  0
  5  2  1  0  0  0  0
  7 14  1  0  0  0  0
  7  6  1  1  0  0  0
  8  4  1  0  0  0  0
  9  6  1  0  0  0  0
 10 13  1  1  0  0  0
 10 15  1  0  0  0  0
 11 15  1  0  0  0  0
 11 18  1  0  0  0  0
 11 17  1  0  0  0  0
 12 10  1  0  0  0  0
 14 16  1  6  0  0  0
 14 11  1  0  0  0  0
 16 12  1  0  0  0  0
 18 17  1  0  0  0  0
 19  4  1  0  0  0  0
 20 23  1  0  0  0  0
 21 27  1  6  0  0  0
 21 25  1  0  0  0  0
 21 20  1  0  0  0  0
 22 24  1  0  0  0  0
 23 24  1  0  0  0  0
 24 19  1  1  0  0  0
 25 22  1  0  0  0  0
 26 27  1  0  0  0  0
 29 28  1  0  0  0  0
 31 30  1  6  0  0  0
 31 29  1  0  0  0  0
 32 39  1  1  0  0  0
 32 31  1  0  0  0  0
 33 38  1  0  0  0  0
 33 32  1  0  0  0  0
 34 38  2  0  0  0  0
 35 36  2  0  0  0  0
 35 37  1  0  0  0  0
 36 34  1  0  0  0  0
 37 33  2  0  0  0  0
 40 39  1  0  0  0  0
 41 40  2  0  0  0  0
 42 43  1  0  0  0  0
 43 40  1  0  0  0  0
M  END
>  <MODEL>
7

>  <REMARK>
 VINA RESULT:      -7.1      2.083      5.288
  Name = 
  12 active torsions:
  status: ('A' for Active; 'I' for Inactive)
    1  A    between atoms: C_1  and  N_8
    2  A    between atoms: C_1  and  C_35
    3  A    between atoms: C_4  and  C_12
    4  A    between atoms: C_4  and  C_14
    5  A    between atoms: C_6  and  C_17
    6  A    between atoms: C_10  and  C_41
    7  A    between atoms: C_10  and  O_42
    8  A    between atoms: C_11  and  C_14
    9  A    between atoms: C_12  and  C_17
   10  A    between atoms: C_14  and  C_41
   11  A    between atoms: C_19  and  C_37
   12  A    between atoms: C_21  and  C_30
                            x       y       z     vdW  Elec       q    Type
                         _______ _______ _______ _____ _____    ______ ____

>  <TORSDO>
F 12

$$$$
=
 OpenBabel10262422163D

 43 47  0  0  1  0  0  0  0  0999 V2000
  189.1310  176.0740  139.2750 N   0  0  0  0  0  2  0  0  0  0  0  0
  188.9380  178.4860  139.4840 C   0  0  2  0  0  3  0  0  0  0  0  0
  189.5580  177.1580  139.8140 C   0  0  0  0  0  0  0  0  0  0  0  0
  187.6790  177.4330  142.1540 N   0  0  0  0  0  0  0  0  0  0  0  0
  187.5180  178.6230  140.0220 C   0  0  0  0  0  2  0  0  0  0  0  0
  189.9520  176.4780  142.1760 C   0  0  0  0  0  2  0  0  0  0  0  0
  188.9770  177.4290  142.8670 C   0  0  2  0  0  3  0  0  0  0  0  0
  187.5230  178.7470  141.5410 C   0  0  0  0  0  2  0  0  0  0  0  0
  190.5580  177.0960  140.9230 C   0  0  0  0  0  2  0  0  0  0  0  0
  189.1810  178.1160  147.0590 C   0  0  1  0  0  3  0  0  0  0  0  0
  190.2670  177.5020  145.1620 C   0  0  0  0  0  0  0  0  0  0  0  0
  187.8550  177.4970  146.6250 C   0  0  0  0  0  2  0  0  0  0  0  0
  189.2480  178.1500  148.5700 C   0  0  0  0  0  1  0  0  0  0  0  0
  188.9760  177.1440  144.3910 C   0  0  1  0  0  3  0  0  0  0  0  0
  190.2540  177.3540  146.5610 O   0  0  0  0  0  0  0  0  0  0  0  0
  187.7160  177.6360  145.1140 C   0  0  0  0  0  2  0  0  0  0  0  0
  191.4910  176.8320  144.5720 C   0  0  0  0  0  2  0  0  0  0  0  0
  191.3810  178.3470  144.5780 C   0  0  0  0  0  2  0  0  0  0  0  0
  186.5070  177.2190  143.0040 C   0  0  0  0  0  2  0  0  0  0  0  0
  183.3160  179.3750  143.3780 C   0  0  0  0  0  2  0  0  0  0  0  0
  182.5030  178.7380  142.2490 C   0  0  2  0  0  3  0  0  0  0  0  0
  184.5340  177.5100  141.4640 C   0  0  0  0  0  2  0  0  0  0  0  0
  184.4510  178.4470  143.8000 C   0  0  0  0  0  2  0  0  0  0  0  0
  185.3470  178.1260  142.6020 C   0  0  1  0  0  3  0  0  0  0  0  0
  183.4090  178.4530  141.0540 C   0  0  0  0  0  2  0  0  0  0  0  0
  180.1310  179.3910  142.6280 C   0  0  0  0  0  1  0  0  0  0  0  0
  181.3850  179.6690  141.8210 C   0  0  0  0  0  2  0  0  0  0  0  0
  189.0640  178.8680  138.0060 C   0  0  0  0  0  2  0  0  0  0  0  0
  187.7510  178.7920  137.2270 C   0  0  0  0  0  2  0  0  0  0  0  0
  189.2460  177.3340  135.8400 C   0  0  0  0  0  1  0  0  0  0  0  0
  187.8090  177.7570  136.1120 C   0  0  1  0  0  3  0  0  0  0  0  0
  186.8870  176.5700  136.4310 C   0  0  1  0  0  3  0  0  0  0  0  0
  185.4180  176.8850  136.4230 C   0  0  0  0  0  0  0  0  0  0  0  0
  183.3800  177.2490  135.1600 C   0  0  0  0  0  3  0  0  0  0  0  0
  183.3670  177.4980  137.5680 C   0  0  0  0  0  3  0  0  0  0  0  0
  182.6930  177.5320  136.3440 C   0  0  0  0  0  3  0  0  0  0  0  0
  184.7260  177.1770  137.6070 C   0  0  0  0  0  3  0  0  0  0  0  0
  184.7400  176.9300  135.2000 C   0  0  0  0  0  3  0  0  0  0  0  0
  187.2630  175.2200  135.7960 C   0  0  0  0  0  2  0  0  0  0  0  0
  187.3420  174.0900  136.7710 C   0  0  0  0  0  0  0  0  0  0  0  0
  188.4380  173.4090  136.8720 N   0  0  0  0  0  2  0  0  0  0  0  0
  185.1730  172.9660  137.1190 C   0  0  0  0  0  1  0  0  0  0  0  0
  186.2350  173.7920  137.5700 O   0  0  0  0  0  0  0  0  0  0  0  0
  1  3  2  0  0  0  0
  2 28  1  6  0  0  0
  2  3  1  0  0  0  0
  2  5  1  0  0  0  0
  3  9  1  0  0  0  0
  4  7  1  0  0  0  0
  4 19  1  0  0  0  0
  5  8  1  0  0  0  0
  7  6  1  6  0  0  0
  7 14  1  0  0  0  0
  8  4  1  0  0  0  0
  9  6  1  0  0  0  0
 10 13  1  1  0  0  0
 11 15  1  0  0  0  0
 12 10  1  0  0  0  0
 14 16  1  1  0  0  0
 14 11  1  0  0  0  0
 15 10  1  0  0  0  0
 16 12  1  0  0  0  0
 17 18  1  0  0  0  0
 17 11  1  0  0  0  0
 18 11  1  0  0  0  0
 20 23  1  0  0  0  0
 21 27  1  6  0  0  0
 21 20  1  0  0  0  0
 22 24  1  0  0  0  0
 24 19  1  1  0  0  0
 24 23  1  0  0  0  0
 25 22  1  0  0  0  0
 25 21  1  0  0  0  0
 27 26  1  0  0  0  0
 29 28  1  0  0  0  0
 31 30  1  1  0  0  0
 31 32  1  0  0  0  0
 31 29  1  0  0  0  0
 32 39  1  6  0  0  0
 33 32  1  0  0  0  0
 33 37  1  0  0  0  0
 34 38  1  0  0  0  0
 34 36  2  0  0  0  0
 35 37  2  0  0  0  0
 36 35  1  0  0  0  0
 38 33  2  0  0  0  0
 39 40  1  0  0  0  0
 40 41  2  0  0  0  0
 40 43  1  0  0  0  0
 42 43  1  0  0  0  0
M  END
>  <MODEL>
8

>  <REMARK>
 VINA RESULT:      -7.0      1.754      2.905
  Name = 
  12 active torsions:
  status: ('A' for Active; 'I' for Inactive)
    1  A    between atoms: C_1  and  N_8
    2  A    between atoms: C_1  and  C_35
    3  A    between atoms: C_4  and  C_12
    4  A    between atoms: C_4  and  C_14
    5  A    between atoms: C_6  and  C_17
    6  A    between atoms: C_10  and  C_41
    7  A    between atoms: C_10  and  O_42
    8  A    between atoms: C_11  and  C_14
    9  A    between atoms: C_12  and  C_17
   10  A    between atoms: C_14  and  C_41
   11  A    between atoms: C_19  and  C_37
   12  A    between atoms: C_21  and  C_30
                            x       y       z     vdW  Elec       q    Type
                         _______ _______ _______ _____ _____    ______ ____

>  <TORSDO>
F 12

$$$$
=
 OpenBabel10262422163D

 43 47  0  0  1  0  0  0  0  0999 V2000
  181.0370  177.8740  144.0720 N   0  0  0  0  0  2  0  0  0  0  0  0
  183.0180  179.0180  143.2560 C   0  0  2  0  0  3  0  0  0  0  0  0
  181.5390  178.9070  143.4990 C   0  0  0  0  0  0  0  0  0  0  0  0
  181.6470  177.9950  140.6290 N   0  0  0  0  0  0  0  0  0  0  0  0
  183.5170  178.0300  142.2070 C   0  0  0  0  0  2  0  0  0  0  0  0
  179.9010  179.3790  141.6850 C   0  0  0  0  0  2  0  0  0  0  0  0
  180.8240  179.2160  140.4790 C   0  0  2  0  0  3  0  0  0  0  0  0
  183.0280  178.4200  140.8170 C   0  0  0  0  0  2  0  0  0  0  0  0
  180.6400  179.9360  142.8950 C   0  0  0  0  0  2  0  0  0  0  0  0
  179.8950  179.3760  136.3320 C   0  0  1  0  0  3  0  0  0  0  0  0
  180.4540  180.5130  138.2170 C   0  0  0  0  0  0  0  0  0  0  0  0
  179.0760  178.3280  137.0810 C   0  0  0  0  0  2  0  0  0  0  0  0
  179.3740  179.5020  134.9170 C   0  0  0  0  0  1  0  0  0  0  0  0
  180.0000  179.3900  139.1770 C   0  0  1  0  0  3  0  0  0  0  0  0
  179.7920  180.6210  136.9790 O   0  0  0  0  0  0  0  0  0  0  0  0
  179.7220  178.0750  138.4380 C   0  0  0  0  0  2  0  0  0  0  0  0
  180.5170  181.8620  138.9010 C   0  0  0  0  0  2  0  0  0  0  0  0
  181.7820  181.2330  138.3420 C   0  0  0  0  0  2  0  0  0  0  0  0
  181.6340  177.0950  139.4750 C   0  0  0  0  0  2  0  0  0  0  0  0
  184.8390  177.8720  137.4530 C   0  0  0  0  0  2  0  0  0  0  0  0
  184.9260  176.5510  136.6870 C   0  0  2  0  0  3  0  0  0  0  0  0
  183.1380  175.5790  138.1390 C   0  0  0  0  0  2  0  0  0  0  0  0
  183.4290  178.0760  137.9970 C   0  0  0  0  0  2  0  0  0  0  0  0
  183.0320  176.9020  138.8950 C   0  0  1  0  0  3  0  0  0  0  0  0
  184.5550  175.3910  137.6070 C   0  0  0  0  0  2  0  0  0  0  0  0
  187.0830  177.6610  136.1280 C   0  0  0  0  0  1  0  0  0  0  0  0
  186.3320  176.3430  136.1590 C   0  0  0  0  0  2  0  0  0  0  0  0
  183.8510  179.0070  144.5410 C   0  0  0  0  0  2  0  0  0  0  0  0
  185.3520  178.8420  144.3110 C   0  0  0  0  0  2  0  0  0  0  0  0
  185.1660  178.7290  146.8080 C   0  0  0  0  0  1  0  0  0  0  0  0
  186.1130  178.6700  145.6180 C   0  0  1  0  0  3  0  0  0  0  0  0
  186.9550  177.3850  145.5860 C   0  0  1  0  0  3  0  0  0  0  0  0
  188.0730  177.3800  144.5830 C   0  0  0  0  0  0  0  0  0  0  0  0
  189.1510  176.3320  142.6800 C   0  0  0  0  0  3  0  0  0  0  0  0
  190.1470  178.2850  143.7050 C   0  0  0  0  0  3  0  0  0  0  0  0
  190.1710  177.2870  142.7280 C   0  0  0  0  0  3  0  0  0  0  0  0
  189.1020  178.3310  144.6310 C   0  0  0  0  0  3  0  0  0  0  0  0
  188.1060  176.3770  143.6080 C   0  0  0  0  0  3  0  0  0  0  0  0
  187.3050  176.7610  146.9480 C   0  0  0  0  0  2  0  0  0  0  0  0
  188.6460  177.1610  147.4740 C   0  0  0  0  0  0  0  0  0  0  0  0
  188.7810  178.2980  148.0800 N   0  0  0  0  0  2  0  0  0  0  0  0
  191.0760  176.7500  147.3660 C   0  0  0  0  0  1  0  0  0  0  0  0
  189.7320  176.2980  147.3160 O   0  0  0  0  0  0  0  0  0  0  0  0
  2  3  1  0  0  0  0
  2 28  1  1  0  0  0
  3  1  2  0  0  0  0
  4  8  1  0  0  0  0
  5  2  1  0  0  0  0
  6  9  1  0  0  0  0
  7  4  1  0  0  0  0
  7  6  1  1  0  0  0
  8  5  1  0  0  0  0
  9  3  1  0  0  0  0
 10 13  1  6  0  0  0
 10 15  1  0  0  0  0
 10 12  1  0  0  0  0
 11 18  1  0  0  0  0
 11 17  1  0  0  0  0
 11 14  1  0  0  0  0
 12 16  1  0  0  0  0
 14 16  1  6  0  0  0
 14  7  1  0  0  0  0
 15 11  1  0  0  0  0
 18 17  1  0  0  0  0
 19  4  1  0  0  0  0
 20 23  1  0  0  0  0
 21 27  1  1  0  0  0
 21 20  1  0  0  0  0
 21 25  1  0  0  0  0
 22 24  1  0  0  0  0
 23 24  1  0  0  0  0
 24 19  1  6  0  0  0
 25 22  1  0  0  0  0
 26 27  1  0  0  0  0
 29 28  1  0  0  0  0
 29 31  1  0  0  0  0
 31 30  1  1  0  0  0
 32 31  1  0  0  0  0
 32 39  1  1  0  0  0
 33 37  1  0  0  0  0
 33 32  1  0  0  0  0
 34 36  2  0  0  0  0
 34 38  1  0  0  0  0
 35 37  2  0  0  0  0
 36 35  1  0  0  0  0
 38 33  2  0  0  0  0
 39 40  1  0  0  0  0
 40 41  2  0  0  0  0
 43 42  1  0  0  0  0
 43 40  1  0  0  0  0
M  END
>  <MODEL>
9

>  <REMARK>
 VINA RESULT:      -6.9      3.137     10.495
  Name = 
  12 active torsions:
  status: ('A' for Active; 'I' for Inactive)
    1  A    between atoms: C_1  and  N_8
    2  A    between atoms: C_1  and  C_35
    3  A    between atoms: C_4  and  C_12
    4  A    between atoms: C_4  and  C_14
    5  A    between atoms: C_6  and  C_17
    6  A    between atoms: C_10  and  C_41
    7  A    between atoms: C_10  and  O_42
    8  A    between atoms: C_11  and  C_14
    9  A    between atoms: C_12  and  C_17
   10  A    between atoms: C_14  and  C_41
   11  A    between atoms: C_19  and  C_37
   12  A    between atoms: C_21  and  C_30
                            x       y       z     vdW  Elec       q    Type
                         _______ _______ _______ _____ _____    ______ ____

>  <TORSDO>
F 12

$$$$
