=
 OpenBabel10262423013D

 37 44  0  0  1  0  0  0  0  0999 V2000
  181.4390  177.2980  137.8810 O   0  0  0  0  0  0  0  0  0  0  0  0
  179.2440  180.2280  142.3310 C   0  0  0  0  0  2  0  0  0  0  0  0
  183.4770  178.6980  141.9880 C   0  0  1  0  0  3  0  0  0  0  0  0
  181.1610  176.0750  137.2280 C   0  0  0  0  0  0  0  0  0  0  0  0
  184.9970  178.9310  138.7310 C   0  0  0  0  0  2  0  0  0  0  0  0
  181.4340  179.4270  143.1890 C   0  0  2  0  0  3  0  0  0  0  0  0
  183.8140  177.8840  140.7590 C   0  0  2  0  0  3  0  0  0  0  0  0
  180.0340  176.1090  136.2280 C   0  0  0  0  0  2  0  0  0  0  0  0
  181.9970  178.4430  142.1650 C   0  0  1  0  0  3  0  0  0  0  0  0
  185.1480  178.3080  140.1190 C   0  0  0  0  0  2  0  0  0  0  0  0
  182.0970  179.1060  144.5320 C   0  0  0  0  0  2  0  0  0  0  0  0
  182.2090  175.1560  136.9510 O   0  0  0  0  0  0  0  0  0  0  0  0
  181.3860  178.3130  140.7660 C   0  0  2  0  0  0  0  0  0  0  0  0
  180.6160  179.5590  140.3120 C   0  0  0  0  0  2  0  0  0  0  0  0
  179.8410  175.4420  137.5890 C   0  0  0  0  0  2  0  0  0  0  0  0
  183.6290  179.1740  144.4300 C   0  0  0  0  0  2  0  0  0  0  0  0
  180.5570  177.1850  140.7380 O   0  0  0  0  0  1  0  0  0  0  0  0
  183.4250  175.8600  136.7730 C   0  0  2  0  0  3  0  0  0  0  0  0
  184.6780  177.9140  137.6280 C   0  0  0  0  0  2  0  0  0  0  0  0
  184.1760  178.2970  143.2890 C   0  0  2  0  0  3  0  0  0  0  0  0
  182.6060  178.1190  139.8490 C   0  0  2  0  0  3  0  0  0  0  0  0
  179.9280  179.2990  143.3220 C   0  0  0  0  0  2  0  0  0  0  0  0
  179.2210  179.6430  140.9250 C   0  0  0  0  0  2  0  0  0  0  0  0
  183.7820  176.7140  138.0110 C   0  0  1  0  0  3  0  0  0  0  0  0
  182.4810  177.0310  138.7800 C   0  0  2  0  0  3  0  0  0  0  0  0
  183.3780  176.6190  135.5960 O   0  0  0  0  0  0  0  0  0  0  0  0
  183.7200  175.7770  134.6430 O   0  0  0  0  0  1  0  0  0  0  0  0
  185.6780  178.4990  143.1880 C   0  0  0  0  0  2  0  0  0  0  0  0
  188.7180  176.8160  144.5970 C   0  0  0  0  0  2  0  0  0  0  0  0
  186.8020  178.3430  145.3860 C   0  0  1  0  0  3  0  0  0  0  0  0
  186.8420  177.4010  146.5860 C   0  0  0  0  0  2  0  0  0  0  0  0
  187.8980  178.0350  148.6170 O   0  0  0  0  0  0  0  0  0  0  0  0
  189.4230  177.5040  146.9010 C   0  0  0  0  0  3  0  0  0  0  0  0
  188.0530  177.6660  147.4240 C   0  0  0  0  0  0  0  0  0  0  0  0
  187.8330  178.0240  144.2950 C   0  0  2  0  0  3  0  0  0  0  0  0
  189.7330  177.1380  145.6520 C   0  0  0  0  0  3  0  0  0  0  0  0
  186.3940  177.5700  144.1480 C   0  0  2  0  0  3  0  0  0  0  0  0
  1 25  1  0  0  0  0
  2 22  1  0  0  0  0
  3  9  1  0  0  0  0
  3 20  1  0  0  0  0
  4 15  1  0  0  0  0
  4  1  1  0  0  0  0
  5 10  1  0  0  0  0
  6 22  1  0  0  0  0
  6 11  1  0  0  0  0
  7  3  1  0  0  0  0
  8  4  1  0  0  0  0
  8 15  1  0  0  0  0
  9  6  1  0  0  0  0
 10  7  1  0  0  0  0
 12  4  1  0  0  0  0
 13  9  1  0  0  0  0
 14 13  1  0  0  0  0
 14 23  1  0  0  0  0
 16 11  1  0  0  0  0
 17 13  1  0  0  0  0
 18 12  1  0  0  0  0
 18 24  1  0  0  0  0
 19 24  1  0  0  0  0
 19  5  1  0  0  0  0
 20 16  1  0  0  0  0
 21  7  1  0  0  0  0
 21 13  1  0  0  0  0
 23  2  1  0  0  0  0
 24 25  1  0  0  0  0
 25 21  1  0  0  0  0
 26 18  1  0  0  0  0
 27 26  1  0  0  0  0
 28 20  1  0  0  0  0
 28 37  1  0  0  0  0
 29 36  1  0  0  0  0
 30 31  1  0  0  0  0
 31 34  1  0  0  0  0
 33 34  1  0  0  0  0
 34 32  2  0  0  0  0
 35 29  1  0  0  0  0
 35 30  1  0  0  0  0
 36 33  2  0  0  0  0
 37 35  1  0  0  0  0
 37 30  1  0  0  0  0
M  END
>  <MODEL>
1

>  <REMARK>
 VINA RESULT:      -9.4      0.000      0.000
  Name = 
  3 active torsions:
  status: ('A' for Active; 'I' for Inactive)
    1  A    between atoms: O_11  and  C_26
    2  A    between atoms: C_22  and  C_28
    3  A    between atoms: C_22  and  C_37
                            x       y       z     vdW  Elec       q    Type
                         _______ _______ _______ _____ _____    ______ ____

>  <TORSDO>
F 3

$$$$
=
 OpenBabel10262423013D

 37 44  0  0  1  0  0  0  0  0999 V2000
  191.6790  175.3450  136.3740 O   0  0  0  0  0  0  0  0  0  0  0  0
  186.8800  178.5300  136.5530 C   0  0  0  0  0  2  0  0  0  0  0  0
  189.6520  177.7060  140.0200 C   0  0  1  0  0  3  0  0  0  0  0  0
  192.0040  174.0050  136.0620 C   0  0  0  0  0  0  0  0  0  0  0  0
  193.1740  177.6740  139.2720 C   0  0  0  0  0  2  0  0  0  0  0  0
  187.4850  178.2590  138.9490 C   0  0  2  0  0  3  0  0  0  0  0  0
  190.8150  176.7760  139.7620 C   0  0  2  0  0  3  0  0  0  0  0  0
  192.1290  173.6880  134.5940 C   0  0  0  0  0  2  0  0  0  0  0  0
  188.6170  177.2350  139.0240 C   0  0  1  0  0  3  0  0  0  0  0  0
  192.1380  177.3140  140.3370 C   0  0  0  0  0  2  0  0  0  0  0  0
  186.8000  178.2730  140.3180 C   0  0  0  0  0  2  0  0  0  0  0  0
  192.8290  173.2450  136.9340 O   0  0  0  0  0  0  0  0  0  0  0  0
  189.3660  176.7830  137.7670 C   0  0  2  0  0  0  0  0  0  0  0  0
  189.3010  177.7910  136.6140 C   0  0  0  0  0  2  0  0  0  0  0  0
  190.9080  173.2230  135.3840 C   0  0  0  0  0  2  0  0  0  0  0  0
  187.8010  178.5840  141.4420 C   0  0  0  0  0  2  0  0  0  0  0  0
  188.8620  175.5400  137.3630 O   0  0  0  0  0  1  0  0  0  0  0  0
  193.7190  174.1090  137.6200 C   0  0  2  0  0  3  0  0  0  0  0  0
  193.8400  176.4550  138.6200 C   0  0  0  0  0  2  0  0  0  0  0  0
  189.0190  177.6410  141.4130 C   0  0  2  0  0  3  0  0  0  0  0  0
  190.8250  176.6550  138.2360 C   0  0  2  0  0  3  0  0  0  0  0  0
  186.4730  177.9000  137.8760 C   0  0  0  0  0  2  0  0  0  0  0  0
  187.9760  177.7340  135.8570 C   0  0  0  0  0  2  0  0  0  0  0  0
  192.9640  175.1970  138.4170 C   0  0  1  0  0  3  0  0  0  0  0  0
  191.5780  175.4060  137.7720 C   0  0  2  0  0  3  0  0  0  0  0  0
  194.6530  174.6510  136.7270 O   0  0  0  0  0  0  0  0  0  0  0  0
  195.7710  174.0050  136.9810 O   0  0  0  0  0  1  0  0  0  0  0  0
  190.0060  178.0770  142.4830 C   0  0  0  0  0  2  0  0  0  0  0  0
  191.5270  175.9870  145.1980 C   0  0  0  0  0  2  0  0  0  0  0  0
  189.8610  177.9340  144.9480 C   0  0  1  0  0  3  0  0  0  0  0  0
  189.1060  177.1310  146.0040 C   0  0  0  0  0  2  0  0  0  0  0  0
  189.1590  177.7540  148.2960 O   0  0  0  0  0  0  0  0  0  0  0  0
  191.1630  176.7590  147.5550 C   0  0  0  0  0  3  0  0  0  0  0  0
  189.7860  177.2400  147.3340 C   0  0  0  0  0  0  0  0  0  0  0  0
  191.1900  177.3070  144.5070 C   0  0  2  0  0  3  0  0  0  0  0  0
  191.9480  176.2120  146.6200 C   0  0  0  0  0  3  0  0  0  0  0  0
  189.9410  177.1310  143.6650 C   0  0  2  0  0  3  0  0  0  0  0  0
  1 25  1  0  0  0  0
  2 22  1  0  0  0  0
  3 20  1  0  0  0  0
  4  1  1  0  0  0  0
  4 12  1  0  0  0  0
  5 10  1  0  0  0  0
  6  9  1  0  0  0  0
  6 11  1  0  0  0  0
  7  3  1  0  0  0  0
  7 10  1  0  0  0  0
  8 15  1  0  0  0  0
  8  4  1  0  0  0  0
  9  3  1  0  0  0  0
 11 16  1  0  0  0  0
 12 18  1  0  0  0  0
 13 21  1  0  0  0  0
 13  9  1  0  0  0  0
 14 13  1  0  0  0  0
 15  4  1  0  0  0  0
 17 13  1  0  0  0  0
 18 24  1  0  0  0  0
 19  5  1  0  0  0  0
 20 16  1  0  0  0  0
 20 28  1  0  0  0  0
 21  7  1  0  0  0  0
 22  6  1  0  0  0  0
 23  2  1  0  0  0  0
 23 14  1  0  0  0  0
 24 19  1  0  0  0  0
 25 21  1  0  0  0  0
 25 24  1  0  0  0  0
 26 27  1  0  0  0  0
 26 18  1  0  0  0  0
 28 37  1  0  0  0  0
 29 36  1  0  0  0  0
 30 31  1  0  0  0  0
 31 34  1  0  0  0  0
 34 33  1  0  0  0  0
 34 32  2  0  0  0  0
 35 30  1  0  0  0  0
 35 29  1  0  0  0  0
 36 33  2  0  0  0  0
 37 35  1  0  0  0  0
 37 30  1  0  0  0  0
M  END
>  <MODEL>
2

>  <REMARK>
 VINA RESULT:      -9.1      5.832      8.044
  Name = 
  3 active torsions:
  status: ('A' for Active; 'I' for Inactive)
    1  A    between atoms: O_11  and  C_26
    2  A    between atoms: C_22  and  C_28
    3  A    between atoms: C_22  and  C_37
                            x       y       z     vdW  Elec       q    Type
                         _______ _______ _______ _____ _____    ______ ____

>  <TORSDO>
F 3

$$$$
=
 OpenBabel10262423013D

 37 44  0  0  1  0  0  0  0  0999 V2000
  182.1380  177.9640  137.5260 O   0  0  0  0  0  0  0  0  0  0  0  0
  185.8360  173.8470  135.9190 C   0  0  0  0  0  2  0  0  0  0  0  0
  186.7730  177.3650  138.5890 C   0  0  1  0  0  3  0  0  0  0  0  0
  181.3430  178.9330  136.8730 C   0  0  0  0  0  0  0  0  0  0  0  0
  184.2110  178.3110  140.9370 C   0  0  0  0  0  2  0  0  0  0  0  0
  187.2970  175.5600  136.9720 C   0  0  2  0  0  3  0  0  0  0  0  0
  185.6650  178.3670  138.8170 C   0  0  2  0  0  3  0  0  0  0  0  0
  180.0370  178.4360  136.3080 C   0  0  0  0  0  2  0  0  0  0  0  0
  186.4420  176.8000  137.2270 C   0  0  1  0  0  3  0  0  0  0  0  0
  185.5240  178.7640  140.2970 C   0  0  0  0  0  2  0  0  0  0  0  0
  188.7550  176.0240  136.9110 C   0  0  0  0  0  2  0  0  0  0  0  0
  181.3540  180.2850  137.3120 O   0  0  0  0  0  0  0  0  0  0  0  0
  184.9150  176.7520  137.1110 C   0  0  2  0  0  0  0  0  0  0  0  0
  184.3280  175.3470  137.2920 C   0  0  0  0  0  2  0  0  0  0  0  0
  181.2090  178.7520  135.3820 C   0  0  0  0  0  2  0  0  0  0  0  0
  189.1610  176.7660  138.1950 C   0  0  0  0  0  2  0  0  0  0  0  0
  184.5380  177.2880  135.8740 O   0  0  0  0  0  1  0  0  0  0  0  0
  181.6320  180.3320  138.7000 C   0  0  2  0  0  3  0  0  0  0  0  0
  182.9930  179.1350  140.4990 C   0  0  0  0  0  2  0  0  0  0  0  0
  188.1980  177.9210  138.5280 C   0  0  2  0  0  3  0  0  0  0  0  0
  184.4320  177.6470  138.2650 C   0  0  2  0  0  3  0  0  0  0  0  0
  186.9250  174.8790  135.6680 C   0  0  0  0  0  2  0  0  0  0  0  0
  184.4600  174.4890  136.0360 C   0  0  0  0  0  2  0  0  0  0  0  0
  182.9770  179.6510  139.0420 C   0  0  1  0  0  3  0  0  0  0  0  0
  183.3040  178.6270  137.9330 C   0  0  2  0  0  3  0  0  0  0  0  0
  180.5610  179.7940  139.4270 O   0  0  0  0  0  0  0  0  0  0  0  0
  179.9450  180.8400  139.9360 O   0  0  0  0  0  1  0  0  0  0  0  0
  188.6040  178.5330  139.8580 C   0  0  0  0  0  2  0  0  0  0  0  0
  190.4100  176.3410  142.3050 C   0  0  0  0  0  2  0  0  0  0  0  0
  188.5280  178.0970  142.2910 C   0  0  1  0  0  3  0  0  0  0  0  0
  187.8920  177.0990  143.2550 C   0  0  0  0  0  2  0  0  0  0  0  0
  187.9210  177.4620  145.6030 O   0  0  0  0  0  0  0  0  0  0  0  0
  190.0100  176.7960  144.7370 C   0  0  0  0  0  3  0  0  0  0  0  0
  188.5820  177.1350  144.5830 C   0  0  0  0  0  0  0  0  0  0  0  0
  189.9110  177.6830  141.7720 C   0  0  2  0  0  3  0  0  0  0  0  0
  190.8320  176.4510  143.7400 C   0  0  0  0  0  3  0  0  0  0  0  0
  188.6730  177.4590  140.9250 C   0  0  2  0  0  3  0  0  0  0  0  0
  1 25  1  0  0  0  0
  2 23  1  0  0  0  0
  3  7  1  0  0  0  0
  4 12  1  0  0  0  0
  4  1  1  0  0  0  0
  6  9  1  0  0  0  0
  7 10  1  0  0  0  0
  8  4  1  0  0  0  0
  9  3  1  0  0  0  0
 10  5  1  0  0  0  0
 11  6  1  0  0  0  0
 11 16  1  0  0  0  0
 12 18  1  0  0  0  0
 13  9  1  0  0  0  0
 13 14  1  0  0  0  0
 13 21  1  0  0  0  0
 15  8  1  0  0  0  0
 15  4  1  0  0  0  0
 16 20  1  0  0  0  0
 17 13  1  0  0  0  0
 18 24  1  0  0  0  0
 18 26  1  0  0  0  0
 19  5  1  0  0  0  0
 20  3  1  0  0  0  0
 20 28  1  0  0  0  0
 21  7  1  0  0  0  0
 22  2  1  0  0  0  0
 22  6  1  0  0  0  0
 23 14  1  0  0  0  0
 24 19  1  0  0  0  0
 25 21  1  0  0  0  0
 25 24  1  0  0  0  0
 26 27  1  0  0  0  0
 28 37  1  0  0  0  0
 29 36  1  0  0  0  0
 30 31  1  0  0  0  0
 31 34  1  0  0  0  0
 34 33  1  0  0  0  0
 34 32  2  0  0  0  0
 35 30  1  0  0  0  0
 35 29  1  0  0  0  0
 36 33  2  0  0  0  0
 37 35  1  0  0  0  0
 37 30  1  0  0  0  0
M  END
>  <MODEL>
3

>  <REMARK>
 VINA RESULT:      -8.3      2.573      5.613
  Name = 
  3 active torsions:
  status: ('A' for Active; 'I' for Inactive)
    1  A    between atoms: O_11  and  C_26
    2  A    between atoms: C_22  and  C_28
    3  A    between atoms: C_22  and  C_37
                            x       y       z     vdW  Elec       q    Type
                         _______ _______ _______ _____ _____    ______ ____

>  <TORSDO>
F 3

$$$$
=
 OpenBabel10262423013D

 37 44  0  0  1  0  0  0  0  0999 V2000
  185.7690  177.3650  136.7050 O   0  0  0  0  0  0  0  0  0  0  0  0
  181.8310  179.7500  140.1700 C   0  0  0  0  0  2  0  0  0  0  0  0
  186.0320  178.5770  141.3350 C   0  0  1  0  0  3  0  0  0  0  0  0
  185.8710  176.1820  135.9370 C   0  0  0  0  0  0  0  0  0  0  0  0
  188.5960  179.1890  138.8810 C   0  0  0  0  0  2  0  0  0  0  0  0
  183.6310  179.0490  141.7340 C   0  0  2  0  0  3  0  0  0  0  0  0
  186.8700  177.8940  140.2790 C   0  0  2  0  0  3  0  0  0  0  0  0
  185.1840  176.2120  134.5960 C   0  0  0  0  0  2  0  0  0  0  0  0
  184.6220  178.1980  140.9430 C   0  0  1  0  0  3  0  0  0  0  0  0
  188.2960  178.4680  140.1960 C   0  0  0  0  0  2  0  0  0  0  0  0
  183.7910  178.6720  143.2090 C   0  0  0  0  0  2  0  0  0  0  0  0
  187.0340  175.3700  136.0210 O   0  0  0  0  0  0  0  0  0  0  0  0
  184.5750  178.1360  139.4130 C   0  0  2  0  0  0  0  0  0  0  0  0
  183.9010  179.3530  138.7670 C   0  0  0  0  0  2  0  0  0  0  0  0
  184.5800  175.4240  135.7560 C   0  0  0  0  0  2  0  0  0  0  0  0
  185.2410  178.8640  143.6820 C   0  0  0  0  0  2  0  0  0  0  0  0
  183.9300  176.9550  139.0280 O   0  0  0  0  0  1  0  0  0  0  0  0
  188.1550  176.1770  136.3370 C   0  0  2  0  0  3  0  0  0  0  0  0
  188.8020  178.2430  137.6900 C   0  0  0  0  0  2  0  0  0  0  0  0
  186.2490  178.1250  142.7810 C   0  0  2  0  0  3  0  0  0  0  0  0
  186.0560  178.1100  139.0010 C   0  0  2  0  0  3  0  0  0  0  0  0
  182.1990  178.7980  141.2970 C   0  0  0  0  0  2  0  0  0  0  0  0
  182.3770  179.2810  138.8280 C   0  0  0  0  0  2  0  0  0  0  0  0
  187.9520  176.9520  137.6590 C   0  0  1  0  0  3  0  0  0  0  0  0
  186.4370  177.1060  137.9100 C   0  0  2  0  0  3  0  0  0  0  0  0
  188.4620  177.0230  135.2630 O   0  0  0  0  0  0  0  0  0  0  0  0
  189.7530  176.8580  135.0680 O   0  0  0  0  0  1  0  0  0  0  0  0
  187.6580  178.4480  143.2490 C   0  0  0  0  0  2  0  0  0  0  0  0
  190.2040  176.6480  145.3310 C   0  0  0  0  0  2  0  0  0  0  0  0
  188.1630  178.1830  145.6560 C   0  0  1  0  0  3  0  0  0  0  0  0
  187.8770  177.1940  146.7830 C   0  0  0  0  0  2  0  0  0  0  0  0
  188.3690  177.7250  149.0450 O   0  0  0  0  0  0  0  0  0  0  0  0
  190.2860  177.2300  147.7670 C   0  0  0  0  0  3  0  0  0  0  0  0
  188.8280  177.4000  147.9200 C   0  0  0  0  0  0  0  0  0  0  0  0
  189.4410  177.8850  144.8600 C   0  0  2  0  0  3  0  0  0  0  0  0
  190.9090  176.9060  146.6280 C   0  0  0  0  0  3  0  0  0  0  0  0
  188.0860  177.4680  144.3230 C   0  0  2  0  0  3  0  0  0  0  0  0
  1 25  1  0  0  0  0
  2 22  1  0  0  0  0
  3 20  1  0  0  0  0
  4 12  1  0  0  0  0
  4  1  1  0  0  0  0
  5 10  1  0  0  0  0
  6 11  1  0  0  0  0
  7  3  1  0  0  0  0
  8 15  1  0  0  0  0
  8  4  1  0  0  0  0
  9  3  1  0  0  0  0
  9  6  1  0  0  0  0
 10  7  1  0  0  0  0
 11 16  1  0  0  0  0
 12 18  1  0  0  0  0
 13  9  1  0  0  0  0
 14 23  1  0  0  0  0
 14 13  1  0  0  0  0
 15  4  1  0  0  0  0
 17 13  1  0  0  0  0
 18 24  1  0  0  0  0
 19  5  1  0  0  0  0
 20 28  1  0  0  0  0
 20 16  1  0  0  0  0
 21 13  1  0  0  0  0
 21  7  1  0  0  0  0
 22  6  1  0  0  0  0
 23  2  1  0  0  0  0
 24 19  1  0  0  0  0
 24 25  1  0  0  0  0
 25 21  1  0  0  0  0
 26 18  1  0  0  0  0
 27 26  1  0  0  0  0
 28 37  1  0  0  0  0
 29 36  1  0  0  0  0
 30 31  1  0  0  0  0
 31 34  1  0  0  0  0
 33 34  1  0  0  0  0
 34 32  2  0  0  0  0
 35 29  1  0  0  0  0
 35 30  1  0  0  0  0
 36 33  2  0  0  0  0
 37 35  1  0  0  0  0
 37 30  1  0  0  0  0
M  END
>  <MODEL>
4

>  <REMARK>
 VINA RESULT:      -7.6      2.368      3.438
  Name = 
  3 active torsions:
  status: ('A' for Active; 'I' for Inactive)
    1  A    between atoms: O_11  and  C_26
    2  A    between atoms: C_22  and  C_28
    3  A    between atoms: C_22  and  C_37
                            x       y       z     vdW  Elec       q    Type
                         _______ _______ _______ _____ _____    ______ ____

>  <TORSDO>
F 3

$$$$
=
 OpenBabel10262423013D

 37 44  0  0  1  0  0  0  0  0999 V2000
  186.8450  174.1890  135.9420 O   0  0  0  0  0  0  0  0  0  0  0  0
  181.1310  174.1740  136.6870 C   0  0  0  0  0  2  0  0  0  0  0  0
  184.0100  177.2620  138.2860 C   0  0  1  0  0  3  0  0  0  0  0  0
  187.9180  173.3230  136.2580 C   0  0  0  0  0  0  0  0  0  0  0  0
  186.7240  178.1900  136.1080 C   0  0  0  0  0  2  0  0  0  0  0  0
  181.9150  175.9360  138.2550 C   0  0  2  0  0  3  0  0  0  0  0  0
  185.4810  177.0240  138.0330 C   0  0  2  0  0  3  0  0  0  0  0  0
  188.1250  172.1680  135.3130 C   0  0  0  0  0  2  0  0  0  0  0  0
  183.4410  175.8620  138.3050 C   0  0  1  0  0  3  0  0  0  0  0  0
  186.2070  178.2890  137.5440 C   0  0  0  0  0  2  0  0  0  0  0  0
  181.4560  176.6120  139.5500 C   0  0  0  0  0  2  0  0  0  0  0  0
  189.0880  173.8300  136.8850 O   0  0  0  0  0  0  0  0  0  0  0  0
  184.2310  175.0340  137.2860 C   0  0  2  0  0  0  0  0  0  0  0  0
  183.4790  174.7940  135.9710 C   0  0  0  0  0  2  0  0  0  0  0  0
  187.5140  171.9370  136.6930 C   0  0  0  0  0  2  0  0  0  0  0  0
  182.1080  177.9940  139.7220 C   0  0  0  0  0  2  0  0  0  0  0  0
  184.5920  173.8170  137.8760 O   0  0  0  0  0  1  0  0  0  0  0  0
  189.2800  175.1830  136.5110 C   0  0  2  0  0  3  0  0  0  0  0  0
  187.9650  177.3010  135.9580 C   0  0  0  0  0  2  0  0  0  0  0  0
  183.6430  177.9300  139.6140 C   0  0  2  0  0  3  0  0  0  0  0  0
  185.4730  175.8940  137.0000 C   0  0  2  0  0  3  0  0  0  0  0  0
  181.2880  174.5580  138.1500 C   0  0  0  0  0  2  0  0  0  0  0  0
  182.4390  173.6810  136.0840 C   0  0  0  0  0  2  0  0  0  0  0  0
  188.0600  176.0600  136.8750 C   0  0  1  0  0  3  0  0  0  0  0  0
  186.8130  175.1550  136.9580 C   0  0  2  0  0  3  0  0  0  0  0  0
  189.6130  175.2680  135.1520 O   0  0  0  0  0  0  0  0  0  0  0  0
  190.9070  175.0330  135.1110 O   0  0  0  0  0  1  0  0  0  0  0  0
  184.2010  179.3410  139.6890 C   0  0  0  0  0  2  0  0  0  0  0  0
  184.8070  179.4740  143.3870 C   0  0  0  0  0  2  0  0  0  0  0  0
  185.5860  178.1240  141.3380 C   0  0  1  0  0  3  0  0  0  0  0  0
  186.9380  178.2750  142.0300 C   0  0  0  0  0  2  0  0  0  0  0  0
  187.8830  176.4990  143.2920 O   0  0  0  0  0  0  0  0  0  0  0  0
  186.0940  177.5710  144.3890 C   0  0  0  0  0  3  0  0  0  0  0  0
  187.0100  177.4030  143.2440 C   0  0  0  0  0  0  0  0  0  0  0  0
  184.4160  178.7800  142.0840 C   0  0  2  0  0  3  0  0  0  0  0  0
  185.1110  178.4760  144.4630 C   0  0  0  0  0  3  0  0  0  0  0  0
  185.0780  179.4880  140.9170 C   0  0  2  0  0  3  0  0  0  0  0  0
  1  4  1  0  0  0  0
  1 25  1  0  0  0  0
  2 22  1  0  0  0  0
  3  9  1  0  0  0  0
  3 20  1  0  0  0  0
  4 15  1  0  0  0  0
  4 12  1  0  0  0  0
  5 10  1  0  0  0  0
  6  9  1  0  0  0  0
  6 11  1  0  0  0  0
  7  3  1  0  0  0  0
  8  4  1  0  0  0  0
  8 15  1  0  0  0  0
 10  7  1  0  0  0  0
 11 16  1  0  0  0  0
 13 17  1  0  0  0  0
 13  9  1  0  0  0  0
 14 23  1  0  0  0  0
 14 13  1  0  0  0  0
 18 24  1  0  0  0  0
 18 12  1  0  0  0  0
 19  5  1  0  0  0  0
 19 24  1  0  0  0  0
 20 28  1  0  0  0  0
 20 16  1  0  0  0  0
 21 13  1  0  0  0  0
 21  7  1  0  0  0  0
 22  6  1  0  0  0  0
 23  2  1  0  0  0  0
 24 25  1  0  0  0  0
 25 21  1  0  0  0  0
 26 18  1  0  0  0  0
 27 26  1  0  0  0  0
 28 37  1  0  0  0  0
 29 36  1  0  0  0  0
 30 31  1  0  0  0  0
 30 35  1  0  0  0  0
 31 34  1  0  0  0  0
 33 36  2  0  0  0  0
 34 32  2  0  0  0  0
 34 33  1  0  0  0  0
 35 29  1  0  0  0  0
 37 30  1  0  0  0  0
 37 35  1  0  0  0  0
M  END
>  <MODEL>
5

>  <REMARK>
 VINA RESULT:      -7.6      3.283      5.688
  Name = 
  3 active torsions:
  status: ('A' for Active; 'I' for Inactive)
    1  A    between atoms: O_11  and  C_26
    2  A    between atoms: C_22  and  C_28
    3  A    between atoms: C_22  and  C_37
                            x       y       z     vdW  Elec       q    Type
                         _______ _______ _______ _____ _____    ______ ____

>  <TORSDO>
F 3

$$$$
=
 OpenBabel10262423013D

 37 44  0  0  1  0  0  0  0  0999 V2000
  181.3800  177.4490  138.6520 O   0  0  0  0  0  0  0  0  0  0  0  0
  184.1520  172.9390  136.3770 C   0  0  0  0  0  2  0  0  0  0  0  0
  186.0180  176.8650  137.5940 C   0  0  1  0  0  3  0  0  0  0  0  0
  180.3280  178.3070  138.2560 C   0  0  0  0  0  0  0  0  0  0  0  0
  184.7510  178.3640  140.6140 C   0  0  0  0  0  2  0  0  0  0  0  0
  185.8430  174.7580  136.2990 C   0  0  2  0  0  3  0  0  0  0  0  0
  185.0840  177.9410  138.1000 C   0  0  2  0  0  3  0  0  0  0  0  0
  178.9350  177.7670  138.4520 C   0  0  0  0  0  2  0  0  0  0  0  0
  185.1350  176.0610  136.6680 C   0  0  1  0  0  3  0  0  0  0  0  0
  185.6090  178.6250  139.3750 C   0  0  0  0  0  2  0  0  0  0  0  0
  187.0910  175.1360  135.4960 C   0  0  0  0  0  2  0  0  0  0  0  0
  180.4690  179.7160  138.3710 O   0  0  0  0  0  0  0  0  0  0  0  0
  183.7260  176.0580  137.2680 C   0  0  2  0  0  0  0  0  0  0  0  0
  183.3540  174.7430  137.9640 C   0  0  0  0  0  2  0  0  0  0  0  0
  179.5430  177.8440  137.0540 C   0  0  0  0  0  2  0  0  0  0  0  0
  187.9950  176.0960  136.2860 C   0  0  0  0  0  2  0  0  0  0  0  0
  182.8040  176.3580  136.2580 O   0  0  0  0  0  1  0  0  0  0  0  0
  181.3420  180.0210  139.4440 C   0  0  2  0  0  3  0  0  0  0  0  0
  183.4270  179.1400  140.6240 C   0  0  0  0  0  2  0  0  0  0  0  0
  187.2310  177.3350  136.7880 C   0  0  2  0  0  3  0  0  0  0  0  0
  183.7720  177.1820  138.3180 C   0  0  2  0  0  3  0  0  0  0  0  0
  184.9560  173.8520  135.4650 C   0  0  0  0  0  2  0  0  0  0  0  0
  182.9470  173.6510  136.9770 C   0  0  0  0  0  2  0  0  0  0  0  0
  182.7280  179.3610  139.2640 C   0  0  1  0  0  3  0  0  0  0  0  0
  182.5690  178.1270  138.3500 C   0  0  2  0  0  3  0  0  0  0  0  0
  180.7440  179.6830  140.6660 O   0  0  0  0  0  0  0  0  0  0  0  0
  179.9360  180.6880  140.9300 O   0  0  0  0  0  1  0  0  0  0  0  0
  188.1640  178.1770  137.6420 C   0  0  0  0  0  2  0  0  0  0  0  0
  191.1520  176.7980  139.4400 C   0  0  0  0  0  2  0  0  0  0  0  0
  188.9890  178.0900  139.9720 C   0  0  1  0  0  3  0  0  0  0  0  0
  188.9700  177.1280  141.1580 C   0  0  0  0  0  2  0  0  0  0  0  0
  189.6640  177.8240  143.3210 O   0  0  0  0  0  0  0  0  0  0  0  0
  191.4580  177.5020  141.8260 C   0  0  0  0  0  3  0  0  0  0  0  0
  190.0200  177.5030  142.1570 C   0  0  0  0  0  0  0  0  0  0  0  0
  190.1880  177.9110  139.0310 C   0  0  2  0  0  3  0  0  0  0  0  0
  191.9730  177.2020  140.6280 C   0  0  0  0  0  3  0  0  0  0  0  0
  188.8400  177.3070  138.6840 C   0  0  2  0  0  3  0  0  0  0  0  0
  2 23  1  0  0  0  0
  3  7  1  0  0  0  0
  4 12  1  0  0  0  0
  4  8  1  0  0  0  0
  4  1  1  0  0  0  0
  5 19  1  0  0  0  0
  6  9  1  0  0  0  0
  7 21  1  0  0  0  0
  7 10  1  0  0  0  0
  9 13  1  0  0  0  0
  9  3  1  0  0  0  0
 10  5  1  0  0  0  0
 11 16  1  0  0  0  0
 11  6  1  0  0  0  0
 12 18  1  0  0  0  0
 13 14  1  0  0  0  0
 13 21  1  0  0  0  0
 15  4  1  0  0  0  0
 15  8  1  0  0  0  0
 16 20  1  0  0  0  0
 17 13  1  0  0  0  0
 18 26  1  0  0  0  0
 20  3  1  0  0  0  0
 20 28  1  0  0  0  0
 21 25  1  0  0  0  0
 22  6  1  0  0  0  0
 22  2  1  0  0  0  0
 23 14  1  0  0  0  0
 24 18  1  0  0  0  0
 24 19  1  0  0  0  0
 25  1  1  0  0  0  0
 25 24  1  0  0  0  0
 26 27  1  0  0  0  0
 28 37  1  0  0  0  0
 29 36  1  0  0  0  0
 30 31  1  0  0  0  0
 31 34  1  0  0  0  0
 33 34  1  0  0  0  0
 34 32  2  0  0  0  0
 35 29  1  0  0  0  0
 35 30  1  0  0  0  0
 36 33  2  0  0  0  0
 37 35  1  0  0  0  0
 37 30  1  0  0  0  0
M  END
>  <MODEL>
6

>  <REMARK>
 VINA RESULT:      -7.2      2.971      6.109
  Name = 
  3 active torsions:
  status: ('A' for Active; 'I' for Inactive)
    1  A    between atoms: O_11  and  C_26
    2  A    between atoms: C_22  and  C_28
    3  A    between atoms: C_22  and  C_37
                            x       y       z     vdW  Elec       q    Type
                         _______ _______ _______ _____ _____    ______ ____

>  <TORSDO>
F 3

$$$$
=
 OpenBabel10262423013D

 37 44  0  0  1  0  0  0  0  0999 V2000
  180.6750  177.0120  138.2450 O   0  0  0  0  0  0  0  0  0  0  0  0
  179.6110  179.6850  143.2380 C   0  0  0  0  0  2  0  0  0  0  0  0
  183.6890  178.8150  141.5080 C   0  0  1  0  0  3  0  0  0  0  0  0
  180.3930  175.7450  137.6860 C   0  0  0  0  0  0  0  0  0  0  0  0
  184.0210  179.1940  137.9420 C   0  0  0  0  0  2  0  0  0  0  0  0
  182.0570  179.2520  143.3220 C   0  0  2  0  0  3  0  0  0  0  0  0
  183.7320  178.0310  140.2160 C   0  0  2  0  0  3  0  0  0  0  0  0
  179.0120  175.5790  137.1050 C   0  0  0  0  0  2  0  0  0  0  0  0
  182.4030  178.3410  142.1460 C   0  0  1  0  0  3  0  0  0  0  0  0
  184.7060  178.6380  139.1910 C   0  0  0  0  0  2  0  0  0  0  0  0
  183.1580  179.0720  144.3710 C   0  0  0  0  0  2  0  0  0  0  0  0
  181.4230  174.9910  137.0620 O   0  0  0  0  0  0  0  0  0  0  0  0
  181.4010  178.0820  141.0170 C   0  0  2  0  0  0  0  0  0  0  0  0
  180.3440  179.1830  140.8670 C   0  0  0  0  0  2  0  0  0  0  0  0
  179.3730  174.9260  138.4370 C   0  0  0  0  0  2  0  0  0  0  0  0
  184.5460  179.3720  143.7810 C   0  0  0  0  0  2  0  0  0  0  0  0
  180.7910  176.8400  141.2300 O   0  0  0  0  0  1  0  0  0  0  0  0
  182.3930  175.8680  136.5190 C   0  0  2  0  0  3  0  0  0  0  0  0
  183.5240  178.1120  136.9750 C   0  0  0  0  0  2  0  0  0  0  0  0
  184.8230  178.5600  142.5030 C   0  0  2  0  0  3  0  0  0  0  0  0
  182.2740  178.0540  139.7510 C   0  0  2  0  0  3  0  0  0  0  0  0
  180.7120  178.8990  143.9310 C   0  0  0  0  0  2  0  0  0  0  0  0
  179.2250  179.0680  141.9010 C   0  0  0  0  0  2  0  0  0  0  0  0
  182.9950  176.7990  137.5970 C   0  0  1  0  0  3  0  0  0  0  0  0
  181.9800  176.9320  138.7530 C   0  0  2  0  0  3  0  0  0  0  0  0
  181.8530  176.5800  135.4400 O   0  0  0  0  0  0  0  0  0  0  0  0
  181.2330  175.6700  134.7180 O   0  0  0  0  0  1  0  0  0  0  0  0
  186.1630  178.9870  141.9270 C   0  0  0  0  0  2  0  0  0  0  0  0
  188.1780  176.3700  143.7000 C   0  0  0  0  0  2  0  0  0  0  0  0
  188.5270  178.2650  141.9930 C   0  0  1  0  0  3  0  0  0  0  0  0
  189.7720  178.5020  142.8440 C   0  0  0  0  0  2  0  0  0  0  0  0
  191.9130  177.7570  142.1320 O   0  0  0  0  0  0  0  0  0  0  0  0
  190.5230  176.0100  142.8900 C   0  0  0  0  0  3  0  0  0  0  0  0
  190.7900  177.4320  142.5990 C   0  0  0  0  0  0  0  0  0  0  0  0
  187.6540  177.0940  142.4610 C   0  0  2  0  0  3  0  0  0  0  0  0
  189.3720  175.5250  143.3690 C   0  0  0  0  0  3  0  0  0  0  0  0
  187.2890  178.5190  142.8280 C   0  0  2  0  0  3  0  0  0  0  0  0
  1 25  1  0  0  0  0
  2 22  1  0  0  0  0
  3  9  1  0  0  0  0
  3 20  1  0  0  0  0
  4  1  1  0  0  0  0
  4 15  1  0  0  0  0
  5 10  1  0  0  0  0
  6 22  1  0  0  0  0
  6 11  1  0  0  0  0
  7  3  1  0  0  0  0
  8  4  1  0  0  0  0
  8 15  1  0  0  0  0
  9  6  1  0  0  0  0
 10  7  1  0  0  0  0
 12  4  1  0  0  0  0
 13 17  1  0  0  0  0
 13  9  1  0  0  0  0
 14 13  1  0  0  0  0
 14 23  1  0  0  0  0
 16 11  1  0  0  0  0
 18 12  1  0  0  0  0
 18 24  1  0  0  0  0
 19 24  1  0  0  0  0
 19  5  1  0  0  0  0
 20 16  1  0  0  0  0
 21  7  1  0  0  0  0
 21 13  1  0  0  0  0
 23  2  1  0  0  0  0
 24 25  1  0  0  0  0
 25 21  1  0  0  0  0
 26 18  1  0  0  0  0
 27 26  1  0  0  0  0
 28 20  1  0  0  0  0
 28 37  1  0  0  0  0
 30 35  1  0  0  0  0
 30 37  1  0  0  0  0
 30 31  1  0  0  0  0
 32 34  2  0  0  0  0
 33 36  2  0  0  0  0
 34 31  1  0  0  0  0
 34 33  1  0  0  0  0
 35 37  1  0  0  0  0
 35 29  1  0  0  0  0
 36 29  1  0  0  0  0
M  END
>  <MODEL>
7

>  <REMARK>
 VINA RESULT:      -6.8      1.984      2.305
  Name = 
  3 active torsions:
  status: ('A' for Active; 'I' for Inactive)
    1  A    between atoms: O_11  and  C_26
    2  A    between atoms: C_22  and  C_28
    3  A    between atoms: C_22  and  C_37
                            x       y       z     vdW  Elec       q    Type
                         _______ _______ _______ _____ _____    ______ ____

>  <TORSDO>
F 3

$$$$
=
 OpenBabel10262423013D

 37 44  0  0  1  0  0  0  0  0999 V2000
  189.1820  176.8770  146.3940 O   0  0  0  0  0  0  0  0  0  0  0  0
  185.1430  177.8780  142.4070 C   0  0  0  0  0  2  0  0  0  0  0  0
  189.5700  177.4220  141.6480 C   0  0  1  0  0  3  0  0  0  0  0  0
  189.6560  177.5330  147.5530 C   0  0  0  0  0  0  0  0  0  0  0  0
  191.2720  174.9160  143.5940 C   0  0  0  0  0  2  0  0  0  0  0  0
  187.2730  178.2280  141.1750 C   0  0  2  0  0  3  0  0  0  0  0  0
  190.4580  177.2400  142.8570 C   0  0  2  0  0  3  0  0  0  0  0  0
  188.8370  177.3280  148.8020 C   0  0  0  0  0  2  0  0  0  0  0  0
  188.4050  178.2120  142.2010 C   0  0  1  0  0  3  0  0  0  0  0  0
  191.4880  176.1130  142.6680 C   0  0  0  0  0  2  0  0  0  0  0  0
  187.7830  178.9970  139.9540 C   0  0  0  0  0  2  0  0  0  0  0  0
  191.0510  177.7220  147.7500 O   0  0  0  0  0  0  0  0  0  0  0  0
  188.1720  177.7350  143.6380 C   0  0  2  0  0  0  0  0  0  0  0  0
  186.9690  176.7950  143.7870 C   0  0  0  0  0  2  0  0  0  0  0  0
  188.7860  178.6580  148.0530 C   0  0  0  0  0  2  0  0  0  0  0  0
  189.0730  178.3730  139.3980 C   0  0  0  0  0  2  0  0  0  0  0  0
  188.0290  178.8540  144.4670 O   0  0  0  0  0  1  0  0  0  0  0  0
  191.7680  176.6800  147.1130 C   0  0  2  0  0  3  0  0  0  0  0  0
  191.6810  175.1780  145.0500 C   0  0  0  0  0  2  0  0  0  0  0  0
  190.1580  178.2180  140.4800 C   0  0  2  0  0  3  0  0  0  0  0  0
  189.4550  176.9610  143.9800 C   0  0  2  0  0  3  0  0  0  0  0  0
  186.0290  178.9050  141.7210 C   0  0  0  0  0  2  0  0  0  0  0  0
  185.6380  177.5440  143.8080 C   0  0  0  0  0  2  0  0  0  0  0  0
  191.4500  176.6040  145.6020 C   0  0  1  0  0  3  0  0  0  0  0  0
  190.0600  177.2310  145.3600 C   0  0  2  0  0  3  0  0  0  0  0  0
  191.5390  175.4630  147.7690 O   0  0  0  0  0  0  0  0  0  0  0  0
  192.6340  175.2520  148.4680 O   0  0  0  0  0  1  0  0  0  0  0  0
  191.3550  177.5030  139.8780 C   0  0  0  0  0  2  0  0  0  0  0  0
  192.2140  176.0040  136.5510 C   0  0  0  0  0  2  0  0  0  0  0  0
  190.6370  175.5550  138.5340 C   0  0  1  0  0  3  0  0  0  0  0  0
  189.6620  175.2430  137.4020 C   0  0  0  0  0  2  0  0  0  0  0  0
  189.1690  173.0040  136.7790 O   0  0  0  0  0  0  0  0  0  0  0  0
  191.3000  173.7200  136.0710 C   0  0  0  0  0  3  0  0  0  0  0  0
  190.0090  173.9410  136.7510 C   0  0  0  0  0  0  0  0  0  0  0  0
  192.0380  175.9700  138.0680 C   0  0  2  0  0  3  0  0  0  0  0  0
  192.2870  174.6190  135.9820 C   0  0  0  0  0  3  0  0  0  0  0  0
  191.0240  177.0190  138.4810 C   0  0  2  0  0  3  0  0  0  0  0  0
  1  4  1  0  0  0  0
  2 23  1  0  0  0  0
  3  9  1  0  0  0  0
  3  7  1  0  0  0  0
  4 12  1  0  0  0  0
  4 15  1  0  0  0  0
  4  8  1  0  0  0  0
  5 19  1  0  0  0  0
  6 22  1  0  0  0  0
  6  9  1  0  0  0  0
  7 21  1  0  0  0  0
  9 13  1  0  0  0  0
 10  7  1  0  0  0  0
 10  5  1  0  0  0  0
 11  6  1  0  0  0  0
 13 14  1  0  0  0  0
 13 21  1  0  0  0  0
 13 17  1  0  0  0  0
 14 23  1  0  0  0  0
 15  8  1  0  0  0  0
 16 11  1  0  0  0  0
 16 20  1  0  0  0  0
 18 12  1  0  0  0  0
 18 26  1  0  0  0  0
 19 24  1  0  0  0  0
 20  3  1  0  0  0  0
 21 25  1  0  0  0  0
 22  2  1  0  0  0  0
 24 18  1  0  0  0  0
 25 24  1  0  0  0  0
 25  1  1  0  0  0  0
 26 27  1  0  0  0  0
 28 20  1  0  0  0  0
 29 35  1  0  0  0  0
 31 30  1  0  0  0  0
 33 34  1  0  0  0  0
 34 32  2  0  0  0  0
 34 31  1  0  0  0  0
 35 37  1  0  0  0  0
 35 30  1  0  0  0  0
 36 33  2  0  0  0  0
 36 29  1  0  0  0  0
 37 30  1  0  0  0  0
 37 28  1  0  0  0  0
M  END
>  <MODEL>
8

>  <REMARK>
 VINA RESULT:      -6.8      4.739     10.035
  Name = 
  3 active torsions:
  status: ('A' for Active; 'I' for Inactive)
    1  A    between atoms: O_11  and  C_26
    2  A    between atoms: C_22  and  C_28
    3  A    between atoms: C_22  and  C_37
                            x       y       z     vdW  Elec       q    Type
                         _______ _______ _______ _____ _____    ______ ____

>  <TORSDO>
F 3

$$$$
=
 OpenBabel10262423013D

 37 44  0  0  1  0  0  0  0  0999 V2000
  182.8120  178.0830  142.6210 O   0  0  0  0  0  0  0  0  0  0  0  0
  182.1000  175.4470  137.5470 C   0  0  0  0  0  2  0  0  0  0  0  0
  185.6950  177.8730  138.7980 C   0  0  1  0  0  3  0  0  0  0  0  0
  182.1360  179.0850  143.3540 C   0  0  0  0  0  0  0  0  0  0  0  0
  186.7560  177.5030  142.2200 C   0  0  0  0  0  2  0  0  0  0  0  0
  184.1020  176.8740  137.1830 C   0  0  2  0  0  3  0  0  0  0  0  0
  185.6340  178.5410  140.1530 C   0  0  2  0  0  3  0  0  0  0  0  0
  180.9290  178.6260  144.1310 C   0  0  0  0  0  2  0  0  0  0  0  0
  184.2400  177.7910  138.3970 C   0  0  1  0  0  3  0  0  0  0  0  0
  186.9300  178.3540  140.9610 C   0  0  0  0  0  2  0  0  0  0  0  0
  184.8380  177.5500  136.0230 C   0  0  0  0  0  2  0  0  0  0  0  0
  182.8580  180.1730  143.9150 O   0  0  0  0  0  0  0  0  0  0  0  0
  183.4280  177.5490  139.6730 C   0  0  2  0  0  0  0  0  0  0  0  0
  182.9550  176.1000  139.8380 C   0  0  0  0  0  2  0  0  0  0  0  0
  180.7600  179.4320  142.8450 C   0  0  0  0  0  2  0  0  0  0  0  0
  186.3050  177.8360  136.3810 C   0  0  0  0  0  2  0  0  0  0  0  0
  182.3380  178.4270  139.6880 O   0  0  0  0  0  1  0  0  0  0  0  0
  184.1790  179.7620  144.2180 C   0  0  2  0  0  3  0  0  0  0  0  0
  186.0320  178.2290  143.3620 C   0  0  0  0  0  2  0  0  0  0  0  0
  186.4390  178.6290  137.6940 C   0  0  2  0  0  3  0  0  0  0  0  0
  184.4140  177.8840  140.8050 C   0  0  2  0  0  3  0  0  0  0  0  0
  182.6480  176.6560  136.8050 C   0  0  0  0  0  2  0  0  0  0  0  0
  181.7300  175.7810  138.9860 C   0  0  0  0  0  2  0  0  0  0  0  0
  184.9150  179.2230  142.9710 C   0  0  1  0  0  3  0  0  0  0  0  0
  183.8630  178.7290  141.9550 C   0  0  2  0  0  3  0  0  0  0  0  0
  184.1690  178.8400  145.2730 O   0  0  0  0  0  0  0  0  0  0  0  0
  184.9390  179.3790  146.1950 O   0  0  0  0  0  1  0  0  0  0  0  0
  187.9130  178.7800  138.0320 C   0  0  0  0  0  2  0  0  0  0  0  0
  189.7220  176.2480  135.9400 C   0  0  0  0  0  2  0  0  0  0  0  0
  190.1150  177.6540  138.0600 C   0  0  1  0  0  3  0  0  0  0  0  0
  190.7230  176.3420  138.5500 C   0  0  0  0  0  2  0  0  0  0  0  0
  193.0750  176.0120  138.5910 O   0  0  0  0  0  0  0  0  0  0  0  0
  192.1600  175.9210  136.4210 C   0  0  0  0  0  3  0  0  0  0  0  0
  192.0380  176.0890  137.8820 C   0  0  0  0  0  0  0  0  0  0  0  0
  189.5680  177.6030  136.6280 C   0  0  2  0  0  3  0  0  0  0  0  0
  191.1480  175.9970  135.5490 C   0  0  0  0  0  3  0  0  0  0  0  0
  188.6320  177.4640  137.8130 C   0  0  2  0  0  3  0  0  0  0  0  0
  1  4  1  0  0  0  0
  2 23  1  0  0  0  0
  3  7  1  0  0  0  0
  4 12  1  0  0  0  0
  4  8  1  0  0  0  0
  5 19  1  0  0  0  0
  6  9  1  0  0  0  0
  7 21  1  0  0  0  0
  7 10  1  0  0  0  0
  9  3  1  0  0  0  0
  9 13  1  0  0  0  0
 10  5  1  0  0  0  0
 11 16  1  0  0  0  0
 11  6  1  0  0  0  0
 12 18  1  0  0  0  0
 13 17  1  0  0  0  0
 13 14  1  0  0  0  0
 13 21  1  0  0  0  0
 15  4  1  0  0  0  0
 15  8  1  0  0  0  0
 16 20  1  0  0  0  0
 18 26  1  0  0  0  0
 20 28  1  0  0  0  0
 20  3  1  0  0  0  0
 21 25  1  0  0  0  0
 22  6  1  0  0  0  0
 22  2  1  0  0  0  0
 23 14  1  0  0  0  0
 24 19  1  0  0  0  0
 24 18  1  0  0  0  0
 25  1  1  0  0  0  0
 25 24  1  0  0  0  0
 26 27  1  0  0  0  0
 29 35  1  0  0  0  0
 30 31  1  0  0  0  0
 33 34  1  0  0  0  0
 34 31  1  0  0  0  0
 34 32  2  0  0  0  0
 35 37  1  0  0  0  0
 35 30  1  0  0  0  0
 36 29  1  0  0  0  0
 36 33  2  0  0  0  0
 37 28  1  0  0  0  0
 37 30  1  0  0  0  0
M  END
>  <MODEL>
9

>  <REMARK>
 VINA RESULT:      -6.7      3.796      7.279
  Name = 
  3 active torsions:
  status: ('A' for Active; 'I' for Inactive)
    1  A    between atoms: O_11  and  C_26
    2  A    between atoms: C_22  and  C_28
    3  A    between atoms: C_22  and  C_37
                            x       y       z     vdW  Elec       q    Type
                         _______ _______ _______ _____ _____    ______ ____

>  <TORSDO>
F 3

$$$$
