=
 OpenBabel10262422443D

 43 48  0  0  1  0  0  0  0  0999 V2000
  187.2570  178.4430  137.1100 C   0  0  0  0  0  2  0  0  0  0  0  0
  186.7410  177.2620  136.2750 C   0  0  1  0  0  3  0  0  0  0  0  0
  188.7700  178.3770  137.2790 C   0  0  0  0  0  2  0  0  0  0  0  0
  187.5800  175.9830  136.4150 C   0  0  0  0  0  2  0  0  0  0  0  0
  188.2610  175.8970  137.7820 C   0  0  0  0  0  2  0  0  0  0  0  0
  189.1800  177.1070  138.0410 C   0  0  1  0  0  3  0  0  0  0  0  0
  184.7330  177.4910  137.8050 N   0  0  0  0  0  2  0  0  0  0  0  0
  185.3080  176.9910  136.5890 C   0  0  0  0  0  0  0  0  0  0  0  0
  184.6190  176.3150  135.7780 O   0  0  0  0  0  0  0  0  0  0  0  0
  183.3520  177.2970  138.2460 C   0  0  2  0  0  3  0  0  0  0  0  0
  181.9300  179.1550  138.8520 N   0  0  0  0  0  2  0  0  0  0  0  0
  182.5000  178.6800  140.1060 C   0  0  2  0  0  3  0  0  0  0  0  0
  182.4740  178.3970  137.7940 C   0  0  0  0  0  0  0  0  0  0  0  0
  183.2340  177.3510  139.7700 C   0  0  1  0  0  3  0  0  0  0  0  0
  182.4990  176.2420  140.1980 O   0  0  0  0  0  1  0  0  0  0  0  0
  182.2080  178.6300  136.5870 O   0  0  0  0  0  0  0  0  0  0  0  0
  181.4660  178.5280  141.1400 N   0  0  0  0  0  0  0  0  0  0  0  0
  181.0180  178.8050  143.5360 C   0  0  0  0  0  2  0  0  0  0  0  0
  179.2250  179.2340  141.8420 C   0  0  0  0  0  2  0  0  0  0  0  0
  179.7530  179.5990  143.2250 C   0  0  0  0  0  2  0  0  0  0  0  0
  180.3380  179.4060  140.8110 C   0  0  0  0  0  2  0  0  0  0  0  0
  182.0300  179.0020  142.4090 C   0  0  0  0  0  2  0  0  0  0  0  0
  190.6600  176.7900  137.8170 C   0  0  2  0  0  3  0  0  0  0  0  0
  195.8970  174.9360  136.2390 C   0  0  0  0  0  0  0  0  0  0  0  0
  190.8700  175.5000  136.9930 C   0  0  2  0  0  3  0  0  0  0  0  0
  193.5540  175.5210  136.0470 C   0  0  0  0  0  0  0  0  0  0  0  0
  195.5960  174.0690  137.2940 C   0  0  0  0  0  3  0  0  0  0  0  0
  197.3020  175.0910  135.7820 C   0  0  0  0  0  1  0  0  0  0  0  0
  193.2530  174.6670  137.1250 C   0  0  0  0  0  0  0  0  0  0  0  0
  194.8770  175.6640  135.6210 C   0  0  0  0  0  3  0  0  0  0  0  0
  194.2770  173.9330  137.7340 C   0  0  0  0  0  3  0  0  0  0  0  0
  191.8390  174.4710  137.5930 C   0  0  0  0  0  2  0  0  0  0  0  0
  191.1610  175.7730  135.5810 N   0  0  0  0  0  2  0  0  0  0  0  0
  192.4880  176.3740  135.4290 C   0  0  0  0  0  2  0  0  0  0  0  0
  191.3650  176.7600  139.0940 N   0  0  0  0  0  2  0  0  0  0  0  0
  190.5880  177.5500  140.0350 C   0  0  0  0  0  2  0  0  0  0  0  0
  189.0780  176.6640  141.7920 C   0  0  0  0  0  2  0  0  0  0  0  0
  188.6490  177.8560  142.6250 C   0  0  1  0  0  3  0  0  0  0  0  0
  191.3610  177.8550  142.6650 S   0  0  0  0  0  0  0  0  0  0  0  0
  190.5280  176.8550  141.3870 C   0  0  2  0  0  3  0  0  0  0  0  0
  189.8050  178.1810  143.5460 C   0  0  0  0  0  2  0  0  0  0  0  0
  187.1890  178.6280  141.1500 C   0  0  0  0  0  1  0  0  0  0  0  0
  188.3840  178.9480  141.7950 O   0  0  0  0  0  0  0  0  0  0  0  0
  1  3  1  0  0  0  0
  2  4  1  0  0  0  0
  2  8  1  1  0  0  0
  2  1  1  0  0  0  0
  3  6  1  0  0  0  0
  4  5  1  0  0  0  0
  5  6  1  0  0  0  0
  6 23  1  6  0  0  0
  8  7  1  0  0  0  0
  9  8  2  0  0  0  0
 10  7  1  1  0  0  0
 10 14  1  0  0  0  0
 11 12  1  0  0  0  0
 12 17  1  1  0  0  0
 13 10  1  0  0  0  0
 13 11  1  0  0  0  0
 14 12  1  0  0  0  0
 14 15  1  6  0  0  0
 16 13  2  0  0  0  0
 17 22  1  0  0  0  0
 19 20  1  0  0  0  0
 20 18  1  0  0  0  0
 21 17  1  0  0  0  0
 21 19  1  0  0  0  0
 22 18  1  0  0  0  0
 23 35  1  1  0  0  0
 24 27  1  0  0  0  0
 25 32  1  0  0  0  0
 25 23  1  1  0  0  0
 26 29  2  0  0  0  0
 27 31  2  0  0  0  0
 28 24  1  0  0  0  0
 29 32  1  0  0  0  0
 29 31  1  0  0  0  0
 30 26  1  0  0  0  0
 30 24  2  0  0  0  0
 33 25  1  0  0  0  0
 34 33  1  0  0  0  0
 34 26  1  0  0  0  0
 35 36  1  0  0  0  0
 37 38  1  0  0  0  0
 38 43  1  6  0  0  0
 38 41  1  0  0  0  0
 39 41  1  0  0  0  0
 40 36  1  6  0  0  0
 40 37  1  0  0  0  0
 40 39  1  0  0  0  0
 42 43  1  0  0  0  0
M  END
>  <MODEL>
1

>  <REMARK>
 VINA RESULT:      -6.7      0.000      0.000
  Name = 
  9 active torsions:
  status: ('A' for Active; 'I' for Inactive)
    1  A    between atoms: N_1  and  C_34
    2  A    between atoms: N_1  and  C_35
    3  A    between atoms: N_3  and  C_4
    4  A    between atoms: C_6  and  C_12
    5  A    between atoms: C_8  and  C_34
    6  A    between atoms: N_11  and  C_14
    7  A    between atoms: C_19  and  O_37
    8  A    between atoms: C_32  and  C_35
    9  A    between atoms: C_34  and  C_38
                            x       y       z     vdW  Elec       q    Type
                         _______ _______ _______ _____ _____    ______ ____

>  <TORSDO>
F 9

$$$$
=
 OpenBabel10262422443D

 43 48  0  0  1  0  0  0  0  0999 V2000
  190.7940  175.6420  138.6480 C   0  0  0  0  0  2  0  0  0  0  0  0
  190.9820  177.1430  138.9130 C   0  0  1  0  0  3  0  0  0  0  0  0
  189.7680  175.4040  137.5460 C   0  0  0  0  0  2  0  0  0  0  0  0
  189.7250  177.9870  138.6490 C   0  0  0  0  0  2  0  0  0  0  0  0
  188.4440  177.1810  138.8670 C   0  0  0  0  0  2  0  0  0  0  0  0
  188.3880  175.9380  137.9600 C   0  0  1  0  0  3  0  0  0  0  0  0
  190.5760  177.3240  141.4090 N   0  0  0  0  0  2  0  0  0  0  0  0
  191.4860  177.3660  140.3000 C   0  0  0  0  0  0  0  0  0  0  0  0
  192.7120  177.5980  140.4770 O   0  0  0  0  0  0  0  0  0  0  0  0
  190.9250  177.5310  142.8140 C   0  0  2  0  0  3  0  0  0  0  0  0
  189.9320  176.2200  144.5840 N   0  0  0  0  0  2  0  0  0  0  0  0
  189.1270  177.4320  144.5050 C   0  0  2  0  0  3  0  0  0  0  0  0
  190.9140  176.2630  143.5730 C   0  0  0  0  0  0  0  0  0  0  0  0
  189.8790  178.3850  143.5340 C   0  0  1  0  0  3  0  0  0  0  0  0
  190.5400  179.4010  144.2300 O   0  0  0  0  0  1  0  0  0  0  0  0
  191.7130  175.3150  143.3650 O   0  0  0  0  0  0  0  0  0  0  0  0
  188.9030  178.0140  145.8350 N   0  0  0  0  0  0  0  0  0  0  0  0
  187.1800  178.4930  147.5130 C   0  0  0  0  0  2  0  0  0  0  0  0
  189.4990  177.8590  148.2090 C   0  0  0  0  0  2  0  0  0  0  0  0
  188.0250  177.8300  148.5970 C   0  0  0  0  0  2  0  0  0  0  0  0
  189.6720  177.2460  146.8210 C   0  0  0  0  0  2  0  0  0  0  0  0
  187.4840  177.8450  146.1650 C   0  0  0  0  0  2  0  0  0  0  0  0
  187.4890  176.1310  136.7370 C   0  0  2  0  0  3  0  0  0  0  0  0
  181.9510  176.9840  135.3390 C   0  0  0  0  0  0  0  0  0  0  0  0
  186.8520  177.5380  136.6890 C   0  0  2  0  0  3  0  0  0  0  0  0
  184.3530  177.2970  135.3500 C   0  0  0  0  0  0  0  0  0  0  0  0
  181.9210  177.1480  136.7270 C   0  0  0  0  0  3  0  0  0  0  0  0
  180.6920  176.7240  134.5940 C   0  0  0  0  0  1  0  0  0  0  0  0
  184.3270  177.4400  136.7500 C   0  0  0  0  0  0  0  0  0  0  0  0
  183.1670  177.0530  134.6540 C   0  0  0  0  0  3  0  0  0  0  0  0
  183.1060  177.3790  137.4300 C   0  0  0  0  0  3  0  0  0  0  0  0
  185.5790  177.7270  137.5280 C   0  0  0  0  0  2  0  0  0  0  0  0
  186.6890  178.0380  135.3190 N   0  0  0  0  0  2  0  0  0  0  0  0
  185.6550  177.2830  134.6090 C   0  0  0  0  0  2  0  0  0  0  0  0
  186.4960  175.0640  136.6700 N   0  0  0  0  0  2  0  0  0  0  0  0
  187.0200  174.0400  135.7820 C   0  0  0  0  0  2  0  0  0  0  0  0
  185.9840  171.8780  135.1470 C   0  0  0  0  0  2  0  0  0  0  0  0
  184.4850  172.0900  135.2080 C   0  0  1  0  0  3  0  0  0  0  0  0
  185.4360  172.7780  137.6540 S   0  0  0  0  0  0  0  0  0  0  0  0
  186.6290  172.6570  136.2780 C   0  0  2  0  0  3  0  0  0  0  0  0
  184.0980  172.0390  136.6710 C   0  0  0  0  0  2  0  0  0  0  0  0
  182.7640  173.3490  134.6140 C   0  0  0  0  0  1  0  0  0  0  0  0
  184.1570  173.3400  134.6760 O   0  0  0  0  0  0  0  0  0  0  0  0
  1  2  1  0  0  0  0
  2  8  1  1  0  0  0
  3  6  1  0  0  0  0
  3  1  1  0  0  0  0
  4  5  1  0  0  0  0
  4  2  1  0  0  0  0
  6 23  1  6  0  0  0
  6  5  1  0  0  0  0
  8  9  2  0  0  0  0
  8  7  1  0  0  0  0
 10  7  1  6  0  0  0
 10 14  1  0  0  0  0
 10 13  1  0  0  0  0
 12 11  1  0  0  0  0
 12 17  1  1  0  0  0
 13 11  1  0  0  0  0
 14 15  1  1  0  0  0
 14 12  1  0  0  0  0
 16 13  2  0  0  0  0
 17 22  1  0  0  0  0
 17 21  1  0  0  0  0
 18 20  1  0  0  0  0
 19 20  1  0  0  0  0
 21 19  1  0  0  0  0
 22 18  1  0  0  0  0
 23 35  1  1  0  0  0
 24 27  1  0  0  0  0
 25 23  1  6  0  0  0
 25 32  1  0  0  0  0
 26 29  2  0  0  0  0
 27 31  2  0  0  0  0
 28 24  1  0  0  0  0
 29 31  1  0  0  0  0
 29 32  1  0  0  0  0
 30 24  2  0  0  0  0
 30 26  1  0  0  0  0
 33 25  1  0  0  0  0
 34 33  1  0  0  0  0
 34 26  1  0  0  0  0
 36 35  1  0  0  0  0
 37 38  1  0  0  0  0
 37 40  1  0  0  0  0
 38 43  1  1  0  0  0
 38 41  1  0  0  0  0
 40 36  1  6  0  0  0
 40 39  1  0  0  0  0
 41 39  1  0  0  0  0
 42 43  1  0  0  0  0
M  END
>  <MODEL>
2

>  <REMARK>
 VINA RESULT:      -6.7      4.149      8.980
  Name = 
  9 active torsions:
  status: ('A' for Active; 'I' for Inactive)
    1  A    between atoms: N_1  and  C_34
    2  A    between atoms: N_1  and  C_35
    3  A    between atoms: N_3  and  C_4
    4  A    between atoms: C_6  and  C_12
    5  A    between atoms: C_8  and  C_34
    6  A    between atoms: N_11  and  C_14
    7  A    between atoms: C_19  and  O_37
    8  A    between atoms: C_32  and  C_35
    9  A    between atoms: C_34  and  C_38
                            x       y       z     vdW  Elec       q    Type
                         _______ _______ _______ _____ _____    ______ ____

>  <TORSDO>
F 9

$$$$
=
 OpenBabel10262422443D

 43 48  0  0  1  0  0  0  0  0999 V2000
  190.0870  176.3940  141.3720 C   0  0  0  0  0  2  0  0  0  0  0  0
  189.6500  176.3390  139.9010 C   0  0  1  0  0  3  0  0  0  0  0  0
  188.8880  176.5790  142.2950 C   0  0  0  0  0  2  0  0  0  0  0  0
  188.3890  177.1610  139.5920 C   0  0  0  0  0  2  0  0  0  0  0  0
  188.2440  178.3550  140.5370 C   0  0  0  0  0  2  0  0  0  0  0  0
  188.1820  177.9140  142.0120 C   0  0  1  0  0  3  0  0  0  0  0  0
  191.0650  175.9780  137.8280 N   0  0  0  0  0  2  0  0  0  0  0  0
  190.7750  176.7430  139.0090 C   0  0  0  0  0  0  0  0  0  0  0  0
  191.4650  177.7540  139.3100 O   0  0  0  0  0  0  0  0  0  0  0  0
  192.1370  176.2500  136.8700 C   0  0  2  0  0  3  0  0  0  0  0  0
  193.4340  174.4760  135.8670 N   0  0  0  0  0  2  0  0  0  0  0  0
  194.2140  174.9220  137.0130 C   0  0  2  0  0  3  0  0  0  0  0  0
  192.2240  175.1990  135.8350 C   0  0  0  0  0  0  0  0  0  0  0  0
  193.5120  176.2070  137.5370 C   0  0  1  0  0  3  0  0  0  0  0  0
  194.2180  177.3570  137.1720 O   0  0  0  0  0  1  0  0  0  0  0  0
  191.3240  174.9770  134.9850 O   0  0  0  0  0  0  0  0  0  0  0  0
  195.6230  175.1350  136.6530 N   0  0  0  0  0  0  0  0  0  0  0  0
  197.9230  174.5290  137.2500 C   0  0  0  0  0  2  0  0  0  0  0  0
  197.2810  174.9090  134.8600 C   0  0  0  0  0  2  0  0  0  0  0  0
  198.2220  174.1630  135.7990 C   0  0  0  0  0  2  0  0  0  0  0  0
  195.8360  174.6560  135.2820 C   0  0  0  0  0  2  0  0  0  0  0  0
  196.4410  174.2980  137.5370 C   0  0  0  0  0  2  0  0  0  0  0  0
  186.7580  177.9080  142.5730 C   0  0  2  0  0  3  0  0  0  0  0  0
  181.0150  178.3510  142.1640 C   0  0  0  0  0  0  0  0  0  0  0  0
  186.0430  179.2640  142.3810 C   0  0  2  0  0  3  0  0  0  0  0  0
  183.3530  178.7090  141.6370 C   0  0  0  0  0  0  0  0  0  0  0  0
  181.2410  178.7910  143.4720 C   0  0  0  0  0  3  0  0  0  0  0  0
  179.6550  177.9220  141.7480 C   0  0  0  0  0  1  0  0  0  0  0  0
  183.5850  179.1290  142.9600 C   0  0  0  0  0  0  0  0  0  0  0  0
  182.0720  178.3050  141.2510 C   0  0  0  0  0  3  0  0  0  0  0  0
  182.5220  179.1820  143.8680 C   0  0  0  0  0  3  0  0  0  0  0  0
  184.9440  179.5920  143.4040 C   0  0  0  0  0  2  0  0  0  0  0  0
  185.5920  179.4740  141.0010 N   0  0  0  0  0  2  0  0  0  0  0  0
  184.4880  178.5710  140.6700 C   0  0  0  0  0  2  0  0  0  0  0  0
  186.7700  177.4720  143.9650 N   0  0  0  0  0  2  0  0  0  0  0  0
  187.9700  178.0190  144.5790 C   0  0  0  0  0  2  0  0  0  0  0  0
  187.2670  176.8370  146.6440 C   0  0  0  0  0  2  0  0  0  0  0  0
  187.2570  177.8770  147.7460 C   0  0  1  0  0  3  0  0  0  0  0  0
  189.7510  177.9420  146.6830 S   0  0  0  0  0  0  0  0  0  0  0  0
  188.4350  177.1260  145.7190 C   0  0  2  0  0  3  0  0  0  0  0  0
  188.6980  178.0890  148.1570 C   0  0  0  0  0  2  0  0  0  0  0  0
  185.3790  178.7900  147.0110 C   0  0  0  0  0  1  0  0  0  0  0  0
  186.7200  179.0750  147.2680 O   0  0  0  0  0  0  0  0  0  0  0  0
  1  3  1  0  0  0  0
  2  8  1  6  0  0  0
  2  1  1  0  0  0  0
  4  2  1  0  0  0  0
  4  5  1  0  0  0  0
  5  6  1  0  0  0  0
  6  3  1  0  0  0  0
  6 23  1  6  0  0  0
  7  8  1  0  0  0  0
  8  9  2  0  0  0  0
 10 14  1  0  0  0  0
 10  7  1  1  0  0  0
 11 12  1  0  0  0  0
 12 17  1  6  0  0  0
 12 14  1  0  0  0  0
 13 11  1  0  0  0  0
 13 10  1  0  0  0  0
 14 15  1  6  0  0  0
 16 13  2  0  0  0  0
 17 22  1  0  0  0  0
 18 22  1  0  0  0  0
 19 21  1  0  0  0  0
 19 20  1  0  0  0  0
 20 18  1  0  0  0  0
 21 17  1  0  0  0  0
 23 35  1  1  0  0  0
 24 27  1  0  0  0  0
 25 23  1  6  0  0  0
 25 32  1  0  0  0  0
 26 29  2  0  0  0  0
 27 31  2  0  0  0  0
 28 24  1  0  0  0  0
 29 32  1  0  0  0  0
 29 31  1  0  0  0  0
 30 26  1  0  0  0  0
 30 24  2  0  0  0  0
 33 25  1  0  0  0  0
 34 33  1  0  0  0  0
 34 26  1  0  0  0  0
 35 36  1  0  0  0  0
 37 38  1  0  0  0  0
 38 43  1  6  0  0  0
 38 41  1  0  0  0  0
 39 41  1  0  0  0  0
 40 36  1  6  0  0  0
 40 37  1  0  0  0  0
 40 39  1  0  0  0  0
 42 43  1  0  0  0  0
M  END
>  <MODEL>
3

>  <REMARK>
 VINA RESULT:      -6.4      3.210     11.116
  Name = 
  9 active torsions:
  status: ('A' for Active; 'I' for Inactive)
    1  A    between atoms: N_1  and  C_34
    2  A    between atoms: N_1  and  C_35
    3  A    between atoms: N_3  and  C_4
    4  A    between atoms: C_6  and  C_12
    5  A    between atoms: C_8  and  C_34
    6  A    between atoms: N_11  and  C_14
    7  A    between atoms: C_19  and  O_37
    8  A    between atoms: C_32  and  C_35
    9  A    between atoms: C_34  and  C_38
                            x       y       z     vdW  Elec       q    Type
                         _______ _______ _______ _____ _____    ______ ____

>  <TORSDO>
F 9

$$$$
=
 OpenBabel10262422443D

 43 48  0  0  1  0  0  0  0  0999 V2000
  187.0690  175.2790  137.2200 C   0  0  0  0  0  2  0  0  0  0  0  0
  187.7370  176.4610  136.5020 C   0  0  1  0  0  3  0  0  0  0  0  0
  185.7800  174.8670  136.5180 C   0  0  0  0  0  2  0  0  0  0  0  0
  186.7480  177.4040  135.7980 C   0  0  0  0  0  2  0  0  0  0  0  0
  185.3850  177.4170  136.4890 C   0  0  0  0  0  2  0  0  0  0  0  0
  184.7550  176.0120  136.5410 C   0  0  1  0  0  3  0  0  0  0  0  0
  188.4610  177.0320  138.8630 N   0  0  0  0  0  2  0  0  0  0  0  0
  188.6070  177.2190  137.4470 C   0  0  0  0  0  0  0  0  0  0  0  0
  189.4600  178.0230  136.9860 O   0  0  0  0  0  0  0  0  0  0  0  0
  189.2350  177.7090  139.9040 C   0  0  2  0  0  3  0  0  0  0  0  0
  190.4510  176.4830  141.5940 N   0  0  0  0  0  2  0  0  0  0  0  0
  189.1670  176.8070  142.2020 C   0  0  2  0  0  3  0  0  0  0  0  0
  190.4500  176.9490  140.2630 C   0  0  0  0  0  0  0  0  0  0  0  0
  188.4610  177.7860  141.2210 C   0  0  1  0  0  3  0  0  0  0  0  0
  188.5130  179.1010  141.6900 O   0  0  0  0  0  1  0  0  0  0  0  0
  191.4110  176.7500  139.4750 O   0  0  0  0  0  0  0  0  0  0  0  0
  189.3390  177.3610  143.5520 N   0  0  0  0  0  0  0  0  0  0  0  0
  188.2770  177.5500  145.7550 C   0  0  0  0  0  2  0  0  0  0  0  0
  190.7640  177.3510  145.5490 C   0  0  0  0  0  2  0  0  0  0  0  0
  189.5550  177.0660  146.4330 C   0  0  0  0  0  2  0  0  0  0  0  0
  190.5300  176.7580  144.1610 C   0  0  0  0  0  2  0  0  0  0  0  0
  188.1840  176.9460  144.3560 C   0  0  0  0  0  2  0  0  0  0  0  0
  183.6770  175.8010  135.4750 C   0  0  2  0  0  3  0  0  0  0  0  0
  181.3720  180.6220  137.6650 C   0  0  0  0  0  0  0  0  0  0  0  0
  182.2490  175.8450  136.0630 C   0  0  2  0  0  3  0  0  0  0  0  0
  181.9960  178.2860  137.5030 C   0  0  0  0  0  0  0  0  0  0  0  0
  180.7300  180.5390  136.4260 C   0  0  0  0  0  3  0  0  0  0  0  0
  181.3880  181.9070  138.4100 C   0  0  0  0  0  1  0  0  0  0  0  0
  181.3700  178.2080  136.2440 C   0  0  0  0  0  0  0  0  0  0  0  0
  182.0080  179.4980  138.1990 C   0  0  0  0  0  3  0  0  0  0  0  0
  180.7270  179.3340  135.7190 C   0  0  0  0  0  3  0  0  0  0  0  0
  181.3170  176.9160  135.4790 C   0  0  0  0  0  2  0  0  0  0  0  0
  182.2430  175.8480  137.5300 N   0  0  0  0  0  2  0  0  0  0  0  0
  182.7550  177.1170  138.0510 C   0  0  0  0  0  2  0  0  0  0  0  0
  183.9400  174.5740  134.7320 N   0  0  0  0  0  2  0  0  0  0  0  0
  182.6750  173.8720  134.5940 C   0  0  0  0  0  2  0  0  0  0  0  0
  181.5180  171.6850  134.7720 C   0  0  0  0  0  2  0  0  0  0  0  0
  180.7800  171.7010  136.0950 C   0  0  1  0  0  3  0  0  0  0  0  0
  183.3780  172.2150  136.6840 S   0  0  0  0  0  0  0  0  0  0  0  0
  182.8430  172.4030  134.9490 C   0  0  2  0  0  3  0  0  0  0  0  0
  181.8110  171.4330  137.1710 C   0  0  0  0  0  2  0  0  0  0  0  0
  179.8290  172.9600  137.6480 C   0  0  0  0  0  1  0  0  0  0  0  0
  180.1960  172.9530  136.3020 O   0  0  0  0  0  0  0  0  0  0  0  0
  2  1  1  0  0  0  0
  2  8  1  1  0  0  0
  3  6  1  0  0  0  0
  3  1  1  0  0  0  0
  4  5  1  0  0  0  0
  4  2  1  0  0  0  0
  5  6  1  0  0  0  0
  6 23  1  6  0  0  0
  8  7  1  0  0  0  0
  9  8  2  0  0  0  0
 10  7  1  6  0  0  0
 10 13  1  0  0  0  0
 10 14  1  0  0  0  0
 11 12  1  0  0  0  0
 12 17  1  1  0  0  0
 13 11  1  0  0  0  0
 14 15  1  1  0  0  0
 14 12  1  0  0  0  0
 16 13  2  0  0  0  0
 17 21  1  0  0  0  0
 17 22  1  0  0  0  0
 18 20  1  0  0  0  0
 19 20  1  0  0  0  0
 21 19  1  0  0  0  0
 22 18  1  0  0  0  0
 23 35  1  1  0  0  0
 24 30  1  0  0  0  0
 24 28  1  0  0  0  0
 25 23  1  1  0  0  0
 25 33  1  0  0  0  0
 26 34  1  0  0  0  0
 26 30  2  0  0  0  0
 27 24  2  0  0  0  0
 29 26  1  0  0  0  0
 31 29  2  0  0  0  0
 31 27  1  0  0  0  0
 32 25  1  0  0  0  0
 32 29  1  0  0  0  0
 33 34  1  0  0  0  0
 36 35  1  0  0  0  0
 37 40  1  0  0  0  0
 37 38  1  0  0  0  0
 38 43  1  1  0  0  0
 38 41  1  0  0  0  0
 39 41  1  0  0  0  0
 40 36  1  1  0  0  0
 40 39  1  0  0  0  0
 43 42  1  0  0  0  0
M  END
>  <MODEL>
4

>  <REMARK>
 VINA RESULT:      -6.4      4.224      9.829
  Name = 
  9 active torsions:
  status: ('A' for Active; 'I' for Inactive)
    1  A    between atoms: N_1  and  C_34
    2  A    between atoms: N_1  and  C_35
    3  A    between atoms: N_3  and  C_4
    4  A    between atoms: C_6  and  C_12
    5  A    between atoms: C_8  and  C_34
    6  A    between atoms: N_11  and  C_14
    7  A    between atoms: C_19  and  O_37
    8  A    between atoms: C_32  and  C_35
    9  A    between atoms: C_34  and  C_38
                            x       y       z     vdW  Elec       q    Type
                         _______ _______ _______ _____ _____    ______ ____

>  <TORSDO>
F 9

$$$$
=
 OpenBabel10262422443D

 43 48  0  0  1  0  0  0  0  0999 V2000
  190.1980  176.3850  139.8840 C   0  0  0  0  0  2  0  0  0  0  0  0
  189.4010  176.4170  138.5720 C   0  0  1  0  0  3  0  0  0  0  0  0
  189.3440  176.8510  141.0580 C   0  0  0  0  0  2  0  0  0  0  0  0
  188.3160  177.5040  138.5260 C   0  0  0  0  0  2  0  0  0  0  0  0
  188.6810  178.7090  139.3940 C   0  0  0  0  0  2  0  0  0  0  0  0
  188.9000  178.3090  140.8660 C   0  0  1  0  0  3  0  0  0  0  0  0
  191.5150  175.7430  137.3450 N   0  0  0  0  0  2  0  0  0  0  0  0
  190.3240  176.5430  137.4060 C   0  0  0  0  0  0  0  0  0  0  0  0
  190.0460  177.3610  136.4890 O   0  0  0  0  0  0  0  0  0  0  0  0
  192.5100  175.7660  136.2740 C   0  0  2  0  0  3  0  0  0  0  0  0
  193.6800  173.7710  135.5740 N   0  0  0  0  0  2  0  0  0  0  0  0
  194.5610  174.4160  136.5380 C   0  0  2  0  0  3  0  0  0  0  0  0
  192.4880  174.5190  135.4800 C   0  0  0  0  0  0  0  0  0  0  0  0
  193.9340  175.8090  136.8290 C   0  0  1  0  0  3  0  0  0  0  0  0
  194.6340  176.8280  136.1770 O   0  0  0  0  0  1  0  0  0  0  0  0
  191.5170  174.1590  134.7670 O   0  0  0  0  0  0  0  0  0  0  0  0
  195.9400  174.4920  136.0360 N   0  0  0  0  0  0  0  0  0  0  0  0
  198.2920  174.5240  136.7310 C   0  0  0  0  0  2  0  0  0  0  0  0
  197.6050  173.4070  134.5980 C   0  0  0  0  0  2  0  0  0  0  0  0
  198.6200  173.4140  135.7360 C   0  0  0  0  0  2  0  0  0  0  0  0
  196.1930  173.3310  135.1760 C   0  0  0  0  0  2  0  0  0  0  0  0
  196.8420  174.3840  137.1880 C   0  0  0  0  0  2  0  0  0  0  0  0
  187.7000  178.6360  141.7580 C   0  0  2  0  0  3  0  0  0  0  0  0
  187.7390  178.0940  147.5070 C   0  0  0  0  0  0  0  0  0  0  0  0
  187.1420  177.3880  142.4770 C   0  0  2  0  0  3  0  0  0  0  0  0
  188.0310  177.4930  145.1780 C   0  0  0  0  0  0  0  0  0  0  0  0
  186.3980  178.4040  147.2610 C   0  0  0  0  0  3  0  0  0  0  0  0
  188.3000  178.2530  148.8730 C   0  0  0  0  0  1  0  0  0  0  0  0
  186.6870  177.8280  144.9250 C   0  0  0  0  0  0  0  0  0  0  0  0
  188.5540  177.6450  146.4650 C   0  0  0  0  0  3  0  0  0  0  0  0
  185.8730  178.2680  145.9740 C   0  0  0  0  0  3  0  0  0  0  0  0
  186.0850  177.6550  143.5600 C   0  0  0  0  0  2  0  0  0  0  0  0
  188.2000  176.4880  142.9500 N   0  0  0  0  0  2  0  0  0  0  0  0
  188.9420  177.0920  144.0590 C   0  0  0  0  0  2  0  0  0  0  0  0
  186.6820  179.3430  140.9890 N   0  0  0  0  0  2  0  0  0  0  0  0
  185.5680  178.4270  140.8020 C   0  0  0  0  0  2  0  0  0  0  0  0
  183.1540  178.3160  141.3610 C   0  0  0  0  0  2  0  0  0  0  0  0
  182.4890  177.5640  140.2260 C   0  0  1  0  0  3  0  0  0  0  0  0
  183.7950  179.6450  139.0760 S   0  0  0  0  0  0  0  0  0  0  0  0
  184.2520  179.1890  140.7820 C   0  0  2  0  0  3  0  0  0  0  0  0
  182.3510  178.5410  139.0780 C   0  0  0  0  0  2  0  0  0  0  0  0
  182.6490  175.9550  138.7130 C   0  0  0  0  0  1  0  0  0  0  0  0
  183.2870  176.4860  139.8350 O   0  0  0  0  0  0  0  0  0  0  0  0
  1  3  1  0  0  0  0
  2  8  1  6  0  0  0
  2  1  1  0  0  0  0
  4  2  1  0  0  0  0
  4  5  1  0  0  0  0
  5  6  1  0  0  0  0
  6  3  1  0  0  0  0
  6 23  1  1  0  0  0
  7  8  1  0  0  0  0
  9  8  2  0  0  0  0
 10 14  1  0  0  0  0
 10  7  1  1  0  0  0
 11 12  1  0  0  0  0
 12 17  1  6  0  0  0
 12 14  1  0  0  0  0
 13 11  1  0  0  0  0
 13 10  1  0  0  0  0
 14 15  1  6  0  0  0
 16 13  2  0  0  0  0
 17 22  1  0  0  0  0
 18 22  1  0  0  0  0
 19 21  1  0  0  0  0
 19 20  1  0  0  0  0
 20 18  1  0  0  0  0
 21 17  1  0  0  0  0
 23 35  1  6  0  0  0
 24 28  1  0  0  0  0
 25 23  1  1  0  0  0
 25 33  1  0  0  0  0
 25 32  1  0  0  0  0
 26 30  1  0  0  0  0
 27 24  1  0  0  0  0
 29 26  2  0  0  0  0
 29 31  1  0  0  0  0
 30 24  2  0  0  0  0
 31 27  2  0  0  0  0
 32 29  1  0  0  0  0
 33 34  1  0  0  0  0
 34 26  1  0  0  0  0
 36 35  1  0  0  0  0
 38 43  1  6  0  0  0
 38 37  1  0  0  0  0
 39 41  1  0  0  0  0
 39 40  1  0  0  0  0
 40 36  1  6  0  0  0
 40 37  1  0  0  0  0
 41 38  1  0  0  0  0
 42 43  1  0  0  0  0
M  END
>  <MODEL>
5

>  <REMARK>
 VINA RESULT:      -6.2      3.396     10.949
  Name = 
  9 active torsions:
  status: ('A' for Active; 'I' for Inactive)
    1  A    between atoms: N_1  and  C_34
    2  A    between atoms: N_1  and  C_35
    3  A    between atoms: N_3  and  C_4
    4  A    between atoms: C_6  and  C_12
    5  A    between atoms: C_8  and  C_34
    6  A    between atoms: N_11  and  C_14
    7  A    between atoms: C_19  and  O_37
    8  A    between atoms: C_32  and  C_35
    9  A    between atoms: C_34  and  C_38
                            x       y       z     vdW  Elec       q    Type
                         _______ _______ _______ _____ _____    ______ ____

>  <TORSDO>
F 9

$$$$
=
 OpenBabel10262422443D

 43 48  0  0  1  0  0  0  0  0999 V2000
  188.2760  178.4750  136.2440 C   0  0  0  0  0  2  0  0  0  0  0  0
  189.0460  177.5050  137.1520 C   0  0  1  0  0  3  0  0  0  0  0  0
  186.9120  178.8140  136.8350 C   0  0  0  0  0  2  0  0  0  0  0  0
  188.1470  176.5550  137.9580 C   0  0  0  0  0  2  0  0  0  0  0  0
  186.8320  176.2660  137.2320 C   0  0  0  0  0  2  0  0  0  0  0  0
  186.0380  177.5560  136.9510 C   0  0  1  0  0  3  0  0  0  0  0  0
  191.3010  176.3620  136.9570 N   0  0  0  0  0  2  0  0  0  0  0  0
  190.0500  176.7380  136.3600 C   0  0  0  0  0  0  0  0  0  0  0  0
  189.7870  176.4340  135.1650 O   0  0  0  0  0  0  0  0  0  0  0  0
  192.3770  175.6200  136.3020 C   0  0  2  0  0  3  0  0  0  0  0  0
  193.5650  173.8380  137.4200 N   0  0  0  0  0  2  0  0  0  0  0  0
  194.3790  175.0290  137.6220 C   0  0  2  0  0  3  0  0  0  0  0  0
  192.3970  174.2020  136.7200 C   0  0  0  0  0  0  0  0  0  0  0  0
  193.7540  176.1340  136.7240 C   0  0  1  0  0  3  0  0  0  0  0  0
  194.5190  176.3480  135.5740 O   0  0  0  0  0  1  0  0  0  0  0  0
  191.4790  173.3820  136.4610 O   0  0  0  0  0  0  0  0  0  0  0  0
  195.7940  174.7680  137.3230 N   0  0  0  0  0  0  0  0  0  0  0  0
  197.9710  174.2940  138.3500 C   0  0  0  0  0  2  0  0  0  0  0  0
  197.3450  173.2730  136.1520 C   0  0  0  0  0  2  0  0  0  0  0  0
  198.1670  173.0980  137.4240 C   0  0  0  0  0  2  0  0  0  0  0  0
  195.8880  173.5440  136.5210 C   0  0  0  0  0  2  0  0  0  0  0  0
  196.4780  174.5070  138.5940 C   0  0  0  0  0  2  0  0  0  0  0  0
  184.8900  177.7780  137.9370 C   0  0  2  0  0  3  0  0  0  0  0  0
  180.0960  175.5020  140.2160 C   0  0  0  0  0  0  0  0  0  0  0  0
  183.5170  177.8630  137.2350 C   0  0  2  0  0  3  0  0  0  0  0  0
  181.7720  176.0400  138.5510 C   0  0  0  0  0  0  0  0  0  0  0  0
  179.9140  176.8640  140.4750 C   0  0  0  0  0  3  0  0  0  0  0  0
  179.3070  174.4910  140.9650 C   0  0  0  0  0  1  0  0  0  0  0  0
  181.6060  177.4100  138.8280 C   0  0  0  0  0  0  0  0  0  0  0  0
  181.0280  175.0920  139.2590 C   0  0  0  0  0  3  0  0  0  0  0  0
  180.6650  177.8160  139.7800 C   0  0  0  0  0  3  0  0  0  0  0  0
  182.3720  178.4570  138.0700 C   0  0  0  0  0  2  0  0  0  0  0  0
  183.1320  176.6020  136.5910 N   0  0  0  0  0  2  0  0  0  0  0  0
  182.8260  175.5770  137.5920 C   0  0  0  0  0  2  0  0  0  0  0  0
  185.1650  178.9400  138.7740 N   0  0  0  0  0  2  0  0  0  0  0  0
  185.5850  178.4470  140.0750 C   0  0  0  0  0  2  0  0  0  0  0  0
  186.0150  179.6590  142.1970 C   0  0  0  0  0  2  0  0  0  0  0  0
  186.0430  178.6080  143.2880 C   0  0  1  0  0  3  0  0  0  0  0  0
  183.6530  178.3200  142.0390 S   0  0  0  0  0  0  0  0  0  0  0  0
  184.9520  179.2740  141.1840 C   0  0  2  0  0  3  0  0  0  0  0  0
  184.6030  178.2520  143.5880 C   0  0  0  0  0  2  0  0  0  0  0  0
  187.3750  176.9770  143.9740 C   0  0  0  0  0  1  0  0  0  0  0  0
  186.7280  177.4740  142.8420 O   0  0  0  0  0  0  0  0  0  0  0  0
  1  3  1  0  0  0  0
  1  2  1  0  0  0  0
  2  8  1  6  0  0  0
  2  4  1  0  0  0  0
  3  6  1  0  0  0  0
  5  4  1  0  0  0  0
  6  5  1  0  0  0  0
  6 23  1  1  0  0  0
  8  7  1  0  0  0  0
  9  8  2  0  0  0  0
 10 13  1  0  0  0  0
 10 14  1  0  0  0  0
 10  7  1  1  0  0  0
 11 12  1  0  0  0  0
 12 17  1  6  0  0  0
 13 11  1  0  0  0  0
 14 15  1  6  0  0  0
 14 12  1  0  0  0  0
 16 13  2  0  0  0  0
 17 22  1  0  0  0  0
 18 22  1  0  0  0  0
 19 21  1  0  0  0  0
 19 20  1  0  0  0  0
 20 18  1  0  0  0  0
 21 17  1  0  0  0  0
 23 35  1  6  0  0  0
 24 27  1  0  0  0  0
 24 28  1  0  0  0  0
 25 23  1  1  0  0  0
 25 32  1  0  0  0  0
 26 29  2  0  0  0  0
 26 30  1  0  0  0  0
 29 31  1  0  0  0  0
 30 24  2  0  0  0  0
 31 27  2  0  0  0  0
 32 29  1  0  0  0  0
 33 25  1  0  0  0  0
 33 34  1  0  0  0  0
 34 26  1  0  0  0  0
 35 36  1  0  0  0  0
 37 38  1  0  0  0  0
 38 43  1  6  0  0  0
 38 41  1  0  0  0  0
 39 41  1  0  0  0  0
 40 36  1  6  0  0  0
 40 39  1  0  0  0  0
 40 37  1  0  0  0  0
 43 42  1  0  0  0  0
M  END
>  <MODEL>
6

>  <REMARK>
 VINA RESULT:      -6.0      3.119     10.951
  Name = 
  9 active torsions:
  status: ('A' for Active; 'I' for Inactive)
    1  A    between atoms: N_1  and  C_34
    2  A    between atoms: N_1  and  C_35
    3  A    between atoms: N_3  and  C_4
    4  A    between atoms: C_6  and  C_12
    5  A    between atoms: C_8  and  C_34
    6  A    between atoms: N_11  and  C_14
    7  A    between atoms: C_19  and  O_37
    8  A    between atoms: C_32  and  C_35
    9  A    between atoms: C_34  and  C_38
                            x       y       z     vdW  Elec       q    Type
                         _______ _______ _______ _____ _____    ______ ____

>  <TORSDO>
F 9

$$$$
=
 OpenBabel10262422443D

 43 48  0  0  1  0  0  0  0  0999 V2000
  185.8820  177.5220  135.5950 C   0  0  0  0  0  2  0  0  0  0  0  0
  185.3560  176.1000  135.8430 C   0  0  1  0  0  3  0  0  0  0  0  0
  187.3960  177.5850  135.7630 C   0  0  0  0  0  2  0  0  0  0  0  0
  186.1890  175.2930  136.8510 C   0  0  0  0  0  2  0  0  0  0  0  0
  186.8740  176.1980  137.8760 C   0  0  0  0  0  2  0  0  0  0  0  0
  187.8010  177.2280  137.2020 C   0  0  1  0  0  3  0  0  0  0  0  0
  183.4750  177.1290  137.1960 N   0  0  0  0  0  2  0  0  0  0  0  0
  183.9230  176.1410  136.2550 C   0  0  0  0  0  0  0  0  0  0  0  0
  183.1210  175.2970  135.7720 O   0  0  0  0  0  0  0  0  0  0  0  0
  182.1080  177.2820  137.6940 C   0  0  2  0  0  3  0  0  0  0  0  0
  181.2460  179.4190  138.4220 N   0  0  0  0  0  2  0  0  0  0  0  0
  181.7180  178.7620  139.6330 C   0  0  2  0  0  3  0  0  0  0  0  0
  181.5330  178.5900  137.3170 C   0  0  0  0  0  0  0  0  0  0  0  0
  182.0660  177.3030  139.2230 C   0  0  1  0  0  3  0  0  0  0  0  0
  181.0830  176.4060  139.6510 O   0  0  0  0  0  1  0  0  0  0  0  0
  181.2930  178.9350  136.1320 O   0  0  0  0  0  0  0  0  0  0  0  0
  180.7190  178.8410  140.7090 N   0  0  0  0  0  0  0  0  0  0  0  0
  180.4440  178.8420  143.1460 C   0  0  0  0  0  2  0  0  0  0  0  0
  178.9460  180.2220  141.6900 C   0  0  0  0  0  2  0  0  0  0  0  0
  179.5900  180.1050  143.0670 C   0  0  0  0  0  2  0  0  0  0  0  0
  180.0260  180.1300  140.6140 C   0  0  0  0  0  2  0  0  0  0  0  0
  181.4390  178.8290  141.9870 C   0  0  0  0  0  2  0  0  0  0  0  0
  189.2790  176.8360  137.2710 C   0  0  2  0  0  3  0  0  0  0  0  0
  188.4500  177.1160  142.9800 C   0  0  0  0  0  0  0  0  0  0  0  0
  190.0960  177.7790  138.1830 C   0  0  2  0  0  3  0  0  0  0  0  0
  188.7790  177.8780  140.7030 C   0  0  0  0  0  0  0  0  0  0  0  0
  189.6280  176.3670  142.9010 C   0  0  0  0  0  3  0  0  0  0  0  0
  187.6450  177.1070  144.2280 C   0  0  0  0  0  1  0  0  0  0  0  0
  189.9530  177.1050  140.6150 C   0  0  0  0  0  0  0  0  0  0  0  0
  188.0250  177.8660  141.8800 C   0  0  0  0  0  3  0  0  0  0  0  0
  190.3790  176.3640  141.7230 C   0  0  0  0  0  3  0  0  0  0  0  0
  190.8000  177.1130  139.3750 C   0  0  0  0  0  2  0  0  0  0  0  0
  189.3420  178.9720  138.5830 N   0  0  0  0  0  2  0  0  0  0  0  0
  188.2620  178.6200  139.5090 C   0  0  0  0  0  2  0  0  0  0  0  0
  189.8350  176.7350  135.9270 N   0  0  0  0  0  2  0  0  0  0  0  0
  191.0960  176.0200  136.0330 C   0  0  0  0  0  2  0  0  0  0  0  0
  191.8910  174.1670  137.4780 C   0  0  0  0  0  2  0  0  0  0  0  0
  193.0630  173.5360  136.7540 C   0  0  1  0  0  3  0  0  0  0  0  0
  190.9830  173.4590  135.0140 S   0  0  0  0  0  0  0  0  0  0  0  0
  190.8530  174.5770  136.4500 C   0  0  2  0  0  3  0  0  0  0  0  0
  192.4810  172.6610  135.6640 C   0  0  0  0  0  2  0  0  0  0  0  0
  194.7750  174.8720  137.1840 C   0  0  0  0  0  1  0  0  0  0  0  0
  193.8640  174.5290  136.1850 O   0  0  0  0  0  0  0  0  0  0  0  0
  1  3  1  0  0  0  0
  1  2  1  0  0  0  0
  2  8  1  1  0  0  0
  2  4  1  0  0  0  0
  3  6  1  0  0  0  0
  4  5  1  0  0  0  0
  6 23  1  6  0  0  0
  6  5  1  0  0  0  0
  8  7  1  0  0  0  0
  9  8  2  0  0  0  0
 10  7  1  1  0  0  0
 10 14  1  0  0  0  0
 11 12  1  0  0  0  0
 12 17  1  1  0  0  0
 13 10  1  0  0  0  0
 13 11  1  0  0  0  0
 14 12  1  0  0  0  0
 14 15  1  6  0  0  0
 16 13  2  0  0  0  0
 17 22  1  0  0  0  0
 19 20  1  0  0  0  0
 20 18  1  0  0  0  0
 21 17  1  0  0  0  0
 21 19  1  0  0  0  0
 22 18  1  0  0  0  0
 23 35  1  6  0  0  0
 24 28  1  0  0  0  0
 25 23  1  1  0  0  0
 25 33  1  0  0  0  0
 25 32  1  0  0  0  0
 26 30  1  0  0  0  0
 27 24  1  0  0  0  0
 29 26  2  0  0  0  0
 29 31  1  0  0  0  0
 30 24  2  0  0  0  0
 31 27  2  0  0  0  0
 32 29  1  0  0  0  0
 33 34  1  0  0  0  0
 34 26  1  0  0  0  0
 35 36  1  0  0  0  0
 38 43  1  6  0  0  0
 38 37  1  0  0  0  0
 39 41  1  0  0  0  0
 39 40  1  0  0  0  0
 40 36  1  6  0  0  0
 40 37  1  0  0  0  0
 41 38  1  0  0  0  0
 43 42  1  0  0  0  0
M  END
>  <MODEL>
7

>  <REMARK>
 VINA RESULT:      -5.9      2.324      5.263
  Name = 
  9 active torsions:
  status: ('A' for Active; 'I' for Inactive)
    1  A    between atoms: N_1  and  C_34
    2  A    between atoms: N_1  and  C_35
    3  A    between atoms: N_3  and  C_4
    4  A    between atoms: C_6  and  C_12
    5  A    between atoms: C_8  and  C_34
    6  A    between atoms: N_11  and  C_14
    7  A    between atoms: C_19  and  O_37
    8  A    between atoms: C_32  and  C_35
    9  A    between atoms: C_34  and  C_38
                            x       y       z     vdW  Elec       q    Type
                         _______ _______ _______ _____ _____    ______ ____

>  <TORSDO>
F 9

$$$$
=
 OpenBabel10262422443D

 43 48  0  0  1  0  0  0  0  0999 V2000
  189.9000  177.5070  139.7470 C   0  0  0  0  0  2  0  0  0  0  0  0
  190.4890  176.2400  139.1080 C   0  0  1  0  0  3  0  0  0  0  0  0
  188.4090  177.6260  139.4560 C   0  0  0  0  0  2  0  0  0  0  0  0
  189.7810  175.8060  137.8150 C   0  0  0  0  0  2  0  0  0  0  0  0
  189.1720  176.9950  137.0730 C   0  0  0  0  0  2  0  0  0  0  0  0
  188.1550  177.7550  137.9460 C   0  0  1  0  0  3  0  0  0  0  0  0
  192.6230  175.5970  137.9000 N   0  0  0  0  0  2  0  0  0  0  0  0
  191.9540  176.4070  138.8780 C   0  0  0  0  0  0  0  0  0  0  0  0
  192.5880  177.2590  139.5560 O   0  0  0  0  0  0  0  0  0  0  0  0
  194.0480  175.6440  137.5750 C   0  0  2  0  0  3  0  0  0  0  0  0
  194.9960  174.3280  135.7840 N   0  0  0  0  0  2  0  0  0  0  0  0
  195.1980  173.5380  136.9910 C   0  0  2  0  0  3  0  0  0  0  0  0
  194.2830  175.4960  136.1230 C   0  0  0  0  0  0  0  0  0  0  0  0
  194.8040  174.4600  138.1800 C   0  0  1  0  0  3  0  0  0  0  0  0
  195.9340  174.9470  138.8420 O   0  0  0  0  0  1  0  0  0  0  0  0
  193.9120  176.3360  135.2640 O   0  0  0  0  0  0  0  0  0  0  0  0
  196.5770  173.0360  137.0780 N   0  0  0  0  0  0  0  0  0  0  0  0
  197.9250  170.9910  137.2120 C   0  0  0  0  0  2  0  0  0  0  0  0
  198.7600  172.9930  135.9620 C   0  0  0  0  0  2  0  0  0  0  0  0
  198.8010  171.4720  136.0590 C   0  0  0  0  0  2  0  0  0  0  0  0
  197.3080  173.4590  135.8780 C   0  0  0  0  0  2  0  0  0  0  0  0
  196.5210  171.5700  137.0570 C   0  0  0  0  0  2  0  0  0  0  0  0
  186.7030  177.4120  137.6050 C   0  0  2  0  0  3  0  0  0  0  0  0
  181.6360  175.4480  135.6500 C   0  0  0  0  0  0  0  0  0  0  0  0
  186.5840  176.5530  136.3270 C   0  0  2  0  0  3  0  0  0  0  0  0
  183.9710  175.4270  136.2980 C   0  0  0  0  0  0  0  0  0  0  0  0
  181.8880  176.5060  134.7720 C   0  0  0  0  0  3  0  0  0  0  0  0
  180.2620  174.8990  135.7790 C   0  0  0  0  0  1  0  0  0  0  0  0
  184.2200  176.5080  135.4310 C   0  0  0  0  0  0  0  0  0  0  0  0
  182.6760  174.9140  136.4160 C   0  0  0  0  0  3  0  0  0  0  0  0
  183.1770  177.0320  134.6600 C   0  0  0  0  0  3  0  0  0  0  0  0
  185.6030  177.0680  135.2620 C   0  0  0  0  0  2  0  0  0  0  0  0
  186.3820  175.1290  136.6190 N   0  0  0  0  0  2  0  0  0  0  0  0
  185.0530  174.8980  137.1890 C   0  0  0  0  0  2  0  0  0  0  0  0
  185.9030  178.6300  137.5390 N   0  0  0  0  0  2  0  0  0  0  0  0
  185.2800  178.8100  138.8400 C   0  0  0  0  0  2  0  0  0  0  0  0
  182.9470  178.4770  138.0670 C   0  0  0  0  0  2  0  0  0  0  0  0
  182.0900  179.4260  138.8800 C   0  0  1  0  0  3  0  0  0  0  0  0
  183.4350  177.9090  140.6820 S   0  0  0  0  0  0  0  0  0  0  0  0
  184.0450  177.9310  138.9620 C   0  0  2  0  0  3  0  0  0  0  0  0
  181.9080  178.7910  140.2420 C   0  0  0  0  0  2  0  0  0  0  0  0
  181.9250  181.5670  138.3390 C   0  0  0  0  0  1  0  0  0  0  0  0
  182.7380  180.6570  139.0160 O   0  0  0  0  0  0  0  0  0  0  0  0
  2  8  1  6  0  0  0
  2  1  1  0  0  0  0
  3  1  1  0  0  0  0
  4  2  1  0  0  0  0
  5  4  1  0  0  0  0
  5  6  1  0  0  0  0
  6 23  1  1  0  0  0
  6  3  1  0  0  0  0
  7  8  1  0  0  0  0
  8  9  2  0  0  0  0
 10  7  1  6  0  0  0
 10 14  1  0  0  0  0
 11 13  1  0  0  0  0
 11 12  1  0  0  0  0
 12 17  1  1  0  0  0
 12 14  1  0  0  0  0
 13 10  1  0  0  0  0
 14 15  1  6  0  0  0
 16 13  2  0  0  0  0
 19 20  1  0  0  0  0
 20 18  1  0  0  0  0
 21 19  1  0  0  0  0
 21 17  1  0  0  0  0
 22 17  1  0  0  0  0
 22 18  1  0  0  0  0
 23 35  1  6  0  0  0
 24 28  1  0  0  0  0
 24 30  1  0  0  0  0
 25 33  1  0  0  0  0
 25 23  1  1  0  0  0
 26 30  2  0  0  0  0
 26 34  1  0  0  0  0
 27 24  2  0  0  0  0
 29 26  1  0  0  0  0
 31 27  1  0  0  0  0
 31 29  2  0  0  0  0
 32 29  1  0  0  0  0
 32 25  1  0  0  0  0
 33 34  1  0  0  0  0
 35 36  1  0  0  0  0
 37 38  1  0  0  0  0
 37 40  1  0  0  0  0
 38 43  1  1  0  0  0
 38 41  1  0  0  0  0
 40 36  1  1  0  0  0
 40 39  1  0  0  0  0
 41 39  1  0  0  0  0
 42 43  1  0  0  0  0
M  END
>  <MODEL>
8

>  <REMARK>
 VINA RESULT:      -5.6      3.417     11.232
  Name = 
  9 active torsions:
  status: ('A' for Active; 'I' for Inactive)
    1  A    between atoms: N_1  and  C_34
    2  A    between atoms: N_1  and  C_35
    3  A    between atoms: N_3  and  C_4
    4  A    between atoms: C_6  and  C_12
    5  A    between atoms: C_8  and  C_34
    6  A    between atoms: N_11  and  C_14
    7  A    between atoms: C_19  and  O_37
    8  A    between atoms: C_32  and  C_35
    9  A    between atoms: C_34  and  C_38
                            x       y       z     vdW  Elec       q    Type
                         _______ _______ _______ _____ _____    ______ ____

>  <TORSDO>
F 9

$$$$
=
 OpenBabel10262422443D

 43 48  0  0  1  0  0  0  0  0999 V2000
  181.5830  177.7780  140.8130 C   0  0  0  0  0  2  0  0  0  0  0  0
  183.0810  177.4860  140.6420 C   0  0  1  0  0  3  0  0  0  0  0  0
  180.8270  177.5570  139.5080 C   0  0  0  0  0  2  0  0  0  0  0  0
  183.6150  177.7670  139.2280 C   0  0  0  0  0  2  0  0  0  0  0  0
  182.8210  178.8720  138.5310 C   0  0  0  0  0  2  0  0  0  0  0  0
  181.3250  178.5190  138.4180 C   0  0  1  0  0  3  0  0  0  0  0  0
  185.3100  178.2010  141.6160 N   0  0  0  0  0  2  0  0  0  0  0  0
  183.8750  178.2290  141.6640 C   0  0  0  0  0  0  0  0  0  0  0  0
  183.2700  178.8680  142.5650 O   0  0  0  0  0  0  0  0  0  0  0  0
  186.2140  178.8720  142.5500 C   0  0  2  0  0  3  0  0  0  0  0  0
  188.2490  177.8290  143.3300 N   0  0  0  0  0  2  0  0  0  0  0  0
  187.2520  177.5380  144.3510 C   0  0  2  0  0  3  0  0  0  0  0  0
  187.6270  178.5360  142.2800 C   0  0  0  0  0  0  0  0  0  0  0  0
  186.0010  178.3860  143.9850 C   0  0  1  0  0  3  0  0  0  0  0  0
  185.8820  179.5020  144.8180 O   0  0  0  0  0  1  0  0  0  0  0  0
  188.2370  178.8640  141.2300 O   0  0  0  0  0  0  0  0  0  0  0  0
  187.7690  177.8170  145.6990 N   0  0  0  0  0  0  0  0  0  0  0  0
  187.2870  177.5470  148.0890 C   0  0  0  0  0  2  0  0  0  0  0  0
  189.6390  177.4350  147.2380 C   0  0  0  0  0  2  0  0  0  0  0  0
  188.6760  176.9600  148.3210 C   0  0  0  0  0  2  0  0  0  0  0  0
  189.0520  177.1250  145.8630 C   0  0  0  0  0  2  0  0  0  0  0  0
  186.8340  177.2310  146.6650 C   0  0  0  0  0  2  0  0  0  0  0  0
  180.9330  178.0180  137.0270 C   0  0  2  0  0  3  0  0  0  0  0  0
  180.8380  183.7330  136.2030 C   0  0  0  0  0  0  0  0  0  0  0  0
  179.6980  178.7540  136.4620 C   0  0  2  0  0  3  0  0  0  0  0  0
  180.0900  181.5380  136.9040 C   0  0  0  0  0  0  0  0  0  0  0  0
  181.0050  183.2620  134.8980 C   0  0  0  0  0  3  0  0  0  0  0  0
  181.1510  185.1480  136.5280 C   0  0  0  0  0  1  0  0  0  0  0  0
  180.2800  181.0570  135.5940 C   0  0  0  0  0  0  0  0  0  0  0  0
  180.3860  182.8700  137.2050 C   0  0  0  0  0  3  0  0  0  0  0  0
  180.7240  181.9270  134.5940 C   0  0  0  0  0  3  0  0  0  0  0  0
  179.9490  179.6370  135.2300 C   0  0  0  0  0  2  0  0  0  0  0  0
  178.9360  179.4590  137.4990 N   0  0  0  0  0  2  0  0  0  0  0  0
  179.6890  180.6080  138.0080 C   0  0  0  0  0  2  0  0  0  0  0  0
  180.7630  176.5700  137.0450 N   0  0  0  0  0  2  0  0  0  0  0  0
  180.9890  176.0910  135.6910 C   0  0  0  0  0  2  0  0  0  0  0  0
  181.8150  173.9180  134.8240 C   0  0  0  0  0  2  0  0  0  0  0  0
  181.2520  172.8520  135.7420 C   0  0  1  0  0  3  0  0  0  0  0  0
  182.5990  174.5790  137.3430 S   0  0  0  0  0  0  0  0  0  0  0  0
  182.1720  175.1340  135.6590 C   0  0  2  0  0  3  0  0  0  0  0  0
  182.0990  172.8660  136.9960 C   0  0  0  0  0  2  0  0  0  0  0  0
  179.6840  172.4710  137.2590 C   0  0  0  0  0  1  0  0  0  0  0  0
  179.9260  173.1520  136.0650 O   0  0  0  0  0  0  0  0  0  0  0  0
  2  1  1  0  0  0  0
  2  8  1  1  0  0  0
  3  1  1  0  0  0  0
  4  2  1  0  0  0  0
  5  4  1  0  0  0  0
  6 23  1  6  0  0  0
  6  5  1  0  0  0  0
  6  3  1  0  0  0  0
  7  8  1  0  0  0  0
  8  9  2  0  0  0  0
 10  7  1  6  0  0  0
 10 14  1  0  0  0  0
 11 12  1  0  0  0  0
 12 17  1  1  0  0  0
 13 10  1  0  0  0  0
 13 11  1  0  0  0  0
 14 12  1  0  0  0  0
 14 15  1  1  0  0  0
 16 13  2  0  0  0  0
 17 21  1  0  0  0  0
 17 22  1  0  0  0  0
 18 20  1  0  0  0  0
 19 20  1  0  0  0  0
 21 19  1  0  0  0  0
 22 18  1  0  0  0  0
 23 35  1  1  0  0  0
 24 28  1  0  0  0  0
 24 30  1  0  0  0  0
 25 23  1  1  0  0  0
 25 33  1  0  0  0  0
 26 30  2  0  0  0  0
 26 34  1  0  0  0  0
 27 24  2  0  0  0  0
 29 26  1  0  0  0  0
 31 27  1  0  0  0  0
 31 29  2  0  0  0  0
 32 29  1  0  0  0  0
 32 25  1  0  0  0  0
 33 34  1  0  0  0  0
 36 35  1  0  0  0  0
 37 40  1  0  0  0  0
 37 38  1  0  0  0  0
 38 43  1  1  0  0  0
 38 41  1  0  0  0  0
 40 36  1  1  0  0  0
 40 39  1  0  0  0  0
 41 39  1  0  0  0  0
 43 42  1  0  0  0  0
M  END
>  <MODEL>
9

>  <REMARK>
 VINA RESULT:      -5.5      5.922     10.738
  Name = 
  9 active torsions:
  status: ('A' for Active; 'I' for Inactive)
    1  A    between atoms: N_1  and  C_34
    2  A    between atoms: N_1  and  C_35
    3  A    between atoms: N_3  and  C_4
    4  A    between atoms: C_6  and  C_12
    5  A    between atoms: C_8  and  C_34
    6  A    between atoms: N_11  and  C_14
    7  A    between atoms: C_19  and  O_37
    8  A    between atoms: C_32  and  C_35
    9  A    between atoms: C_34  and  C_38
                            x       y       z     vdW  Elec       q    Type
                         _______ _______ _______ _____ _____    ______ ____

>  <TORSDO>
F 9

$$$$
