=
 OpenBabel10262421503D

 30 35  0  0  1  0  0  0  0  0999 V2000
  187.1520  178.0650  141.1200 C   0  0  0  0  0  0  0  0  0  0  0  0
  184.8110  179.0200  140.6770 C   0  0  0  0  0  0  0  0  0  0  0  0
  186.3100  177.5530  145.2050 N   0  0  0  0  0  2  0  0  0  0  0  0
  188.0720  177.5030  142.0300 C   0  0  0  0  0  0  0  0  0  0  0  0
  187.6380  178.4100  139.7420 C   0  0  0  0  0  2  0  0  0  0  0  0
  190.5190  176.1400  139.7120 O   0  0  0  0  0  0  0  0  0  0  0  0
  190.3260  178.6830  143.4170 C   0  0  1  0  0  3  0  0  0  0  0  0
  189.5930  176.8220  140.1230 C   0  0  0  0  0  0  0  0  0  0  0  0
  189.6620  178.1230  144.6760 C   0  0  2  0  0  3  0  0  0  0  0  0
  187.6040  177.1100  145.6160 C   0  0  0  0  0  0  0  0  0  0  0  0
  188.5710  177.3560  139.1430 C   0  0  2  0  0  3  0  0  0  0  0  0
  189.4330  177.0130  141.6080 C   0  0  1  0  0  3  0  0  0  0  0  0
  183.3720  179.0570  141.1080 C   0  0  0  0  0  2  0  0  0  0  0  0
  190.6710  177.7480  145.5700 O   0  0  0  0  0  0  0  0  0  0  0  0
  191.5890  179.2770  143.9750 C   0  0  0  0  0  2  0  0  0  0  0  0
  185.1050  179.4660  139.5360 O   0  0  0  0  0  0  0  0  0  0  0  0
  186.4500  177.7100  143.8020 C   0  0  0  0  0  0  0  0  0  0  0  0
  183.2060  179.0440  142.6030 C   0  0  0  0  0  3  0  0  0  0  0  0
  185.8420  178.4210  141.5680 C   0  0  0  0  0  0  0  0  0  0  0  0
  187.7040  177.3700  143.3630 C   0  0  0  0  0  0  0  0  0  0  0  0
  187.8680  176.8230  146.8130 O   0  0  0  0  0  0  0  0  0  0  0  0
  188.6040  177.0220  144.4990 C   0  0  1  0  0  3  0  0  0  0  0  0
  191.6840  178.7070  145.3830 C   0  0  0  0  0  2  0  0  0  0  0  0
  191.6170  176.5760  142.7350 C   0  0  0  0  0  1  0  0  0  0  0  0
  184.1670  178.6270  143.4290 C   0  0  0  0  0  3  0  0  0  0  0  0
  185.4900  178.2180  142.9260 C   0  0  0  0  0  0  0  0  0  0  0  0
  190.6490  177.6670  142.2900 C   0  0  2  0  0  3  0  0  0  0  0  0
  189.2070  177.8650  137.8450 C   0  0  0  0  0  2  0  0  0  0  0  0
  187.4990  178.2950  136.0690 C   0  0  0  0  0  1  0  0  0  0  0  0
  188.3690  178.9270  137.1370 C   0  0  0  0  0  2  0  0  0  0  0  0
  1 19  2  0  0  0  0
  1  4  1  0  0  0  0
  2 13  1  0  0  0  0
  2 19  1  0  0  0  0
  3 10  1  0  0  0  0
  4 20  2  0  0  0  0
  5  1  1  0  0  0  0
  6  8  2  0  0  0  0
  7 15  1  1  0  0  0
  7  9  1  0  0  0  0
  9 14  1  1  0  0  0
 10 21  2  0  0  0  0
 11 28  1  6  0  0  0
 11  5  1  0  0  0  0
 11  8  1  0  0  0  0
 12  8  1  6  0  0  0
 12  4  1  0  0  0  0
 12 27  1  0  0  0  0
 13 18  1  0  0  0  0
 15 23  1  0  0  0  0
 16  2  2  0  0  0  0
 17  3  1  0  0  0  0
 18 25  2  0  0  0  0
 19 26  1  0  0  0  0
 20 17  1  0  0  0  0
 22 20  1  6  0  0  0
 22  9  1  0  0  0  0
 22 10  1  0  0  0  0
 23 14  1  0  0  0  0
 26 25  1  0  0  0  0
 26 17  2  0  0  0  0
 27 24  1  1  0  0  0
 27  7  1  0  0  0  0
 29 30  1  0  0  0  0
 30 28  1  0  0  0  0
M  END
>  <MODEL>
1

>  <REMARK>
 VINA RESULT:      -8.9      0.000      0.000
  Name = 
  2 active torsions:
  status: ('A' for Active; 'I' for Inactive)
    1  A    between atoms: C_9  and  C_12
    2  A    between atoms: C_9  and  C_21
                            x       y       z     vdW  Elec       q    Type
                         _______ _______ _______ _____ _____    ______ ____

>  <TORSDO>
F 2

$$$$
=
 OpenBabel10262421503D

 30 35  0  0  1  0  0  0  0  0999 V2000
  185.8190  178.1820  142.4400 C   0  0  0  0  0  0  0  0  0  0  0  0
  186.7360  177.9460  144.8260 C   0  0  0  0  0  0  0  0  0  0  0  0
  181.9790  179.1120  143.8700 N   0  0  0  0  0  2  0  0  0  0  0  0
  184.7340  178.4870  141.5890 C   0  0  0  0  0  0  0  0  0  0  0  0
  187.0770  177.6440  141.8200 C   0  0  0  0  0  2  0  0  0  0  0  0
  186.4950  178.9520  138.4420 O   0  0  0  0  0  0  0  0  0  0  0  0
  182.9410  176.7570  140.1110 C   0  0  1  0  0  3  0  0  0  0  0  0
  186.2880  178.5960  139.5930 C   0  0  0  0  0  0  0  0  0  0  0  0
  181.8320  177.5470  140.8090 C   0  0  2  0  0  3  0  0  0  0  0  0
  181.3100  179.1700  142.6090 C   0  0  0  0  0  0  0  0  0  0  0  0
  187.4610  178.3440  140.5160 C   0  0  2  0  0  3  0  0  0  0  0  0
  184.8680  178.5300  140.0900 C   0  0  1  0  0  3  0  0  0  0  0  0
  186.6020  178.3580  146.2640 C   0  0  0  0  0  2  0  0  0  0  0  0
  180.7490  177.6470  139.9290 O   0  0  0  0  0  0  0  0  0  0  0  0
  182.1500  175.8420  139.2200 C   0  0  0  0  0  2  0  0  0  0  0  0
  187.8010  177.3790  144.4620 O   0  0  0  0  0  0  0  0  0  0  0  0
  183.3280  178.8550  143.5130 C   0  0  0  0  0  0  0  0  0  0  0  0
  185.1710  178.4900  146.7070 C   0  0  0  0  0  3  0  0  0  0  0  0
  185.6480  178.2530  143.8570 C   0  0  0  0  0  0  0  0  0  0  0  0
  183.5010  178.7860  142.1540 C   0  0  0  0  0  0  0  0  0  0  0  0
  180.0810  179.4210  142.5110 O   0  0  0  0  0  0  0  0  0  0  0  0
  182.2030  178.9040  141.4310 C   0  0  1  0  0  3  0  0  0  0  0  0
  180.7430  176.4240  139.2350 C   0  0  0  0  0  2  0  0  0  0  0  0
  183.3210  178.3510  138.1400 C   0  0  0  0  0  1  0  0  0  0  0  0
  184.1630  178.6410  145.8460 C   0  0  0  0  0  3  0  0  0  0  0  0
  184.3850  178.6140  144.3910 C   0  0  0  0  0  0  0  0  0  0  0  0
  183.9660  177.5780  139.2840 C   0  0  2  0  0  3  0  0  0  0  0  0
  188.6120  177.6080  139.8200 C   0  0  0  0  0  2  0  0  0  0  0  0
  191.0810  177.2940  140.0730 C   0  0  0  0  0  1  0  0  0  0  0  0
  189.7380  177.2130  140.7720 C   0  0  0  0  0  2  0  0  0  0  0  0
  1 19  1  0  0  0  0
  2 13  1  0  0  0  0
  4 20  1  0  0  0  0
  4  1  2  0  0  0  0
  5  1  1  0  0  0  0
  6  8  2  0  0  0  0
  7 15  1  6  0  0  0
  7  9  1  0  0  0  0
  8 11  1  0  0  0  0
  9 14  1  6  0  0  0
  9 22  1  0  0  0  0
 10  3  1  0  0  0  0
 11 28  1  6  0  0  0
 11  5  1  0  0  0  0
 12  8  1  1  0  0  0
 12  4  1  0  0  0  0
 13 18  1  0  0  0  0
 15 23  1  0  0  0  0
 16  2  2  0  0  0  0
 17  3  1  0  0  0  0
 17 26  1  0  0  0  0
 19 26  2  0  0  0  0
 19  2  1  0  0  0  0
 20 17  2  0  0  0  0
 21 10  2  0  0  0  0
 22 20  1  1  0  0  0
 22 10  1  0  0  0  0
 23 14  1  0  0  0  0
 25 18  2  0  0  0  0
 26 25  1  0  0  0  0
 27 24  1  6  0  0  0
 27 12  1  0  0  0  0
 27  7  1  0  0  0  0
 28 30  1  0  0  0  0
 29 30  1  0  0  0  0
M  END
>  <MODEL>
2

>  <REMARK>
 VINA RESULT:      -8.8      2.490      6.406
  Name = 
  2 active torsions:
  status: ('A' for Active; 'I' for Inactive)
    1  A    between atoms: C_9  and  C_12
    2  A    between atoms: C_9  and  C_21
                            x       y       z     vdW  Elec       q    Type
                         _______ _______ _______ _____ _____    ______ ____

>  <TORSDO>
F 2

$$$$
=
 OpenBabel10262421503D

 30 35  0  0  1  0  0  0  0  0999 V2000
  188.5700  177.6840  141.2250 C   0  0  0  0  0  0  0  0  0  0  0  0
  186.5590  178.1060  142.7640 C   0  0  0  0  0  0  0  0  0  0  0  0
  186.3220  178.6490  137.8090 N   0  0  0  0  0  2  0  0  0  0  0  0
  189.1150  177.6920  139.9230 C   0  0  0  0  0  0  0  0  0  0  0  0
  189.3980  177.1060  142.3370 C   0  0  0  0  0  2  0  0  0  0  0  0
  192.6600  177.5040  140.7060 O   0  0  0  0  0  0  0  0  0  0  0  0
  189.6060  175.5260  138.0620 C   0  0  1  0  0  3  0  0  0  0  0  0
  191.4510  177.4250  140.8620 C   0  0  0  0  0  0  0  0  0  0  0  0
  188.8020  176.3790  137.0780 C   0  0  2  0  0  3  0  0  0  0  0  0
  187.3170  178.3480  136.8290 C   0  0  0  0  0  0  0  0  0  0  0  0
  190.8760  177.4940  142.2600 C   0  0  2  0  0  3  0  0  0  0  0  0
  190.5620  177.3780  139.6480 C   0  0  1  0  0  3  0  0  0  0  0  0
  185.2660  178.8460  142.9590 C   0  0  0  0  0  2  0  0  0  0  0  0
  189.3310  176.1800  135.7980 O   0  0  0  0  0  0  0  0  0  0  0  0
  190.0130  174.3650  137.1990 C   0  0  0  0  0  2  0  0  0  0  0  0
  187.0860  177.5480  143.7630 O   0  0  0  0  0  0  0  0  0  0  0  0
  186.9910  178.4130  139.0370 C   0  0  0  0  0  0  0  0  0  0  0  0
  184.4670  178.9750  141.6920 C   0  0  0  0  0  3  0  0  0  0  0  0
  187.2140  178.0860  141.4270 C   0  0  0  0  0  0  0  0  0  0  0  0
  188.2940  178.0280  138.8530 C   0  0  0  0  0  0  0  0  0  0  0  0
  187.1060  178.4760  135.5950 O   0  0  0  0  0  0  0  0  0  0  0  0
  188.6180  177.8690  137.4070 C   0  0  1  0  0  3  0  0  0  0  0  0
  189.7150  174.8280  135.7800 C   0  0  0  0  0  2  0  0  0  0  0  0
  191.8950  176.6150  137.6810 C   0  0  0  0  0  1  0  0  0  0  0  0
  185.0100  178.8370  140.4810 C   0  0  0  0  0  3  0  0  0  0  0  0
  186.4270  178.4720  140.3120 C   0  0  0  0  0  0  0  0  0  0  0  0
  190.8490  176.1940  138.7070 C   0  0  2  0  0  3  0  0  0  0  0  0
  191.7010  176.6970  143.2780 C   0  0  0  0  0  2  0  0  0  0  0  0
  191.6830  176.7440  145.7790 C   0  0  0  0  0  1  0  0  0  0  0  0
  190.9180  176.3320  144.5360 C   0  0  0  0  0  2  0  0  0  0  0  0
  1 19  1  0  0  0  0
  1  5  1  0  0  0  0
  2 13  1  0  0  0  0
  2 16  2  0  0  0  0
  3 17  1  0  0  0  0
  4  1  2  0  0  0  0
  6  8  2  0  0  0  0
  7 15  1  6  0  0  0
  7 27  1  0  0  0  0
  8 11  1  0  0  0  0
  9 14  1  6  0  0  0
  9 22  1  0  0  0  0
  9  7  1  0  0  0  0
 10  3  1  0  0  0  0
 11  5  1  0  0  0  0
 11 28  1  1  0  0  0
 12  4  1  1  0  0  0
 12  8  1  0  0  0  0
 17 26  1  0  0  0  0
 18 13  1  0  0  0  0
 19  2  1  0  0  0  0
 20 17  2  0  0  0  0
 20  4  1  0  0  0  0
 21 10  2  0  0  0  0
 22 10  1  6  0  0  0
 22 20  1  0  0  0  0
 23 14  1  0  0  0  0
 23 15  1  0  0  0  0
 25 18  2  0  0  0  0
 26 25  1  0  0  0  0
 26 19  2  0  0  0  0
 27 24  1  6  0  0  0
 27 12  1  0  0  0  0
 28 30  1  0  0  0  0
 30 29  1  0  0  0  0
M  END
>  <MODEL>
3

>  <REMARK>
 VINA RESULT:      -8.7      2.459      6.103
  Name = 
  2 active torsions:
  status: ('A' for Active; 'I' for Inactive)
    1  A    between atoms: C_9  and  C_12
    2  A    between atoms: C_9  and  C_21
                            x       y       z     vdW  Elec       q    Type
                         _______ _______ _______ _____ _____    ______ ____

>  <TORSDO>
F 2

$$$$
=
 OpenBabel10262421503D

 30 35  0  0  1  0  0  0  0  0999 V2000
  186.6990  178.0220  142.8830 C   0  0  0  0  0  0  0  0  0  0  0  0
  187.6430  177.5060  145.2140 C   0  0  0  0  0  0  0  0  0  0  0  0
  183.0430  179.3070  144.5070 N   0  0  0  0  0  2  0  0  0  0  0  0
  185.6380  178.5170  142.0940 C   0  0  0  0  0  0  0  0  0  0  0  0
  187.8640  177.3800  142.1850 C   0  0  0  0  0  2  0  0  0  0  0  0
  187.3590  178.9870  138.9250 O   0  0  0  0  0  0  0  0  0  0  0  0
  183.6060  177.1280  140.5660 C   0  0  1  0  0  3  0  0  0  0  0  0
  187.1400  178.5780  140.0560 C   0  0  0  0  0  0  0  0  0  0  0  0
  182.6230  177.9950  141.3540 C   0  0  2  0  0  3  0  0  0  0  0  0
  182.3530  179.5350  143.2770 C   0  0  0  0  0  0  0  0  0  0  0  0
  188.2970  178.1210  140.9180 C   0  0  2  0  0  3  0  0  0  0  0  0
  185.7370  178.6500  140.5970 C   0  0  1  0  0  3  0  0  0  0  0  0
  187.5990  177.8280  146.6810 C   0  0  0  0  0  2  0  0  0  0  0  0
  181.5380  178.2880  140.5210 O   0  0  0  0  0  0  0  0  0  0  0  0
  182.6840  176.3810  139.6430 C   0  0  0  0  0  2  0  0  0  0  0  0
  188.6190  176.8420  144.7750 O   0  0  0  0  0  0  0  0  0  0  0  0
  184.3400  178.9140  144.0860 C   0  0  0  0  0  0  0  0  0  0  0  0
  186.2070  178.1010  147.1810 C   0  0  0  0  0  3  0  0  0  0  0  0
  186.5760  178.0120  144.3070 C   0  0  0  0  0  0  0  0  0  0  0  0
  184.4670  178.9220  142.7200 C   0  0  0  0  0  0  0  0  0  0  0  0
  181.1620  179.9410  143.2390 O   0  0  0  0  0  0  0  0  0  0  0  0
  183.1740  179.2480  142.0530 C   0  0  1  0  0  3  0  0  0  0  0  0
  181.3620  177.1270  139.7470 C   0  0  0  0  0  2  0  0  0  0  0  0
  184.1280  178.8000  138.6950 C   0  0  0  0  0  1  0  0  0  0  0  0
  185.2040  178.4340  146.3690 C   0  0  0  0  0  3  0  0  0  0  0  0
  185.3820  178.4850  144.9080 C   0  0  0  0  0  0  0  0  0  0  0  0
  184.7020  177.8750  139.7610 C   0  0  2  0  0  3  0  0  0  0  0  0
  189.3290  177.3020  140.1350 C   0  0  0  0  0  2  0  0  0  0  0  0
  191.3850  177.5050  141.5450 C   0  0  0  0  0  1  0  0  0  0  0  0
  190.3170  176.5600  141.0310 C   0  0  0  0  0  2  0  0  0  0  0  0
  1 19  1  0  0  0  0
  2 13  1  0  0  0  0
  4 20  1  0  0  0  0
  4  1  2  0  0  0  0
  5  1  1  0  0  0  0
  6  8  2  0  0  0  0
  7 15  1  6  0  0  0
  7  9  1  0  0  0  0
  8 11  1  0  0  0  0
  9 14  1  6  0  0  0
  9 22  1  0  0  0  0
 10  3  1  0  0  0  0
 11 28  1  6  0  0  0
 11  5  1  0  0  0  0
 12  8  1  6  0  0  0
 12  4  1  0  0  0  0
 13 18  1  0  0  0  0
 15 23  1  0  0  0  0
 16  2  2  0  0  0  0
 17  3  1  0  0  0  0
 17 26  1  0  0  0  0
 19 26  2  0  0  0  0
 19  2  1  0  0  0  0
 20 17  2  0  0  0  0
 21 10  2  0  0  0  0
 22 20  1  1  0  0  0
 22 10  1  0  0  0  0
 23 14  1  0  0  0  0
 25 18  2  0  0  0  0
 26 25  1  0  0  0  0
 27 24  1  6  0  0  0
 27  7  1  0  0  0  0
 27 12  1  0  0  0  0
 28 30  1  0  0  0  0
 30 29  1  0  0  0  0
M  END
>  <MODEL>
4

>  <REMARK>
 VINA RESULT:      -8.6      2.107      6.042
  Name = 
  2 active torsions:
  status: ('A' for Active; 'I' for Inactive)
    1  A    between atoms: C_9  and  C_12
    2  A    between atoms: C_9  and  C_21
                            x       y       z     vdW  Elec       q    Type
                         _______ _______ _______ _____ _____    ______ ____

>  <TORSDO>
F 2

$$$$
=
 OpenBabel10262421503D

 30 35  0  0  1  0  0  0  0  0999 V2000
  186.9810  178.0450  141.5520 C   0  0  0  0  0  0  0  0  0  0  0  0
  186.4150  177.8780  144.0510 C   0  0  0  0  0  0  0  0  0  0  0  0
  183.1020  179.3760  140.6320 N   0  0  0  0  0  2  0  0  0  0  0  0
  186.5750  178.3880  140.2440 C   0  0  0  0  0  0  0  0  0  0  0  0
  188.3090  177.3680  141.7290 C   0  0  0  0  0  2  0  0  0  0  0  0
  189.8060  178.5140  138.5810 O   0  0  0  0  0  0  0  0  0  0  0  0
  185.7140  176.7270  138.0320 C   0  0  1  0  0  3  0  0  0  0  0  0
  188.9680  178.2470  139.4300 C   0  0  0  0  0  0  0  0  0  0  0  0
  184.4930  177.6470  138.0020 C   0  0  2  0  0  3  0  0  0  0  0  0
  183.2410  179.4130  139.2110 C   0  0  0  0  0  0  0  0  0  0  0  0
  189.4130  177.9550  140.8460 C   0  0  2  0  0  3  0  0  0  0  0  0
  187.5100  178.3290  139.0650 C   0  0  1  0  0  3  0  0  0  0  0  0
  185.5610  178.3860  145.1770 C   0  0  0  0  0  2  0  0  0  0  0  0
  184.0830  177.7840  136.6710 O   0  0  0  0  0  0  0  0  0  0  0  0
  185.4500  175.8290  136.8560 C   0  0  0  0  0  2  0  0  0  0  0  0
  187.4410  177.2040  144.3340 O   0  0  0  0  0  0  0  0  0  0  0  0
  184.3920  178.9860  141.0760 C   0  0  0  0  0  0  0  0  0  0  0  0
  184.1420  178.6620  144.7600 C   0  0  0  0  0  3  0  0  0  0  0  0
  186.0720  178.2150  142.6420 C   0  0  0  0  0  0  0  0  0  0  0  0
  185.2720  178.8220  140.0370 C   0  0  0  0  0  0  0  0  0  0  0  0
  182.2990  179.7590  138.4520 O   0  0  0  0  0  0  0  0  0  0  0  0
  184.6000  179.0030  138.7190 C   0  0  1  0  0  3  0  0  0  0  0  0
  184.3320  176.5250  136.0930 C   0  0  0  0  0  2  0  0  0  0  0  0
  187.2700  178.1620  136.5860 C   0  0  0  0  0  1  0  0  0  0  0  0
  183.7900  178.8450  143.4860 C   0  0  0  0  0  3  0  0  0  0  0  0
  184.7670  178.7120  142.3920 C   0  0  0  0  0  0  0  0  0  0  0  0
  187.1020  177.4080  137.9000 C   0  0  2  0  0  3  0  0  0  0  0  0
  190.6740  177.0850  140.9020 C   0  0  0  0  0  2  0  0  0  0  0  0
  191.4700  176.6350  143.2310 C   0  0  0  0  0  1  0  0  0  0  0  0
  191.6480  177.5030  142.0000 C   0  0  0  0  0  2  0  0  0  0  0  0
  1  5  1  0  0  0  0
  1 19  1  0  0  0  0
  2 16  2  0  0  0  0
  2 13  1  0  0  0  0
  3 17  1  0  0  0  0
  4  1  2  0  0  0  0
  6  8  2  0  0  0  0
  7 15  1  6  0  0  0
  8 11  1  0  0  0  0
  9 14  1  6  0  0  0
  9  7  1  0  0  0  0
  9 22  1  0  0  0  0
 10  3  1  0  0  0  0
 11 28  1  6  0  0  0
 11  5  1  0  0  0  0
 12  8  1  1  0  0  0
 12  4  1  0  0  0  0
 17 26  1  0  0  0  0
 18 13  1  0  0  0  0
 19  2  1  0  0  0  0
 20  4  1  0  0  0  0
 20 17  2  0  0  0  0
 21 10  2  0  0  0  0
 22 10  1  1  0  0  0
 22 20  1  0  0  0  0
 23 14  1  0  0  0  0
 23 15  1  0  0  0  0
 25 18  2  0  0  0  0
 26 19  2  0  0  0  0
 26 25  1  0  0  0  0
 27 24  1  6  0  0  0
 27  7  1  0  0  0  0
 27 12  1  0  0  0  0
 28 30  1  0  0  0  0
 30 29  1  0  0  0  0
M  END
>  <MODEL>
5

>  <REMARK>
 VINA RESULT:      -7.9      2.156      6.097
  Name = 
  2 active torsions:
  status: ('A' for Active; 'I' for Inactive)
    1  A    between atoms: C_9  and  C_12
    2  A    between atoms: C_9  and  C_21
                            x       y       z     vdW  Elec       q    Type
                         _______ _______ _______ _____ _____    ______ ____

>  <TORSDO>
F 2

$$$$
=
 OpenBabel10262421503D

 30 35  0  0  1  0  0  0  0  0999 V2000
  188.0050  177.9410  142.7170 C   0  0  0  0  0  0  0  0  0  0  0  0
  185.6530  177.8830  143.7440 C   0  0  0  0  0  0  0  0  0  0  0  0
  186.4630  178.8380  138.9130 N   0  0  0  0  0  2  0  0  0  0  0  0
  188.8230  178.1590  141.5880 C   0  0  0  0  0  0  0  0  0  0  0  0
  188.6460  177.4040  143.9650 C   0  0  0  0  0  2  0  0  0  0  0  0
  192.0680  178.4800  143.1950 O   0  0  0  0  0  0  0  0  0  0  0  0
  190.1110  176.2840  139.7920 C   0  0  1  0  0  3  0  0  0  0  0  0
  190.8900  178.1900  143.0500 C   0  0  0  0  0  0  0  0  0  0  0  0
  189.4130  177.0820  138.6890 C   0  0  2  0  0  3  0  0  0  0  0  0
  187.6940  178.7960  138.1890 C   0  0  0  0  0  0  0  0  0  0  0  0
  190.0070  178.0340  144.2690 C   0  0  2  0  0  3  0  0  0  0  0  0
  190.3270  178.1120  141.6550 C   0  0  1  0  0  3  0  0  0  0  0  0
  184.2380  178.3800  143.6580 C   0  0  0  0  0  2  0  0  0  0  0  0
  190.2480  177.0920  137.5660 O   0  0  0  0  0  0  0  0  0  0  0  0
  190.9080  175.2910  138.9950 C   0  0  0  0  0  2  0  0  0  0  0  0
  186.0290  177.3280  144.8100 O   0  0  0  0  0  0  0  0  0  0  0  0
  186.8640  178.6020  140.2530 C   0  0  0  0  0  0  0  0  0  0  0  0
  183.7400  178.4950  142.2430 C   0  0  0  0  0  3  0  0  0  0  0  0
  186.5890  178.0950  142.6050 C   0  0  0  0  0  0  0  0  0  0  0  0
  188.2230  178.4540  140.3700 C   0  0  0  0  0  0  0  0  0  0  0  0
  187.7520  179.0020  136.9490 O   0  0  0  0  0  0  0  0  0  0  0  0
  188.8930  178.4850  139.0390 C   0  0  1  0  0  3  0  0  0  0  0  0
  190.8650  175.8280  137.5710 C   0  0  0  0  0  2  0  0  0  0  0  0
  192.1910  177.7630  140.0330 C   0  0  0  0  0  1  0  0  0  0  0  0
  184.5620  178.5600  141.1950 C   0  0  0  0  0  3  0  0  0  0  0  0
  186.0220  178.4490  141.3550 C   0  0  0  0  0  0  0  0  0  0  0  0
  191.0320  177.0830  140.7520 C   0  0  2  0  0  3  0  0  0  0  0  0
  190.7070  177.2920  145.4130 C   0  0  0  0  0  2  0  0  0  0  0  0
  189.6160  177.5500  147.6490 C   0  0  0  0  0  1  0  0  0  0  0  0
  189.7360  176.6750  146.4170 C   0  0  0  0  0  2  0  0  0  0  0  0
  1  5  1  0  0  0  0
  2 16  2  0  0  0  0
  3 17  1  0  0  0  0
  4  1  2  0  0  0  0
  5 11  1  0  0  0  0
  7 15  1  6  0  0  0
  7 27  1  0  0  0  0
  8  6  2  0  0  0  0
  8 11  1  0  0  0  0
  9 14  1  6  0  0  0
  9 22  1  0  0  0  0
  9  7  1  0  0  0  0
 10  3  1  0  0  0  0
 11 28  1  1  0  0  0
 12  4  1  1  0  0  0
 12  8  1  0  0  0  0
 13  2  1  0  0  0  0
 14 23  1  0  0  0  0
 17 20  2  0  0  0  0
 17 26  1  0  0  0  0
 18 13  1  0  0  0  0
 19  1  1  0  0  0  0
 19  2  1  0  0  0  0
 20  4  1  0  0  0  0
 21 10  2  0  0  0  0
 22 10  1  6  0  0  0
 22 20  1  0  0  0  0
 23 15  1  0  0  0  0
 25 26  1  0  0  0  0
 25 18  2  0  0  0  0
 26 19  2  0  0  0  0
 27 24  1  6  0  0  0
 27 12  1  0  0  0  0
 28 30  1  0  0  0  0
 30 29  1  0  0  0  0
M  END
>  <MODEL>
6

>  <REMARK>
 VINA RESULT:      -7.7      2.068      5.607
  Name = 
  2 active torsions:
  status: ('A' for Active; 'I' for Inactive)
    1  A    between atoms: C_9  and  C_12
    2  A    between atoms: C_9  and  C_21
                            x       y       z     vdW  Elec       q    Type
                         _______ _______ _______ _____ _____    ______ ____

>  <TORSDO>
F 2

$$$$
=
 OpenBabel10262421503D

 30 35  0  0  1  0  0  0  0  0999 V2000
  187.9070  177.7890  141.1350 C   0  0  0  0  0  0  0  0  0  0  0  0
  188.0480  177.3580  143.6620 C   0  0  0  0  0  0  0  0  0  0  0  0
  183.9010  179.0220  141.4390 N   0  0  0  0  0  2  0  0  0  0  0  0
  187.1540  178.2360  140.0280 C   0  0  0  0  0  0  0  0  0  0  0  0
  189.2450  177.1600  140.8750 C   0  0  0  0  0  2  0  0  0  0  0  0
  189.8050  178.6690  137.5780 O   0  0  0  0  0  0  0  0  0  0  0  0
  185.7530  176.7570  137.9690 C   0  0  1  0  0  3  0  0  0  0  0  0
  189.2370  178.2830  138.5890 C   0  0  0  0  0  0  0  0  0  0  0  0
  184.5530  177.6180  138.3650 C   0  0  2  0  0  3  0  0  0  0  0  0
  183.6470  179.2010  140.0450 C   0  0  0  0  0  0  0  0  0  0  0  0
  190.0560  177.8780  139.7950 C   0  0  2  0  0  3  0  0  0  0  0  0
  187.7320  178.3330  138.6410 C   0  0  1  0  0  3  0  0  0  0  0  0
  187.5230  177.7160  145.0240 C   0  0  0  0  0  2  0  0  0  0  0  0
  183.7930  177.8630  137.2150 O   0  0  0  0  0  0  0  0  0  0  0  0
  185.1940  175.9640  136.8210 C   0  0  0  0  0  2  0  0  0  0  0  0
  189.1240  176.7070  143.5870 O   0  0  0  0  0  0  0  0  0  0  0  0
  185.2710  178.6520  141.4750 C   0  0  0  0  0  0  0  0  0  0  0  0
  186.0400  177.9660  145.0350 C   0  0  0  0  0  3  0  0  0  0  0  0
  187.3270  177.8120  142.4410 C   0  0  0  0  0  0  0  0  0  0  0  0
  185.8360  178.6280  140.2260 C   0  0  0  0  0  0  0  0  0  0  0  0
  182.5270  179.5750  139.6080 O   0  0  0  0  0  0  0  0  0  0  0  0
  184.8260  178.9030  139.1640 C   0  0  1  0  0  3  0  0  0  0  0  0
  183.8980  176.6780  136.4640 C   0  0  0  0  0  2  0  0  0  0  0  0
  186.8290  178.3930  136.3150 C   0  0  0  0  0  1  0  0  0  0  0  0
  185.3510  178.2530  143.9300 C   0  0  0  0  0  3  0  0  0  0  0  0
  185.9950  178.2700  142.6050 C   0  0  0  0  0  0  0  0  0  0  0  0
  187.0390  177.5100  137.5400 C   0  0  2  0  0  3  0  0  0  0  0  0
  191.3000  177.0660  139.4170 C   0  0  0  0  0  2  0  0  0  0  0  0
  191.8220  175.7680  137.3430 C   0  0  0  0  0  1  0  0  0  0  0  0
  190.9800  175.8150  138.6030 C   0  0  0  0  0  2  0  0  0  0  0  0
  1 19  1  0  0  0  0
  2 13  1  0  0  0  0
  3 17  1  0  0  0  0
  4 20  1  0  0  0  0
  4  1  2  0  0  0  0
  5  1  1  0  0  0  0
  6  8  2  0  0  0  0
  7 15  1  6  0  0  0
  7  9  1  0  0  0  0
  8 11  1  0  0  0  0
  9 14  1  6  0  0  0
  9 22  1  0  0  0  0
 10  3  1  0  0  0  0
 11 28  1  6  0  0  0
 11  5  1  0  0  0  0
 12  8  1  1  0  0  0
 12  4  1  0  0  0  0
 13 18  1  0  0  0  0
 16  2  2  0  0  0  0
 17 26  1  0  0  0  0
 19 26  2  0  0  0  0
 19  2  1  0  0  0  0
 20 17  2  0  0  0  0
 21 10  2  0  0  0  0
 22 10  1  1  0  0  0
 22 20  1  0  0  0  0
 23 15  1  0  0  0  0
 23 14  1  0  0  0  0
 25 18  2  0  0  0  0
 26 25  1  0  0  0  0
 27 24  1  6  0  0  0
 27  7  1  0  0  0  0
 27 12  1  0  0  0  0
 29 30  1  0  0  0  0
 30 28  1  0  0  0  0
M  END
>  <MODEL>
7

>  <REMARK>
 VINA RESULT:      -7.7      2.175      5.866
  Name = 
  2 active torsions:
  status: ('A' for Active; 'I' for Inactive)
    1  A    between atoms: C_9  and  C_12
    2  A    between atoms: C_9  and  C_21
                            x       y       z     vdW  Elec       q    Type
                         _______ _______ _______ _____ _____    ______ ____

>  <TORSDO>
F 2

$$$$
=
 OpenBabel10262421503D

 30 35  0  0  1  0  0  0  0  0999 V2000
  185.4790  178.5780  140.4620 C   0  0  0  0  0  0  0  0  0  0  0  0
  188.0250  178.4100  140.1800 C   0  0  0  0  0  0  0  0  0  0  0  0
  184.8280  177.3150  136.5080 N   0  0  0  0  0  2  0  0  0  0  0  0
  184.1910  178.4010  139.9140 C   0  0  0  0  0  0  0  0  0  0  0  0
  185.5950  179.2480  141.8010 C   0  0  0  0  0  2  0  0  0  0  0  0
  182.1780  178.5450  142.9390 O   0  0  0  0  0  0  0  0  0  0  0  0
  182.3230  180.3210  138.8080 C   0  0  1  0  0  3  0  0  0  0  0  0
  183.1420  178.6860  142.2010 C   0  0  0  0  0  0  0  0  0  0  0  0
  182.3090  179.3930  137.5930 C   0  0  2  0  0  3  0  0  0  0  0  0
  183.4070  177.4650  136.4870 C   0  0  0  0  0  0  0  0  0  0  0  0
  184.5270  178.7990  142.8010 C   0  0  2  0  0  3  0  0  0  0  0  0
  182.9330  178.6280  140.7110 C   0  0  1  0  0  3  0  0  0  0  0  0
  189.1630  177.7460  139.4570 C   0  0  0  0  0  2  0  0  0  0  0  0
  181.0250  179.4240  137.0370 O   0  0  0  0  0  0  0  0  0  0  0  0
  181.3120  181.3600  138.4120 C   0  0  0  0  0  2  0  0  0  0  0  0
  188.2800  179.0580  141.2290 O   0  0  0  0  0  0  0  0  0  0  0  0
  185.1740  177.6640  137.8390 C   0  0  0  0  0  0  0  0  0  0  0  0
  188.8720  177.5030  138.0010 C   0  0  0  0  0  3  0  0  0  0  0  0
  186.6310  178.2530  139.6810 C   0  0  0  0  0  0  0  0  0  0  0  0
  184.0740  177.9770  138.5960 C   0  0  0  0  0  0  0  0  0  0  0  0
  182.7190  177.2050  135.4670 O   0  0  0  0  0  0  0  0  0  0  0  0
  182.8260  177.9570  137.7810 C   0  0  1  0  0  3  0  0  0  0  0  0
  180.5930  180.7500  137.2170 C   0  0  0  0  0  2  0  0  0  0  0  0
  180.5400  179.1110  140.1960 C   0  0  0  0  0  1  0  0  0  0  0  0
  187.6330  177.4820  137.5100 C   0  0  0  0  0  3  0  0  0  0  0  0
  186.4640  177.7710  138.3580 C   0  0  0  0  0  0  0  0  0  0  0  0
  181.9510  179.6850  140.1740 C   0  0  2  0  0  3  0  0  0  0  0  0
  184.5560  179.6750  144.0590 C   0  0  0  0  0  2  0  0  0  0  0  0
  186.0550  178.1180  145.3180 C   0  0  0  0  0  1  0  0  0  0  0  0
  184.7430  178.8760  145.3460 C   0  0  0  0  0  2  0  0  0  0  0  0
  1  5  1  0  0  0  0
  2 16  2  0  0  0  0
  3 17  1  0  0  0  0
  4  1  1  0  0  0  0
  5 11  1  0  0  0  0
  7 15  1  6  0  0  0
  7 27  1  0  0  0  0
  8 11  1  0  0  0  0
  8  6  2  0  0  0  0
  9 14  1  1  0  0  0
  9 22  1  0  0  0  0
  9  7  1  0  0  0  0
 10  3  1  0  0  0  0
 11 28  1  1  0  0  0
 12  4  1  6  0  0  0
 12  8  1  0  0  0  0
 13  2  1  0  0  0  0
 14 23  1  0  0  0  0
 17 26  2  0  0  0  0
 17 20  1  0  0  0  0
 18 13  1  0  0  0  0
 19  2  1  0  0  0  0
 19  1  2  0  0  0  0
 20  4  2  0  0  0  0
 21 10  2  0  0  0  0
 22 10  1  6  0  0  0
 22 20  1  0  0  0  0
 23 15  1  0  0  0  0
 25 18  2  0  0  0  0
 25 26  1  0  0  0  0
 26 19  1  0  0  0  0
 27 24  1  6  0  0  0
 27 12  1  0  0  0  0
 28 30  1  0  0  0  0
 29 30  1  0  0  0  0
M  END
>  <MODEL>
8

>  <REMARK>
 VINA RESULT:      -7.3      3.328      8.314
  Name = 
  2 active torsions:
  status: ('A' for Active; 'I' for Inactive)
    1  A    between atoms: C_9  and  C_12
    2  A    between atoms: C_9  and  C_21
                            x       y       z     vdW  Elec       q    Type
                         _______ _______ _______ _____ _____    ______ ____

>  <TORSDO>
F 2

$$$$
=
 OpenBabel10262421503D

 30 35  0  0  1  0  0  0  0  0999 V2000
  186.1960  178.3750  144.8460 C   0  0  0  0  0  0  0  0  0  0  0  0
  186.6040  178.8420  147.3370 C   0  0  0  0  0  0  0  0  0  0  0  0
  189.8700  176.3650  144.4910 N   0  0  0  0  0  2  0  0  0  0  0  0
  186.6340  177.7780  143.6440 C   0  0  0  0  0  0  0  0  0  0  0  0
  184.9830  179.2580  144.8000 C   0  0  0  0  0  2  0  0  0  0  0  0
  183.5490  177.8700  141.7210 O   0  0  0  0  0  0  0  0  0  0  0  0
  187.9000  178.9330  141.3080 C   0  0  1  0  0  3  0  0  0  0  0  0
  184.3560  178.1410  142.5980 C   0  0  0  0  0  0  0  0  0  0  0  0
  188.9600  177.8510  141.5230 C   0  0  2  0  0  3  0  0  0  0  0  0
  189.8270  176.1300  143.0820 C   0  0  0  0  0  0  0  0  0  0  0  0
  183.8650  178.7100  143.9110 C   0  0  2  0  0  3  0  0  0  0  0  0
  185.8060  177.7900  142.3860 C   0  0  1  0  0  3  0  0  0  0  0  0
  187.2860  178.3950  148.5990 C   0  0  0  0  0  2  0  0  0  0  0  0
  189.4350  177.4520  140.2690 O   0  0  0  0  0  0  0  0  0  0  0  0
  188.3860  179.5910  140.0470 C   0  0  0  0  0  2  0  0  0  0  0  0
  185.6800  179.6950  147.4260 O   0  0  0  0  0  0  0  0  0  0  0  0
  188.6300  177.0030  144.7530 C   0  0  0  0  0  0  0  0  0  0  0  0
  188.6680  177.8530  148.3600 C   0  0  0  0  0  3  0  0  0  0  0  0
  186.9880  178.2440  146.0290 C   0  0  0  0  0  0  0  0  0  0  0  0
  187.8630  177.1320  143.6230 C   0  0  0  0  0  0  0  0  0  0  0  0
  190.7540  175.5370  142.4720 O   0  0  0  0  0  0  0  0  0  0  0  0
  188.5890  176.6520  142.4120 C   0  0  1  0  0  3  0  0  0  0  0  0
  189.4310  178.6290  139.4980 C   0  0  0  0  0  2  0  0  0  0  0  0
  186.2420  177.5350  139.9420 C   0  0  0  0  0  1  0  0  0  0  0  0
  189.0750  177.4260  147.1630 C   0  0  0  0  0  3  0  0  0  0  0  0
  188.2120  177.5300  145.9750 C   0  0  0  0  0  0  0  0  0  0  0  0
  186.4350  178.4500  141.1460 C   0  0  2  0  0  3  0  0  0  0  0  0
  182.7570  179.7530  143.7240 C   0  0  0  0  0  2  0  0  0  0  0  0
  180.4320  179.7210  142.8010 C   0  0  0  0  0  1  0  0  0  0  0  0
  181.3520  179.1750  143.8750 C   0  0  0  0  0  2  0  0  0  0  0  0
  1 19  1  0  0  0  0
  2 16  2  0  0  0  0
  2 13  1  0  0  0  0
  3 17  1  0  0  0  0
  4  1  2  0  0  0  0
  5  1  1  0  0  0  0
  6  8  2  0  0  0  0
  7 15  1  6  0  0  0
  7  9  1  0  0  0  0
  8 11  1  0  0  0  0
  9 14  1  6  0  0  0
  9 22  1  0  0  0  0
 10  3  1  0  0  0  0
 11 28  1  6  0  0  0
 11  5  1  0  0  0  0
 12  8  1  1  0  0  0
 12  4  1  0  0  0  0
 17 26  1  0  0  0  0
 18 13  1  0  0  0  0
 19  2  1  0  0  0  0
 20  4  1  0  0  0  0
 20 17  2  0  0  0  0
 21 10  2  0  0  0  0
 22 10  1  1  0  0  0
 22 20  1  0  0  0  0
 23 15  1  0  0  0  0
 23 14  1  0  0  0  0
 25 18  2  0  0  0  0
 26 19  2  0  0  0  0
 26 25  1  0  0  0  0
 27 24  1  6  0  0  0
 27  7  1  0  0  0  0
 27 12  1  0  0  0  0
 28 30  1  0  0  0  0
 29 30  1  0  0  0  0
M  END
>  <MODEL>
9

>  <REMARK>
 VINA RESULT:      -7.1      2.193      5.891
  Name = 
  2 active torsions:
  status: ('A' for Active; 'I' for Inactive)
    1  A    between atoms: C_9  and  C_12
    2  A    between atoms: C_9  and  C_21
                            x       y       z     vdW  Elec       q    Type
                         _______ _______ _______ _____ _____    ______ ____

>  <TORSDO>
F 2

$$$$
