=
 OpenBabel10262422123D

 43 49  0  0  1  0  0  0  0  0999 V2000
  180.3790  178.4910  143.5770 C   0  0  0  0  0  0  0  0  0  0  0  0
  185.2090  178.5270  142.0730 C   0  0  2  0  0  3  0  0  0  0  0  0
  185.3570  177.9620  139.4660 N   0  0  0  0  0  0  0  0  0  0  0  0
  182.7630  178.9000  143.4620 C   0  0  0  0  0  0  0  0  0  0  0  0
  180.3310  178.3610  142.1850 C   0  0  0  0  0  3  0  0  0  0  0  0
  179.1910  178.3400  144.3460 N   0  0  0  0  0  1  0  0  0  0  0  0
  182.7210  178.7590  142.0570 C   0  0  0  0  0  0  0  0  0  0  0  0
  181.5920  178.7700  144.2150 C   0  0  0  0  0  3  0  0  0  0  0  0
  181.4960  178.5070  141.4270 C   0  0  0  0  0  3  0  0  0  0  0  0
  184.0000  178.3830  139.8650 C   0  0  0  0  0  2  0  0  0  0  0  0
  183.9880  179.0040  141.2730 C   0  0  2  0  0  3  0  0  0  0  0  0
  185.2010  179.0790  143.4710 C   0  0  0  0  0  3  0  0  0  0  0  0
  186.5090  178.8310  141.3200 C   0  0  2  0  0  3  0  0  0  0  0  0
  186.2610  178.9690  139.8750 N   0  0  0  0  0  2  0  0  0  0  0  0
  184.0450  179.2040  144.1310 C   0  0  0  0  0  3  0  0  0  0  0  0
  185.4170  177.8660  138.0040 C   0  0  2  0  0  3  0  0  0  0  0  0
  184.0190  177.6920  137.4230 C   0  0  0  0  0  1  0  0  0  0  0  0
  186.2510  176.6590  137.5870 C   0  0  0  0  0  2  0  0  0  0  0  0
  187.8260  175.8940  136.0170 C   0  0  0  0  0  2  0  0  0  0  0  0
  189.1260  176.6390  136.2270 C   0  0  1  0  0  3  0  0  0  0  0  0
  189.0550  179.7570  137.9590 O   0  0  0  0  0  0  0  0  0  0  0  0
  186.7110  176.8130  136.2150 N   0  0  0  0  0  0  0  0  0  0  0  0
  188.7600  178.1170  136.2060 C   0  0  1  0  0  3  0  0  0  0  0  0
  187.2460  178.1650  136.0900 C   0  0  0  0  0  2  0  0  0  0  0  0
  189.6840  176.3350  137.6310 C   0  0  2  0  0  3  0  0  0  0  0  0
  189.7090  177.5700  138.3200 O   0  0  0  0  0  0  0  0  0  0  0  0
  189.1820  178.5760  137.5460 C   0  0  0  0  0  0  0  0  0  0  0  0
  192.1870  176.3780  138.2730 C   0  0  0  0  0  3  0  0  0  0  0  0
  191.0610  175.7580  137.5470 C   0  0  0  0  0  0  0  0  0  0  0  0
  192.7250  172.7700  136.1200 C   0  0  0  0  0  1  0  0  0  0  0  0
  193.7550  174.7840  137.2010 C   0  0  0  0  0  2  0  0  0  0  0  0
  192.5570  174.0380  136.8070 N   0  0  0  0  0  0  0  0  0  0  0  0
  193.4310  175.9120  138.1420 C   0  0  0  0  0  3  0  0  0  0  0  0
  191.2530  174.6260  136.8730 C   0  0  0  0  0  3  0  0  0  0  0  0
  187.5160  177.7150  141.5750 C   0  0  0  0  0  2  0  0  0  0  0  0
  191.1560  177.6760  142.5740 N   0  0  0  0  0  2  0  0  0  0  0  0
  190.8620  176.6460  143.9350 S   0  0  0  0  0  0  0  0  0  0  0  0
  191.2240  175.2290  143.5930 O   0  0  0  0  0  0  0  0  0  0  0  0
  188.6110  178.0890  143.8080 C   0  0  0  0  0  2  0  0  0  0  0  0
  189.9990  177.5530  141.6940 C   0  0  0  0  0  2  0  0  0  0  0  0
  188.7560  178.2410  142.2820 C   0  0  1  0  0  3  0  0  0  0  0  0
  191.6800  177.1110  145.1050 O   0  0  0  0  0  0  0  0  0  0  0  0
  189.1290  176.7530  144.3270 C   0  0  0  0  0  2  0  0  0  0  0  0
  1  8  1  0  0  0  0
  1  6  1  0  0  0  0
  2 12  1  1  0  0  0
  3 10  1  0  0  0  0
  3 14  1  0  0  0  0
  4 15  1  0  0  0  0
  4  8  2  0  0  0  0
  5  1  2  0  0  0  0
  7  4  1  0  0  0  0
  9  7  2  0  0  0  0
  9  5  1  0  0  0  0
 11 10  1  6  0  0  0
 11  7  1  0  0  0  0
 11  2  1  0  0  0  0
 12 15  2  0  0  0  0
 13 35  1  6  0  0  0
 13  2  1  0  0  0  0
 14 13  1  0  0  0  0
 16 17  1  1  0  0  0
 16  3  1  0  0  0  0
 18 16  1  0  0  0  0
 19 22  1  0  0  0  0
 20 19  1  1  0  0  0
 20 25  1  0  0  0  0
 22 18  1  0  0  0  0
 23 24  1  1  0  0  0
 23 20  1  0  0  0  0
 23 27  1  0  0  0  0
 24 22  1  0  0  0  0
 25 29  1  6  0  0  0
 25 26  1  0  0  0  0
 27 21  2  0  0  0  0
 27 26  1  0  0  0  0
 29 28  1  0  0  0  0
 30 32  1  0  0  0  0
 31 33  1  0  0  0  0
 32 34  1  0  0  0  0
 32 31  1  0  0  0  0
 33 28  2  0  0  0  0
 34 29  2  0  0  0  0
 36 37  1  0  0  0  0
 37 43  1  0  0  0  0
 37 42  2  0  0  0  0
 38 37  2  0  0  0  0
 39 43  1  0  0  0  0
 40 41  1  0  0  0  0
 40 36  1  0  0  0  0
 41 35  1  6  0  0  0
 41 39  1  0  0  0  0
M  END
>  <MODEL>
1

>  <REMARK>
 VINA RESULT:      -9.7      0.000      0.000
  Name = 
  6 active torsions:
  status: ('A' for Active; 'I' for Inactive)
    1  A    between atoms: C_1  and  C_34
    2  A    between atoms: C_1  and  C_35
    3  A    between atoms: C_2  and  C_6
    4  A    between atoms: C_2  and  N_13
    5  A    between atoms: C_6  and  N_12
    6  A    between atoms: C_14  and  C_22
                            x       y       z     vdW  Elec       q    Type
                         _______ _______ _______ _____ _____    ______ ____

>  <TORSDO>
F 6

$$$$
=
 OpenBabel10262422123D

 43 49  0  0  1  0  0  0  0  0999 V2000
  191.1250  176.3580  146.7580 C   0  0  0  0  0  0  0  0  0  0  0  0
  189.3490  177.6370  142.1970 C   0  0  2  0  0  3  0  0  0  0  0  0
  186.7250  178.1140  142.3400 N   0  0  0  0  0  0  0  0  0  0  0  0
  190.9760  177.1130  144.4620 C   0  0  0  0  0  0  0  0  0  0  0  0
  189.8010  176.7520  146.9770 C   0  0  0  0  0  3  0  0  0  0  0  0
  191.8740  175.7640  147.8130 N   0  0  0  0  0  1  0  0  0  0  0  0
  189.6350  177.5030  144.6750 C   0  0  0  0  0  0  0  0  0  0  0  0
  191.7160  176.5470  145.5040 C   0  0  0  0  0  3  0  0  0  0  0  0
  189.0630  177.3340  145.9420 C   0  0  0  0  0  3  0  0  0  0  0  0
  187.3690  178.1590  143.6680 C   0  0  0  0  0  2  0  0  0  0  0  0
  188.9030  178.2000  143.5540 C   0  0  2  0  0  3  0  0  0  0  0  0
  190.8470  177.6190  142.0740 C   0  0  0  0  0  3  0  0  0  0  0  0
  188.6650  178.3800  141.0440 C   0  0  2  0  0  3  0  0  0  0  0  0
  187.4130  179.0120  141.4940 N   0  0  0  0  0  2  0  0  0  0  0  0
  191.6000  177.3230  143.1390 C   0  0  0  0  0  3  0  0  0  0  0  0
  185.3400  178.5810  142.4650 C   0  0  2  0  0  3  0  0  0  0  0  0
  184.7990  178.2760  143.8570 C   0  0  0  0  0  1  0  0  0  0  0  0
  184.4490  177.8710  141.4510 C   0  0  0  0  0  2  0  0  0  0  0  0
  182.1890  178.0850  140.8380 C   0  0  0  0  0  2  0  0  0  0  0  0
  182.0090  177.5390  139.4380 C   0  0  1  0  0  3  0  0  0  0  0  0
  184.8660  177.2800  137.3180 O   0  0  0  0  0  0  0  0  0  0  0  0
  183.4610  178.7940  140.9150 N   0  0  0  0  0  0  0  0  0  0  0  0
  183.0480  178.2520  138.5840 C   0  0  1  0  0  3  0  0  0  0  0  0
  183.8590  179.1040  139.5450 C   0  0  0  0  0  2  0  0  0  0  0  0
  182.3580  176.0390  139.4120 C   0  0  2  0  0  3  0  0  0  0  0  0
  183.4610  175.9070  138.5370 O   0  0  0  0  0  0  0  0  0  0  0  0
  183.8730  177.1350  138.0760 C   0  0  0  0  0  0  0  0  0  0  0  0
  179.9400  175.1640  139.6790 C   0  0  0  0  0  3  0  0  0  0  0  0
  181.2030  175.2280  138.9170 C   0  0  0  0  0  0  0  0  0  0  0  0
  180.2870  173.2730  135.9050 C   0  0  0  0  0  1  0  0  0  0  0  0
  179.0610  173.4840  138.0820 C   0  0  0  0  0  2  0  0  0  0  0  0
  180.1860  173.8680  137.2250 N   0  0  0  0  0  0  0  0  0  0  0  0
  178.9330  174.3840  139.2800 C   0  0  0  0  0  3  0  0  0  0  0  0
  181.2920  174.6220  137.7340 C   0  0  0  0  0  3  0  0  0  0  0  0
  188.3810  177.4040  139.9070 C   0  0  0  0  0  2  0  0  0  0  0  0
  189.1140  178.1830  136.2870 N   0  0  0  0  0  2  0  0  0  0  0  0
  189.0640  176.5140  135.8270 S   0  0  0  0  0  0  0  0  0  0  0  0
  187.7350  176.1940  135.2040 O   0  0  0  0  0  0  0  0  0  0  0  0
  190.0460  176.3960  138.3140 C   0  0  0  0  0  2  0  0  0  0  0  0
  188.4430  178.2850  137.5780 C   0  0  0  0  0  2  0  0  0  0  0  0
  189.2820  177.6730  138.7110 C   0  0  1  0  0  3  0  0  0  0  0  0
  190.1650  176.2270  134.8470 O   0  0  0  0  0  0  0  0  0  0  0  0
  189.2940  175.5410  137.3000 C   0  0  0  0  0  2  0  0  0  0  0  0
  1  5  1  0  0  0  0
  1  6  1  0  0  0  0
  2 12  1  6  0  0  0
  2 11  1  0  0  0  0
  3 16  1  0  0  0  0
  3 10  1  0  0  0  0
  4  7  2  0  0  0  0
  4  8  1  0  0  0  0
  7  9  1  0  0  0  0
  8  1  2  0  0  0  0
  9  5  2  0  0  0  0
 11 10  1  1  0  0  0
 11  7  1  0  0  0  0
 12 15  2  0  0  0  0
 13 35  1  6  0  0  0
 13 14  1  0  0  0  0
 13  2  1  0  0  0  0
 14  3  1  0  0  0  0
 15  4  1  0  0  0  0
 16 17  1  1  0  0  0
 18 16  1  0  0  0  0
 19 22  1  0  0  0  0
 20 19  1  1  0  0  0
 21 27  2  0  0  0  0
 22 18  1  0  0  0  0
 23 20  1  0  0  0  0
 23 24  1  1  0  0  0
 24 22  1  0  0  0  0
 25 29  1  6  0  0  0
 25 20  1  0  0  0  0
 26 25  1  0  0  0  0
 27 26  1  0  0  0  0
 27 23  1  0  0  0  0
 29 28  1  0  0  0  0
 30 32  1  0  0  0  0
 31 33  1  0  0  0  0
 32 34  1  0  0  0  0
 32 31  1  0  0  0  0
 33 28  2  0  0  0  0
 34 29  2  0  0  0  0
 36 40  1  0  0  0  0
 37 36  1  0  0  0  0
 37 43  1  0  0  0  0
 38 37  2  0  0  0  0
 39 41  1  0  0  0  0
 40 41  1  0  0  0  0
 41 35  1  1  0  0  0
 42 37  2  0  0  0  0
 43 39  1  0  0  0  0
M  END
>  <MODEL>
2

>  <REMARK>
 VINA RESULT:      -9.2      3.467      8.225
  Name = 
  6 active torsions:
  status: ('A' for Active; 'I' for Inactive)
    1  A    between atoms: C_1  and  C_34
    2  A    between atoms: C_1  and  C_35
    3  A    between atoms: C_2  and  C_6
    4  A    between atoms: C_2  and  N_13
    5  A    between atoms: C_6  and  N_12
    6  A    between atoms: C_14  and  C_22
                            x       y       z     vdW  Elec       q    Type
                         _______ _______ _______ _____ _____    ______ ____

>  <TORSDO>
F 6

$$$$
=
 OpenBabel10262422123D

 43 49  0  0  1  0  0  0  0  0999 V2000
  188.0630  177.5060  146.1260 C   0  0  0  0  0  0  0  0  0  0  0  0
  190.2750  177.3370  141.5790 C   0  0  2  0  0  3  0  0  0  0  0  0
  188.4170  177.3420  139.6600 N   0  0  0  0  0  0  0  0  0  0  0  0
  189.6860  177.6650  144.3360 C   0  0  0  0  0  0  0  0  0  0  0  0
  187.0250  177.6880  145.2060 C   0  0  0  0  0  3  0  0  0  0  0  0
  187.7660  177.3220  147.5060 N   0  0  0  0  0  1  0  0  0  0  0  0
  188.6400  177.8390  143.4010 C   0  0  0  0  0  0  0  0  0  0  0  0
  189.3930  177.5030  145.6930 C   0  0  0  0  0  3  0  0  0  0  0  0
  187.3140  177.8670  143.8500 C   0  0  0  0  0  3  0  0  0  0  0  0
  187.8790  177.8120  140.9510 C   0  0  0  0  0  2  0  0  0  0  0  0
  189.0030  178.1090  141.9610 C   0  0  2  0  0  3  0  0  0  0  0  0
  191.3780  177.5690  142.5730 C   0  0  0  0  0  3  0  0  0  0  0  0
  190.6950  177.6530  140.1390 C   0  0  2  0  0  3  0  0  0  0  0  0
  189.5480  178.1290  139.3480 N   0  0  0  0  0  2  0  0  0  0  0  0
  191.0900  177.6730  143.8750 C   0  0  0  0  0  3  0  0  0  0  0  0
  187.4100  177.5610  138.6150 C   0  0  2  0  0  3  0  0  0  0  0  0
  187.9600  178.4810  137.5310 C   0  0  0  0  0  1  0  0  0  0  0  0
  186.1710  178.2230  139.2070 C   0  0  0  0  0  2  0  0  0  0  0  0
  184.3870  179.6950  138.7790 C   0  0  0  0  0  2  0  0  0  0  0  0
  183.0830  178.9500  138.9680 C   0  0  1  0  0  3  0  0  0  0  0  0
  183.1050  175.3860  138.8060 O   0  0  0  0  0  0  0  0  0  0  0  0
  185.3580  178.8070  138.1500 N   0  0  0  0  0  0  0  0  0  0  0  0
  183.1970  177.7000  138.1060 C   0  0  1  0  0  3  0  0  0  0  0  0
  184.6040  177.7190  137.5350 C   0  0  0  0  0  2  0  0  0  0  0  0
  182.9560  178.4780  140.4290 C   0  0  2  0  0  3  0  0  0  0  0  0
  182.9150  177.0650  140.3840 O   0  0  0  0  0  0  0  0  0  0  0  0
  183.0640  176.6100  139.0960 C   0  0  0  0  0  0  0  0  0  0  0  0
  180.7630  179.8380  140.2830 C   0  0  0  0  0  3  0  0  0  0  0  0
  181.7110  179.0150  141.0600 C   0  0  0  0  0  0  0  0  0  0  0  0
  179.8890  178.7150  144.2730 C   0  0  0  0  0  1  0  0  0  0  0  0
  179.4310  180.2400  142.3350 C   0  0  0  0  0  2  0  0  0  0  0  0
  180.2140  179.1520  142.9270 N   0  0  0  0  0  0  0  0  0  0  0  0
  179.6890  180.3810  140.8600 C   0  0  0  0  0  3  0  0  0  0  0  0
  181.4180  178.6770  142.3140 C   0  0  0  0  0  3  0  0  0  0  0  0
  191.2910  176.4040  139.4980 C   0  0  0  0  0  2  0  0  0  0  0  0
  191.3080  175.5810  135.8150 N   0  0  0  0  0  2  0  0  0  0  0  0
  192.7340  174.6070  135.9490 S   0  0  0  0  0  0  0  0  0  0  0  0
  192.3590  173.1530  135.9920 O   0  0  0  0  0  0  0  0  0  0  0  0
  193.1470  176.4930  137.8030 C   0  0  0  0  0  2  0  0  0  0  0  0
  190.7650  175.7230  137.1610 C   0  0  0  0  0  2  0  0  0  0  0  0
  191.6320  176.6430  138.0350 C   0  0  1  0  0  3  0  0  0  0  0  0
  193.6320  174.8650  134.7740 O   0  0  0  0  0  0  0  0  0  0  0  0
  193.5600  175.0670  137.4570 C   0  0  0  0  0  2  0  0  0  0  0  0
  1  6  1  0  0  0  0
  2 11  1  0  0  0  0
  2 12  1  1  0  0  0
  3 10  1  0  0  0  0
  4  8  2  0  0  0  0
  5  1  2  0  0  0  0
  7  9  2  0  0  0  0
  7  4  1  0  0  0  0
  8  1  1  0  0  0  0
  9  5  1  0  0  0  0
 11 10  1  6  0  0  0
 11  7  1  0  0  0  0
 12 15  2  0  0  0  0
 13 35  1  6  0  0  0
 13  2  1  0  0  0  0
 14  3  1  0  0  0  0
 14 13  1  0  0  0  0
 15  4  1  0  0  0  0
 16 17  1  6  0  0  0
 16 18  1  0  0  0  0
 16  3  1  0  0  0  0
 20 19  1  1  0  0  0
 20 25  1  0  0  0  0
 21 27  2  0  0  0  0
 22 19  1  0  0  0  0
 22 18  1  0  0  0  0
 23 24  1  1  0  0  0
 23 20  1  0  0  0  0
 23 27  1  0  0  0  0
 24 22  1  0  0  0  0
 25 29  1  6  0  0  0
 26 25  1  0  0  0  0
 27 26  1  0  0  0  0
 28 33  2  0  0  0  0
 28 29  1  0  0  0  0
 29 34  2  0  0  0  0
 31 32  1  0  0  0  0
 32 30  1  0  0  0  0
 33 31  1  0  0  0  0
 34 32  1  0  0  0  0
 36 37  1  0  0  0  0
 36 40  1  0  0  0  0
 37 38  2  0  0  0  0
 37 43  1  0  0  0  0
 39 41  1  0  0  0  0
 40 41  1  0  0  0  0
 41 35  1  1  0  0  0
 42 37  2  0  0  0  0
 43 39  1  0  0  0  0
M  END
>  <MODEL>
3

>  <REMARK>
 VINA RESULT:      -9.0      3.180      8.121
  Name = 
  6 active torsions:
  status: ('A' for Active; 'I' for Inactive)
    1  A    between atoms: C_1  and  C_34
    2  A    between atoms: C_1  and  C_35
    3  A    between atoms: C_2  and  C_6
    4  A    between atoms: C_2  and  N_13
    5  A    between atoms: C_6  and  N_12
    6  A    between atoms: C_14  and  C_22
                            x       y       z     vdW  Elec       q    Type
                         _______ _______ _______ _____ _____    ______ ____

>  <TORSDO>
F 6

$$$$
=
 OpenBabel10262422123D

 43 49  0  0  1  0  0  0  0  0999 V2000
  187.9770  177.5470  144.9440 C   0  0  0  0  0  0  0  0  0  0  0  0
  190.2550  177.0820  140.4510 C   0  0  2  0  0  3  0  0  0  0  0  0
  188.4280  177.0240  138.5020 N   0  0  0  0  0  0  0  0  0  0  0  0
  189.6310  177.5720  143.1750 C   0  0  0  0  0  0  0  0  0  0  0  0
  186.9580  177.7030  143.9980 C   0  0  0  0  0  3  0  0  0  0  0  0
  187.6540  177.4460  146.3260 N   0  0  0  0  0  1  0  0  0  0  0  0
  188.6050  177.7180  142.2140 C   0  0  0  0  0  0  0  0  0  0  0  0
  189.3130  177.4910  144.5340 C   0  0  0  0  0  3  0  0  0  0  0  0
  187.2720  177.8010  142.6390 C   0  0  0  0  0  3  0  0  0  0  0  0
  187.8820  177.5760  139.7570 C   0  0  0  0  0  2  0  0  0  0  0  0
  188.9960  177.9010  140.7680 C   0  0  2  0  0  3  0  0  0  0  0  0
  191.3470  177.3420  141.4490 C   0  0  0  0  0  3  0  0  0  0  0  0
  190.7050  177.3090  139.0030 C   0  0  2  0  0  3  0  0  0  0  0  0
  189.5820  177.7680  138.1680 N   0  0  0  0  0  2  0  0  0  0  0  0
  191.0420  177.5230  142.7390 C   0  0  0  0  0  3  0  0  0  0  0  0
  187.4440  177.2090  137.4310 C   0  0  2  0  0  3  0  0  0  0  0  0
  187.5860  178.5930  136.8100 C   0  0  0  0  0  1  0  0  0  0  0  0
  186.0290  177.0880  137.9870 C   0  0  0  0  0  2  0  0  0  0  0  0
  184.7030  178.9650  138.4890 C   0  0  0  0  0  2  0  0  0  0  0  0
  183.3400  178.4910  138.9430 C   0  0  1  0  0  3  0  0  0  0  0  0
  182.2810  175.2030  138.0540 O   0  0  0  0  0  0  0  0  0  0  0  0
  185.1700  178.1080  137.4040 N   0  0  0  0  0  0  0  0  0  0  0  0
  182.8510  177.5460  137.8550 C   0  0  1  0  0  3  0  0  0  0  0  0
  183.9970  177.4270  136.8650 C   0  0  0  0  0  2  0  0  0  0  0  0
  183.4760  177.6610  140.2330 C   0  0  2  0  0  3  0  0  0  0  0  0
  183.0150  176.3620  139.9140 O   0  0  0  0  0  0  0  0  0  0  0  0
  182.6760  176.2720  138.5860 C   0  0  0  0  0  0  0  0  0  0  0  0
  183.2760  178.6250  142.6230 C   0  0  0  0  0  3  0  0  0  0  0  0
  182.6560  178.2460  141.3380 C   0  0  0  0  0  0  0  0  0  0  0  0
  179.1820  179.4190  141.8800 C   0  0  0  0  0  1  0  0  0  0  0  0
  181.0380  179.1580  143.5460 C   0  0  0  0  0  2  0  0  0  0  0  0
  180.5690  179.0920  142.1600 N   0  0  0  0  0  0  0  0  0  0  0  0
  182.5370  179.0780  143.6380 C   0  0  0  0  0  3  0  0  0  0  0  0
  181.3660  178.5010  141.1270 C   0  0  0  0  0  3  0  0  0  0  0  0
  191.2820  176.0140  138.4410 C   0  0  0  0  0  2  0  0  0  0  0  0
  193.2150  175.7270  135.2120 N   0  0  0  0  0  2  0  0  0  0  0  0
  194.0100  174.2730  135.7150 S   0  0  0  0  0  0  0  0  0  0  0  0
  193.3370  173.0810  135.0980 O   0  0  0  0  0  0  0  0  0  0  0  0
  193.7270  175.6020  138.0200 C   0  0  0  0  0  2  0  0  0  0  0  0
  192.0510  175.8920  136.0750 C   0  0  0  0  0  2  0  0  0  0  0  0
  192.4490  176.2900  137.5050 C   0  0  1  0  0  3  0  0  0  0  0  0
  195.4510  174.3150  135.2940 O   0  0  0  0  0  0  0  0  0  0  0  0
  193.8990  174.1840  137.4890 C   0  0  0  0  0  2  0  0  0  0  0  0
  1  6  1  0  0  0  0
  2 11  1  0  0  0  0
  2 12  1  1  0  0  0
  3 10  1  0  0  0  0
  4  8  2  0  0  0  0
  5  1  2  0  0  0  0
  7  9  2  0  0  0  0
  7  4  1  0  0  0  0
  8  1  1  0  0  0  0
  9  5  1  0  0  0  0
 11 10  1  6  0  0  0
 11  7  1  0  0  0  0
 12 15  2  0  0  0  0
 13 35  1  6  0  0  0
 13  2  1  0  0  0  0
 14  3  1  0  0  0  0
 14 13  1  0  0  0  0
 15  4  1  0  0  0  0
 16 17  1  1  0  0  0
 16 18  1  0  0  0  0
 16  3  1  0  0  0  0
 20 19  1  6  0  0  0
 20 25  1  0  0  0  0
 21 27  2  0  0  0  0
 22 18  1  0  0  0  0
 22 19  1  0  0  0  0
 23 24  1  6  0  0  0
 23 27  1  0  0  0  0
 23 20  1  0  0  0  0
 24 22  1  0  0  0  0
 25 29  1  1  0  0  0
 26 25  1  0  0  0  0
 27 26  1  0  0  0  0
 28 33  2  0  0  0  0
 29 28  1  0  0  0  0
 30 32  1  0  0  0  0
 31 33  1  0  0  0  0
 32 31  1  0  0  0  0
 34 29  2  0  0  0  0
 34 32  1  0  0  0  0
 36 37  1  0  0  0  0
 36 40  1  0  0  0  0
 37 43  1  0  0  0  0
 38 37  2  0  0  0  0
 40 41  1  0  0  0  0
 41 39  1  0  0  0  0
 41 35  1  1  0  0  0
 42 37  2  0  0  0  0
 43 39  1  0  0  0  0
M  END
>  <MODEL>
4

>  <REMARK>
 VINA RESULT:      -8.7      3.317      7.925
  Name = 
  6 active torsions:
  status: ('A' for Active; 'I' for Inactive)
    1  A    between atoms: C_1  and  C_34
    2  A    between atoms: C_1  and  C_35
    3  A    between atoms: C_2  and  C_6
    4  A    between atoms: C_2  and  N_13
    5  A    between atoms: C_6  and  N_12
    6  A    between atoms: C_14  and  C_22
                            x       y       z     vdW  Elec       q    Type
                         _______ _______ _______ _____ _____    ______ ____

>  <TORSDO>
F 6

$$$$
=
 OpenBabel10262422123D

 43 49  0  0  1  0  0  0  0  0999 V2000
  190.9540  176.8350  146.3470 C   0  0  0  0  0  0  0  0  0  0  0  0
  187.5150  178.0030  142.8250 C   0  0  2  0  0  3  0  0  0  0  0  0
  188.6650  178.0730  140.4150 N   0  0  0  0  0  0  0  0  0  0  0  0
  188.8570  177.1680  145.1810 C   0  0  0  0  0  0  0  0  0  0  0  0
  191.6120  176.6730  145.1240 C   0  0  0  0  0  3  0  0  0  0  0  0
  191.6860  176.7570  147.5640 N   0  0  0  0  0  1  0  0  0  0  0  0
  189.5200  177.0170  143.9420 C   0  0  0  0  0  0  0  0  0  0  0  0
  189.5760  177.0730  146.3770 C   0  0  0  0  0  3  0  0  0  0  0  0
  190.8950  176.7510  143.9260 C   0  0  0  0  0  3  0  0  0  0  0  0
  189.4850  177.3390  141.3980 C   0  0  0  0  0  2  0  0  0  0  0  0
  188.6920  177.0280  142.6800 C   0  0  2  0  0  3  0  0  0  0  0  0
  186.7480  177.7560  144.0930 C   0  0  0  0  0  3  0  0  0  0  0  0
  186.6260  177.9770  141.5760 C   0  0  2  0  0  3  0  0  0  0  0  0
  187.3760  177.4930  140.4050 N   0  0  0  0  0  2  0  0  0  0  0  0
  187.4000  177.4100  145.2090 C   0  0  0  0  0  3  0  0  0  0  0  0
  189.2490  177.9000  139.0800 C   0  0  2  0  0  3  0  0  0  0  0  0
  189.0550  179.1600  138.2450 C   0  0  0  0  0  1  0  0  0  0  0  0
  188.5700  176.7450  138.3520 C   0  0  0  0  0  2  0  0  0  0  0  0
  186.8690  176.8690  136.7320 C   0  0  0  0  0  2  0  0  0  0  0  0
  186.7050  175.5080  136.0920 C   0  0  1  0  0  3  0  0  0  0  0  0
  189.3940  173.1740  136.3100 O   0  0  0  0  0  0  0  0  0  0  0  0
  188.2860  177.1160  136.9740 N   0  0  0  0  0  0  0  0  0  0  0  0
  188.0970  175.1010  135.6310 C   0  0  1  0  0  3  0  0  0  0  0  0
  189.0300  176.1960  136.1190 C   0  0  0  0  0  2  0  0  0  0  0  0
  186.2630  174.4800  137.1510 C   0  0  2  0  0  3  0  0  0  0  0  0
  187.2970  173.5170  137.2190 O   0  0  0  0  0  0  0  0  0  0  0  0
  188.3390  173.8540  136.3890 C   0  0  0  0  0  0  0  0  0  0  0  0
  184.6430  172.4680  137.2220 C   0  0  0  0  0  3  0  0  0  0  0  0
  184.9730  173.8310  136.7640 C   0  0  0  0  0  0  0  0  0  0  0  0
  181.8420  174.7390  135.0000 C   0  0  0  0  0  1  0  0  0  0  0  0
  182.5930  172.4940  135.8290 C   0  0  0  0  0  2  0  0  0  0  0  0
  182.8230  173.9360  135.7080 N   0  0  0  0  0  0  0  0  0  0  0  0
  183.5280  171.8550  136.8190 C   0  0  0  0  0  3  0  0  0  0  0  0
  184.0790  174.5260  136.0620 C   0  0  0  0  0  3  0  0  0  0  0  0
  186.0830  179.3770  141.3100 C   0  0  0  0  0  2  0  0  0  0  0  0
  182.7110  177.7210  140.9370 N   0  0  0  0  0  2  0  0  0  0  0  0
  182.9670  177.3800  139.2580 S   0  0  0  0  0  0  0  0  0  0  0  0
  183.3830  175.9470  139.0830 O   0  0  0  0  0  0  0  0  0  0  0  0
  184.2810  179.6890  139.5830 C   0  0  0  0  0  2  0  0  0  0  0  0
  184.0220  177.9930  141.5160 C   0  0  0  0  0  2  0  0  0  0  0  0
  184.5830  179.3470  141.0540 C   0  0  1  0  0  3  0  0  0  0  0  0
  181.7000  177.6360  138.4930 O   0  0  0  0  0  0  0  0  0  0  0  0
  184.2550  178.4620  138.6780 C   0  0  0  0  0  2  0  0  0  0  0  0
  1  8  1  0  0  0  0
  1  6  1  0  0  0  0
  2 12  1  1  0  0  0
  3 10  1  0  0  0  0
  4 15  1  0  0  0  0
  4  8  2  0  0  0  0
  5  1  2  0  0  0  0
  7  4  1  0  0  0  0
  9  7  2  0  0  0  0
  9  5  1  0  0  0  0
 11 10  1  6  0  0  0
 11  2  1  0  0  0  0
 11  7  1  0  0  0  0
 12 15  2  0  0  0  0
 13 35  1  6  0  0  0
 13  2  1  0  0  0  0
 14  3  1  0  0  0  0
 14 13  1  0  0  0  0
 16 17  1  6  0  0  0
 16  3  1  0  0  0  0
 18 16  1  0  0  0  0
 19 22  1  0  0  0  0
 20 19  1  1  0  0  0
 20 25  1  0  0  0  0
 21 27  2  0  0  0  0
 22 18  1  0  0  0  0
 23 20  1  0  0  0  0
 23 24  1  1  0  0  0
 23 27  1  0  0  0  0
 24 22  1  0  0  0  0
 25 29  1  6  0  0  0
 25 26  1  0  0  0  0
 27 26  1  0  0  0  0
 29 28  1  0  0  0  0
 30 32  1  0  0  0  0
 31 33  1  0  0  0  0
 32 31  1  0  0  0  0
 32 34  1  0  0  0  0
 33 28  2  0  0  0  0
 34 29  2  0  0  0  0
 36 40  1  0  0  0  0
 37 36  1  0  0  0  0
 38 37  2  0  0  0  0
 39 41  1  0  0  0  0
 41 35  1  6  0  0  0
 41 40  1  0  0  0  0
 42 37  2  0  0  0  0
 43 37  1  0  0  0  0
 43 39  1  0  0  0  0
M  END
>  <MODEL>
5

>  <REMARK>
 VINA RESULT:      -8.7      3.649      7.097
  Name = 
  6 active torsions:
  status: ('A' for Active; 'I' for Inactive)
    1  A    between atoms: C_1  and  C_34
    2  A    between atoms: C_1  and  C_35
    3  A    between atoms: C_2  and  C_6
    4  A    between atoms: C_2  and  N_13
    5  A    between atoms: C_6  and  N_12
    6  A    between atoms: C_14  and  C_22
                            x       y       z     vdW  Elec       q    Type
                         _______ _______ _______ _____ _____    ______ ____

>  <TORSDO>
F 6

$$$$
=
 OpenBabel10262422123D

 43 49  0  0  1  0  0  0  0  0999 V2000
  194.0290  174.0820  135.8830 C   0  0  0  0  0  0  0  0  0  0  0  0
  189.6360  176.4420  136.7370 C   0  0  2  0  0  3  0  0  0  0  0  0
  189.2700  176.7660  139.3630 N   0  0  0  0  0  0  0  0  0  0  0  0
  192.0210  175.4060  135.6000 C   0  0  0  0  0  0  0  0  0  0  0  0
  194.0200  174.3550  137.2540 C   0  0  0  0  0  3  0  0  0  0  0  0
  195.0510  173.2620  135.3280 N   0  0  0  0  0  1  0  0  0  0  0  0
  192.0010  175.6750  136.9870 C   0  0  0  0  0  0  0  0  0  0  0  0
  193.0360  174.6150  135.0540 C   0  0  0  0  0  3  0  0  0  0  0  0
  193.0160  175.1600  137.8020 C   0  0  0  0  0  3  0  0  0  0  0  0
  190.6810  176.4860  139.0320 C   0  0  0  0  0  2  0  0  0  0  0  0
  190.9460  176.6140  137.5210 C   0  0  2  0  0  3  0  0  0  0  0  0
  189.8690  176.5140  135.2540 C   0  0  0  0  0  3  0  0  0  0  0  0
  188.5740  177.4350  137.2230 C   0  0  2  0  0  3  0  0  0  0  0  0
  188.8570  177.8800  138.5980 N   0  0  0  0  0  2  0  0  0  0  0  0
  190.9750  175.9780  134.7270 C   0  0  0  0  0  3  0  0  0  0  0  0
  189.1760  177.1320  140.7810 C   0  0  2  0  0  3  0  0  0  0  0  0
  188.7750  178.5950  140.9280 C   0  0  0  0  0  1  0  0  0  0  0  0
  190.5260  176.9450  141.4650 C   0  0  0  0  0  2  0  0  0  0  0  0
  189.1700  175.7650  142.9820 C   0  0  0  0  0  2  0  0  0  0  0  0
  189.2530  176.4370  144.3350 C   0  0  1  0  0  3  0  0  0  0  0  0
  192.0400  178.5510  145.0330 O   0  0  0  0  0  0  0  0  0  0  0  0
  190.4860  175.7930  142.3530 N   0  0  0  0  0  0  0  0  0  0  0  0
  190.7390  176.5480  144.6470 C   0  0  1  0  0  3  0  0  0  0  0  0
  191.4600  176.0320  143.4140 C   0  0  0  0  0  2  0  0  0  0  0  0
  188.7040  177.8730  144.2420 C   0  0  2  0  0  3  0  0  0  0  0  0
  189.7840  178.7280  144.5630 O   0  0  0  0  0  0  0  0  0  0  0  0
  190.9350  178.0080  144.7770 C   0  0  0  0  0  0  0  0  0  0  0  0
  187.8030  178.0420  146.6590 C   0  0  0  0  0  3  0  0  0  0  0  0
  187.5750  178.0800  145.2010 C   0  0  0  0  0  0  0  0  0  0  0  0
  183.9880  179.0030  145.0910 C   0  0  0  0  0  1  0  0  0  0  0  0
  185.3640  178.2460  147.0460 C   0  0  0  0  0  2  0  0  0  0  0  0
  185.2780  178.6130  145.6300 N   0  0  0  0  0  0  0  0  0  0  0  0
  186.7880  178.1500  147.5190 C   0  0  0  0  0  3  0  0  0  0  0  0
  186.3670  178.3790  144.7290 C   0  0  0  0  0  3  0  0  0  0  0  0
  187.1980  176.7810  137.1560 C   0  0  0  0  0  2  0  0  0  0  0  0
  184.4950  178.9180  138.6950 N   0  0  0  0  0  2  0  0  0  0  0  0
  183.2900  177.6890  138.4990 S   0  0  0  0  0  0  0  0  0  0  0  0
  183.0770  176.9670  139.7980 O   0  0  0  0  0  0  0  0  0  0  0  0
  184.8650  177.2970  136.3710 C   0  0  0  0  0  2  0  0  0  0  0  0
  185.7910  178.2590  138.5840 C   0  0  0  0  0  2  0  0  0  0  0  0
  186.0910  177.8240  137.1400 C   0  0  1  0  0  3  0  0  0  0  0  0
  182.0010  178.3150  138.0500 O   0  0  0  0  0  0  0  0  0  0  0  0
  183.8760  176.5530  137.2600 C   0  0  0  0  0  2  0  0  0  0  0  0
  1  5  1  0  0  0  0
  2 12  1  6  0  0  0
  2 13  1  0  0  0  0
  2 11  1  0  0  0  0
  3 16  1  0  0  0  0
  4  7  2  0  0  0  0
  5  9  2  0  0  0  0
  6  1  1  0  0  0  0
  7 11  1  0  0  0  0
  7  9  1  0  0  0  0
  8  4  1  0  0  0  0
  8  1  2  0  0  0  0
 10  3  1  0  0  0  0
 11 10  1  1  0  0  0
 13 35  1  1  0  0  0
 13 14  1  0  0  0  0
 14  3  1  0  0  0  0
 15 12  2  0  0  0  0
 15  4  1  0  0  0  0
 16 17  1  6  0  0  0
 16 18  1  0  0  0  0
 18 22  1  0  0  0  0
 20 19  1  6  0  0  0
 20 23  1  0  0  0  0
 22 19  1  0  0  0  0
 22 24  1  0  0  0  0
 23 24  1  6  0  0  0
 23 27  1  0  0  0  0
 25 20  1  0  0  0  0
 25 26  1  0  0  0  0
 25 29  1  1  0  0  0
 26 27  1  0  0  0  0
 27 21  2  0  0  0  0
 28 33  2  0  0  0  0
 29 28  1  0  0  0  0
 30 32  1  0  0  0  0
 31 33  1  0  0  0  0
 32 31  1  0  0  0  0
 34 29  2  0  0  0  0
 34 32  1  0  0  0  0
 37 36  1  0  0  0  0
 37 38  2  0  0  0  0
 39 41  1  0  0  0  0
 39 43  1  0  0  0  0
 40 36  1  0  0  0  0
 41 35  1  1  0  0  0
 41 40  1  0  0  0  0
 42 37  2  0  0  0  0
 43 37  1  0  0  0  0
M  END
>  <MODEL>
6

>  <REMARK>
 VINA RESULT:      -8.6      3.052      9.812
  Name = 
  6 active torsions:
  status: ('A' for Active; 'I' for Inactive)
    1  A    between atoms: C_1  and  C_34
    2  A    between atoms: C_1  and  C_35
    3  A    between atoms: C_2  and  C_6
    4  A    between atoms: C_2  and  N_13
    5  A    between atoms: C_6  and  N_12
    6  A    between atoms: C_14  and  C_22
                            x       y       z     vdW  Elec       q    Type
                         _______ _______ _______ _____ _____    ______ ____

>  <TORSDO>
F 6

$$$$
=
 OpenBabel10262422123D

 43 49  0  0  1  0  0  0  0  0999 V2000
  182.0310  178.5500  141.2710 C   0  0  0  0  0  0  0  0  0  0  0  0
  186.8750  178.0700  142.6500 C   0  0  2  0  0  3  0  0  0  0  0  0
  188.4050  177.6950  140.4920 N   0  0  0  0  0  0  0  0  0  0  0  0
  184.1010  178.6510  142.5250 C   0  0  0  0  0  0  0  0  0  0  0  0
  182.7540  178.5360  140.0740 C   0  0  0  0  0  3  0  0  0  0  0  0
  180.6100  178.4970  141.2440 N   0  0  0  0  0  1  0  0  0  0  0  0
  184.8360  178.6260  141.3190 C   0  0  0  0  0  0  0  0  0  0  0  0
  182.7030  178.6170  142.4960 C   0  0  0  0  0  3  0  0  0  0  0  0
  184.1510  178.5870  140.0970 C   0  0  0  0  0  3  0  0  0  0  0  0
  187.0860  178.2580  140.1440 C   0  0  0  0  0  2  0  0  0  0  0  0
  186.3370  178.7640  141.3900 C   0  0  2  0  0  3  0  0  0  0  0  0
  186.1310  178.5070  143.8790 C   0  0  0  0  0  3  0  0  0  0  0  0
  188.3920  178.2580  142.7720 C   0  0  2  0  0  3  0  0  0  0  0  0
  188.9960  178.5400  141.4590 N   0  0  0  0  0  2  0  0  0  0  0  0
  184.8140  178.7310  143.8170 C   0  0  0  0  0  3  0  0  0  0  0  0
  189.2590  177.7060  139.2990 C   0  0  2  0  0  3  0  0  0  0  0  0
  189.0160  178.9690  138.4820 C   0  0  0  0  0  1  0  0  0  0  0  0
  188.9440  176.5070  138.4120 C   0  0  0  0  0  2  0  0  0  0  0  0
  187.0590  176.6400  137.0130 C   0  0  0  0  0  2  0  0  0  0  0  0
  186.8880  175.3180  136.2970 C   0  0  1  0  0  3  0  0  0  0  0  0
  189.6970  173.1360  136.0300 O   0  0  0  0  0  0  0  0  0  0  0  0
  188.4800  176.9520  137.1070 N   0  0  0  0  0  0  0  0  0  0  0  0
  188.2340  175.0250  135.6500 C   0  0  1  0  0  3  0  0  0  0  0  0
  189.1620  176.1380  136.1060 C   0  0  0  0  0  2  0  0  0  0  0  0
  186.6270  174.1970  137.3210 C   0  0  2  0  0  3  0  0  0  0  0  0
  187.7080  173.2940  137.1980 O   0  0  0  0  0  0  0  0  0  0  0  0
  188.6260  173.7470  136.2810 C   0  0  0  0  0  0  0  0  0  0  0  0
  184.0460  174.2070  137.1880 C   0  0  0  0  0  3  0  0  0  0  0  0
  185.3340  173.5020  137.0380 C   0  0  0  0  0  0  0  0  0  0  0  0
  184.1820  170.2480  135.6880 C   0  0  0  0  0  1  0  0  0  0  0  0
  182.8350  172.0960  136.7170 C   0  0  0  0  0  2  0  0  0  0  0  0
  184.1280  171.5810  136.2600 N   0  0  0  0  0  0  0  0  0  0  0  0
  182.8860  173.5700  137.0100 C   0  0  0  0  0  3  0  0  0  0  0  0
  185.3540  172.2560  136.5690 C   0  0  0  0  0  3  0  0  0  0  0  0
  189.0120  177.0030  143.3760 C   0  0  0  0  0  2  0  0  0  0  0  0
  192.0560  176.1880  145.4540 N   0  0  0  0  0  2  0  0  0  0  0  0
  191.1930  176.3590  146.9460 S   0  0  0  0  0  0  0  0  0  0  0  0
  190.8090  175.0070  147.4740 O   0  0  0  0  0  0  0  0  0  0  0  0
  189.9970  178.1680  145.3760 C   0  0  0  0  0  2  0  0  0  0  0  0
  191.0570  176.0200  144.4040 C   0  0  0  0  0  2  0  0  0  0  0  0
  190.2990  177.3270  144.1220 C   0  0  1  0  0  3  0  0  0  0  0  0
  192.0550  177.0690  147.9490 O   0  0  0  0  0  0  0  0  0  0  0  0
  189.7310  177.3190  146.6140 C   0  0  0  0  0  2  0  0  0  0  0  0
  1  8  1  0  0  0  0
  2 13  1  0  0  0  0
  2 12  1  1  0  0  0
  3 14  1  0  0  0  0
  4 15  1  0  0  0  0
  5  9  1  0  0  0  0
  5  1  2  0  0  0  0
  6  1  1  0  0  0  0
  7 11  1  0  0  0  0
  7  4  1  0  0  0  0
  8  4  2  0  0  0  0
  9  7  2  0  0  0  0
 10  3  1  0  0  0  0
 11 10  1  6  0  0  0
 11  2  1  0  0  0  0
 13 35  1  6  0  0  0
 14 13  1  0  0  0  0
 15 12  2  0  0  0  0
 16 17  1  6  0  0  0
 16  3  1  0  0  0  0
 18 16  1  0  0  0  0
 19 22  1  0  0  0  0
 20 19  1  1  0  0  0
 20 25  1  0  0  0  0
 21 27  2  0  0  0  0
 22 18  1  0  0  0  0
 23 24  1  1  0  0  0
 23 27  1  0  0  0  0
 23 20  1  0  0  0  0
 24 22  1  0  0  0  0
 25 29  1  6  0  0  0
 26 25  1  0  0  0  0
 27 26  1  0  0  0  0
 29 28  1  0  0  0  0
 30 32  1  0  0  0  0
 31 33  1  0  0  0  0
 32 34  1  0  0  0  0
 32 31  1  0  0  0  0
 33 28  2  0  0  0  0
 34 29  2  0  0  0  0
 36 37  1  0  0  0  0
 37 38  2  0  0  0  0
 37 42  2  0  0  0  0
 39 43  1  0  0  0  0
 40 36  1  0  0  0  0
 41 35  1  1  0  0  0
 41 40  1  0  0  0  0
 41 39  1  0  0  0  0
 43 37  1  0  0  0  0
M  END
>  <MODEL>
7

>  <REMARK>
 VINA RESULT:      -8.3      2.803      4.631
  Name = 
  6 active torsions:
  status: ('A' for Active; 'I' for Inactive)
    1  A    between atoms: C_1  and  C_34
    2  A    between atoms: C_1  and  C_35
    3  A    between atoms: C_2  and  C_6
    4  A    between atoms: C_2  and  N_13
    5  A    between atoms: C_6  and  N_12
    6  A    between atoms: C_14  and  C_22
                            x       y       z     vdW  Elec       q    Type
                         _______ _______ _______ _____ _____    ______ ____

>  <TORSDO>
F 6

$$$$
=
 OpenBabel10262422123D

 43 49  0  0  1  0  0  0  0  0999 V2000
  182.3530  178.6540  142.4850 C   0  0  0  0  0  0  0  0  0  0  0  0
  187.3360  177.8750  142.8810 C   0  0  2  0  0  3  0  0  0  0  0  0
  188.4040  177.5420  140.4550 N   0  0  0  0  0  0  0  0  0  0  0  0
  184.6260  178.5920  143.3190 C   0  0  0  0  0  0  0  0  0  0  0  0
  182.8320  178.6680  141.1710 C   0  0  0  0  0  3  0  0  0  0  0  0
  180.9510  178.6690  142.7300 N   0  0  0  0  0  1  0  0  0  0  0  0
  185.1150  178.5950  141.9930 C   0  0  0  0  0  0  0  0  0  0  0  0
  183.2490  178.6250  143.5590 C   0  0  0  0  0  3  0  0  0  0  0  0
  184.2090  178.6520  140.9270 C   0  0  0  0  0  3  0  0  0  0  0  0
  187.0760  178.1830  140.3920 C   0  0  0  0  0  2  0  0  0  0  0  0
  186.6070  178.6590  141.7790 C   0  0  2  0  0  3  0  0  0  0  0  0
  186.8650  178.2830  144.2490 C   0  0  0  0  0  3  0  0  0  0  0  0
  188.8560  177.9860  142.7170 C   0  0  2  0  0  3  0  0  0  0  0  0
  189.2140  178.3060  141.3250 N   0  0  0  0  0  2  0  0  0  0  0  0
  185.5750  178.5710  144.4510 C   0  0  0  0  0  3  0  0  0  0  0  0
  189.0140  177.5750  139.1220 C   0  0  2  0  0  3  0  0  0  0  0  0
  189.0560  179.0020  138.5900 C   0  0  0  0  0  1  0  0  0  0  0  0
  188.1970  176.7360  138.1460 C   0  0  0  0  0  2  0  0  0  0  0  0
  186.7010  178.0650  136.9090 C   0  0  0  0  0  2  0  0  0  0  0  0
  185.7230  177.1600  136.1930 C   0  0  1  0  0  3  0  0  0  0  0  0
  186.6110  173.7460  135.6660 O   0  0  0  0  0  0  0  0  0  0  0  0
  188.0230  177.4490  136.8900 N   0  0  0  0  0  0  0  0  0  0  0  0
  186.5750  176.1540  135.4330 C   0  0  1  0  0  3  0  0  0  0  0  0
  188.0120  176.4500  135.8250 C   0  0  0  0  0  2  0  0  0  0  0  0
  184.8950  176.3650  137.2200 C   0  0  2  0  0  3  0  0  0  0  0  0
  185.1970  175.0010  136.9960 O   0  0  0  0  0  0  0  0  0  0  0  0
  186.1460  174.8630  136.0120 C   0  0  0  0  0  0  0  0  0  0  0  0
  182.8150  177.8780  137.4730 C   0  0  0  0  0  3  0  0  0  0  0  0
  183.4320  176.6100  137.0370 C   0  0  0  0  0  0  0  0  0  0  0  0
  180.5320  174.9540  135.4280 C   0  0  0  0  0  1  0  0  0  0  0  0
  180.5750  176.9890  136.8940 C   0  0  0  0  0  2  0  0  0  0  0  0
  181.2970  175.9300  136.1830 N   0  0  0  0  0  0  0  0  0  0  0  0
  181.4980  178.0720  137.3800 C   0  0  0  0  0  3  0  0  0  0  0  0
  182.6950  175.7020  136.4000 C   0  0  0  0  0  3  0  0  0  0  0  0
  189.5090  176.6730  143.1370 C   0  0  0  0  0  2  0  0  0  0  0  0
  192.1330  175.7890  145.7020 N   0  0  0  0  0  2  0  0  0  0  0  0
  191.1770  176.3880  147.0160 S   0  0  0  0  0  0  0  0  0  0  0  0
  190.4990  175.2470  147.7180 O   0  0  0  0  0  0  0  0  0  0  0  0
  190.4960  178.0270  145.0130 C   0  0  0  0  0  2  0  0  0  0  0  0
  191.2270  175.5860  144.5770 C   0  0  0  0  0  2  0  0  0  0  0  0
  190.7550  176.9200  143.9740 C   0  0  1  0  0  3  0  0  0  0  0  0
  192.0560  177.1280  147.9820 O   0  0  0  0  0  0  0  0  0  0  0  0
  189.9590  177.4930  146.3350 C   0  0  0  0  0  2  0  0  0  0  0  0
  1  6  1  0  0  0  0
  1  8  1  0  0  0  0
  2 12  1  1  0  0  0
  3 14  1  0  0  0  0
  4  8  2  0  0  0  0
  4 15  1  0  0  0  0
  5  1  2  0  0  0  0
  7  4  1  0  0  0  0
  9  5  1  0  0  0  0
  9  7  2  0  0  0  0
 10  3  1  0  0  0  0
 11 10  1  6  0  0  0
 11  7  1  0  0  0  0
 11  2  1  0  0  0  0
 12 15  2  0  0  0  0
 13  2  1  0  0  0  0
 13 35  1  6  0  0  0
 14 13  1  0  0  0  0
 16 17  1  6  0  0  0
 16  3  1  0  0  0  0
 18 16  1  0  0  0  0
 20 19  1  1  0  0  0
 20 25  1  0  0  0  0
 21 27  2  0  0  0  0
 22 19  1  0  0  0  0
 22 18  1  0  0  0  0
 23 24  1  1  0  0  0
 23 27  1  0  0  0  0
 23 20  1  0  0  0  0
 24 22  1  0  0  0  0
 25 29  1  6  0  0  0
 26 25  1  0  0  0  0
 27 26  1  0  0  0  0
 29 28  1  0  0  0  0
 30 32  1  0  0  0  0
 31 33  1  0  0  0  0
 32 34  1  0  0  0  0
 32 31  1  0  0  0  0
 33 28  2  0  0  0  0
 34 29  2  0  0  0  0
 36 37  1  0  0  0  0
 37 38  2  0  0  0  0
 37 42  2  0  0  0  0
 39 43  1  0  0  0  0
 40 36  1  0  0  0  0
 41 35  1  1  0  0  0
 41 40  1  0  0  0  0
 41 39  1  0  0  0  0
 43 37  1  0  0  0  0
M  END
>  <MODEL>
8

>  <REMARK>
 VINA RESULT:      -8.2      2.808      5.346
  Name = 
  6 active torsions:
  status: ('A' for Active; 'I' for Inactive)
    1  A    between atoms: C_1  and  C_34
    2  A    between atoms: C_1  and  C_35
    3  A    between atoms: C_2  and  C_6
    4  A    between atoms: C_2  and  N_13
    5  A    between atoms: C_6  and  N_12
    6  A    between atoms: C_14  and  C_22
                            x       y       z     vdW  Elec       q    Type
                         _______ _______ _______ _____ _____    ______ ____

>  <TORSDO>
F 6

$$$$
=
 OpenBabel10262422123D

 43 49  0  0  1  0  0  0  0  0999 V2000
  185.2110  178.8110  145.4970 C   0  0  0  0  0  0  0  0  0  0  0  0
  183.0150  179.0480  140.9450 C   0  0  2  0  0  3  0  0  0  0  0  0
  184.8460  178.7150  139.0290 N   0  0  0  0  0  0  0  0  0  0  0  0
  183.5710  178.7780  143.7140 C   0  0  0  0  0  0  0  0  0  0  0  0
  186.2120  178.4540  144.5870 C   0  0  0  0  0  3  0  0  0  0  0  0
  185.5360  179.0200  146.8660 N   0  0  0  0  0  1  0  0  0  0  0  0
  184.5810  178.4270  142.7890 C   0  0  0  0  0  0  0  0  0  0  0  0
  183.8900  178.9640  145.0630 C   0  0  0  0  0  3  0  0  0  0  0  0
  185.8950  178.2510  143.2410 C   0  0  0  0  0  3  0  0  0  0  0  0
  185.3260  178.2410  140.3420 C   0  0  0  0  0  2  0  0  0  0  0  0
  184.1790  178.1390  141.3640 C   0  0  2  0  0  3  0  0  0  0  0  0
  181.8970  179.0070  141.9480 C   0  0  0  0  0  3  0  0  0  0  0  0
  182.5500  178.7220  139.5210 C   0  0  2  0  0  3  0  0  0  0  0  0
  183.6220  178.0660  138.7540 N   0  0  0  0  0  2  0  0  0  0  0  0
  182.1750  178.9280  143.2540 C   0  0  0  0  0  3  0  0  0  0  0  0
  185.8110  178.3200  137.9970 C   0  0  2  0  0  3  0  0  0  0  0  0
  185.2650  177.1600  137.1740 C   0  0  0  0  0  1  0  0  0  0  0  0
  187.1160  177.8650  138.6400 C   0  0  0  0  0  2  0  0  0  0  0  0
  188.8710  178.4000  137.1690 C   0  0  0  0  0  2  0  0  0  0  0  0
  190.0970  177.6050  137.5630 C   0  0  1  0  0  3  0  0  0  0  0  0
  190.3010  176.2940  140.8740 O   0  0  0  0  0  0  0  0  0  0  0  0
  188.1730  178.8290  138.3750 N   0  0  0  0  0  0  0  0  0  0  0  0
  190.3040  177.8790  139.0460 C   0  0  1  0  0  3  0  0  0  0  0  0
  189.1270  178.7370  139.4760 C   0  0  0  0  0  2  0  0  0  0  0  0
  189.8140  176.0980  137.4190 C   0  0  2  0  0  3  0  0  0  0  0  0
  189.9370  175.5490  138.7170 O   0  0  0  0  0  0  0  0  0  0  0  0
  190.1950  176.5310  139.6430 C   0  0  0  0  0  0  0  0  0  0  0  0
  190.3890  174.3210  135.6320 C   0  0  0  0  0  3  0  0  0  0  0  0
  190.7910  175.4540  136.4880 C   0  0  0  0  0  0  0  0  0  0  0  0
  194.2650  176.0010  135.3170 C   0  0  0  0  0  1  0  0  0  0  0  0
  192.7330  174.0670  134.8660 C   0  0  0  0  0  2  0  0  0  0  0  0
  192.9590  175.3840  135.4670 N   0  0  0  0  0  0  0  0  0  0  0  0
  191.2750  173.6950  134.8550 C   0  0  0  0  0  3  0  0  0  0  0  0
  192.0160  175.9640  136.3760 C   0  0  0  0  0  3  0  0  0  0  0  0
  182.1150  180.0050  138.8220 C   0  0  0  0  0  2  0  0  0  0  0  0
  178.9790  178.1480  137.8390 N   0  0  0  0  0  2  0  0  0  0  0  0
  179.8000  177.2280  136.6230 S   0  0  0  0  0  0  0  0  0  0  0  0
  180.1190  175.8570  137.1450 O   0  0  0  0  0  0  0  0  0  0  0  0
  181.1080  179.5630  136.5600 C   0  0  0  0  0  2  0  0  0  0  0  0
  180.0050  178.6850  138.7270 C   0  0  0  0  0  2  0  0  0  0  0  0
  180.8170  179.8030  138.0530 C   0  0  1  0  0  3  0  0  0  0  0  0
  178.9310  177.1170  135.4030 O   0  0  0  0  0  0  0  0  0  0  0  0
  181.3040  178.0910  136.2190 C   0  0  0  0  0  2  0  0  0  0  0  0
  1  6  1  0  0  0  0
  2 11  1  0  0  0  0
  2 12  1  1  0  0  0
  3 10  1  0  0  0  0
  4  8  2  0  0  0  0
  5  1  2  0  0  0  0
  7  9  2  0  0  0  0
  7  4  1  0  0  0  0
  8  1  1  0  0  0  0
  9  5  1  0  0  0  0
 11 10  1  6  0  0  0
 11  7  1  0  0  0  0
 12 15  2  0  0  0  0
 13 35  1  6  0  0  0
 13  2  1  0  0  0  0
 14  3  1  0  0  0  0
 14 13  1  0  0  0  0
 15  4  1  0  0  0  0
 16 17  1  1  0  0  0
 16 18  1  0  0  0  0
 16  3  1  0  0  0  0
 19 22  1  0  0  0  0
 20 19  1  1  0  0  0
 20 23  1  0  0  0  0
 22 18  1  0  0  0  0
 22 24  1  0  0  0  0
 23 24  1  1  0  0  0
 23 27  1  0  0  0  0
 25 29  1  6  0  0  0
 25 20  1  0  0  0  0
 25 26  1  0  0  0  0
 26 27  1  0  0  0  0
 27 21  2  0  0  0  0
 28 29  1  0  0  0  0
 30 32  1  0  0  0  0
 31 32  1  0  0  0  0
 32 34  1  0  0  0  0
 33 31  1  0  0  0  0
 33 28  2  0  0  0  0
 34 29  2  0  0  0  0
 36 40  1  0  0  0  0
 37 38  2  0  0  0  0
 37 36  1  0  0  0  0
 39 41  1  0  0  0  0
 41 40  1  0  0  0  0
 41 35  1  1  0  0  0
 42 37  2  0  0  0  0
 43 39  1  0  0  0  0
 43 37  1  0  0  0  0
M  END
>  <MODEL>
9

>  <REMARK>
 VINA RESULT:      -8.1      3.771      6.103
  Name = 
  6 active torsions:
  status: ('A' for Active; 'I' for Inactive)
    1  A    between atoms: C_1  and  C_34
    2  A    between atoms: C_1  and  C_35
    3  A    between atoms: C_2  and  C_6
    4  A    between atoms: C_2  and  N_13
    5  A    between atoms: C_6  and  N_12
    6  A    between atoms: C_14  and  C_22
                            x       y       z     vdW  Elec       q    Type
                         _______ _______ _______ _____ _____    ______ ____

>  <TORSDO>
F 6

$$$$
