=
 OpenBabel10262420553D

 28 31  0  0  1  0  0  0  0  0999 V2000
  185.5000  178.1280  142.7200 C   0  0  1  0  0  3  0  0  0  0  0  0
  181.6130  179.7360  138.2030 C   0  0  0  0  0  2  0  0  0  0  0  0
  180.8490  179.4450  143.4350 O   0  0  0  0  0  0  0  0  0  0  0  0
  181.3900  177.2680  138.8030 C   0  0  2  0  0  3  0  0  0  0  0  0
  182.6210  178.8760  140.3170 C   0  0  2  0  0  3  0  0  0  0  0  0
  180.3920  178.2060  136.7100 C   0  0  0  0  0  0  0  0  0  0  0  0
  182.2870  178.5260  138.8640 C   0  0  2  0  0  3  0  0  0  0  0  0
  180.7790  177.4930  141.1080 O   0  0  0  0  0  0  0  0  0  0  0  0
  180.8750  176.9640  137.3920 C   0  0  0  0  0  2  0  0  0  0  0  0
  183.1130  178.7750  143.1310 C   0  0  0  0  0  0  0  0  0  0  0  0
  183.7310  177.9770  140.8550 C   0  0  0  0  0  2  0  0  0  0  0  0
  180.2460  177.3880  139.8110 C   0  0  0  0  0  2  0  0  0  0  0  0
  184.8660  179.2120  144.8900 C   0  0  0  0  0  2  0  0  0  0  0  0
  181.7350  179.0300  142.6430 C   0  0  0  0  0  0  0  0  0  0  0  0
  183.3930  178.9610  144.6020 C   0  0  0  0  0  2  0  0  0  0  0  0
  179.3520  178.1950  136.0730 O   0  0  0  0  0  0  0  0  0  0  0  0
  181.2370  179.4370  136.7570 C   0  0  0  0  0  2  0  0  0  0  0  0
  181.3670  178.7690  141.2130 C   0  0  1  0  0  3  0  0  0  0  0  0
  185.7000  178.1200  144.2390 C   0  0  0  0  0  2  0  0  0  0  0  0
  184.0670  178.3240  142.2820 C   0  0  0  0  0  0  0  0  0  0  0  0
  186.4900  179.0430  141.9850 C   0  0  0  0  0  2  0  0  0  0  0  0
  187.5690  178.3060  141.3310 N   0  0  0  0  0  0  0  0  0  0  0  0
  186.7140  178.6560  139.1830 O   0  0  0  0  0  0  0  0  0  0  0  0
  187.6370  178.1870  139.9020 C   0  0  0  0  0  0  0  0  0  0  0  0
  188.7210  177.5350  139.3100 O   0  0  0  0  0  0  0  0  0  0  0  0
  189.4090  178.0810  138.1950 C   0  0  0  0  0  1  0  0  0  0  0  0
  188.4150  177.4660  142.1680 C   0  0  0  0  0  2  0  0  0  0  0  0
  189.3940  178.2420  142.7890 O   0  0  0  0  0  1  0  0  0  0  0  0
  1 21  1  6  0  0  0
  1 19  1  0  0  0  0
  4  9  1  6  0  0  0
  4  7  1  0  0  0  0
  4 12  1  0  0  0  0
  5 11  1  1  0  0  0
  5 18  1  0  0  0  0
  6 17  1  0  0  0  0
  6  9  1  0  0  0  0
  7  2  1  1  0  0  0
  7  5  1  0  0  0  0
 10 15  1  0  0  0  0
 11 20  1  0  0  0  0
 12  8  1  0  0  0  0
 14 10  1  0  0  0  0
 14  3  2  0  0  0  0
 15 13  1  0  0  0  0
 16  6  2  0  0  0  0
 17  2  1  0  0  0  0
 18  8  1  1  0  0  0
 18 14  1  0  0  0  0
 19 13  1  0  0  0  0
 20  1  1  0  0  0  0
 20 10  2  0  0  0  0
 22 21  1  0  0  0  0
 22 27  1  0  0  0  0
 23 24  2  0  0  0  0
 24 22  1  0  0  0  0
 25 24  1  0  0  0  0
 26 25  1  0  0  0  0
 27 28  1  0  0  0  0
M  END
>  <MODEL>
1

>  <REMARK>
 VINA RESULT:      -7.4      0.000      0.000
  Name = 
  4 active torsions:
  status: ('A' for Active; 'I' for Inactive)
    1  A    between atoms: C_1  and  C_2
    2  A    between atoms: C_2  and  N_3
    3  A    between atoms: N_3  and  C_7
    4  A    between atoms: O_6  and  C_11
                            x       y       z     vdW  Elec       q    Type
                         _______ _______ _______ _____ _____    ______ ____

>  <TORSDO>
F 4

$$$$
=
 OpenBabel10262420553D

 28 31  0  0  1  0  0  0  0  0999 V2000
  185.7160  178.0390  142.5890 C   0  0  1  0  0  3  0  0  0  0  0  0
  181.7550  179.7450  138.1740 C   0  0  0  0  0  2  0  0  0  0  0  0
  181.1150  179.4610  143.4220 O   0  0  0  0  0  0  0  0  0  0  0  0
  181.4910  177.2820  138.7750 C   0  0  2  0  0  3  0  0  0  0  0  0
  182.7950  178.8580  140.2600 C   0  0  2  0  0  3  0  0  0  0  0  0
  180.4620  178.2460  136.7090 C   0  0  0  0  0  0  0  0  0  0  0  0
  182.4170  178.5190  138.8160 C   0  0  2  0  0  3  0  0  0  0  0  0
  180.9420  177.5160  141.0950 O   0  0  0  0  0  0  0  0  0  0  0  0
  180.9330  176.9930  137.3780 C   0  0  0  0  0  2  0  0  0  0  0  0
  183.3550  178.7410  143.0610 C   0  0  0  0  0  0  0  0  0  0  0  0
  183.8980  177.9330  140.7680 C   0  0  0  0  0  2  0  0  0  0  0  0
  180.3750  177.4260  139.8120 C   0  0  0  0  0  2  0  0  0  0  0  0
  185.1620  179.1340  144.7760 C   0  0  0  0  0  2  0  0  0  0  0  0
  181.9720  179.0280  142.6080 C   0  0  0  0  0  0  0  0  0  0  0  0
  183.6760  178.9160  144.5250 C   0  0  0  0  0  2  0  0  0  0  0  0
  179.4070  178.2610  136.0980 O   0  0  0  0  0  0  0  0  0  0  0  0
  181.3360  179.4580  136.7370 C   0  0  0  0  0  2  0  0  0  0  0  0
  181.5620  178.7780  141.1870 C   0  0  1  0  0  3  0  0  0  0  0  0
  185.9540  178.0240  144.1030 C   0  0  0  0  0  2  0  0  0  0  0  0
  184.2780  178.2690  142.1870 C   0  0  0  0  0  0  0  0  0  0  0  0
  186.7080  178.9330  141.8310 C   0  0  0  0  0  2  0  0  0  0  0  0
  187.7370  178.1710  141.1260 N   0  0  0  0  0  0  0  0  0  0  0  0
  189.1600  178.0840  142.9800 O   0  0  0  0  0  0  0  0  0  0  0  0
  188.9360  177.7400  141.7880 C   0  0  0  0  0  0  0  0  0  0  0  0
  189.8640  176.9540  141.1000 O   0  0  0  0  0  0  0  0  0  0  0  0
  191.2400  177.2930  141.0440 C   0  0  0  0  0  1  0  0  0  0  0  0
  187.6440  178.0980  139.6740 C   0  0  0  0  0  2  0  0  0  0  0  0
  188.5470  178.9880  139.0920 O   0  0  0  0  0  1  0  0  0  0  0  0
  1 21  1  6  0  0  0
  1 19  1  0  0  0  0
  4  9  1  6  0  0  0
  4  7  1  0  0  0  0
  4 12  1  0  0  0  0
  5 11  1  1  0  0  0
  5 18  1  0  0  0  0
  6 17  1  0  0  0  0
  6  9  1  0  0  0  0
  7  2  1  1  0  0  0
  7  5  1  0  0  0  0
 10 15  1  0  0  0  0
 11 20  1  0  0  0  0
 12  8  1  0  0  0  0
 14 10  1  0  0  0  0
 14  3  2  0  0  0  0
 15 13  1  0  0  0  0
 16  6  2  0  0  0  0
 17  2  1  0  0  0  0
 18  8  1  1  0  0  0
 18 14  1  0  0  0  0
 19 13  1  0  0  0  0
 20  1  1  0  0  0  0
 20 10  2  0  0  0  0
 22 24  1  0  0  0  0
 22 21  1  0  0  0  0
 24 23  2  0  0  0  0
 25 24  1  0  0  0  0
 26 25  1  0  0  0  0
 27 22  1  0  0  0  0
 28 27  1  0  0  0  0
M  END
>  <MODEL>
2

>  <REMARK>
 VINA RESULT:      -7.3      0.799      1.539
  Name = 
  4 active torsions:
  status: ('A' for Active; 'I' for Inactive)
    1  A    between atoms: C_1  and  C_2
    2  A    between atoms: C_2  and  N_3
    3  A    between atoms: N_3  and  C_7
    4  A    between atoms: O_6  and  C_11
                            x       y       z     vdW  Elec       q    Type
                         _______ _______ _______ _____ _____    ______ ____

>  <TORSDO>
F 4

$$$$
=
 OpenBabel10262420553D

 28 31  0  0  1  0  0  0  0  0999 V2000
  183.9080  179.0060  142.3290 C   0  0  1  0  0  3  0  0  0  0  0  0
  188.9300  175.5720  143.3710 C   0  0  0  0  0  2  0  0  0  0  0  0
  185.4700  177.6940  146.7710 O   0  0  0  0  0  0  0  0  0  0  0  0
  189.4450  178.0640  143.5230 C   0  0  2  0  0  3  0  0  0  0  0  0
  187.0630  177.2170  143.5430 C   0  0  2  0  0  3  0  0  0  0  0  0
  191.2640  176.3540  143.3650 C   0  0  0  0  0  0  0  0  0  0  0  0
  188.4730  176.9870  142.9910 C   0  0  2  0  0  3  0  0  0  0  0  0
  187.9510  178.6510  145.3000 O   0  0  0  0  0  0  0  0  0  0  0  0
  190.9070  177.7920  143.1520 C   0  0  0  0  0  2  0  0  0  0  0  0
  184.6860  178.3760  144.6290 C   0  0  0  0  0  0  0  0  0  0  0  0
  186.3530  178.3320  142.7780 C   0  0  0  0  0  2  0  0  0  0  0  0
  189.2660  178.2350  145.0330 C   0  0  0  0  0  2  0  0  0  0  0  0
  182.2330  178.7450  144.1760 C   0  0  0  0  0  2  0  0  0  0  0  0
  185.7280  177.8570  145.5490 C   0  0  0  0  0  0  0  0  0  0  0  0
  183.3490  178.7620  145.2110 C   0  0  0  0  0  2  0  0  0  0  0  0
  192.3250  176.0530  143.8870 O   0  0  0  0  0  0  0  0  0  0  0  0
  190.3400  175.2930  142.8650 C   0  0  0  0  0  2  0  0  0  0  0  0
  187.1080  177.5500  145.0510 C   0  0  1  0  0  3  0  0  0  0  0  0
  182.6450  179.5830  142.9770 C   0  0  0  0  0  2  0  0  0  0  0  0
  184.9620  178.5560  143.3140 C   0  0  0  0  0  0  0  0  0  0  0  0
  183.6080  177.9630  141.2430 C   0  0  0  0  0  2  0  0  0  0  0  0
  183.1400  178.5600  139.9950 N   0  0  0  0  0  0  0  0  0  0  0  0
  180.9200  177.9070  140.3360 O   0  0  0  0  0  0  0  0  0  0  0  0
  181.7530  178.5280  139.6220 C   0  0  0  0  0  0  0  0  0  0  0  0
  181.3330  179.1710  138.4550 O   0  0  0  0  0  0  0  0  0  0  0  0
  180.7990  180.4860  138.4730 C   0  0  0  0  0  1  0  0  0  0  0  0
  184.1440  178.9440  139.0130 C   0  0  0  0  0  2  0  0  0  0  0  0
  184.4510  180.2980  139.1470 O   0  0  0  0  0  1  0  0  0  0  0  0
  1 21  1  1  0  0  0
  1 19  1  0  0  0  0
  1 20  1  0  0  0  0
  4  9  1  1  0  0  0
  4 12  1  0  0  0  0
  5 11  1  6  0  0  0
  5 18  1  0  0  0  0
  6 16  2  0  0  0  0
  7  2  1  1  0  0  0
  7  4  1  0  0  0  0
  7  5  1  0  0  0  0
  9  6  1  0  0  0  0
 10 15  1  0  0  0  0
 10 14  1  0  0  0  0
 11 20  1  0  0  0  0
 12  8  1  0  0  0  0
 13 15  1  0  0  0  0
 14  3  2  0  0  0  0
 17  6  1  0  0  0  0
 17  2  1  0  0  0  0
 18  8  1  6  0  0  0
 18 14  1  0  0  0  0
 19 13  1  0  0  0  0
 20 10  2  0  0  0  0
 22 21  1  0  0  0  0
 24 22  1  0  0  0  0
 24 23  2  0  0  0  0
 25 26  1  0  0  0  0
 25 24  1  0  0  0  0
 27 28  1  0  0  0  0
 27 22  1  0  0  0  0
M  END
>  <MODEL>
3

>  <REMARK>
 VINA RESULT:      -6.9      2.415      7.540
  Name = 
  4 active torsions:
  status: ('A' for Active; 'I' for Inactive)
    1  A    between atoms: C_1  and  C_2
    2  A    between atoms: C_2  and  N_3
    3  A    between atoms: N_3  and  C_7
    4  A    between atoms: O_6  and  C_11
                            x       y       z     vdW  Elec       q    Type
                         _______ _______ _______ _____ _____    ______ ____

>  <TORSDO>
F 4

$$$$
=
 OpenBabel10262420553D

 28 31  0  0  1  0  0  0  0  0999 V2000
  189.2970  177.9880  143.1600 C   0  0  1  0  0  3  0  0  0  0  0  0
  187.4330  175.9230  137.6500 C   0  0  0  0  0  2  0  0  0  0  0  0
  192.3080  176.9170  139.4620 O   0  0  0  0  0  0  0  0  0  0  0  0
  187.7420  178.4540  137.6520 C   0  0  2  0  0  3  0  0  0  0  0  0
  188.6780  177.0200  139.5120 C   0  0  2  0  0  3  0  0  0  0  0  0
  186.5190  177.2820  135.8110 C   0  0  0  0  0  0  0  0  0  0  0  0
  187.5290  177.1880  138.5130 C   0  0  2  0  0  3  0  0  0  0  0  0
  190.0660  178.5510  138.2210 O   0  0  0  0  0  0  0  0  0  0  0  0
  186.7220  178.5860  136.5160 C   0  0  0  0  0  2  0  0  0  0  0  0
  190.8780  177.4730  141.2820 C   0  0  0  0  0  0  0  0  0  0  0  0
  188.5000  177.9480  140.7120 C   0  0  0  0  0  2  0  0  0  0  0  0
  189.1790  178.5020  137.1320 C   0  0  0  0  0  2  0  0  0  0  0  0
  191.6260  177.2160  143.6760 C   0  0  0  0  0  2  0  0  0  0  0  0
  191.1430  177.1980  139.8480 C   0  0  0  0  0  0  0  0  0  0  0  0
  192.0460  177.4730  142.2360 C   0  0  0  0  0  2  0  0  0  0  0  0
  186.4600  177.2400  134.5940 O   0  0  0  0  0  0  0  0  0  0  0  0
  186.3170  176.0420  136.6200 C   0  0  0  0  0  2  0  0  0  0  0  0
  190.0420  177.2820  138.8340 C   0  0  1  0  0  3  0  0  0  0  0  0
  190.5220  178.1880  144.0590 C   0  0  0  0  0  2  0  0  0  0  0  0
  189.6250  177.7800  141.6990 C   0  0  0  0  0  0  0  0  0  0  0  0
  188.3040  176.9550  143.7120 C   0  0  0  0  0  2  0  0  0  0  0  0
  187.3230  177.5400  144.6230 N   0  0  0  0  0  0  0  0  0  0  0  0
  185.7630  177.9460  142.9280 O   0  0  0  0  0  0  0  0  0  0  0  0
  186.0380  177.9820  144.1580 C   0  0  0  0  0  0  0  0  0  0  0  0
  185.1000  178.4700  145.0700 O   0  0  0  0  0  0  0  0  0  0  0  0
  183.8660  179.0330  144.6500 C   0  0  0  0  0  1  0  0  0  0  0  0
  187.7780  177.9140  145.9540 C   0  0  0  0  0  2  0  0  0  0  0  0
  188.4550  176.8470  146.5460 O   0  0  0  0  0  1  0  0  0  0  0  0
  1 21  1  1  0  0  0
  1 19  1  0  0  0  0
  3 14  2  0  0  0  0
  4  9  1  6  0  0  0
  4  7  1  0  0  0  0
  5 11  1  1  0  0  0
  6  9  1  0  0  0  0
  6 17  1  0  0  0  0
  7  2  1  6  0  0  0
  7  5  1  0  0  0  0
 10 20  2  0  0  0  0
 10 15  1  0  0  0  0
 11 20  1  0  0  0  0
 12  4  1  0  0  0  0
 12  8  1  0  0  0  0
 13 19  1  0  0  0  0
 14 10  1  0  0  0  0
 15 13  1  0  0  0  0
 16  6  2  0  0  0  0
 17  2  1  0  0  0  0
 18  8  1  1  0  0  0
 18  5  1  0  0  0  0
 18 14  1  0  0  0  0
 20  1  1  0  0  0  0
 21 22  1  0  0  0  0
 22 27  1  0  0  0  0
 23 24  2  0  0  0  0
 24 22  1  0  0  0  0
 24 25  1  0  0  0  0
 26 25  1  0  0  0  0
 27 28  1  0  0  0  0
M  END
>  <MODEL>
4

>  <REMARK>
 VINA RESULT:      -6.9      4.041      6.949
  Name = 
  4 active torsions:
  status: ('A' for Active; 'I' for Inactive)
    1  A    between atoms: C_1  and  C_2
    2  A    between atoms: C_2  and  N_3
    3  A    between atoms: N_3  and  C_7
    4  A    between atoms: O_6  and  C_11
                            x       y       z     vdW  Elec       q    Type
                         _______ _______ _______ _____ _____    ______ ____

>  <TORSDO>
F 4

$$$$
=
 OpenBabel10262420553D

 28 31  0  0  1  0  0  0  0  0999 V2000
  189.2760  178.1470  143.1740 C   0  0  1  0  0  3  0  0  0  0  0  0
  187.4100  175.9870  137.7020 C   0  0  0  0  0  2  0  0  0  0  0  0
  192.2940  176.8550  139.5530 O   0  0  0  0  0  0  0  0  0  0  0  0
  187.8120  178.5030  137.6330 C   0  0  2  0  0  3  0  0  0  0  0  0
  188.6700  177.0930  139.5480 C   0  0  2  0  0  3  0  0  0  0  0  0
  186.5720  177.3220  135.8100 C   0  0  0  0  0  0  0  0  0  0  0  0
  187.5420  177.2730  138.5280 C   0  0  2  0  0  3  0  0  0  0  0  0
  190.1310  178.5320  138.2330 O   0  0  0  0  0  0  0  0  0  0  0  0
  186.8140  178.6390  136.4790 C   0  0  0  0  0  2  0  0  0  0  0  0
  190.8610  177.5180  141.3350 C   0  0  0  0  0  0  0  0  0  0  0  0
  188.5110  178.0630  140.7170 C   0  0  0  0  0  2  0  0  0  0  0  0
  189.2580  178.4820  137.1320 C   0  0  0  0  0  2  0  0  0  0  0  0
  191.5680  177.3060  143.7460 C   0  0  0  0  0  2  0  0  0  0  0  0
  191.1350  177.1900  139.9140 C   0  0  0  0  0  0  0  0  0  0  0  0
  192.0160  177.5030  142.3050 C   0  0  0  0  0  2  0  0  0  0  0  0
  186.5270  177.2460  134.5940 O   0  0  0  0  0  0  0  0  0  0  0  0
  186.3130  176.1150  136.6520 C   0  0  0  0  0  2  0  0  0  0  0  0
  190.0510  177.2840  138.8820 C   0  0  1  0  0  3  0  0  0  0  0  0
  190.4950  178.3290  144.0850 C   0  0  0  0  0  2  0  0  0  0  0  0
  189.6150  177.8830  141.7250 C   0  0  0  0  0  0  0  0  0  0  0  0
  188.2390  177.1680  143.7420 C   0  0  0  0  0  2  0  0  0  0  0  0
  187.5370  177.6970  144.9100 N   0  0  0  0  0  0  0  0  0  0  0  0
  189.0240  176.7300  146.4340 O   0  0  0  0  0  0  0  0  0  0  0  0
  188.0190  177.4670  146.2430 C   0  0  0  0  0  0  0  0  0  0  0  0
  187.3620  178.0480  147.3290 O   0  0  0  0  0  0  0  0  0  0  0  0
  188.0050  178.2450  148.5780 C   0  0  0  0  0  1  0  0  0  0  0  0
  186.1950  178.2260  144.7070 C   0  0  0  0  0  2  0  0  0  0  0  0
  185.7440  177.9070  143.4270 O   0  0  0  0  0  1  0  0  0  0  0  0
  1 21  1  1  0  0  0
  1 19  1  0  0  0  0
  3 14  2  0  0  0  0
  4  9  1  6  0  0  0
  4  7  1  0  0  0  0
  5 11  1  1  0  0  0
  6  9  1  0  0  0  0
  6 17  1  0  0  0  0
  7  2  1  6  0  0  0
  7  5  1  0  0  0  0
 10 20  2  0  0  0  0
 10 15  1  0  0  0  0
 11 20  1  0  0  0  0
 12  4  1  0  0  0  0
 12  8  1  0  0  0  0
 13 19  1  0  0  0  0
 14 10  1  0  0  0  0
 15 13  1  0  0  0  0
 16  6  2  0  0  0  0
 17  2  1  0  0  0  0
 18  8  1  1  0  0  0
 18  5  1  0  0  0  0
 18 14  1  0  0  0  0
 20  1  1  0  0  0  0
 21 22  1  0  0  0  0
 22 24  1  0  0  0  0
 24 23  2  0  0  0  0
 24 25  1  0  0  0  0
 25 26  1  0  0  0  0
 27 22  1  0  0  0  0
 28 27  1  0  0  0  0
M  END
>  <MODEL>
5

>  <REMARK>
 VINA RESULT:      -6.8      4.448      7.243
  Name = 
  4 active torsions:
  status: ('A' for Active; 'I' for Inactive)
    1  A    between atoms: C_1  and  C_2
    2  A    between atoms: C_2  and  N_3
    3  A    between atoms: N_3  and  C_7
    4  A    between atoms: O_6  and  C_11
                            x       y       z     vdW  Elec       q    Type
                         _______ _______ _______ _____ _____    ______ ____

>  <TORSDO>
F 4

$$$$
=
 OpenBabel10262420553D

 28 31  0  0  1  0  0  0  0  0999 V2000
  187.9110  178.0610  144.8630 C   0  0  1  0  0  3  0  0  0  0  0  0
  188.6670  176.0030  139.0930 C   0  0  0  0  0  2  0  0  0  0  0  0
  191.9520  175.8410  143.2430 O   0  0  0  0  0  0  0  0  0  0  0  0
  189.6300  178.3440  139.3920 C   0  0  2  0  0  3  0  0  0  0  0  0
  189.0220  176.9160  141.3870 C   0  0  2  0  0  3  0  0  0  0  0  0
  189.2620  177.3550  137.1240 C   0  0  0  0  0  0  0  0  0  0  0  0
  188.6560  177.2790  139.9450 C   0  0  2  0  0  3  0  0  0  0  0  0
  191.2420  177.8750  141.1000 O   0  0  0  0  0  0  0  0  0  0  0  0
  189.4300  178.6240  137.8990 C   0  0  0  0  0  2  0  0  0  0  0  0
  190.0130  176.9470  144.0690 C   0  0  0  0  0  0  0  0  0  0  0  0
  188.5200  177.9780  142.3620 C   0  0  0  0  0  2  0  0  0  0  0  0
  191.0750  177.9500  139.7060 C   0  0  0  0  0  2  0  0  0  0  0  0
  189.3090  176.7530  146.4820 C   0  0  0  0  0  2  0  0  0  0  0  0
  190.8900  176.4620  142.9750 C   0  0  0  0  0  0  0  0  0  0  0  0
  190.4650  176.7340  145.4920 C   0  0  0  0  0  2  0  0  0  0  0  0
  189.8320  177.2030  136.0560 O   0  0  0  0  0  0  0  0  0  0  0  0
  188.3300  176.3070  137.6390 C   0  0  0  0  0  2  0  0  0  0  0  0
  190.5480  176.7300  141.5400 C   0  0  1  0  0  3  0  0  0  0  0  0
  188.4920  178.0190  146.2800 C   0  0  0  0  0  2  0  0  0  0  0  0
  188.8710  177.6200  143.7830 C   0  0  0  0  0  0  0  0  0  0  0  0
  186.5320  177.3950  144.7570 C   0  0  0  0  0  2  0  0  0  0  0  0
  185.4360  178.3610  144.7000 N   0  0  0  0  0  0  0  0  0  0  0  0
  185.0040  177.9690  142.4340 O   0  0  0  0  0  0  0  0  0  0  0  0
  184.6810  178.5680  143.4960 C   0  0  0  0  0  0  0  0  0  0  0  0
  183.5960  179.4480  143.5000 O   0  0  0  0  0  0  0  0  0  0  0  0
  182.2690  179.0030  143.7320 C   0  0  0  0  0  1  0  0  0  0  0  0
  185.3090  179.3010  145.8040 C   0  0  0  0  0  2  0  0  0  0  0  0
  184.9270  178.6280  146.9640 O   0  0  0  0  0  1  0  0  0  0  0  0
  1 21  1  1  0  0  0
  1 19  1  0  0  0  0
  4  9  1  6  0  0  0
  4 12  1  0  0  0  0
  4  7  1  0  0  0  0
  5 18  1  0  0  0  0
  5 11  1  1  0  0  0
  6 17  1  0  0  0  0
  6  9  1  0  0  0  0
  7  2  1  6  0  0  0
  7  5  1  0  0  0  0
 10 15  1  0  0  0  0
 11 20  1  0  0  0  0
 12  8  1  0  0  0  0
 14  3  2  0  0  0  0
 14 10  1  0  0  0  0
 15 13  1  0  0  0  0
 16  6  2  0  0  0  0
 17  2  1  0  0  0  0
 18  8  1  1  0  0  0
 18 14  1  0  0  0  0
 19 13  1  0  0  0  0
 20 10  2  0  0  0  0
 20  1  1  0  0  0  0
 22 21  1  0  0  0  0
 22 27  1  0  0  0  0
 23 24  2  0  0  0  0
 24 25  1  0  0  0  0
 24 22  1  0  0  0  0
 25 26  1  0  0  0  0
 27 28  1  0  0  0  0
M  END
>  <MODEL>
6

>  <REMARK>
 VINA RESULT:      -6.8      3.984      7.460
  Name = 
  4 active torsions:
  status: ('A' for Active; 'I' for Inactive)
    1  A    between atoms: C_1  and  C_2
    2  A    between atoms: C_2  and  N_3
    3  A    between atoms: N_3  and  C_7
    4  A    between atoms: O_6  and  C_11
                            x       y       z     vdW  Elec       q    Type
                         _______ _______ _______ _____ _____    ______ ____

>  <TORSDO>
F 4

$$$$
=
 OpenBabel10262420553D

 28 31  0  0  1  0  0  0  0  0999 V2000
  187.5900  178.3370  142.8200 C   0  0  1  0  0  3  0  0  0  0  0  0
  182.1220  177.1380  140.2180 C   0  0  0  0  0  2  0  0  0  0  0  0
  186.8280  178.1200  137.9970 O   0  0  0  0  0  0  0  0  0  0  0  0
  182.5450  179.6450  140.4090 C   0  0  2  0  0  3  0  0  0  0  0  0
  184.4200  177.9760  140.7110 C   0  0  2  0  0  3  0  0  0  0  0  0
  180.2720  178.7320  139.9010 C   0  0  0  0  0  0  0  0  0  0  0  0
  182.9260  178.2380  140.9240 C   0  0  2  0  0  3  0  0  0  0  0  0
  184.5410  179.7930  139.0940 O   0  0  0  0  0  0  0  0  0  0  0  0
  181.0350  179.9050  140.4310 C   0  0  0  0  0  2  0  0  0  0  0  0
  187.2400  178.2580  140.3380 C   0  0  0  0  0  0  0  0  0  0  0  0
  185.2550  178.6680  141.7850 C   0  0  0  0  0  2  0  0  0  0  0  0
  183.1400  179.8760  139.0190 C   0  0  0  0  0  2  0  0  0  0  0  0
  189.4770  177.6400  141.3230 C   0  0  0  0  0  2  0  0  0  0  0  0
  186.3460  178.2530  139.1530 C   0  0  0  0  0  0  0  0  0  0  0  0
  188.7280  178.1690  140.1080 C   0  0  0  0  0  2  0  0  0  0  0  0
  179.3380  178.8980  139.1350 O   0  0  0  0  0  0  0  0  0  0  0  0
  180.6230  177.3600  140.3780 C   0  0  0  0  0  2  0  0  0  0  0  0
  184.8660  178.4390  139.3070 C   0  0  1  0  0  3  0  0  0  0  0  0
  189.0930  178.4570  142.5460 C   0  0  0  0  0  2  0  0  0  0  0  0
  186.7250  178.4060  141.5830 C   0  0  0  0  0  0  0  0  0  0  0  0
  187.2360  177.1610  143.7420 C   0  0  0  0  0  2  0  0  0  0  0  0
  187.0350  177.5680  145.1310 N   0  0  0  0  0  0  0  0  0  0  0  0
  189.1540  176.8440  145.8100 O   0  0  0  0  0  0  0  0  0  0  0  0
  188.0700  177.4130  146.1150 C   0  0  0  0  0  0  0  0  0  0  0  0
  187.8670  177.8790  147.4160 O   0  0  0  0  0  0  0  0  0  0  0  0
  188.9480  178.2330  148.2640 C   0  0  0  0  0  1  0  0  0  0  0  0
  185.6770  177.8780  145.5530 C   0  0  0  0  0  2  0  0  0  0  0  0
  185.4720  179.2580  145.5330 O   0  0  0  0  0  1  0  0  0  0  0  0
  1 21  1  6  0  0  0
  2 17  1  0  0  0  0
  3 14  2  0  0  0  0
  4 12  1  6  0  0  0
  4  9  1  0  0  0  0
  4  7  1  0  0  0  0
  5  7  1  0  0  0  0
  5 11  1  1  0  0  0
  6 17  1  0  0  0  0
  6  9  1  0  0  0  0
  7  2  1  6  0  0  0
 10 20  2  0  0  0  0
 12  8  1  0  0  0  0
 13 19  1  0  0  0  0
 14 18  1  0  0  0  0
 14 10  1  0  0  0  0
 15 10  1  0  0  0  0
 15 13  1  0  0  0  0
 16  6  2  0  0  0  0
 18  8  1  1  0  0  0
 18  5  1  0  0  0  0
 19  1  1  0  0  0  0
 20 11  1  0  0  0  0
 20  1  1  0  0  0  0
 21 22  1  0  0  0  0
 22 27  1  0  0  0  0
 22 24  1  0  0  0  0
 23 24  2  0  0  0  0
 24 25  1  0  0  0  0
 25 26  1  0  0  0  0
 28 27  1  0  0  0  0
M  END
>  <MODEL>
7

>  <REMARK>
 VINA RESULT:      -6.7      2.373      5.031
  Name = 
  4 active torsions:
  status: ('A' for Active; 'I' for Inactive)
    1  A    between atoms: C_1  and  C_2
    2  A    between atoms: C_2  and  N_3
    3  A    between atoms: N_3  and  C_7
    4  A    between atoms: O_6  and  C_11
                            x       y       z     vdW  Elec       q    Type
                         _______ _______ _______ _____ _____    ______ ____

>  <TORSDO>
F 4

$$$$
=
 OpenBabel10262420553D

 28 31  0  0  1  0  0  0  0  0999 V2000
  187.9240  177.3470  143.7240 C   0  0  1  0  0  3  0  0  0  0  0  0
  188.8630  179.1280  137.8890 C   0  0  0  0  0  2  0  0  0  0  0  0
  184.5440  179.5030  140.9290 O   0  0  0  0  0  0  0  0  0  0  0  0
  187.8140  176.8080  138.0080 C   0  0  2  0  0  3  0  0  0  0  0  0
  187.8600  178.3280  140.0280 C   0  0  2  0  0  3  0  0  0  0  0  0
  188.8240  177.6850  135.8940 C   0  0  0  0  0  0  0  0  0  0  0  0
  188.6100  177.8940  138.7650 C   0  0  2  0  0  3  0  0  0  0  0  0
  185.7940  177.3650  139.1680 O   0  0  0  0  0  0  0  0  0  0  0  0
  188.4220  176.4550  136.6460 C   0  0  0  0  0  2  0  0  0  0  0  0
  186.1520  178.4300  142.3180 C   0  0  0  0  0  0  0  0  0  0  0  0
  188.0470  177.3110  141.1520 C   0  0  0  0  0  2  0  0  0  0  0  0
  186.3460  177.2220  137.8830 C   0  0  0  0  0  2  0  0  0  0  0  0
  186.1490  178.7370  144.8210 C   0  0  0  0  0  2  0  0  0  0  0  0
  185.6270  178.8650  141.0000 C   0  0  0  0  0  0  0  0  0  0  0  0
  185.3200  178.7130  143.5450 C   0  0  0  0  0  2  0  0  0  0  0  0
  188.5820  177.7880  134.7030 O   0  0  0  0  0  0  0  0  0  0  0  0
  189.5910  178.7530  136.6040 C   0  0  0  0  0  2  0  0  0  0  0  0
  186.3560  178.5270  139.7340 C   0  0  1  0  0  3  0  0  0  0  0  0
  186.9670  177.4590  144.9150 C   0  0  0  0  0  2  0  0  0  0  0  0
  187.3150  177.7390  142.3970 C   0  0  0  0  0  0  0  0  0  0  0  0
  189.2890  178.0010  143.9810 C   0  0  0  0  0  2  0  0  0  0  0  0
  190.3330  177.0310  144.3070 N   0  0  0  0  0  0  0  0  0  0  0  0
  190.4190  177.6510  146.5610 O   0  0  0  0  0  0  0  0  0  0  0  0
  190.8270  176.8830  145.6480 C   0  0  0  0  0  0  0  0  0  0  0  0
  191.7730  175.8970  145.9340 O   0  0  0  0  0  0  0  0  0  0  0  0
  192.2490  175.6720  147.2520 C   0  0  0  0  0  1  0  0  0  0  0  0
  191.0500  176.4150  143.2000 C   0  0  0  0  0  2  0  0  0  0  0  0
  190.4140  175.2350  142.8150 O   0  0  0  0  0  1  0  0  0  0  0  0
  1 21  1  1  0  0  0
  1 19  1  0  0  0  0
  3 14  2  0  0  0  0
  4  9  1  6  0  0  0
  4  7  1  0  0  0  0
  5 11  1  1  0  0  0
  6 17  1  0  0  0  0
  6  9  1  0  0  0  0
  7  2  1  6  0  0  0
  7  5  1  0  0  0  0
 10 20  2  0  0  0  0
 10 15  1  0  0  0  0
 11 20  1  0  0  0  0
 12  4  1  0  0  0  0
 12  8  1  0  0  0  0
 13 19  1  0  0  0  0
 14 10  1  0  0  0  0
 15 13  1  0  0  0  0
 16  6  2  0  0  0  0
 17  2  1  0  0  0  0
 18  8  1  1  0  0  0
 18  5  1  0  0  0  0
 18 14  1  0  0  0  0
 20  1  1  0  0  0  0
 21 22  1  0  0  0  0
 22 24  1  0  0  0  0
 24 25  1  0  0  0  0
 24 23  2  0  0  0  0
 25 26  1  0  0  0  0
 27 22  1  0  0  0  0
 28 27  1  0  0  0  0
M  END
>  <MODEL>
8

>  <REMARK>
 VINA RESULT:      -6.6      3.749      5.851
  Name = 
  4 active torsions:
  status: ('A' for Active; 'I' for Inactive)
    1  A    between atoms: C_1  and  C_2
    2  A    between atoms: C_2  and  N_3
    3  A    between atoms: N_3  and  C_7
    4  A    between atoms: O_6  and  C_11
                            x       y       z     vdW  Elec       q    Type
                         _______ _______ _______ _____ _____    ______ ____

>  <TORSDO>
F 4

$$$$
=
 OpenBabel10262420553D

 28 31  0  0  1  0  0  0  0  0999 V2000
  187.7150  177.3360  144.2820 C   0  0  1  0  0  3  0  0  0  0  0  0
  184.2370  179.8490  139.8450 C   0  0  0  0  0  2  0  0  0  0  0  0
  183.5460  179.7530  145.0930 O   0  0  0  0  0  0  0  0  0  0  0  0
  183.4310  177.5110  140.4630 C   0  0  2  0  0  3  0  0  0  0  0  0
  185.0520  178.7680  141.9400 C   0  0  2  0  0  3  0  0  0  0  0  0
  182.6450  178.6650  138.3870 C   0  0  0  0  0  0  0  0  0  0  0  0
  184.6090  178.5100  140.4970 C   0  0  2  0  0  3  0  0  0  0  0  0
  182.9460  177.8780  142.7790 O   0  0  0  0  0  0  0  0  0  0  0  0
  182.8240  177.3430  139.0660 C   0  0  0  0  0  2  0  0  0  0  0  0
  185.5690  178.5490  144.7430 C   0  0  0  0  0  0  0  0  0  0  0  0
  185.9210  177.6230  142.4570 C   0  0  0  0  0  2  0  0  0  0  0  0
  182.3740  177.9070  141.4960 C   0  0  0  0  0  2  0  0  0  0  0  0
  187.4160  178.5420  146.4600 C   0  0  0  0  0  2  0  0  0  0  0  0
  184.2850  179.1340  144.2840 C   0  0  0  0  0  0  0  0  0  0  0  0
  185.9200  178.6590  146.2060 C   0  0  0  0  0  2  0  0  0  0  0  0
  181.6200  178.9100  137.7740 O   0  0  0  0  0  0  0  0  0  0  0  0
  183.7660  179.6520  138.4090 C   0  0  0  0  0  2  0  0  0  0  0  0
  183.8310  178.9710  142.8640 C   0  0  1  0  0  3  0  0  0  0  0  0
  187.9420  177.2790  145.7960 C   0  0  0  0  0  2  0  0  0  0  0  0
  186.3640  177.8770  143.8740 C   0  0  0  0  0  0  0  0  0  0  0  0
  188.8820  177.9810  143.5200 C   0  0  0  0  0  2  0  0  0  0  0  0
  189.5400  177.0570  142.5980 N   0  0  0  0  0  0  0  0  0  0  0  0
  188.7670  178.1680  140.6900 O   0  0  0  0  0  0  0  0  0  0  0  0
  189.4700  177.2410  141.1760 C   0  0  0  0  0  0  0  0  0  0  0  0
  190.1700  176.3780  140.3290 O   0  0  0  0  0  0  0  0  0  0  0  0
  191.2540  176.8260  139.5300 C   0  0  0  0  0  1  0  0  0  0  0  0
  190.0330  175.7990  143.1420 C   0  0  0  0  0  2  0  0  0  0  0  0
  191.3020  175.9800  143.6910 O   0  0  0  0  0  1  0  0  0  0  0  0
  1 21  1  6  0  0  0
  1 19  1  0  0  0  0
  4  9  1  6  0  0  0
  4  7  1  0  0  0  0
  4 12  1  0  0  0  0
  5 11  1  1  0  0  0
  5 18  1  0  0  0  0
  6 17  1  0  0  0  0
  6  9  1  0  0  0  0
  7  2  1  1  0  0  0
  7  5  1  0  0  0  0
 10 15  1  0  0  0  0
 11 20  1  0  0  0  0
 12  8  1  0  0  0  0
 14 10  1  0  0  0  0
 14  3  2  0  0  0  0
 15 13  1  0  0  0  0
 16  6  2  0  0  0  0
 17  2  1  0  0  0  0
 18  8  1  1  0  0  0
 18 14  1  0  0  0  0
 19 13  1  0  0  0  0
 20  1  1  0  0  0  0
 20 10  2  0  0  0  0
 22 27  1  0  0  0  0
 22 21  1  0  0  0  0
 23 24  2  0  0  0  0
 24 22  1  0  0  0  0
 25 24  1  0  0  0  0
 26 25  1  0  0  0  0
 27 28  1  0  0  0  0
M  END
>  <MODEL>
9

>  <REMARK>
 VINA RESULT:      -6.6      1.965      2.828
  Name = 
  4 active torsions:
  status: ('A' for Active; 'I' for Inactive)
    1  A    between atoms: C_1  and  C_2
    2  A    between atoms: C_2  and  N_3
    3  A    between atoms: N_3  and  C_7
    4  A    between atoms: O_6  and  C_11
                            x       y       z     vdW  Elec       q    Type
                         _______ _______ _______ _____ _____    ______ ____

>  <TORSDO>
F 4

$$$$
