=
 OpenBabel10262420143D

 27 29  0  0  1  0  0  0  0  0999 V2000
  187.4140  178.1650  142.0350 C   0  0  2  0  0  3  0  0  0  0  0  0
  186.9120  178.3100  140.5910 C   0  0  0  0  0  2  0  0  0  0  0  0
  189.7260  178.1590  141.0550 C   0  0  2  0  0  3  0  0  0  0  0  0
  190.8480  177.8890  143.4590 N   0  0  0  0  0  0  0  0  0  0  0  0
  191.0500  176.3250  140.2380 O   0  0  0  0  0  1  0  0  0  0  0  0
  191.4700  177.6410  144.7500 C   0  0  0  0  0  1  0  0  0  0  0  0
  187.9390  177.7510  139.5840 C   0  0  2  0  0  3  0  0  0  0  0  0
  188.7910  177.5070  142.0940 C   0  0  1  0  0  3  0  0  0  0  0  0
  189.1980  178.3780  139.7510 O   0  0  0  0  0  0  0  0  0  0  0  0
  191.5490  177.0870  142.4510 C   0  0  0  0  0  2  0  0  0  0  0  0
  189.2240  176.2670  144.0890 O   0  0  0  0  0  1  0  0  0  0  0  0
  189.4140  177.5240  143.5000 C   0  0  1  0  0  3  0  0  0  0  0  0
  191.0960  177.4720  141.0320 C   0  0  2  0  0  3  0  0  0  0  0  0
  187.6480  176.4320  137.4690 C   0  0  0  0  0  1  0  0  0  0  0  0
  187.4680  177.8070  138.1110 C   0  0  2  0  0  0  0  0  0  0  0  0
  189.0980  178.1480  136.3450 O   0  0  0  0  0  1  0  0  0  0  0  0
  187.5960  179.8140  136.7440 O   0  0  0  0  0  1  0  0  0  0  0  0
  188.3540  178.8000  137.3340 C   0  0  0  0  0  3  0  0  0  0  0  0
  185.2040  177.2340  137.4380 O   0  0  0  0  0  1  0  0  0  0  0  0
  185.9970  178.2380  138.0000 C   0  0  0  0  0  2  0  0  0  0  0  0
  186.4590  177.4760  142.8490 O   0  0  0  0  0  0  0  0  0  0  0  0
  184.2140  179.2130  145.9080 N   0  0  0  0  0  0  0  0  0  0  0  0
  185.7230  178.0540  143.8960 C   0  0  0  0  0  0  0  0  0  0  0  0
  184.4580  178.5760  143.6180 C   0  0  0  0  0  3  0  0  0  0  0  0
  183.7100  179.1570  144.6450 C   0  0  0  0  0  3  0  0  0  0  0  0
  185.4430  178.7140  146.2060 C   0  0  0  0  0  3  0  0  0  0  0  0
  186.2200  178.1250  145.2060 C   0  0  0  0  0  3  0  0  0  0  0  0
  1  8  1  0  0  0  0
  1 21  1  1  0  0  0
  2  1  1  0  0  0  0
  3  9  1  6  0  0  0
  3  8  1  0  0  0  0
  4 12  1  0  0  0  0
  4  6  1  0  0  0  0
  5 13  1  0  0  0  0
  7 15  1  6  0  0  0
  7  9  1  0  0  0  0
  7  2  1  0  0  0  0
  8 12  1  0  0  0  0
 10  4  1  0  0  0  0
 12 11  1  0  0  0  0
 13  3  1  0  0  0  0
 13 10  1  0  0  0  0
 14 15  1  0  0  0  0
 16 18  1  0  0  0  0
 17 18  1  0  0  0  0
 18 15  1  0  0  0  0
 19 20  1  0  0  0  0
 20 15  1  0  0  0  0
 21 23  1  0  0  0  0
 22 26  1  0  0  0  0
 23 27  1  0  0  0  0
 24 23  2  0  0  0  0
 24 25  1  0  0  0  0
 25 22  2  0  0  0  0
 27 26  2  0  0  0  0
M  END
>  <MODEL>
1

>  <REMARK>
 VINA RESULT:      -7.4      0.000      0.000
  Name = 
  5 active torsions:
  status: ('A' for Active; 'I' for Inactive)
    1  A    between atoms: C_1  and  O_15
    2  A    between atoms: C_9  and  O_15
    3  A    between atoms: C_14  and  C_17
    4  A    between atoms: C_16  and  C_17
    5  A    between atoms: C_17  and  C_21
                            x       y       z     vdW  Elec       q    Type
                         _______ _______ _______ _____ _____    ______ ____

>  <TORSDO>
F 5

$$$$
=
 OpenBabel10262420143D

 27 29  0  0  1  0  0  0  0  0999 V2000
  187.3710  178.1650  141.9590 C   0  0  2  0  0  3  0  0  0  0  0  0
  186.8540  178.3080  140.5200 C   0  0  0  0  0  2  0  0  0  0  0  0
  189.6730  178.1620  140.9550 C   0  0  2  0  0  3  0  0  0  0  0  0
  190.8210  177.8950  143.3460 N   0  0  0  0  0  0  0  0  0  0  0  0
  190.9920  176.3300  140.1240 O   0  0  0  0  0  1  0  0  0  0  0  0
  191.4570  177.6490  144.6310 C   0  0  0  0  0  1  0  0  0  0  0  0
  187.8710  177.7510  139.5030 C   0  0  2  0  0  3  0  0  0  0  0  0
  188.7510  177.5090  142.0030 C   0  0  1  0  0  3  0  0  0  0  0  0
  189.1310  178.3800  139.6560 O   0  0  0  0  0  0  0  0  0  0  0  0
  191.5130  177.0940  142.3310 C   0  0  0  0  0  2  0  0  0  0  0  0
  189.2060  176.2700  143.9940 O   0  0  0  0  0  1  0  0  0  0  0  0
  189.3880  177.5270  143.4030 C   0  0  1  0  0  3  0  0  0  0  0  0
  191.0440  177.4770  140.9170 C   0  0  2  0  0  3  0  0  0  0  0  0
  185.9290  178.2660  137.9990 C   0  0  0  0  0  1  0  0  0  0  0  0
  187.3850  177.8050  138.0350 C   0  0  2  0  0  0  0  0  0  0  0  0
  187.1090  176.4030  136.0720 O   0  0  0  0  0  1  0  0  0  0  0  0
  188.6940  175.8030  137.5940 O   0  0  0  0  0  1  0  0  0  0  0  0
  187.4360  176.3870  137.4320 C   0  0  0  0  0  3  0  0  0  0  0  0
  187.5090  179.8450  136.7190 O   0  0  0  0  0  1  0  0  0  0  0  0
  188.2460  178.7530  137.1850 C   0  0  0  0  0  2  0  0  0  0  0  0
  186.4260  177.4740  142.7820 O   0  0  0  0  0  0  0  0  0  0  0  0
  184.1470  179.2180  145.8120 N   0  0  0  0  0  0  0  0  0  0  0  0
  185.6410  178.0680  143.7830 C   0  0  0  0  0  0  0  0  0  0  0  0
  186.1190  178.0760  145.0950 C   0  0  0  0  0  3  0  0  0  0  0  0
  185.3520  178.6600  146.1060 C   0  0  0  0  0  3  0  0  0  0  0  0
  183.6560  179.2230  144.5440 C   0  0  0  0  0  3  0  0  0  0  0  0
  184.3940  178.6490  143.5060 C   0  0  0  0  0  3  0  0  0  0  0  0
  1  8  1  0  0  0  0
  1 21  1  1  0  0  0
  2  1  1  0  0  0  0
  3  9  1  6  0  0  0
  3  8  1  0  0  0  0
  4 12  1  0  0  0  0
  4  6  1  0  0  0  0
  5 13  1  0  0  0  0
  7 15  1  6  0  0  0
  7  9  1  0  0  0  0
  7  2  1  0  0  0  0
  8 12  1  0  0  0  0
 10  4  1  0  0  0  0
 12 11  1  0  0  0  0
 13  3  1  0  0  0  0
 13 10  1  0  0  0  0
 14 15  1  0  0  0  0
 16 18  1  0  0  0  0
 18 17  1  0  0  0  0
 18 15  1  0  0  0  0
 19 20  1  0  0  0  0
 20 15  1  0  0  0  0
 21 23  1  0  0  0  0
 22 25  1  0  0  0  0
 23 24  1  0  0  0  0
 24 25  2  0  0  0  0
 26 22  2  0  0  0  0
 27 23  2  0  0  0  0
 27 26  1  0  0  0  0
M  END
>  <MODEL>
2

>  <REMARK>
 VINA RESULT:      -7.3      0.715      1.723
  Name = 
  5 active torsions:
  status: ('A' for Active; 'I' for Inactive)
    1  A    between atoms: C_1  and  O_15
    2  A    between atoms: C_9  and  O_15
    3  A    between atoms: C_14  and  C_17
    4  A    between atoms: C_16  and  C_17
    5  A    between atoms: C_17  and  C_21
                            x       y       z     vdW  Elec       q    Type
                         _______ _______ _______ _____ _____    ______ ____

>  <TORSDO>
F 5

$$$$
=
 OpenBabel10262420143D

 27 29  0  0  1  0  0  0  0  0999 V2000
  188.7520  177.3210  143.3400 C   0  0  2  0  0  3  0  0  0  0  0  0
  187.2850  177.7390  143.1620 C   0  0  0  0  0  2  0  0  0  0  0  0
  188.1970  177.0120  145.7700 C   0  0  2  0  0  3  0  0  0  0  0  0
  190.6920  176.2690  146.3440 N   0  0  0  0  0  0  0  0  0  0  0  0
  188.2580  178.5960  147.5790 O   0  0  0  0  0  1  0  0  0  0  0  0
  192.0710  175.9590  146.6910 C   0  0  0  0  0  1  0  0  0  0  0  0
  186.6950  178.2800  144.4810 C   0  0  2  0  0  3  0  0  0  0  0  0
  189.2390  177.5520  144.7700 C   0  0  1  0  0  3  0  0  0  0  0  0
  186.8310  177.3270  145.5200 O   0  0  0  0  0  0  0  0  0  0  0  0
  190.1330  177.1200  147.4010 C   0  0  0  0  0  2  0  0  0  0  0  0
  191.5770  178.0000  144.9710 O   0  0  0  0  0  1  0  0  0  0  0  0
  190.6350  176.9660  145.0400 C   0  0  1  0  0  3  0  0  0  0  0  0
  188.6160  177.2960  147.2160 C   0  0  2  0  0  3  0  0  0  0  0  0
  185.2370  180.2780  144.0520 C   0  0  0  0  0  1  0  0  0  0  0  0
  185.2360  178.7810  144.3570 C   0  0  2  0  0  0  0  0  0  0  0  0
  185.1530  179.2990  146.7270 O   0  0  0  0  0  1  0  0  0  0  0  0
  183.1780  178.9730  145.6390 O   0  0  0  0  0  1  0  0  0  0  0  0
  184.5170  178.5840  145.7070 C   0  0  0  0  0  3  0  0  0  0  0  0
  183.9700  178.9050  142.2870 O   0  0  0  0  0  1  0  0  0  0  0  0
  184.4690  178.0310  143.2560 C   0  0  0  0  0  2  0  0  0  0  0  0
  189.5950  177.9660  142.3790 O   0  0  0  0  0  0  0  0  0  0  0  0
  189.7110  177.0840  138.3020 N   0  0  0  0  0  0  0  0  0  0  0  0
  189.6130  177.6870  141.0040 C   0  0  0  0  0  0  0  0  0  0  0  0
  190.5190  176.7390  140.5240 C   0  0  0  0  0  3  0  0  0  0  0  0
  190.5550  176.4480  139.1580 C   0  0  0  0  0  3  0  0  0  0  0  0
  188.8190  178.0120  138.7420 C   0  0  0  0  0  3  0  0  0  0  0  0
  188.7540  178.3300  140.1000 C   0  0  0  0  0  3  0  0  0  0  0  0
  1 21  1  6  0  0  0
  1  8  1  0  0  0  0
  2  1  1  0  0  0  0
  2  7  1  0  0  0  0
  3  9  1  6  0  0  0
  3 13  1  0  0  0  0
  4  6  1  0  0  0  0
  4 10  1  0  0  0  0
  7 15  1  6  0  0  0
  7  9  1  0  0  0  0
  8 12  1  0  0  0  0
  8  3  1  0  0  0  0
 11 12  1  0  0  0  0
 12  4  1  0  0  0  0
 13 10  1  0  0  0  0
 13  5  1  0  0  0  0
 14 15  1  0  0  0  0
 15 18  1  0  0  0  0
 17 18  1  0  0  0  0
 18 16  1  0  0  0  0
 19 20  1  0  0  0  0
 20 15  1  0  0  0  0
 22 26  2  0  0  0  0
 22 25  1  0  0  0  0
 23 21  1  0  0  0  0
 24 23  1  0  0  0  0
 25 24  2  0  0  0  0
 26 27  1  0  0  0  0
 27 23  2  0  0  0  0
M  END
>  <MODEL>
3

>  <REMARK>
 VINA RESULT:      -7.3      2.956      6.428
  Name = 
  5 active torsions:
  status: ('A' for Active; 'I' for Inactive)
    1  A    between atoms: C_1  and  O_15
    2  A    between atoms: C_9  and  O_15
    3  A    between atoms: C_14  and  C_17
    4  A    between atoms: C_16  and  C_17
    5  A    between atoms: C_17  and  C_21
                            x       y       z     vdW  Elec       q    Type
                         _______ _______ _______ _____ _____    ______ ____

>  <TORSDO>
F 5

$$$$
=
 OpenBabel10262420143D

 27 29  0  0  1  0  0  0  0  0999 V2000
  187.9190  177.7100  141.7090 C   0  0  2  0  0  3  0  0  0  0  0  0
  188.5320  177.5260  143.1050 C   0  0  0  0  0  2  0  0  0  0  0  0
  190.0030  176.6190  140.8300 C   0  0  2  0  0  3  0  0  0  0  0  0
  189.1690  176.8350  138.3080 N   0  0  0  0  0  0  0  0  0  0  0  0
  192.1120  177.5970  140.2110 O   0  0  0  0  0  1  0  0  0  0  0  0
  188.7740  177.0370  136.9220 C   0  0  0  0  0  1  0  0  0  0  0  0
  190.0710  177.4420  143.0310 C   0  0  2  0  0  3  0  0  0  0  0  0
  188.9900  177.7620  140.6200 C   0  0  1  0  0  3  0  0  0  0  0  0
  190.4760  176.4040  142.1560 O   0  0  0  0  0  0  0  0  0  0  0  0
  190.6080  177.1000  138.4170 C   0  0  0  0  0  2  0  0  0  0  0  0
  188.4030  179.0550  138.6990 O   0  0  0  0  0  1  0  0  0  0  0  0
  188.4110  177.7450  139.1950 C   0  0  1  0  0  3  0  0  0  0  0  0
  191.1370  176.6860  139.8010 C   0  0  2  0  0  3  0  0  0  0  0  0
  191.6230  176.0610  144.4400 C   0  0  0  0  0  1  0  0  0  0  0  0
  190.7600  177.3220  144.4120 C   0  0  2  0  0  0  0  0  0  0  0  0
  190.1620  176.4270  146.5880 O   0  0  0  0  0  1  0  0  0  0  0  0
  189.2300  178.4090  145.9600 O   0  0  0  0  0  1  0  0  0  0  0  0
  189.6820  177.1680  145.5030 C   0  0  0  0  0  3  0  0  0  0  0  0
  191.3090  179.6330  143.8990 O   0  0  0  0  0  1  0  0  0  0  0  0
  191.6300  178.5500  144.7220 C   0  0  0  0  0  2  0  0  0  0  0  0
  187.0600  178.8540  141.6660 O   0  0  0  0  0  0  0  0  0  0  0  0
  182.8920  178.7260  141.8290 N   0  0  0  0  0  0  0  0  0  0  0  0
  185.6570  178.8130  141.6940 C   0  0  0  0  0  0  0  0  0  0  0  0
  185.0120  178.7520  142.9310 C   0  0  0  0  0  3  0  0  0  0  0  0
  183.6170  178.7080  142.9810 C   0  0  0  0  0  3  0  0  0  0  0  0
  183.4940  178.7840  140.6120 C   0  0  0  0  0  3  0  0  0  0  0  0
  184.8870  178.8290  140.5210 C   0  0  0  0  0  3  0  0  0  0  0  0
  1 21  1  1  0  0  0
  1  2  1  0  0  0  0
  3  9  1  1  0  0  0
  4 10  1  0  0  0  0
  4 12  1  0  0  0  0
  6  4  1  0  0  0  0
  7  2  1  0  0  0  0
  7 15  1  1  0  0  0
  8  3  1  0  0  0  0
  8  1  1  0  0  0  0
  9  7  1  0  0  0  0
 10 13  1  0  0  0  0
 11 12  1  0  0  0  0
 12  8  1  0  0  0  0
 13  5  1  0  0  0  0
 13  3  1  0  0  0  0
 15 14  1  0  0  0  0
 15 20  1  0  0  0  0
 15 18  1  0  0  0  0
 18 17  1  0  0  0  0
 18 16  1  0  0  0  0
 19 20  1  0  0  0  0
 21 23  1  0  0  0  0
 22 25  1  0  0  0  0
 23 24  1  0  0  0  0
 24 25  2  0  0  0  0
 26 22  2  0  0  0  0
 27 26  1  0  0  0  0
 27 23  2  0  0  0  0
M  END
>  <MODEL>
4

>  <REMARK>
 VINA RESULT:      -7.2      2.277      5.640
  Name = 
  5 active torsions:
  status: ('A' for Active; 'I' for Inactive)
    1  A    between atoms: C_1  and  O_15
    2  A    between atoms: C_9  and  O_15
    3  A    between atoms: C_14  and  C_17
    4  A    between atoms: C_16  and  C_17
    5  A    between atoms: C_17  and  C_21
                            x       y       z     vdW  Elec       q    Type
                         _______ _______ _______ _____ _____    ______ ____

>  <TORSDO>
F 5

$$$$
=
 OpenBabel10262420143D

 27 29  0  0  1  0  0  0  0  0999 V2000
  187.1180  178.0610  142.9910 C   0  0  2  0  0  3  0  0  0  0  0  0
  185.7140  178.4200  142.4840 C   0  0  0  0  0  2  0  0  0  0  0  0
  187.8940  178.4780  140.6390 C   0  0  2  0  0  3  0  0  0  0  0  0
  190.4160  177.8820  141.2620 N   0  0  0  0  0  0  0  0  0  0  0  0
  188.0080  176.9770  138.7630 O   0  0  0  0  0  1  0  0  0  0  0  0
  191.7770  177.4630  141.5620 C   0  0  0  0  0  1  0  0  0  0  0  0
  185.5870  178.1690  140.9670 C   0  0  2  0  0  3  0  0  0  0  0  0
  188.0150  177.5500  141.8640 C   0  0  1  0  0  3  0  0  0  0  0  0
  186.5830  178.8810  140.2550 O   0  0  0  0  0  0  0  0  0  0  0  0
  190.0570  177.3600  139.9390 C   0  0  0  0  0  2  0  0  0  0  0  0
  189.7070  176.0110  142.5510 O   0  0  0  0  0  1  0  0  0  0  0  0
  189.4820  177.3680  142.2880 C   0  0  1  0  0  3  0  0  0  0  0  0
  188.7210  177.9540  139.4600 C   0  0  2  0  0  3  0  0  0  0  0  0
  183.4340  177.1280  140.2070 C   0  0  0  0  0  1  0  0  0  0  0  0
  184.1740  178.4500  140.4010 C   0  0  2  0  0  0  0  0  0  0  0  0
  183.3630  178.6050  138.1180 O   0  0  0  0  0  1  0  0  0  0  0  0
  184.1650  180.5010  139.0930 O   0  0  0  0  0  1  0  0  0  0  0  0
  184.3070  179.1140  139.0160 C   0  0  0  0  0  3  0  0  0  0  0  0
  182.2040  178.7330  141.7950 O   0  0  0  0  0  1  0  0  0  0  0  0
  183.3600  179.3640  141.3300 C   0  0  0  0  0  2  0  0  0  0  0  0
  187.0550  177.1360  144.0820 O   0  0  0  0  0  0  0  0  0  0  0  0
  188.1810  177.9670  148.0130 N   0  0  0  0  0  0  0  0  0  0  0  0
  187.4090  177.4270  145.4090 C   0  0  0  0  0  0  0  0  0  0  0  0
  188.7040  177.1280  145.8380 C   0  0  0  0  0  3  0  0  0  0  0  0
  189.0760  177.4070  147.1550 C   0  0  0  0  0  3  0  0  0  0  0  0
  186.9140  178.2680  147.6220 C   0  0  0  0  0  3  0  0  0  0  0  0
  186.5050  178.0030  146.3130 C   0  0  0  0  0  3  0  0  0  0  0  0
  1 21  1  1  0  0  0
  2  1  1  0  0  0  0
  3  9  1  6  0  0  0
  3  8  1  0  0  0  0
  4  6  1  0  0  0  0
  4 12  1  0  0  0  0
  5 13  1  0  0  0  0
  7 15  1  6  0  0  0
  7  2  1  0  0  0  0
  8 12  1  0  0  0  0
  8  1  1  0  0  0  0
  9  7  1  0  0  0  0
 10  4  1  0  0  0  0
 12 11  1  0  0  0  0
 13 10  1  0  0  0  0
 13  3  1  0  0  0  0
 14 15  1  0  0  0  0
 15 20  1  0  0  0  0
 16 18  1  0  0  0  0
 18 17  1  0  0  0  0
 18 15  1  0  0  0  0
 20 19  1  0  0  0  0
 21 23  1  0  0  0  0
 23 24  2  0  0  0  0
 23 27  1  0  0  0  0
 24 25  1  0  0  0  0
 25 22  2  0  0  0  0
 26 22  1  0  0  0  0
 27 26  2  0  0  0  0
M  END
>  <MODEL>
5

>  <REMARK>
 VINA RESULT:      -7.0      2.373      3.532
  Name = 
  5 active torsions:
  status: ('A' for Active; 'I' for Inactive)
    1  A    between atoms: C_1  and  O_15
    2  A    between atoms: C_9  and  O_15
    3  A    between atoms: C_14  and  C_17
    4  A    between atoms: C_16  and  C_17
    5  A    between atoms: C_17  and  C_21
                            x       y       z     vdW  Elec       q    Type
                         _______ _______ _______ _____ _____    ______ ____

>  <TORSDO>
F 5

$$$$
=
 OpenBabel10262420143D

 27 29  0  0  1  0  0  0  0  0999 V2000
  187.1480  177.6840  143.8980 C   0  0  2  0  0  3  0  0  0  0  0  0
  187.4330  177.4070  145.3810 C   0  0  0  0  0  2  0  0  0  0  0  0
  189.4050  176.6790  143.4470 C   0  0  2  0  0  3  0  0  0  0  0  0
  189.1600  177.0670  140.8210 N   0  0  0  0  0  0  0  0  0  0  0  0
  191.5730  177.7190  143.3920 O   0  0  0  0  0  1  0  0  0  0  0  0
  189.0850  177.3630  139.3980 C   0  0  0  0  0  1  0  0  0  0  0  0
  188.9500  177.3430  145.6550 C   0  0  2  0  0  3  0  0  0  0  0  0
  188.4360  177.8240  143.0880 C   0  0  1  0  0  3  0  0  0  0  0  0
  189.5690  176.3740  144.8280 O   0  0  0  0  0  0  0  0  0  0  0  0
  190.5290  177.3370  141.2730 C   0  0  0  0  0  2  0  0  0  0  0  0
  188.2680  179.2450  141.1760 O   0  0  0  0  0  1  0  0  0  0  0  0
  188.1970  177.9030  141.5710 C   0  0  1  0  0  3  0  0  0  0  0  0
  190.7410  176.8300  142.7100 C   0  0  2  0  0  3  0  0  0  0  0  0
  188.3060  176.1690  147.7780 C   0  0  0  0  0  1  0  0  0  0  0  0
  189.3100  177.1310  147.1450 C   0  0  2  0  0  0  0  0  0  0  0  0
  187.9310  178.6270  148.4690 O   0  0  0  0  0  1  0  0  0  0  0  0
  190.1710  178.6020  148.8810 O   0  0  0  0  0  1  0  0  0  0  0  0
  189.1950  178.4760  147.8900 C   0  0  0  0  0  3  0  0  0  0  0  0
  191.6610  177.2880  146.5500 O   0  0  0  0  0  1  0  0  0  0  0  0
  190.7330  176.5740  147.3120 C   0  0  0  0  0  2  0  0  0  0  0  0
  186.2920  178.8200  143.7380 O   0  0  0  0  0  0  0  0  0  0  0  0
  182.2600  178.6800  142.6710 N   0  0  0  0  0  0  0  0  0  0  0  0
  184.9430  178.7680  143.3530 C   0  0  0  0  0  0  0  0  0  0  0  0
  183.9620  179.0320  144.3100 C   0  0  0  0  0  3  0  0  0  0  0  0
  182.6130  178.9830  143.9490 C   0  0  0  0  0  3  0  0  0  0  0  0
  183.1950  178.4170  141.7190 C   0  0  0  0  0  3  0  0  0  0  0  0
  184.5530  178.4560  142.0420 C   0  0  0  0  0  3  0  0  0  0  0  0
  1 21  1  1  0  0  0
  1  2  1  0  0  0  0
  2  7  1  0  0  0  0
  3  9  1  1  0  0  0
  4 10  1  0  0  0  0
  4 12  1  0  0  0  0
  6  4  1  0  0  0  0
  7 15  1  1  0  0  0
  8  3  1  0  0  0  0
  8  1  1  0  0  0  0
  9  7  1  0  0  0  0
 10 13  1  0  0  0  0
 11 12  1  0  0  0  0
 12  8  1  0  0  0  0
 13  5  1  0  0  0  0
 13  3  1  0  0  0  0
 15 20  1  0  0  0  0
 15 14  1  0  0  0  0
 15 18  1  0  0  0  0
 18 16  1  0  0  0  0
 18 17  1  0  0  0  0
 19 20  1  0  0  0  0
 22 25  1  0  0  0  0
 23 21  1  0  0  0  0
 23 24  1  0  0  0  0
 25 24  2  0  0  0  0
 26 27  1  0  0  0  0
 26 22  2  0  0  0  0
 27 23  2  0  0  0  0
M  END
>  <MODEL>
6

>  <REMARK>
 VINA RESULT:      -7.0      2.602      6.371
  Name = 
  5 active torsions:
  status: ('A' for Active; 'I' for Inactive)
    1  A    between atoms: C_1  and  O_15
    2  A    between atoms: C_9  and  O_15
    3  A    between atoms: C_14  and  C_17
    4  A    between atoms: C_16  and  C_17
    5  A    between atoms: C_17  and  C_21
                            x       y       z     vdW  Elec       q    Type
                         _______ _______ _______ _____ _____    ______ ____

>  <TORSDO>
F 5

$$$$
=
 OpenBabel10262420143D

 27 29  0  0  1  0  0  0  0  0999 V2000
  186.8120  178.1400  142.5910 C   0  0  2  0  0  3  0  0  0  0  0  0
  185.5410  178.4420  141.7840 C   0  0  0  0  0  2  0  0  0  0  0  0
  188.0430  178.3340  140.4100 C   0  0  2  0  0  3  0  0  0  0  0  0
  190.3840  177.8120  141.5750 N   0  0  0  0  0  0  0  0  0  0  0  0
  188.5050  176.6620  138.7450 O   0  0  0  0  0  1  0  0  0  0  0  0
  191.6520  177.4300  142.1770 C   0  0  0  0  0  1  0  0  0  0  0  0
  185.7130  178.0470  140.3030 C   0  0  2  0  0  3  0  0  0  0  0  0
  187.9070  177.5280  141.7170 C   0  0  1  0  0  3  0  0  0  0  0  0
  186.8400  178.6930  139.7380 O   0  0  0  0  0  0  0  0  0  0  0  0
  190.2860  177.1640  140.2620 C   0  0  0  0  0  2  0  0  0  0  0  0
  189.4070  176.0690  142.8690 O   0  0  0  0  0  1  0  0  0  0  0  0
  189.2580  177.3940  142.4400 C   0  0  1  0  0  3  0  0  0  0  0  0
  189.0800  177.7040  139.4740 C   0  0  2  0  0  3  0  0  0  0  0  0
  184.8330  178.3080  137.9660 C   0  0  0  0  0  1  0  0  0  0  0  0
  184.4440  178.2660  139.4430 C   0  0  2  0  0  0  0  0  0  0  0  0
  184.2610  180.6290  138.9210 O   0  0  0  0  0  1  0  0  0  0  0  0
  182.4270  179.5830  139.7770 O   0  0  0  0  0  1  0  0  0  0  0  0
  183.8220  179.6310  139.7970 C   0  0  0  0  0  3  0  0  0  0  0  0
  183.0940  176.4880  138.4850 O   0  0  0  0  0  1  0  0  0  0  0  0
  183.4050  177.1560  139.6710 C   0  0  0  0  0  2  0  0  0  0  0  0
  186.5210  177.3230  143.7300 O   0  0  0  0  0  0  0  0  0  0  0  0
  186.9310  178.5280  147.7040 N   0  0  0  0  0  0  0  0  0  0  0  0
  186.6830  177.7150  145.0680 C   0  0  0  0  0  0  0  0  0  0  0  0
  185.6590  178.4390  145.6830 C   0  0  0  0  0  3  0  0  0  0  0  0
  185.8010  178.8410  147.0140 C   0  0  0  0  0  3  0  0  0  0  0  0
  187.9440  177.8250  147.1290 C   0  0  0  0  0  3  0  0  0  0  0  0
  187.8380  177.4060  145.8010 C   0  0  0  0  0  3  0  0  0  0  0  0
  1 21  1  1  0  0  0
  2  1  1  0  0  0  0
  3  9  1  6  0  0  0
  3  8  1  0  0  0  0
  4  6  1  0  0  0  0
  4 12  1  0  0  0  0
  5 13  1  0  0  0  0
  7 15  1  6  0  0  0
  7  2  1  0  0  0  0
  8 12  1  0  0  0  0
  8  1  1  0  0  0  0
  9  7  1  0  0  0  0
 10  4  1  0  0  0  0
 12 11  1  0  0  0  0
 13 10  1  0  0  0  0
 13  3  1  0  0  0  0
 14 15  1  0  0  0  0
 15 20  1  0  0  0  0
 15 18  1  0  0  0  0
 16 18  1  0  0  0  0
 17 18  1  0  0  0  0
 19 20  1  0  0  0  0
 21 23  1  0  0  0  0
 23 24  2  0  0  0  0
 23 27  1  0  0  0  0
 24 25  1  0  0  0  0
 25 22  2  0  0  0  0
 26 22  1  0  0  0  0
 27 26  2  0  0  0  0
M  END
>  <MODEL>
7

>  <REMARK>
 VINA RESULT:      -7.0      2.069      2.950
  Name = 
  5 active torsions:
  status: ('A' for Active; 'I' for Inactive)
    1  A    between atoms: C_1  and  O_15
    2  A    between atoms: C_9  and  O_15
    3  A    between atoms: C_14  and  C_17
    4  A    between atoms: C_16  and  C_17
    5  A    between atoms: C_17  and  C_21
                            x       y       z     vdW  Elec       q    Type
                         _______ _______ _______ _____ _____    ______ ____

>  <TORSDO>
F 5

$$$$
=
 OpenBabel10262420143D

 27 29  0  0  1  0  0  0  0  0999 V2000
  187.7780  177.0230  143.4450 C   0  0  2  0  0  3  0  0  0  0  0  0
  187.9640  176.9090  144.9650 C   0  0  0  0  0  2  0  0  0  0  0  0
  190.2580  176.6630  143.2810 C   0  0  2  0  0  3  0  0  0  0  0  0
  190.2060  176.8400  140.6220 N   0  0  0  0  0  0  0  0  0  0  0  0
  192.0560  178.2600  143.3460 O   0  0  0  0  0  1  0  0  0  0  0  0
  190.2090  177.0330  139.1800 C   0  0  0  0  0  1  0  0  0  0  0  0
  189.4020  177.2820  145.3810 C   0  0  2  0  0  3  0  0  0  0  0  0
  189.0610  177.4750  142.7480 C   0  0  1  0  0  3  0  0  0  0  0  0
  190.3470  176.4840  144.6910 O   0  0  0  0  0  0  0  0  0  0  0  0
  191.3930  177.5010  141.1760 C   0  0  0  0  0  2  0  0  0  0  0  0
  188.7230  178.6990  140.7250 O   0  0  0  0  0  1  0  0  0  0  0  0
  188.9760  177.4110  141.2140 C   0  0  1  0  0  3  0  0  0  0  0  0
  191.5750  177.1430  142.6610 C   0  0  2  0  0  3  0  0  0  0  0  0
  189.5850  178.6750  147.4610 C   0  0  0  0  0  1  0  0  0  0  0  0
  189.6410  177.2510  146.9090 C   0  0  2  0  0  0  0  0  0  0  0  0
  191.7370  177.5060  148.1070 O   0  0  0  0  0  1  0  0  0  0  0  0
  191.0110  175.3910  147.6720 O   0  0  0  0  0  1  0  0  0  0  0  0
  191.0540  176.7010  147.1900 C   0  0  0  0  0  3  0  0  0  0  0  0
  187.8800  177.1090  148.5790 O   0  0  0  0  0  1  0  0  0  0  0  0
  188.6010  176.3790  147.6300 C   0  0  0  0  0  2  0  0  0  0  0  0
  186.6690  177.8680  143.1200 O   0  0  0  0  0  0  0  0  0  0  0  0
  183.7180  179.0030  145.8420 N   0  0  0  0  0  0  0  0  0  0  0  0
  185.6590  178.2540  144.0150 C   0  0  0  0  0  0  0  0  0  0  0  0
  185.9460  178.2740  145.3820 C   0  0  0  0  0  3  0  0  0  0  0  0
  184.9540  178.6540  146.2890 C   0  0  0  0  0  3  0  0  0  0  0  0
  183.4110  178.9920  144.5180 C   0  0  0  0  0  3  0  0  0  0  0  0
  184.3760  178.6180  143.5800 C   0  0  0  0  0  3  0  0  0  0  0  0
  1 21  1  1  0  0  0
  1  2  1  0  0  0  0
  2  7  1  0  0  0  0
  3  9  1  1  0  0  0
  4 10  1  0  0  0  0
  4 12  1  0  0  0  0
  6  4  1  0  0  0  0
  7 15  1  1  0  0  0
  8  3  1  0  0  0  0
  8  1  1  0  0  0  0
  9  7  1  0  0  0  0
 10 13  1  0  0  0  0
 11 12  1  0  0  0  0
 12  8  1  0  0  0  0
 13  3  1  0  0  0  0
 13  5  1  0  0  0  0
 15 18  1  0  0  0  0
 15 14  1  0  0  0  0
 15 20  1  0  0  0  0
 18 17  1  0  0  0  0
 18 16  1  0  0  0  0
 20 19  1  0  0  0  0
 21 23  1  0  0  0  0
 22 25  1  0  0  0  0
 23 24  1  0  0  0  0
 24 25  2  0  0  0  0
 26 22  2  0  0  0  0
 27 23  2  0  0  0  0
 27 26  1  0  0  0  0
M  END
>  <MODEL>
8

>  <REMARK>
 VINA RESULT:      -6.9      2.412      6.200
  Name = 
  5 active torsions:
  status: ('A' for Active; 'I' for Inactive)
    1  A    between atoms: C_1  and  O_15
    2  A    between atoms: C_9  and  O_15
    3  A    between atoms: C_14  and  C_17
    4  A    between atoms: C_16  and  C_17
    5  A    between atoms: C_17  and  C_21
                            x       y       z     vdW  Elec       q    Type
                         _______ _______ _______ _____ _____    ______ ____

>  <TORSDO>
F 5

$$$$
=
 OpenBabel10262420143D

 27 29  0  0  1  0  0  0  0  0999 V2000
  187.5440  178.1740  141.9610 C   0  0  2  0  0  3  0  0  0  0  0  0
  187.1820  178.2530  140.4700 C   0  0  0  0  0  2  0  0  0  0  0  0
  189.9400  178.1580  141.2090 C   0  0  2  0  0  3  0  0  0  0  0  0
  190.8270  178.0000  143.7180 N   0  0  0  0  0  0  0  0  0  0  0  0
  191.3540  176.3090  140.5990 O   0  0  0  0  0  1  0  0  0  0  0  0
  191.3240  177.8130  145.0720 C   0  0  0  0  0  1  0  0  0  0  0  0
  188.3070  177.6670  139.5910 C   0  0  2  0  0  3  0  0  0  0  0  0
  188.9160  177.5360  142.1790 C   0  0  1  0  0  3  0  0  0  0  0  0
  189.5380  178.3170  139.8520 O   0  0  0  0  0  0  0  0  0  0  0  0
  191.6300  177.1670  142.8160 C   0  0  0  0  0  2  0  0  0  0  0  0
  189.1650  176.3840  144.2560 O   0  0  0  0  0  1  0  0  0  0  0  0
  189.4000  177.6180  143.6360 C   0  0  1  0  0  3  0  0  0  0  0  0
  191.3120  177.4880  141.3460 C   0  0  2  0  0  3  0  0  0  0  0  0
  188.9490  178.5830  137.3440 C   0  0  0  0  0  1  0  0  0  0  0  0
  187.9800  177.6570  138.0790 C   0  0  2  0  0  0  0  0  0  0  0  0
  186.5800  179.3760  137.0890 O   0  0  0  0  0  1  0  0  0  0  0  0
  185.7240  177.2710  137.2550 O   0  0  0  0  0  1  0  0  0  0  0  0
  186.5580  178.2110  137.8640 C   0  0  0  0  0  3  0  0  0  0  0  0
  189.3540  175.7040  137.6270 O   0  0  0  0  0  1  0  0  0  0  0  0
  188.0720  176.2410  137.4870 C   0  0  0  0  0  2  0  0  0  0  0  0
  186.5210  177.5060  142.7070 O   0  0  0  0  0  0  0  0  0  0  0  0
  183.9800  179.3340  145.4660 N   0  0  0  0  0  0  0  0  0  0  0  0
  185.6850  178.1150  143.6550 C   0  0  0  0  0  0  0  0  0  0  0  0
  184.4440  178.6030  143.2390 C   0  0  0  0  0  3  0  0  0  0  0  0
  183.5970  179.2150  144.1660 C   0  0  0  0  0  3  0  0  0  0  0  0
  185.1820  178.8690  145.8980 C   0  0  0  0  0  3  0  0  0  0  0  0
  186.0560  178.2510  145.0010 C   0  0  0  0  0  3  0  0  0  0  0  0
  1  8  1  0  0  0  0
  1 21  1  1  0  0  0
  2  1  1  0  0  0  0
  3  9  1  6  0  0  0
  3 13  1  0  0  0  0
  3  8  1  0  0  0  0
  4  6  1  0  0  0  0
  5 13  1  0  0  0  0
  7 15  1  6  0  0  0
  7  9  1  0  0  0  0
  7  2  1  0  0  0  0
  8 12  1  0  0  0  0
 10  4  1  0  0  0  0
 12  4  1  0  0  0  0
 12 11  1  0  0  0  0
 13 10  1  0  0  0  0
 14 15  1  0  0  0  0
 16 18  1  0  0  0  0
 17 18  1  0  0  0  0
 18 15  1  0  0  0  0
 20 19  1  0  0  0  0
 20 15  1  0  0  0  0
 21 23  1  0  0  0  0
 22 26  1  0  0  0  0
 23 27  1  0  0  0  0
 24 23  2  0  0  0  0
 24 25  1  0  0  0  0
 25 22  2  0  0  0  0
 27 26  2  0  0  0  0
M  END
>  <MODEL>
9

>  <REMARK>
 VINA RESULT:      -6.9      0.691      1.485
  Name = 
  5 active torsions:
  status: ('A' for Active; 'I' for Inactive)
    1  A    between atoms: C_1  and  O_15
    2  A    between atoms: C_9  and  O_15
    3  A    between atoms: C_14  and  C_17
    4  A    between atoms: C_16  and  C_17
    5  A    between atoms: C_17  and  C_21
                            x       y       z     vdW  Elec       q    Type
                         _______ _______ _______ _____ _____    ______ ____

>  <TORSDO>
F 5

$$$$
