=
 OpenBabel10262419443D

 25 28  0  0  1  0  0  0  0  0999 V2000
  183.0010  178.6840  141.8170 C   0  0  0  0  0  0  0  0  0  0  0  0
  184.1180  178.6490  142.6540 C   0  0  0  0  0  0  0  0  0  0  0  0
  181.5460  179.0220  143.6910 C   0  0  0  0  0  3  0  0  0  0  0  0
  182.8890  178.6050  140.3310 C   0  0  2  0  0  3  0  0  0  0  0  0
  187.5720  177.1930  142.6570 N   0  0  0  0  0  2  0  0  0  0  0  0
  181.2400  176.3260  139.8270 C   0  0  0  0  0  2  0  0  0  0  0  0
  182.6300  178.9790  144.5200 N   0  0  0  0  0  0  0  0  0  0  0  0
  181.4240  178.7950  140.0380 N   0  0  1  0  0  0  0  0  0  0  0  0
  180.7680  177.6870  139.3250 C   0  0  0  0  0  2  0  0  0  0  0  0
  185.0930  178.8080  144.9630 C   0  0  1  0  0  3  0  0  0  0  0  0
  184.7540  178.2570  146.3370 C   0  0  0  0  0  1  0  0  0  0  0  0
  185.5130  178.5450  142.1130 C   0  0  0  0  0  2  0  0  0  0  0  0
  182.7090  176.2350  139.5950 C   0  0  0  0  0  3  0  0  0  0  0  0
  181.7590  178.8670  142.3250 C   0  0  0  0  0  0  0  0  0  0  0  0
  180.8000  178.9220  141.2980 N   0  0  0  0  0  2  0  0  0  0  0  0
  186.2120  178.0450  144.4020 N   0  0  0  0  0  0  0  0  0  0  0  0
  183.4750  177.3050  139.8210 C   0  0  0  0  0  3  0  0  0  0  0  0
  186.4360  177.9220  143.1230 C   0  0  0  0  0  0  0  0  0  0  0  0
  183.9010  178.7830  144.0420 C   0  0  0  0  0  0  0  0  0  0  0  0
  188.5140  176.5540  143.5640 C   0  0  0  0  0  2  0  0  0  0  0  0
  189.8540  177.2740  143.5140 C   0  0  2  0  0  3  0  0  0  0  0  0
  190.9240  176.2990  143.0470 C   0  0  0  0  0  1  0  0  0  0  0  0
  190.2090  177.8350  144.8910 C   0  0  2  0  0  3  0  0  0  0  0  0
  191.5370  177.5370  145.2070 O   0  0  0  0  0  1  0  0  0  0  0  0
  189.3110  177.2410  145.9620 C   0  0  0  0  0  1  0  0  0  0  0  0
  1 14  2  0  0  0  0
  1  2  1  0  0  0  0
  2 19  2  0  0  0  0
  3  7  2  0  0  0  0
  4 17  1  1  0  0  0
  4  1  1  0  0  0  0
  5 18  1  0  0  0  0
  5 20  1  0  0  0  0
  8  9  1  1  0  0  0
  8  4  1  0  0  0  0
  8 15  1  0  0  0  0
  9  6  1  0  0  0  0
 10 11  1  1  0  0  0
 12  2  1  0  0  0  0
 12 18  1  0  0  0  0
 13 17  2  0  0  0  0
 13  6  1  0  0  0  0
 14  3  1  0  0  0  0
 15 14  1  0  0  0  0
 16 10  1  0  0  0  0
 18 16  2  0  0  0  0
 19  7  1  0  0  0  0
 19 10  1  0  0  0  0
 21 22  1  1  0  0  0
 21 20  1  0  0  0  0
 21 23  1  0  0  0  0
 23 24  1  0  0  0  0
 23 25  1  1  0  0  0
M  END
>  <MODEL>
1

>  <REMARK>
 VINA RESULT:      -8.0      0.000      0.000
  Name = 
  3 active torsions:
  status: ('A' for Active; 'I' for Inactive)
    1  A    between atoms: C_2  and  C_21
    2  A    between atoms: N_6  and  C_15
    3  A    between atoms: C_15  and  C_21
                            x       y       z     vdW  Elec       q    Type
                         _______ _______ _______ _____ _____    ______ ____

>  <TORSDO>
F 3

$$$$
=
 OpenBabel10262419443D

 25 28  0  0  1  0  0  0  0  0999 V2000
  188.0880  178.1780  138.7080 C   0  0  0  0  0  0  0  0  0  0  0  0
  187.6990  178.3270  140.0410 C   0  0  0  0  0  0  0  0  0  0  0  0
  185.8260  178.4450  137.9660 C   0  0  0  0  0  3  0  0  0  0  0  0
  189.4390  178.0000  138.0970 C   0  0  2  0  0  3  0  0  0  0  0  0
  188.8980  177.3030  143.4410 N   0  0  0  0  0  2  0  0  0  0  0  0
  189.3020  175.5120  136.6970 C   0  0  0  0  0  2  0  0  0  0  0  0
  185.4320  178.5820  139.2660 N   0  0  0  0  0  0  0  0  0  0  0  0
  189.1980  177.9930  136.6110 N   0  0  1  0  0  0  0  0  0  0  0  0
  189.6210  176.7740  135.9020 C   0  0  0  0  0  2  0  0  0  0  0  0
  185.8840  178.7370  141.7280 C   0  0  1  0  0  3  0  0  0  0  0  0
  184.4730  178.2300  141.9650 C   0  0  0  0  0  1  0  0  0  0  0  0
  188.6960  178.3620  141.1610 C   0  0  0  0  0  2  0  0  0  0  0  0
  190.0360  175.5860  137.9920 C   0  0  0  0  0  3  0  0  0  0  0  0
  187.1770  178.2380  137.7080 C   0  0  0  0  0  0  0  0  0  0  0  0
  187.8010  178.1170  136.4530 N   0  0  0  0  0  2  0  0  0  0  0  0
  186.7960  178.0840  142.6730 N   0  0  0  0  0  0  0  0  0  0  0  0
  190.1070  176.7530  138.6380 C   0  0  0  0  0  3  0  0  0  0  0  0
  188.0690  177.9160  142.4520 C   0  0  0  0  0  0  0  0  0  0  0  0
  186.3260  178.5140  140.3040 C   0  0  0  0  0  0  0  0  0  0  0  0
  188.3740  176.8380  144.7170 C   0  0  0  0  0  2  0  0  0  0  0  0
  188.9470  177.6750  145.8510 C   0  0  2  0  0  3  0  0  0  0  0  0
  190.3590  177.2000  146.1550 C   0  0  0  0  0  1  0  0  0  0  0  0
  188.0670  177.5580  147.0960 C   0  0  2  0  0  3  0  0  0  0  0  0
  186.8440  178.2000  146.8860 O   0  0  0  0  0  1  0  0  0  0  0  0
  188.7470  178.1930  148.2960 C   0  0  0  0  0  1  0  0  0  0  0  0
  1  2  1  0  0  0  0
  2 19  2  0  0  0  0
  2 12  1  0  0  0  0
  3  7  2  0  0  0  0
  4 17  1  1  0  0  0
  4  1  1  0  0  0  0
  5 20  1  0  0  0  0
  6 13  1  0  0  0  0
  7 19  1  0  0  0  0
  8  9  1  1  0  0  0
  8  4  1  0  0  0  0
  9  6  1  0  0  0  0
 10 11  1  6  0  0  0
 10 16  1  0  0  0  0
 12 18  1  0  0  0  0
 13 17  2  0  0  0  0
 14  3  1  0  0  0  0
 14  1  2  0  0  0  0
 15  8  1  0  0  0  0
 15 14  1  0  0  0  0
 18 16  2  0  0  0  0
 18  5  1  0  0  0  0
 19 10  1  0  0  0  0
 20 21  1  0  0  0  0
 21 22  1  1  0  0  0
 21 23  1  0  0  0  0
 23 25  1  1  0  0  0
 24 23  1  0  0  0  0
M  END
>  <MODEL>
2

>  <REMARK>
 VINA RESULT:      -7.7      3.918      5.610
  Name = 
  3 active torsions:
  status: ('A' for Active; 'I' for Inactive)
    1  A    between atoms: C_2  and  C_21
    2  A    between atoms: N_6  and  C_15
    3  A    between atoms: C_15  and  C_21
                            x       y       z     vdW  Elec       q    Type
                         _______ _______ _______ _____ _____    ______ ____

>  <TORSDO>
F 3

$$$$
=
 OpenBabel10262419443D

 25 28  0  0  1  0  0  0  0  0999 V2000
  188.2390  177.3370  144.7430 C   0  0  0  0  0  0  0  0  0  0  0  0
  186.9920  177.5790  144.1600 C   0  0  0  0  0  0  0  0  0  0  0  0
  187.3860  177.8900  146.9120 C   0  0  0  0  0  3  0  0  0  0  0  0
  189.5190  176.8510  144.1490 C   0  0  2  0  0  3  0  0  0  0  0  0
  185.6060  178.5730  140.8230 N   0  0  0  0  0  2  0  0  0  0  0  0
  191.4210  178.9160  144.6860 C   0  0  0  0  0  2  0  0  0  0  0  0
  186.1660  178.1390  146.3520 N   0  0  0  0  0  0  0  0  0  0  0  0
  190.4620  176.7110  145.3140 N   0  0  1  0  0  0  0  0  0  0  0  0
  191.6900  177.5200  145.2410 C   0  0  0  0  0  2  0  0  0  0  0  0
  184.5780  178.2210  144.4130 C   0  0  1  0  0  3  0  0  0  0  0  0
  183.7990  179.2860  145.1640 C   0  0  0  0  0  1  0  0  0  0  0  0
  186.7340  177.3280  142.7040 C   0  0  0  0  0  2  0  0  0  0  0  0
  190.8710  178.7640  143.3090 C   0  0  0  0  0  3  0  0  0  0  0  0
  188.4220  177.4880  146.0760 C   0  0  0  0  0  0  0  0  0  0  0  0
  189.7340  177.1390  146.4450 N   0  0  0  0  0  2  0  0  0  0  0  0
  184.6640  178.5950  142.9980 N   0  0  0  0  0  0  0  0  0  0  0  0
  189.9910  177.7920  143.0590 C   0  0  0  0  0  3  0  0  0  0  0  0
  185.6150  178.1950  142.2000 C   0  0  0  0  0  0  0  0  0  0  0  0
  185.9480  178.0090  145.0050 C   0  0  0  0  0  0  0  0  0  0  0  0
  184.5640  179.4130  140.2510 C   0  0  0  0  0  2  0  0  0  0  0  0
  184.4340  179.1400  138.7600 C   0  0  2  0  0  3  0  0  0  0  0  0
  183.0640  178.5410  138.4820 C   0  0  0  0  0  1  0  0  0  0  0  0
  185.5360  178.1860  138.2950 C   0  0  2  0  0  3  0  0  0  0  0  0
  186.5280  178.8910  137.6100 O   0  0  0  0  0  1  0  0  0  0  0  0
  184.9710  177.1220  137.3710 C   0  0  0  0  0  1  0  0  0  0  0  0
  1 14  1  0  0  0  0
  2  1  2  0  0  0  0
  2 19  1  0  0  0  0
  4 17  1  6  0  0  0
  4  1  1  0  0  0  0
  4  8  1  0  0  0  0
  5 18  1  0  0  0  0
  6  9  1  0  0  0  0
  7  3  1  0  0  0  0
  8  9  1  6  0  0  0
  8 15  1  0  0  0  0
 10 19  1  0  0  0  0
 10 11  1  1  0  0  0
 12  2  1  0  0  0  0
 13  6  1  0  0  0  0
 14 15  1  0  0  0  0
 14  3  2  0  0  0  0
 16 10  1  0  0  0  0
 17 13  2  0  0  0  0
 18 12  1  0  0  0  0
 18 16  2  0  0  0  0
 19  7  2  0  0  0  0
 20  5  1  0  0  0  0
 21 22  1  1  0  0  0
 21 20  1  0  0  0  0
 23 25  1  6  0  0  0
 23 21  1  0  0  0  0
 24 23  1  0  0  0  0
M  END
>  <MODEL>
3

>  <REMARK>
 VINA RESULT:      -7.7      2.913      7.307
  Name = 
  3 active torsions:
  status: ('A' for Active; 'I' for Inactive)
    1  A    between atoms: C_2  and  C_21
    2  A    between atoms: N_6  and  C_15
    3  A    between atoms: C_15  and  C_21
                            x       y       z     vdW  Elec       q    Type
                         _______ _______ _______ _____ _____    ______ ____

>  <TORSDO>
F 3

$$$$
=
 OpenBabel10262419443D

 25 28  0  0  1  0  0  0  0  0999 V2000
  188.9930  177.4540  137.9830 C   0  0  0  0  0  0  0  0  0  0  0  0
  188.8000  177.7570  139.3330 C   0  0  0  0  0  0  0  0  0  0  0  0
  186.7910  178.2270  137.4440 C   0  0  0  0  0  3  0  0  0  0  0  0
  190.1860  176.9230  137.2610 C   0  0  2  0  0  3  0  0  0  0  0  0
  190.0910  176.6380  142.6690 N   0  0  0  0  0  2  0  0  0  0  0  0
  189.3100  174.4790  136.0670 C   0  0  0  0  0  2  0  0  0  0  0  0
  186.5870  178.5180  138.7620 N   0  0  0  0  0  0  0  0  0  0  0  0
  189.7880  176.9040  135.8090 N   0  0  1  0  0  0  0  0  0  0  0  0
  189.8290  175.5860  135.1540 C   0  0  0  0  0  2  0  0  0  0  0  0
  187.3320  178.6770  141.1520 C   0  0  1  0  0  3  0  0  0  0  0  0
  185.8760  178.5410  141.5600 C   0  0  0  0  0  1  0  0  0  0  0  0
  189.8950  177.6030  140.3470 C   0  0  0  0  0  2  0  0  0  0  0  0
  190.1800  174.4350  137.2770 C   0  0  0  0  0  3  0  0  0  0  0  0
  188.0170  177.6850  137.0740 C   0  0  0  0  0  0  0  0  0  0  0  0
  188.4510  177.3560  135.7770 N   0  0  0  0  0  2  0  0  0  0  0  0
  188.1620  177.8680  142.0500 N   0  0  0  0  0  0  0  0  0  0  0  0
  190.5960  175.5790  137.8250 C   0  0  0  0  0  3  0  0  0  0  0  0
  189.3270  177.3850  141.7210 C   0  0  0  0  0  0  0  0  0  0  0  0
  187.5480  178.2850  139.7120 C   0  0  0  0  0  0  0  0  0  0  0  0
  189.6170  176.3750  144.0190 C   0  0  0  0  0  2  0  0  0  0  0  0
  190.1950  177.4020  144.9830 C   0  0  2  0  0  3  0  0  0  0  0  0
  191.5150  176.8810  145.5310 C   0  0  0  0  0  1  0  0  0  0  0  0
  189.2150  177.6730  146.1240 C   0  0  2  0  0  3  0  0  0  0  0  0
  189.3960  176.7420  147.1490 O   0  0  0  0  0  1  0  0  0  0  0  0
  187.7800  177.5810  145.6340 C   0  0  0  0  0  1  0  0  0  0  0  0
  1  2  1  0  0  0  0
  2 19  2  0  0  0  0
  2 12  1  0  0  0  0
  3  7  2  0  0  0  0
  4 17  1  1  0  0  0
  4  1  1  0  0  0  0
  5 20  1  0  0  0  0
  6 13  1  0  0  0  0
  7 19  1  0  0  0  0
  8  9  1  1  0  0  0
  8  4  1  0  0  0  0
  9  6  1  0  0  0  0
 10 11  1  1  0  0  0
 10 16  1  0  0  0  0
 12 18  1  0  0  0  0
 13 17  2  0  0  0  0
 14  3  1  0  0  0  0
 14  1  2  0  0  0  0
 15  8  1  0  0  0  0
 15 14  1  0  0  0  0
 18 16  2  0  0  0  0
 18  5  1  0  0  0  0
 19 10  1  0  0  0  0
 20 21  1  0  0  0  0
 21 22  1  1  0  0  0
 21 23  1  0  0  0  0
 23 25  1  6  0  0  0
 23 24  1  0  0  0  0
M  END
>  <MODEL>
4

>  <REMARK>
 VINA RESULT:      -7.5      4.397      6.254
  Name = 
  3 active torsions:
  status: ('A' for Active; 'I' for Inactive)
    1  A    between atoms: C_2  and  C_21
    2  A    between atoms: N_6  and  C_15
    3  A    between atoms: C_15  and  C_21
                            x       y       z     vdW  Elec       q    Type
                         _______ _______ _______ _____ _____    ______ ____

>  <TORSDO>
F 3

$$$$
=
 OpenBabel10262419443D

 25 28  0  0  1  0  0  0  0  0999 V2000
  188.9580  176.8520  144.5430 C   0  0  0  0  0  0  0  0  0  0  0  0
  187.6560  177.2410  144.8640 C   0  0  0  0  0  0  0  0  0  0  0  0
  189.7550  177.5720  146.6850 C   0  0  0  0  0  3  0  0  0  0  0  0
  189.5080  176.1840  143.3260 C   0  0  2  0  0  3  0  0  0  0  0  0
  184.5360  178.3210  143.0890 N   0  0  0  0  0  2  0  0  0  0  0  0
  191.4750  177.9900  142.3080 C   0  0  0  0  0  2  0  0  0  0  0  0
  188.4880  177.9660  147.0060 N   0  0  0  0  0  0  0  0  0  0  0  0
  190.9630  175.9510  143.6320 N   0  0  1  0  0  0  0  0  0  0  0  0
  191.9180  176.5870  142.7100 C   0  0  0  0  0  2  0  0  0  0  0  0
  186.0380  178.2060  146.5250 C   0  0  1  0  0  3  0  0  0  0  0  0
  186.0200  179.3860  147.4810 C   0  0  0  0  0  1  0  0  0  0  0  0
  186.5000  176.9880  143.9420 C   0  0  0  0  0  2  0  0  0  0  0  0
  190.1560  177.8760  141.6210 C   0  0  0  0  0  3  0  0  0  0  0  0
  189.9690  177.0130  145.4290 C   0  0  0  0  0  0  0  0  0  0  0  0
  191.1740  176.5020  144.9140 N   0  0  0  0  0  2  0  0  0  0  0  0
  185.2240  178.5270  145.3490 N   0  0  0  0  0  0  0  0  0  0  0  0
  189.2440  177.0230  142.0930 C   0  0  0  0  0  3  0  0  0  0  0  0
  185.3980  177.9820  144.1770 C   0  0  0  0  0  0  0  0  0  0  0  0
  187.4420  177.8300  146.1290 C   0  0  0  0  0  0  0  0  0  0  0  0
  183.4470  179.2760  143.2260 C   0  0  0  0  0  2  0  0  0  0  0  0
  182.1600  178.6800  142.6760 C   0  0  2  0  0  3  0  0  0  0  0  0
  182.2190  178.6870  141.1560 C   0  0  0  0  0  1  0  0  0  0  0  0
  180.9510  179.4790  143.1650 C   0  0  2  0  0  3  0  0  0  0  0  0
  180.1760  178.7020  144.0290 O   0  0  0  0  0  1  0  0  0  0  0  0
  180.0850  179.9140  141.9960 C   0  0  0  0  0  1  0  0  0  0  0  0
  1  2  2  0  0  0  0
  1 14  1  0  0  0  0
  2 19  1  0  0  0  0
  3  7  1  0  0  0  0
  4 17  1  6  0  0  0
  4  8  1  0  0  0  0
  4  1  1  0  0  0  0
  5 20  1  0  0  0  0
  5 18  1  0  0  0  0
  6  9  1  0  0  0  0
  8  9  1  6  0  0  0
  8 15  1  0  0  0  0
 10 11  1  1  0  0  0
 12 18  1  0  0  0  0
 12  2  1  0  0  0  0
 13 17  2  0  0  0  0
 13  6  1  0  0  0  0
 14  3  2  0  0  0  0
 15 14  1  0  0  0  0
 16 10  1  0  0  0  0
 18 16  2  0  0  0  0
 19 10  1  0  0  0  0
 19  7  2  0  0  0  0
 21 22  1  6  0  0  0
 21 23  1  0  0  0  0
 21 20  1  0  0  0  0
 23 25  1  6  0  0  0
 23 24  1  0  0  0  0
M  END
>  <MODEL>
5

>  <REMARK>
 VINA RESULT:      -7.4      3.076      7.677
  Name = 
  3 active torsions:
  status: ('A' for Active; 'I' for Inactive)
    1  A    between atoms: C_2  and  C_21
    2  A    between atoms: N_6  and  C_15
    3  A    between atoms: C_15  and  C_21
                            x       y       z     vdW  Elec       q    Type
                         _______ _______ _______ _____ _____    ______ ____

>  <TORSDO>
F 3

$$$$
=
 OpenBabel10262419443D

 25 28  0  0  1  0  0  0  0  0999 V2000
  190.0630  176.8650  140.2520 C   0  0  0  0  0  0  0  0  0  0  0  0
  189.8620  176.9020  141.6340 C   0  0  0  0  0  0  0  0  0  0  0  0
  192.3690  177.4530  140.5210 C   0  0  0  0  0  3  0  0  0  0  0  0
  189.1350  176.5080  139.1380 C   0  0  2  0  0  3  0  0  0  0  0  0
  187.0480  177.4730  144.0420 N   0  0  0  0  0  2  0  0  0  0  0  0
  189.0320  178.8340  137.4800 C   0  0  0  0  0  2  0  0  0  0  0  0
  192.1830  177.5020  141.8720 N   0  0  0  0  0  0  0  0  0  0  0  0
  189.9770  176.5730  137.8920 N   0  0  1  0  0  0  0  0  0  0  0  0
  189.5260  177.5280  136.8660 C   0  0  0  0  0  2  0  0  0  0  0  0
  190.7900  177.2420  143.9420 C   0  0  1  0  0  3  0  0  0  0  0  0
  191.7040  178.2480  144.6200 C   0  0  0  0  0  1  0  0  0  0  0  0
  188.5530  176.5180  142.2580 C   0  0  0  0  0  2  0  0  0  0  0  0
  187.8810  178.5170  138.3720 C   0  0  0  0  0  3  0  0  0  0  0  0
  191.2790  177.1310  139.7200 C   0  0  0  0  0  0  0  0  0  0  0  0
  191.2580  176.9810  138.3210 N   0  0  0  0  0  2  0  0  0  0  0  0
  189.4020  177.5240  144.3180 N   0  0  0  0  0  0  0  0  0  0  0  0
  187.9280  177.4240  139.1370 C   0  0  0  0  0  3  0  0  0  0  0  0
  188.3730  177.1960  143.5870 C   0  0  0  0  0  0  0  0  0  0  0  0
  190.9620  177.2510  142.4450 C   0  0  0  0  0  0  0  0  0  0  0  0
  186.7810  178.1280  145.3140 C   0  0  0  0  0  2  0  0  0  0  0  0
  185.4930  178.9340  145.2240 C   0  0  2  0  0  3  0  0  0  0  0  0
  184.5810  178.5410  146.3770 C   0  0  0  0  0  1  0  0  0  0  0  0
  184.7980  178.6810  143.8860 C   0  0  2  0  0  3  0  0  0  0  0  0
  185.1400  179.6760  142.9680 O   0  0  0  0  0  1  0  0  0  0  0  0
  183.2890  178.6750  144.0560 C   0  0  0  0  0  1  0  0  0  0  0  0
  1  2  1  0  0  0  0
  2 12  1  0  0  0  0
  2 19  2  0  0  0  0
  3  7  2  0  0  0  0
  4 17  1  6  0  0  0
  4  1  1  0  0  0  0
  5 20  1  0  0  0  0
  6 13  1  0  0  0  0
  7 19  1  0  0  0  0
  8  9  1  6  0  0  0
  8 15  1  0  0  0  0
  8  4  1  0  0  0  0
  9  6  1  0  0  0  0
 10 16  1  0  0  0  0
 10 11  1  1  0  0  0
 12 18  1  0  0  0  0
 13 17  2  0  0  0  0
 14  1  2  0  0  0  0
 14  3  1  0  0  0  0
 15 14  1  0  0  0  0
 18  5  1  0  0  0  0
 18 16  2  0  0  0  0
 19 10  1  0  0  0  0
 21 20  1  0  0  0  0
 21 22  1  1  0  0  0
 23 25  1  1  0  0  0
 23 21  1  0  0  0  0
 24 23  1  0  0  0  0
M  END
>  <MODEL>
6

>  <REMARK>
 VINA RESULT:      -7.3      3.611      7.120
  Name = 
  3 active torsions:
  status: ('A' for Active; 'I' for Inactive)
    1  A    between atoms: C_2  and  C_21
    2  A    between atoms: N_6  and  C_15
    3  A    between atoms: C_15  and  C_21
                            x       y       z     vdW  Elec       q    Type
                         _______ _______ _______ _____ _____    ______ ____

>  <TORSDO>
F 3

$$$$
=
 OpenBabel10262419443D

 25 28  0  0  1  0  0  0  0  0999 V2000
  188.4680  178.0330  140.7660 C   0  0  0  0  0  0  0  0  0  0  0  0
  187.1940  178.3220  140.2730 C   0  0  0  0  0  0  0  0  0  0  0  0
  189.1710  177.2310  138.6210 C   0  0  0  0  0  3  0  0  0  0  0  0
  189.0680  178.2530  142.1150 C   0  0  2  0  0  3  0  0  0  0  0  0
  183.6940  178.6480  141.5730 N   0  0  0  0  0  2  0  0  0  0  0  0
  189.8420  175.6550  143.0200 C   0  0  0  0  0  2  0  0  0  0  0  0
  187.9250  177.5000  138.1300 N   0  0  0  0  0  0  0  0  0  0  0  0
  190.5020  177.8130  141.9810 N   0  0  1  0  0  0  0  0  0  0  0  0
  190.9210  176.7240  142.8790 C   0  0  0  0  0  2  0  0  0  0  0  0
  185.5860  178.3770  138.3450 C   0  0  1  0  0  3  0  0  0  0  0  0
  185.1860  177.4350  137.2220 C   0  0  0  0  0  1  0  0  0  0  0  0
  186.1500  178.9940  141.1140 C   0  0  0  0  0  2  0  0  0  0  0  0
  188.6280  176.3010  143.5940 C   0  0  0  0  0  3  0  0  0  0  0  0
  189.4210  177.5060  139.9610 C   0  0  0  0  0  0  0  0  0  0  0  0
  190.6350  177.3500  140.6550 N   0  0  0  0  0  2  0  0  0  0  0  0
  184.5470  178.3610  139.3800 N   0  0  0  0  0  0  0  0  0  0  0  0
  188.2750  177.5190  143.1770 C   0  0  0  0  0  3  0  0  0  0  0  0
  184.7690  178.6490  140.6320 C   0  0  0  0  0  0  0  0  0  0  0  0
  186.9330  178.0210  138.9190 C   0  0  0  0  0  0  0  0  0  0  0  0
  182.3270  178.3230  141.1940 C   0  0  0  0  0  2  0  0  0  0  0  0
  181.3480  179.0320  142.1180 C   0  0  2  0  0  3  0  0  0  0  0  0
  181.8940  179.0030  143.5370 C   0  0  0  0  0  1  0  0  0  0  0  0
  179.9770  178.3560  142.0620 C   0  0  2  0  0  3  0  0  0  0  0  0
  179.6800  177.7620  143.2910 O   0  0  0  0  0  1  0  0  0  0  0  0
  179.9490  177.2850  140.9860 C   0  0  0  0  0  1  0  0  0  0  0  0
  1  4  1  0  0  0  0
  2  1  1  0  0  0  0
  2 12  1  0  0  0  0
  3 14  1  0  0  0  0
  4 17  1  1  0  0  0
  6 13  1  0  0  0  0
  7  3  2  0  0  0  0
  7 19  1  0  0  0  0
  8  4  1  0  0  0  0
  8  9  1  1  0  0  0
  9  6  1  0  0  0  0
 10 11  1  6  0  0  0
 10 19  1  0  0  0  0
 10 16  1  0  0  0  0
 14 15  1  0  0  0  0
 14  1  2  0  0  0  0
 15  8  1  0  0  0  0
 16 18  2  0  0  0  0
 17 13  2  0  0  0  0
 18 12  1  0  0  0  0
 18  5  1  0  0  0  0
 19  2  2  0  0  0  0
 20  5  1  0  0  0  0
 20 21  1  0  0  0  0
 21 22  1  1  0  0  0
 23 25  1  6  0  0  0
 23 21  1  0  0  0  0
 23 24  1  0  0  0  0
M  END
>  <MODEL>
7

>  <REMARK>
 VINA RESULT:      -7.1      3.507      7.977
  Name = 
  3 active torsions:
  status: ('A' for Active; 'I' for Inactive)
    1  A    between atoms: C_2  and  C_21
    2  A    between atoms: N_6  and  C_15
    3  A    between atoms: C_15  and  C_21
                            x       y       z     vdW  Elec       q    Type
                         _______ _______ _______ _____ _____    ______ ____

>  <TORSDO>
F 3

$$$$
=
 OpenBabel10262419443D

 25 28  0  0  1  0  0  0  0  0999 V2000
  182.2910  178.5020  141.2530 C   0  0  0  0  0  0  0  0  0  0  0  0
  183.4770  178.8710  141.8920 C   0  0  0  0  0  0  0  0  0  0  0  0
  181.0970  178.5550  143.3280 C   0  0  0  0  0  3  0  0  0  0  0  0
  181.9910  178.2650  139.8100 C   0  0  2  0  0  3  0  0  0  0  0  0
  187.1710  178.5060  141.3740 N   0  0  0  0  0  2  0  0  0  0  0  0
  181.0620  175.5660  139.6740 C   0  0  0  0  0  2  0  0  0  0  0  0
  182.2520  178.9060  143.9660 N   0  0  0  0  0  0  0  0  0  0  0  0
  180.5120  177.9880  139.7590 N   0  0  1  0  0  0  0  0  0  0  0  0
  180.1280  176.6780  139.2060 C   0  0  0  0  0  2  0  0  0  0  0  0
  184.6860  179.5090  143.9990 C   0  0  1  0  0  3  0  0  0  0  0  0
  184.7380  179.0030  145.4300 C   0  0  0  0  0  1  0  0  0  0  0  0
  184.7410  179.1380  141.1310 C   0  0  0  0  0  2  0  0  0  0  0  0
  182.4380  175.8940  139.2040 C   0  0  0  0  0  3  0  0  0  0  0  0
  181.1430  178.3520  141.9530 C   0  0  0  0  0  0  0  0  0  0  0  0
  180.0720  178.0330  141.0990 N   0  0  0  0  0  2  0  0  0  0  0  0
  185.8890  179.0650  143.2880 N   0  0  0  0  0  0  0  0  0  0  0  0
  182.8650  177.1580  139.2590 C   0  0  0  0  0  3  0  0  0  0  0  0
  185.9480  178.9050  141.9960 C   0  0  0  0  0  0  0  0  0  0  0  0
  183.4360  179.0530  143.2910 C   0  0  0  0  0  0  0  0  0  0  0  0
  188.3860  178.2550  142.1340 C   0  0  0  0  0  2  0  0  0  0  0  0
  188.5820  176.7580  142.3240 C   0  0  2  0  0  3  0  0  0  0  0  0
  188.1590  176.3770  143.7350 C   0  0  0  0  0  1  0  0  0  0  0  0
  190.0430  176.3770  142.0860 C   0  0  2  0  0  3  0  0  0  0  0  0
  190.3800  175.2530  142.8430 O   0  0  0  0  0  1  0  0  0  0  0  0
  190.9670  177.5180  142.4750 C   0  0  0  0  0  1  0  0  0  0  0  0
  1  2  2  0  0  0  0
  1 14  1  0  0  0  0
  2 19  1  0  0  0  0
  3  7  1  0  0  0  0
  4 17  1  1  0  0  0
  4  1  1  0  0  0  0
  5 18  1  0  0  0  0
  5 20  1  0  0  0  0
  8  9  1  1  0  0  0
  8  4  1  0  0  0  0
  8 15  1  0  0  0  0
  9  6  1  0  0  0  0
 10 11  1  1  0  0  0
 12  2  1  0  0  0  0
 12 18  1  0  0  0  0
 13 17  2  0  0  0  0
 13  6  1  0  0  0  0
 14  3  2  0  0  0  0
 15 14  1  0  0  0  0
 16 10  1  0  0  0  0
 18 16  2  0  0  0  0
 19  7  2  0  0  0  0
 19 10  1  0  0  0  0
 20 21  1  0  0  0  0
 21 22  1  1  0  0  0
 23 21  1  0  0  0  0
 23 25  1  1  0  0  0
 23 24  1  0  0  0  0
M  END
>  <MODEL>
8

>  <REMARK>
 VINA RESULT:      -7.1      1.437      1.773
  Name = 
  3 active torsions:
  status: ('A' for Active; 'I' for Inactive)
    1  A    between atoms: C_2  and  C_21
    2  A    between atoms: N_6  and  C_15
    3  A    between atoms: C_15  and  C_21
                            x       y       z     vdW  Elec       q    Type
                         _______ _______ _______ _____ _____    ______ ____

>  <TORSDO>
F 3

$$$$
=
 OpenBabel10262419443D

 25 28  0  0  1  0  0  0  0  0999 V2000
  189.1700  177.1900  141.7170 C   0  0  0  0  0  0  0  0  0  0  0  0
  189.5360  177.0920  140.3730 C   0  0  0  0  0  0  0  0  0  0  0  0
  187.3960  178.7050  141.1760 C   0  0  0  0  0  3  0  0  0  0  0  0
  189.7080  176.5040  142.9290 C   0  0  2  0  0  3  0  0  0  0  0  0
  192.5940  176.3160  138.3500 N   0  0  0  0  0  2  0  0  0  0  0  0
  190.5990  178.6110  144.6430 C   0  0  0  0  0  2  0  0  0  0  0  0
  187.7500  178.6260  139.8600 N   0  0  0  0  0  0  0  0  0  0  0  0
  188.8300  176.9660  144.0610 N   0  0  1  0  0  0  0  0  0  0  0  0
  189.5190  177.6650  145.1590 C   0  0  0  0  0  2  0  0  0  0  0  0
  189.1370  177.7240  137.9750 C   0  0  1  0  0  3  0  0  0  0  0  0
  188.8380  179.0030  137.2130 C   0  0  0  0  0  1  0  0  0  0  0  0
  190.6170  176.1620  139.9080 C   0  0  0  0  0  2  0  0  0  0  0  0
  191.6010  177.8000  143.8950 C   0  0  0  0  0  3  0  0  0  0  0  0
  188.1330  177.9710  142.0990 C   0  0  0  0  0  0  0  0  0  0  0  0
  187.9140  177.8720  143.4850 N   0  0  0  0  0  2  0  0  0  0  0  0
  190.5470  177.3680  137.7830 N   0  0  0  0  0  0  0  0  0  0  0  0
  191.1820  176.8100  143.1040 C   0  0  0  0  0  3  0  0  0  0  0  0
  191.2340  176.6520  138.6290 C   0  0  0  0  0  0  0  0  0  0  0  0
  188.8030  177.8550  139.4390 C   0  0  0  0  0  0  0  0  0  0  0  0
  193.2720  176.7510  137.1380 C   0  0  0  0  0  2  0  0  0  0  0  0
  193.6230  175.5470  136.2770 C   0  0  2  0  0  3  0  0  0  0  0  0
  193.6550  174.3030  137.1510 C   0  0  0  0  0  1  0  0  0  0  0  0
  194.9770  175.7540  135.5970 C   0  0  2  0  0  3  0  0  0  0  0  0
  196.0100  175.6280  136.5290 O   0  0  0  0  0  1  0  0  0  0  0  0
  195.0570  177.1340  134.9680 C   0  0  0  0  0  1  0  0  0  0  0  0
  1 14  1  0  0  0  0
  1  4  1  0  0  0  0
  2  1  2  0  0  0  0
  3 14  2  0  0  0  0
  4 17  1  1  0  0  0
  4  8  1  0  0  0  0
  5 18  1  0  0  0  0
  6  9  1  0  0  0  0
  7  3  1  0  0  0  0
  8  9  1  1  0  0  0
 10 11  1  6  0  0  0
 10 19  1  0  0  0  0
 12  2  1  0  0  0  0
 13  6  1  0  0  0  0
 14 15  1  0  0  0  0
 15  8  1  0  0  0  0
 16 10  1  0  0  0  0
 16 18  2  0  0  0  0
 17 13  2  0  0  0  0
 18 12  1  0  0  0  0
 19  7  2  0  0  0  0
 19  2  1  0  0  0  0
 20  5  1  0  0  0  0
 21 20  1  0  0  0  0
 21 22  1  1  0  0  0
 23 25  1  1  0  0  0
 23 21  1  0  0  0  0
 23 24  1  0  0  0  0
M  END
>  <MODEL>
9

>  <REMARK>
 VINA RESULT:      -7.1      5.012      8.345
  Name = 
  3 active torsions:
  status: ('A' for Active; 'I' for Inactive)
    1  A    between atoms: C_2  and  C_21
    2  A    between atoms: N_6  and  C_15
    3  A    between atoms: C_15  and  C_21
                            x       y       z     vdW  Elec       q    Type
                         _______ _______ _______ _____ _____    ______ ____

>  <TORSDO>
F 3

$$$$
