=
 OpenBabel10262422043D

 30 31  0  0  1  0  0  0  0  0999 V2000
  189.8670  177.6830  141.9440 C   0  0  1  0  0  3  0  0  0  0  0  0
  190.5860  178.1390  144.4450 C   0  0  1  0  0  3  0  0  0  0  0  0
  188.8390  176.3280  143.9640 C   0  0  0  0  0  1  0  0  0  0  0  0
  191.3800  176.9600  143.9000 C   0  0  2  0  0  3  0  0  0  0  0  0
  191.1590  179.4210  143.8610 C   0  0  0  0  0  1  0  0  0  0  0  0
  189.9540  177.2090  143.4070 C   0  0  1  0  0  0  0  0  0  0  0  0
  191.4940  175.8780  144.9670 C   0  0  0  0  0  2  0  0  0  0  0  0
  191.8280  176.4980  146.3150 C   0  0  0  0  0  2  0  0  0  0  0  0
  190.7880  176.2740  147.2190 O   0  0  0  0  0  0  0  0  0  0  0  0
  190.7290  177.4410  147.9850 C   0  0  0  0  0  2  0  0  0  0  0  0
  189.3060  177.9670  148.0210 C   0  0  0  0  0  2  0  0  0  0  0  0
  188.3280  176.8670  147.6570 C   0  0  0  0  0  1  0  0  0  0  0  0
  190.8320  176.9080  141.0370 C   0  0  1  0  0  3  0  0  0  0  0  0
  190.2170  176.5670  139.6830 C   0  0  0  0  0  1  0  0  0  0  0  0
  192.1330  177.6750  140.8600 C   0  0  0  0  0  2  0  0  0  0  0  0
  192.8850  177.1720  139.6410 C   0  0  0  0  0  2  0  0  0  0  0  0
  194.2300  177.0040  139.9620 O   0  0  0  0  0  1  0  0  0  0  0  0
  188.4330  177.6820  141.4070 C   0  0  0  0  0  2  0  0  0  0  0  0
  187.8490  179.0850  141.4230 C   0  0  0  0  0  2  0  0  0  0  0  0
  186.3970  179.0260  141.5360 N   0  0  0  0  0  0  0  0  0  0  0  0
  186.0210  178.0100  142.5310 C   0  0  0  0  0  2  0  0  0  0  0  0
  184.4440  179.4710  143.5830 O   0  0  0  0  0  0  0  0  0  0  0  0
  185.3060  178.5650  143.7340 C   0  0  0  0  0  0  0  0  0  0  0  0
  185.5920  178.0450  145.0330 N   0  0  0  0  0  2  0  0  0  0  0  0
  184.9000  178.5210  146.2200 C   0  0  0  0  0  2  0  0  0  0  0  0
  185.8760  179.2580  147.1120 C   0  0  0  0  0  1  0  0  0  0  0  0
  185.8420  178.6850  140.2290 C   0  0  0  0  0  2  0  0  0  0  0  0
  183.8890  178.9270  138.7700 C   0  0  0  0  0  2  0  0  0  0  0  0
  184.4210  179.2040  140.1190 C   0  0  2  0  0  3  0  0  0  0  0  0
  184.3740  180.1980  139.1250 O   0  0  0  0  0  0  0  0  0  0  0  0
  1 18  1  6  0  0  0
  1  6  1  0  0  0  0
  2  5  1  6  0  0  0
  4  2  1  0  0  0  0
  4  7  1  1  0  0  0
  6  4  1  0  0  0  0
  6  3  1  1  0  0  0
  6  2  1  0  0  0  0
  7  8  1  0  0  0  0
  8  9  1  0  0  0  0
  9 10  1  0  0  0  0
 10 11  1  0  0  0  0
 12 11  1  0  0  0  0
 13 14  1  6  0  0  0
 13  1  1  0  0  0  0
 15 13  1  0  0  0  0
 16 17  1  0  0  0  0
 16 15  1  0  0  0  0
 18 19  1  0  0  0  0
 19 20  1  0  0  0  0
 20 21  1  0  0  0  0
 21 23  1  0  0  0  0
 22 23  2  0  0  0  0
 23 24  1  0  0  0  0
 24 25  1  0  0  0  0
 25 26  1  0  0  0  0
 27 20  1  0  0  0  0
 28 30  1  0  0  0  0
 28 29  1  0  0  0  0
 29 27  1  6  0  0  0
 30 29  1  0  0  0  0
M  END
>  <MODEL>
1

>  <REMARK>
 VINA RESULT:      -6.1      0.000      0.000
  Name = 
  17 active torsions:
  status: ('A' for Active; 'I' for Inactive)
    1  A    between atoms: C_1  and  N_4
    2  A    between atoms: C_1  and  C_22
    3  A    between atoms: C_2  and  C_14
    4  A    between atoms: C_2  and  C_29
    5  A    between atoms: N_4  and  C_5
    6  A    between atoms: N_4  and  C_9
    7  A    between atoms: C_5  and  C_17
    8  A    between atoms: C_9  and  C_12
    9  A    between atoms: C_10  and  O_15
   10  A    between atoms: C_10  and  C_16
   11  A    between atoms: C_11  and  C_24
   12  A    between atoms: C_13  and  N_27
   13  A    between atoms: C_14  and  C_20
   14  A    between atoms: O_15  and  C_25
   15  A    between atoms: C_22  and  C_29
   16  A    between atoms: C_23  and  C_29
   17  A    between atoms: C_24  and  C_25
                            x       y       z     vdW  Elec       q    Type
                         _______ _______ _______ _____ _____    ______ ____

>  <TORSDO>
F 17

$$$$
=
 OpenBabel10262422043D

 30 31  0  0  1  0  0  0  0  0999 V2000
  188.7540  177.6110  143.0890 C   0  0  1  0  0  3  0  0  0  0  0  0
  191.2750  178.0370  143.7540 C   0  0  1  0  0  3  0  0  0  0  0  0
  190.5470  175.6710  143.0930 C   0  0  0  0  0  1  0  0  0  0  0  0
  191.1410  178.0760  142.2380 C   0  0  2  0  0  3  0  0  0  0  0  0
  190.7220  179.3340  144.3220 C   0  0  0  0  0  1  0  0  0  0  0  0
  190.2280  177.1640  143.0590 C   0  0  1  0  0  0  0  0  0  0  0  0
  192.3260  177.3620  141.5980 C   0  0  0  0  0  2  0  0  0  0  0  0
  192.2100  177.4020  140.0820 C   0  0  0  0  0  2  0  0  0  0  0  0
  193.4400  177.0990  139.4960 O   0  0  0  0  0  0  0  0  0  0  0  0
  193.1150  176.3930  138.3360 C   0  0  0  0  0  2  0  0  0  0  0  0
  191.6130  176.1900  138.2550 C   0  0  0  0  0  2  0  0  0  0  0  0
  191.2920  174.9490  137.4440 C   0  0  0  0  0  1  0  0  0  0  0  0
  188.3410  178.2980  141.7810 C   0  0  1  0  0  3  0  0  0  0  0  0
  188.4290  177.3650  140.5770 C   0  0  0  0  0  1  0  0  0  0  0  0
  186.9460  178.8890  141.9030 C   0  0  0  0  0  2  0  0  0  0  0  0
  186.1590  178.6650  140.6240 C   0  0  0  0  0  2  0  0  0  0  0  0
  185.0610  179.5210  140.5990 O   0  0  0  0  0  1  0  0  0  0  0  0
  187.8010  176.4770  143.4790 C   0  0  0  0  0  2  0  0  0  0  0  0
  186.6340  177.0090  144.2960 C   0  0  0  0  0  2  0  0  0  0  0  0
  187.1090  177.9570  145.2960 N   0  0  0  0  0  0  0  0  0  0  0  0
  187.3490  177.2550  146.5660 C   0  0  0  0  0  2  0  0  0  0  0  0
  188.8430  178.3920  148.0500 O   0  0  0  0  0  0  0  0  0  0  0  0
  188.7080  177.5100  147.1610 C   0  0  0  0  0  0  0  0  0  0  0  0
  189.8280  176.7350  146.7330 N   0  0  0  0  0  2  0  0  0  0  0  0
  191.1520  176.9170  147.3050 C   0  0  0  0  0  2  0  0  0  0  0  0
  192.0590  175.7950  146.8490 C   0  0  0  0  0  1  0  0  0  0  0  0
  186.0960  178.9930  145.4740 C   0  0  0  0  0  2  0  0  0  0  0  0
  184.0680  179.6890  144.2900 C   0  0  0  0  0  2  0  0  0  0  0  0
  184.7780  178.5370  144.8780 C   0  0  2  0  0  3  0  0  0  0  0  0
  183.7250  179.1780  145.5540 O   0  0  0  0  0  0  0  0  0  0  0  0
  1 18  1  6  0  0  0
  2  5  1  1  0  0  0
  4  7  1  6  0  0  0
  4  6  1  0  0  0  0
  4  2  1  0  0  0  0
  6  1  1  0  0  0  0
  6  3  1  6  0  0  0
  6  2  1  0  0  0  0
  8  7  1  0  0  0  0
  9  8  1  0  0  0  0
 10  9  1  0  0  0  0
 11 10  1  0  0  0  0
 12 11  1  0  0  0  0
 13 14  1  6  0  0  0
 13 15  1  0  0  0  0
 13  1  1  0  0  0  0
 16 15  1  0  0  0  0
 17 16  1  0  0  0  0
 18 19  1  0  0  0  0
 19 20  1  0  0  0  0
 20 27  1  0  0  0  0
 20 21  1  0  0  0  0
 21 23  1  0  0  0  0
 23 22  2  0  0  0  0
 24 23  1  0  0  0  0
 24 25  1  0  0  0  0
 26 25  1  0  0  0  0
 28 29  1  0  0  0  0
 28 30  1  0  0  0  0
 29 27  1  1  0  0  0
 29 30  1  0  0  0  0
M  END
>  <MODEL>
2

>  <REMARK>
 VINA RESULT:      -5.9      1.705      5.763
  Name = 
  17 active torsions:
  status: ('A' for Active; 'I' for Inactive)
    1  A    between atoms: C_1  and  N_4
    2  A    between atoms: C_1  and  C_22
    3  A    between atoms: C_2  and  C_14
    4  A    between atoms: C_2  and  C_29
    5  A    between atoms: N_4  and  C_5
    6  A    between atoms: N_4  and  C_9
    7  A    between atoms: C_5  and  C_17
    8  A    between atoms: C_9  and  C_12
    9  A    between atoms: C_10  and  O_15
   10  A    between atoms: C_10  and  C_16
   11  A    between atoms: C_11  and  C_24
   12  A    between atoms: C_13  and  N_27
   13  A    between atoms: C_14  and  C_20
   14  A    between atoms: O_15  and  C_25
   15  A    between atoms: C_22  and  C_29
   16  A    between atoms: C_23  and  C_29
   17  A    between atoms: C_24  and  C_25
                            x       y       z     vdW  Elec       q    Type
                         _______ _______ _______ _____ _____    ______ ____

>  <TORSDO>
F 17

$$$$
=
 OpenBabel10262422043D

 30 31  0  0  1  0  0  0  0  0999 V2000
  189.9520  177.6710  141.8110 C   0  0  1  0  0  3  0  0  0  0  0  0
  190.4000  178.2400  144.3520 C   0  0  1  0  0  3  0  0  0  0  0  0
  188.9170  176.2330  143.7710 C   0  0  0  0  0  1  0  0  0  0  0  0
  191.3660  177.1540  143.9020 C   0  0  2  0  0  3  0  0  0  0  0  0
  190.8710  179.5720  143.7890 C   0  0  0  0  0  1  0  0  0  0  0  0
  189.9680  177.2290  143.2870 C   0  0  1  0  0  0  0  0  0  0  0  0
  191.5110  176.1060  145.0000 C   0  0  0  0  0  2  0  0  0  0  0  0
  191.6740  176.7790  146.3540 C   0  0  0  0  0  2  0  0  0  0  0  0
  190.7790  176.2320  147.2750 O   0  0  0  0  0  0  0  0  0  0  0  0
  189.9270  177.2880  147.6090 C   0  0  0  0  0  2  0  0  0  0  0  0
  188.4810  176.8370  147.5190 C   0  0  0  0  0  2  0  0  0  0  0  0
  187.6350  177.9090  146.8590 C   0  0  0  0  0  1  0  0  0  0  0  0
  190.9730  176.8900  140.9730 C   0  0  1  0  0  3  0  0  0  0  0  0
  190.4380  176.5190  139.5940 C   0  0  0  0  0  1  0  0  0  0  0  0
  192.2760  177.6660  140.8560 C   0  0  0  0  0  2  0  0  0  0  0  0
  193.0580  177.2090  139.6380 C   0  0  0  0  0  2  0  0  0  0  0  0
  194.3490  176.8520  140.0230 O   0  0  0  0  0  1  0  0  0  0  0  0
  188.5490  177.6390  141.2010 C   0  0  0  0  0  2  0  0  0  0  0  0
  187.6900  178.7600  141.7630 C   0  0  0  0  0  2  0  0  0  0  0  0
  186.3100  178.3120  141.9130 N   0  0  0  0  0  0  0  0  0  0  0  0
  185.4200  179.1920  141.1410 C   0  0  0  0  0  2  0  0  0  0  0  0
  183.8210  178.2970  139.6030 O   0  0  0  0  0  0  0  0  0  0  0  0
  185.0170  178.6350  139.8020 C   0  0  0  0  0  0  0  0  0  0  0  0
  185.9870  178.5180  138.7600 N   0  0  0  0  0  2  0  0  0  0  0  0
  185.6380  178.0220  137.4380 C   0  0  0  0  0  2  0  0  0  0  0  0
  186.4560  176.7860  137.1300 C   0  0  0  0  0  1  0  0  0  0  0  0
  185.9580  178.3520  143.3290 C   0  0  0  0  0  2  0  0  0  0  0  0
  184.2740  179.1270  144.9300 C   0  0  0  0  0  2  0  0  0  0  0  0
  184.7460  179.2400  143.5360 C   0  0  2  0  0  3  0  0  0  0  0  0
  183.6450  178.4360  143.8800 O   0  0  0  0  0  0  0  0  0  0  0  0
  1 18  1  6  0  0  0
  1  6  1  0  0  0  0
  2  5  1  6  0  0  0
  4  2  1  0  0  0  0
  4  7  1  1  0  0  0
  6  3  1  1  0  0  0
  6  4  1  0  0  0  0
  6  2  1  0  0  0  0
  7  8  1  0  0  0  0
  8  9  1  0  0  0  0
  9 10  1  0  0  0  0
 11 10  1  0  0  0  0
 12 11  1  0  0  0  0
 13 14  1  6  0  0  0
 13  1  1  0  0  0  0
 15 13  1  0  0  0  0
 16 17  1  0  0  0  0
 16 15  1  0  0  0  0
 18 19  1  0  0  0  0
 19 20  1  0  0  0  0
 20 27  1  0  0  0  0
 21 20  1  0  0  0  0
 22 23  2  0  0  0  0
 23 21  1  0  0  0  0
 24 23  1  0  0  0  0
 25 24  1  0  0  0  0
 26 25  1  0  0  0  0
 29 27  1  1  0  0  0
 29 30  1  0  0  0  0
 29 28  1  0  0  0  0
 30 28  1  0  0  0  0
M  END
>  <MODEL>
3

>  <REMARK>
 VINA RESULT:      -5.9      1.209      3.431
  Name = 
  17 active torsions:
  status: ('A' for Active; 'I' for Inactive)
    1  A    between atoms: C_1  and  N_4
    2  A    between atoms: C_1  and  C_22
    3  A    between atoms: C_2  and  C_14
    4  A    between atoms: C_2  and  C_29
    5  A    between atoms: N_4  and  C_5
    6  A    between atoms: N_4  and  C_9
    7  A    between atoms: C_5  and  C_17
    8  A    between atoms: C_9  and  C_12
    9  A    between atoms: C_10  and  O_15
   10  A    between atoms: C_10  and  C_16
   11  A    between atoms: C_11  and  C_24
   12  A    between atoms: C_13  and  N_27
   13  A    between atoms: C_14  and  C_20
   14  A    between atoms: O_15  and  C_25
   15  A    between atoms: C_22  and  C_29
   16  A    between atoms: C_23  and  C_29
   17  A    between atoms: C_24  and  C_25
                            x       y       z     vdW  Elec       q    Type
                         _______ _______ _______ _____ _____    ______ ____

>  <TORSDO>
F 17

$$$$
=
 OpenBabel10262422043D

 30 31  0  0  1  0  0  0  0  0999 V2000
  188.8910  177.7280  143.3180 C   0  0  1  0  0  3  0  0  0  0  0  0
  191.5240  177.9320  143.4020 C   0  0  1  0  0  3  0  0  0  0  0  0
  190.4680  175.6330  142.9960 C   0  0  0  0  0  1  0  0  0  0  0  0
  191.0630  177.9610  141.9520 C   0  0  2  0  0  3  0  0  0  0  0  0
  191.2230  179.2820  144.0340 C   0  0  0  0  0  1  0  0  0  0  0  0
  190.2790  177.1480  142.9820 C   0  0  1  0  0  0  0  0  0  0  0  0
  192.0130  177.1340  141.0930 C   0  0  0  0  0  2  0  0  0  0  0  0
  191.5250  177.0960  139.6530 C   0  0  0  0  0  2  0  0  0  0  0  0
  190.7350  175.9650  139.4410 O   0  0  0  0  0  0  0  0  0  0  0  0
  190.9520  175.6280  138.1030 C   0  0  0  0  0  2  0  0  0  0  0  0
  192.0900  176.4570  137.5360 C   0  0  0  0  0  2  0  0  0  0  0  0
  192.9020  175.6350  136.5550 C   0  0  0  0  0  1  0  0  0  0  0  0
  187.9380  177.6510  142.1180 C   0  0  1  0  0  3  0  0  0  0  0  0
  186.4710  177.7000  142.5310 C   0  0  0  0  0  1  0  0  0  0  0  0
  188.2520  178.7500  141.1140 C   0  0  0  0  0  2  0  0  0  0  0  0
  188.0720  178.2400  139.6950 C   0  0  0  0  0  2  0  0  0  0  0  0
  186.8240  178.6320  139.2160 O   0  0  0  0  0  1  0  0  0  0  0  0
  188.2860  177.1150  144.5840 C   0  0  0  0  0  2  0  0  0  0  0  0
  188.6910  177.9100  145.8150 C   0  0  0  0  0  2  0  0  0  0  0  0
  188.2420  177.2310  147.0240 N   0  0  0  0  0  0  0  0  0  0  0  0
  187.6100  178.2030  147.9290 C   0  0  0  0  0  2  0  0  0  0  0  0
  186.0210  179.9800  147.7140 O   0  0  0  0  0  0  0  0  0  0  0  0
  186.3390  178.8040  147.3920 C   0  0  0  0  0  0  0  0  0  0  0  0
  185.5140  178.0470  146.5050 N   0  0  0  0  0  2  0  0  0  0  0  0
  184.2970  178.5980  145.9300 C   0  0  0  0  0  2  0  0  0  0  0  0
  184.6380  179.3870  144.6850 C   0  0  0  0  0  1  0  0  0  0  0  0
  189.3980  176.6160  147.6700 C   0  0  0  0  0  2  0  0  0  0  0  0
  191.6880  175.9840  147.0720 C   0  0  0  0  0  2  0  0  0  0  0  0
  190.6730  177.0510  146.9720 C   0  0  2  0  0  3  0  0  0  0  0  0
  191.7130  177.1080  147.9170 O   0  0  0  0  0  0  0  0  0  0  0  0
  1 18  1  1  0  0  0
  2  5  1  1  0  0  0
  4  7  1  6  0  0  0
  4  6  1  0  0  0  0
  4  2  1  0  0  0  0
  6  3  1  6  0  0  0
  6  1  1  0  0  0  0
  6  2  1  0  0  0  0
  8  7  1  0  0  0  0
  9  8  1  0  0  0  0
 10  9  1  0  0  0  0
 11 10  1  0  0  0  0
 12 11  1  0  0  0  0
 13 14  1  1  0  0  0
 13  1  1  0  0  0  0
 15 13  1  0  0  0  0
 16 15  1  0  0  0  0
 17 16  1  0  0  0  0
 18 19  1  0  0  0  0
 19 20  1  0  0  0  0
 20 27  1  0  0  0  0
 20 21  1  0  0  0  0
 23 22  2  0  0  0  0
 23 21  1  0  0  0  0
 24 23  1  0  0  0  0
 25 24  1  0  0  0  0
 26 25  1  0  0  0  0
 28 30  1  0  0  0  0
 29 28  1  0  0  0  0
 29 27  1  1  0  0  0
 29 30  1  0  0  0  0
M  END
>  <MODEL>
4

>  <REMARK>
 VINA RESULT:      -5.8      2.122      6.382
  Name = 
  17 active torsions:
  status: ('A' for Active; 'I' for Inactive)
    1  A    between atoms: C_1  and  N_4
    2  A    between atoms: C_1  and  C_22
    3  A    between atoms: C_2  and  C_14
    4  A    between atoms: C_2  and  C_29
    5  A    between atoms: N_4  and  C_5
    6  A    between atoms: N_4  and  C_9
    7  A    between atoms: C_5  and  C_17
    8  A    between atoms: C_9  and  C_12
    9  A    between atoms: C_10  and  O_15
   10  A    between atoms: C_10  and  C_16
   11  A    between atoms: C_11  and  C_24
   12  A    between atoms: C_13  and  N_27
   13  A    between atoms: C_14  and  C_20
   14  A    between atoms: O_15  and  C_25
   15  A    between atoms: C_22  and  C_29
   16  A    between atoms: C_23  and  C_29
   17  A    between atoms: C_24  and  C_25
                            x       y       z     vdW  Elec       q    Type
                         _______ _______ _______ _____ _____    ______ ____

>  <TORSDO>
F 17

$$$$
=
 OpenBabel10262422043D

 30 31  0  0  1  0  0  0  0  0999 V2000
  190.0260  176.9610  142.5850 C   0  0  1  0  0  3  0  0  0  0  0  0
  191.3860  176.9300  144.8490 C   0  0  1  0  0  3  0  0  0  0  0  0
  190.5310  179.1690  143.9440 C   0  0  0  0  0  1  0  0  0  0  0  0
  189.8960  176.9350  145.1580 C   0  0  2  0  0  3  0  0  0  0  0  0
  191.7810  175.5360  144.3880 C   0  0  0  0  0  1  0  0  0  0  0  0
  190.4160  177.6470  143.9080 C   0  0  1  0  0  0  0  0  0  0  0  0
  189.6170  177.8630  146.3360 C   0  0  0  0  0  2  0  0  0  0  0  0
  188.7730  177.1510  147.3800 C   0  0  0  0  0  2  0  0  0  0  0  0
  187.4470  177.0670  146.9530 O   0  0  0  0  0  0  0  0  0  0  0  0
  186.9340  178.3530  147.1420 C   0  0  0  0  0  2  0  0  0  0  0  0
  185.4790  178.4000  146.7100 C   0  0  0  0  0  2  0  0  0  0  0  0
  185.3620  178.9890  145.3170 C   0  0  0  0  0  1  0  0  0  0  0  0
  188.5220  177.0830  142.3030 C   0  0  1  0  0  3  0  0  0  0  0  0
  187.6670  176.5960  143.4680 C   0  0  0  0  0  1  0  0  0  0  0  0
  188.1620  178.5120  141.9310 C   0  0  0  0  0  2  0  0  0  0  0  0
  186.8490  178.5490  141.1700 C   0  0  0  0  0  2  0  0  0  0  0  0
  186.0290  179.5400  141.7050 O   0  0  0  0  0  1  0  0  0  0  0  0
  190.8810  177.4270  141.4040 C   0  0  0  0  0  2  0  0  0  0  0  0
  190.5350  176.6480  140.1450 C   0  0  0  0  0  2  0  0  0  0  0  0
  191.1440  177.2760  138.9790 N   0  0  0  0  0  0  0  0  0  0  0  0
  190.2640  177.1070  137.8130 C   0  0  0  0  0  2  0  0  0  0  0  0
  189.0960  179.1390  138.2970 O   0  0  0  0  0  0  0  0  0  0  0  0
  189.0270  177.9640  137.8490 C   0  0  0  0  0  0  0  0  0  0  0  0
  187.7910  177.4480  137.3540 N   0  0  0  0  0  2  0  0  0  0  0  0
  186.5780  178.2500  137.3320 C   0  0  0  0  0  2  0  0  0  0  0  0
  185.3730  177.3480  137.4950 C   0  0  0  0  0  1  0  0  0  0  0  0
  192.4380  176.6460  138.7330 C   0  0  0  0  0  2  0  0  0  0  0  0
  193.5740  175.2770  137.0480 C   0  0  0  0  0  2  0  0  0  0  0  0
  192.6070  176.3740  137.2500 C   0  0  2  0  0  3  0  0  0  0  0  0
  193.9430  176.6250  136.8900 O   0  0  0  0  0  0  0  0  0  0  0  0
  1 18  1  6  0  0  0
  1  6  1  0  0  0  0
  2  5  1  6  0  0  0
  2  4  1  0  0  0  0
  4  7  1  1  0  0  0
  6  3  1  1  0  0  0
  6  2  1  0  0  0  0
  6  4  1  0  0  0  0
  7  8  1  0  0  0  0
  9 10  1  0  0  0  0
  9  8  1  0  0  0  0
 11 10  1  0  0  0  0
 12 11  1  0  0  0  0
 13  1  1  0  0  0  0
 13 14  1  1  0  0  0
 15 13  1  0  0  0  0
 16 17  1  0  0  0  0
 16 15  1  0  0  0  0
 19 18  1  0  0  0  0
 20 19  1  0  0  0  0
 21 23  1  0  0  0  0
 21 20  1  0  0  0  0
 23 22  2  0  0  0  0
 24 23  1  0  0  0  0
 25 24  1  0  0  0  0
 25 26  1  0  0  0  0
 27 20  1  0  0  0  0
 28 29  1  0  0  0  0
 29 27  1  1  0  0  0
 30 28  1  0  0  0  0
 30 29  1  0  0  0  0
M  END
>  <MODEL>
5

>  <REMARK>
 VINA RESULT:      -5.7      2.370      5.967
  Name = 
  17 active torsions:
  status: ('A' for Active; 'I' for Inactive)
    1  A    between atoms: C_1  and  N_4
    2  A    between atoms: C_1  and  C_22
    3  A    between atoms: C_2  and  C_14
    4  A    between atoms: C_2  and  C_29
    5  A    between atoms: N_4  and  C_5
    6  A    between atoms: N_4  and  C_9
    7  A    between atoms: C_5  and  C_17
    8  A    between atoms: C_9  and  C_12
    9  A    between atoms: C_10  and  O_15
   10  A    between atoms: C_10  and  C_16
   11  A    between atoms: C_11  and  C_24
   12  A    between atoms: C_13  and  N_27
   13  A    between atoms: C_14  and  C_20
   14  A    between atoms: O_15  and  C_25
   15  A    between atoms: C_22  and  C_29
   16  A    between atoms: C_23  and  C_29
   17  A    between atoms: C_24  and  C_25
                            x       y       z     vdW  Elec       q    Type
                         _______ _______ _______ _____ _____    ______ ____

>  <TORSDO>
F 17

$$$$
=
 OpenBabel10262422043D

 30 31  0  0  1  0  0  0  0  0999 V2000
  189.8760  177.7120  142.2100 C   0  0  1  0  0  3  0  0  0  0  0  0
  187.2970  177.5130  142.7460 C   0  0  1  0  0  3  0  0  0  0  0  0
  188.8240  175.5140  143.2300 C   0  0  0  0  0  1  0  0  0  0  0  0
  188.0470  177.8900  144.0160 C   0  0  2  0  0  3  0  0  0  0  0  0
  187.1970  178.7440  141.8590 C   0  0  0  0  0  1  0  0  0  0  0  0
  188.7270  177.0140  142.9620 C   0  0  1  0  0  0  0  0  0  0  0  0
  187.4780  177.1150  145.2000 C   0  0  0  0  0  2  0  0  0  0  0  0
  187.0600  178.0730  146.3050 C   0  0  0  0  0  2  0  0  0  0  0  0
  186.1550  179.0130  145.8110 O   0  0  0  0  0  0  0  0  0  0  0  0
  184.9060  178.5620  146.2440 C   0  0  0  0  0  2  0  0  0  0  0  0
  183.8700  178.7730  145.1540 C   0  0  0  0  0  2  0  0  0  0  0  0
  184.4360  179.6490  144.0520 C   0  0  0  0  0  1  0  0  0  0  0  0
  191.0560  178.0250  143.1390 C   0  0  1  0  0  3  0  0  0  0  0  0
  190.8000  179.2420  144.0210 C   0  0  0  0  0  1  0  0  0  0  0  0
  191.4090  176.8110  143.9840 C   0  0  0  0  0  2  0  0  0  0  0  0
  191.4530  177.1820  145.4550 C   0  0  0  0  0  2  0  0  0  0  0  0
  191.9990  176.1290  146.1840 O   0  0  0  0  0  1  0  0  0  0  0  0
  190.3070  176.9500  140.9540 C   0  0  0  0  0  2  0  0  0  0  0  0
  189.5940  177.4890  139.7240 C   0  0  0  0  0  2  0  0  0  0  0  0
  190.5260  177.5990  138.6080 N   0  0  0  0  0  0  0  0  0  0  0  0
  189.8220  177.3140  137.3490 C   0  0  0  0  0  2  0  0  0  0  0  0
  188.4440  179.2530  137.0790 O   0  0  0  0  0  0  0  0  0  0  0  0
  188.4890  178.0020  137.2220 C   0  0  0  0  0  0  0  0  0  0  0  0
  187.2870  177.2310  137.2410 N   0  0  0  0  0  2  0  0  0  0  0  0
  185.9780  177.8440  137.0840 C   0  0  0  0  0  2  0  0  0  0  0  0
  185.4500  178.2620  138.4390 C   0  0  0  0  0  1  0  0  0  0  0  0
  191.6100  176.6430  138.8090 C   0  0  0  0  0  2  0  0  0  0  0  0
  193.4460  175.4500  137.7090 C   0  0  0  0  0  2  0  0  0  0  0  0
  192.3180  176.3780  137.4940 C   0  0  2  0  0  3  0  0  0  0  0  0
  193.6430  176.8370  137.5890 O   0  0  0  0  0  0  0  0  0  0  0  0
  1 18  1  6  0  0  0
  1  6  1  0  0  0  0
  1 13  1  0  0  0  0
  2  5  1  6  0  0  0
  2  6  1  0  0  0  0
  2  4  1  0  0  0  0
  4  7  1  1  0  0  0
  6  3  1  1  0  0  0
  6  4  1  0  0  0  0
  7  8  1  0  0  0  0
  9 10  1  0  0  0  0
  9  8  1  0  0  0  0
 11 10  1  0  0  0  0
 12 11  1  0  0  0  0
 13 15  1  0  0  0  0
 13 14  1  1  0  0  0
 15 16  1  0  0  0  0
 16 17  1  0  0  0  0
 19 18  1  0  0  0  0
 20 27  1  0  0  0  0
 20 19  1  0  0  0  0
 21 20  1  0  0  0  0
 22 23  2  0  0  0  0
 23 24  1  0  0  0  0
 23 21  1  0  0  0  0
 25 24  1  0  0  0  0
 25 26  1  0  0  0  0
 29 30  1  0  0  0  0
 29 28  1  0  0  0  0
 29 27  1  1  0  0  0
 30 28  1  0  0  0  0
M  END
>  <MODEL>
6

>  <REMARK>
 VINA RESULT:      -5.6      2.460      6.052
  Name = 
  17 active torsions:
  status: ('A' for Active; 'I' for Inactive)
    1  A    between atoms: C_1  and  N_4
    2  A    between atoms: C_1  and  C_22
    3  A    between atoms: C_2  and  C_14
    4  A    between atoms: C_2  and  C_29
    5  A    between atoms: N_4  and  C_5
    6  A    between atoms: N_4  and  C_9
    7  A    between atoms: C_5  and  C_17
    8  A    between atoms: C_9  and  C_12
    9  A    between atoms: C_10  and  O_15
   10  A    between atoms: C_10  and  C_16
   11  A    between atoms: C_11  and  C_24
   12  A    between atoms: C_13  and  N_27
   13  A    between atoms: C_14  and  C_20
   14  A    between atoms: O_15  and  C_25
   15  A    between atoms: C_22  and  C_29
   16  A    between atoms: C_23  and  C_29
   17  A    between atoms: C_24  and  C_25
                            x       y       z     vdW  Elec       q    Type
                         _______ _______ _______ _____ _____    ______ ____

>  <TORSDO>
F 17

$$$$
=
 OpenBabel10262422043D

 30 31  0  0  1  0  0  0  0  0999 V2000
  190.1360  177.6550  142.1990 C   0  0  1  0  0  3  0  0  0  0  0  0
  187.5250  177.5000  142.5730 C   0  0  1  0  0  3  0  0  0  0  0  0
  188.9850  175.4750  143.1500 C   0  0  0  0  0  1  0  0  0  0  0  0
  188.2010  177.8640  143.8870 C   0  0  2  0  0  3  0  0  0  0  0  0
  187.5030  178.7320  141.6820 C   0  0  0  0  0  1  0  0  0  0  0  0
  188.9300  176.9770  142.8780 C   0  0  1  0  0  0  0  0  0  0  0  0
  187.5450  177.1000  145.0320 C   0  0  0  0  0  2  0  0  0  0  0  0
  187.1570  178.0540  146.1500 C   0  0  0  0  0  2  0  0  0  0  0  0
  186.2270  178.9860  145.6880 O   0  0  0  0  0  0  0  0  0  0  0  0
  185.0000  178.5340  146.1790 C   0  0  0  0  0  2  0  0  0  0  0  0
  183.9000  178.8180  145.1730 C   0  0  0  0  0  2  0  0  0  0  0  0
  184.4640  179.5460  143.9680 C   0  0  0  0  0  1  0  0  0  0  0  0
  191.2310  178.0130  143.2130 C   0  0  1  0  0  3  0  0  0  0  0  0
  190.8790  179.2430  144.0430 C   0  0  0  0  0  1  0  0  0  0  0  0
  191.5380  176.8260  144.1120 C   0  0  0  0  0  2  0  0  0  0  0  0
  191.4530  177.2290  145.5730 C   0  0  0  0  0  2  0  0  0  0  0  0
  192.0370  176.2410  146.3620 O   0  0  0  0  0  1  0  0  0  0  0  0
  190.6780  176.8490  141.0160 C   0  0  0  0  0  2  0  0  0  0  0  0
  190.2970  177.5030  139.6970 C   0  0  0  0  0  2  0  0  0  0  0  0
  190.3450  176.5250  138.6170 N   0  0  0  0  0  0  0  0  0  0  0  0
  191.5890  176.6970  137.8530 C   0  0  0  0  0  2  0  0  0  0  0  0
  191.9920  174.3380  137.8910 O   0  0  0  0  0  0  0  0  0  0  0  0
  192.4940  175.4940  137.8740 C   0  0  0  0  0  0  0  0  0  0  0  0
  193.9110  175.6690  137.8500 N   0  0  0  0  0  2  0  0  0  0  0  0
  194.8240  174.5380  137.8310 C   0  0  0  0  0  2  0  0  0  0  0  0
  195.5630  174.4620  139.1490 C   0  0  0  0  0  1  0  0  0  0  0  0
  189.1870  176.7290  137.7510 C   0  0  0  0  0  2  0  0  0  0  0  0
  187.9490  178.6370  136.8410 C   0  0  0  0  0  2  0  0  0  0  0  0
  189.2950  178.0700  137.0500 C   0  0  2  0  0  3  0  0  0  0  0  0
  188.6450  177.9880  135.8060 O   0  0  0  0  0  0  0  0  0  0  0  0
  1 18  1  6  0  0  0
  1  6  1  0  0  0  0
  1 13  1  0  0  0  0
  2  5  1  6  0  0  0
  2  6  1  0  0  0  0
  2  4  1  0  0  0  0
  4  7  1  1  0  0  0
  6  3  1  1  0  0  0
  6  4  1  0  0  0  0
  7  8  1  0  0  0  0
  9  8  1  0  0  0  0
  9 10  1  0  0  0  0
 11 10  1  0  0  0  0
 12 11  1  0  0  0  0
 13 14  1  1  0  0  0
 13 15  1  0  0  0  0
 15 16  1  0  0  0  0
 16 17  1  0  0  0  0
 19 18  1  0  0  0  0
 20 19  1  0  0  0  0
 21 23  1  0  0  0  0
 21 20  1  0  0  0  0
 23 22  2  0  0  0  0
 24 23  1  0  0  0  0
 25 24  1  0  0  0  0
 25 26  1  0  0  0  0
 27 20  1  0  0  0  0
 28 29  1  0  0  0  0
 29 27  1  1  0  0  0
 30 28  1  0  0  0  0
 30 29  1  0  0  0  0
M  END
>  <MODEL>
7

>  <REMARK>
 VINA RESULT:      -5.6      2.981      6.510
  Name = 
  17 active torsions:
  status: ('A' for Active; 'I' for Inactive)
    1  A    between atoms: C_1  and  N_4
    2  A    between atoms: C_1  and  C_22
    3  A    between atoms: C_2  and  C_14
    4  A    between atoms: C_2  and  C_29
    5  A    between atoms: N_4  and  C_5
    6  A    between atoms: N_4  and  C_9
    7  A    between atoms: C_5  and  C_17
    8  A    between atoms: C_9  and  C_12
    9  A    between atoms: C_10  and  O_15
   10  A    between atoms: C_10  and  C_16
   11  A    between atoms: C_11  and  C_24
   12  A    between atoms: C_13  and  N_27
   13  A    between atoms: C_14  and  C_20
   14  A    between atoms: O_15  and  C_25
   15  A    between atoms: C_22  and  C_29
   16  A    between atoms: C_23  and  C_29
   17  A    between atoms: C_24  and  C_25
                            x       y       z     vdW  Elec       q    Type
                         _______ _______ _______ _____ _____    ______ ____

>  <TORSDO>
F 17

$$$$
=
 OpenBabel10262422043D

 30 31  0  0  1  0  0  0  0  0999 V2000
  190.1360  177.6140  142.0790 C   0  0  1  0  0  3  0  0  0  0  0  0
  187.5440  177.4960  142.5790 C   0  0  1  0  0  3  0  0  0  0  0  0
  189.0130  175.4770  143.1510 C   0  0  0  0  0  1  0  0  0  0  0  0
  188.2830  177.8950  143.8480 C   0  0  2  0  0  3  0  0  0  0  0  0
  187.4890  178.7010  141.6520 C   0  0  0  0  0  1  0  0  0  0  0  0
  188.9570  176.9700  142.8340 C   0  0  1  0  0  0  0  0  0  0  0  0
  187.6760  177.1730  145.0460 C   0  0  0  0  0  2  0  0  0  0  0  0
  186.8090  178.1270  145.8520 C   0  0  0  0  0  2  0  0  0  0  0  0
  185.4810  178.0440  145.4300 O   0  0  0  0  0  0  0  0  0  0  0  0
  185.0640  179.3730  145.3140 C   0  0  0  0  0  2  0  0  0  0  0  0
  184.6450  179.6630  143.8850 C   0  0  0  0  0  2  0  0  0  0  0  0
  184.0610  178.4190  143.2440 C   0  0  0  0  0  1  0  0  0  0  0  0
  191.3020  177.9430  143.0200 C   0  0  1  0  0  3  0  0  0  0  0  0
  191.0530  179.2020  143.8430 C   0  0  0  0  0  1  0  0  0  0  0  0
  191.6100  176.7600  143.9240 C   0  0  0  0  0  2  0  0  0  0  0  0
  191.5680  177.1800  145.3820 C   0  0  0  0  0  2  0  0  0  0  0  0
  192.0440  176.1410  146.1780 O   0  0  0  0  0  1  0  0  0  0  0  0
  190.5780  176.7940  140.8650 C   0  0  0  0  0  2  0  0  0  0  0  0
  190.6050  177.6550  139.6120 C   0  0  0  0  0  2  0  0  0  0  0  0
  189.6500  177.1510  138.6320 N   0  0  0  0  0  0  0  0  0  0  0  0
  190.3730  176.6500  137.4530 C   0  0  0  0  0  2  0  0  0  0  0  0
  191.0690  174.4120  137.9370 O   0  0  0  0  0  0  0  0  0  0  0  0
  190.2970  175.1570  137.2770 C   0  0  0  0  0  0  0  0  0  0  0  0
  189.3370  174.5940  136.3820 N   0  0  0  0  0  2  0  0  0  0  0  0
  189.2000  173.1580  136.2060 C   0  0  0  0  0  2  0  0  0  0  0  0
  188.0330  172.6560  137.0290 C   0  0  0  0  0  1  0  0  0  0  0  0
  188.7540  178.2390  138.2520 C   0  0  0  0  0  2  0  0  0  0  0  0
  186.8560  177.9870  136.7240 C   0  0  0  0  0  2  0  0  0  0  0  0
  187.3410  177.7130  138.0910 C   0  0  2  0  0  3  0  0  0  0  0  0
  186.4810  178.7910  137.8150 O   0  0  0  0  0  0  0  0  0  0  0  0
  1 18  1  6  0  0  0
  1  6  1  0  0  0  0
  1 13  1  0  0  0  0
  2  5  1  6  0  0  0
  2  6  1  0  0  0  0
  2  4  1  0  0  0  0
  4  7  1  1  0  0  0
  6  3  1  1  0  0  0
  6  4  1  0  0  0  0
  7  8  1  0  0  0  0
  9  8  1  0  0  0  0
 10  9  1  0  0  0  0
 11 10  1  0  0  0  0
 12 11  1  0  0  0  0
 13 14  1  1  0  0  0
 13 15  1  0  0  0  0
 15 16  1  0  0  0  0
 16 17  1  0  0  0  0
 19 18  1  0  0  0  0
 20 19  1  0  0  0  0
 21 20  1  0  0  0  0
 23 21  1  0  0  0  0
 23 22  2  0  0  0  0
 24 23  1  0  0  0  0
 25 24  1  0  0  0  0
 25 26  1  0  0  0  0
 27 20  1  0  0  0  0
 28 30  1  0  0  0  0
 28 29  1  0  0  0  0
 29 27  1  6  0  0  0
 30 29  1  0  0  0  0
M  END
>  <MODEL>
8

>  <REMARK>
 VINA RESULT:      -5.5      2.791      6.010
  Name = 
  17 active torsions:
  status: ('A' for Active; 'I' for Inactive)
    1  A    between atoms: C_1  and  N_4
    2  A    between atoms: C_1  and  C_22
    3  A    between atoms: C_2  and  C_14
    4  A    between atoms: C_2  and  C_29
    5  A    between atoms: N_4  and  C_5
    6  A    between atoms: N_4  and  C_9
    7  A    between atoms: C_5  and  C_17
    8  A    between atoms: C_9  and  C_12
    9  A    between atoms: C_10  and  O_15
   10  A    between atoms: C_10  and  C_16
   11  A    between atoms: C_11  and  C_24
   12  A    between atoms: C_13  and  N_27
   13  A    between atoms: C_14  and  C_20
   14  A    between atoms: O_15  and  C_25
   15  A    between atoms: C_22  and  C_29
   16  A    between atoms: C_23  and  C_29
   17  A    between atoms: C_24  and  C_25
                            x       y       z     vdW  Elec       q    Type
                         _______ _______ _______ _____ _____    ______ ____

>  <TORSDO>
F 17

$$$$
=
 OpenBabel10262422043D

 30 31  0  0  1  0  0  0  0  0999 V2000
  189.6630  176.9380  144.6470 C   0  0  1  0  0  3  0  0  0  0  0  0
  191.6770  178.1970  143.4880 C   0  0  1  0  0  3  0  0  0  0  0  0
  191.6540  175.6350  143.4980 C   0  0  0  0  0  1  0  0  0  0  0  0
  190.6520  177.8090  142.4320 C   0  0  2  0  0  3  0  0  0  0  0  0
  191.1450  179.3920  144.2630 C   0  0  0  0  0  1  0  0  0  0  0  0
  190.8490  176.9220  143.6620 C   0  0  1  0  0  0  0  0  0  0  0  0
  191.3660  177.3090  141.1810 C   0  0  0  0  0  2  0  0  0  0  0  0
  190.3570  176.7830  140.1720 C   0  0  0  0  0  2  0  0  0  0  0  0
  189.1920  177.5510  140.2110 O   0  0  0  0  0  0  0  0  0  0  0  0
  188.6420  177.4220  138.9330 C   0  0  0  0  0  2  0  0  0  0  0  0
  189.0580  178.5970  138.0670 C   0  0  0  0  0  2  0  0  0  0  0  0
  188.1590  178.6990  136.8500 C   0  0  0  0  0  1  0  0  0  0  0  0
  190.1130  177.2860  146.0720 C   0  0  1  0  0  3  0  0  0  0  0  0
  188.9610  177.2590  147.0720 C   0  0  0  0  0  1  0  0  0  0  0  0
  191.2360  176.3640  146.5190 C   0  0  0  0  0  2  0  0  0  0  0  0
  191.7150  176.7440  147.9080 C   0  0  0  0  0  2  0  0  0  0  0  0
  192.8480  176.0000  148.2280 O   0  0  0  0  0  1  0  0  0  0  0  0
  188.5090  177.8220  144.1660 C   0  0  0  0  0  2  0  0  0  0  0  0
  187.4710  176.9980  143.4210 C   0  0  0  0  0  2  0  0  0  0  0  0
  186.1280  177.4590  143.7530 N   0  0  0  0  0  0  0  0  0  0  0  0
  185.8830  178.7610  143.1150 C   0  0  0  0  0  2  0  0  0  0  0  0
  183.8190  178.0980  142.1020 O   0  0  0  0  0  0  0  0  0  0  0  0
  184.9130  178.7080  141.9660 C   0  0  0  0  0  0  0  0  0  0  0  0
  185.2270  179.3690  140.7390 N   0  0  0  0  0  2  0  0  0  0  0  0
  184.3060  179.3780  139.6140 C   0  0  0  0  0  2  0  0  0  0  0  0
  184.8460  178.4920  138.5120 C   0  0  0  0  0  1  0  0  0  0  0  0
  186.0210  177.5780  145.2040 C   0  0  0  0  0  2  0  0  0  0  0  0
  185.7030  179.2800  146.9380 C   0  0  0  0  0  2  0  0  0  0  0  0
  185.3290  178.8780  145.5670 C   0  0  2  0  0  3  0  0  0  0  0  0
  184.4760  178.6500  146.6620 O   0  0  0  0  0  0  0  0  0  0  0  0
  1 18  1  6  0  0  0
  1 13  1  0  0  0  0
  2  6  1  0  0  0  0
  2  5  1  1  0  0  0
  4  7  1  6  0  0  0
  4  2  1  0  0  0  0
  4  6  1  0  0  0  0
  6  3  1  6  0  0  0
  6  1  1  0  0  0  0
  8  9  1  0  0  0  0
  8  7  1  0  0  0  0
 10  9  1  0  0  0  0
 11 10  1  0  0  0  0
 12 11  1  0  0  0  0
 13 15  1  0  0  0  0
 13 14  1  1  0  0  0
 15 16  1  0  0  0  0
 16 17  1  0  0  0  0
 19 20  1  0  0  0  0
 19 18  1  0  0  0  0
 20 27  1  0  0  0  0
 21 20  1  0  0  0  0
 23 22  2  0  0  0  0
 23 21  1  0  0  0  0
 24 23  1  0  0  0  0
 25 24  1  0  0  0  0
 26 25  1  0  0  0  0
 29 27  1  1  0  0  0
 29 30  1  0  0  0  0
 29 28  1  0  0  0  0
 30 28  1  0  0  0  0
M  END
>  <MODEL>
9

>  <REMARK>
 VINA RESULT:      -5.4      1.878      5.933
  Name = 
  17 active torsions:
  status: ('A' for Active; 'I' for Inactive)
    1  A    between atoms: C_1  and  N_4
    2  A    between atoms: C_1  and  C_22
    3  A    between atoms: C_2  and  C_14
    4  A    between atoms: C_2  and  C_29
    5  A    between atoms: N_4  and  C_5
    6  A    between atoms: N_4  and  C_9
    7  A    between atoms: C_5  and  C_17
    8  A    between atoms: C_9  and  C_12
    9  A    between atoms: C_10  and  O_15
   10  A    between atoms: C_10  and  C_16
   11  A    between atoms: C_11  and  C_24
   12  A    between atoms: C_13  and  N_27
   13  A    between atoms: C_14  and  C_20
   14  A    between atoms: O_15  and  C_25
   15  A    between atoms: C_22  and  C_29
   16  A    between atoms: C_23  and  C_29
   17  A    between atoms: C_24  and  C_25
                            x       y       z     vdW  Elec       q    Type
                         _______ _______ _______ _____ _____    ______ ____

>  <TORSDO>
F 17

$$$$
