=
 OpenBabel10262420103D

 27 31  0  0  1  0  0  0  0  0999 V2000
  189.1900  177.6860  145.1560 C   0  0  0  0  0  3  0  0  0  0  0  0
  188.2930  177.7260  142.7930 C   0  0  0  0  0  0  0  0  0  0  0  0
  190.5400  176.8260  142.6210 N   0  0  0  0  0  0  0  0  0  0  0  0
  188.7250  178.2560  138.2480 S   0  0  0  0  0  0  0  0  0  0  0  0
  190.6760  176.4030  137.7180 C   0  0  0  0  0  1  0  0  0  0  0  0
  187.1680  178.0640  142.0000 C   0  0  0  0  0  3  0  0  0  0  0  0
  190.7340  177.5290  139.8790 N   0  0  0  0  0  0  0  0  0  0  0  0
  192.0890  174.5310  145.1660 C   0  0  0  0  0  3  0  0  0  0  0  0
  192.1050  177.4820  140.3670 C   0  0  0  0  0  1  0  0  0  0  0  0
  192.3100  175.0310  146.3770 C   0  0  0  0  0  3  0  0  0  0  0  0
  189.5890  177.7160  140.7100 C   0  0  0  0  0  0  0  0  0  0  0  0
  188.1200  177.7340  144.1470 C   0  0  0  0  0  0  0  0  0  0  0  0
  190.4670  177.7110  138.4560 C   0  0  2  0  0  3  0  0  0  0  0  0
  188.4720  178.0860  140.0020 C   0  0  0  0  0  0  0  0  0  0  0  0
  190.3620  177.0780  145.1120 C   0  0  0  0  0  0  0  0  0  0  0  0
  189.5250  177.4530  142.1020 C   0  0  0  0  0  0  0  0  0  0  0  0
  191.5480  175.2280  143.9910 C   0  0  0  0  0  3  0  0  0  0  0  0
  187.2430  178.2320  140.6210 C   0  0  0  0  0  3  0  0  0  0  0  0
  192.0470  176.3990  146.8360 C   0  0  0  0  0  3  0  0  0  0  0  0
  191.2050  177.2750  146.2970 C   0  0  0  0  0  3  0  0  0  0  0  0
  190.7970  176.3280  143.9310 C   0  0  0  0  0  0  0  0  0  0  0  0
  184.3290  178.6320  145.9300 C   0  0  0  0  0  3  0  0  0  0  0  0
  186.7990  178.0210  144.7550 C   0  0  0  0  0  0  0  0  0  0  0  0
  185.6880  178.3200  143.9520 C   0  0  0  0  0  3  0  0  0  0  0  0
  184.4560  178.6190  144.5390 C   0  0  0  0  0  3  0  0  0  0  0  0
  185.4350  178.3490  146.7370 C   0  0  0  0  0  3  0  0  0  0  0  0
  186.6680  178.0490  146.1510 C   0  0  0  0  0  3  0  0  0  0  0  0
  2 12  1  0  0  0  0
  3 21  2  0  0  0  0
  4 13  1  0  0  0  0
  4 14  1  0  0  0  0
  6  2  2  0  0  0  0
  7  9  1  0  0  0  0
  7 11  1  0  0  0  0
  8 10  1  0  0  0  0
 10 19  2  0  0  0  0
 11 16  2  0  0  0  0
 12 23  1  0  0  0  0
 12  1  2  0  0  0  0
 13  5  1  6  0  0  0
 13  7  1  0  0  0  0
 14 18  2  0  0  0  0
 14 11  1  0  0  0  0
 15  1  1  0  0  0  0
 15 20  2  0  0  0  0
 16  3  1  0  0  0  0
 16  2  1  0  0  0  0
 17  8  2  0  0  0  0
 18  6  1  0  0  0  0
 20 19  1  0  0  0  0
 21 17  1  0  0  0  0
 21 15  1  0  0  0  0
 22 26  1  0  0  0  0
 23 27  1  0  0  0  0
 24 25  1  0  0  0  0
 24 23  2  0  0  0  0
 25 22  2  0  0  0  0
 27 26  2  0  0  0  0
M  END
>  <MODEL>
1

>  <REMARK>
 VINA RESULT:     -10.5      0.000      0.000
  Name = 
  1 active torsions:
  status: ('A' for Active; 'I' for Inactive)
    1  A    between atoms: C_9  and  C_15
                            x       y       z     vdW  Elec       q    Type
                         _______ _______ _______ _____ _____    ______ ____

>  <TORSDO>
F 1

$$$$
=
 OpenBabel10262420103D

 27 31  0  0  1  0  0  0  0  0999 V2000
  191.3060  177.2220  140.2900 C   0  0  0  0  0  3  0  0  0  0  0  0
  188.9050  177.6650  140.9400 C   0  0  0  0  0  0  0  0  0  0  0  0
  188.8350  177.0000  138.6070 N   0  0  0  0  0  0  0  0  0  0  0  0
  184.6290  179.1300  140.1010 S   0  0  0  0  0  0  0  0  0  0  0  0
  183.9950  177.5830  137.9270 C   0  0  0  0  0  1  0  0  0  0  0  0
  188.0610  178.0640  142.0060 C   0  0  0  0  0  3  0  0  0  0  0  0
  186.3220  178.2530  138.2060 N   0  0  0  0  0  0  0  0  0  0  0  0
  191.0630  174.3710  137.1000 C   0  0  0  0  0  3  0  0  0  0  0  0
  186.9530  178.2180  136.8940 C   0  0  0  0  0  1  0  0  0  0  0  0
  192.3660  174.6340  137.0560 C   0  0  0  0  0  3  0  0  0  0  0  0
  187.0290  178.1770  139.4430 C   0  0  0  0  0  0  0  0  0  0  0  0
  190.2040  177.3860  141.2500 C   0  0  0  0  0  0  0  0  0  0  0  0
  184.9380  178.6950  138.3430 C   0  0  2  0  0  3  0  0  0  0  0  0
  186.2750  178.5910  140.5140 C   0  0  0  0  0  0  0  0  0  0  0  0
  191.2890  176.7310  139.0640 C   0  0  0  0  0  0  0  0  0  0  0  0
  188.3280  177.6350  139.6220 C   0  0  0  0  0  0  0  0  0  0  0  0
  189.9860  175.2450  137.5860 C   0  0  0  0  0  3  0  0  0  0  0  0
  186.7590  178.5110  141.8080 C   0  0  0  0  0  3  0  0  0  0  0  0
  193.0420  175.8560  137.5030 C   0  0  0  0  0  3  0  0  0  0  0  0
  192.5820  176.7530  138.3700 C   0  0  0  0  0  3  0  0  0  0  0  0
  190.0470  176.2710  138.4350 C   0  0  0  0  0  0  0  0  0  0  0  0
  191.6810  177.5030  145.2710 C   0  0  0  0  0  3  0  0  0  0  0  0
  190.6920  177.4390  142.6480 C   0  0  0  0  0  0  0  0  0  0  0  0
  191.1030  178.6520  143.2200 C   0  0  0  0  0  3  0  0  0  0  0  0
  191.5920  178.6840  144.5300 C   0  0  0  0  0  3  0  0  0  0  0  0
  191.2850  176.2880  144.7030 C   0  0  0  0  0  3  0  0  0  0  0  0
  190.7970  176.2560  143.3930 C   0  0  0  0  0  3  0  0  0  0  0  0
  1 12  1  0  0  0  0
  2 12  2  0  0  0  0
  2  6  1  0  0  0  0
  3 16  2  0  0  0  0
  4 14  1  0  0  0  0
  7 13  1  0  0  0  0
  7 11  1  0  0  0  0
  8 17  1  0  0  0  0
  9  7  1  0  0  0  0
 10  8  2  0  0  0  0
 10 19  1  0  0  0  0
 11 16  1  0  0  0  0
 11 14  2  0  0  0  0
 12 23  1  0  0  0  0
 13  5  1  1  0  0  0
 13  4  1  0  0  0  0
 14 18  1  0  0  0  0
 15  1  2  0  0  0  0
 16  2  1  0  0  0  0
 17 21  2  0  0  0  0
 18  6  2  0  0  0  0
 19 20  2  0  0  0  0
 20 15  1  0  0  0  0
 21  3  1  0  0  0  0
 21 15  1  0  0  0  0
 23 24  2  0  0  0  0
 23 27  1  0  0  0  0
 24 25  1  0  0  0  0
 25 22  2  0  0  0  0
 26 22  1  0  0  0  0
 27 26  2  0  0  0  0
M  END
>  <MODEL>
2

>  <REMARK>
 VINA RESULT:      -9.5      2.569      5.754
  Name = 
  1 active torsions:
  status: ('A' for Active; 'I' for Inactive)
    1  A    between atoms: C_9  and  C_15
                            x       y       z     vdW  Elec       q    Type
                         _______ _______ _______ _____ _____    ______ ____

>  <TORSDO>
F 1

$$$$
=
 OpenBabel10262420103D

 27 31  0  0  1  0  0  0  0  0999 V2000
  190.9580  177.5320  142.9780 C   0  0  0  0  0  3  0  0  0  0  0  0
  188.6090  177.4480  143.9060 C   0  0  0  0  0  0  0  0  0  0  0  0
  188.3520  177.6400  141.5000 N   0  0  0  0  0  0  0  0  0  0  0  0
  184.1670  178.6270  143.9420 S   0  0  0  0  0  0  0  0  0  0  0  0
  183.4360  177.8790  141.4070 C   0  0  0  0  0  1  0  0  0  0  0  0
  187.8510  177.3520  145.0990 C   0  0  0  0  0  3  0  0  0  0  0  0
  185.7190  178.6640  141.7480 N   0  0  0  0  0  0  0  0  0  0  0  0
  190.6150  175.9710  139.0020 C   0  0  0  0  0  3  0  0  0  0  0  0
  186.2110  179.1620  140.4710 C   0  0  0  0  0  1  0  0  0  0  0  0
  191.8810  176.3760  138.9670 C   0  0  0  0  0  3  0  0  0  0  0  0
  186.5540  178.2400  142.8240 C   0  0  0  0  0  0  0  0  0  0  0  0
  189.9520  177.2250  144.0060 C   0  0  0  0  0  0  0  0  0  0  0  0
  184.3260  178.8740  142.1290 C   0  0  2  0  0  3  0  0  0  0  0  0
  185.8840  178.1650  144.0210 C   0  0  0  0  0  0  0  0  0  0  0  0
  190.8540  177.5030  141.6610 C   0  0  0  0  0  0  0  0  0  0  0  0
  187.9030  177.8180  142.7080 C   0  0  0  0  0  0  0  0  0  0  0  0
  189.5280  176.4930  139.8410 C   0  0  0  0  0  3  0  0  0  0  0  0
  186.5040  177.6920  145.1640 C   0  0  0  0  0  3  0  0  0  0  0  0
  192.5000  177.4320  139.7750 C   0  0  0  0  0  3  0  0  0  0  0  0
  192.0620  177.9100  140.9350 C   0  0  0  0  0  3  0  0  0  0  0  0
  189.5950  177.1570  140.9960 C   0  0  0  0  0  0  0  0  0  0  0  0
  191.8200  176.1500  147.7090 C   0  0  0  0  0  3  0  0  0  0  0  0
  190.5760  176.8390  145.2930 C   0  0  0  0  0  0  0  0  0  0  0  0
  190.1110  177.3700  146.5050 C   0  0  0  0  0  3  0  0  0  0  0  0
  190.7290  177.0220  147.7100 C   0  0  0  0  0  3  0  0  0  0  0  0
  192.2980  175.6280  146.5030 C   0  0  0  0  0  3  0  0  0  0  0  0
  191.6800  175.9750  145.2980 C   0  0  0  0  0  3  0  0  0  0  0  0
  1 12  1  0  0  0  0
  2 12  2  0  0  0  0
  2  6  1  0  0  0  0
  3 16  2  0  0  0  0
  4 14  1  0  0  0  0
  6 18  2  0  0  0  0
  7 13  1  0  0  0  0
  7 11  1  0  0  0  0
  8 17  1  0  0  0  0
  9  7  1  0  0  0  0
 10  8  2  0  0  0  0
 10 19  1  0  0  0  0
 11 14  2  0  0  0  0
 12 23  1  0  0  0  0
 13  5  1  6  0  0  0
 13  4  1  0  0  0  0
 14 18  1  0  0  0  0
 15  1  2  0  0  0  0
 16 11  1  0  0  0  0
 16  2  1  0  0  0  0
 17 21  2  0  0  0  0
 19 20  2  0  0  0  0
 20 15  1  0  0  0  0
 21  3  1  0  0  0  0
 21 15  1  0  0  0  0
 22 25  1  0  0  0  0
 23 27  2  0  0  0  0
 23 24  1  0  0  0  0
 24 25  2  0  0  0  0
 26 22  2  0  0  0  0
 27 26  1  0  0  0  0
M  END
>  <MODEL>
3

>  <REMARK>
 VINA RESULT:      -9.5      2.202      5.458
  Name = 
  1 active torsions:
  status: ('A' for Active; 'I' for Inactive)
    1  A    between atoms: C_9  and  C_15
                            x       y       z     vdW  Elec       q    Type
                         _______ _______ _______ _____ _____    ______ ____

>  <TORSDO>
F 1

$$$$
=
 OpenBabel10262420103D

 27 31  0  0  1  0  0  0  0  0999 V2000
  184.0020  178.1990  142.0790 C   0  0  0  0  0  3  0  0  0  0  0  0
  186.4650  178.3050  141.5230 C   0  0  0  0  0  0  0  0  0  0  0  0
  185.3070  178.6670  139.4210 N   0  0  0  0  0  0  0  0  0  0  0  0
  190.0900  177.5780  138.7930 S   0  0  0  0  0  0  0  0  0  0  0  0
  189.2910  178.9260  136.5420 C   0  0  0  0  0  1  0  0  0  0  0  0
  187.7680  178.2110  142.0710 C   0  0  0  0  0  3  0  0  0  0  0  0
  187.5690  177.8700  137.9060 N   0  0  0  0  0  0  0  0  0  0  0  0
  182.1060  180.6130  139.0890 C   0  0  0  0  0  3  0  0  0  0  0  0
  186.4180  177.6170  137.0500 C   0  0  0  0  0  1  0  0  0  0  0  0
  181.0250  180.1060  139.6750 C   0  0  0  0  0  3  0  0  0  0  0  0
  187.5090  177.9680  139.3290 C   0  0  0  0  0  0  0  0  0  0  0  0
  185.4260  178.3700  142.4060 C   0  0  0  0  0  0  0  0  0  0  0  0
  188.9220  177.7180  137.3810 C   0  0  2  0  0  3  0  0  0  0  0  0
  188.7410  177.8440  139.9230 C   0  0  0  0  0  0  0  0  0  0  0  0
  183.3450  178.5240  140.9800 C   0  0  0  0  0  0  0  0  0  0  0  0
  186.3520  178.2730  140.0890 C   0  0  0  0  0  0  0  0  0  0  0  0
  183.4520  180.0280  139.0270 C   0  0  0  0  0  3  0  0  0  0  0  0
  188.8990  177.9960  141.2900 C   0  0  0  0  0  3  0  0  0  0  0  0
  180.9250  178.8450  140.4170 C   0  0  0  0  0  3  0  0  0  0  0  0
  181.9200  178.1700  140.9840 C   0  0  0  0  0  3  0  0  0  0  0  0
  184.0210  179.1260  139.8280 C   0  0  0  0  0  0  0  0  0  0  0  0
  186.0230  178.4430  146.6480 C   0  0  0  0  0  3  0  0  0  0  0  0
  185.6570  178.4050  143.8690 C   0  0  0  0  0  0  0  0  0  0  0  0
  186.5320  177.4940  144.4800 C   0  0  0  0  0  3  0  0  0  0  0  0
  186.7180  177.5170  145.8650 C   0  0  0  0  0  3  0  0  0  0  0  0
  185.1400  179.3440  146.0480 C   0  0  0  0  0  3  0  0  0  0  0  0
  184.9530  179.3220  144.6620 C   0  0  0  0  0  3  0  0  0  0  0  0
  1 12  1  0  0  0  0
  2  6  1  0  0  0  0
  2 12  2  0  0  0  0
  3 21  1  0  0  0  0
  3 16  2  0  0  0  0
  4 14  1  0  0  0  0
  7 11  1  0  0  0  0
  8 10  2  0  0  0  0
  9  7  1  0  0  0  0
 10 19  1  0  0  0  0
 11 14  2  0  0  0  0
 11 16  1  0  0  0  0
 12 23  1  0  0  0  0
 13  5  1  1  0  0  0
 13  7  1  0  0  0  0
 13  4  1  0  0  0  0
 14 18  1  0  0  0  0
 15 20  1  0  0  0  0
 15  1  2  0  0  0  0
 16  2  1  0  0  0  0
 17  8  1  0  0  0  0
 17 21  2  0  0  0  0
 18  6  2  0  0  0  0
 19 20  2  0  0  0  0
 21 15  1  0  0  0  0
 23 24  2  0  0  0  0
 23 27  1  0  0  0  0
 24 25  1  0  0  0  0
 25 22  2  0  0  0  0
 26 22  1  0  0  0  0
 27 26  2  0  0  0  0
M  END
>  <MODEL>
4

>  <REMARK>
 VINA RESULT:      -9.5      3.111      6.456
  Name = 
  1 active torsions:
  status: ('A' for Active; 'I' for Inactive)
    1  A    between atoms: C_9  and  C_15
                            x       y       z     vdW  Elec       q    Type
                         _______ _______ _______ _____ _____    ______ ____

>  <TORSDO>
F 1

$$$$
=
 OpenBabel10262420103D

 27 31  0  0  1  0  0  0  0  0999 V2000
  183.9130  179.2370  144.1630 C   0  0  0  0  0  3  0  0  0  0  0  0
  183.9590  178.5610  141.7290 C   0  0  0  0  0  0  0  0  0  0  0  0
  186.2170  178.2070  142.5460 N   0  0  0  0  0  0  0  0  0  0  0  0
  185.9620  178.2030  137.6070 S   0  0  0  0  0  0  0  0  0  0  0  0
  188.2210  176.8000  138.2760 C   0  0  0  0  0  1  0  0  0  0  0  0
  183.1720  178.4450  140.5570 C   0  0  0  0  0  3  0  0  0  0  0  0
  187.3070  178.3390  139.9300 N   0  0  0  0  0  0  0  0  0  0  0  0
  187.0340  176.9400  145.9920 C   0  0  0  0  0  3  0  0  0  0  0  0
  188.3910  178.7240  140.8230 C   0  0  0  0  0  1  0  0  0  0  0  0
  186.7140  177.7240  147.0170 C   0  0  0  0  0  3  0  0  0  0  0  0
  185.9210  178.4190  140.2630 C   0  0  0  0  0  0  0  0  0  0  0  0
  183.2980  178.8130  142.8950 C   0  0  0  0  0  0  0  0  0  0  0  0
  187.5630  178.1470  138.5070 C   0  0  2  0  0  3  0  0  0  0  0  0
  185.1050  178.3530  139.1600 C   0  0  0  0  0  0  0  0  0  0  0  0
  185.0930  178.9310  144.6710 C   0  0  0  0  0  0  0  0  0  0  0  0
  185.3860  178.4500  141.5750 C   0  0  0  0  0  0  0  0  0  0  0  0
  186.8710  177.2230  144.5590 C   0  0  0  0  0  3  0  0  0  0  0  0
  183.7270  178.3300  139.2860 C   0  0  0  0  0  3  0  0  0  0  0  0
  186.1000  179.0550  146.9610 C   0  0  0  0  0  3  0  0  0  0  0  0
  185.3980  179.5700  145.9560 C   0  0  0  0  0  3  0  0  0  0  0  0
  186.0410  178.0740  143.9540 C   0  0  0  0  0  0  0  0  0  0  0  0
  179.0280  179.1180  143.0830 C   0  0  0  0  0  3  0  0  0  0  0  0
  181.8200  178.8990  142.9420 C   0  0  0  0  0  0  0  0  0  0  0  0
  181.0980  179.4520  141.8730 C   0  0  0  0  0  3  0  0  0  0  0  0
  179.7060  179.5560  141.9420 C   0  0  0  0  0  3  0  0  0  0  0  0
  179.7420  178.5790  144.1570 C   0  0  0  0  0  3  0  0  0  0  0  0
  181.1340  178.4740  144.0890 C   0  0  0  0  0  3  0  0  0  0  0  0
  1 15  1  0  0  0  0
  2 12  1  0  0  0  0
  3 21  2  0  0  0  0
  4 13  1  0  0  0  0
  4 14  1  0  0  0  0
  6  2  2  0  0  0  0
  7 11  1  0  0  0  0
  7  9  1  0  0  0  0
  8 10  1  0  0  0  0
 11 16  2  0  0  0  0
 12 23  1  0  0  0  0
 12  1  2  0  0  0  0
 13  5  1  1  0  0  0
 13  7  1  0  0  0  0
 14 18  2  0  0  0  0
 14 11  1  0  0  0  0
 15 20  2  0  0  0  0
 16  2  1  0  0  0  0
 16  3  1  0  0  0  0
 17  8  2  0  0  0  0
 18  6  1  0  0  0  0
 19 10  2  0  0  0  0
 20 19  1  0  0  0  0
 21 17  1  0  0  0  0
 21 15  1  0  0  0  0
 22 26  1  0  0  0  0
 23 27  1  0  0  0  0
 24 25  1  0  0  0  0
 24 23  2  0  0  0  0
 25 22  2  0  0  0  0
 27 26  2  0  0  0  0
M  END
>  <MODEL>
5

>  <REMARK>
 VINA RESULT:      -9.5      3.112      4.939
  Name = 
  1 active torsions:
  status: ('A' for Active; 'I' for Inactive)
    1  A    between atoms: C_9  and  C_15
                            x       y       z     vdW  Elec       q    Type
                         _______ _______ _______ _____ _____    ______ ____

>  <TORSDO>
F 1

$$$$
=
 OpenBabel10262420103D

 27 31  0  0  1  0  0  0  0  0999 V2000
  188.7880  178.4560  140.0880 C   0  0  0  0  0  3  0  0  0  0  0  0
  186.8680  178.1530  141.7030 C   0  0  0  0  0  0  0  0  0  0  0  0
  185.8480  178.3570  139.5100 N   0  0  0  0  0  0  0  0  0  0  0  0
  182.5870  178.9390  143.1820 S   0  0  0  0  0  0  0  0  0  0  0  0
  181.1530  178.1680  140.9750 C   0  0  0  0  0  1  0  0  0  0  0  0
  186.5360  177.9730  143.0680 C   0  0  0  0  0  3  0  0  0  0  0  0
  183.3570  179.1440  140.6150 N   0  0  0  0  0  0  0  0  0  0  0  0
  187.3270  176.9300  136.3600 C   0  0  0  0  0  3  0  0  0  0  0  0
  183.3800  179.7020  139.2700 C   0  0  0  0  0  1  0  0  0  0  0  0
  188.4810  177.4450  135.9460 C   0  0  0  0  0  3  0  0  0  0  0  0
  184.5210  178.7780  141.3560 C   0  0  0  0  0  0  0  0  0  0  0  0
  188.1860  178.0470  141.3670 C   0  0  0  0  0  0  0  0  0  0  0  0
  182.1440  179.2250  141.4220 C   0  0  2  0  0  3  0  0  0  0  0  0
  184.2720  178.6270  142.6980 C   0  0  0  0  0  0  0  0  0  0  0  0
  188.2750  178.4370  138.8710 C   0  0  0  0  0  0  0  0  0  0  0  0
  185.7920  178.4780  140.8040 C   0  0  0  0  0  0  0  0  0  0  0  0
  186.5250  177.3420  137.5190 C   0  0  0  0  0  3  0  0  0  0  0  0
  185.2560  178.1930  143.5670 C   0  0  0  0  0  3  0  0  0  0  0  0
  189.2400  178.5380  136.5620 C   0  0  0  0  0  3  0  0  0  0  0  0
  189.1560  178.9590  137.8200 C   0  0  0  0  0  3  0  0  0  0  0  0
  186.9010  177.9920  138.6210 C   0  0  0  0  0  0  0  0  0  0  0  0
  191.2090  177.0240  144.2260 C   0  0  0  0  0  3  0  0  0  0  0  0
  189.2140  177.6970  142.3750 C   0  0  0  0  0  0  0  0  0  0  0  0
  189.7910  178.6870  143.1860 C   0  0  0  0  0  3  0  0  0  0  0  0
  190.7820  178.3490  144.1110 C   0  0  0  0  0  3  0  0  0  0  0  0
  190.6480  176.0350  143.4120 C   0  0  0  0  0  3  0  0  0  0  0  0
  189.6570  176.3720  142.4860 C   0  0  0  0  0  3  0  0  0  0  0  0
  1 12  1  0  0  0  0
  2  6  1  0  0  0  0
  3 16  2  0  0  0  0
  6 18  2  0  0  0  0
  7 11  1  0  0  0  0
  7 13  1  0  0  0  0
  8 17  1  0  0  0  0
  9  7  1  0  0  0  0
 10  8  2  0  0  0  0
 10 19  1  0  0  0  0
 11 14  2  0  0  0  0
 12  2  2  0  0  0  0
 12 23  1  0  0  0  0
 13  5  1  6  0  0  0
 13  4  1  0  0  0  0
 14  4  1  0  0  0  0
 14 18  1  0  0  0  0
 15  1  2  0  0  0  0
 16 11  1  0  0  0  0
 16  2  1  0  0  0  0
 17 21  2  0  0  0  0
 19 20  2  0  0  0  0
 20 15  1  0  0  0  0
 21 15  1  0  0  0  0
 21  3  1  0  0  0  0
 23 27  2  0  0  0  0
 23 24  1  0  0  0  0
 24 25  2  0  0  0  0
 25 22  1  0  0  0  0
 26 22  2  0  0  0  0
 27 26  1  0  0  0  0
M  END
>  <MODEL>
6

>  <REMARK>
 VINA RESULT:      -9.4      3.200      7.014
  Name = 
  1 active torsions:
  status: ('A' for Active; 'I' for Inactive)
    1  A    between atoms: C_9  and  C_15
                            x       y       z     vdW  Elec       q    Type
                         _______ _______ _______ _____ _____    ______ ____

>  <TORSDO>
F 1

$$$$
=
 OpenBabel10262420103D

 27 31  0  0  1  0  0  0  0  0999 V2000
  188.9940  178.2270  143.2060 C   0  0  0  0  0  3  0  0  0  0  0  0
  188.8230  177.4910  140.7940 C   0  0  0  0  0  0  0  0  0  0  0  0
  191.0390  176.8220  141.5230 N   0  0  0  0  0  0  0  0  0  0  0  0
  190.5500  176.7330  136.6030 S   0  0  0  0  0  0  0  0  0  0  0  0
  192.6040  175.0230  137.2170 C   0  0  0  0  0  1  0  0  0  0  0  0
  187.9720  177.4660  139.6620 C   0  0  0  0  0  3  0  0  0  0  0  0
  192.0100  176.7230  138.8600 N   0  0  0  0  0  0  0  0  0  0  0  0
  191.8220  175.5320  144.9680 C   0  0  0  0  0  3  0  0  0  0  0  0
  193.1800  176.9630  139.6920 C   0  0  0  0  0  1  0  0  0  0  0  0
  191.6710  176.3800  145.9810 C   0  0  0  0  0  3  0  0  0  0  0  0
  190.6690  177.0190  139.2490 C   0  0  0  0  0  0  0  0  0  0  0  0
  188.2630  177.8690  141.9800 C   0  0  0  0  0  0  0  0  0  0  0  0
  192.1650  176.4590  137.4330 C   0  0  2  0  0  3  0  0  0  0  0  0
  189.8000  177.0490  138.1860 C   0  0  0  0  0  0  0  0  0  0  0  0
  190.1380  177.7590  143.6710 C   0  0  0  0  0  0  0  0  0  0  0  0
  190.2070  177.1620  140.5820 C   0  0  0  0  0  0  0  0  0  0  0  0
  191.6340  175.8000  143.5360 C   0  0  0  0  0  3  0  0  0  0  0  0
  188.4420  177.2370  138.3730 C   0  0  0  0  0  3  0  0  0  0  0  0
  191.2610  177.7870  145.9100 C   0  0  0  0  0  3  0  0  0  0  0  0
  190.5970  178.3760  144.9210 C   0  0  0  0  0  3  0  0  0  0  0  0
  190.9130  176.7510  142.9410 C   0  0  0  0  0  0  0  0  0  0  0  0
  184.1010  178.8200  142.3410 C   0  0  0  0  0  3  0  0  0  0  0  0
  186.8180  178.1780  142.0880 C   0  0  0  0  0  0  0  0  0  0  0  0
  186.1260  178.7610  141.0160 C   0  0  0  0  0  3  0  0  0  0  0  0
  184.7700  179.0760  141.1410 C   0  0  0  0  0  3  0  0  0  0  0  0
  184.7880  178.2530  143.4180 C   0  0  0  0  0  3  0  0  0  0  0  0
  186.1440  177.9370  143.2940 C   0  0  0  0  0  3  0  0  0  0  0  0
  1 15  1  0  0  0  0
  2 12  1  0  0  0  0
  3 21  2  0  0  0  0
  4 13  1  0  0  0  0
  4 14  1  0  0  0  0
  6  2  2  0  0  0  0
  7 11  1  0  0  0  0
  7  9  1  0  0  0  0
  8 10  1  0  0  0  0
 11 16  2  0  0  0  0
 12 23  1  0  0  0  0
 12  1  2  0  0  0  0
 13  5  1  1  0  0  0
 13  7  1  0  0  0  0
 14 18  2  0  0  0  0
 14 11  1  0  0  0  0
 15 20  2  0  0  0  0
 16  2  1  0  0  0  0
 16  3  1  0  0  0  0
 17  8  2  0  0  0  0
 18  6  1  0  0  0  0
 19 10  2  0  0  0  0
 20 19  1  0  0  0  0
 21 17  1  0  0  0  0
 21 15  1  0  0  0  0
 22 26  1  0  0  0  0
 23 27  1  0  0  0  0
 24 25  1  0  0  0  0
 24 23  2  0  0  0  0
 25 22  2  0  0  0  0
 27 26  2  0  0  0  0
M  END
>  <MODEL>
7

>  <REMARK>
 VINA RESULT:      -9.0      1.576      2.292
  Name = 
  1 active torsions:
  status: ('A' for Active; 'I' for Inactive)
    1  A    between atoms: C_9  and  C_15
                            x       y       z     vdW  Elec       q    Type
                         _______ _______ _______ _____ _____    ______ ____

>  <TORSDO>
F 1

$$$$
=
 OpenBabel10262420103D

 27 31  0  0  1  0  0  0  0  0999 V2000
  185.3310  178.1320  138.7780 C   0  0  0  0  0  3  0  0  0  0  0  0
  185.3040  178.5990  141.2620 C   0  0  0  0  0  0  0  0  0  0  0  0
  187.5920  177.9820  140.7400 N   0  0  0  0  0  0  0  0  0  0  0  0
  186.6480  177.8490  145.5930 S   0  0  0  0  0  0  0  0  0  0  0  0
  189.3590  178.1690  145.3310 C   0  0  0  0  0  1  0  0  0  0  0  0
  184.4780  178.9850  142.3460 C   0  0  0  0  0  3  0  0  0  0  0  0
  188.1320  177.2610  143.4300 N   0  0  0  0  0  0  0  0  0  0  0  0
  189.3600  178.9420  137.5620 C   0  0  0  0  0  3  0  0  0  0  0  0
  189.0690  176.4900  142.6250 C   0  0  0  0  0  1  0  0  0  0  0  0
  188.8910  178.4260  136.4290 C   0  0  0  0  0  3  0  0  0  0  0  0
  186.9060  177.8050  142.9410 C   0  0  0  0  0  0  0  0  0  0  0  0
  184.7750  178.7160  140.0090 C   0  0  0  0  0  0  0  0  0  0  0  0
  188.2350  177.2530  144.8860 C   0  0  2  0  0  3  0  0  0  0  0  0
  186.0430  178.1630  143.9480 C   0  0  0  0  0  0  0  0  0  0  0  0
  186.5910  177.9230  138.4390 C   0  0  0  0  0  0  0  0  0  0  0  0
  186.6050  178.0750  141.5820 C   0  0  0  0  0  0  0  0  0  0  0  0
  188.8860  178.6860  138.9290 C   0  0  0  0  0  3  0  0  0  0  0  0
  184.8380  178.7860  143.6750 C   0  0  0  0  0  3  0  0  0  0  0  0
  187.7730  177.4900  136.2730 C   0  0  0  0  0  3  0  0  0  0  0  0
  186.7810  177.2800  137.1340 C   0  0  0  0  0  3  0  0  0  0  0  0
  187.6960  178.2490  139.3440 C   0  0  0  0  0  0  0  0  0  0  0  0
  180.8630  180.3180  139.3090 C   0  0  0  0  0  3  0  0  0  0  0  0
  183.4230  179.2800  139.7910 C   0  0  0  0  0  0  0  0  0  0  0  0
  182.3030  178.7310  140.4350 C   0  0  0  0  0  3  0  0  0  0  0  0
  181.0280  179.2520  140.1970 C   0  0  0  0  0  3  0  0  0  0  0  0
  181.9730  180.8620  138.6540 C   0  0  0  0  0  3  0  0  0  0  0  0
  183.2480  180.3410  138.8910 C   0  0  0  0  0  3  0  0  0  0  0  0
  1 12  1  0  0  0  0
  2 16  1  0  0  0  0
  2  6  1  0  0  0  0
  3 16  2  0  0  0  0
  6 18  2  0  0  0  0
  7 13  1  0  0  0  0
  8 17  1  0  0  0  0
  9  7  1  0  0  0  0
 10  8  2  0  0  0  0
 11  7  1  0  0  0  0
 11 14  2  0  0  0  0
 12  2  2  0  0  0  0
 13  5  1  6  0  0  0
 13  4  1  0  0  0  0
 14  4  1  0  0  0  0
 15  1  2  0  0  0  0
 15 21  1  0  0  0  0
 16 11  1  0  0  0  0
 17 21  2  0  0  0  0
 18 14  1  0  0  0  0
 19 10  1  0  0  0  0
 19 20  2  0  0  0  0
 20 15  1  0  0  0  0
 21  3  1  0  0  0  0
 22 25  1  0  0  0  0
 23 12  1  0  0  0  0
 23 24  1  0  0  0  0
 25 24  2  0  0  0  0
 26 27  1  0  0  0  0
 26 22  2  0  0  0  0
 27 23  2  0  0  0  0
M  END
>  <MODEL>
8

>  <REMARK>
 VINA RESULT:      -8.9      3.441      6.843
  Name = 
  1 active torsions:
  status: ('A' for Active; 'I' for Inactive)
    1  A    between atoms: C_9  and  C_15
                            x       y       z     vdW  Elec       q    Type
                         _______ _______ _______ _____ _____    ______ ____

>  <TORSDO>
F 1

$$$$
=
 OpenBabel10262420103D

 27 31  0  0  1  0  0  0  0  0999 V2000
  187.5340  177.2570  144.5910 C   0  0  0  0  0  3  0  0  0  0  0  0
  189.2990  177.4260  142.7910 C   0  0  0  0  0  0  0  0  0  0  0  0
  187.2530  178.2450  141.7750 N   0  0  0  0  0  0  0  0  0  0  0  0
  190.7510  177.2120  138.4350 S   0  0  0  0  0  0  0  0  0  0  0  0
  189.0550  179.0190  137.2600 C   0  0  0  0  0  1  0  0  0  0  0  0
  190.6660  177.1920  142.5010 C   0  0  0  0  0  3  0  0  0  0  0  0
  188.2150  177.7370  139.1550 N   0  0  0  0  0  0  0  0  0  0  0  0
  184.6690  180.2850  143.5940 C   0  0  0  0  0  3  0  0  0  0  0  0
  186.7630  177.6930  139.0510 C   0  0  0  0  0  1  0  0  0  0  0  0
  184.0170  179.6880  144.5880 C   0  0  0  0  0  3  0  0  0  0  0  0
  188.9440  177.5350  140.3660 C   0  0  0  0  0  0  0  0  0  0  0  0
  188.9180  177.3260  144.0970 C   0  0  0  0  0  0  0  0  0  0  0  0
  189.0390  177.6690  137.9520 C   0  0  2  0  0  3  0  0  0  0  0  0
  190.2720  177.2640  140.1480 C   0  0  0  0  0  0  0  0  0  0  0  0
  186.4390  177.8200  144.1110 C   0  0  0  0  0  0  0  0  0  0  0  0
  188.4300  177.6980  141.6770 C   0  0  0  0  0  0  0  0  0  0  0  0
  185.6790  179.6970  142.7020 C   0  0  0  0  0  3  0  0  0  0  0  0
  191.1590  177.1220  141.2020 C   0  0  0  0  0  3  0  0  0  0  0  0
  184.1650  178.3020  145.0440 C   0  0  0  0  0  3  0  0  0  0  0  0
  185.2080  177.5030  144.8450 C   0  0  0  0  0  3  0  0  0  0  0  0
  186.4620  178.6350  142.8940 C   0  0  0  0  0  0  0  0  0  0  0  0
  191.7160  176.4710  147.2270 C   0  0  0  0  0  3  0  0  0  0  0  0
  189.9020  177.0490  145.1700 C   0  0  0  0  0  0  0  0  0  0  0  0
  191.1020  176.3780  144.8880 C   0  0  0  0  0  3  0  0  0  0  0  0
  192.0080  176.0940  145.9140 C   0  0  0  0  0  3  0  0  0  0  0  0
  190.5170  177.1280  147.5170 C   0  0  0  0  0  3  0  0  0  0  0  0
  189.6100  177.4120  146.4920 C   0  0  0  0  0  3  0  0  0  0  0  0
  2 12  1  0  0  0  0
  3 21  2  0  0  0  0
  4 14  1  0  0  0  0
  6  2  1  0  0  0  0
  7 11  1  0  0  0  0
  8 10  1  0  0  0  0
  9  7  1  0  0  0  0
 10 19  2  0  0  0  0
 11 16  1  0  0  0  0
 12  1  2  0  0  0  0
 12 23  1  0  0  0  0
 13  5  1  1  0  0  0
 13  4  1  0  0  0  0
 13  7  1  0  0  0  0
 14 11  2  0  0  0  0
 14 18  1  0  0  0  0
 15  1  1  0  0  0  0
 15 20  2  0  0  0  0
 16  3  1  0  0  0  0
 16  2  2  0  0  0  0
 17 21  1  0  0  0  0
 17  8  2  0  0  0  0
 18  6  2  0  0  0  0
 20 19  1  0  0  0  0
 21 15  1  0  0  0  0
 22 26  1  0  0  0  0
 23 27  1  0  0  0  0
 24 23  2  0  0  0  0
 24 25  1  0  0  0  0
 25 22  2  0  0  0  0
 27 26  2  0  0  0  0
M  END
>  <MODEL>
9

>  <REMARK>
 VINA RESULT:      -8.8      1.539      5.117
  Name = 
  1 active torsions:
  status: ('A' for Active; 'I' for Inactive)
    1  A    between atoms: C_9  and  C_15
                            x       y       z     vdW  Elec       q    Type
                         _______ _______ _______ _____ _____    ______ ____

>  <TORSDO>
F 1

$$$$
