=
 OpenBabel10262422113D

 43 48  0  0  1  0  0  0  0  0999 V2000
  187.0240  178.5340  142.0280 C   0  0  1  0  0  3  0  0  0  0  0  0
  189.5300  176.9590  136.1940 C   0  0  1  0  0  3  0  0  0  0  0  0
  186.7670  177.8570  144.4440 C   0  0  0  0  0  1  0  0  0  0  0  0
  189.7040  177.2550  141.3430 C   0  0  0  0  0  0  0  0  0  0  0  0
  186.9440  177.3540  143.0190 C   0  0  2  0  0  3  0  0  0  0  0  0
  190.1800  176.4900  138.6080 C   0  0  1  0  0  3  0  0  0  0  0  0
  189.0290  178.3680  136.5410 C   0  0  0  0  0  2  0  0  0  0  0  0
  190.0300  176.9340  134.7660 C   0  0  0  0  0  1  0  0  0  0  0  0
  188.9220  177.3540  138.8610 C   0  0  2  0  0  3  0  0  0  0  0  0
  190.6420  176.5170  137.1440 C   0  0  0  0  0  2  0  0  0  0  0  0
  188.9860  178.6500  138.0490 C   0  0  0  0  0  2  0  0  0  0  0  0
  187.4790  178.1450  140.6490 C   0  0  0  0  0  3  0  0  0  0  0  0
  188.6690  177.6200  140.3260 C   0  0  0  0  0  0  0  0  0  0  0  0
  190.9340  176.9110  140.9330 C   0  0  0  0  0  3  0  0  0  0  0  0
  189.3390  177.1810  142.8120 C   0  0  1  0  0  3  0  0  0  0  0  0
  188.0890  176.4390  142.9530 N   0  0  0  0  0  2  0  0  0  0  0  0
  191.3340  176.9530  139.4910 C   0  0  0  0  0  2  0  0  0  0  0  0
  190.4140  176.5490  143.6920 C   0  0  0  0  0  2  0  0  0  0  0  0
  191.4520  177.5870  144.0820 C   0  0  0  0  0  2  0  0  0  0  0  0
  190.0840  178.0580  145.9280 C   0  0  0  0  0  2  0  0  0  0  0  0
  189.7780  177.2540  147.1740 C   0  0  1  0  0  0  0  0  0  0  0  0
  189.6150  178.1710  148.3690 C   0  0  0  0  0  1  0  0  0  0  0  0
  191.7710  176.4730  146.1100 C   0  0  0  0  0  2  0  0  0  0  0  0
  191.4550  177.7660  145.5230 N   0  0  0  0  0  0  0  0  0  0  0  0
  188.6170  176.5060  146.9860 O   0  0  0  0  0  1  0  0  0  0  0  0
  190.9580  176.3390  147.3760 C   0  0  0  0  0  2  0  0  0  0  0  0
  185.4310  179.4320  141.9350 S   0  0  0  0  0  0  0  0  0  0  0  0
  184.6870  178.3250  140.6870 C   0  0  1  0  0  3  0  0  0  0  0  0
  183.4310  177.6960  141.2530 C   0  0  0  0  0  1  0  0  0  0  0  0
  184.3660  179.0490  139.5340 O   0  0  0  0  0  0  0  0  0  0  0  0
  183.5650  178.1930  138.7720 C   0  0  2  0  0  3  0  0  0  0  0  0
  184.3920  175.9110  137.8360 C   0  0  2  0  0  0  0  0  0  0  0  0
  183.7210  176.7180  136.8610 O   0  0  0  0  0  0  0  0  0  0  0  0
  184.4400  177.4220  137.7910 C   0  0  1  0  0  0  0  0  0  0  0  0
  185.7470  175.5810  137.5420 O   0  0  0  0  0  0  0  0  0  0  0  0
  184.8040  174.7950  136.9230 C   0  0  1  0  0  3  0  0  0  0  0  0
  185.5410  178.0670  137.2110 O   0  0  0  0  0  1  0  0  0  0  0  0
  183.9030  172.4860  136.8170 C   0  0  0  0  0  1  0  0  0  0  0  0
  185.9690  172.9570  137.8880 O   0  0  0  0  0  1  0  0  0  0  0  0
  184.6930  173.4700  137.6540 C   0  0  1  0  0  3  0  0  0  0  0  0
  182.4860  178.9930  138.0530 C   0  0  0  0  0  2  0  0  0  0  0  0
  181.6200  181.2000  137.8010 F   0  0  0  0  0  0  0  0  0  0  0  0
  182.3910  180.3980  138.6220 C   0  0  0  0  0  2  0  0  0  0  0  0
  1 27  1  6  0  0  0
  1  5  1  0  0  0  0
  2  8  1  6  0  0  0
  2  7  1  0  0  0  0
  2 10  1  0  0  0  0
  4 15  1  0  0  0  0
  5  3  1  1  0  0  0
  6 10  1  6  0  0  0
  6  9  1  0  0  0  0
  6 17  1  0  0  0  0
  7 11  1  0  0  0  0
  9 11  1  6  0  0  0
  9 13  1  0  0  0  0
 12  1  1  0  0  0  0
 13 12  2  0  0  0  0
 13  4  1  0  0  0  0
 14  4  2  0  0  0  0
 15 16  1  0  0  0  0
 15 18  1  1  0  0  0
 16  5  1  0  0  0  0
 17 14  1  0  0  0  0
 18 19  1  0  0  0  0
 19 24  1  0  0  0  0
 20 21  1  0  0  0  0
 21 26  1  0  0  0  0
 21 22  1  1  0  0  0
 23 26  1  0  0  0  0
 24 20  1  0  0  0  0
 24 23  1  0  0  0  0
 25 21  1  0  0  0  0
 28 29  1  1  0  0  0
 28 27  1  0  0  0  0
 30 28  1  0  0  0  0
 31 41  1  6  0  0  0
 31 30  1  0  0  0  0
 32 33  1  6  0  0  0
 33 34  1  0  0  0  0
 34 37  1  6  0  0  0
 34 32  1  0  0  0  0
 34 31  1  0  0  0  0
 35 32  1  0  0  0  0
 36 35  1  0  0  0  0
 36 40  1  1  0  0  0
 36 32  1  0  0  0  0
 40 38  1  6  0  0  0
 40 39  1  0  0  0  0
 41 43  1  0  0  0  0
 42 43  1  0  0  0  0
M  END
>  <MODEL>
1

>  <REMARK>
 VINA RESULT:      -8.0      0.000      0.000
  Name = 
  11 active torsions:
  status: ('A' for Active; 'I' for Inactive)
    1  A    between atoms: C_1  and  C_34
    2  A    between atoms: C_1  and  C_35
    3  A    between atoms: C_2  and  S_6
    4  A    between atoms: O_3  and  C_4
    5  A    between atoms: O_3  and  C_12
    6  A    between atoms: C_4  and  C_15
    7  A    between atoms: C_4  and  C_22
    8  A    between atoms: S_6  and  C_12
    9  A    between atoms: C_15  and  C_42
   10  A    between atoms: C_31  and  C_40
   11  A    between atoms: N_32  and  C_35
                            x       y       z     vdW  Elec       q    Type
                         _______ _______ _______ _____ _____    ______ ____

>  <TORSDO>
F 11

$$$$
=
 OpenBabel10262422113D

 43 48  0  0  1  0  0  0  0  0999 V2000
  189.4770  177.9690  140.7010 C   0  0  1  0  0  3  0  0  0  0  0  0
  183.4340  178.6190  143.1220 C   0  0  1  0  0  3  0  0  0  0  0  0
  190.8960  176.9910  138.8610 C   0  0  0  0  0  1  0  0  0  0  0  0
  186.8300  178.3780  139.2450 C   0  0  0  0  0  0  0  0  0  0  0  0
  189.6270  176.8210  139.6820 C   0  0  2  0  0  3  0  0  0  0  0  0
  184.4040  178.2920  140.7940 C   0  0  1  0  0  3  0  0  0  0  0  0
  184.6120  179.5030  143.5530 C   0  0  0  0  0  2  0  0  0  0  0  0
  182.1890  179.0210  143.8830 C   0  0  0  0  0  1  0  0  0  0  0  0
  185.7240  178.3310  141.6020 C   0  0  2  0  0  3  0  0  0  0  0  0
  183.1830  178.7240  141.6190 C   0  0  0  0  0  2  0  0  0  0  0  0
  185.7530  179.5480  142.5280 C   0  0  0  0  0  2  0  0  0  0  0  0
  188.1230  178.0370  141.3520 C   0  0  0  0  0  3  0  0  0  0  0  0
  186.9550  178.2560  140.7310 C   0  0  0  0  0  0  0  0  0  0  0  0
  185.6660  178.7810  138.7160 C   0  0  0  0  0  3  0  0  0  0  0  0
  187.9750  177.9580  138.3450 C   0  0  1  0  0  3  0  0  0  0  0  0
  188.4750  176.6590  138.7890 N   0  0  0  0  0  2  0  0  0  0  0  0
  184.5030  179.1900  139.5650 C   0  0  0  0  0  2  0  0  0  0  0  0
  187.6130  177.8900  136.8630 C   0  0  0  0  0  2  0  0  0  0  0  0
  187.8420  176.4870  136.3310 C   0  0  0  0  0  2  0  0  0  0  0  0
  185.8900  175.2380  136.6970 C   0  0  0  0  0  2  0  0  0  0  0  0
  184.4280  175.6180  136.5900 C   0  0  1  0  0  0  0  0  0  0  0  0
  183.6140  174.4480  136.0750 C   0  0  0  0  0  1  0  0  0  0  0  0
  185.8110  177.1580  135.3930 C   0  0  0  0  0  2  0  0  0  0  0  0
  186.6320  175.9960  135.6950 N   0  0  0  0  0  0  0  0  0  0  0  0
  183.9480  176.0220  137.8340 O   0  0  0  0  0  1  0  0  0  0  0  0
  184.3690  176.7640  135.6130 C   0  0  0  0  0  2  0  0  0  0  0  0
  190.7860  177.8990  141.9790 S   0  0  0  0  0  0  0  0  0  0  0  0
  189.6500  177.5430  143.3640 C   0  0  1  0  0  3  0  0  0  0  0  0
  189.5240  176.0440  143.5420 C   0  0  0  0  0  1  0  0  0  0  0  0
  190.1390  178.1130  144.5440 O   0  0  0  0  0  0  0  0  0  0  0  0
  190.3330  177.0390  145.4190 C   0  0  2  0  0  3  0  0  0  0  0  0
  188.1870  177.8740  146.6290 C   0  0  2  0  0  0  0  0  0  0  0  0
  188.4920  176.5000  146.8920 O   0  0  0  0  0  0  0  0  0  0  0  0
  189.5850  177.3060  146.7200 C   0  0  1  0  0  0  0  0  0  0  0  0
  188.1610  178.7330  147.7660 O   0  0  0  0  0  0  0  0  0  0  0  0
  187.0160  178.0020  147.5570 C   0  0  1  0  0  3  0  0  0  0  0  0
  190.3180  177.4430  147.9080 O   0  0  0  0  0  1  0  0  0  0  0  0
  184.6400  178.1470  146.8580 C   0  0  0  0  0  1  0  0  0  0  0  0
  185.8000  180.0430  147.6940 O   0  0  0  0  0  1  0  0  0  0  0  0
  185.9590  178.8890  146.9270 C   0  0  1  0  0  3  0  0  0  0  0  0
  191.8220  176.8280  145.6600 C   0  0  0  0  0  2  0  0  0  0  0  0
  192.8310  175.5060  147.3680 F   0  0  0  0  0  0  0  0  0  0  0  0
  192.0870  175.4360  146.2050 C   0  0  0  0  0  2  0  0  0  0  0  0
  1 12  1  0  0  0  0
  1 27  1  1  0  0  0
  2  7  1  0  0  0  0
  2  8  1  1  0  0  0
  4 13  1  0  0  0  0
  5  3  1  6  0  0  0
  5  1  1  0  0  0  0
  6 17  1  6  0  0  0
  6  9  1  0  0  0  0
  6 10  1  0  0  0  0
  9 11  1  6  0  0  0
 10  2  1  0  0  0  0
 11  7  1  0  0  0  0
 13 12  2  0  0  0  0
 13  9  1  0  0  0  0
 14  4  2  0  0  0  0
 14 17  1  0  0  0  0
 15 18  1  6  0  0  0
 15 16  1  0  0  0  0
 15  4  1  0  0  0  0
 16  5  1  0  0  0  0
 19 18  1  0  0  0  0
 21 22  1  6  0  0  0
 21 20  1  0  0  0  0
 21 25  1  0  0  0  0
 23 26  1  0  0  0  0
 23 24  1  0  0  0  0
 24 19  1  0  0  0  0
 24 20  1  0  0  0  0
 26 21  1  0  0  0  0
 27 28  1  0  0  0  0
 28 29  1  1  0  0  0
 28 30  1  0  0  0  0
 30 31  1  0  0  0  0
 31 41  1  1  0  0  0
 31 34  1  0  0  0  0
 32 34  1  0  0  0  0
 32 33  1  1  0  0  0
 32 36  1  0  0  0  0
 32 35  1  0  0  0  0
 34 33  1  0  0  0  0
 34 37  1  1  0  0  0
 36 40  1  6  0  0  0
 36 35  1  0  0  0  0
 40 38  1  1  0  0  0
 40 39  1  0  0  0  0
 41 43  1  0  0  0  0
 43 42  1  0  0  0  0
M  END
>  <MODEL>
2

>  <REMARK>
 VINA RESULT:      -7.6      3.399      9.389
  Name = 
  11 active torsions:
  status: ('A' for Active; 'I' for Inactive)
    1  A    between atoms: C_1  and  C_34
    2  A    between atoms: C_1  and  C_35
    3  A    between atoms: C_2  and  S_6
    4  A    between atoms: O_3  and  C_4
    5  A    between atoms: O_3  and  C_12
    6  A    between atoms: C_4  and  C_15
    7  A    between atoms: C_4  and  C_22
    8  A    between atoms: S_6  and  C_12
    9  A    between atoms: C_15  and  C_42
   10  A    between atoms: C_31  and  C_40
   11  A    between atoms: N_32  and  C_35
                            x       y       z     vdW  Elec       q    Type
                         _______ _______ _______ _____ _____    ______ ____

>  <TORSDO>
F 11

$$$$
=
 OpenBabel10262422113D

 43 48  0  0  1  0  0  0  0  0999 V2000
  186.9040  178.1690  140.3390 C   0  0  1  0  0  3  0  0  0  0  0  0
  188.9840  178.0520  146.5410 C   0  0  1  0  0  3  0  0  0  0  0  0
  187.5710  178.3540  137.9140 C   0  0  0  0  0  1  0  0  0  0  0  0
  189.3890  176.8710  141.5340 C   0  0  0  0  0  0  0  0  0  0  0  0
  187.9300  178.7420  139.3410 C   0  0  2  0  0  3  0  0  0  0  0  0
  189.9930  177.3920  144.3010 C   0  0  1  0  0  3  0  0  0  0  0  0
  187.5850  177.5870  146.1150 C   0  0  0  0  0  2  0  0  0  0  0  0
  189.1350  177.9090  148.0400 C   0  0  0  0  0  1  0  0  0  0  0  0
  188.6020  177.8610  143.8100 C   0  0  2  0  0  3  0  0  0  0  0  0
  190.0740  177.2540  145.8280 C   0  0  0  0  0  2  0  0  0  0  0  0
  187.4910  177.2050  144.6320 C   0  0  0  0  0  2  0  0  0  0  0  0
  187.3310  178.2610  141.7780 C   0  0  0  0  0  3  0  0  0  0  0  0
  188.3980  177.6630  142.3270 C   0  0  0  0  0  0  0  0  0  0  0  0
  190.3200  176.1520  142.1780 C   0  0  0  0  0  3  0  0  0  0  0  0
  189.4010  176.9570  140.0210 C   0  0  1  0  0  3  0  0  0  0  0  0
  189.3180  178.3610  139.6260 N   0  0  0  0  0  2  0  0  0  0  0  0
  190.3580  176.0510  143.6710 C   0  0  0  0  0  2  0  0  0  0  0  0
  190.6190  176.3090  139.3670 C   0  0  0  0  0  2  0  0  0  0  0  0
  191.0200  177.0830  138.1240 C   0  0  0  0  0  2  0  0  0  0  0  0
  193.1800  176.5730  137.3670 C   0  0  0  0  0  2  0  0  0  0  0  0
  193.9820  175.2890  137.4290 C   0  0  1  0  0  0  0  0  0  0  0  0
  194.8350  175.1380  136.1850 C   0  0  0  0  0  1  0  0  0  0  0  0
  191.6500  174.8670  137.7400 C   0  0  0  0  0  2  0  0  0  0  0  0
  191.7710  176.2220  137.2270 N   0  0  0  0  0  0  0  0  0  0  0  0
  194.7900  175.2870  138.5640 O   0  0  0  0  0  1  0  0  0  0  0  0
  192.9720  174.1740  137.5080 C   0  0  0  0  0  2  0  0  0  0  0  0
  185.2610  178.9470  140.1210 S   0  0  0  0  0  0  0  0  0  0  0  0
  184.4270  177.9400  141.3970 C   0  0  1  0  0  3  0  0  0  0  0  0
  184.0880  178.8110  142.5880 C   0  0  0  0  0  1  0  0  0  0  0  0
  183.2540  177.3830  140.8780 O   0  0  0  0  0  0  0  0  0  0  0  0
  183.0730  177.9980  139.6350 C   0  0  2  0  0  3  0  0  0  0  0  0
  181.5930  179.9100  138.6770 C   0  0  2  0  0  0  0  0  0  0  0  0
  181.0470  178.6040  138.4610 O   0  0  0  0  0  0  0  0  0  0  0  0
  181.7450  178.7470  139.6300 C   0  0  1  0  0  0  0  0  0  0  0  0
  180.7890  180.7990  139.4490 O   0  0  0  0  0  0  0  0  0  0  0  0
  180.4460  180.7020  138.1220 C   0  0  1  0  0  3  0  0  0  0  0  0
  180.9060  178.6470  140.7480 O   0  0  0  0  0  1  0  0  0  0  0  0
  180.4800  181.8870  135.9420 C   0  0  0  0  0  1  0  0  0  0  0  0
  180.5310  183.0770  137.9970 O   0  0  0  0  0  1  0  0  0  0  0  0
  180.9750  181.9110  137.3740 C   0  0  1  0  0  3  0  0  0  0  0  0
  183.1330  176.9550  138.5260 C   0  0  0  0  0  2  0  0  0  0  0  0
  181.3370  175.5100  139.1350 F   0  0  0  0  0  0  0  0  0  0  0  0
  182.7150  175.5910  139.0470 C   0  0  0  0  0  2  0  0  0  0  0  0
  1 27  1  1  0  0  0
  1 12  1  0  0  0  0
  2  8  1  1  0  0  0
  4 14  2  0  0  0  0
  4 13  1  0  0  0  0
  5  3  1  6  0  0  0
  5 16  1  0  0  0  0
  5  1  1  0  0  0  0
  6 17  1  6  0  0  0
  6 10  1  0  0  0  0
  7  2  1  0  0  0  0
  9  6  1  0  0  0  0
  9 11  1  1  0  0  0
 10  2  1  0  0  0  0
 11  7  1  0  0  0  0
 12 13  2  0  0  0  0
 13  9  1  0  0  0  0
 14 17  1  0  0  0  0
 15 18  1  1  0  0  0
 15  4  1  0  0  0  0
 16 15  1  0  0  0  0
 19 18  1  0  0  0  0
 20 21  1  0  0  0  0
 21 22  1  6  0  0  0
 21 26  1  0  0  0  0
 21 25  1  0  0  0  0
 24 20  1  0  0  0  0
 24 23  1  0  0  0  0
 24 19  1  0  0  0  0
 26 23  1  0  0  0  0
 27 28  1  0  0  0  0
 28 29  1  1  0  0  0
 30 28  1  0  0  0  0
 31 41  1  6  0  0  0
 31 30  1  0  0  0  0
 32 33  1  1  0  0  0
 32 35  1  0  0  0  0
 32 34  1  0  0  0  0
 33 34  1  0  0  0  0
 34 31  1  0  0  0  0
 34 37  1  1  0  0  0
 36 40  1  6  0  0  0
 36 32  1  0  0  0  0
 36 35  1  0  0  0  0
 40 38  1  6  0  0  0
 40 39  1  0  0  0  0
 41 43  1  0  0  0  0
 43 42  1  0  0  0  0
M  END
>  <MODEL>
3

>  <REMARK>
 VINA RESULT:      -7.5      2.974      6.938
  Name = 
  11 active torsions:
  status: ('A' for Active; 'I' for Inactive)
    1  A    between atoms: C_1  and  C_34
    2  A    between atoms: C_1  and  C_35
    3  A    between atoms: C_2  and  S_6
    4  A    between atoms: O_3  and  C_4
    5  A    between atoms: O_3  and  C_12
    6  A    between atoms: C_4  and  C_15
    7  A    between atoms: C_4  and  C_22
    8  A    between atoms: S_6  and  C_12
    9  A    between atoms: C_15  and  C_42
   10  A    between atoms: C_31  and  C_40
   11  A    between atoms: N_32  and  C_35
                            x       y       z     vdW  Elec       q    Type
                         _______ _______ _______ _____ _____    ______ ____

>  <TORSDO>
F 11

$$$$
=
 OpenBabel10262422113D

 43 48  0  0  1  0  0  0  0  0999 V2000
  186.7070  178.2380  139.7400 C   0  0  1  0  0  3  0  0  0  0  0  0
  188.3420  178.0640  146.0720 C   0  0  1  0  0  3  0  0  0  0  0  0
  187.5440  178.4590  137.3710 C   0  0  0  0  0  1  0  0  0  0  0  0
  189.1150  176.9480  141.0940 C   0  0  0  0  0  0  0  0  0  0  0  0
  187.7970  178.8330  138.8240 C   0  0  2  0  0  3  0  0  0  0  0  0
  189.5140  177.4410  143.9030 C   0  0  1  0  0  3  0  0  0  0  0  0
  186.9810  177.5920  145.5420 C   0  0  0  0  0  2  0  0  0  0  0  0
  188.3860  177.9040  147.5770 C   0  0  0  0  0  1  0  0  0  0  0  0
  188.1570  177.9040  143.3200 C   0  0  2  0  0  3  0  0  0  0  0  0
  189.4880  177.2850  145.4310 C   0  0  0  0  0  2  0  0  0  0  0  0
  186.9970  177.2260  144.0520 C   0  0  0  0  0  2  0  0  0  0  0  0
  187.0300  178.3170  141.2070 C   0  0  0  0  0  3  0  0  0  0  0  0
  188.0620  177.7220  141.8230 C   0  0  0  0  0  0  0  0  0  0  0  0
  190.0050  176.2310  141.7950 C   0  0  0  0  0  3  0  0  0  0  0  0
  189.2330  177.0530  139.5870 C   0  0  1  0  0  3  0  0  0  0  0  0
  189.1650  178.4610  139.2030 N   0  0  0  0  0  2  0  0  0  0  0  0
  189.9370  176.1120  143.2850 C   0  0  0  0  0  2  0  0  0  0  0  0
  190.5010  176.4250  139.0140 C   0  0  0  0  0  2  0  0  0  0  0  0
  190.1460  175.4120  137.9410 C   0  0  0  0  0  2  0  0  0  0  0  0
  192.2240  176.3190  137.3390 C   0  0  0  0  0  2  0  0  0  0  0  0
  193.5680  175.6620  137.1000 C   0  0  1  0  0  0  0  0  0  0  0  0
  194.3130  176.3720  135.9880 C   0  0  0  0  0  1  0  0  0  0  0  0
  191.7920  174.0670  136.9710 C   0  0  0  0  0  2  0  0  0  0  0  0
  191.1820  175.3870  136.9220 N   0  0  0  0  0  0  0  0  0  0  0  0
  194.3230  175.6850  138.2710 O   0  0  0  0  0  1  0  0  0  0  0  0
  193.2680  174.2400  136.7020 C   0  0  0  0  0  2  0  0  0  0  0  0
  185.0760  179.0030  139.4140 S   0  0  0  0  0  0  0  0  0  0  0  0
  184.1140  177.7320  140.3050 C   0  0  1  0  0  3  0  0  0  0  0  0
  183.9150  178.1630  141.7430 C   0  0  0  0  0  1  0  0  0  0  0  0
  182.8670  177.5580  139.6940 O   0  0  0  0  0  0  0  0  0  0  0  0
  182.8180  176.2060  139.3360 C   0  0  2  0  0  3  0  0  0  0  0  0
  184.5300  175.3660  137.5680 C   0  0  2  0  0  0  0  0  0  0  0  0
  183.2410  174.7550  137.4490 O   0  0  0  0  0  0  0  0  0  0  0  0
  183.2200  176.0560  137.8740 C   0  0  1  0  0  0  0  0  0  0  0  0
  184.9740  176.1040  136.4320 O   0  0  0  0  0  0  0  0  0  0  0  0
  185.1610  174.7440  136.3580 C   0  0  1  0  0  3  0  0  0  0  0  0
  182.6380  176.9010  136.9190 O   0  0  0  0  0  1  0  0  0  0  0  0
  186.8120  172.9150  136.6440 C   0  0  0  0  0  1  0  0  0  0  0  0
  187.4270  174.9940  135.6750 O   0  0  0  0  0  1  0  0  0  0  0  0
  186.6130  174.4170  136.6490 C   0  0  1  0  0  3  0  0  0  0  0  0
  181.4230  175.6510  139.5950 C   0  0  0  0  0  2  0  0  0  0  0  0
  179.9560  176.6870  141.1630 F   0  0  0  0  0  0  0  0  0  0  0  0
  180.4400  176.7760  139.8710 C   0  0  0  0  0  2  0  0  0  0  0  0
  1 27  1  1  0  0  0
  1 12  1  0  0  0  0
  2  8  1  1  0  0  0
  4 14  2  0  0  0  0
  4 13  1  0  0  0  0
  5  3  1  6  0  0  0
  5 16  1  0  0  0  0
  5  1  1  0  0  0  0
  6 17  1  6  0  0  0
  6 10  1  0  0  0  0
  7  2  1  0  0  0  0
  9  6  1  0  0  0  0
  9 11  1  1  0  0  0
 10  2  1  0  0  0  0
 11  7  1  0  0  0  0
 12 13  2  0  0  0  0
 13  9  1  0  0  0  0
 14 17  1  0  0  0  0
 15 18  1  1  0  0  0
 15  4  1  0  0  0  0
 16 15  1  0  0  0  0
 19 18  1  0  0  0  0
 21 22  1  6  0  0  0
 21 20  1  0  0  0  0
 21 25  1  0  0  0  0
 24 23  1  0  0  0  0
 24 20  1  0  0  0  0
 24 19  1  0  0  0  0
 26 23  1  0  0  0  0
 26 21  1  0  0  0  0
 27 28  1  0  0  0  0
 28 29  1  1  0  0  0
 30 28  1  0  0  0  0
 31 41  1  6  0  0  0
 31 30  1  0  0  0  0
 32 35  1  6  0  0  0
 32 34  1  0  0  0  0
 33 32  1  0  0  0  0
 33 34  1  0  0  0  0
 34 37  1  6  0  0  0
 34 31  1  0  0  0  0
 36 35  1  0  0  0  0
 36 40  1  1  0  0  0
 36 32  1  0  0  0  0
 39 40  1  0  0  0  0
 40 38  1  6  0  0  0
 41 43  1  0  0  0  0
 43 42  1  0  0  0  0
M  END
>  <MODEL>
4

>  <REMARK>
 VINA RESULT:      -7.2      2.712      6.144
  Name = 
  11 active torsions:
  status: ('A' for Active; 'I' for Inactive)
    1  A    between atoms: C_1  and  C_34
    2  A    between atoms: C_1  and  C_35
    3  A    between atoms: C_2  and  S_6
    4  A    between atoms: O_3  and  C_4
    5  A    between atoms: O_3  and  C_12
    6  A    between atoms: C_4  and  C_15
    7  A    between atoms: C_4  and  C_22
    8  A    between atoms: S_6  and  C_12
    9  A    between atoms: C_15  and  C_42
   10  A    between atoms: C_31  and  C_40
   11  A    between atoms: N_32  and  C_35
                            x       y       z     vdW  Elec       q    Type
                         _______ _______ _______ _____ _____    ______ ____

>  <TORSDO>
F 11

$$$$
=
 OpenBabel10262422113D

 43 48  0  0  1  0  0  0  0  0999 V2000
  188.1430  178.1510  138.5020 C   0  0  1  0  0  3  0  0  0  0  0  0
  188.3830  177.1190  144.9570 C   0  0  1  0  0  3  0  0  0  0  0  0
  186.7030  178.1190  136.4320 C   0  0  0  0  0  1  0  0  0  0  0  0
  186.0710  178.7700  140.6490 C   0  0  0  0  0  0  0  0  0  0  0  0
  186.9300  177.5020  137.8040 C   0  0  2  0  0  3  0  0  0  0  0  0
  186.5640  177.8180  143.3220 C   0  0  1  0  0  3  0  0  0  0  0  0
  189.4560  177.9040  144.1920 C   0  0  0  0  0  2  0  0  0  0  0  0
  188.7490  177.0530  146.4240 C   0  0  0  0  0  1  0  0  0  0  0  0
  187.7470  177.7010  142.3320 C   0  0  2  0  0  3  0  0  0  0  0  0
  187.0050  177.7580  144.7920 C   0  0  0  0  0  2  0  0  0  0  0  0
  188.9640  178.4690  142.8520 C   0  0  0  0  0  2  0  0  0  0  0  0
  188.2680  177.8070  139.9600 C   0  0  0  0  0  3  0  0  0  0  0  0
  187.3850  178.1080  140.9230 C   0  0  0  0  0  0  0  0  0  0  0  0
  185.3290  179.2050  141.6780 C   0  0  0  0  0  3  0  0  0  0  0  0
  185.5420  178.8610  139.2330 C   0  0  1  0  0  3  0  0  0  0  0  0
  185.6900  177.5590  138.5870 N   0  0  0  0  0  2  0  0  0  0  0  0
  185.8040  179.1210  143.0960 C   0  0  0  0  0  2  0  0  0  0  0  0
  184.0890  179.3200  139.1360 C   0  0  0  0  0  2  0  0  0  0  0  0
  183.2710  178.3080  138.3530 C   0  0  0  0  0  2  0  0  0  0  0  0
  181.9780  177.7800  140.2380 C   0  0  0  0  0  2  0  0  0  0  0  0
  181.0590  178.6320  141.0880 C   0  0  1  0  0  0  0  0  0  0  0  0
  179.8730  177.8170  141.5640 C   0  0  0  0  0  1  0  0  0  0  0  0
  181.4560  179.6480  138.9610 C   0  0  0  0  0  2  0  0  0  0  0  0
  181.9120  178.2700  138.8650 N   0  0  0  0  0  0  0  0  0  0  0  0
  181.7570  179.1410  142.1810 O   0  0  0  0  0  1  0  0  0  0  0  0
  180.5950  179.7560  140.1980 C   0  0  0  0  0  2  0  0  0  0  0  0
  189.7020  177.7530  137.6280 S   0  0  0  0  0  0  0  0  0  0  0  0
  189.7010  175.9830  138.0770 C   0  0  1  0  0  3  0  0  0  0  0  0
  189.5530  175.1440  136.8260 C   0  0  0  0  0  1  0  0  0  0  0  0
  190.8970  175.6510  138.7220 O   0  0  0  0  0  0  0  0  0  0  0  0
  191.8290  176.5960  138.2800 C   0  0  2  0  0  3  0  0  0  0  0  0
  193.9820  175.2570  137.7050 C   0  0  2  0  0  0  0  0  0  0  0  0
  192.7760  174.5960  137.3060 O   0  0  0  0  0  0  0  0  0  0  0  0
  192.7320  175.9620  137.2300 C   0  0  1  0  0  0  0  0  0  0  0  0
  194.8950  175.5700  136.6560 O   0  0  0  0  0  0  0  0  0  0  0  0
  194.9530  174.2760  137.1170 C   0  0  1  0  0  3  0  0  0  0  0  0
  192.6420  176.4030  135.9020 O   0  0  0  0  0  1  0  0  0  0  0  0
  196.7550  172.7460  137.8690 C   0  0  0  0  0  1  0  0  0  0  0  0
  197.1030  175.0910  137.7330 O   0  0  0  0  0  1  0  0  0  0  0  0
  196.1470  174.1230  138.0400 C   0  0  1  0  0  3  0  0  0  0  0  0
  192.6290  177.1280  139.4630 C   0  0  0  0  0  2  0  0  0  0  0  0
  192.3630  177.3080  141.8250 F   0  0  0  0  0  0  0  0  0  0  0  0
  191.7100  177.4810  140.6190 C   0  0  0  0  0  2  0  0  0  0  0  0
  1 27  1  6  0  0  0
  1 12  1  0  0  0  0
  2  8  1  1  0  0  0
  4 13  1  0  0  0  0
  4 14  2  0  0  0  0
  5  3  1  6  0  0  0
  5  1  1  0  0  0  0
  5 16  1  0  0  0  0
  6 17  1  1  0  0  0
  6 10  1  0  0  0  0
  7  2  1  0  0  0  0
  9 11  1  1  0  0  0
  9  6  1  0  0  0  0
 10  2  1  0  0  0  0
 11  7  1  0  0  0  0
 12 13  2  0  0  0  0
 13  9  1  0  0  0  0
 14 17  1  0  0  0  0
 15 18  1  1  0  0  0
 15  4  1  0  0  0  0
 16 15  1  0  0  0  0
 19 24  1  0  0  0  0
 19 18  1  0  0  0  0
 20 21  1  0  0  0  0
 21 22  1  1  0  0  0
 21 25  1  0  0  0  0
 23 26  1  0  0  0  0
 24 23  1  0  0  0  0
 24 20  1  0  0  0  0
 26 21  1  0  0  0  0
 27 28  1  0  0  0  0
 28 29  1  6  0  0  0
 28 30  1  0  0  0  0
 31 30  1  0  0  0  0
 31 41  1  1  0  0  0
 32 35  1  6  0  0  0
 33 32  1  0  0  0  0
 34 37  1  6  0  0  0
 34 33  1  0  0  0  0
 34 32  1  0  0  0  0
 34 31  1  0  0  0  0
 35 36  1  0  0  0  0
 36 32  1  0  0  0  0
 36 40  1  1  0  0  0
 39 40  1  0  0  0  0
 40 38  1  6  0  0  0
 41 43  1  0  0  0  0
 43 42  1  0  0  0  0
M  END
>  <MODEL>
5

>  <REMARK>
 VINA RESULT:      -7.0      4.379      8.764
  Name = 
  11 active torsions:
  status: ('A' for Active; 'I' for Inactive)
    1  A    between atoms: C_1  and  C_34
    2  A    between atoms: C_1  and  C_35
    3  A    between atoms: C_2  and  S_6
    4  A    between atoms: O_3  and  C_4
    5  A    between atoms: O_3  and  C_12
    6  A    between atoms: C_4  and  C_15
    7  A    between atoms: C_4  and  C_22
    8  A    between atoms: S_6  and  C_12
    9  A    between atoms: C_15  and  C_42
   10  A    between atoms: C_31  and  C_40
   11  A    between atoms: N_32  and  C_35
                            x       y       z     vdW  Elec       q    Type
                         _______ _______ _______ _____ _____    ______ ____

>  <TORSDO>
F 11

$$$$
=
 OpenBabel10262422113D

 43 48  0  0  1  0  0  0  0  0999 V2000
  189.7120  177.3890  140.5800 C   0  0  1  0  0  3  0  0  0  0  0  0
  193.7490  175.4020  135.8310 C   0  0  1  0  0  3  0  0  0  0  0  0
  187.6480  178.7220  141.1460 C   0  0  0  0  0  1  0  0  0  0  0  0
  189.0810  176.5140  137.7300 C   0  0  0  0  0  0  0  0  0  0  0  0
  188.8250  178.5900  140.1920 C   0  0  2  0  0  3  0  0  0  0  0  0
  191.2860  176.0280  135.9420 C   0  0  1  0  0  3  0  0  0  0  0  0
  193.7100  174.7590  137.2240 C   0  0  0  0  0  2  0  0  0  0  0  0
  194.8010  174.7180  134.9840 C   0  0  0  0  0  1  0  0  0  0  0  0
  191.6530  176.2240  137.4330 C   0  0  2  0  0  3  0  0  0  0  0  0
  192.3890  175.3180  135.1430 C   0  0  0  0  0  2  0  0  0  0  0  0
  192.3910  174.9970  137.9730 C   0  0  0  0  0  2  0  0  0  0  0  0
  190.7280  177.0150  139.5370 C   0  0  0  0  0  3  0  0  0  0  0  0
  190.4660  176.5900  138.2930 C   0  0  0  0  0  0  0  0  0  0  0  0
  188.8860  175.9050  136.5510 C   0  0  0  0  0  3  0  0  0  0  0  0
  187.9310  177.2000  138.4370 C   0  0  1  0  0  3  0  0  0  0  0  0
  188.3420  178.5520  138.8080 N   0  0  0  0  0  2  0  0  0  0  0  0
  189.9950  175.2280  135.8090 C   0  0  0  0  0  2  0  0  0  0  0  0
  186.6420  177.2610  137.6200 C   0  0  0  0  0  2  0  0  0  0  0  0
  185.8510  178.5060  137.9800 C   0  0  0  0  0  2  0  0  0  0  0  0
  184.0660  179.3610  139.2380 C   0  0  0  0  0  2  0  0  0  0  0  0
  182.5700  179.3150  139.0070 C   0  0  1  0  0  0  0  0  0  0  0  0
  181.8340  179.1850  140.3260 C   0  0  0  0  0  1  0  0  0  0  0  0
  183.6950  177.6470  137.7170 C   0  0  0  0  0  2  0  0  0  0  0  0
  184.6470  178.1350  138.7030 N   0  0  0  0  0  0  0  0  0  0  0  0
  182.1550  180.4670  138.3410 O   0  0  0  0  0  1  0  0  0  0  0  0
  182.3210  178.1010  138.1490 C   0  0  0  0  0  2  0  0  0  0  0  0
  190.5390  177.6670  142.1900 S   0  0  0  0  0  0  0  0  0  0  0  0
  189.0220  177.4890  143.1920 C   0  0  1  0  0  3  0  0  0  0  0  0
  188.7290  176.0190  143.4080 C   0  0  0  0  0  1  0  0  0  0  0  0
  189.1880  178.1180  144.4300 O   0  0  0  0  0  0  0  0  0  0  0  0
  188.6890  177.2130  145.3730 C   0  0  2  0  0  3  0  0  0  0  0  0
  186.3310  178.2660  145.0670 C   0  0  2  0  0  0  0  0  0  0  0  0
  186.3100  177.0140  145.7620 O   0  0  0  0  0  0  0  0  0  0  0  0
  187.4200  177.7810  145.9970 C   0  0  1  0  0  0  0  0  0  0  0  0
  185.8260  179.3860  145.7910 O   0  0  0  0  0  0  0  0  0  0  0  0
  184.8730  178.5920  145.1980 C   0  0  1  0  0  3  0  0  0  0  0  0
  187.4610  178.2380  147.3210 O   0  0  0  0  0  1  0  0  0  0  0  0
  184.4030  178.2630  142.7840 C   0  0  0  0  0  1  0  0  0  0  0  0
  183.0800  179.7200  144.1130 O   0  0  0  0  0  1  0  0  0  0  0  0
  184.3820  179.2580  143.9260 C   0  0  1  0  0  3  0  0  0  0  0  0
  189.7510  176.9220  146.4260 C   0  0  0  0  0  2  0  0  0  0  0  0
  192.0580  176.4010  146.7280 F   0  0  0  0  0  0  0  0  0  0  0  0
  191.1150  176.7540  145.7800 C   0  0  0  0  0  2  0  0  0  0  0  0
  1 27  1  1  0  0  0
  2  8  1  6  0  0  0
  2  7  1  0  0  0  0
  4 13  1  0  0  0  0
  4 15  1  0  0  0  0
  5  1  1  0  0  0  0
  5  3  1  1  0  0  0
  6 10  1  6  0  0  0
  6  9  1  0  0  0  0
  7 11  1  0  0  0  0
  9 11  1  1  0  0  0
  9 13  1  0  0  0  0
 10  2  1  0  0  0  0
 12  1  1  0  0  0  0
 13 12  2  0  0  0  0
 14  4  2  0  0  0  0
 15 18  1  6  0  0  0
 15 16  1  0  0  0  0
 16  5  1  0  0  0  0
 17  6  1  0  0  0  0
 17 14  1  0  0  0  0
 18 19  1  0  0  0  0
 19 24  1  0  0  0  0
 21 20  1  0  0  0  0
 21 22  1  1  0  0  0
 23 26  1  0  0  0  0
 23 24  1  0  0  0  0
 24 20  1  0  0  0  0
 25 21  1  0  0  0  0
 26 21  1  0  0  0  0
 27 28  1  0  0  0  0
 28 29  1  1  0  0  0
 28 30  1  0  0  0  0
 30 31  1  0  0  0  0
 31 34  1  0  0  0  0
 31 41  1  1  0  0  0
 32 36  1  0  0  0  0
 32 33  1  1  0  0  0
 32 35  1  0  0  0  0
 32 34  1  0  0  0  0
 33 34  1  0  0  0  0
 34 37  1  1  0  0  0
 36 40  1  6  0  0  0
 36 35  1  0  0  0  0
 40 38  1  6  0  0  0
 40 39  1  0  0  0  0
 43 41  1  0  0  0  0
 43 42  1  0  0  0  0
M  END
>  <MODEL>
6

>  <REMARK>
 VINA RESULT:      -7.0      3.711      7.910
  Name = 
  11 active torsions:
  status: ('A' for Active; 'I' for Inactive)
    1  A    between atoms: C_1  and  C_34
    2  A    between atoms: C_1  and  C_35
    3  A    between atoms: C_2  and  S_6
    4  A    between atoms: O_3  and  C_4
    5  A    between atoms: O_3  and  C_12
    6  A    between atoms: C_4  and  C_15
    7  A    between atoms: C_4  and  C_22
    8  A    between atoms: S_6  and  C_12
    9  A    between atoms: C_15  and  C_42
   10  A    between atoms: C_31  and  C_40
   11  A    between atoms: N_32  and  C_35
                            x       y       z     vdW  Elec       q    Type
                         _______ _______ _______ _____ _____    ______ ____

>  <TORSDO>
F 11

$$$$
=
 OpenBabel10262422113D

 43 48  0  0  1  0  0  0  0  0999 V2000
  187.2520  178.5810  142.1510 C   0  0  1  0  0  3  0  0  0  0  0  0
  189.4540  176.9510  136.2090 C   0  0  1  0  0  3  0  0  0  0  0  0
  187.0660  177.8960  144.5700 C   0  0  0  0  0  1  0  0  0  0  0  0
  189.8480  177.1990  141.3490 C   0  0  0  0  0  0  0  0  0  0  0  0
  187.1640  177.3980  143.1360 C   0  0  2  0  0  3  0  0  0  0  0  0
  190.1810  176.4360  138.5920 C   0  0  1  0  0  3  0  0  0  0  0  0
  189.0250  178.3760  136.5850 C   0  0  0  0  0  2  0  0  0  0  0  0
  189.8930  176.9170  134.7620 C   0  0  0  0  0  1  0  0  0  0  0  0
  188.9710  177.3500  138.9010 C   0  0  2  0  0  3  0  0  0  0  0  0
  190.5840  176.4570  137.1100 C   0  0  0  0  0  2  0  0  0  0  0  0
  189.0550  178.6480  138.0950 C   0  0  0  0  0  2  0  0  0  0  0  0
  187.6350  178.1850  140.7510 C   0  0  0  0  0  3  0  0  0  0  0  0
  188.7880  177.6140  140.3770 C   0  0  0  0  0  0  0  0  0  0  0  0
  191.0450  176.8090  140.8870 C   0  0  0  0  0  3  0  0  0  0  0  0
  189.5400  177.1290  142.8310 C   0  0  1  0  0  3  0  0  0  0  0  0
  188.2670  176.4380  143.0180 N   0  0  0  0  0  2  0  0  0  0  0  0
  191.3880  176.8460  139.4300 C   0  0  0  0  0  2  0  0  0  0  0  0
  190.6230  176.4460  143.6630 C   0  0  0  0  0  2  0  0  0  0  0  0
  191.6600  177.4610  144.1080 C   0  0  0  0  0  2  0  0  0  0  0  0
  190.2900  178.0540  145.9170 C   0  0  0  0  0  2  0  0  0  0  0  0
  189.8330  177.2630  147.1250 C   0  0  1  0  0  0  0  0  0  0  0  0
  189.7410  178.1610  148.3420 C   0  0  0  0  0  1  0  0  0  0  0  0
  191.7520  176.2610  146.1100 C   0  0  0  0  0  2  0  0  0  0  0  0
  191.6280  177.5990  145.5540 N   0  0  0  0  0  0  0  0  0  0  0  0
  188.5950  176.6770  146.8700 O   0  0  0  0  0  1  0  0  0  0  0  0
  190.8780  176.1980  147.3410 C   0  0  0  0  0  2  0  0  0  0  0  0
  185.6950  179.5440  142.1280 S   0  0  0  0  0  0  0  0  0  0  0  0
  184.6010  178.1020  142.3680 C   0  0  1  0  0  3  0  0  0  0  0  0
  183.4050  178.5070  143.2040 C   0  0  0  0  0  1  0  0  0  0  0  0
  184.1630  177.6200  141.1300 O   0  0  0  0  0  0  0  0  0  0  0  0
  183.5020  178.6960  140.5290 C   0  0  2  0  0  3  0  0  0  0  0  0
  180.9710  179.0550  141.0050 C   0  0  2  0  0  0  0  0  0  0  0  0
  181.3350  179.3010  139.6430 O   0  0  0  0  0  0  0  0  0  0  0  0
  182.0530  178.3100  140.2570 C   0  0  1  0  0  0  0  0  0  0  0  0
  180.0140  178.0200  141.2150 O   0  0  0  0  0  0  0  0  0  0  0  0
  179.4900  179.2380  140.8540 C   0  0  1  0  0  3  0  0  0  0  0  0
  181.7770  177.0530  139.7020 O   0  0  0  0  0  1  0  0  0  0  0  0
  179.4230  179.2340  143.3340 C   0  0  0  0  0  1  0  0  0  0  0  0
  179.3510  181.2610  142.1000 O   0  0  0  0  0  1  0  0  0  0  0  0
  178.9320  179.9310  142.0830 C   0  0  1  0  0  3  0  0  0  0  0  0
  184.2250  179.1000  139.2500 C   0  0  0  0  0  2  0  0  0  0  0  0
  185.8070  177.9250  137.9090 F   0  0  0  0  0  0  0  0  0  0  0  0
  184.5100  177.8840  138.3860 C   0  0  0  0  0  2  0  0  0  0  0  0
  1 27  1  6  0  0  0
  1  5  1  0  0  0  0
  2  8  1  6  0  0  0
  2  7  1  0  0  0  0
  2 10  1  0  0  0  0
  4 15  1  0  0  0  0
  5  3  1  1  0  0  0
  6 10  1  6  0  0  0
  6  9  1  0  0  0  0
  6 17  1  0  0  0  0
  7 11  1  0  0  0  0
  9 11  1  6  0  0  0
  9 13  1  0  0  0  0
 12  1  1  0  0  0  0
 13 12  2  0  0  0  0
 13  4  1  0  0  0  0
 14  4  2  0  0  0  0
 15 16  1  0  0  0  0
 15 18  1  1  0  0  0
 16  5  1  0  0  0  0
 17 14  1  0  0  0  0
 18 19  1  0  0  0  0
 19 24  1  0  0  0  0
 20 21  1  0  0  0  0
 21 26  1  0  0  0  0
 21 22  1  1  0  0  0
 23 26  1  0  0  0  0
 24 20  1  0  0  0  0
 24 23  1  0  0  0  0
 25 21  1  0  0  0  0
 27 28  1  0  0  0  0
 28 29  1  1  0  0  0
 30 28  1  0  0  0  0
 31 41  1  6  0  0  0
 31 30  1  0  0  0  0
 32 33  1  6  0  0  0
 32 35  1  0  0  0  0
 33 34  1  0  0  0  0
 34 37  1  6  0  0  0
 34 31  1  0  0  0  0
 34 32  1  0  0  0  0
 36 32  1  0  0  0  0
 36 35  1  0  0  0  0
 36 40  1  1  0  0  0
 40 39  1  0  0  0  0
 40 38  1  1  0  0  0
 42 43  1  0  0  0  0
 43 41  1  0  0  0  0
M  END
>  <MODEL>
7

>  <REMARK>
 VINA RESULT:      -7.0      2.162      3.718
  Name = 
  11 active torsions:
  status: ('A' for Active; 'I' for Inactive)
    1  A    between atoms: C_1  and  C_34
    2  A    between atoms: C_1  and  C_35
    3  A    between atoms: C_2  and  S_6
    4  A    between atoms: O_3  and  C_4
    5  A    between atoms: O_3  and  C_12
    6  A    between atoms: C_4  and  C_15
    7  A    between atoms: C_4  and  C_22
    8  A    between atoms: S_6  and  C_12
    9  A    between atoms: C_15  and  C_42
   10  A    between atoms: C_31  and  C_40
   11  A    between atoms: N_32  and  C_35
                            x       y       z     vdW  Elec       q    Type
                         _______ _______ _______ _____ _____    ______ ____

>  <TORSDO>
F 11

$$$$
=
 OpenBabel10262422113D

 43 48  0  0  1  0  0  0  0  0999 V2000
  185.8670  178.8280  141.5290 C   0  0  1  0  0  3  0  0  0  0  0  0
  190.1620  176.5690  137.1410 C   0  0  1  0  0  3  0  0  0  0  0  0
  184.9840  178.6290  143.8830 C   0  0  0  0  0  1  0  0  0  0  0  0
  188.7600  177.9480  141.9120 C   0  0  0  0  0  0  0  0  0  0  0  0
  185.6340  177.8850  142.7270 C   0  0  2  0  0  3  0  0  0  0  0  0
  190.1140  176.7350  139.6790 C   0  0  1  0  0  3  0  0  0  0  0  0
  189.4190  177.9030  136.9810 C   0  0  0  0  0  2  0  0  0  0  0  0
  191.0630  176.3410  135.9470 C   0  0  0  0  0  1  0  0  0  0  0  0
  188.7460  177.3880  139.3690 C   0  0  2  0  0  3  0  0  0  0  0  0
  190.9840  176.5440  138.4280 C   0  0  0  0  0  2  0  0  0  0  0  0
  188.8970  178.4770  138.3050 C   0  0  0  0  0  2  0  0  0  0  0  0
  186.7540  178.2530  140.4590 C   0  0  0  0  0  3  0  0  0  0  0  0
  188.0390  177.9000  140.6020 C   0  0  0  0  0  0  0  0  0  0  0  0
  190.0870  177.7580  141.9380 C   0  0  0  0  0  3  0  0  0  0  0  0
  187.9860  178.1140  143.2040 C   0  0  1  0  0  3  0  0  0  0  0  0
  186.8450  177.2010  143.1930 N   0  0  0  0  0  2  0  0  0  0  0  0
  190.8910  177.5740  140.6880 C   0  0  0  0  0  2  0  0  0  0  0  0
  188.8160  177.8840  144.4650 C   0  0  0  0  0  2  0  0  0  0  0  0
  187.9150  177.4930  145.6220 C   0  0  0  0  0  2  0  0  0  0  0  0
  189.9440  176.3950  146.0490 C   0  0  0  0  0  2  0  0  0  0  0  0
  191.0800  176.7290  146.9930 C   0  0  1  0  0  0  0  0  0  0  0  0
  191.6840  175.4620  147.5620 C   0  0  0  0  0  1  0  0  0  0  0  0
  189.0760  177.8760  147.6130 C   0  0  0  0  0  2  0  0  0  0  0  0
  188.6970  176.8450  146.6600 N   0  0  0  0  0  0  0  0  0  0  0  0
  192.0560  177.4640  146.3210 O   0  0  0  0  0  1  0  0  0  0  0  0
  190.4720  177.5580  148.0950 C   0  0  0  0  0  2  0  0  0  0  0  0
  184.2810  179.3800  140.8000 S   0  0  0  0  0  0  0  0  0  0  0  0
  184.1640  178.0120  139.5960 C   0  0  1  0  0  3  0  0  0  0  0  0
  183.0490  177.0720  140.0060 C   0  0  0  0  0  1  0  0  0  0  0  0
  183.9010  178.5180  138.3190 O   0  0  0  0  0  0  0  0  0  0  0  0
  183.4500  177.4230  137.5750 C   0  0  2  0  0  3  0  0  0  0  0  0
  184.7390  175.2300  137.0330 C   0  0  2  0  0  0  0  0  0  0  0  0
  184.2870  175.9280  135.8680 O   0  0  0  0  0  0  0  0  0  0  0  0
  184.6400  176.7340  136.9170 C   0  0  1  0  0  0  0  0  0  0  0  0
  186.1490  175.0520  137.1420 O   0  0  0  0  0  0  0  0  0  0  0  0
  185.5050  174.1460  136.3340 C   0  0  1  0  0  3  0  0  0  0  0  0
  185.7850  177.4880  136.6270 O   0  0  0  0  0  1  0  0  0  0  0  0
  185.2260  171.6930  136.0930 C   0  0  0  0  0  1  0  0  0  0  0  0
  186.4320  172.6260  137.9140 O   0  0  0  0  0  1  0  0  0  0  0  0
  185.3330  172.8370  137.0810 C   0  0  1  0  0  3  0  0  0  0  0  0
  182.4260  177.8820  136.5430 C   0  0  0  0  0  2  0  0  0  0  0  0
  181.2370  176.0170  137.4320 F   0  0  0  0  0  0  0  0  0  0  0  0
  181.0760  177.2360  136.8010 C   0  0  0  0  0  2  0  0  0  0  0  0
  1 27  1  6  0  0  0
  1  5  1  0  0  0  0
  2  8  1  6  0  0  0
  2 10  1  0  0  0  0
  4 14  2  0  0  0  0
  4 15  1  0  0  0  0
  5 16  1  0  0  0  0
  5  3  1  1  0  0  0
  6 10  1  6  0  0  0
  6 17  1  0  0  0  0
  7  2  1  0  0  0  0
  7 11  1  0  0  0  0
  9 11  1  6  0  0  0
  9  6  1  0  0  0  0
  9 13  1  0  0  0  0
 12 13  2  0  0  0  0
 12  1  1  0  0  0  0
 13  4  1  0  0  0  0
 15 18  1  1  0  0  0
 16 15  1  0  0  0  0
 17 14  1  0  0  0  0
 18 19  1  0  0  0  0
 19 24  1  0  0  0  0
 20 24  1  0  0  0  0
 20 21  1  0  0  0  0
 21 22  1  1  0  0  0
 21 26  1  0  0  0  0
 23 26  1  0  0  0  0
 24 23  1  0  0  0  0
 25 21  1  0  0  0  0
 28 29  1  1  0  0  0
 28 27  1  0  0  0  0
 30 28  1  0  0  0  0
 31 41  1  6  0  0  0
 31 30  1  0  0  0  0
 32 33  1  6  0  0  0
 32 35  1  0  0  0  0
 33 34  1  0  0  0  0
 34 37  1  6  0  0  0
 34 32  1  0  0  0  0
 34 31  1  0  0  0  0
 36 32  1  0  0  0  0
 36 40  1  1  0  0  0
 36 35  1  0  0  0  0
 40 38  1  6  0  0  0
 40 39  1  0  0  0  0
 41 43  1  0  0  0  0
 43 42  1  0  0  0  0
M  END
>  <MODEL>
8

>  <REMARK>
 VINA RESULT:      -7.0      1.667      1.984
  Name = 
  11 active torsions:
  status: ('A' for Active; 'I' for Inactive)
    1  A    between atoms: C_1  and  C_34
    2  A    between atoms: C_1  and  C_35
    3  A    between atoms: C_2  and  S_6
    4  A    between atoms: O_3  and  C_4
    5  A    between atoms: O_3  and  C_12
    6  A    between atoms: C_4  and  C_15
    7  A    between atoms: C_4  and  C_22
    8  A    between atoms: S_6  and  C_12
    9  A    between atoms: C_15  and  C_42
   10  A    between atoms: C_31  and  C_40
   11  A    between atoms: N_32  and  C_35
                            x       y       z     vdW  Elec       q    Type
                         _______ _______ _______ _____ _____    ______ ____

>  <TORSDO>
F 11

$$$$
=
 OpenBabel10262422113D

 43 48  0  0  1  0  0  0  0  0999 V2000
  186.6660  178.2460  140.3410 C   0  0  1  0  0  3  0  0  0  0  0  0
  188.0910  178.0570  146.7230 C   0  0  1  0  0  3  0  0  0  0  0  0
  187.5760  178.5080  138.0040 C   0  0  0  0  0  1  0  0  0  0  0  0
  189.0590  177.0050  141.7650 C   0  0  0  0  0  0  0  0  0  0  0  0
  187.7700  178.8760  139.4670 C   0  0  2  0  0  3  0  0  0  0  0  0
  189.3510  177.4830  144.5900 C   0  0  1  0  0  3  0  0  0  0  0  0
  186.7620  177.5550  146.1440 C   0  0  0  0  0  2  0  0  0  0  0  0
  188.0890  177.8840  148.2270 C   0  0  0  0  0  1  0  0  0  0  0  0
  188.0030  177.9160  143.9650 C   0  0  2  0  0  3  0  0  0  0  0  0
  189.2780  177.3130  146.1140 C   0  0  0  0  0  2  0  0  0  0  0  0
  186.8360  177.2030  144.6520 C   0  0  0  0  0  2  0  0  0  0  0  0
  186.9380  178.3190  141.8180 C   0  0  0  0  0  3  0  0  0  0  0  0
  187.9630  177.7450  142.4650 C   0  0  0  0  0  0  0  0  0  0  0  0
  189.9430  176.3040  142.4900 C   0  0  0  0  0  3  0  0  0  0  0  0
  189.2250  177.1260  140.2640 C   0  0  1  0  0  3  0  0  0  0  0  0
  189.1340  178.5350  139.8890 N   0  0  0  0  0  2  0  0  0  0  0  0
  189.8280  176.1700  143.9760 C   0  0  0  0  0  2  0  0  0  0  0  0
  190.5270  176.5350  139.7290 C   0  0  0  0  0  2  0  0  0  0  0  0
  190.4210  176.2980  138.2330 C   0  0  0  0  0  2  0  0  0  0  0  0
  188.9600  174.8020  137.1700 C   0  0  0  0  0  2  0  0  0  0  0  0
  189.1950  173.7930  136.0660 C   0  0  1  0  0  0  0  0  0  0  0  0
  188.3390  172.5620  136.2840 C   0  0  0  0  0  1  0  0  0  0  0  0
  191.2500  174.4260  137.1100 C   0  0  0  0  0  2  0  0  0  0  0  0
  190.1750  174.8900  137.9720 N   0  0  0  0  0  0  0  0  0  0  0  0
  188.9030  174.3640  134.8290 O   0  0  0  0  0  1  0  0  0  0  0  0
  190.6560  173.4310  136.1400 C   0  0  0  0  0  2  0  0  0  0  0  0
  185.0280  178.9710  139.9670 S   0  0  0  0  0  0  0  0  0  0  0  0
  184.1050  177.9190  141.1400 C   0  0  1  0  0  3  0  0  0  0  0  0
  184.0630  178.5910  142.4960 C   0  0  0  0  0  1  0  0  0  0  0  0
  182.8000  177.7170  140.6790 O   0  0  0  0  0  0  0  0  0  0  0  0
  182.9300  177.4400  139.3140 C   0  0  2  0  0  3  0  0  0  0  0  0
  181.6020  179.5080  138.4650 C   0  0  2  0  0  0  0  0  0  0  0  0
  182.0660  178.6560  137.4110 O   0  0  0  0  0  0  0  0  0  0  0  0
  181.7280  178.0050  138.5670 C   0  0  1  0  0  0  0  0  0  0  0  0
  180.1890  179.6750  138.5510 O   0  0  0  0  0  0  0  0  0  0  0  0
  180.8170  180.4650  137.6180 C   0  0  1  0  0  3  0  0  0  0  0  0
  180.5960  177.1960  138.3920 O   0  0  0  0  0  1  0  0  0  0  0  0
  180.8300  182.8780  137.0420 C   0  0  0  0  0  1  0  0  0  0  0  0
  179.9750  182.1090  139.1200 O   0  0  0  0  0  1  0  0  0  0  0  0
  180.9650  181.8720  138.1660 C   0  0  1  0  0  3  0  0  0  0  0  0
  183.0690  175.9370  139.1010 C   0  0  0  0  0  2  0  0  0  0  0  0
  184.6520  176.6750  137.4780 F   0  0  0  0  0  0  0  0  0  0  0  0
  183.7870  175.6440  137.7950 C   0  0  0  0  0  2  0  0  0  0  0  0
  1 27  1  1  0  0  0
  1 12  1  0  0  0  0
  2  8  1  1  0  0  0
  4 13  1  0  0  0  0
  4 14  2  0  0  0  0
  5  3  1  6  0  0  0
  5 16  1  0  0  0  0
  5  1  1  0  0  0  0
  6 17  1  6  0  0  0
  6 10  1  0  0  0  0
  7  2  1  0  0  0  0
  9  6  1  0  0  0  0
  9 11  1  1  0  0  0
 10  2  1  0  0  0  0
 11  7  1  0  0  0  0
 12 13  2  0  0  0  0
 13  9  1  0  0  0  0
 14 17  1  0  0  0  0
 15 18  1  1  0  0  0
 15  4  1  0  0  0  0
 16 15  1  0  0  0  0
 19 18  1  0  0  0  0
 20 24  1  0  0  0  0
 21 26  1  0  0  0  0
 21 22  1  1  0  0  0
 21 20  1  0  0  0  0
 23 24  1  0  0  0  0
 24 19  1  0  0  0  0
 25 21  1  0  0  0  0
 26 23  1  0  0  0  0
 27 28  1  0  0  0  0
 28 29  1  1  0  0  0
 30 28  1  0  0  0  0
 31 41  1  1  0  0  0
 31 30  1  0  0  0  0
 32 33  1  6  0  0  0
 32 35  1  0  0  0  0
 32 34  1  0  0  0  0
 33 34  1  0  0  0  0
 34 37  1  1  0  0  0
 34 31  1  0  0  0  0
 36 40  1  1  0  0  0
 36 32  1  0  0  0  0
 36 35  1  0  0  0  0
 40 38  1  6  0  0  0
 40 39  1  0  0  0  0
 42 43  1  0  0  0  0
 43 41  1  0  0  0  0
M  END
>  <MODEL>
9

>  <REMARK>
 VINA RESULT:      -7.0      2.688      7.108
  Name = 
  11 active torsions:
  status: ('A' for Active; 'I' for Inactive)
    1  A    between atoms: C_1  and  C_34
    2  A    between atoms: C_1  and  C_35
    3  A    between atoms: C_2  and  S_6
    4  A    between atoms: O_3  and  C_4
    5  A    between atoms: O_3  and  C_12
    6  A    between atoms: C_4  and  C_15
    7  A    between atoms: C_4  and  C_22
    8  A    between atoms: S_6  and  C_12
    9  A    between atoms: C_15  and  C_42
   10  A    between atoms: C_31  and  C_40
   11  A    between atoms: N_32  and  C_35
                            x       y       z     vdW  Elec       q    Type
                         _______ _______ _______ _____ _____    ______ ____

>  <TORSDO>
F 11

$$$$
