=
 OpenBabel10262423093D

 37 41  0  0  1  0  0  0  0  0999 V2000
  188.9660  177.7140  143.4050 C   0  0  1  0  0  3  0  0  0  0  0  0
  186.2750  177.6330  145.6360 C   0  0  2  0  0  3  0  0  0  0  0  0
  187.0380  177.5110  146.8930 C   0  0  0  0  0  2  0  0  0  0  0  0
  188.8830  176.8790  145.7170 C   0  0  0  0  0  2  0  0  0  0  0  0
  187.7830  177.9430  145.6180 C   0  0  2  0  0  0  0  0  0  0  0  0
  188.1240  176.9910  144.4610 C   0  0  1  0  0  3  0  0  0  0  0  0
  185.4310  178.9170  145.5620 C   0  0  2  0  0  3  0  0  0  0  0  0
  185.1270  179.4490  146.8230 O   0  0  0  0  0  1  0  0  0  0  0  0
  183.6790  179.8020  144.2320 O   0  0  0  0  0  0  0  0  0  0  0  0
  184.1430  178.6410  144.8110 C   0  0  0  0  0  3  0  0  0  0  0  0
  183.1180  179.3690  145.3700 O   0  0  0  0  0  0  0  0  0  0  0  0
  190.1750  175.5310  142.7840 C   0  0  0  0  0  1  0  0  0  0  0  0
  190.3090  176.9960  143.2110 C   0  0  1  0  0  3  0  0  0  0  0  0
  191.2640  177.7890  142.4120 N   0  0  0  0  0  0  0  0  0  0  0  0
  191.7710  178.3280  144.6320 O   0  0  0  0  0  0  0  0  0  0  0  0
  192.1890  178.4950  143.2970 C   0  0  2  0  0  3  0  0  0  0  0  0
  191.4810  179.5670  144.0340 C   0  0  0  0  0  2  0  0  0  0  0  0
  191.9630  177.0150  141.3670 C   0  0  0  0  0  2  0  0  0  0  0  0
  193.6550  177.2860  139.7400 O   0  0  0  0  0  0  0  0  0  0  0  0
  192.8750  177.8370  140.5000 C   0  0  0  0  0  3  0  0  0  0  0  0
  188.2340  177.9360  142.0660 C   0  0  1  0  0  3  0  0  0  0  0  0
  188.6640  177.0710  141.0510 O   0  0  0  0  0  0  0  0  0  0  0  0
  189.4730  178.7290  139.7030 O   0  0  0  0  0  1  0  0  0  0  0  0
  188.4640  177.7760  139.8610 C   0  0  1  0  0  3  0  0  0  0  0  0
  189.8550  176.6410  138.0530 C   0  0  1  0  0  3  0  0  0  0  0  0
  188.8860  177.3360  135.8060 C   0  0  0  0  0  2  0  0  0  0  0  0
  187.4310  177.1630  137.7240 O   0  0  0  0  0  0  0  0  0  0  0  0
  189.8030  176.3500  136.5440 C   0  0  2  0  0  3  0  0  0  0  0  0
  188.4490  176.8300  138.6590 C   0  0  2  0  0  3  0  0  0  0  0  0
  187.9410  178.0620  136.7680 C   0  0  0  0  0  2  0  0  0  0  0  0
  190.5650  175.6560  138.7420 O   0  0  0  0  0  1  0  0  0  0  0  0
  188.0890  174.6390  135.9380 O   0  0  0  0  0  0  0  0  0  0  0  0
  190.2730  174.0130  136.2340 O   0  0  0  0  0  1  0  0  0  0  0  0
  189.4140  174.9350  136.2310 C   0  0  0  0  0  0  0  0  0  0  0  0
  186.7160  177.8870  142.2320 C   0  0  0  0  0  2  0  0  0  0  0  0
  186.0390  179.1520  141.7380 C   0  0  0  0  0  2  0  0  0  0  0  0
  184.8510  178.7840  140.8760 C   0  0  0  0  0  1  0  0  0  0  0  0
  1 21  1  6  0  0  0
  2  7  1  1  0  0  0
  2  3  1  0  0  0  0
  5  2  1  0  0  0  0
  5  4  1  6  0  0  0
  5  3  1  0  0  0  0
  6  1  1  6  0  0  0
  6  5  1  0  0  0  0
  6  4  1  0  0  0  0
  7  8  1  1  0  0  0
  9 10  1  0  0  0  0
  9 11  1  0  0  0  0
 10 11  1  0  0  0  0
 10  7  1  0  0  0  0
 13 12  1  6  0  0  0
 13  1  1  0  0  0  0
 14 13  1  0  0  0  0
 16 14  1  6  0  0  0
 16 17  1  0  0  0  0
 16 15  1  0  0  0  0
 17 15  1  0  0  0  0
 18 14  1  0  0  0  0
 19 20  2  0  0  0  0
 20 18  1  0  0  0  0
 21 35  1  1  0  0  0
 22 21  1  0  0  0  0
 24 23  1  6  0  0  0
 24 22  1  0  0  0  0
 25 29  1  0  0  0  0
 25 31  1  1  0  0  0
 26 28  1  0  0  0  0
 26 30  1  0  0  0  0
 27 29  1  0  0  0  0
 28 34  1  1  0  0  0
 28 25  1  0  0  0  0
 29 24  1  1  0  0  0
 30 27  1  0  0  0  0
 32 34  2  0  0  0  0
 34 33  1  0  0  0  0
 36 35  1  0  0  0  0
 37 36  1  0  0  0  0
M  END
>  <MODEL>
1

>  <REMARK>
 VINA RESULT:      -6.7      0.000      0.000
  Name = 
  15 active torsions:
  status: ('A' for Active; 'I' for Inactive)
    1  A    between atoms: C_1  and  C_5
    2  A    between atoms: C_5  and  C_26
    3  A    between atoms: C_8  and  C_19
    4  A    between atoms: N_9  and  C_13
    5  A    between atoms: N_9  and  C_16
    6  A    between atoms: N_9  and  C_30
    7  A    between atoms: O_10  and  C_29
    8  A    between atoms: O_10  and  C_37
    9  A    between atoms: C_13  and  C_20
   10  A    between atoms: C_14  and  C_37
   11  A    between atoms: C_16  and  C_24
   12  A    between atoms: C_20  and  C_25
   13  A    between atoms: C_20  and  C_29
   14  A    between atoms: C_27  and  C_33
   15  A    between atoms: C_29  and  C_33
                            x       y       z     vdW  Elec       q    Type
                         _______ _______ _______ _____ _____    ______ ____

>  <TORSDO>
F 15

$$$$
=
 OpenBabel10262423093D

 37 41  0  0  1  0  0  0  0  0999 V2000
  189.0280  177.3430  144.1530 C   0  0  1  0  0  3  0  0  0  0  0  0
  185.8680  177.8140  142.7320 C   0  0  2  0  0  3  0  0  0  0  0  0
  185.1070  178.0610  143.9700 C   0  0  0  0  0  2  0  0  0  0  0  0
  186.8070  177.1740  145.1980 C   0  0  0  0  0  2  0  0  0  0  0  0
  186.6420  178.1430  144.0210 C   0  0  2  0  0  0  0  0  0  0  0  0
  187.5680  176.9180  143.9640 C   0  0  1  0  0  3  0  0  0  0  0  0
  185.8500  179.0090  141.7610 C   0  0  2  0  0  3  0  0  0  0  0  0
  185.4370  180.2030  142.3670 O   0  0  0  0  0  1  0  0  0  0  0  0
  185.5760  179.0080  139.4060 O   0  0  0  0  0  0  0  0  0  0  0  0
  184.9390  178.7010  140.5880 C   0  0  0  0  0  3  0  0  0  0  0  0
  184.6670  179.8610  139.8990 O   0  0  0  0  0  0  0  0  0  0  0  0
  190.9390  175.6250  144.0570 C   0  0  0  0  0  1  0  0  0  0  0  0
  189.8120  176.2450  144.8870 C   0  0  1  0  0  3  0  0  0  0  0  0
  190.1970  176.6440  146.2540 N   0  0  0  0  0  0  0  0  0  0  0  0
  192.0740  175.3120  146.6830 O   0  0  0  0  0  0  0  0  0  0  0  0
  191.6540  176.6230  146.3880 C   0  0  2  0  0  3  0  0  0  0  0  0
  192.0400  176.2170  147.7580 C   0  0  0  0  0  2  0  0  0  0  0  0
  189.6080  177.9240  146.6960 C   0  0  0  0  0  2  0  0  0  0  0  0
  188.1170  177.1620  148.3630 O   0  0  0  0  0  0  0  0  0  0  0  0
  189.0540  177.8950  148.0930 C   0  0  0  0  0  3  0  0  0  0  0  0
  189.7280  177.7740  142.8480 C   0  0  1  0  0  3  0  0  0  0  0  0
  189.0400  177.3760  141.6940 O   0  0  0  0  0  0  0  0  0  0  0  0
  191.1220  176.7430  140.9980 O   0  0  0  0  0  1  0  0  0  0  0  0
  189.9770  177.4670  140.6610 C   0  0  1  0  0  3  0  0  0  0  0  0
  190.4990  176.5910  138.3260 C   0  0  1  0  0  3  0  0  0  0  0  0
  189.3310  178.1220  136.6660 C   0  0  0  0  0  2  0  0  0  0  0  0
  188.3570  177.7740  138.8460 O   0  0  0  0  0  0  0  0  0  0  0  0
  190.0260  176.7680  136.8740 C   0  0  2  0  0  3  0  0  0  0  0  0
  189.3960  176.9420  139.3470 C   0  0  2  0  0  3  0  0  0  0  0  0
  188.9030  178.7530  137.9930 C   0  0  0  0  0  2  0  0  0  0  0  0
  190.9920  175.3030  138.5520 O   0  0  0  0  0  1  0  0  0  0  0  0
  189.7200  174.5450  135.7810 O   0  0  0  0  0  0  0  0  0  0  0  0
  187.8970  175.6970  136.5550 O   0  0  0  0  0  1  0  0  0  0  0  0
  189.1470  175.6480  136.4000 C   0  0  0  0  0  0  0  0  0  0  0  0
  190.0240  179.2730  142.8290 C   0  0  0  0  0  2  0  0  0  0  0  0
  190.8860  179.7070  144.0000 C   0  0  0  0  0  2  0  0  0  0  0  0
  192.2040  178.9640  143.9560 C   0  0  0  0  0  1  0  0  0  0  0  0
  1 21  1  6  0  0  0
  1 13  1  0  0  0  0
  2  7  1  6  0  0  0
  2  3  1  0  0  0  0
  2  5  1  0  0  0  0
  5  3  1  6  0  0  0
  5  4  1  0  0  0  0
  6  5  1  0  0  0  0
  6  1  1  1  0  0  0
  6  4  1  0  0  0  0
  7  8  1  1  0  0  0
  9 11  1  0  0  0  0
  9 10  1  0  0  0  0
 10  7  1  0  0  0  0
 11 10  1  0  0  0  0
 13 12  1  6  0  0  0
 13 14  1  0  0  0  0
 14 18  1  0  0  0  0
 15 17  1  0  0  0  0
 16 14  1  1  0  0  0
 16 15  1  0  0  0  0
 16 17  1  0  0  0  0
 18 20  1  0  0  0  0
 20 19  2  0  0  0  0
 21 35  1  1  0  0  0
 22 21  1  0  0  0  0
 24 23  1  1  0  0  0
 24 22  1  0  0  0  0
 25 31  1  6  0  0  0
 25 29  1  0  0  0  0
 26 28  1  0  0  0  0
 26 30  1  0  0  0  0
 27 29  1  0  0  0  0
 28 34  1  1  0  0  0
 28 25  1  0  0  0  0
 29 24  1  1  0  0  0
 30 27  1  0  0  0  0
 32 34  2  0  0  0  0
 34 33  1  0  0  0  0
 35 36  1  0  0  0  0
 37 36  1  0  0  0  0
M  END
>  <MODEL>
2

>  <REMARK>
 VINA RESULT:      -6.5      2.042      3.939
  Name = 
  15 active torsions:
  status: ('A' for Active; 'I' for Inactive)
    1  A    between atoms: C_1  and  C_5
    2  A    between atoms: C_5  and  C_26
    3  A    between atoms: C_8  and  C_19
    4  A    between atoms: N_9  and  C_13
    5  A    between atoms: N_9  and  C_16
    6  A    between atoms: N_9  and  C_30
    7  A    between atoms: O_10  and  C_29
    8  A    between atoms: O_10  and  C_37
    9  A    between atoms: C_13  and  C_20
   10  A    between atoms: C_14  and  C_37
   11  A    between atoms: C_16  and  C_24
   12  A    between atoms: C_20  and  C_25
   13  A    between atoms: C_20  and  C_29
   14  A    between atoms: C_27  and  C_33
   15  A    between atoms: C_29  and  C_33
                            x       y       z     vdW  Elec       q    Type
                         _______ _______ _______ _____ _____    ______ ____

>  <TORSDO>
F 15

$$$$
=
 OpenBabel10262423093D

 37 41  0  0  1  0  0  0  0  0999 V2000
  184.0690  178.3650  140.3970 C   0  0  1  0  0  3  0  0  0  0  0  0
  186.7680  178.3600  142.6200 C   0  0  2  0  0  3  0  0  0  0  0  0
  186.0100  178.2990  143.8830 C   0  0  0  0  0  2  0  0  0  0  0  0
  184.1220  178.9470  142.7870 C   0  0  0  0  0  2  0  0  0  0  0  0
  185.2810  177.9660  142.5700 C   0  0  2  0  0  0  0  0  0  0  0  0
  184.8760  179.0170  141.5240 C   0  0  1  0  0  3  0  0  0  0  0  0
  187.6850  177.1420  142.4050 C   0  0  2  0  0  3  0  0  0  0  0  0
  187.7220  176.2810  143.5090 O   0  0  0  0  0  1  0  0  0  0  0  0
  189.7400  176.6660  141.3210 O   0  0  0  0  0  0  0  0  0  0  0  0
  189.0920  177.6110  142.0870 C   0  0  0  0  0  3  0  0  0  0  0  0
  190.0030  176.7370  142.6340 O   0  0  0  0  0  0  0  0  0  0  0  0
  182.5380  179.8750  138.9870 C   0  0  0  0  0  1  0  0  0  0  0  0
  182.6980  179.0430  140.2630 C   0  0  1  0  0  3  0  0  0  0  0  0
  181.5820  178.1200  140.5440 N   0  0  0  0  0  0  0  0  0  0  0  0
  180.8940  179.4630  142.3340 O   0  0  0  0  0  0  0  0  0  0  0  0
  180.4650  178.8550  141.1380 C   0  0  2  0  0  3  0  0  0  0  0  0
  180.1260  178.2930  142.4660 C   0  0  0  0  0  2  0  0  0  0  0  0
  181.1670  177.3050  139.3850 C   0  0  0  0  0  2  0  0  0  0  0  0
  180.8080  175.0450  138.7950 O   0  0  0  0  0  0  0  0  0  0  0  0
  181.2990  175.8230  139.5980 C   0  0  0  0  0  3  0  0  0  0  0  0
  184.8150  178.3050  139.0480 C   0  0  1  0  0  3  0  0  0  0  0  0
  186.2020  178.4590  139.1760 O   0  0  0  0  0  0  0  0  0  0  0  0
  187.0580  179.2670  137.2190 O   0  0  0  0  0  1  0  0  0  0  0  0
  186.7240  178.1110  137.9270 C   0  0  1  0  0  3  0  0  0  0  0  0
  189.2560  177.9540  137.6940 C   0  0  1  0  0  3  0  0  0  0  0  0
  189.7500  176.0600  136.0710 C   0  0  0  0  0  2  0  0  0  0  0  0
  187.7800  175.9480  137.4610 O   0  0  0  0  0  0  0  0  0  0  0  0
  190.3260  176.9970  137.1420 C   0  0  2  0  0  3  0  0  0  0  0  0
  187.9560  177.2180  138.0780 C   0  0  2  0  0  3  0  0  0  0  0  0
  188.2210  176.0060  136.1250 C   0  0  0  0  0  2  0  0  0  0  0  0
  189.7410  178.7000  138.7710 O   0  0  0  0  0  1  0  0  0  0  0  0
  192.0740  176.7820  138.9110 O   0  0  0  0  0  1  0  0  0  0  0  0
  190.6580  175.0320  138.4860 O   0  0  0  0  0  0  0  0  0  0  0  0
  191.0190  176.2090  138.2140 C   0  0  0  0  0  0  0  0  0  0  0  0
  184.4670  177.0420  138.2620 C   0  0  0  0  0  2  0  0  0  0  0  0
  183.6290  177.3390  137.0320 C   0  0  0  0  0  2  0  0  0  0  0  0
  184.3660  176.8710  135.7960 C   0  0  0  0  0  1  0  0  0  0  0  0
  1 21  1  6  0  0  0
  2  7  1  1  0  0  0
  2  3  1  0  0  0  0
  5  2  1  0  0  0  0
  5  4  1  6  0  0  0
  5  3  1  0  0  0  0
  6  1  1  6  0  0  0
  6  5  1  0  0  0  0
  6  4  1  0  0  0  0
  7  8  1  1  0  0  0
  9 10  1  0  0  0  0
  9 11  1  0  0  0  0
 10  7  1  0  0  0  0
 10 11  1  0  0  0  0
 13 12  1  6  0  0  0
 13  1  1  0  0  0  0
 13 14  1  0  0  0  0
 15 17  1  0  0  0  0
 16 14  1  6  0  0  0
 16 15  1  0  0  0  0
 16 17  1  0  0  0  0
 18 20  1  0  0  0  0
 18 14  1  0  0  0  0
 19 20  2  0  0  0  0
 21 35  1  1  0  0  0
 21 22  1  0  0  0  0
 24 23  1  1  0  0  0
 24 22  1  0  0  0  0
 25 29  1  0  0  0  0
 25 31  1  1  0  0  0
 26 30  1  0  0  0  0
 26 28  1  0  0  0  0
 27 29  1  0  0  0  0
 28 25  1  0  0  0  0
 28 34  1  1  0  0  0
 29 24  1  6  0  0  0
 30 27  1  0  0  0  0
 34 33  2  0  0  0  0
 34 32  1  0  0  0  0
 36 35  1  0  0  0  0
 37 36  1  0  0  0  0
M  END
>  <MODEL>
3

>  <REMARK>
 VINA RESULT:      -6.3      3.107      6.607
  Name = 
  15 active torsions:
  status: ('A' for Active; 'I' for Inactive)
    1  A    between atoms: C_1  and  C_5
    2  A    between atoms: C_5  and  C_26
    3  A    between atoms: C_8  and  C_19
    4  A    between atoms: N_9  and  C_13
    5  A    between atoms: N_9  and  C_16
    6  A    between atoms: N_9  and  C_30
    7  A    between atoms: O_10  and  C_29
    8  A    between atoms: O_10  and  C_37
    9  A    between atoms: C_13  and  C_20
   10  A    between atoms: C_14  and  C_37
   11  A    between atoms: C_16  and  C_24
   12  A    between atoms: C_20  and  C_25
   13  A    between atoms: C_20  and  C_29
   14  A    between atoms: C_27  and  C_33
   15  A    between atoms: C_29  and  C_33
                            x       y       z     vdW  Elec       q    Type
                         _______ _______ _______ _____ _____    ______ ____

>  <TORSDO>
F 15

$$$$
=
 OpenBabel10262423093D

 37 41  0  0  1  0  0  0  0  0999 V2000
  182.6480  178.1710  141.3910 C   0  0  1  0  0  3  0  0  0  0  0  0
  185.6870  178.7210  143.0290 C   0  0  2  0  0  3  0  0  0  0  0  0
  185.1590  179.0350  144.3690 C   0  0  0  0  0  2  0  0  0  0  0  0
  183.0960  179.3970  143.4760 C   0  0  0  0  0  2  0  0  0  0  0  0
  184.2240  178.3660  143.3470 C   0  0  2  0  0  0  0  0  0  0  0  0
  183.6200  179.0920  142.1350 C   0  0  1  0  0  3  0  0  0  0  0  0
  186.5830  177.4690  143.0090 C   0  0  2  0  0  3  0  0  0  0  0  0
  186.7270  176.8760  144.2700 O   0  0  0  0  0  1  0  0  0  0  0  0
  188.6020  176.6900  142.0400 O   0  0  0  0  0  0  0  0  0  0  0  0
  187.9520  177.8290  142.4650 C   0  0  0  0  0  3  0  0  0  0  0  0
  188.9250  177.2230  143.2280 O   0  0  0  0  0  0  0  0  0  0  0  0
  180.9150  179.4950  140.0280 C   0  0  0  0  0  1  0  0  0  0  0  0
  181.2460  178.7970  141.3500 C   0  0  1  0  0  3  0  0  0  0  0  0
  180.2020  177.8780  141.8440 N   0  0  0  0  0  0  0  0  0  0  0  0
  179.9650  179.6040  143.4070 O   0  0  0  0  0  0  0  0  0  0  0  0
  179.2680  178.6010  142.7050 C   0  0  2  0  0  3  0  0  0  0  0  0
  179.6460  178.4390  144.1280 C   0  0  0  0  0  2  0  0  0  0  0  0
  179.5160  177.1190  140.7790 C   0  0  0  0  0  2  0  0  0  0  0  0
  179.1760  174.8660  140.1520 O   0  0  0  0  0  0  0  0  0  0  0  0
  179.3740  175.6500  141.0660 C   0  0  0  0  0  3  0  0  0  0  0  0
  183.1310  177.7540  139.9870 C   0  0  1  0  0  3  0  0  0  0  0  0
  184.4860  178.0330  139.7630 O   0  0  0  0  0  0  0  0  0  0  0  0
  184.6760  180.1560  138.9440 O   0  0  0  0  0  1  0  0  0  0  0  0
  184.5120  178.8130  138.6030 C   0  0  1  0  0  3  0  0  0  0  0  0
  185.6270  176.8450  137.4300 C   0  0  1  0  0  3  0  0  0  0  0  0
  188.0550  176.7930  138.1840 C   0  0  0  0  0  2  0  0  0  0  0  0
  186.8990  178.9070  138.0520 O   0  0  0  0  0  0  0  0  0  0  0  0
  187.0330  176.2880  137.1550 C   0  0  2  0  0  3  0  0  0  0  0  0
  185.6390  178.3690  137.6700 C   0  0  2  0  0  3  0  0  0  0  0  0
  187.5430  178.0230  138.9380 C   0  0  0  0  0  2  0  0  0  0  0  0
  184.7330  176.5100  136.4110 O   0  0  0  0  0  1  0  0  0  0  0  0
  187.4060  175.5720  134.7930 O   0  0  0  0  0  0  0  0  0  0  0  0
  188.0120  177.6790  135.4560 O   0  0  0  0  0  1  0  0  0  0  0  0
  187.5120  176.5630  135.7600 C   0  0  0  0  0  0  0  0  0  0  0  0
  182.8090  176.2910  139.6850 C   0  0  0  0  0  2  0  0  0  0  0  0
  181.9980  176.1280  138.4130 C   0  0  0  0  0  2  0  0  0  0  0  0
  182.0740  174.6900  137.9480 C   0  0  0  0  0  1  0  0  0  0  0  0
  1 21  1  6  0  0  0
  2  7  1  1  0  0  0
  2  5  1  0  0  0  0
  2  3  1  0  0  0  0
  5  4  1  1  0  0  0
  5  3  1  0  0  0  0
  6  1  1  6  0  0  0
  6  5  1  0  0  0  0
  6  4  1  0  0  0  0
  7  8  1  1  0  0  0
  9 10  1  0  0  0  0
  9 11  1  0  0  0  0
 10  7  1  0  0  0  0
 10 11  1  0  0  0  0
 13 12  1  6  0  0  0
 13  1  1  0  0  0  0
 13 14  1  0  0  0  0
 15 17  1  0  0  0  0
 16 14  1  6  0  0  0
 16 15  1  0  0  0  0
 16 17  1  0  0  0  0
 18 20  1  0  0  0  0
 18 14  1  0  0  0  0
 19 20  2  0  0  0  0
 21 35  1  1  0  0  0
 22 21  1  0  0  0  0
 24 23  1  1  0  0  0
 24 22  1  0  0  0  0
 25 31  1  6  0  0  0
 25 29  1  0  0  0  0
 26 30  1  0  0  0  0
 27 30  1  0  0  0  0
 28 34  1  6  0  0  0
 28 25  1  0  0  0  0
 28 26  1  0  0  0  0
 29 27  1  0  0  0  0
 29 24  1  1  0  0  0
 32 34  2  0  0  0  0
 33 34  1  0  0  0  0
 36 35  1  0  0  0  0
 37 36  1  0  0  0  0
M  END
>  <MODEL>
4

>  <REMARK>
 VINA RESULT:      -6.1      3.813      7.213
  Name = 
  15 active torsions:
  status: ('A' for Active; 'I' for Inactive)
    1  A    between atoms: C_1  and  C_5
    2  A    between atoms: C_5  and  C_26
    3  A    between atoms: C_8  and  C_19
    4  A    between atoms: N_9  and  C_13
    5  A    between atoms: N_9  and  C_16
    6  A    between atoms: N_9  and  C_30
    7  A    between atoms: O_10  and  C_29
    8  A    between atoms: O_10  and  C_37
    9  A    between atoms: C_13  and  C_20
   10  A    between atoms: C_14  and  C_37
   11  A    between atoms: C_16  and  C_24
   12  A    between atoms: C_20  and  C_25
   13  A    between atoms: C_20  and  C_29
   14  A    between atoms: C_27  and  C_33
   15  A    between atoms: C_29  and  C_33
                            x       y       z     vdW  Elec       q    Type
                         _______ _______ _______ _____ _____    ______ ____

>  <TORSDO>
F 15

$$$$
=
 OpenBabel10262423093D

 37 41  0  0  1  0  0  0  0  0999 V2000
  189.6220  177.4970  141.9380 C   0  0  1  0  0  3  0  0  0  0  0  0
  189.5420  177.1340  138.4620 C   0  0  2  0  0  3  0  0  0  0  0  0
  190.9360  176.7020  138.2560 C   0  0  0  0  0  2  0  0  0  0  0  0
  191.4840  177.4620  140.3310 C   0  0  0  0  0  2  0  0  0  0  0  0
  190.3540  176.6560  139.6790 C   0  0  2  0  0  0  0  0  0  0  0  0
  190.0950  177.9030  140.5390 C   0  0  1  0  0  3  0  0  0  0  0  0
  188.5100  176.0810  138.0190 C   0  0  2  0  0  3  0  0  0  0  0  0
  189.0640  175.0680  137.2250 O   0  0  0  0  0  1  0  0  0  0  0  0
  186.2460  175.9820  137.3190 O   0  0  0  0  0  0  0  0  0  0  0  0
  187.3850  176.7560  137.2580 C   0  0  0  0  0  3  0  0  0  0  0  0
  186.9950  175.9570  136.2080 O   0  0  0  0  0  0  0  0  0  0  0  0
  190.3790  179.3370  143.5670 C   0  0  0  0  0  1  0  0  0  0  0  0
  190.6430  177.9410  142.9960 C   0  0  1  0  0  3  0  0  0  0  0  0
  190.9000  176.8980  144.0070 N   0  0  0  0  0  0  0  0  0  0  0  0
  190.9460  174.6680  143.2960 O   0  0  0  0  0  0  0  0  0  0  0  0
  191.7220  175.8350  143.4280 C   0  0  2  0  0  3  0  0  0  0  0  0
  191.8460  174.7040  144.3760 C   0  0  0  0  0  2  0  0  0  0  0  0
  191.4530  177.4110  145.2750 C   0  0  0  0  0  2  0  0  0  0  0  0
  191.1780  176.7590  147.5300 O   0  0  0  0  0  0  0  0  0  0  0  0
  190.6290  177.0730  146.4860 C   0  0  0  0  0  3  0  0  0  0  0  0
  188.1960  177.9750  142.2800 C   0  0  1  0  0  3  0  0  0  0  0  0
  187.4210  178.2590  141.1470 O   0  0  0  0  0  0  0  0  0  0  0  0
  186.1280  180.0440  141.7430 O   0  0  0  0  0  1  0  0  0  0  0  0
  186.1760  178.6530  141.6450 C   0  0  1  0  0  3  0  0  0  0  0  0
  184.6230  179.2100  139.7040 C   0  0  1  0  0  3  0  0  0  0  0  0
  182.2380  178.9740  140.5520 C   0  0  0  0  0  2  0  0  0  0  0  0
  183.9740  177.5860  141.4920 O   0  0  0  0  0  0  0  0  0  0  0  0
  183.1410  179.0870  139.3150 C   0  0  2  0  0  3  0  0  0  0  0  0
  185.0440  178.1530  140.7460 C   0  0  2  0  0  3  0  0  0  0  0  0
  183.0310  178.5840  141.8030 C   0  0  0  0  0  2  0  0  0  0  0  0
  185.4540  179.1590  138.5820 O   0  0  0  0  0  1  0  0  0  0  0  0
  182.4780  178.2370  137.0640 O   0  0  0  0  0  0  0  0  0  0  0  0
  183.0010  176.7590  138.7330 O   0  0  0  0  0  1  0  0  0  0  0  0
  182.8740  177.9570  138.3650 C   0  0  0  0  0  0  0  0  0  0  0  0
  187.4780  177.0020  143.2140 C   0  0  0  0  0  2  0  0  0  0  0  0
  187.5170  177.4540  144.6620 C   0  0  0  0  0  2  0  0  0  0  0  0
  186.1070  177.7110  145.1480 C   0  0  0  0  0  1  0  0  0  0  0  0
  1 21  1  1  0  0  0
  1 13  1  0  0  0  0
  2  7  1  6  0  0  0
  2  5  1  0  0  0  0
  3  2  1  0  0  0  0
  4  6  1  0  0  0  0
  5  3  1  6  0  0  0
  5  4  1  0  0  0  0
  5  6  1  0  0  0  0
  6  1  1  1  0  0  0
  7  8  1  6  0  0  0
 10  9  1  0  0  0  0
 10  7  1  0  0  0  0
 11 10  1  0  0  0  0
 11  9  1  0  0  0  0
 13 12  1  1  0  0  0
 13 14  1  0  0  0  0
 14 18  1  0  0  0  0
 15 16  1  0  0  0  0
 15 17  1  0  0  0  0
 16 14  1  1  0  0  0
 16 17  1  0  0  0  0
 18 20  1  0  0  0  0
 20 19  2  0  0  0  0
 21 35  1  6  0  0  0
 22 24  1  0  0  0  0
 22 21  1  0  0  0  0
 24 23  1  6  0  0  0
 25 31  1  6  0  0  0
 25 29  1  0  0  0  0
 26 30  1  0  0  0  0
 27 30  1  0  0  0  0
 28 34  1  6  0  0  0
 28 25  1  0  0  0  0
 28 26  1  0  0  0  0
 29 27  1  0  0  0  0
 29 24  1  1  0  0  0
 32 34  2  0  0  0  0
 34 33  1  0  0  0  0
 35 36  1  0  0  0  0
 36 37  1  0  0  0  0
M  END
>  <MODEL>
5

>  <REMARK>
 VINA RESULT:      -6.0      2.270      6.219
  Name = 
  15 active torsions:
  status: ('A' for Active; 'I' for Inactive)
    1  A    between atoms: C_1  and  C_5
    2  A    between atoms: C_5  and  C_26
    3  A    between atoms: C_8  and  C_19
    4  A    between atoms: N_9  and  C_13
    5  A    between atoms: N_9  and  C_16
    6  A    between atoms: N_9  and  C_30
    7  A    between atoms: O_10  and  C_29
    8  A    between atoms: O_10  and  C_37
    9  A    between atoms: C_13  and  C_20
   10  A    between atoms: C_14  and  C_37
   11  A    between atoms: C_16  and  C_24
   12  A    between atoms: C_20  and  C_25
   13  A    between atoms: C_20  and  C_29
   14  A    between atoms: C_27  and  C_33
   15  A    between atoms: C_29  and  C_33
                            x       y       z     vdW  Elec       q    Type
                         _______ _______ _______ _____ _____    ______ ____

>  <TORSDO>
F 15

$$$$
=
 OpenBabel10262423093D

 37 41  0  0  1  0  0  0  0  0999 V2000
  189.3010  178.1180  143.8120 C   0  0  1  0  0  3  0  0  0  0  0  0
  186.4530  177.7280  145.8030 C   0  0  2  0  0  3  0  0  0  0  0  0
  187.1170  177.6350  147.1170 C   0  0  0  0  0  2  0  0  0  0  0  0
  189.1030  177.2060  146.0880 C   0  0  0  0  0  2  0  0  0  0  0  0
  187.9220  178.1710  145.9210 C   0  0  2  0  0  0  0  0  0  0  0  0
  188.4440  177.2900  144.7750 C   0  0  1  0  0  3  0  0  0  0  0  0
  185.5040  178.9340  145.6880 C   0  0  2  0  0  3  0  0  0  0  0  0
  185.0070  179.3620  146.9260 O   0  0  0  0  0  1  0  0  0  0  0  0
  183.7510  179.7420  144.3110 O   0  0  0  0  0  0  0  0  0  0  0  0
  184.3440  178.5880  144.7740 C   0  0  0  0  0  3  0  0  0  0  0  0
  183.1730  179.0670  145.3150 O   0  0  0  0  0  0  0  0  0  0  0  0
  191.7170  178.9380  144.1300 C   0  0  0  0  0  1  0  0  0  0  0  0
  190.7820  177.7380  143.9560 C   0  0  1  0  0  3  0  0  0  0  0  0
  190.9930  176.6430  144.9220 N   0  0  0  0  0  0  0  0  0  0  0  0
  191.4360  175.5890  142.8800 O   0  0  0  0  0  0  0  0  0  0  0  0
  191.6700  175.5240  144.2680 C   0  0  2  0  0  3  0  0  0  0  0  0
  190.6830  174.6440  143.6000 C   0  0  0  0  0  2  0  0  0  0  0  0
  191.6690  177.0610  146.1670 C   0  0  0  0  0  2  0  0  0  0  0  0
  192.9920  175.6700  147.5440 O   0  0  0  0  0  0  0  0  0  0  0  0
  191.8680  175.9500  147.1600 C   0  0  0  0  0  3  0  0  0  0  0  0
  188.8320  178.0540  142.3440 C   0  0  1  0  0  3  0  0  0  0  0  0
  189.4960  177.0750  141.5940 O   0  0  0  0  0  0  0  0  0  0  0  0
  191.3460  177.6080  140.3650 O   0  0  0  0  0  1  0  0  0  0  0  0
  189.9590  177.7390  140.4540 C   0  0  1  0  0  3  0  0  0  0  0  0
  190.3340  176.5980  138.2080 C   0  0  1  0  0  3  0  0  0  0  0  0
  189.3710  178.1220  136.4150 C   0  0  0  0  0  2  0  0  0  0  0  0
  188.3790  178.1040  138.6150 O   0  0  0  0  0  0  0  0  0  0  0  0
  189.8760  176.7100  136.7450 C   0  0  2  0  0  3  0  0  0  0  0  0
  189.3000  177.1850  139.1910 C   0  0  2  0  0  3  0  0  0  0  0  0
  189.0460  178.9200  137.6810 C   0  0  0  0  0  2  0  0  0  0  0  0
  190.6490  175.2800  138.5480 O   0  0  0  0  0  1  0  0  0  0  0  0
  188.8650  175.1330  135.0950 O   0  0  0  0  0  0  0  0  0  0  0  0
  187.9700  175.3170  137.1950 O   0  0  0  0  0  1  0  0  0  0  0  0
  188.8480  175.6830  136.3700 C   0  0  0  0  0  0  0  0  0  0  0  0
  187.3150  177.9020  142.2370 C   0  0  0  0  0  2  0  0  0  0  0  0
  186.6810  179.0020  141.4060 C   0  0  0  0  0  2  0  0  0  0  0  0
  185.1850  178.7860  141.3410 C   0  0  0  0  0  1  0  0  0  0  0  0
  1 21  1  6  0  0  0
  1 13  1  0  0  0  0
  2  7  1  1  0  0  0
  2  5  1  0  0  0  0
  2  3  1  0  0  0  0
  5  4  1  6  0  0  0
  5  3  1  0  0  0  0
  6  1  1  6  0  0  0
  6  5  1  0  0  0  0
  6  4  1  0  0  0  0
  7  8  1  1  0  0  0
  9 10  1  0  0  0  0
  9 11  1  0  0  0  0
 10 11  1  0  0  0  0
 10  7  1  0  0  0  0
 13 12  1  1  0  0  0
 13 14  1  0  0  0  0
 14 18  1  0  0  0  0
 15 17  1  0  0  0  0
 15 16  1  0  0  0  0
 16 14  1  1  0  0  0
 17 16  1  0  0  0  0
 18 20  1  0  0  0  0
 20 19  2  0  0  0  0
 21 35  1  1  0  0  0
 22 21  1  0  0  0  0
 24 23  1  6  0  0  0
 24 22  1  0  0  0  0
 25 31  1  1  0  0  0
 25 29  1  0  0  0  0
 26 28  1  0  0  0  0
 26 30  1  0  0  0  0
 27 29  1  0  0  0  0
 28 34  1  1  0  0  0
 28 25  1  0  0  0  0
 29 24  1  1  0  0  0
 30 27  1  0  0  0  0
 32 34  2  0  0  0  0
 34 33  1  0  0  0  0
 36 35  1  0  0  0  0
 37 36  1  0  0  0  0
M  END
>  <MODEL>
6

>  <REMARK>
 VINA RESULT:      -5.9      1.543      2.533
  Name = 
  15 active torsions:
  status: ('A' for Active; 'I' for Inactive)
    1  A    between atoms: C_1  and  C_5
    2  A    between atoms: C_5  and  C_26
    3  A    between atoms: C_8  and  C_19
    4  A    between atoms: N_9  and  C_13
    5  A    between atoms: N_9  and  C_16
    6  A    between atoms: N_9  and  C_30
    7  A    between atoms: O_10  and  C_29
    8  A    between atoms: O_10  and  C_37
    9  A    between atoms: C_13  and  C_20
   10  A    between atoms: C_14  and  C_37
   11  A    between atoms: C_16  and  C_24
   12  A    between atoms: C_20  and  C_25
   13  A    between atoms: C_20  and  C_29
   14  A    between atoms: C_27  and  C_33
   15  A    between atoms: C_29  and  C_33
                            x       y       z     vdW  Elec       q    Type
                         _______ _______ _______ _____ _____    ______ ____

>  <TORSDO>
F 15

$$$$
=
 OpenBabel10262423093D

 37 41  0  0  1  0  0  0  0  0999 V2000
  187.6280  177.6750  143.8520 C   0  0  1  0  0  3  0  0  0  0  0  0
  189.8150  177.6060  146.5800 C   0  0  2  0  0  3  0  0  0  0  0  0
  188.9280  176.9400  147.5520 C   0  0  0  0  0  2  0  0  0  0  0  0
  187.1260  177.4220  146.2470 C   0  0  0  0  0  2  0  0  0  0  0  0
  188.5530  176.8920  146.0620 C   0  0  2  0  0  0  0  0  0  0  0  0
  188.0050  178.0950  145.2760 C   0  0  1  0  0  3  0  0  0  0  0  0
  191.0890  176.8000  146.2720 C   0  0  2  0  0  3  0  0  0  0  0  0
  190.9680  175.9940  145.1320 O   0  0  0  0  0  1  0  0  0  0  0  0
  192.6450  176.3470  148.0030 O   0  0  0  0  0  0  0  0  0  0  0  0
  191.4460  175.9330  147.4630 C   0  0  0  0  0  3  0  0  0  0  0  0
  192.6230  175.2650  147.2110 O   0  0  0  0  0  0  0  0  0  0  0  0
  186.8800  178.9890  141.7720 C   0  0  0  0  0  1  0  0  0  0  0  0
  186.6300  178.6740  143.2490 C   0  0  1  0  0  3  0  0  0  0  0  0
  185.2310  178.3460  143.5840 N   0  0  0  0  0  0  0  0  0  0  0  0
  185.0800  179.5440  145.5890 O   0  0  0  0  0  0  0  0  0  0  0  0
  184.6030  179.4770  144.2660 C   0  0  2  0  0  3  0  0  0  0  0  0
  183.7940  179.0040  145.4130 C   0  0  0  0  0  2  0  0  0  0  0  0
  184.4340  177.8660  142.4370 C   0  0  0  0  0  2  0  0  0  0  0  0
  182.2650  178.5890  141.8430 O   0  0  0  0  0  0  0  0  0  0  0  0
  183.4500  178.8710  141.9090 C   0  0  0  0  0  3  0  0  0  0  0  0
  188.8400  177.4450  142.9260 C   0  0  1  0  0  3  0  0  0  0  0  0
  188.4960  176.8640  141.6990 O   0  0  0  0  0  0  0  0  0  0  0  0
  190.5920  176.0060  141.4080 O   0  0  0  0  0  1  0  0  0  0  0  0
  189.6590  176.9250  140.9260 C   0  0  1  0  0  3  0  0  0  0  0  0
  190.6240  176.6970  138.5800 C   0  0  1  0  0  3  0  0  0  0  0  0
  189.4230  178.3810  137.1010 C   0  0  0  0  0  2  0  0  0  0  0  0
  188.2560  177.4000  138.9720 O   0  0  0  0  0  0  0  0  0  0  0  0
  190.3170  177.1330  137.1380 C   0  0  2  0  0  3  0  0  0  0  0  0
  189.3550  176.6380  139.4550 C   0  0  2  0  0  3  0  0  0  0  0  0
  188.7210  178.6180  138.4410 C   0  0  0  0  0  2  0  0  0  0  0  0
  191.3080  175.4790  138.6130 O   0  0  0  0  0  1  0  0  0  0  0  0
  190.5470  175.2730  135.4890 O   0  0  0  0  0  0  0  0  0  0  0  0
  188.4850  175.7990  136.3350 O   0  0  0  0  0  1  0  0  0  0  0  0
  189.7220  176.0350  136.3050 C   0  0  0  0  0  0  0  0  0  0  0  0
  189.6540  178.7230  142.7260 C   0  0  0  0  0  2  0  0  0  0  0  0
  191.0610  178.6040  143.2810 C   0  0  0  0  0  2  0  0  0  0  0  0
  191.3350  179.7650  144.2130 C   0  0  0  0  0  1  0  0  0  0  0  0
  1 21  1  6  0  0  0
  2  7  1  6  0  0  0
  2  3  1  0  0  0  0
  5  4  1  6  0  0  0
  5  2  1  0  0  0  0
  5  3  1  0  0  0  0
  6  1  1  6  0  0  0
  6  5  1  0  0  0  0
  6  4  1  0  0  0  0
  7  8  1  6  0  0  0
  7 10  1  0  0  0  0
 10  9  1  0  0  0  0
 11 10  1  0  0  0  0
 11  9  1  0  0  0  0
 13 12  1  6  0  0  0
 13 14  1  0  0  0  0
 13  1  1  0  0  0  0
 16 14  1  6  0  0  0
 16 17  1  0  0  0  0
 16 15  1  0  0  0  0
 17 15  1  0  0  0  0
 18 14  1  0  0  0  0
 19 20  2  0  0  0  0
 20 18  1  0  0  0  0
 21 35  1  6  0  0  0
 22 21  1  0  0  0  0
 24 23  1  1  0  0  0
 24 22  1  0  0  0  0
 25 31  1  6  0  0  0
 25 29  1  0  0  0  0
 26 28  1  0  0  0  0
 26 30  1  0  0  0  0
 27 29  1  0  0  0  0
 28 34  1  6  0  0  0
 28 25  1  0  0  0  0
 29 24  1  1  0  0  0
 30 27  1  0  0  0  0
 32 34  2  0  0  0  0
 34 33  1  0  0  0  0
 35 36  1  0  0  0  0
 36 37  1  0  0  0  0
M  END
>  <MODEL>
7

>  <REMARK>
 VINA RESULT:      -5.6      2.013      5.369
  Name = 
  15 active torsions:
  status: ('A' for Active; 'I' for Inactive)
    1  A    between atoms: C_1  and  C_5
    2  A    between atoms: C_5  and  C_26
    3  A    between atoms: C_8  and  C_19
    4  A    between atoms: N_9  and  C_13
    5  A    between atoms: N_9  and  C_16
    6  A    between atoms: N_9  and  C_30
    7  A    between atoms: O_10  and  C_29
    8  A    between atoms: O_10  and  C_37
    9  A    between atoms: C_13  and  C_20
   10  A    between atoms: C_14  and  C_37
   11  A    between atoms: C_16  and  C_24
   12  A    between atoms: C_20  and  C_25
   13  A    between atoms: C_20  and  C_29
   14  A    between atoms: C_27  and  C_33
   15  A    between atoms: C_29  and  C_33
                            x       y       z     vdW  Elec       q    Type
                         _______ _______ _______ _____ _____    ______ ____

>  <TORSDO>
F 15

$$$$
=
 OpenBabel10262423093D

 37 41  0  0  1  0  0  0  0  0999 V2000
  183.3310  178.0870  139.4930 C   0  0  1  0  0  3  0  0  0  0  0  0
  185.4520  178.8470  142.1660 C   0  0  2  0  0  3  0  0  0  0  0  0
  184.4620  178.7780  143.2570 C   0  0  0  0  0  2  0  0  0  0  0  0
  182.7720  178.9250  141.7380 C   0  0  0  0  0  2  0  0  0  0  0  0
  184.0970  178.1690  141.8920 C   0  0  2  0  0  0  0  0  0  0  0  0
  183.7570  179.0020  140.6460 C   0  0  1  0  0  3  0  0  0  0  0  0
  186.5840  177.8130  142.3110 C   0  0  2  0  0  3  0  0  0  0  0  0
  186.9330  177.5620  143.6440 O   0  0  0  0  0  1  0  0  0  0  0  0
  188.7510  177.2820  141.5070 O   0  0  0  0  0  0  0  0  0  0  0  0
  187.8090  178.2870  141.5530 C   0  0  0  0  0  3  0  0  0  0  0  0
  188.9010  178.2790  142.3910 O   0  0  0  0  0  0  0  0  0  0  0  0
  181.9020  179.0560  137.5870 C   0  0  0  0  0  1  0  0  0  0  0  0
  181.9270  178.4690  139.0010 C   0  0  1  0  0  3  0  0  0  0  0  0
  180.9330  177.4070  139.2480 N   0  0  0  0  0  0  0  0  0  0  0  0
  181.3740  175.2000  138.6030 O   0  0  0  0  0  0  0  0  0  0  0  0
  181.6130  176.1610  139.6040 C   0  0  2  0  0  3  0  0  0  0  0  0
  180.6290  175.0700  139.7890 C   0  0  0  0  0  2  0  0  0  0  0  0
  179.8870  177.7760  140.2220 C   0  0  0  0  0  2  0  0  0  0  0  0
  179.4880  179.9240  141.1200 O   0  0  0  0  0  0  0  0  0  0  0  0
  179.4430  179.2090  140.1320 C   0  0  0  0  0  3  0  0  0  0  0  0
  184.3480  178.0250  138.3350 C   0  0  1  0  0  3  0  0  0  0  0  0
  185.6310  178.4500  138.7040 O   0  0  0  0  0  0  0  0  0  0  0  0
  186.7970  179.3750  136.9710 O   0  0  0  0  0  1  0  0  0  0  0  0
  186.4380  178.1790  137.5950 C   0  0  1  0  0  3  0  0  0  0  0  0
  188.9840  178.1890  137.6850 C   0  0  1  0  0  3  0  0  0  0  0  0
  189.7940  176.1540  136.3940 C   0  0  0  0  0  2  0  0  0  0  0  0
  187.6750  176.0620  137.5440 O   0  0  0  0  0  0  0  0  0  0  0  0
  190.1710  177.2570  137.3930 C   0  0  2  0  0  3  0  0  0  0  0  0
  187.6930  177.4070  138.0060 C   0  0  2  0  0  3  0  0  0  0  0  0
  188.2770  175.9890  136.2730 C   0  0  0  0  0  2  0  0  0  0  0  0
  189.2810  179.0950  138.7050 O   0  0  0  0  0  1  0  0  0  0  0  0
  191.3880  177.4890  139.5610 O   0  0  0  0  0  1  0  0  0  0  0  0
  190.7210  175.4190  138.8410 O   0  0  0  0  0  0  0  0  0  0  0  0
  190.7700  176.6610  138.6330 C   0  0  0  0  0  0  0  0  0  0  0  0
  184.3860  176.6420  137.6860 C   0  0  0  0  0  2  0  0  0  0  0  0
  184.0490  176.6890  136.2070 C   0  0  0  0  0  2  0  0  0  0  0  0
  183.1840  175.5000  135.8490 C   0  0  0  0  0  1  0  0  0  0  0  0
  1 21  1  6  0  0  0
  2  7  1  1  0  0  0
  2  3  1  0  0  0  0
  5  4  1  6  0  0  0
  5  2  1  0  0  0  0
  5  3  1  0  0  0  0
  6  1  1  6  0  0  0
  6  4  1  0  0  0  0
  6  5  1  0  0  0  0
  7  8  1  1  0  0  0
  9 10  1  0  0  0  0
  9 11  1  0  0  0  0
 10  7  1  0  0  0  0
 10 11  1  0  0  0  0
 13 12  1  6  0  0  0
 13 14  1  0  0  0  0
 13  1  1  0  0  0  0
 14 18  1  0  0  0  0
 15 16  1  0  0  0  0
 15 17  1  0  0  0  0
 16 14  1  6  0  0  0
 16 17  1  0  0  0  0
 20 18  1  0  0  0  0
 20 19  2  0  0  0  0
 21 35  1  1  0  0  0
 21 22  1  0  0  0  0
 24 23  1  1  0  0  0
 24 22  1  0  0  0  0
 25 29  1  0  0  0  0
 25 31  1  1  0  0  0
 26 28  1  0  0  0  0
 27 29  1  0  0  0  0
 28 25  1  0  0  0  0
 28 34  1  1  0  0  0
 29 24  1  6  0  0  0
 30 26  1  0  0  0  0
 30 27  1  0  0  0  0
 34 33  2  0  0  0  0
 34 32  1  0  0  0  0
 36 35  1  0  0  0  0
 37 36  1  0  0  0  0
M  END
>  <MODEL>
8

>  <REMARK>
 VINA RESULT:      -5.5      3.506      7.158
  Name = 
  15 active torsions:
  status: ('A' for Active; 'I' for Inactive)
    1  A    between atoms: C_1  and  C_5
    2  A    between atoms: C_5  and  C_26
    3  A    between atoms: C_8  and  C_19
    4  A    between atoms: N_9  and  C_13
    5  A    between atoms: N_9  and  C_16
    6  A    between atoms: N_9  and  C_30
    7  A    between atoms: O_10  and  C_29
    8  A    between atoms: O_10  and  C_37
    9  A    between atoms: C_13  and  C_20
   10  A    between atoms: C_14  and  C_37
   11  A    between atoms: C_16  and  C_24
   12  A    between atoms: C_20  and  C_25
   13  A    between atoms: C_20  and  C_29
   14  A    between atoms: C_27  and  C_33
   15  A    between atoms: C_29  and  C_33
                            x       y       z     vdW  Elec       q    Type
                         _______ _______ _______ _____ _____    ______ ____

>  <TORSDO>
F 15

$$$$
=
 OpenBabel10262423093D

 37 41  0  0  1  0  0  0  0  0999 V2000
  187.9400  178.0680  141.4350 C   0  0  1  0  0  3  0  0  0  0  0  0
  187.6650  177.1430  144.7950 C   0  0  2  0  0  3  0  0  0  0  0  0
  189.0460  176.6700  145.0050 C   0  0  0  0  0  2  0  0  0  0  0  0
  189.3480  176.5400  142.7520 C   0  0  0  0  0  2  0  0  0  0  0  0
  188.7410  177.5210  143.7610 C   0  0  2  0  0  0  0  0  0  0  0  0
  187.9680  177.0040  142.5370 C   0  0  1  0  0  3  0  0  0  0  0  0
  187.2930  178.3400  145.6900 C   0  0  2  0  0  3  0  0  0  0  0  0
  188.1830  178.5250  146.7570 O   0  0  0  0  0  1  0  0  0  0  0  0
  185.3080  179.3840  146.4590 O   0  0  0  0  0  0  0  0  0  0  0  0
  185.8900  178.1550  146.2330 C   0  0  0  0  0  3  0  0  0  0  0  0
  185.8100  178.6970  147.4960 O   0  0  0  0  0  0  0  0  0  0  0  0
  187.3830  177.0270  139.1500 C   0  0  0  0  0  1  0  0  0  0  0  0
  188.4770  177.4860  140.1190 C   0  0  1  0  0  3  0  0  0  0  0  0
  189.5260  178.3290  139.5140 N   0  0  0  0  0  0  0  0  0  0  0  0
  190.7750  176.4250  140.0570 O   0  0  0  0  0  0  0  0  0  0  0  0
  190.6830  177.5080  139.1600 C   0  0  2  0  0  3  0  0  0  0  0  0
  191.6650  177.4940  140.2690 C   0  0  0  0  0  2  0  0  0  0  0  0
  189.0560  179.1580  138.3870 C   0  0  0  0  0  2  0  0  0  0  0  0
  188.5600  178.3350  136.2290 O   0  0  0  0  0  0  0  0  0  0  0  0
  189.4310  178.6230  137.0330 C   0  0  0  0  0  3  0  0  0  0  0  0
  186.5650  178.7390  141.2470 C   0  0  1  0  0  3  0  0  0  0  0  0
  186.0660  178.6220  139.9430 O   0  0  0  0  0  0  0  0  0  0  0  0
  184.5230  180.1670  139.2720 O   0  0  0  0  0  1  0  0  0  0  0  0
  184.7260  179.0110  140.0280 C   0  0  1  0  0  3  0  0  0  0  0  0
  183.4100  178.0790  138.0560 C   0  0  1  0  0  3  0  0  0  0  0  0
  180.9720  177.9470  138.7680 C   0  0  0  0  0  2  0  0  0  0  0  0
  182.7080  177.6750  140.4220 O   0  0  0  0  0  0  0  0  0  0  0  0
  182.0220  177.4950  137.7430 C   0  0  2  0  0  3  0  0  0  0  0  0
  183.7990  177.8980  139.5380 C   0  0  2  0  0  3  0  0  0  0  0  0
  181.6200  178.4860  140.0470 C   0  0  0  0  0  2  0  0  0  0  0  0
  184.3920  177.5480  137.2160 O   0  0  0  0  0  1  0  0  0  0  0  0
  181.7690  175.2210  138.7390 O   0  0  0  0  0  1  0  0  0  0  0  0
  182.2670  175.4440  136.5140 O   0  0  0  0  0  0  0  0  0  0  0  0
  182.0280  176.0000  137.6190 C   0  0  0  0  0  0  0  0  0  0  0  0
  185.5470  178.2500  142.2770 C   0  0  0  0  0  2  0  0  0  0  0  0
  184.9200  179.3900  143.0570 C   0  0  0  0  0  2  0  0  0  0  0  0
  183.5240  178.9970  143.4890 C   0  0  0  0  0  1  0  0  0  0  0  0
  1 13  1  6  0  0  0
  2  3  1  0  0  0  0
  2  7  1  1  0  0  0
  5  4  1  6  0  0  0
  5  2  1  0  0  0  0
  5  3  1  0  0  0  0
  6  1  1  6  0  0  0
  6  4  1  0  0  0  0
  6  5  1  0  0  0  0
  7 10  1  0  0  0  0
  7  8  1  1  0  0  0
  9 11  1  0  0  0  0
 10  9  1  0  0  0  0
 10 11  1  0  0  0  0
 13 12  1  6  0  0  0
 14 13  1  0  0  0  0
 15 17  1  0  0  0  0
 16 14  1  1  0  0  0
 16 15  1  0  0  0  0
 16 17  1  0  0  0  0
 18 14  1  0  0  0  0
 19 20  2  0  0  0  0
 20 18  1  0  0  0  0
 21  1  1  0  0  0  0
 21 35  1  1  0  0  0
 22 24  1  0  0  0  0
 22 21  1  0  0  0  0
 24 23  1  6  0  0  0
 25 31  1  6  0  0  0
 25 29  1  0  0  0  0
 26 30  1  0  0  0  0
 28 34  1  1  0  0  0
 28 25  1  0  0  0  0
 28 26  1  0  0  0  0
 29 24  1  1  0  0  0
 29 27  1  0  0  0  0
 30 27  1  0  0  0  0
 33 34  2  0  0  0  0
 34 32  1  0  0  0  0
 35 36  1  0  0  0  0
 36 37  1  0  0  0  0
M  END
>  <MODEL>
9

>  <REMARK>
 VINA RESULT:      -5.3      2.725      4.765
  Name = 
  15 active torsions:
  status: ('A' for Active; 'I' for Inactive)
    1  A    between atoms: C_1  and  C_5
    2  A    between atoms: C_5  and  C_26
    3  A    between atoms: C_8  and  C_19
    4  A    between atoms: N_9  and  C_13
    5  A    between atoms: N_9  and  C_16
    6  A    between atoms: N_9  and  C_30
    7  A    between atoms: O_10  and  C_29
    8  A    between atoms: O_10  and  C_37
    9  A    between atoms: C_13  and  C_20
   10  A    between atoms: C_14  and  C_37
   11  A    between atoms: C_16  and  C_24
   12  A    between atoms: C_20  and  C_25
   13  A    between atoms: C_20  and  C_29
   14  A    between atoms: C_27  and  C_33
   15  A    between atoms: C_29  and  C_33
                            x       y       z     vdW  Elec       q    Type
                         _______ _______ _______ _____ _____    ______ ____

>  <TORSDO>
F 15

$$$$
