=
 OpenBabel10262419453D

 25 28  0  0  1  0  0  0  0  0999 V2000
  186.3270  178.8960  142.1360 C   0  0  2  0  0  3  0  0  0  0  0  0
  185.5570  178.8480  143.4040 C   0  0  0  0  0  0  0  0  0  0  0  0
  183.9850  178.9860  141.7350 N   0  0  0  0  0  0  0  0  0  0  0  0
  183.3030  178.8230  144.1660 C   0  0  0  0  0  0  0  0  0  0  0  0
  181.6930  178.8570  143.8860 S   0  0  0  0  0  0  0  0  0  0  0  0
  186.0230  178.7530  144.6740 N   0  0  0  0  0  0  0  0  0  0  0  0
  185.1550  179.0140  141.1680 C   0  0  0  0  0  0  0  0  0  0  0  0
  183.7770  178.7290  145.4420 N   0  0  0  0  0  2  0  0  0  0  0  0
  185.1220  178.7020  145.7000 C   0  0  0  0  0  0  0  0  0  0  0  0
  184.2260  178.8810  143.1270 C   0  0  0  0  0  0  0  0  0  0  0  0
  187.1460  177.6020  141.9770 C   0  0  2  0  0  3  0  0  0  0  0  0
  190.3160  176.2500  141.3310 O   0  0  0  0  0  1  0  0  0  0  0  0
  187.4250  176.9350  143.3060 C   0  0  0  0  0  2  0  0  0  0  0  0
  188.7480  176.2280  143.1230 C   0  0  0  0  0  2  0  0  0  0  0  0
  189.5180  177.0700  142.1270 C   0  0  2  0  0  3  0  0  0  0  0  0
  188.4850  177.7760  141.2690 C   0  0  0  0  0  2  0  0  0  0  0  0
  185.2780  179.1730  139.7890 O   0  0  0  0  0  0  0  0  0  0  0  0
  184.5700  180.0980  139.1300 O   0  0  0  0  0  1  0  0  0  0  0  0
  185.6040  178.5690  147.1010 C   0  0  0  0  0  2  0  0  0  0  0  0
  187.1100  178.7350  147.1460 C   0  0  2  0  0  3  0  0  0  0  0  0
  187.7430  177.4200  147.2000 C   0  0  2  0  0  3  0  0  0  0  0  0
  187.6180  178.2250  148.4260 N   0  0  0  0  0  2  0  0  0  0  0  0
  189.1490  177.4920  146.6880 C   0  0  0  0  0  0  0  0  0  0  0  0
  190.2150  176.6300  147.2760 C   0  0  0  0  0  1  0  0  0  0  0  0
  189.4390  178.2900  145.8100 O   0  0  0  0  0  0  0  0  0  0  0  0
  1  7  1  6  0  0  0
  1  2  1  0  0  0  0
  2  6  1  0  0  0  0
  3 10  1  0  0  0  0
  4  8  1  0  0  0  0
  5  4  2  0  0  0  0
  6  9  2  0  0  0  0
  7  3  2  0  0  0  0
  8  9  1  0  0  0  0
  9 19  1  0  0  0  0
 10  2  2  0  0  0  0
 10  4  1  0  0  0  0
 11 16  1  1  0  0  0
 11  1  1  0  0  0  0
 11 13  1  0  0  0  0
 14 13  1  0  0  0  0
 15 12  1  6  0  0  0
 15 14  1  0  0  0  0
 16 15  1  0  0  0  0
 17  7  1  0  0  0  0
 18 17  1  0  0  0  0
 20 19  1  1  0  0  0
 20 21  1  0  0  0  0
 20 22  1  0  0  0  0
 21 23  1  6  0  0  0
 21 22  1  0  0  0  0
 23 24  1  0  0  0  0
 25 23  2  0  0  0  0
M  END
>  <MODEL>
1

>  <REMARK>
 VINA RESULT:      -8.2      0.000      0.000
  Name = 
  5 active torsions:
  status: ('A' for Active; 'I' for Inactive)
    1  A    between atoms: C_1  and  C_5
    2  A    between atoms: C_2  and  C_21
    3  A    between atoms: O_4  and  C_18
    4  A    between atoms: C_6  and  C_15
    5  A    between atoms: C_6  and  C_23
                            x       y       z     vdW  Elec       q    Type
                         _______ _______ _______ _____ _____    ______ ____

>  <TORSDO>
F 5

$$$$
=
 OpenBabel10262419453D

 25 28  0  0  1  0  0  0  0  0999 V2000
  189.6430  178.3100  144.2960 C   0  0  2  0  0  3  0  0  0  0  0  0
  189.1670  178.1390  142.9010 C   0  0  0  0  0  0  0  0  0  0  0  0
  191.3280  177.3600  142.9130 N   0  0  0  0  0  0  0  0  0  0  0  0
  189.9250  177.2970  140.8080 C   0  0  0  0  0  0  0  0  0  0  0  0
  191.0760  176.6180  139.8660 S   0  0  0  0  0  0  0  0  0  0  0  0
  187.9530  178.4390  142.3780 N   0  0  0  0  0  0  0  0  0  0  0  0
  191.0620  177.7830  144.1130 C   0  0  0  0  0  0  0  0  0  0  0  0
  188.7020  177.6030  140.2870 N   0  0  0  0  0  2  0  0  0  0  0  0
  187.7240  178.1740  141.0570 C   0  0  0  0  0  0  0  0  0  0  0  0
  190.1520  177.5750  142.1520 C   0  0  0  0  0  0  0  0  0  0  0  0
  188.7760  177.4640  145.2460 C   0  0  2  0  0  3  0  0  0  0  0  0
  187.5910  177.1060  148.5270 O   0  0  0  0  0  1  0  0  0  0  0  0
  187.2960  177.6830  145.0190 C   0  0  0  0  0  2  0  0  0  0  0  0
  186.6520  177.4630  146.3680 C   0  0  0  0  0  2  0  0  0  0  0  0
  187.6890  177.8960  147.3830 C   0  0  2  0  0  3  0  0  0  0  0  0
  189.0430  177.6940  146.7300 C   0  0  0  0  0  2  0  0  0  0  0  0
  192.0370  177.7700  145.1090 O   0  0  0  0  0  0  0  0  0  0  0  0
  192.0660  176.8090  146.0400 O   0  0  0  0  0  1  0  0  0  0  0  0
  186.3910  178.4660  140.4630 C   0  0  0  0  0  2  0  0  0  0  0  0
  185.5740  179.3100  141.4220 C   0  0  2  0  0  3  0  0  0  0  0  0
  184.5790  178.4700  142.0820 C   0  0  2  0  0  3  0  0  0  0  0  0
  184.1780  179.3460  140.9690 N   0  0  0  0  0  2  0  0  0  0  0  0
  184.1570  179.0790  143.3830 C   0  0  0  0  0  0  0  0  0  0  0  0
  182.8390  178.7330  143.9910 C   0  0  0  0  0  1  0  0  0  0  0  0
  184.8750  179.8980  143.9360 O   0  0  0  0  0  0  0  0  0  0  0  0
  1  2  1  6  0  0  0
  1 11  1  0  0  0  0
  3  7  2  0  0  0  0
  4 10  1  0  0  0  0
  5  4  2  0  0  0  0
  6  2  1  0  0  0  0
  7  1  1  0  0  0  0
  7 17  1  0  0  0  0
  8  4  1  0  0  0  0
  8  9  1  0  0  0  0
  9  6  2  0  0  0  0
 10  2  2  0  0  0  0
 10  3  1  0  0  0  0
 11 13  1  1  0  0  0
 11 16  1  0  0  0  0
 13 14  1  0  0  0  0
 14 15  1  0  0  0  0
 15 12  1  1  0  0  0
 16 15  1  0  0  0  0
 17 18  1  0  0  0  0
 19  9  1  0  0  0  0
 20 19  1  6  0  0  0
 20 21  1  0  0  0  0
 21 23  1  1  0  0  0
 22 20  1  0  0  0  0
 22 21  1  0  0  0  0
 23 25  2  0  0  0  0
 23 24  1  0  0  0  0
M  END
>  <MODEL>
2

>  <REMARK>
 VINA RESULT:      -8.0      3.288      6.615
  Name = 
  5 active torsions:
  status: ('A' for Active; 'I' for Inactive)
    1  A    between atoms: C_1  and  C_5
    2  A    between atoms: C_2  and  C_21
    3  A    between atoms: O_4  and  C_18
    4  A    between atoms: C_6  and  C_15
    5  A    between atoms: C_6  and  C_23
                            x       y       z     vdW  Elec       q    Type
                         _______ _______ _______ _____ _____    ______ ____

>  <TORSDO>
F 5

$$$$
=
 OpenBabel10262419453D

 25 28  0  0  1  0  0  0  0  0999 V2000
  187.8940  178.2730  144.7760 C   0  0  2  0  0  3  0  0  0  0  0  0
  188.8430  177.7410  143.7660 C   0  0  0  0  0  0  0  0  0  0  0  0
  189.5000  176.8270  145.7690 N   0  0  0  0  0  0  0  0  0  0  0  0
  190.7040  176.2660  143.6160 C   0  0  0  0  0  0  0  0  0  0  0  0
  191.7900  175.2500  144.2970 S   0  0  0  0  0  0  0  0  0  0  0  0
  188.8750  177.9710  142.4300 N   0  0  0  0  0  0  0  0  0  0  0  0
  188.4860  177.6040  146.0110 C   0  0  0  0  0  0  0  0  0  0  0  0
  190.7330  176.5020  142.2720 N   0  0  0  0  0  2  0  0  0  0  0  0
  189.8350  177.3510  141.6810 C   0  0  0  0  0  0  0  0  0  0  0  0
  189.7280  176.9050  144.3720 C   0  0  0  0  0  0  0  0  0  0  0  0
  186.4650  177.8150  144.4360 C   0  0  2  0  0  3  0  0  0  0  0  0
  183.0530  178.5930  144.6540 O   0  0  0  0  0  1  0  0  0  0  0  0
  186.1390  177.9940  142.9690 C   0  0  0  0  0  2  0  0  0  0  0  0
  184.6510  178.2510  142.9230 C   0  0  0  0  0  2  0  0  0  0  0  0
  184.3250  178.9590  144.2210 C   0  0  2  0  0  3  0  0  0  0  0  0
  185.3640  178.5110  145.2300 C   0  0  0  0  0  2  0  0  0  0  0  0
  188.0330  177.8030  147.3140 O   0  0  0  0  0  0  0  0  0  0  0  0
  188.8520  178.2470  148.2750 O   0  0  0  0  0  1  0  0  0  0  0  0
  189.8760  177.5630  140.2090 C   0  0  0  0  0  2  0  0  0  0  0  0
  188.6410  178.3200  139.7630 C   0  0  2  0  0  3  0  0  0  0  0  0
  188.1790  177.7860  138.4840 C   0  0  2  0  0  3  0  0  0  0  0  0
  188.9380  179.0470  138.5220 N   0  0  0  0  0  2  0  0  0  0  0  0
  186.7220  178.0780  138.2900 C   0  0  0  0  0  0  0  0  0  0  0  0
  186.0500  177.7510  136.9980 C   0  0  0  0  0  1  0  0  0  0  0  0
  186.0850  178.6240  139.1760 O   0  0  0  0  0  0  0  0  0  0  0  0
  1  2  1  6  0  0  0
  1  7  1  0  0  0  0
  2 10  2  0  0  0  0
  3  7  2  0  0  0  0
  4  5  2  0  0  0  0
  4 10  1  0  0  0  0
  6  2  1  0  0  0  0
  7 17  1  0  0  0  0
  8  4  1  0  0  0  0
  9  8  1  0  0  0  0
  9  6  2  0  0  0  0
 10  3  1  0  0  0  0
 11 13  1  6  0  0  0
 11  1  1  0  0  0  0
 11 16  1  0  0  0  0
 14 13  1  0  0  0  0
 14 15  1  0  0  0  0
 15 12  1  1  0  0  0
 15 16  1  0  0  0  0
 17 18  1  0  0  0  0
 19  9  1  0  0  0  0
 20 19  1  6  0  0  0
 21 23  1  1  0  0  0
 21 22  1  0  0  0  0
 21 20  1  0  0  0  0
 22 20  1  0  0  0  0
 23 25  2  0  0  0  0
 24 23  1  0  0  0  0
M  END
>  <MODEL>
3

>  <REMARK>
 VINA RESULT:      -8.0      3.560      7.290
  Name = 
  5 active torsions:
  status: ('A' for Active; 'I' for Inactive)
    1  A    between atoms: C_1  and  C_5
    2  A    between atoms: C_2  and  C_21
    3  A    between atoms: O_4  and  C_18
    4  A    between atoms: C_6  and  C_15
    5  A    between atoms: C_6  and  C_23
                            x       y       z     vdW  Elec       q    Type
                         _______ _______ _______ _____ _____    ______ ____

>  <TORSDO>
F 5

$$$$
=
 OpenBabel10262419453D

 25 28  0  0  1  0  0  0  0  0999 V2000
  188.1590  178.6180  141.1160 C   0  0  2  0  0  3  0  0  0  0  0  0
  186.7770  178.6440  141.6590 C   0  0  0  0  0  0  0  0  0  0  0  0
  186.5390  178.5800  139.3750 N   0  0  0  0  0  0  0  0  0  0  0  0
  184.5220  178.5910  140.9020 C   0  0  0  0  0  0  0  0  0  0  0  0
  183.4110  178.5370  139.7030 S   0  0  0  0  0  0  0  0  0  0  0  0
  186.3770  178.6730  142.9540 N   0  0  0  0  0  0  0  0  0  0  0  0
  187.8140  178.6080  139.6300 C   0  0  0  0  0  0  0  0  0  0  0  0
  184.1250  178.6220  142.2060 N   0  0  0  0  0  2  0  0  0  0  0  0
  185.0380  178.6700  143.2260 C   0  0  0  0  0  0  0  0  0  0  0  0
  185.8860  178.6000  140.6320 C   0  0  0  0  0  0  0  0  0  0  0  0
  188.8830  177.3490  141.6020 C   0  0  2  0  0  3  0  0  0  0  0  0
  191.6750  176.0910  143.3090 O   0  0  0  0  0  1  0  0  0  0  0  0
  188.2020  176.7240  142.8000 C   0  0  0  0  0  2  0  0  0  0  0  0
  189.3100  176.0600  143.5820 C   0  0  0  0  0  2  0  0  0  0  0  0
  190.5430  176.9020  143.3270 C   0  0  2  0  0  3  0  0  0  0  0  0
  190.3480  177.5510  141.9710 C   0  0  0  0  0  2  0  0  0  0  0  0
  188.7500  178.6580  138.5990 O   0  0  0  0  0  0  0  0  0  0  0  0
  188.5580  179.4290  137.5220 O   0  0  0  0  0  1  0  0  0  0  0  0
  184.5710  178.6730  144.6390 C   0  0  0  0  0  2  0  0  0  0  0  0
  185.7270  179.0010  145.5630 C   0  0  2  0  0  3  0  0  0  0  0  0
  186.0470  177.8290  146.3760 C   0  0  2  0  0  3  0  0  0  0  0  0
  185.2680  178.9360  146.9560 N   0  0  0  0  0  2  0  0  0  0  0  0
  187.4630  177.8980  146.8600 C   0  0  0  0  0  0  0  0  0  0  0  0
  187.7770  177.7240  148.3080 C   0  0  0  0  0  1  0  0  0  0  0  0
  188.3660  178.1380  146.0740 O   0  0  0  0  0  0  0  0  0  0  0  0
  1  7  1  6  0  0  0
  1 11  1  0  0  0  0
  1  2  1  0  0  0  0
  2  6  1  0  0  0  0
  3  7  2  0  0  0  0
  3 10  1  0  0  0  0
  4  8  1  0  0  0  0
  5  4  2  0  0  0  0
  6  9  2  0  0  0  0
  8  9  1  0  0  0  0
  9 19  1  0  0  0  0
 10  4  1  0  0  0  0
 10  2  2  0  0  0  0
 11 16  1  1  0  0  0
 11 13  1  0  0  0  0
 13 14  1  0  0  0  0
 15 12  1  6  0  0  0
 15 14  1  0  0  0  0
 16 15  1  0  0  0  0
 17  7  1  0  0  0  0
 18 17  1  0  0  0  0
 20 19  1  6  0  0  0
 20 21  1  0  0  0  0
 20 22  1  0  0  0  0
 21 23  1  1  0  0  0
 21 22  1  0  0  0  0
 23 24  1  0  0  0  0
 25 23  2  0  0  0  0
M  END
>  <MODEL>
4

>  <REMARK>
 VINA RESULT:      -7.9      1.988      2.670
  Name = 
  5 active torsions:
  status: ('A' for Active; 'I' for Inactive)
    1  A    between atoms: C_1  and  C_5
    2  A    between atoms: C_2  and  C_21
    3  A    between atoms: O_4  and  C_18
    4  A    between atoms: C_6  and  C_15
    5  A    between atoms: C_6  and  C_23
                            x       y       z     vdW  Elec       q    Type
                         _______ _______ _______ _____ _____    ______ ____

>  <TORSDO>
F 5

$$$$
=
 OpenBabel10262419453D

 25 28  0  0  1  0  0  0  0  0999 V2000
  189.4340  178.2160  142.7540 C   0  0  2  0  0  3  0  0  0  0  0  0
  188.9620  178.0000  141.3630 C   0  0  0  0  0  0  0  0  0  0  0  0
  191.0990  177.1600  141.4240 N   0  0  0  0  0  0  0  0  0  0  0  0
  189.7080  177.0490  139.3140 C   0  0  0  0  0  0  0  0  0  0  0  0
  190.8450  176.2980  138.4100 S   0  0  0  0  0  0  0  0  0  0  0  0
  187.7600  178.3120  140.8190 N   0  0  0  0  0  0  0  0  0  0  0  0
  190.8390  177.6420  142.6030 C   0  0  0  0  0  0  0  0  0  0  0  0
  188.4980  177.3670  138.7710 N   0  0  0  0  0  2  0  0  0  0  0  0
  187.5320  177.9990  139.5090 C   0  0  0  0  0  0  0  0  0  0  0  0
  189.9350  177.3770  140.6460 C   0  0  0  0  0  0  0  0  0  0  0  0
  188.5370  177.4370  143.7330 C   0  0  2  0  0  3  0  0  0  0  0  0
  187.3640  177.2210  147.0300 O   0  0  0  0  0  1  0  0  0  0  0  0
  187.0680  177.7160  143.5100 C   0  0  0  0  0  2  0  0  0  0  0  0
  186.4250  177.5620  144.8690 C   0  0  0  0  0  2  0  0  0  0  0  0
  187.4890  177.9740  145.8640 C   0  0  2  0  0  3  0  0  0  0  0  0
  188.8270  177.6930  145.2080 C   0  0  0  0  0  2  0  0  0  0  0  0
  191.8070  177.6420  143.6060 O   0  0  0  0  0  0  0  0  0  0  0  0
  192.0840  178.7490  144.3050 O   0  0  0  0  0  1  0  0  0  0  0  0
  186.2120  178.3040  138.8940 C   0  0  0  0  0  2  0  0  0  0  0  0
  185.2890  178.9120  139.9320 C   0  0  2  0  0  3  0  0  0  0  0  0
  183.9050  178.5650  139.6150 C   0  0  2  0  0  3  0  0  0  0  0  0
  184.4200  179.9050  139.2870 N   0  0  0  0  0  2  0  0  0  0  0  0
  183.0520  178.6370  140.8430 C   0  0  0  0  0  0  0  0  0  0  0  0
  183.6640  178.5220  142.1990 C   0  0  0  0  0  1  0  0  0  0  0  0
  181.8400  178.7490  140.7400 O   0  0  0  0  0  0  0  0  0  0  0  0
  1  2  1  6  0  0  0
  1 11  1  0  0  0  0
  3  7  2  0  0  0  0
  4 10  1  0  0  0  0
  5  4  2  0  0  0  0
  6  2  1  0  0  0  0
  7  1  1  0  0  0  0
  7 17  1  0  0  0  0
  8  4  1  0  0  0  0
  8  9  1  0  0  0  0
  9  6  2  0  0  0  0
 10  2  2  0  0  0  0
 10  3  1  0  0  0  0
 11 13  1  6  0  0  0
 11 16  1  0  0  0  0
 13 14  1  0  0  0  0
 14 15  1  0  0  0  0
 15 12  1  1  0  0  0
 16 15  1  0  0  0  0
 17 18  1  0  0  0  0
 19  9  1  0  0  0  0
 20 19  1  6  0  0  0
 21 20  1  0  0  0  0
 21 23  1  1  0  0  0
 22 21  1  0  0  0  0
 22 20  1  0  0  0  0
 23 24  1  0  0  0  0
 25 23  2  0  0  0  0
M  END
>  <MODEL>
5

>  <REMARK>
 VINA RESULT:      -7.8      3.613      7.034
  Name = 
  5 active torsions:
  status: ('A' for Active; 'I' for Inactive)
    1  A    between atoms: C_1  and  C_5
    2  A    between atoms: C_2  and  C_21
    3  A    between atoms: O_4  and  C_18
    4  A    between atoms: C_6  and  C_15
    5  A    between atoms: C_6  and  C_23
                            x       y       z     vdW  Elec       q    Type
                         _______ _______ _______ _____ _____    ______ ____

>  <TORSDO>
F 5

$$$$
=
 OpenBabel10262419453D

 25 28  0  0  1  0  0  0  0  0999 V2000
  188.1060  176.8340  144.5420 C   0  0  2  0  0  3  0  0  0  0  0  0
  188.0440  177.2470  143.1170 C   0  0  0  0  0  0  0  0  0  0  0  0
  186.1370  178.0870  144.0840 N   0  0  0  0  0  0  0  0  0  0  0  0
  186.6550  178.4930  141.6410 C   0  0  0  0  0  0  0  0  0  0  0  0
  185.3150  179.3780  141.3360 S   0  0  0  0  0  0  0  0  0  0  0  0
  188.9390  177.0070  142.1270 N   0  0  0  0  0  0  0  0  0  0  0  0
  186.7840  177.4360  145.0050 C   0  0  0  0  0  0  0  0  0  0  0  0
  187.5580  178.2480  140.6480 N   0  0  0  0  0  2  0  0  0  0  0  0
  188.6860  177.5070  140.8810 C   0  0  0  0  0  0  0  0  0  0  0  0
  186.9160  177.9760  142.9050 C   0  0  0  0  0  0  0  0  0  0  0  0
  189.3470  177.4550  145.2080 C   0  0  2  0  0  3  0  0  0  0  0  0
  191.5120  177.3330  147.9630 O   0  0  0  0  0  1  0  0  0  0  0  0
  190.6310  177.0480  144.5180 C   0  0  0  0  0  2  0  0  0  0  0  0
  191.6800  177.0470  145.6050 C   0  0  0  0  0  2  0  0  0  0  0  0
  190.9430  176.6750  146.8750 C   0  0  2  0  0  3  0  0  0  0  0  0
  189.5080  177.1290  146.6890 C   0  0  0  0  0  2  0  0  0  0  0  0
  186.2560  177.2980  146.2880 O   0  0  0  0  0  0  0  0  0  0  0  0
  186.1680  178.3420  147.1200 O   0  0  0  0  0  1  0  0  0  0  0  0
  189.6650  177.2840  139.7820 C   0  0  0  0  0  2  0  0  0  0  0  0
  189.2900  178.1290  138.5800 C   0  0  2  0  0  3  0  0  0  0  0  0
  188.5250  177.3190  137.6360 C   0  0  2  0  0  3  0  0  0  0  0  0
  189.9500  177.5910  137.3840 N   0  0  0  0  0  2  0  0  0  0  0  0
  187.6800  178.1920  136.7600 C   0  0  0  0  0  0  0  0  0  0  0  0
  187.0290  177.6350  135.5380 C   0  0  0  0  0  1  0  0  0  0  0  0
  187.5530  179.3780  137.0200 O   0  0  0  0  0  0  0  0  0  0  0  0
  1  2  1  6  0  0  0
  1  7  1  0  0  0  0
  1 11  1  0  0  0  0
  3  7  2  0  0  0  0
  4 10  1  0  0  0  0
  5  4  2  0  0  0  0
  6  2  1  0  0  0  0
  7 17  1  0  0  0  0
  8  9  1  0  0  0  0
  8  4  1  0  0  0  0
  9  6  2  0  0  0  0
 10  2  2  0  0  0  0
 10  3  1  0  0  0  0
 11 13  1  6  0  0  0
 11 16  1  0  0  0  0
 13 14  1  0  0  0  0
 14 15  1  0  0  0  0
 15 12  1  1  0  0  0
 16 15  1  0  0  0  0
 17 18  1  0  0  0  0
 19  9  1  0  0  0  0
 20 19  1  1  0  0  0
 21 23  1  6  0  0  0
 21 20  1  0  0  0  0
 22 21  1  0  0  0  0
 22 20  1  0  0  0  0
 23 25  2  0  0  0  0
 24 23  1  0  0  0  0
M  END
>  <MODEL>
6

>  <REMARK>
 VINA RESULT:      -7.7      3.225      6.796
  Name = 
  5 active torsions:
  status: ('A' for Active; 'I' for Inactive)
    1  A    between atoms: C_1  and  C_5
    2  A    between atoms: C_2  and  C_21
    3  A    between atoms: O_4  and  C_18
    4  A    between atoms: C_6  and  C_15
    5  A    between atoms: C_6  and  C_23
                            x       y       z     vdW  Elec       q    Type
                         _______ _______ _______ _____ _____    ______ ____

>  <TORSDO>
F 5

$$$$
=
 OpenBabel10262419453D

 25 28  0  0  1  0  0  0  0  0999 V2000
  188.0780  178.3280  145.7160 C   0  0  2  0  0  3  0  0  0  0  0  0
  189.3280  177.8180  145.0980 C   0  0  0  0  0  0  0  0  0  0  0  0
  189.3710  177.0780  147.2720 N   0  0  0  0  0  0  0  0  0  0  0  0
  191.2260  176.4950  145.6540 C   0  0  0  0  0  0  0  0  0  0  0  0
  192.1000  175.6140  146.7180 S   0  0  0  0  0  0  0  0  0  0  0  0
  189.7680  177.9740  143.8250 N   0  0  0  0  0  0  0  0  0  0  0  0
  188.2870  177.7810  147.1240 C   0  0  0  0  0  0  0  0  0  0  0  0
  191.6650  176.6570  144.3720 N   0  0  0  0  0  2  0  0  0  0  0  0
  190.9510  177.3940  143.4640 C   0  0  0  0  0  0  0  0  0  0  0  0
  190.0240  177.0940  146.0150 C   0  0  0  0  0  0  0  0  0  0  0  0
  186.8600  177.7340  144.9850 C   0  0  2  0  0  3  0  0  0  0  0  0
  183.5490  178.2850  143.9720 O   0  0  0  0  0  1  0  0  0  0  0  0
  187.0390  177.7320  143.4830 C   0  0  0  0  0  2  0  0  0  0  0  0
  185.6440  177.8750  142.9190 C   0  0  0  0  0  2  0  0  0  0  0  0
  184.8810  178.6930  143.9390 C   0  0  2  0  0  3  0  0  0  0  0  0
  185.5360  178.4310  145.2810 C   0  0  0  0  0  2  0  0  0  0  0  0
  187.4340  178.0160  148.2000 O   0  0  0  0  0  0  0  0  0  0  0  0
  187.8480  177.8560  149.4630 O   0  0  0  0  0  1  0  0  0  0  0  0
  191.4430  177.5240  142.0660 C   0  0  0  0  0  2  0  0  0  0  0  0
  190.5370  176.7520  141.1270 C   0  0  2  0  0  3  0  0  0  0  0  0
  190.5620  177.3750  139.8060 C   0  0  2  0  0  3  0  0  0  0  0  0
  189.4240  177.6130  140.7090 N   0  0  0  0  0  2  0  0  0  0  0  0
  190.1740  176.3840  138.7510 C   0  0  0  0  0  0  0  0  0  0  0  0
  189.1040  176.7100  137.7640 C   0  0  0  0  0  1  0  0  0  0  0  0
  190.7050  175.2850  138.7200 O   0  0  0  0  0  0  0  0  0  0  0  0
  1  2  1  6  0  0  0
  1  7  1  0  0  0  0
  2 10  2  0  0  0  0
  4 10  1  0  0  0  0
  4  5  2  0  0  0  0
  6  2  1  0  0  0  0
  7  3  2  0  0  0  0
  7 17  1  0  0  0  0
  8  4  1  0  0  0  0
  9  6  2  0  0  0  0
  9  8  1  0  0  0  0
 10  3  1  0  0  0  0
 11 13  1  6  0  0  0
 11 16  1  0  0  0  0
 11  1  1  0  0  0  0
 14 13  1  0  0  0  0
 14 15  1  0  0  0  0
 15 12  1  1  0  0  0
 15 16  1  0  0  0  0
 17 18  1  0  0  0  0
 19  9  1  0  0  0  0
 20 19  1  1  0  0  0
 21 23  1  6  0  0  0
 21 22  1  0  0  0  0
 21 20  1  0  0  0  0
 22 20  1  0  0  0  0
 24 23  1  0  0  0  0
 25 23  2  0  0  0  0
M  END
>  <MODEL>
7

>  <REMARK>
 VINA RESULT:      -7.7      3.613      7.205
  Name = 
  5 active torsions:
  status: ('A' for Active; 'I' for Inactive)
    1  A    between atoms: C_1  and  C_5
    2  A    between atoms: C_2  and  C_21
    3  A    between atoms: O_4  and  C_18
    4  A    between atoms: C_6  and  C_15
    5  A    between atoms: C_6  and  C_23
                            x       y       z     vdW  Elec       q    Type
                         _______ _______ _______ _____ _____    ______ ____

>  <TORSDO>
F 5

$$$$
=
 OpenBabel10262419453D

 25 28  0  0  1  0  0  0  0  0999 V2000
  188.1680  176.7730  143.9910 C   0  0  2  0  0  3  0  0  0  0  0  0
  187.9860  177.2960  142.6130 C   0  0  0  0  0  0  0  0  0  0  0  0
  186.1000  177.9250  143.7640 N   0  0  0  0  0  0  0  0  0  0  0  0
  186.4270  178.5630  141.3380 C   0  0  0  0  0  0  0  0  0  0  0  0
  185.0180  179.3790  141.1930 S   0  0  0  0  0  0  0  0  0  0  0  0
  188.8250  177.1980  141.5530 N   0  0  0  0  0  0  0  0  0  0  0  0
  186.8450  177.2460  144.5850 C   0  0  0  0  0  0  0  0  0  0  0  0
  187.2750  178.4610  140.2740 N   0  0  0  0  0  2  0  0  0  0  0  0
  188.4600  177.7800  140.3720 C   0  0  0  0  0  0  0  0  0  0  0  0
  186.8030  177.9640  142.5350 C   0  0  0  0  0  0  0  0  0  0  0  0
  189.4100  177.4190  144.6300 C   0  0  2  0  0  3  0  0  0  0  0  0
  191.6140  177.3660  147.3570 O   0  0  0  0  0  1  0  0  0  0  0  0
  190.6890  177.0170  143.9300 C   0  0  0  0  0  2  0  0  0  0  0  0
  191.7530  177.0450  145.0020 C   0  0  0  0  0  2  0  0  0  0  0  0
  191.0370  176.6840  146.2870 C   0  0  2  0  0  3  0  0  0  0  0  0
  189.5950  177.1180  146.1140 C   0  0  0  0  0  2  0  0  0  0  0  0
  186.4130  176.9680  145.8810 O   0  0  0  0  0  0  0  0  0  0  0  0
  186.1540  177.9500  146.7520 O   0  0  0  0  0  1  0  0  0  0  0  0
  189.3740  177.7140  139.2010 C   0  0  0  0  0  2  0  0  0  0  0  0
  190.6680  177.0290  139.5950 C   0  0  2  0  0  3  0  0  0  0  0  0
  191.4950  176.8310  138.4080 C   0  0  2  0  0  3  0  0  0  0  0  0
  190.7290  175.7040  138.9670 N   0  0  0  0  0  2  0  0  0  0  0  0
  192.9380  176.7000  138.7880 C   0  0  0  0  0  0  0  0  0  0  0  0
  193.4270  177.2270  140.0950 C   0  0  0  0  0  1  0  0  0  0  0  0
  193.7320  176.1950  138.0100 O   0  0  0  0  0  0  0  0  0  0  0  0
  1  2  1  6  0  0  0
  1  7  1  0  0  0  0
  1 11  1  0  0  0  0
  3  7  2  0  0  0  0
  4 10  1  0  0  0  0
  5  4  2  0  0  0  0
  6  2  1  0  0  0  0
  7 17  1  0  0  0  0
  8  9  1  0  0  0  0
  8  4  1  0  0  0  0
  9  6  2  0  0  0  0
 10  2  2  0  0  0  0
 10  3  1  0  0  0  0
 11 13  1  6  0  0  0
 11 16  1  0  0  0  0
 13 14  1  0  0  0  0
 14 15  1  0  0  0  0
 15 12  1  1  0  0  0
 16 15  1  0  0  0  0
 17 18  1  0  0  0  0
 19  9  1  0  0  0  0
 20 19  1  6  0  0  0
 21 23  1  1  0  0  0
 21 22  1  0  0  0  0
 21 20  1  0  0  0  0
 22 20  1  0  0  0  0
 23 24  1  0  0  0  0
 25 23  2  0  0  0  0
M  END
>  <MODEL>
8

>  <REMARK>
 VINA RESULT:      -7.6      3.278      6.295
  Name = 
  5 active torsions:
  status: ('A' for Active; 'I' for Inactive)
    1  A    between atoms: C_1  and  C_5
    2  A    between atoms: C_2  and  C_21
    3  A    between atoms: O_4  and  C_18
    4  A    between atoms: C_6  and  C_15
    5  A    between atoms: C_6  and  C_23
                            x       y       z     vdW  Elec       q    Type
                         _______ _______ _______ _____ _____    ______ ____

>  <TORSDO>
F 5

$$$$
=
 OpenBabel10262419453D

 25 28  0  0  1  0  0  0  0  0999 V2000
  188.4290  176.6590  143.0310 C   0  0  2  0  0  3  0  0  0  0  0  0
  187.6480  177.2940  144.1220 C   0  0  0  0  0  0  0  0  0  0  0  0
  189.6440  176.6770  145.0750 N   0  0  0  0  0  0  0  0  0  0  0  0
  187.8650  177.8710  146.4200 C   0  0  0  0  0  0  0  0  0  0  0  0
  188.7140  177.9060  147.8170 S   0  0  0  0  0  0  0  0  0  0  0  0
  186.4060  177.8360  144.0690 N   0  0  0  0  0  0  0  0  0  0  0  0
  189.6750  176.2960  143.8330 C   0  0  0  0  0  0  0  0  0  0  0  0
  186.6140  178.4130  146.3620 N   0  0  0  0  0  2  0  0  0  0  0  0
  185.8850  178.3920  145.2030 C   0  0  0  0  0  0  0  0  0  0  0  0
  188.3870  177.3020  145.2640 C   0  0  0  0  0  0  0  0  0  0  0  0
  188.6800  177.6830  141.9090 C   0  0  2  0  0  3  0  0  0  0  0  0
  189.9390  178.1730  138.6730 O   0  0  0  0  0  1  0  0  0  0  0  0
  187.4080  178.0620  141.1850 C   0  0  0  0  0  2  0  0  0  0  0  0
  187.8390  178.3900  139.7740 C   0  0  0  0  0  2  0  0  0  0  0  0
  189.0410  177.5090  139.5070 C   0  0  2  0  0  3  0  0  0  0  0  0
  189.6860  177.2390  140.8520 C   0  0  0  0  0  2  0  0  0  0  0  0
  190.7630  175.5870  143.3280 O   0  0  0  0  0  0  0  0  0  0  0  0
  191.9580  175.6250  143.9290 O   0  0  0  0  0  1  0  0  0  0  0  0
  184.5360  179.0190  145.1660 C   0  0  0  0  0  2  0  0  0  0  0  0
  183.6880  178.3550  144.0990 C   0  0  2  0  0  3  0  0  0  0  0  0
  182.9810  179.3790  143.3330 C   0  0  2  0  0  3  0  0  0  0  0  0
  182.2700  178.6170  144.3730 N   0  0  0  0  0  2  0  0  0  0  0  0
  182.6090  178.8580  141.9790 C   0  0  0  0  0  0  0  0  0  0  0  0
  183.5850  178.0640  141.1780 C   0  0  0  0  0  1  0  0  0  0  0  0
  181.5130  179.1160  141.5050 O   0  0  0  0  0  0  0  0  0  0  0  0
  1  7  1  1  0  0  0
  1  2  1  0  0  0  0
  2 10  2  0  0  0  0
  3 10  1  0  0  0  0
  4  5  2  0  0  0  0
  6  2  1  0  0  0  0
  6  9  2  0  0  0  0
  7  3  2  0  0  0  0
  8  4  1  0  0  0  0
  9  8  1  0  0  0  0
 10  4  1  0  0  0  0
 11 16  1  6  0  0  0
 11  1  1  0  0  0  0
 13 11  1  0  0  0  0
 14 13  1  0  0  0  0
 15 12  1  6  0  0  0
 15 14  1  0  0  0  0
 15 16  1  0  0  0  0
 17  7  1  0  0  0  0
 17 18  1  0  0  0  0
 19  9  1  0  0  0  0
 20 22  1  0  0  0  0
 20 19  1  1  0  0  0
 21 23  1  6  0  0  0
 21 20  1  0  0  0  0
 21 22  1  0  0  0  0
 24 23  1  0  0  0  0
 25 23  2  0  0  0  0
M  END
>  <MODEL>
9

>  <REMARK>
 VINA RESULT:      -7.5      2.613      5.557
  Name = 
  5 active torsions:
  status: ('A' for Active; 'I' for Inactive)
    1  A    between atoms: C_1  and  C_5
    2  A    between atoms: C_2  and  C_21
    3  A    between atoms: O_4  and  C_18
    4  A    between atoms: C_6  and  C_15
    5  A    between atoms: C_6  and  C_23
                            x       y       z     vdW  Elec       q    Type
                         _______ _______ _______ _____ _____    ______ ____

>  <TORSDO>
F 5

$$$$
