=
 OpenBabel10262420133D

 27 31  0  0  0  0  0  0  0  0999 V2000
  187.8980  177.5320  145.0270 N   0  0  0  0  0  0  0  0  0  0  0  0
  187.9860  177.7280  142.6210 C   0  0  0  0  0  0  0  0  0  0  0  0
  190.3250  177.0390  143.2600 N   0  0  0  0  0  0  0  0  0  0  0  0
  187.4210  177.9480  141.4150 N   0  0  0  0  0  0  0  0  0  0  0  0
  192.7710  176.0150  147.1440 F   0  0  0  0  0  0  0  0  0  0  0  0
  191.5920  176.3840  146.5910 C   0  0  0  0  0  0  0  0  0  0  0  0
  187.3080  177.8140  143.8370 C   0  0  0  0  0  0  0  0  0  0  0  0
  189.5050  177.4300  141.0080 C   0  0  0  0  0  0  0  0  0  0  0  0
  189.1370  177.1520  145.4330 C   0  0  0  0  0  0  0  0  0  0  0  0
  189.3620  177.3760  142.3830 C   0  0  0  0  0  0  0  0  0  0  0  0
  191.4860  176.5470  145.2120 C   0  0  0  0  0  3  0  0  0  0  0  0
  188.3230  177.7740  140.4580 N   0  0  0  0  0  0  0  0  0  0  0  0
  190.4810  176.5990  147.3960 C   0  0  0  0  0  3  0  0  0  0  0  0
  189.2720  176.9790  146.8190 C   0  0  0  0  0  3  0  0  0  0  0  0
  190.2810  176.9270  144.6070 C   0  0  0  0  0  0  0  0  0  0  0  0
  190.6130  176.4690  138.9930 C   0  0  0  0  0  3  0  0  0  0  0  0
  193.0060  176.6230  138.6690 C   0  0  0  0  0  3  0  0  0  0  0  0
  193.1250  177.3100  139.8810 C   0  0  0  0  0  3  0  0  0  0  0  0
  191.9870  177.5750  140.6470 C   0  0  0  0  0  3  0  0  0  0  0  0
  190.7200  177.1580  140.2110 C   0  0  0  0  0  0  0  0  0  0  0  0
  191.7500  176.2030  138.2250 C   0  0  0  0  0  3  0  0  0  0  0  0
  183.1870  179.0390  144.0410 C   0  0  0  0  0  3  0  0  0  0  0  0
  185.8740  178.2140  143.8900 C   0  0  0  0  0  0  0  0  0  0  0  0
  185.0840  178.3050  142.7300 C   0  0  0  0  0  3  0  0  0  0  0  0
  183.7500  178.7100  142.8050 C   0  0  0  0  0  3  0  0  0  0  0  0
  183.9620  178.9640  145.2010 C   0  0  0  0  0  3  0  0  0  0  0  0
  185.2970  178.5580  145.1230 C   0  0  0  0  0  3  0  0  0  0  0  0
  1  9  1  0  0  0  0
  2  7  1  0  0  0  0
  3 15  1  0  0  0  0
  4  2  2  0  0  0  0
  6  5  1  0  0  0  0
  6 13  1  0  0  0  0
  7 23  1  0  0  0  0
  7  1  2  0  0  0  0
  8 10  1  0  0  0  0
  9 14  1  0  0  0  0
 10  2  1  0  0  0  0
 10  3  2  0  0  0  0
 11  6  2  0  0  0  0
 12  8  2  0  0  0  0
 12  4  1  0  0  0  0
 14 13  2  0  0  0  0
 15 11  1  0  0  0  0
 15  9  2  0  0  0  0
 16 20  1  0  0  0  0
 17 18  2  0  0  0  0
 18 19  1  0  0  0  0
 20 19  2  0  0  0  0
 20  8  1  0  0  0  0
 21 17  1  0  0  0  0
 21 16  2  0  0  0  0
 22 26  1  0  0  0  0
 23 27  1  0  0  0  0
 24 25  1  0  0  0  0
 24 23  2  0  0  0  0
 25 22  2  0  0  0  0
 27 26  2  0  0  0  0
M  END
>  <MODEL>
1

>  <REMARK>
 VINA RESULT:     -11.2      0.000      0.000
  Name = 
  2 active torsions:
  status: ('A' for Active; 'I' for Inactive)
    1  A    between atoms: C_9  and  C_15
    2  A    between atoms: C_14  and  C_17
                            x       y       z     vdW  Elec       q    Type
                         _______ _______ _______ _____ _____    ______ ____

>  <TORSDO>
F 2

$$$$
=
 OpenBabel10262420133D

 27 31  0  0  0  0  0  0  0  0999 V2000
  187.2160  177.9520  144.8330 N   0  0  0  0  0  0  0  0  0  0  0  0
  188.7160  177.7220  142.9540 C   0  0  0  0  0  0  0  0  0  0  0  0
  186.5200  178.3730  141.9010 N   0  0  0  0  0  0  0  0  0  0  0  0
  189.9310  177.4960  142.4120 N   0  0  0  0  0  0  0  0  0  0  0  0
  182.1290  179.4020  143.2340 F   0  0  0  0  0  0  0  0  0  0  0  0
  183.3870  179.0480  143.5900 C   0  0  0  0  0  0  0  0  0  0  0  0
  188.4400  177.6650  144.3200 C   0  0  0  0  0  0  0  0  0  0  0  0
  188.6110  177.9670  140.7340 C   0  0  0  0  0  0  0  0  0  0  0  0
  186.0080  178.3130  144.3260 C   0  0  0  0  0  0  0  0  0  0  0  0
  187.8240  178.0430  141.8700 C   0  0  0  0  0  0  0  0  0  0  0  0
  184.3660  178.8690  142.6160 C   0  0  0  0  0  3  0  0  0  0  0  0
  189.8690  177.6390  141.0950 N   0  0  0  0  0  0  0  0  0  0  0  0
  183.7070  178.8670  144.9290 C   0  0  0  0  0  3  0  0  0  0  0  0
  185.0030  178.5030  145.2860 C   0  0  0  0  0  3  0  0  0  0  0  0
  185.6770  178.5040  142.9500 C   0  0  0  0  0  0  0  0  0  0  0  0
  189.1450  178.6900  138.4100 C   0  0  0  0  0  3  0  0  0  0  0  0
  187.4730  178.6670  136.6610 C   0  0  0  0  0  3  0  0  0  0  0  0
  186.5290  178.1830  137.5710 C   0  0  0  0  0  3  0  0  0  0  0  0
  186.8950  177.9530  138.9000 C   0  0  0  0  0  3  0  0  0  0  0  0
  188.2060  178.2050  139.3330 C   0  0  0  0  0  0  0  0  0  0  0  0
  188.7810  178.9200  137.0810 C   0  0  0  0  0  3  0  0  0  0  0  0
  191.4320  176.5460  147.2030 C   0  0  0  0  0  3  0  0  0  0  0  0
  189.4960  177.2950  145.3030 C   0  0  0  0  0  0  0  0  0  0  0  0
  190.7570  176.8220  144.8960 C   0  0  0  0  0  3  0  0  0  0  0  0
  191.7190  176.4540  145.8390 C   0  0  0  0  0  3  0  0  0  0  0  0
  190.1810  177.0030  147.6230 C   0  0  0  0  0  3  0  0  0  0  0  0
  189.2190  177.3700  146.6770 C   0  0  0  0  0  3  0  0  0  0  0  0
  2  7  2  0  0  0  0
  3 15  2  0  0  0  0
  4  2  1  0  0  0  0
  5  6  1  0  0  0  0
  6 13  1  0  0  0  0
  7  1  1  0  0  0  0
  7 23  1  0  0  0  0
  8 12  1  0  0  0  0
  8 10  2  0  0  0  0
  9  1  2  0  0  0  0
  9 14  1  0  0  0  0
 10  3  1  0  0  0  0
 10  2  1  0  0  0  0
 11 15  1  0  0  0  0
 11  6  2  0  0  0  0
 12  4  2  0  0  0  0
 13 14  2  0  0  0  0
 15  9  1  0  0  0  0
 16 20  1  0  0  0  0
 17 21  1  0  0  0  0
 17 18  2  0  0  0  0
 18 19  1  0  0  0  0
 19 20  2  0  0  0  0
 20  8  1  0  0  0  0
 21 16  2  0  0  0  0
 22 26  1  0  0  0  0
 23 27  1  0  0  0  0
 24 23  2  0  0  0  0
 24 25  1  0  0  0  0
 25 22  2  0  0  0  0
 27 26  2  0  0  0  0
M  END
>  <MODEL>
2

>  <REMARK>
 VINA RESULT:     -10.9      2.930      5.696
  Name = 
  2 active torsions:
  status: ('A' for Active; 'I' for Inactive)
    1  A    between atoms: C_9  and  C_15
    2  A    between atoms: C_14  and  C_17
                            x       y       z     vdW  Elec       q    Type
                         _______ _______ _______ _____ _____    ______ ____

>  <TORSDO>
F 2

$$$$
=
 OpenBabel10262420133D

 27 31  0  0  0  0  0  0  0  0999 V2000
  186.7370  178.2340  140.9150 N   0  0  0  0  0  0  0  0  0  0  0  0
  188.9700  177.5880  141.5730 C   0  0  0  0  0  0  0  0  0  0  0  0
  187.7230  177.7700  143.7560 N   0  0  0  0  0  0  0  0  0  0  0  0
  190.2410  177.2240  141.3010 N   0  0  0  0  0  0  0  0  0  0  0  0
  183.3990  178.8140  145.2800 F   0  0  0  0  0  0  0  0  0  0  0  0
  184.2440  178.6610  144.2330 C   0  0  0  0  0  0  0  0  0  0  0  0
  188.0230  177.9250  140.6060 C   0  0  0  0  0  0  0  0  0  0  0  0
  190.0490  177.1300  143.4760 C   0  0  0  0  0  0  0  0  0  0  0  0
  186.0100  178.3400  142.0570 C   0  0  0  0  0  0  0  0  0  0  0  0
  188.8120  177.5280  143.0030 C   0  0  0  0  0  0  0  0  0  0  0  0
  185.5710  178.2980  144.4530 C   0  0  0  0  0  3  0  0  0  0  0  0
  190.8830  176.9550  142.4300 N   0  0  0  0  0  0  0  0  0  0  0  0
  183.7910  178.8620  142.9350 C   0  0  0  0  0  3  0  0  0  0  0  0
  184.6680  178.7020  141.8660 C   0  0  0  0  0  3  0  0  0  0  0  0
  186.4720  178.1310  143.3930 C   0  0  0  0  0  0  0  0  0  0  0  0
  191.6570  176.2400  145.1600 C   0  0  0  0  0  3  0  0  0  0  0  0
  191.2550  176.4620  147.5360 C   0  0  0  0  0  3  0  0  0  0  0  0
  190.0550  177.1270  147.2690 C   0  0  0  0  0  3  0  0  0  0  0  0
  189.6580  177.3480  145.9480 C   0  0  0  0  0  3  0  0  0  0  0  0
  190.4540  176.9060  144.8800 C   0  0  0  0  0  0  0  0  0  0  0  0
  192.0570  176.0190  146.4800 C   0  0  0  0  0  3  0  0  0  0  0  0
  188.9670  177.9570  136.4070 C   0  0  0  0  0  3  0  0  0  0  0  0
  188.3770  177.9480  139.1590 C   0  0  0  0  0  0  0  0  0  0  0  0
  188.8990  179.0980  138.5400 C   0  0  0  0  0  3  0  0  0  0  0  0
  189.1960  179.1020  137.1750 C   0  0  0  0  0  3  0  0  0  0  0  0
  188.4380  176.8110  137.0050 C   0  0  0  0  0  3  0  0  0  0  0  0
  188.1420  176.8100  138.3710 C   0  0  0  0  0  3  0  0  0  0  0  0
  1  9  1  0  0  0  0
  2 10  1  0  0  0  0
  4  2  2  0  0  0  0
  4 12  1  0  0  0  0
  6 11  1  0  0  0  0
  6  5  1  0  0  0  0
  7  1  2  0  0  0  0
  7  2  1  0  0  0  0
  8 20  1  0  0  0  0
  9 15  1  0  0  0  0
 10  8  1  0  0  0  0
 10  3  2  0  0  0  0
 12  8  2  0  0  0  0
 13  6  2  0  0  0  0
 14  9  2  0  0  0  0
 14 13  1  0  0  0  0
 15  3  1  0  0  0  0
 15 11  2  0  0  0  0
 16 21  1  0  0  0  0
 18 17  1  0  0  0  0
 19 18  2  0  0  0  0
 20 16  2  0  0  0  0
 20 19  1  0  0  0  0
 21 17  2  0  0  0  0
 22 26  2  0  0  0  0
 22 25  1  0  0  0  0
 23  7  1  0  0  0  0
 24 23  1  0  0  0  0
 25 24  2  0  0  0  0
 26 27  1  0  0  0  0
 27 23  2  0  0  0  0
M  END
>  <MODEL>
3

>  <REMARK>
 VINA RESULT:     -10.5      2.676      6.383
  Name = 
  2 active torsions:
  status: ('A' for Active; 'I' for Inactive)
    1  A    between atoms: C_9  and  C_15
    2  A    between atoms: C_14  and  C_17
                            x       y       z     vdW  Elec       q    Type
                         _______ _______ _______ _____ _____    ______ ____

>  <TORSDO>
F 2

$$$$
=
 OpenBabel10262420133D

 27 31  0  0  0  0  0  0  0  0999 V2000
  190.3270  177.0880  143.0500 N   0  0  0  0  0  0  0  0  0  0  0  0
  188.3620  177.3550  144.4290 C   0  0  0  0  0  0  0  0  0  0  0  0
  187.5500  177.8970  142.1050 N   0  0  0  0  0  0  0  0  0  0  0  0
  187.7090  177.2930  145.6090 N   0  0  0  0  0  0  0  0  0  0  0  0
  189.2580  178.1300  137.7290 F   0  0  0  0  0  0  0  0  0  0  0  0
  189.4840  177.8800  139.0410 C   0  0  0  0  0  0  0  0  0  0  0  0
  189.7170  177.0680  144.2620 C   0  0  0  0  0  0  0  0  0  0  0  0
  186.2100  177.8810  144.1300 C   0  0  0  0  0  0  0  0  0  0  0  0
  189.9480  177.3610  141.7740 C   0  0  0  0  0  0  0  0  0  0  0  0
  187.3940  177.7330  143.4310 C   0  0  0  0  0  0  0  0  0  0  0  0
  188.4480  178.0000  139.9640 C   0  0  0  0  0  3  0  0  0  0  0  0
  186.4320  177.6090  145.4320 N   0  0  0  0  0  0  0  0  0  0  0  0
  190.7490  177.5010  139.4710 C   0  0  0  0  0  3  0  0  0  0  0  0
  190.9720  177.2460  140.8220 C   0  0  0  0  0  3  0  0  0  0  0  0
  188.6470  177.7490  141.3290 C   0  0  0  0  0  0  0  0  0  0  0  0
  183.8630  178.6430  144.4810 C   0  0  0  0  0  3  0  0  0  0  0  0
  182.3530  178.9920  142.6220 C   0  0  0  0  0  3  0  0  0  0  0  0
  183.3640  178.6140  141.7320 C   0  0  0  0  0  3  0  0  0  0  0  0
  184.6220  178.2520  142.2190 C   0  0  0  0  0  3  0  0  0  0  0  0
  184.8840  178.2620  143.5970 C   0  0  0  0  0  0  0  0  0  0  0  0
  182.6040  179.0070  143.9960 C   0  0  0  0  0  3  0  0  0  0  0  0
  192.1180  176.0040  147.6720 C   0  0  0  0  0  3  0  0  0  0  0  0
  190.5740  176.7060  145.4260 C   0  0  0  0  0  0  0  0  0  0  0  0
  191.6610  175.8230  145.3030 C   0  0  0  0  0  3  0  0  0  0  0  0
  192.4300  175.4770  146.4160 C   0  0  0  0  0  3  0  0  0  0  0  0
  191.0340  176.8740  147.8130 C   0  0  0  0  0  3  0  0  0  0  0  0
  190.2650  177.2180  146.6970 C   0  0  0  0  0  3  0  0  0  0  0  0
  1  7  1  0  0  0  0
  2  4  1  0  0  0  0
  3 10  1  0  0  0  0
  5  6  1  0  0  0  0
  6 13  1  0  0  0  0
  6 11  2  0  0  0  0
  7  2  2  0  0  0  0
  7 23  1  0  0  0  0
  8 12  1  0  0  0  0
  9  1  2  0  0  0  0
 10  8  2  0  0  0  0
 10  2  1  0  0  0  0
 11 15  1  0  0  0  0
 12  4  2  0  0  0  0
 13 14  2  0  0  0  0
 14  9  1  0  0  0  0
 15  9  1  0  0  0  0
 15  3  2  0  0  0  0
 17 21  2  0  0  0  0
 18 19  2  0  0  0  0
 18 17  1  0  0  0  0
 19 20  1  0  0  0  0
 20  8  1  0  0  0  0
 20 16  2  0  0  0  0
 21 16  1  0  0  0  0
 22 26  1  0  0  0  0
 23 27  1  0  0  0  0
 24 23  2  0  0  0  0
 24 25  1  0  0  0  0
 25 22  2  0  0  0  0
 27 26  2  0  0  0  0
M  END
>  <MODEL>
4

>  <REMARK>
 VINA RESULT:     -10.3      2.300      7.095
  Name = 
  2 active torsions:
  status: ('A' for Active; 'I' for Inactive)
    1  A    between atoms: C_9  and  C_15
    2  A    between atoms: C_14  and  C_17
                            x       y       z     vdW  Elec       q    Type
                         _______ _______ _______ _____ _____    ______ ____

>  <TORSDO>
F 2

$$$$
=
 OpenBabel10262420133D

 27 31  0  0  0  0  0  0  0  0999 V2000
  190.5920  177.1020  143.1450 N   0  0  0  0  0  0  0  0  0  0  0  0
  188.7040  177.6650  141.7470 C   0  0  0  0  0  0  0  0  0  0  0  0
  187.7740  177.7570  144.0880 N   0  0  0  0  0  0  0  0  0  0  0  0
  188.1350  177.9250  140.5510 N   0  0  0  0  0  0  0  0  0  0  0  0
  189.2520  177.1230  148.5060 F   0  0  0  0  0  0  0  0  0  0  0  0
  189.5450  177.1290  147.1840 C   0  0  0  0  0  0  0  0  0  0  0  0
  190.0400  177.3020  141.9210 C   0  0  0  0  0  0  0  0  0  0  0  0
  186.5600  178.2250  142.0370 C   0  0  0  0  0  0  0  0  0  0  0  0
  190.1510  177.1430  144.4300 C   0  0  0  0  0  0  0  0  0  0  0  0
  187.6890  177.8630  142.7490 C   0  0  0  0  0  0  0  0  0  0  0  0
  188.5570  177.4270  146.2500 C   0  0  0  0  0  3  0  0  0  0  0  0
  186.8610  178.2540  140.7230 N   0  0  0  0  0  0  0  0  0  0  0  0
  190.8350  176.8400  146.7550 C   0  0  0  0  0  3  0  0  0  0  0  0
  191.1270  176.8480  145.3940 C   0  0  0  0  0  3  0  0  0  0  0  0
  188.8270  177.4430  144.8750 C   0  0  0  0  0  0  0  0  0  0  0  0
  184.0840  178.3280  141.7720 C   0  0  0  0  0  3  0  0  0  0  0  0
  182.6540  179.1540  143.5420 C   0  0  0  0  0  3  0  0  0  0  0  0
  183.7780  179.3780  144.3430 C   0  0  0  0  0  3  0  0  0  0  0  0
  185.0520  179.0770  143.8570 C   0  0  0  0  0  3  0  0  0  0  0  0
  185.2180  178.5490  142.5670 C   0  0  0  0  0  0  0  0  0  0  0  0
  182.8080  178.6280  142.2560 C   0  0  0  0  0  3  0  0  0  0  0  0
  192.7210  176.7580  138.5990 C   0  0  0  0  0  3  0  0  0  0  0  0
  190.9470  177.1260  140.7520 C   0  0  0  0  0  0  0  0  0  0  0  0
  190.5060  176.5470  139.5500 C   0  0  0  0  0  3  0  0  0  0  0  0
  191.3850  176.3670  138.4790 C   0  0  0  0  0  3  0  0  0  0  0  0
  193.1770  177.3250  139.7920 C   0  0  0  0  0  3  0  0  0  0  0  0
  192.2960  177.5030  140.8610 C   0  0  0  0  0  3  0  0  0  0  0  0
  1  9  1  0  0  0  0
  2  7  1  0  0  0  0
  2 10  1  0  0  0  0
  3 15  1  0  0  0  0
  4 12  1  0  0  0  0
  4  2  2  0  0  0  0
  6  5  1  0  0  0  0
  7  1  2  0  0  0  0
  8 20  1  0  0  0  0
  8 10  1  0  0  0  0
  9 15  2  0  0  0  0
  9 14  1  0  0  0  0
 10  3  2  0  0  0  0
 11  6  2  0  0  0  0
 12  8  2  0  0  0  0
 13  6  1  0  0  0  0
 14 13  2  0  0  0  0
 15 11  1  0  0  0  0
 16 21  2  0  0  0  0
 16 20  1  0  0  0  0
 17 18  2  0  0  0  0
 19 18  1  0  0  0  0
 20 19  2  0  0  0  0
 21 17  1  0  0  0  0
 22 26  1  0  0  0  0
 23 27  1  0  0  0  0
 23  7  1  0  0  0  0
 24 23  2  0  0  0  0
 25 22  2  0  0  0  0
 25 24  1  0  0  0  0
 26 27  2  0  0  0  0
M  END
>  <MODEL>
5

>  <REMARK>
 VINA RESULT:     -10.2      1.068      6.284
  Name = 
  2 active torsions:
  status: ('A' for Active; 'I' for Inactive)
    1  A    between atoms: C_9  and  C_15
    2  A    between atoms: C_14  and  C_17
                            x       y       z     vdW  Elec       q    Type
                         _______ _______ _______ _____ _____    ______ ____

>  <TORSDO>
F 2

$$$$
=
 OpenBabel10262420133D

 27 31  0  0  0  0  0  0  0  0999 V2000
  185.9480  178.1570  144.5790 N   0  0  0  0  0  0  0  0  0  0  0  0
  187.7950  177.9250  143.0390 C   0  0  0  0  0  0  0  0  0  0  0  0
  185.8270  178.4420  141.5510 N   0  0  0  0  0  0  0  0  0  0  0  0
  189.1010  177.7330  142.7550 N   0  0  0  0  0  0  0  0  0  0  0  0
  181.2260  179.3260  141.9570 F   0  0  0  0  0  0  0  0  0  0  0  0
  182.4010  179.0410  142.5660 C   0  0  0  0  0  0  0  0  0  0  0  0
  187.2580  177.9060  144.3270 C   0  0  0  0  0  0  0  0  0  0  0  0
  188.1190  178.0850  140.8330 C   0  0  0  0  0  0  0  0  0  0  0  0
  184.8510  178.4470  143.8310 C   0  0  0  0  0  0  0  0  0  0  0  0
  187.1230  178.1680  141.7890 C   0  0  0  0  0  0  0  0  0  0  0  0
  183.5580  178.8690  141.8100 C   0  0  0  0  0  3  0  0  0  0  0  0
  189.2930  177.8250  141.4450 N   0  0  0  0  0  0  0  0  0  0  0  0
  182.4580  178.9220  143.9490 C   0  0  0  0  0  3  0  0  0  0  0  0
  183.6710  178.6280  144.5670 C   0  0  0  0  0  3  0  0  0  0  0  0
  184.7900  178.5730  142.4090 C   0  0  0  0  0  0  0  0  0  0  0  0
  189.1120  178.6130  138.6090 C   0  0  0  0  0  3  0  0  0  0  0  0
  187.7800  178.5830  136.5890 C   0  0  0  0  0  3  0  0  0  0  0  0
  186.6550  178.2260  137.3370 C   0  0  0  0  0  3  0  0  0  0  0  0
  186.7600  178.0620  138.7200 C   0  0  0  0  0  3  0  0  0  0  0  0
  187.9890  178.2540  139.3700 C   0  0  0  0  0  0  0  0  0  0  0  0
  189.0090  178.7760  137.2250 C   0  0  0  0  0  3  0  0  0  0  0  0
  189.7920  177.1320  147.7180 C   0  0  0  0  0  3  0  0  0  0  0  0
  188.1140  177.6180  145.5110 C   0  0  0  0  0  0  0  0  0  0  0  0
  187.6010  177.6310  146.8210 C   0  0  0  0  0  3  0  0  0  0  0  0
  188.4320  177.3860  147.9160 C   0  0  0  0  0  3  0  0  0  0  0  0
  190.3190  177.1260  146.4250 C   0  0  0  0  0  3  0  0  0  0  0  0
  189.4850  177.3720  145.3300 C   0  0  0  0  0  3  0  0  0  0  0  0
  2  7  2  0  0  0  0
  3 10  1  0  0  0  0
  3 15  2  0  0  0  0
  4  2  1  0  0  0  0
  5  6  1  0  0  0  0
  6 13  1  0  0  0  0
  7  1  1  0  0  0  0
  7 23  1  0  0  0  0
  8 12  1  0  0  0  0
  8 10  2  0  0  0  0
  9 14  1  0  0  0  0
  9  1  2  0  0  0  0
 10  2  1  0  0  0  0
 11 15  1  0  0  0  0
 11  6  2  0  0  0  0
 12  4  2  0  0  0  0
 13 14  2  0  0  0  0
 15  9  1  0  0  0  0
 16 20  1  0  0  0  0
 17 21  1  0  0  0  0
 17 18  2  0  0  0  0
 18 19  1  0  0  0  0
 19 20  2  0  0  0  0
 20  8  1  0  0  0  0
 21 16  2  0  0  0  0
 22 25  1  0  0  0  0
 23 24  1  0  0  0  0
 24 25  2  0  0  0  0
 26 22  2  0  0  0  0
 27 23  2  0  0  0  0
 27 26  1  0  0  0  0
M  END
>  <MODEL>
6

>  <REMARK>
 VINA RESULT:     -10.1      3.233      5.896
  Name = 
  2 active torsions:
  status: ('A' for Active; 'I' for Inactive)
    1  A    between atoms: C_9  and  C_15
    2  A    between atoms: C_14  and  C_17
                            x       y       z     vdW  Elec       q    Type
                         _______ _______ _______ _____ _____    ______ ____

>  <TORSDO>
F 2

$$$$
=
 OpenBabel10262420133D

 27 31  0  0  0  0  0  0  0  0999 V2000
  186.2350  178.4880  139.2530 N   0  0  0  0  0  0  0  0  0  0  0  0
  184.9860  178.6330  141.3150 C   0  0  0  0  0  0  0  0  0  0  0  0
  187.3420  178.1440  142.0670 N   0  0  0  0  0  0  0  0  0  0  0  0
  183.8560  178.8590  142.0180 N   0  0  0  0  0  0  0  0  0  0  0  0
  191.5810  177.4250  140.1620 F   0  0  0  0  0  0  0  0  0  0  0  0
  190.2660  177.6870  139.9770 C   0  0  0  0  0  0  0  0  0  0  0  0
  185.0690  178.6680  139.9230 C   0  0  0  0  0  0  0  0  0  0  0  0
  185.4140  178.4820  143.5040 C   0  0  0  0  0  0  0  0  0  0  0  0
  187.5250  178.2320  139.5960 C   0  0  0  0  0  0  0  0  0  0  0  0
  186.0350  178.3890  142.2720 C   0  0  0  0  0  0  0  0  0  0  0  0
  189.4120  177.7920  141.0720 C   0  0  0  0  0  3  0  0  0  0  0  0
  184.1090  178.7670  143.3170 N   0  0  0  0  0  0  0  0  0  0  0  0
  189.7630  177.8550  138.6930 C   0  0  0  0  0  3  0  0  0  0  0  0
  188.4080  178.1230  138.5120 C   0  0  0  0  0  3  0  0  0  0  0  0
  188.0460  178.0620  140.9150 C   0  0  0  0  0  0  0  0  0  0  0  0
  185.4030  178.8910  145.9630 C   0  0  0  0  0  3  0  0  0  0  0  0
  187.1520  178.0310  147.3970 C   0  0  0  0  0  3  0  0  0  0  0  0
  187.7790  177.4580  146.2870 C   0  0  0  0  0  3  0  0  0  0  0  0
  187.2170  177.6020  145.0160 C   0  0  0  0  0  3  0  0  0  0  0  0
  186.0240  178.3200  144.8410 C   0  0  0  0  0  0  0  0  0  0  0  0
  185.9640  178.7470  147.2350 C   0  0  0  0  0  3  0  0  0  0  0  0
  181.5420  179.3290  137.5470 C   0  0  0  0  0  3  0  0  0  0  0  0
  183.8610  178.9220  139.0890 C   0  0  0  0  0  0  0  0  0  0  0  0
  183.2450  180.1850  139.0380 C   0  0  0  0  0  3  0  0  0  0  0  0
  182.0960  180.3890  138.2690 C   0  0  0  0  0  3  0  0  0  0  0  0
  182.1360  178.0660  137.5960 C   0  0  0  0  0  3  0  0  0  0  0  0
  183.2850  177.8650  138.3660 C   0  0  0  0  0  3  0  0  0  0  0  0
  1  9  2  0  0  0  0
  1  7  1  0  0  0  0
  2  4  1  0  0  0  0
  2 10  1  0  0  0  0
  3 10  1  0  0  0  0
  4 12  2  0  0  0  0
  6  5  1  0  0  0  0
  6 11  2  0  0  0  0
  7  2  2  0  0  0  0
  8 20  1  0  0  0  0
  9 15  1  0  0  0  0
 10  8  2  0  0  0  0
 12  8  1  0  0  0  0
 13  6  1  0  0  0  0
 14 13  2  0  0  0  0
 14  9  1  0  0  0  0
 15 11  1  0  0  0  0
 15  3  2  0  0  0  0
 16 21  1  0  0  0  0
 18 17  1  0  0  0  0
 19 18  2  0  0  0  0
 20 19  1  0  0  0  0
 20 16  2  0  0  0  0
 21 17  2  0  0  0  0
 22 26  2  0  0  0  0
 22 25  1  0  0  0  0
 23  7  1  0  0  0  0
 24 23  1  0  0  0  0
 25 24  2  0  0  0  0
 26 27  1  0  0  0  0
 27 23  2  0  0  0  0
M  END
>  <MODEL>
7

>  <REMARK>
 VINA RESULT:     -10.0      3.202      6.639
  Name = 
  2 active torsions:
  status: ('A' for Active; 'I' for Inactive)
    1  A    between atoms: C_9  and  C_15
    2  A    between atoms: C_14  and  C_17
                            x       y       z     vdW  Elec       q    Type
                         _______ _______ _______ _____ _____    ______ ____

>  <TORSDO>
F 2

$$$$
=
 OpenBabel10262420133D

 27 31  0  0  0  0  0  0  0  0999 V2000
  186.6700  177.8730  144.7890 N   0  0  0  0  0  0  0  0  0  0  0  0
  187.1310  177.9620  142.4190 C   0  0  0  0  0  0  0  0  0  0  0  0
  189.3740  177.4640  143.4550 N   0  0  0  0  0  0  0  0  0  0  0  0
  186.7530  178.0870  141.1290 N   0  0  0  0  0  0  0  0  0  0  0  0
  191.2240  176.7910  147.7260 F   0  0  0  0  0  0  0  0  0  0  0  0
  190.1280  177.0530  146.9740 C   0  0  0  0  0  0  0  0  0  0  0  0
  186.2630  178.0590  143.5070 C   0  0  0  0  0  0  0  0  0  0  0  0
  188.9030  177.6940  141.0840 C   0  0  0  0  0  0  0  0  0  0  0  0
  187.8490  177.5970  145.4050 C   0  0  0  0  0  0  0  0  0  0  0  0
  188.5460  177.6930  142.4200 C   0  0  0  0  0  0  0  0  0  0  0  0
  190.2350  177.1440  145.5890 C   0  0  0  0  0  3  0  0  0  0  0  0
  187.8050  177.9310  140.3370 N   0  0  0  0  0  0  0  0  0  0  0  0
  188.8920  177.2290  147.5830 C   0  0  0  0  0  3  0  0  0  0  0  0
  187.7710  177.4980  146.8020 C   0  0  0  0  0  3  0  0  0  0  0  0
  189.1210  177.4130  144.7820 C   0  0  0  0  0  0  0  0  0  0  0  0
  191.3880  177.7140  141.2780 C   0  0  0  0  0  3  0  0  0  0  0  0
  192.8070  177.0490  139.4350 C   0  0  0  0  0  3  0  0  0  0  0  0
  191.6750  176.8000  138.6540 C   0  0  0  0  0  3  0  0  0  0  0  0
  190.4010  177.0090  139.1870 C   0  0  0  0  0  3  0  0  0  0  0  0
  190.2440  177.4680  140.5040 C   0  0  0  0  0  0  0  0  0  0  0  0
  192.6630  177.5050  140.7480 C   0  0  0  0  0  3  0  0  0  0  0  0
  182.0970  179.0100  142.9910 C   0  0  0  0  0  3  0  0  0  0  0  0
  184.8170  178.3620  143.3120 C   0  0  0  0  0  0  0  0  0  0  0  0
  184.2110  178.3080  142.0440 C   0  0  0  0  0  3  0  0  0  0  0  0
  182.8600  178.6260  141.8850 C   0  0  0  0  0  3  0  0  0  0  0  0
  182.6880  179.0790  144.2550 C   0  0  0  0  0  3  0  0  0  0  0  0
  184.0400  178.7610  144.4110 C   0  0  0  0  0  3  0  0  0  0  0  0
  1  9  1  0  0  0  0
  2 10  1  0  0  0  0
  2  7  1  0  0  0  0
  3 15  1  0  0  0  0
  4  2  2  0  0  0  0
  6 13  1  0  0  0  0
  6  5  1  0  0  0  0
  7  1  2  0  0  0  0
  8 10  1  0  0  0  0
  9 14  1  0  0  0  0
 10  3  2  0  0  0  0
 11  6  2  0  0  0  0
 12  8  2  0  0  0  0
 12  4  1  0  0  0  0
 14 13  2  0  0  0  0
 15  9  2  0  0  0  0
 15 11  1  0  0  0  0
 17 21  2  0  0  0  0
 18 19  2  0  0  0  0
 18 17  1  0  0  0  0
 19 20  1  0  0  0  0
 20  8  1  0  0  0  0
 20 16  2  0  0  0  0
 21 16  1  0  0  0  0
 22 26  1  0  0  0  0
 23  7  1  0  0  0  0
 23 27  1  0  0  0  0
 24 23  2  0  0  0  0
 25 24  1  0  0  0  0
 25 22  2  0  0  0  0
 26 27  2  0  0  0  0
M  END
>  <MODEL>
8

>  <REMARK>
 VINA RESULT:      -9.8      0.969      1.511
  Name = 
  2 active torsions:
  status: ('A' for Active; 'I' for Inactive)
    1  A    between atoms: C_9  and  C_15
    2  A    between atoms: C_14  and  C_17
                            x       y       z     vdW  Elec       q    Type
                         _______ _______ _______ _____ _____    ______ ____

>  <TORSDO>
F 2

$$$$
=
 OpenBabel10262420133D

 27 31  0  0  0  0  0  0  0  0999 V2000
  186.2030  178.2940  141.2500 N   0  0  0  0  0  0  0  0  0  0  0  0
  186.4350  177.9610  143.6320 C   0  0  0  0  0  0  0  0  0  0  0  0
  188.7530  177.5450  142.7330 N   0  0  0  0  0  0  0  0  0  0  0  0
  185.9560  177.9610  144.8940 N   0  0  0  0  0  0  0  0  0  0  0  0
  190.9920  177.5400  138.5970 F   0  0  0  0  0  0  0  0  0  0  0  0
  189.8360  177.7190  139.2800 C   0  0  0  0  0  0  0  0  0  0  0  0
  185.6730  178.2520  142.4990 C   0  0  0  0  0  0  0  0  0  0  0  0
  188.0760  177.4570  145.0630 C   0  0  0  0  0  0  0  0  0  0  0  0
  187.4320  178.0910  140.7070 C   0  0  0  0  0  0  0  0  0  0  0  0
  187.8360  177.6390  143.7130 C   0  0  0  0  0  0  0  0  0  0  0  0
  189.8070  177.5540  140.6620 C   0  0  0  0  0  3  0  0  0  0  0  0
  186.9290  177.6600  145.7430 N   0  0  0  0  0  0  0  0  0  0  0  0
  188.6750  178.0710  138.6040 C   0  0  0  0  0  3  0  0  0  0  0  0
  187.4910  178.2530  139.3150 C   0  0  0  0  0  3  0  0  0  0  0  0
  188.6290  177.7310  141.4000 C   0  0  0  0  0  0  0  0  0  0  0  0
  190.4630  176.7530  144.9360 C   0  0  0  0  0  3  0  0  0  0  0  0
  191.8000  176.4430  146.9290 C   0  0  0  0  0  3  0  0  0  0  0  0
  190.7030  176.7970  147.7190 C   0  0  0  0  0  3  0  0  0  0  0  0
  189.4870  177.1280  147.1160 C   0  0  0  0  0  3  0  0  0  0  0  0
  189.3550  177.1090  145.7190 C   0  0  0  0  0  0  0  0  0  0  0  0
  191.6810  176.4220  145.5370 C   0  0  0  0  0  3  0  0  0  0  0  0
  181.4500  179.0330  142.7730 C   0  0  0  0  0  3  0  0  0  0  0  0
  184.2180  178.5490  142.6090 C   0  0  0  0  0  0  0  0  0  0  0  0
  183.6280  178.9450  143.8220 C   0  0  0  0  0  3  0  0  0  0  0  0
  182.2560  179.1890  143.9040 C   0  0  0  0  0  3  0  0  0  0  0  0
  182.0180  178.6280  141.5630 C   0  0  0  0  0  3  0  0  0  0  0  0
  183.3920  178.3840  141.4840 C   0  0  0  0  0  3  0  0  0  0  0  0
  1  7  1  0  0  0  0
  2 10  1  0  0  0  0
  2  4  1  0  0  0  0
  3 10  1  0  0  0  0
  4 12  2  0  0  0  0
  5  6  1  0  0  0  0
  6 11  2  0  0  0  0
  7 23  1  0  0  0  0
  7  2  2  0  0  0  0
  8 20  1  0  0  0  0
  8 12  1  0  0  0  0
  9  1  2  0  0  0  0
  9 15  1  0  0  0  0
 10  8  2  0  0  0  0
 11 15  1  0  0  0  0
 13  6  1  0  0  0  0
 13 14  2  0  0  0  0
 14  9  1  0  0  0  0
 15  3  2  0  0  0  0
 16 21  2  0  0  0  0
 16 20  1  0  0  0  0
 17 18  2  0  0  0  0
 19 18  1  0  0  0  0
 20 19  2  0  0  0  0
 21 17  1  0  0  0  0
 22 25  1  0  0  0  0
 23 24  1  0  0  0  0
 24 25  2  0  0  0  0
 26 22  2  0  0  0  0
 27 26  1  0  0  0  0
 27 23  2  0  0  0  0
M  END
>  <MODEL>
9

>  <REMARK>
 VINA RESULT:      -9.8      2.276      5.436
  Name = 
  2 active torsions:
  status: ('A' for Active; 'I' for Inactive)
    1  A    between atoms: C_9  and  C_15
    2  A    between atoms: C_14  and  C_17
                            x       y       z     vdW  Elec       q    Type
                         _______ _______ _______ _____ _____    ______ ____

>  <TORSDO>
F 2

$$$$
