=
 OpenBabel10262423023D

 37 40  0  0  1  0  0  0  0  0999 V2000
  181.2990  178.0710  138.3090 C   0  0  0  0  0  2  0  0  0  0  0  0
  185.2250  176.5040  136.1690 C   0  0  1  0  0  3  0  0  0  0  0  0
  181.0390  177.7470  139.7850 C   0  0  1  0  0  3  0  0  0  0  0  0
  185.7440  178.6540  139.3670 C   0  0  0  0  0  2  0  0  0  0  0  0
  184.9290  177.5770  137.1910 C   0  0  2  0  0  3  0  0  0  0  0  0
  183.8760  175.9020  135.7960 C   0  0  1  0  0  3  0  0  0  0  0  0
  186.1040  177.7880  138.1550 C   0  0  1  0  0  3  0  0  0  0  0  0
  181.4310  178.8240  140.6100 O   0  0  0  0  0  0  0  0  0  0  0  0
  183.0480  176.0190  137.0720 C   0  0  2  0  0  3  0  0  0  0  0  0
  186.9310  177.9630  134.9650 C   0  0  0  0  0  3  0  0  0  0  0  0
  182.8380  178.9610  140.5610 C   0  0  2  0  0  3  0  0  0  0  0  0
  184.7660  179.7880  139.0450 C   0  0  0  0  0  2  0  0  0  0  0  0
  186.0640  176.9370  134.9890 C   0  0  0  0  0  3  0  0  0  0  0  0
  183.6690  177.1410  137.9230 C   0  0  2  0  0  3  0  0  0  0  0  0
  187.3660  178.3420  137.4720 C   0  0  2  0  0  3  0  0  0  0  0  0
  183.2910  179.3590  139.1450 C   0  0  1  0  0  3  0  0  0  0  0  0
  182.7800  178.3870  138.0620 C   0  0  2  0  0  3  0  0  0  0  0  0
  187.1590  178.9550  136.0760 C   0  0  0  0  0  2  0  0  0  0  0  0
  188.2930  176.1310  137.7900 O   0  0  0  0  0  1  0  0  0  0  0  0
  188.6410  177.4850  137.6710 C   0  0  2  0  0  0  0  0  0  0  0  0
  189.6760  176.7910  139.7280 O   0  0  0  0  0  1  0  0  0  0  0  0
  189.3520  177.9070  138.9550 C   0  0  0  0  0  2  0  0  0  0  0  0
  189.5430  177.6740  136.5940 O   0  0  0  0  0  0  0  0  0  0  0  0
  191.4310  176.4140  136.7600 F   0  0  0  0  0  0  0  0  0  0  0  0
  190.1430  176.4480  136.2610 C   0  0  0  0  0  2  0  0  0  0  0  0
  183.4760  177.7980  141.0170 O   0  0  0  0  0  0  0  0  0  0  0  0
  183.9560  178.1290  142.2850 C   0  0  0  0  0  1  0  0  0  0  0  0
  179.0430  178.3210  141.0680 N   0  0  0  0  0  1  0  0  0  0  0  0
  179.5590  177.4800  140.0020 C   0  0  0  0  0  2  0  0  0  0  0  0
  182.9990  174.6710  137.8120 C   0  0  2  0  0  3  0  0  0  0  0  0
  184.2450  173.8610  137.5270 C   0  0  0  0  0  1  0  0  0  0  0  0
  181.7650  173.8270  137.4940 C   0  0  0  0  0  2  0  0  0  0  0  0
  180.5210  174.3810  138.1720 C   0  0  0  0  0  2  0  0  0  0  0  0
  179.4430  174.6720  137.1450 C   0  0  0  0  0  1  0  0  0  0  0  0
  183.1800  176.6820  134.6810 C   0  0  0  0  0  2  0  0  0  0  0  0
  181.6780  176.6770  134.8910 C   0  0  0  0  0  2  0  0  0  0  0  0
  181.1250  178.0550  134.5940 C   0  0  0  0  0  1  0  0  0  0  0  0
  1  3  1  0  0  0  0
  2 13  1  6  0  0  0
  2  5  1  0  0  0  0
  3 29  1  6  0  0  0
  3  8  1  0  0  0  0
  5 14  1  0  0  0  0
  5  7  1  0  0  0  0
  6  2  1  0  0  0  0
  6  9  1  0  0  0  0
  7  4  1  0  0  0  0
  9 30  1  0  0  0  0
  9 14  1  0  0  0  0
 10 13  2  0  0  0  0
 10 18  1  0  0  0  0
 11  8  1  0  0  0  0
 11 26  1  0  0  0  0
 12 16  1  0  0  0  0
 12  4  1  0  0  0  0
 14 17  1  0  0  0  0
 15 20  1  0  0  0  0
 15  7  1  0  0  0  0
 16 11  1  0  0  0  0
 17  1  1  0  0  0  0
 17 16  1  0  0  0  0
 18 15  1  0  0  0  0
 20 19  1  0  0  0  0
 20 22  1  0  0  0  0
 22 21  1  0  0  0  0
 23 20  1  0  0  0  0
 25 23  1  0  0  0  0
 25 24  1  0  0  0  0
 26 27  1  0  0  0  0
 29 28  1  0  0  0  0
 31 30  1  0  0  0  0
 32 30  1  0  0  0  0
 32 33  1  0  0  0  0
 34 33  1  0  0  0  0
 35 36  1  0  0  0  0
 35  6  1  0  0  0  0
 37 36  1  0  0  0  0
M  END
>  <MODEL>
1

>  <REMARK>
 VINA RESULT:      -4.2      0.000      0.000
  Name = 
  11 active torsions:
  status: ('A' for Active; 'I' for Inactive)
    1  A    between atoms: C_3  and  C_32
    2  A    between atoms: C_5  and  C_23
    3  A    between atoms: C_8  and  O_18
    4  A    between atoms: C_8  and  C_19
    5  A    between atoms: C_8  and  C_31
    6  A    between atoms: C_9  and  C_13
    7  A    between atoms: C_9  and  C_16
    8  A    between atoms: O_11  and  C_26
    9  A    between atoms: O_18  and  C_35
   10  A    between atoms: C_20  and  C_21
   11  A    between atoms: C_21  and  C_32
                            x       y       z     vdW  Elec       q    Type
                         _______ _______ _______ _____ _____    ______ ____

>  <TORSDO>
F 11

$$$$
=
 OpenBabel10262423023D

 37 40  0  0  1  0  0  0  0  0999 V2000
  181.2100  174.5750  135.8730 C   0  0  0  0  0  2  0  0  0  0  0  0
  184.6540  176.9360  138.1120 C   0  0  1  0  0  3  0  0  0  0  0  0
  180.4750  173.4270  136.5740 C   0  0  1  0  0  3  0  0  0  0  0  0
  181.1930  176.8460  139.8800 C   0  0  0  0  0  2  0  0  0  0  0  0
  183.1480  176.8930  138.2280 C   0  0  2  0  0  3  0  0  0  0  0  0
  185.0090  176.0080  136.9570 C   0  0  1  0  0  3  0  0  0  0  0  0
  182.6780  177.1580  139.6640 C   0  0  1  0  0  3  0  0  0  0  0  0
  179.2540  173.8760  137.1240 O   0  0  0  0  0  0  0  0  0  0  0  0
  183.9320  174.9290  136.9990 C   0  0  2  0  0  3  0  0  0  0  0  0
  184.7220  179.4570  138.4710 C   0  0  0  0  0  3  0  0  0  0  0  0
  179.5220  174.7730  138.1840 C   0  0  2  0  0  3  0  0  0  0  0  0
  180.3090  177.1890  138.6770 C   0  0  0  0  0  2  0  0  0  0  0  0
  185.2640  178.3150  138.0160 C   0  0  0  0  0  3  0  0  0  0  0  0
  182.7170  175.5200  137.7360 C   0  0  2  0  0  3  0  0  0  0  0  0
  182.9910  178.5800  140.1590 C   0  0  2  0  0  3  0  0  0  0  0  0
  180.2110  176.0430  137.6550 C   0  0  1  0  0  3  0  0  0  0  0  0
  181.4850  175.7330  136.8410 C   0  0  2  0  0  3  0  0  0  0  0  0
  183.3480  179.6070  139.0700 C   0  0  0  0  0  2  0  0  0  0  0  0
  184.3300  177.3740  141.7720 O   0  0  0  0  0  1  0  0  0  0  0  0
  183.8160  178.6440  141.4690 C   0  0  2  0  0  0  0  0  0  0  0  0
  183.4080  178.5990  143.8400 O   0  0  0  0  0  1  0  0  0  0  0  0
  182.9170  179.0800  142.6240 C   0  0  0  0  0  2  0  0  0  0  0  0
  184.8640  179.5900  141.3540 O   0  0  0  0  0  0  0  0  0  0  0  0
  186.9240  178.7940  140.8040 F   0  0  0  0  0  0  0  0  0  0  0  0
  186.0560  179.0360  141.8510 C   0  0  0  0  0  2  0  0  0  0  0  0
  180.2620  174.1500  139.1990 O   0  0  0  0  0  0  0  0  0  0  0  0
  179.3200  173.8120  140.1720 C   0  0  0  0  0  1  0  0  0  0  0  0
  179.3480  171.2970  136.1880 N   0  0  0  0  0  1  0  0  0  0  0  0
  180.1830  172.3160  135.5790 C   0  0  0  0  0  2  0  0  0  0  0  0
  184.4690  173.6520  137.6700 C   0  0  2  0  0  3  0  0  0  0  0  0
  185.9640  173.5320  137.4680 C   0  0  0  0  0  1  0  0  0  0  0  0
  183.7910  172.3650  137.1990 C   0  0  0  0  0  2  0  0  0  0  0  0
  184.5970  171.6790  136.1070 C   0  0  0  0  0  2  0  0  0  0  0  0
  183.9280  170.3840  135.6880 C   0  0  0  0  0  1  0  0  0  0  0  0
  184.9500  176.7150  135.6040 C   0  0  0  0  0  2  0  0  0  0  0  0
  186.2190  176.4550  134.8160 C   0  0  0  0  0  2  0  0  0  0  0  0
  187.1370  177.6540  134.9310 C   0  0  0  0  0  1  0  0  0  0  0  0
  1  3  1  0  0  0  0
  1 17  1  0  0  0  0
  2 13  1  6  0  0  0
  2  5  1  0  0  0  0
  3 29  1  6  0  0  0
  3  8  1  0  0  0  0
  5  7  1  0  0  0  0
  6  9  1  0  0  0  0
  6  2  1  0  0  0  0
  7  4  1  0  0  0  0
  7 15  1  0  0  0  0
  8 11  1  0  0  0  0
  9 30  1  0  0  0  0
  9 14  1  0  0  0  0
 10 18  1  0  0  0  0
 11 26  1  0  0  0  0
 12  4  1  0  0  0  0
 13 10  2  0  0  0  0
 14  5  1  0  0  0  0
 15 20  1  0  0  0  0
 16 11  1  0  0  0  0
 16 12  1  0  0  0  0
 17 16  1  0  0  0  0
 17 14  1  0  0  0  0
 18 15  1  0  0  0  0
 20 19  1  0  0  0  0
 20 22  1  0  0  0  0
 22 21  1  0  0  0  0
 23 20  1  0  0  0  0
 23 25  1  0  0  0  0
 24 25  1  0  0  0  0
 26 27  1  0  0  0  0
 29 28  1  0  0  0  0
 31 30  1  0  0  0  0
 32 30  1  0  0  0  0
 33 32  1  0  0  0  0
 34 33  1  0  0  0  0
 35  6  1  0  0  0  0
 36 37  1  0  0  0  0
 36 35  1  0  0  0  0
M  END
>  <MODEL>
2

>  <REMARK>
 VINA RESULT:      -4.2      3.003      5.165
  Name = 
  11 active torsions:
  status: ('A' for Active; 'I' for Inactive)
    1  A    between atoms: C_3  and  C_32
    2  A    between atoms: C_5  and  C_23
    3  A    between atoms: C_8  and  O_18
    4  A    between atoms: C_8  and  C_19
    5  A    between atoms: C_8  and  C_31
    6  A    between atoms: C_9  and  C_13
    7  A    between atoms: C_9  and  C_16
    8  A    between atoms: O_11  and  C_26
    9  A    between atoms: O_18  and  C_35
   10  A    between atoms: C_20  and  C_21
   11  A    between atoms: C_21  and  C_32
                            x       y       z     vdW  Elec       q    Type
                         _______ _______ _______ _____ _____    ______ ____

>  <TORSDO>
F 11

$$$$
=
 OpenBabel10262423023D

 37 40  0  0  1  0  0  0  0  0999 V2000
  185.9390  178.3570  137.2180 C   0  0  0  0  0  2  0  0  0  0  0  0
  181.3530  177.3770  137.8950 C   0  0  1  0  0  3  0  0  0  0  0  0
  187.0210  177.4340  137.7900 C   0  0  1  0  0  3  0  0  0  0  0  0
  183.4780  174.6010  136.1930 C   0  0  0  0  0  2  0  0  0  0  0  0
  182.4490  176.7890  137.0370 C   0  0  2  0  0  3  0  0  0  0  0  0
  181.9810  178.5650  138.6150 C   0  0  1  0  0  3  0  0  0  0  0  0
  182.2530  175.2840  136.8120 C   0  0  1  0  0  3  0  0  0  0  0  0
  187.4850  176.5360  136.8030 O   0  0  0  0  0  0  0  0  0  0  0  0
  183.4390  178.1590  138.8040 C   0  0  2  0  0  3  0  0  0  0  0  0
  179.6130  177.1130  136.0540 C   0  0  0  0  0  3  0  0  0  0  0  0
  186.4470  175.6350  136.4680 C   0  0  2  0  0  3  0  0  0  0  0  0
  184.2150  175.4690  135.1680 C   0  0  0  0  0  2  0  0  0  0  0  0
  180.0590  177.6920  137.1820 C   0  0  0  0  0  3  0  0  0  0  0  0
  183.7610  177.0890  137.7460 C   0  0  2  0  0  3  0  0  0  0  0  0
  180.9950  174.9450  135.9940 C   0  0  2  0  0  3  0  0  0  0  0  0
  185.2770  176.3830  135.8070 C   0  0  1  0  0  3  0  0  0  0  0  0
  184.7550  177.5520  136.6680 C   0  0  2  0  0  3  0  0  0  0  0  0
  180.3650  176.1130  135.2160 C   0  0  0  0  0  2  0  0  0  0  0  0
  180.7050  172.8170  137.1080 O   0  0  0  0  0  1  0  0  0  0  0  0
  180.0150  173.9650  136.6870 C   0  0  2  0  0  0  0  0  0  0  0  0
  178.9900  172.1560  135.4780 O   0  0  0  0  0  1  0  0  0  0  0  0
  178.9320  173.5330  135.7020 C   0  0  0  0  0  2  0  0  0  0  0  0
  179.3770  174.5920  137.7860 O   0  0  0  0  0  0  0  0  0  0  0  0
  180.6240  174.6660  139.6890 F   0  0  0  0  0  0  0  0  0  0  0  0
  179.7100  173.9170  138.9730 C   0  0  0  0  0  2  0  0  0  0  0  0
  186.0410  174.8930  137.5870 O   0  0  0  0  0  0  0  0  0  0  0  0
  186.5640  173.6170  137.3780 C   0  0  0  0  0  1  0  0  0  0  0  0
  188.6450  179.1760  137.2530 N   0  0  0  0  0  1  0  0  0  0  0  0
  188.1950  178.2610  138.2870 C   0  0  0  0  0  2  0  0  0  0  0  0
  183.6840  177.6660  140.2400 C   0  0  2  0  0  3  0  0  0  0  0  0
  182.4040  177.7160  141.0470 C   0  0  0  0  0  1  0  0  0  0  0  0
  184.7800  178.4270  140.9860 C   0  0  0  0  0  2  0  0  0  0  0  0
  184.6230  178.2960  142.4930 C   0  0  0  0  0  2  0  0  0  0  0  0
  185.9460  177.9260  143.1340 C   0  0  0  0  0  1  0  0  0  0  0  0
  181.9260  179.8440  137.7820 C   0  0  0  0  0  2  0  0  0  0  0  0
  181.6970  181.0470  138.6770 C   0  0  0  0  0  2  0  0  0  0  0  0
  180.4310  180.8400  139.4830 C   0  0  0  0  0  1  0  0  0  0  0  0
  1  3  1  0  0  0  0
  2 13  1  6  0  0  0
  2  6  1  0  0  0  0
  3 29  1  6  0  0  0
  4  7  1  0  0  0  0
  5 14  1  0  0  0  0
  5  2  1  0  0  0  0
  6  9  1  0  0  0  0
  7  5  1  0  0  0  0
  8  3  1  0  0  0  0
  9 30  1  0  0  0  0
 10 13  2  0  0  0  0
 11  8  1  0  0  0  0
 11 26  1  0  0  0  0
 12 16  1  0  0  0  0
 12  4  1  0  0  0  0
 14  9  1  0  0  0  0
 15 20  1  0  0  0  0
 15  7  1  0  0  0  0
 16 11  1  0  0  0  0
 16 17  1  0  0  0  0
 17  1  1  0  0  0  0
 17 14  1  0  0  0  0
 18 15  1  0  0  0  0
 18 10  1  0  0  0  0
 20 19  1  0  0  0  0
 20 23  1  0  0  0  0
 21 22  1  0  0  0  0
 22 20  1  0  0  0  0
 23 25  1  0  0  0  0
 25 24  1  0  0  0  0
 27 26  1  0  0  0  0
 28 29  1  0  0  0  0
 30 32  1  0  0  0  0
 30 31  1  0  0  0  0
 32 33  1  0  0  0  0
 33 34  1  0  0  0  0
 35  6  1  0  0  0  0
 35 36  1  0  0  0  0
 36 37  1  0  0  0  0
M  END
>  <MODEL>
3

>  <REMARK>
 VINA RESULT:      -3.9      3.560      7.221
  Name = 
  11 active torsions:
  status: ('A' for Active; 'I' for Inactive)
    1  A    between atoms: C_3  and  C_32
    2  A    between atoms: C_5  and  C_23
    3  A    between atoms: C_8  and  O_18
    4  A    between atoms: C_8  and  C_19
    5  A    between atoms: C_8  and  C_31
    6  A    between atoms: C_9  and  C_13
    7  A    between atoms: C_9  and  C_16
    8  A    between atoms: O_11  and  C_26
    9  A    between atoms: O_18  and  C_35
   10  A    between atoms: C_20  and  C_21
   11  A    between atoms: C_21  and  C_32
                            x       y       z     vdW  Elec       q    Type
                         _______ _______ _______ _____ _____    ______ ____

>  <TORSDO>
F 11

$$$$
=
 OpenBabel10262423023D

 37 40  0  0  1  0  0  0  0  0999 V2000
  188.7050  178.3320  139.1470 C   0  0  0  0  0  2  0  0  0  0  0  0
  190.8410  175.5380  135.9720 C   0  0  1  0  0  3  0  0  0  0  0  0
  188.3030  177.7780  140.5200 C   0  0  1  0  0  3  0  0  0  0  0  0
  192.5740  175.8500  139.4380 C   0  0  0  0  0  2  0  0  0  0  0  0
  191.2670  176.1960  137.2630 C   0  0  2  0  0  3  0  0  0  0  0  0
  189.4050  175.9890  135.7290 C   0  0  1  0  0  3  0  0  0  0  0  0
  192.3260  175.3690  138.0040 C   0  0  1  0  0  3  0  0  0  0  0  0
  189.2750  178.1010  141.4930 O   0  0  0  0  0  0  0  0  0  0  0  0
  188.8250  176.1600  137.1300 C   0  0  2  0  0  3  0  0  0  0  0  0
  193.0810  176.0160  134.8580 C   0  0  0  0  0  3  0  0  0  0  0  0
  190.4700  177.4000  141.2080 C   0  0  2  0  0  3  0  0  0  0  0  0
  192.4980  177.3710  139.6000 C   0  0  0  0  0  2  0  0  0  0  0  0
  191.7670  175.7430  134.7950 C   0  0  0  0  0  3  0  0  0  0  0  0
  190.0050  176.3740  138.0940 C   0  0  2  0  0  3  0  0  0  0  0  0
  193.6610  175.2630  137.2480 C   0  0  2  0  0  3  0  0  0  0  0  0
  191.0690  177.8760  139.8740 C   0  0  1  0  0  3  0  0  0  0  0  0
  190.0670  177.7830  138.7040 C   0  0  2  0  0  3  0  0  0  0  0  0
  193.8710  176.2800  136.1130 C   0  0  0  0  0  2  0  0  0  0  0  0
  195.0640  173.8060  135.9220 O   0  0  0  0  0  1  0  0  0  0  0  0
  194.1430  173.8150  136.9810 C   0  0  2  0  0  0  0  0  0  0  0  0
  193.3480  171.9630  135.6680 O   0  0  0  0  0  1  0  0  0  0  0  0
  192.9560  172.9410  136.5850 C   0  0  0  0  0  2  0  0  0  0  0  0
  194.7220  173.2590  138.1480 O   0  0  0  0  0  0  0  0  0  0  0  0
  195.6440  174.4700  139.8400 F   0  0  0  0  0  0  0  0  0  0  0  0
  195.8270  174.0330  138.5420 C   0  0  0  0  0  2  0  0  0  0  0  0
  190.2610  176.0130  141.2320 O   0  0  0  0  0  0  0  0  0  0  0  0
  190.2110  175.6830  142.5870 C   0  0  0  0  0  1  0  0  0  0  0  0
  186.1370  178.6310  139.7850 N   0  0  0  0  0  1  0  0  0  0  0  0
  186.9710  178.3720  140.9460 C   0  0  0  0  0  2  0  0  0  0  0  0
  187.9610  174.9450  137.5110 C   0  0  2  0  0  3  0  0  0  0  0  0
  188.5360  173.6750  136.9230 C   0  0  0  0  0  1  0  0  0  0  0  0
  186.4930  175.0690  137.1040 C   0  0  0  0  0  2  0  0  0  0  0  0
  186.1910  174.2620  135.8500 C   0  0  0  0  0  2  0  0  0  0  0  0
  184.7180  174.3490  135.5040 C   0  0  0  0  0  1  0  0  0  0  0  0
  189.3330  177.3270  134.9960 C   0  0  0  0  0  2  0  0  0  0  0  0
  188.1360  178.1260  135.4740 C   0  0  0  0  0  2  0  0  0  0  0  0
  186.9420  177.8180  134.5950 C   0  0  0  0  0  1  0  0  0  0  0  0
  1  3  1  0  0  0  0
  2 13  1  6  0  0  0
  2  5  1  0  0  0  0
  3 29  1  1  0  0  0
  3  8  1  0  0  0  0
  4 12  1  0  0  0  0
  5  7  1  0  0  0  0
  5 14  1  0  0  0  0
  6  2  1  0  0  0  0
  6  9  1  0  0  0  0
  7  4  1  0  0  0  0
  9 30  1  0  0  0  0
  9 14  1  0  0  0  0
 10 18  1  0  0  0  0
 11 26  1  0  0  0  0
 11  8  1  0  0  0  0
 12 16  1  0  0  0  0
 13 10  2  0  0  0  0
 14 17  1  0  0  0  0
 15  7  1  0  0  0  0
 16 11  1  0  0  0  0
 17  1  1  0  0  0  0
 17 16  1  0  0  0  0
 18 15  1  0  0  0  0
 19 20  1  0  0  0  0
 20 15  1  0  0  0  0
 20 23  1  0  0  0  0
 21 22  1  0  0  0  0
 22 20  1  0  0  0  0
 23 25  1  0  0  0  0
 25 24  1  0  0  0  0
 26 27  1  0  0  0  0
 28 29  1  0  0  0  0
 31 30  1  0  0  0  0
 32 30  1  0  0  0  0
 33 32  1  0  0  0  0
 34 33  1  0  0  0  0
 35 36  1  0  0  0  0
 35  6  1  0  0  0  0
 37 36  1  0  0  0  0
M  END
>  <MODEL>
4

>  <REMARK>
 VINA RESULT:      -3.8      4.115      6.668
  Name = 
  11 active torsions:
  status: ('A' for Active; 'I' for Inactive)
    1  A    between atoms: C_3  and  C_32
    2  A    between atoms: C_5  and  C_23
    3  A    between atoms: C_8  and  O_18
    4  A    between atoms: C_8  and  C_19
    5  A    between atoms: C_8  and  C_31
    6  A    between atoms: C_9  and  C_13
    7  A    between atoms: C_9  and  C_16
    8  A    between atoms: O_11  and  C_26
    9  A    between atoms: O_18  and  C_35
   10  A    between atoms: C_20  and  C_21
   11  A    between atoms: C_21  and  C_32
                            x       y       z     vdW  Elec       q    Type
                         _______ _______ _______ _____ _____    ______ ____

>  <TORSDO>
F 11

$$$$
=
 OpenBabel10262423023D

 37 40  0  0  1  0  0  0  0  0999 V2000
  184.9740  175.9880  135.1290 C   0  0  0  0  0  2  0  0  0  0  0  0
  189.0320  175.3160  137.4800 C   0  0  1  0  0  3  0  0  0  0  0  0
  183.6270  175.8070  135.8400 C   0  0  1  0  0  3  0  0  0  0  0  0
  186.5830  177.9370  138.9790 C   0  0  0  0  0  2  0  0  0  0  0  0
  187.9690  176.3890  137.4820 C   0  0  2  0  0  3  0  0  0  0  0  0
  188.6070  174.3130  136.4130 C   0  0  1  0  0  3  0  0  0  0  0  0
  187.8290  177.0510  138.8590 C   0  0  1  0  0  3  0  0  0  0  0  0
  183.1150  177.0530  136.2650 O   0  0  0  0  0  0  0  0  0  0  0  0
  187.0830  174.3640  136.4380 C   0  0  2  0  0  3  0  0  0  0  0  0
  190.9140  177.0190  137.6910 C   0  0  0  0  0  3  0  0  0  0  0  0
  183.9430  177.5720  137.2870 C   0  0  2  0  0  3  0  0  0  0  0  0
  186.2400  178.6960  137.6940 C   0  0  0  0  0  2  0  0  0  0  0  0
  190.4560  175.8030  137.3480 C   0  0  0  0  0  3  0  0  0  0  0  0
  186.6770  175.7200  137.0420 C   0  0  2  0  0  3  0  0  0  0  0  0
  189.0760  177.8410  139.2910 C   0  0  2  0  0  3  0  0  0  0  0  0
  185.3460  177.8860  136.7370 C   0  0  1  0  0  3  0  0  0  0  0  0
  185.9980  176.6710  136.0440 C   0  0  2  0  0  3  0  0  0  0  0  0
  190.0790  178.1750  138.1730 C   0  0  0  0  0  2  0  0  0  0  0  0
  189.6240  176.0160  140.7810 O   0  0  0  0  0  1  0  0  0  0  0  0
  189.6750  177.4130  140.6540 C   0  0  2  0  0  0  0  0  0  0  0  0
  188.0880  177.0460  142.4250 O   0  0  0  0  0  1  0  0  0  0  0  0
  188.8590  178.0230  141.7910 C   0  0  0  0  0  2  0  0  0  0  0  0
  191.0090  177.8750  140.7800 O   0  0  0  0  0  0  0  0  0  0  0  0
  191.6670  178.4920  142.8700 F   0  0  0  0  0  0  0  0  0  0  0  0
  191.5490  177.4270  141.9980 C   0  0  0  0  0  2  0  0  0  0  0  0
  183.9860  176.7090  138.3920 O   0  0  0  0  0  0  0  0  0  0  0  0
  182.9380  177.1280  139.2130 C   0  0  0  0  0  1  0  0  0  0  0  0
  182.1320  173.9180  135.4470 N   0  0  0  0  0  1  0  0  0  0  0  0
  182.6260  175.1660  134.8940 C   0  0  0  0  0  2  0  0  0  0  0  0
  186.5130  173.1700  137.2230 C   0  0  2  0  0  3  0  0  0  0  0  0
  187.5830  172.1260  137.4580 C   0  0  0  0  0  1  0  0  0  0  0  0
  185.3000  172.5100  136.5660 C   0  0  0  0  0  2  0  0  0  0  0  0
  185.5020  172.3390  135.0690 C   0  0  0  0  0  2  0  0  0  0  0  0
  185.8760  170.9050  134.7450 C   0  0  0  0  0  1  0  0  0  0  0  0
  189.0940  174.7070  135.0190 C   0  0  0  0  0  2  0  0  0  0  0  0
  190.2600  173.8310  134.6010 C   0  0  0  0  0  2  0  0  0  0  0  0
  189.9650  172.3920  134.9700 C   0  0  0  0  0  1  0  0  0  0  0  0
  1  3  1  0  0  0  0
  1 17  1  0  0  0  0
  2 13  1  6  0  0  0
  2  5  1  0  0  0  0
  3 29  1  6  0  0  0
  3  8  1  0  0  0  0
  5  7  1  0  0  0  0
  6  9  1  0  0  0  0
  6  2  1  0  0  0  0
  7  4  1  0  0  0  0
  7 15  1  0  0  0  0
  8 11  1  0  0  0  0
  9 14  1  0  0  0  0
  9 30  1  0  0  0  0
 10 18  1  0  0  0  0
 11 26  1  0  0  0  0
 12  4  1  0  0  0  0
 13 10  2  0  0  0  0
 14  5  1  0  0  0  0
 15 20  1  0  0  0  0
 16 11  1  0  0  0  0
 16 12  1  0  0  0  0
 17 16  1  0  0  0  0
 17 14  1  0  0  0  0
 18 15  1  0  0  0  0
 20 23  1  0  0  0  0
 20 19  1  0  0  0  0
 20 22  1  0  0  0  0
 22 21  1  0  0  0  0
 23 25  1  0  0  0  0
 25 24  1  0  0  0  0
 26 27  1  0  0  0  0
 29 28  1  0  0  0  0
 30 31  1  0  0  0  0
 32 30  1  0  0  0  0
 33 32  1  0  0  0  0
 34 33  1  0  0  0  0
 35  6  1  0  0  0  0
 36 37  1  0  0  0  0
 36 35  1  0  0  0  0
M  END
>  <MODEL>
5

>  <REMARK>
 VINA RESULT:      -3.5      2.867      4.989
  Name = 
  11 active torsions:
  status: ('A' for Active; 'I' for Inactive)
    1  A    between atoms: C_3  and  C_32
    2  A    between atoms: C_5  and  C_23
    3  A    between atoms: C_8  and  O_18
    4  A    between atoms: C_8  and  C_19
    5  A    between atoms: C_8  and  C_31
    6  A    between atoms: C_9  and  C_13
    7  A    between atoms: C_9  and  C_16
    8  A    between atoms: O_11  and  C_26
    9  A    between atoms: O_18  and  C_35
   10  A    between atoms: C_20  and  C_21
   11  A    between atoms: C_21  and  C_32
                            x       y       z     vdW  Elec       q    Type
                         _______ _______ _______ _____ _____    ______ ____

>  <TORSDO>
F 11

$$$$
=
 OpenBabel10262423023D

 37 40  0  0  1  0  0  0  0  0999 V2000
  185.0500  179.6450  142.6740 C   0  0  0  0  0  2  0  0  0  0  0  0
  185.6960  178.2660  138.1870 C   0  0  1  0  0  3  0  0  0  0  0  0
  185.0860  178.6180  143.8120 C   0  0  1  0  0  3  0  0  0  0  0  0
  188.5250  177.3580  140.6950 C   0  0  0  0  0  2  0  0  0  0  0  0
  186.5970  178.4250  139.3880 C   0  0  2  0  0  3  0  0  0  0  0  0
  184.3150  178.7260  138.6390 C   0  0  1  0  0  3  0  0  0  0  0  0
  187.7580  177.4220  139.3690 C   0  0  1  0  0  3  0  0  0  0  0  0
  186.3570  178.5980  144.4280 O   0  0  0  0  0  0  0  0  0  0  0  0
  184.2650  178.3580  140.1190 C   0  0  2  0  0  3  0  0  0  0  0  0
  187.4610  179.1900  136.5990 C   0  0  0  0  0  3  0  0  0  0  0  0
  187.3090  178.0890  143.5150 C   0  0  2  0  0  3  0  0  0  0  0  0
  188.6570  178.7140  141.3950 C   0  0  0  0  0  2  0  0  0  0  0  0
  186.1830  178.9150  136.9120 C   0  0  0  0  0  3  0  0  0  0  0  0
  185.7170  178.2470  140.6160 C   0  0  2  0  0  3  0  0  0  0  0  0
  188.7410  177.6430  138.2060 C   0  0  2  0  0  3  0  0  0  0  0  0
  187.4640  179.0370  142.3130 C   0  0  1  0  0  3  0  0  0  0  0  0
  186.1210  179.3410  141.6180 C   0  0  2  0  0  3  0  0  0  0  0  0
  188.6520  179.0080  137.5030 C   0  0  0  0  0  2  0  0  0  0  0  0
  187.9940  175.4280  137.5820 O   0  0  0  0  0  1  0  0  0  0  0  0
  188.9580  176.4070  137.2970 C   0  0  2  0  0  0  0  0  0  0  0  0
  190.2270  174.4690  137.9450 O   0  0  0  0  0  1  0  0  0  0  0  0
  190.3370  175.8070  137.5610 C   0  0  0  0  0  2  0  0  0  0  0  0
  188.9000  176.7770  135.9300 O   0  0  0  0  0  0  0  0  0  0  0  0
  186.9500  176.4040  134.8180 F   0  0  0  0  0  0  0  0  0  0  0  0
  188.1430  175.8320  135.2170 C   0  0  0  0  0  2  0  0  0  0  0  0
  186.9860  176.7810  143.1230 O   0  0  0  0  0  0  0  0  0  0  0  0
  188.0400  175.9970  143.5920 C   0  0  0  0  0  1  0  0  0  0  0  0
  184.6220  178.9220  146.1890 N   0  0  0  0  0  1  0  0  0  0  0  0
  184.0430  178.9720  144.8590 C   0  0  0  0  0  2  0  0  0  0  0  0
  183.4660  177.0590  140.3280 C   0  0  2  0  0  3  0  0  0  0  0  0
  183.3840  176.2700  139.0390 C   0  0  0  0  0  1  0  0  0  0  0  0
  182.0560  177.2730  140.8780 C   0  0  0  0  0  2  0  0  0  0  0  0
  181.9330  178.6110  141.5930 C   0  0  0  0  0  2  0  0  0  0  0  0
  180.4910  179.0780  141.5990 C   0  0  0  0  0  1  0  0  0  0  0  0
  184.1300  180.2360  138.4980 C   0  0  0  0  0  2  0  0  0  0  0  0
  182.6810  180.6140  138.7350 C   0  0  0  0  0  2  0  0  0  0  0  0
  181.7890  179.7640  137.8550 C   0  0  0  0  0  1  0  0  0  0  0  0
  1  3  1  0  0  0  0
  2 13  1  6  0  0  0
  2  6  1  0  0  0  0
  2  5  1  0  0  0  0
  3  8  1  0  0  0  0
  3 29  1  1  0  0  0
  4 12  1  0  0  0  0
  5 14  1  0  0  0  0
  6  9  1  0  0  0  0
  7  5  1  0  0  0  0
  7  4  1  0  0  0  0
  9 30  1  0  0  0  0
  9 14  1  0  0  0  0
 10 13  2  0  0  0  0
 10 18  1  0  0  0  0
 11  8  1  0  0  0  0
 12 16  1  0  0  0  0
 14 17  1  0  0  0  0
 15  7  1  0  0  0  0
 16 11  1  0  0  0  0
 17 16  1  0  0  0  0
 17  1  1  0  0  0  0
 18 15  1  0  0  0  0
 20 22  1  0  0  0  0
 20 19  1  0  0  0  0
 20 15  1  0  0  0  0
 22 21  1  0  0  0  0
 23 20  1  0  0  0  0
 24 25  1  0  0  0  0
 25 23  1  0  0  0  0
 26 11  1  0  0  0  0
 26 27  1  0  0  0  0
 29 28  1  0  0  0  0
 30 32  1  0  0  0  0
 31 30  1  0  0  0  0
 32 33  1  0  0  0  0
 33 34  1  0  0  0  0
 35  6  1  0  0  0  0
 35 36  1  0  0  0  0
 37 36  1  0  0  0  0
M  END
>  <MODEL>
6

>  <REMARK>
 VINA RESULT:      -3.4      2.962      4.320
  Name = 
  11 active torsions:
  status: ('A' for Active; 'I' for Inactive)
    1  A    between atoms: C_3  and  C_32
    2  A    between atoms: C_5  and  C_23
    3  A    between atoms: C_8  and  O_18
    4  A    between atoms: C_8  and  C_19
    5  A    between atoms: C_8  and  C_31
    6  A    between atoms: C_9  and  C_13
    7  A    between atoms: C_9  and  C_16
    8  A    between atoms: O_11  and  C_26
    9  A    between atoms: O_18  and  C_35
   10  A    between atoms: C_20  and  C_21
   11  A    between atoms: C_21  and  C_32
                            x       y       z     vdW  Elec       q    Type
                         _______ _______ _______ _____ _____    ______ ____

>  <TORSDO>
F 11

$$$$
=
 OpenBabel10262423023D

 37 40  0  0  1  0  0  0  0  0999 V2000
  179.4860  181.0630  138.4180 C   0  0  0  0  0  2  0  0  0  0  0  0
  181.2160  176.8790  139.8150 C   0  0  1  0  0  3  0  0  0  0  0  0
  180.1660  181.8440  137.2870 C   0  0  1  0  0  3  0  0  0  0  0  0
  180.3050  177.1980  136.0490 C   0  0  0  0  0  2  0  0  0  0  0  0
  180.4600  177.3630  138.6000 C   0  0  2  0  0  3  0  0  0  0  0  0
  181.3450  178.0890  140.7340 C   0  0  1  0  0  3  0  0  0  0  0  0
  180.8290  176.5640  137.3430 C   0  0  1  0  0  3  0  0  0  0  0  0
  179.5080  181.6190  136.0580 O   0  0  0  0  0  0  0  0  0  0  0  0
  181.4240  179.2760  139.7790 C   0  0  2  0  0  3  0  0  0  0  0  0
  179.9060  174.6960  139.9020 C   0  0  0  0  0  3  0  0  0  0  0  0
  179.6970  180.2720  135.6680 C   0  0  2  0  0  3  0  0  0  0  0  0
  178.9310  177.8570  136.1980 C   0  0  0  0  0  2  0  0  0  0  0  0
  180.6590  175.6440  140.4850 C   0  0  0  0  0  3  0  0  0  0  0  0
  180.7860  178.8400  138.4480 C   0  0  2  0  0  3  0  0  0  0  0  0
  180.4070  175.0860  137.4090 C   0  0  2  0  0  3  0  0  0  0  0  0
  179.0120  179.3220  136.6650 C   0  0  1  0  0  3  0  0  0  0  0  0
  179.4670  179.5580  138.1210 C   0  0  2  0  0  3  0  0  0  0  0  0
  179.3750  174.7310  138.4930 C   0  0  0  0  0  2  0  0  0  0  0  0
  182.7410  174.5610  137.7670 O   0  0  0  0  0  1  0  0  0  0  0  0
  181.5580  174.0730  137.1900 C   0  0  2  0  0  0  0  0  0  0  0  0
  182.7040  174.8380  135.2180 O   0  0  0  0  0  1  0  0  0  0  0  0
  181.8020  173.8850  135.6940 C   0  0  0  0  0  2  0  0  0  0  0  0
  181.2230  172.8100  137.7370 O   0  0  0  0  0  0  0  0  0  0  0  0
  180.1160  171.1730  136.6070 F   0  0  0  0  0  0  0  0  0  0  0  0
  181.3290  171.8220  136.7430 C   0  0  0  0  0  2  0  0  0  0  0  0
  181.0580  179.9790  135.5030 O   0  0  0  0  0  0  0  0  0  0  0  0
  181.5210  180.9310  134.5940 C   0  0  0  0  0  1  0  0  0  0  0  0
  179.7540  184.0840  136.4100 N   0  0  0  0  0  1  0  0  0  0  0  0
  180.1310  183.3320  137.5930 C   0  0  0  0  0  2  0  0  0  0  0  0
  182.8810  179.7430  139.6140 C   0  0  2  0  0  3  0  0  0  0  0  0
  182.9980  180.7320  138.4750 C   0  0  0  0  0  1  0  0  0  0  0  0
  183.8820  178.6080  139.4010 C   0  0  0  0  0  2  0  0  0  0  0  0
  184.1350  178.3570  137.9220 C   0  0  0  0  0  2  0  0  0  0  0  0
  185.3710  177.5000  137.7340 C   0  0  0  0  0  1  0  0  0  0  0  0
  180.1270  178.2630  141.6400 C   0  0  0  0  0  2  0  0  0  0  0  0
  180.4820  179.1130  142.8450 C   0  0  0  0  0  2  0  0  0  0  0  0
  181.8970  178.7970  143.2830 C   0  0  0  0  0  1  0  0  0  0  0  0
  2 13  1  1  0  0  0
  2  6  1  0  0  0  0
  3 29  1  1  0  0  0
  3  1  1  0  0  0  0
  4 12  1  0  0  0  0
  4  7  1  0  0  0  0
  5  2  1  0  0  0  0
  6 35  1  0  0  0  0
  7 15  1  0  0  0  0
  7  5  1  0  0  0  0
  8  3  1  0  0  0  0
  9  6  1  0  0  0  0
 10 13  2  0  0  0  0
 11  8  1  0  0  0  0
 11 16  1  0  0  0  0
 12 16  1  0  0  0  0
 14  5  1  0  0  0  0
 14  9  1  0  0  0  0
 15 18  1  0  0  0  0
 16 17  1  0  0  0  0
 17  1  1  0  0  0  0
 17 14  1  0  0  0  0
 18 10  1  0  0  0  0
 20 15  1  0  0  0  0
 20 23  1  0  0  0  0
 20 19  1  0  0  0  0
 21 22  1  0  0  0  0
 22 20  1  0  0  0  0
 24 25  1  0  0  0  0
 25 23  1  0  0  0  0
 26 11  1  0  0  0  0
 27 26  1  0  0  0  0
 28 29  1  0  0  0  0
 30  9  1  0  0  0  0
 31 30  1  0  0  0  0
 32 30  1  0  0  0  0
 33 32  1  0  0  0  0
 34 33  1  0  0  0  0
 35 36  1  0  0  0  0
 36 37  1  0  0  0  0
M  END
>  <MODEL>
7

>  <REMARK>
 VINA RESULT:      -2.5      3.900      7.104
  Name = 
  11 active torsions:
  status: ('A' for Active; 'I' for Inactive)
    1  A    between atoms: C_3  and  C_32
    2  A    between atoms: C_5  and  C_23
    3  A    between atoms: C_8  and  O_18
    4  A    between atoms: C_8  and  C_19
    5  A    between atoms: C_8  and  C_31
    6  A    between atoms: C_9  and  C_13
    7  A    between atoms: C_9  and  C_16
    8  A    between atoms: O_11  and  C_26
    9  A    between atoms: O_18  and  C_35
   10  A    between atoms: C_20  and  C_21
   11  A    between atoms: C_21  and  C_32
                            x       y       z     vdW  Elec       q    Type
                         _______ _______ _______ _____ _____    ______ ____

>  <TORSDO>
F 11

$$$$
=
 OpenBabel10262423023D

 37 40  0  0  1  0  0  0  0  0999 V2000
  181.0940  181.6710  139.1530 C   0  0  0  0  0  2  0  0  0  0  0  0
  181.9920  177.0910  139.9700 C   0  0  1  0  0  3  0  0  0  0  0  0
  181.5140  182.3180  137.8280 C   0  0  1  0  0  3  0  0  0  0  0  0
  179.9270  177.9000  136.7780 C   0  0  0  0  0  2  0  0  0  0  0  0
  181.0170  177.8410  139.0940 C   0  0  2  0  0  3  0  0  0  0  0  0
  182.7650  178.1560  140.7400 C   0  0  1  0  0  3  0  0  0  0  0  0
  180.6810  177.0620  137.8160 C   0  0  1  0  0  3  0  0  0  0  0  0
  180.4270  182.3620  136.9260 O   0  0  0  0  0  0  0  0  0  0  0  0
  182.8210  179.3420  139.7820 C   0  0  2  0  0  3  0  0  0  0  0  0
  180.2550  175.3360  140.5950 C   0  0  0  0  0  3  0  0  0  0  0  0
  180.0880  181.0440  136.5400 C   0  0  2  0  0  3  0  0  0  0  0  0
  178.9310  178.8900  137.3900 C   0  0  0  0  0  2  0  0  0  0  0  0
  181.3950  176.0050  140.8360 C   0  0  0  0  0  3  0  0  0  0  0  0
  181.6590  179.1850  138.7850 C   0  0  2  0  0  3  0  0  0  0  0  0
  179.9240  175.7490  138.0780 C   0  0  2  0  0  3  0  0  0  0  0  0
  179.5710  180.2440  137.7480 C   0  0  1  0  0  3  0  0  0  0  0  0
  180.5600  180.2490  138.9320 C   0  0  2  0  0  3  0  0  0  0  0  0
  179.2890  175.6080  139.4730 C   0  0  0  0  0  2  0  0  0  0  0  0
  180.3870  174.4290  136.1050 O   0  0  0  0  0  1  0  0  0  0  0  0
  180.5970  174.4830  137.4920 C   0  0  2  0  0  0  0  0  0  0  0  0
  180.0880  172.1450  137.2470 O   0  0  0  0  0  1  0  0  0  0  0  0
  179.9790  173.2340  138.1150 C   0  0  0  0  0  2  0  0  0  0  0  0
  181.9830  174.4740  137.7850 O   0  0  0  0  0  0  0  0  0  0  0  0
  184.0270  173.7970  137.0460 F   0  0  0  0  0  0  0  0  0  0  0  0
  182.6670  173.7290  136.8090 C   0  0  0  0  0  2  0  0  0  0  0  0
  181.1660  180.4100  135.9040 O   0  0  0  0  0  0  0  0  0  0  0  0
  181.1760  180.9340  134.6110 C   0  0  0  0  0  1  0  0  0  0  0  0
  181.8960  184.5270  136.8630 N   0  0  0  0  0  1  0  0  0  0  0  0
  181.9980  183.7360  138.0760 C   0  0  0  0  0  2  0  0  0  0  0  0
  184.1920  179.4140  139.0870 C   0  0  2  0  0  3  0  0  0  0  0  0
  184.1750  178.6320  137.7910 C   0  0  0  0  0  1  0  0  0  0  0  0
  185.3580  178.9320  139.9510 C   0  0  0  0  0  2  0  0  0  0  0  0
  186.3720  178.1480  139.1320 C   0  0  0  0  0  2  0  0  0  0  0  0
  187.7710  178.3610  139.6770 C   0  0  0  0  0  1  0  0  0  0  0  0
  182.0460  178.5860  142.0180 C   0  0  0  0  0  2  0  0  0  0  0  0
  183.0530  178.9370  143.0960 C   0  0  0  0  0  2  0  0  0  0  0  0
  184.4180  178.4170  142.6980 C   0  0  0  0  0  1  0  0  0  0  0  0
  2  6  1  0  0  0  0
  2 13  1  1  0  0  0
  3 29  1  1  0  0  0
  3  1  1  0  0  0  0
  4 12  1  0  0  0  0
  4  7  1  0  0  0  0
  5  2  1  0  0  0  0
  6 35  1  0  0  0  0
  7 15  1  0  0  0  0
  7  5  1  0  0  0  0
  8  3  1  0  0  0  0
  9  6  1  0  0  0  0
 10 13  2  0  0  0  0
 11  8  1  0  0  0  0
 11 16  1  0  0  0  0
 12 16  1  0  0  0  0
 14 17  1  0  0  0  0
 14  5  1  0  0  0  0
 14  9  1  0  0  0  0
 15 18  1  0  0  0  0
 16 17  1  0  0  0  0
 17  1  1  0  0  0  0
 18 10  1  0  0  0  0
 19 20  1  0  0  0  0
 20 23  1  0  0  0  0
 20 15  1  0  0  0  0
 20 22  1  0  0  0  0
 21 22  1  0  0  0  0
 25 24  1  0  0  0  0
 25 23  1  0  0  0  0
 26 11  1  0  0  0  0
 27 26  1  0  0  0  0
 28 29  1  0  0  0  0
 30  9  1  0  0  0  0
 30 32  1  0  0  0  0
 31 30  1  0  0  0  0
 33 34  1  0  0  0  0
 33 32  1  0  0  0  0
 35 36  1  0  0  0  0
 37 36  1  0  0  0  0
M  END
>  <MODEL>
8

>  <REMARK>
 VINA RESULT:      -2.4      3.678      7.075
  Name = 
  11 active torsions:
  status: ('A' for Active; 'I' for Inactive)
    1  A    between atoms: C_3  and  C_32
    2  A    between atoms: C_5  and  C_23
    3  A    between atoms: C_8  and  O_18
    4  A    between atoms: C_8  and  C_19
    5  A    between atoms: C_8  and  C_31
    6  A    between atoms: C_9  and  C_13
    7  A    between atoms: C_9  and  C_16
    8  A    between atoms: O_11  and  C_26
    9  A    between atoms: O_18  and  C_35
   10  A    between atoms: C_20  and  C_21
   11  A    between atoms: C_21  and  C_32
                            x       y       z     vdW  Elec       q    Type
                         _______ _______ _______ _____ _____    ______ ____

>  <TORSDO>
F 11

$$$$
=
 OpenBabel10262423023D

 37 40  0  0  1  0  0  0  0  0999 V2000
  189.6060  175.6890  135.3370 C   0  0  0  0  0  2  0  0  0  0  0  0
  185.6330  177.0730  137.5160 C   0  0  1  0  0  3  0  0  0  0  0  0
  190.3210  174.4040  135.7730 C   0  0  1  0  0  3  0  0  0  0  0  0
  185.6010  173.5050  135.9730 C   0  0  0  0  0  2  0  0  0  0  0  0
  185.9800  175.9730  136.5410 C   0  0  2  0  0  3  0  0  0  0  0  0
  186.9180  177.8640  137.7260 C   0  0  1  0  0  3  0  0  0  0  0  0
  185.0990  174.7330  136.7400 C   0  0  1  0  0  3  0  0  0  0  0  0
  189.9670  173.3250  134.9330 O   0  0  0  0  0  0  0  0  0  0  0  0
  188.0250  176.8260  137.5760 C   0  0  2  0  0  3  0  0  0  0  0  0
  183.4080  177.5410  136.3680 C   0  0  0  0  0  3  0  0  0  0  0  0
  188.6020  173.0090  135.1320 C   0  0  2  0  0  3  0  0  0  0  0  0
  186.2070  173.8370  134.6060 C   0  0  0  0  0  2  0  0  0  0  0  0
  184.4330  177.9160  137.1520 C   0  0  0  0  0  3  0  0  0  0  0  0
  187.4540  175.6590  136.7510 C   0  0  2  0  0  3  0  0  0  0  0  0
  183.6140  174.9780  136.4230 C   0  0  2  0  0  3  0  0  0  0  0  0
  187.7070  174.1750  134.6790 C   0  0  1  0  0  3  0  0  0  0  0  0
  188.0820  175.5100  135.3560 C   0  0  2  0  0  3  0  0  0  0  0  0
  183.3030  176.2450  135.6080 C   0  0  0  0  0  2  0  0  0  0  0  0
  182.3570  173.2650  137.5780 O   0  0  0  0  0  1  0  0  0  0  0  0
  182.6390  174.6400  137.5780 C   0  0  2  0  0  0  0  0  0  0  0  0
  180.3320  174.5360  136.9030 O   0  0  0  0  0  1  0  0  0  0  0  0
  181.3250  175.3930  137.3820 C   0  0  0  0  0  2  0  0  0  0  0  0
  183.1850  175.0350  138.8240 O   0  0  0  0  0  0  0  0  0  0  0  0
  183.0430  176.9350  140.0690 F   0  0  0  0  0  0  0  0  0  0  0  0
  182.3110  175.9350  139.4570 C   0  0  0  0  0  2  0  0  0  0  0  0
  188.3580  172.6350  136.4610 O   0  0  0  0  0  0  0  0  0  0  0  0
  188.1370  171.2580  136.4100 C   0  0  0  0  0  1  0  0  0  0  0  0
  192.3850  173.8500  134.5940 N   0  0  0  0  0  1  0  0  0  0  0  0
  191.8260  174.6020  135.7030 C   0  0  0  0  0  2  0  0  0  0  0  0
  188.5420  176.3810  138.9550 C   0  0  2  0  0  3  0  0  0  0  0  0
  188.2270  177.4240  140.0040 C   0  0  0  0  0  1  0  0  0  0  0  0
  190.0370  176.0640  138.9910 C   0  0  0  0  0  2  0  0  0  0  0  0
  190.8060  177.0940  139.8050 C   0  0  0  0  0  2  0  0  0  0  0  0
  192.2600  177.1300  139.3760 C   0  0  0  0  0  1  0  0  0  0  0  0
  187.1110  178.9500  136.6680 C   0  0  0  0  0  2  0  0  0  0  0  0
  188.5870  179.1550  136.3850 C   0  0  0  0  0  2  0  0  0  0  0  0
  189.2520  179.7640  137.6010 C   0  0  0  0  0  1  0  0  0  0  0  0
  1 17  1  0  0  0  0
  1  3  1  0  0  0  0
  2 13  1  6  0  0  0
  2  6  1  0  0  0  0
  3 29  1  6  0  0  0
  4  7  1  0  0  0  0
  5  7  1  0  0  0  0
  5 14  1  0  0  0  0
  5  2  1  0  0  0  0
  8 11  1  0  0  0  0
  8  3  1  0  0  0  0
  9  6  1  0  0  0  0
  9 30  1  0  0  0  0
 10 13  2  0  0  0  0
 11 26  1  0  0  0  0
 12 16  1  0  0  0  0
 12  4  1  0  0  0  0
 14  9  1  0  0  0  0
 15  7  1  0  0  0  0
 15 20  1  0  0  0  0
 16 11  1  0  0  0  0
 16 17  1  0  0  0  0
 17 14  1  0  0  0  0
 18 10  1  0  0  0  0
 18 15  1  0  0  0  0
 19 20  1  0  0  0  0
 20 23  1  0  0  0  0
 21 22  1  0  0  0  0
 22 20  1  0  0  0  0
 23 25  1  0  0  0  0
 25 24  1  0  0  0  0
 27 26  1  0  0  0  0
 28 29  1  0  0  0  0
 30 32  1  0  0  0  0
 30 31  1  0  0  0  0
 32 33  1  0  0  0  0
 34 33  1  0  0  0  0
 35  6  1  0  0  0  0
 36 35  1  0  0  0  0
 36 37  1  0  0  0  0
M  END
>  <MODEL>
9

>  <REMARK>
 VINA RESULT:      -2.3      3.920      8.115
  Name = 
  11 active torsions:
  status: ('A' for Active; 'I' for Inactive)
    1  A    between atoms: C_3  and  C_32
    2  A    between atoms: C_5  and  C_23
    3  A    between atoms: C_8  and  O_18
    4  A    between atoms: C_8  and  C_19
    5  A    between atoms: C_8  and  C_31
    6  A    between atoms: C_9  and  C_13
    7  A    between atoms: C_9  and  C_16
    8  A    between atoms: O_11  and  C_26
    9  A    between atoms: O_18  and  C_35
   10  A    between atoms: C_20  and  C_21
   11  A    between atoms: C_21  and  C_32
                            x       y       z     vdW  Elec       q    Type
                         _______ _______ _______ _____ _____    ______ ____

>  <TORSDO>
F 11

$$$$
