=
 OpenBabel10262422013D

 30 31  0  0  1  0  0  0  0  0999 V2000
  191.6620  177.0570  140.3500 C   0  0  2  0  0  0  0  0  0  0  0  0
  188.5270  176.8080  138.4770 C   0  0  0  0  0  2  0  0  0  0  0  0
  188.9750  178.0970  139.0800 C   0  0  0  0  0  0  0  0  0  0  0  0
  190.9630  175.9260  139.7460 N   0  0  0  0  0  2  0  0  0  0  0  0
  193.0870  177.3190  139.9040 C   0  0  0  0  0  1  0  0  0  0  0  0
  189.5900  176.2190  137.7340 O   0  0  0  0  0  0  0  0  0  0  0  0
  190.7850  175.8160  138.3330 C   0  0  0  0  0  0  0  0  0  0  0  0
  191.3980  177.3380  141.8270 C   0  0  1  0  0  3  0  0  0  0  0  0
  189.4040  178.1290  140.4430 N   0  0  0  0  0  0  0  0  0  0  0  0
  189.0460  179.1320  138.3690 O   0  0  0  0  0  0  0  0  0  0  0  0
  191.7070  175.3460  137.6210 O   0  0  0  0  0  0  0  0  0  0  0  0
  190.8370  178.2890  140.7330 C   0  0  2  0  0  3  0  0  0  0  0  0
  190.3820  176.4860  142.5670 C   0  0  0  0  0  0  0  0  0  0  0  0
  189.8410  175.5160  142.0570 O   0  0  0  0  0  0  0  0  0  0  0  0
  190.0870  176.8400  143.9960 C   0  0  1  0  0  3  0  0  0  0  0  0
  188.6050  176.6910  144.3470 C   0  0  0  0  0  2  0  0  0  0  0  0
  188.0770  177.8870  145.1220 C   0  0  0  0  0  2  0  0  0  0  0  0
  185.6940  178.5230  145.2050 C   0  0  0  0  0  1  0  0  0  0  0  0
  186.7280  177.5450  145.7220 C   0  0  0  0  0  2  0  0  0  0  0  0
  190.8930  176.0990  144.8660 O   0  0  0  0  0  0  0  0  0  0  0  0
  191.5550  177.0560  145.6380 C   0  0  0  0  0  2  0  0  0  0  0  0
  190.1170  176.9080  147.6680 O   0  0  0  0  0  0  0  0  0  0  0  0
  192.3510  176.3870  147.7790 O   0  0  0  0  0  1  0  0  0  0  0  0
  191.3700  176.7540  147.0830 C   0  0  0  0  0  0  0  0  0  0  0  0
  188.4050  178.4700  141.4540 C   0  0  0  0  0  2  0  0  0  0  0  0
  185.9960  178.9460  141.5960 C   0  0  0  0  0  3  0  0  0  0  0  0
  187.0450  178.6170  140.8500 C   0  0  0  0  0  3  0  0  0  0  0  0
  184.6550  179.1010  141.0210 C   0  0  0  0  0  0  0  0  0  0  0  0
  184.4810  179.7130  139.9330 O   0  0  0  0  0  0  0  0  0  0  0  0
  183.4840  178.5320  141.7390 C   0  0  0  0  0  1  0  0  0  0  0  0
  1  5  1  6  0  0  0
  1 12  1  0  0  0  0
  1  8  1  0  0  0  0
  2  3  1  0  0  0  0
  3  9  1  0  0  0  0
  4  1  1  0  0  0  0
  6  7  1  0  0  0  0
  6  2  1  0  0  0  0
  7  4  1  0  0  0  0
  8 13  1  6  0  0  0
  9 25  1  0  0  0  0
 10  3  2  0  0  0  0
 11  7  2  0  0  0  0
 12  9  1  6  0  0  0
 12  8  1  0  0  0  0
 13 15  1  0  0  0  0
 14 13  2  0  0  0  0
 15 16  1  1  0  0  0
 15 20  1  0  0  0  0
 16 17  1  0  0  0  0
 17 19  1  0  0  0  0
 18 19  1  0  0  0  0
 20 21  1  0  0  0  0
 21 24  1  0  0  0  0
 24 22  2  0  0  0  0
 24 23  1  0  0  0  0
 27 25  1  0  0  0  0
 27 26  2  0  0  0  0
 28 26  1  0  0  0  0
 28 30  1  0  0  0  0
 29 28  2  0  0  0  0
M  END
>  <MODEL>
1

>  <REMARK>
 VINA RESULT:      -6.6      0.000      0.000
  Name = 
  11 active torsions:
  status: ('A' for Active; 'I' for Inactive)
    1  A    between atoms: C_1  and  C_4
    2  A    between atoms: C_1  and  C_22
    3  A    between atoms: C_4  and  C_9
    4  A    between atoms: C_4  and  O_12
    5  A    between atoms: C_7  and  N_23
    6  A    between atoms: C_7  and  C_25
    7  A    between atoms: C_8  and  O_12
    8  A    between atoms: C_8  and  C_30
    9  A    between atoms: C_9  and  C_21
   10  A    between atoms: C_10  and  C_15
   11  A    between atoms: C_17  and  C_21
                            x       y       z     vdW  Elec       q    Type
                         _______ _______ _______ _____ _____    ______ ____

>  <TORSDO>
F 11

$$$$
=
 OpenBabel10262422013D

 30 31  0  0  1  0  0  0  0  0999 V2000
  190.8130  177.3070  141.4380 C   0  0  2  0  0  0  0  0  0  0  0  0
  188.2960  176.9820  138.8000 C   0  0  0  0  0  2  0  0  0  0  0  0
  188.5090  178.2710  139.5200 C   0  0  0  0  0  0  0  0  0  0  0  0
  190.3500  176.1660  140.6540 N   0  0  0  0  0  2  0  0  0  0  0  0
  192.2910  177.6390  141.3880 C   0  0  0  0  0  1  0  0  0  0  0  0
  189.5420  176.4560  138.3560 O   0  0  0  0  0  0  0  0  0  0  0  0
  190.5540  176.0860  139.2430 C   0  0  0  0  0  0  0  0  0  0  0  0
  190.1560  177.5380  142.7970 C   0  0  1  0  0  3  0  0  0  0  0  0
  188.5620  178.2840  140.9480 N   0  0  0  0  0  0  0  0  0  0  0  0
  188.7170  179.3270  138.8680 O   0  0  0  0  0  0  0  0  0  0  0  0
  191.6530  175.6730  138.7920 O   0  0  0  0  0  0  0  0  0  0  0  0
  189.8600  178.4950  141.6080 C   0  0  2  0  0  3  0  0  0  0  0  0
  189.0210  176.6260  143.2290 C   0  0  0  0  0  0  0  0  0  0  0  0
  188.5960  175.7250  142.5220 O   0  0  0  0  0  0  0  0  0  0  0  0
  188.4530  176.8280  144.6040 C   0  0  1  0  0  3  0  0  0  0  0  0
  189.2690  177.8160  145.4410 C   0  0  0  0  0  2  0  0  0  0  0  0
  190.0340  177.1240  146.5570 C   0  0  0  0  0  2  0  0  0  0  0  0
  192.0640  175.8010  147.0290 C   0  0  0  0  0  1  0  0  0  0  0  0
  191.4400  176.8100  146.0870 C   0  0  0  0  0  2  0  0  0  0  0  0
  187.1090  177.2090  144.5340 O   0  0  0  0  0  0  0  0  0  0  0  0
  186.8980  177.9780  145.6800 C   0  0  0  0  0  2  0  0  0  0  0  0
  184.7730  178.7610  146.7200 O   0  0  0  0  0  1  0  0  0  0  0  0
  185.1850  179.1260  144.4910 O   0  0  0  0  0  0  0  0  0  0  0  0
  185.5800  178.6630  145.5910 C   0  0  0  0  0  0  0  0  0  0  0  0
  187.3180  178.5580  141.6640 C   0  0  0  0  0  2  0  0  0  0  0  0
  184.9550  178.8040  141.0270 C   0  0  0  0  0  3  0  0  0  0  0  0
  186.2350  178.9960  140.7300 C   0  0  0  0  0  3  0  0  0  0  0  0
  183.8780  179.2320  140.1280 C   0  0  0  0  0  0  0  0  0  0  0  0
  184.0880  180.0840  139.2230 O   0  0  0  0  0  0  0  0  0  0  0  0
  182.5180  178.6550  140.2920 C   0  0  0  0  0  1  0  0  0  0  0  0
  1  5  1  6  0  0  0
  1 12  1  0  0  0  0
  1  8  1  0  0  0  0
  2  3  1  0  0  0  0
  3  9  1  0  0  0  0
  4  1  1  0  0  0  0
  6  2  1  0  0  0  0
  6  7  1  0  0  0  0
  7  4  1  0  0  0  0
  8 13  1  6  0  0  0
  9 25  1  0  0  0  0
 10  3  2  0  0  0  0
 11  7  2  0  0  0  0
 12  9  1  6  0  0  0
 12  8  1  0  0  0  0
 13 15  1  0  0  0  0
 14 13  2  0  0  0  0
 15 16  1  6  0  0  0
 16 17  1  0  0  0  0
 19 17  1  0  0  0  0
 19 18  1  0  0  0  0
 20 15  1  0  0  0  0
 20 21  1  0  0  0  0
 23 24  2  0  0  0  0
 24 21  1  0  0  0  0
 24 22  1  0  0  0  0
 27 26  2  0  0  0  0
 27 25  1  0  0  0  0
 28 30  1  0  0  0  0
 28 26  1  0  0  0  0
 29 28  2  0  0  0  0
M  END
>  <MODEL>
2

>  <REMARK>
 VINA RESULT:      -6.6      1.798      3.135
  Name = 
  11 active torsions:
  status: ('A' for Active; 'I' for Inactive)
    1  A    between atoms: C_1  and  C_4
    2  A    between atoms: C_1  and  C_22
    3  A    between atoms: C_4  and  C_9
    4  A    between atoms: C_4  and  O_12
    5  A    between atoms: C_7  and  N_23
    6  A    between atoms: C_7  and  C_25
    7  A    between atoms: C_8  and  O_12
    8  A    between atoms: C_8  and  C_30
    9  A    between atoms: C_9  and  C_21
   10  A    between atoms: C_10  and  C_15
   11  A    between atoms: C_17  and  C_21
                            x       y       z     vdW  Elec       q    Type
                         _______ _______ _______ _____ _____    ______ ____

>  <TORSDO>
F 11

$$$$
=
 OpenBabel10262422013D

 30 31  0  0  1  0  0  0  0  0999 V2000
  190.2450  178.1880  143.1730 C   0  0  2  0  0  0  0  0  0  0  0  0
  189.2220  176.9120  139.8980 C   0  0  0  0  0  2  0  0  0  0  0  0
  188.7300  178.2220  140.4130 C   0  0  0  0  0  0  0  0  0  0  0  0
  190.5030  176.9270  142.4820 N   0  0  0  0  0  2  0  0  0  0  0  0
  191.4440  179.0070  143.6080 C   0  0  0  0  0  1  0  0  0  0  0  0
  190.6380  176.8320  140.0350 O   0  0  0  0  0  0  0  0  0  0  0  0
  191.2700  176.8680  141.2790 C   0  0  0  0  0  0  0  0  0  0  0  0
  189.0630  178.2300  144.1380 C   0  0  1  0  0  3  0  0  0  0  0  0
  188.2000  178.3080  141.7370 N   0  0  0  0  0  0  0  0  0  0  0  0
  188.8520  179.2580  139.7100 O   0  0  0  0  0  0  0  0  0  0  0  0
  192.5250  176.8430  141.3370 O   0  0  0  0  0  0  0  0  0  0  0  0
  188.9940  178.9790  142.7780 C   0  0  2  0  0  3  0  0  0  0  0  0
  188.1840  177.0000  144.2770 C   0  0  0  0  0  0  0  0  0  0  0  0
  188.2970  176.0240  143.5500 O   0  0  0  0  0  0  0  0  0  0  0  0
  187.1790  176.9870  145.3930 C   0  0  1  0  0  3  0  0  0  0  0  0
  187.6340  177.8000  146.6070 C   0  0  0  0  0  2  0  0  0  0  0  0
  188.3920  176.9500  147.6130 C   0  0  0  0  0  2  0  0  0  0  0  0
  190.8020  176.7540  147.1150 C   0  0  0  0  0  1  0  0  0  0  0  0
  189.7580  177.5580  147.8610 C   0  0  0  0  0  2  0  0  0  0  0  0
  185.9260  177.4110  144.9370 O   0  0  0  0  0  0  0  0  0  0  0  0
  185.7660  178.6880  145.4770 C   0  0  0  0  0  2  0  0  0  0  0  0
  183.3030  179.0620  145.5440 O   0  0  0  0  0  1  0  0  0  0  0  0
  184.5870  180.0420  143.9130 O   0  0  0  0  0  0  0  0  0  0  0  0
  184.5280  179.3120  144.9350 C   0  0  0  0  0  0  0  0  0  0  0  0
  186.7540  178.1620  141.8930 C   0  0  0  0  0  2  0  0  0  0  0  0
  184.6910  178.7180  140.6730 C   0  0  0  0  0  3  0  0  0  0  0  0
  186.0160  178.7680  140.7410 C   0  0  0  0  0  3  0  0  0  0  0  0
  183.9490  179.3110  139.5560 C   0  0  0  0  0  0  0  0  0  0  0  0
  184.2800  180.4300  139.0770 O   0  0  0  0  0  0  0  0  0  0  0  0
  182.7860  178.5830  138.9840 C   0  0  0  0  0  1  0  0  0  0  0  0
  1  5  1  1  0  0  0
  1  8  1  0  0  0  0
  2  6  1  0  0  0  0
  2  3  1  0  0  0  0
  3  9  1  0  0  0  0
  4  1  1  0  0  0  0
  6  7  1  0  0  0  0
  7 11  2  0  0  0  0
  7  4  1  0  0  0  0
  8 13  1  6  0  0  0
  9 25  1  0  0  0  0
 10  3  2  0  0  0  0
 12  9  1  6  0  0  0
 12  1  1  0  0  0  0
 12  8  1  0  0  0  0
 13 15  1  0  0  0  0
 14 13  2  0  0  0  0
 15 16  1  1  0  0  0
 16 17  1  0  0  0  0
 17 19  1  0  0  0  0
 18 19  1  0  0  0  0
 20 15  1  0  0  0  0
 20 21  1  0  0  0  0
 23 24  2  0  0  0  0
 24 21  1  0  0  0  0
 24 22  1  0  0  0  0
 26 27  2  0  0  0  0
 27 25  1  0  0  0  0
 28 26  1  0  0  0  0
 29 28  2  0  0  0  0
 30 28  1  0  0  0  0
M  END
>  <MODEL>
3

>  <REMARK>
 VINA RESULT:      -6.5      2.264      3.957
  Name = 
  11 active torsions:
  status: ('A' for Active; 'I' for Inactive)
    1  A    between atoms: C_1  and  C_4
    2  A    between atoms: C_1  and  C_22
    3  A    between atoms: C_4  and  C_9
    4  A    between atoms: C_4  and  O_12
    5  A    between atoms: C_7  and  N_23
    6  A    between atoms: C_7  and  C_25
    7  A    between atoms: C_8  and  O_12
    8  A    between atoms: C_8  and  C_30
    9  A    between atoms: C_9  and  C_21
   10  A    between atoms: C_10  and  C_15
   11  A    between atoms: C_17  and  C_21
                            x       y       z     vdW  Elec       q    Type
                         _______ _______ _______ _____ _____    ______ ____

>  <TORSDO>
F 11

$$$$
=
 OpenBabel10262422013D

 30 31  0  0  1  0  0  0  0  0999 V2000
  189.9290  176.3980  143.2690 C   0  0  2  0  0  0  0  0  0  0  0  0
  188.3830  178.4550  145.8710 C   0  0  0  0  0  2  0  0  0  0  0  0
  187.6320  177.3560  145.1980 C   0  0  0  0  0  0  0  0  0  0  0  0
  190.3990  177.5650  144.0100 N   0  0  0  0  0  2  0  0  0  0  0  0
  190.7680  175.1370  143.3440 C   0  0  0  0  0  1  0  0  0  0  0  0
  189.6540  177.9850  146.3090 O   0  0  0  0  0  0  0  0  0  0  0  0
  190.6260  177.5240  145.4190 C   0  0  0  0  0  0  0  0  0  0  0  0
  189.2720  176.6440  141.9130 C   0  0  1  0  0  3  0  0  0  0  0  0
  187.6380  177.2660  143.7720 N   0  0  0  0  0  0  0  0  0  0  0  0
  187.0630  176.4710  145.8870 O   0  0  0  0  0  0  0  0  0  0  0  0
  191.7110  177.0750  145.8650 O   0  0  0  0  0  0  0  0  0  0  0  0
  188.4170  176.1960  143.1300 C   0  0  2  0  0  3  0  0  0  0  0  0
  189.0780  178.0740  141.4400 C   0  0  0  0  0  0  0  0  0  0  0  0
  189.3470  179.0400  142.1380 O   0  0  0  0  0  0  0  0  0  0  0  0
  188.5820  178.2800  140.0370 C   0  0  1  0  0  3  0  0  0  0  0  0
  188.8620  177.0800  139.1300 C   0  0  0  0  0  2  0  0  0  0  0  0
  190.1090  177.2810  138.2840 C   0  0  0  0  0  2  0  0  0  0  0  0
  192.1540  177.0670  139.6500 C   0  0  0  0  0  1  0  0  0  0  0  0
  191.1920  176.3260  138.7450 C   0  0  0  0  0  2  0  0  0  0  0  0
  187.2240  178.6140  140.0350 O   0  0  0  0  0  0  0  0  0  0  0  0
  186.7480  178.1580  138.8050 C   0  0  0  0  0  2  0  0  0  0  0  0
  184.8180  179.6540  139.3000 O   0  0  0  0  0  1  0  0  0  0  0  0
  184.5520  177.8140  137.9520 O   0  0  0  0  0  0  0  0  0  0  0  0
  185.3160  178.5300  138.6490 C   0  0  0  0  0  0  0  0  0  0  0  0
  186.5380  177.9080  143.0540 C   0  0  0  0  0  2  0  0  0  0  0  0
  184.1940  178.4730  143.5410 C   0  0  0  0  0  3  0  0  0  0  0  0
  185.4340  178.3010  143.9840 C   0  0  0  0  0  3  0  0  0  0  0  0
  183.0970  178.8520  144.4380 C   0  0  0  0  0  0  0  0  0  0  0  0
  183.3190  179.1740  145.6360 O   0  0  0  0  0  0  0  0  0  0  0  0
  181.7020  178.8500  143.9240 C   0  0  0  0  0  1  0  0  0  0  0  0
  1  5  1  1  0  0  0
  1  4  1  0  0  0  0
  2  6  1  0  0  0  0
  3  2  1  0  0  0  0
  3 10  2  0  0  0  0
  4  7  1  0  0  0  0
  7 11  2  0  0  0  0
  7  6  1  0  0  0  0
  8 13  1  1  0  0  0
  8 12  1  0  0  0  0
  8  1  1  0  0  0  0
  9  3  1  0  0  0  0
 12  1  1  0  0  0  0
 12  9  1  1  0  0  0
 13 14  2  0  0  0  0
 15 16  1  6  0  0  0
 15 13  1  0  0  0  0
 17 19  1  0  0  0  0
 17 16  1  0  0  0  0
 19 18  1  0  0  0  0
 20 15  1  0  0  0  0
 21 20  1  0  0  0  0
 23 24  2  0  0  0  0
 24 21  1  0  0  0  0
 24 22  1  0  0  0  0
 25  9  1  0  0  0  0
 25 27  1  0  0  0  0
 26 27  2  0  0  0  0
 26 28  1  0  0  0  0
 28 29  2  0  0  0  0
 30 28  1  0  0  0  0
M  END
>  <MODEL>
4

>  <REMARK>
 VINA RESULT:      -6.0      2.309      6.560
  Name = 
  11 active torsions:
  status: ('A' for Active; 'I' for Inactive)
    1  A    between atoms: C_1  and  C_4
    2  A    between atoms: C_1  and  C_22
    3  A    between atoms: C_4  and  C_9
    4  A    between atoms: C_4  and  O_12
    5  A    between atoms: C_7  and  N_23
    6  A    between atoms: C_7  and  C_25
    7  A    between atoms: C_8  and  O_12
    8  A    between atoms: C_8  and  C_30
    9  A    between atoms: C_9  and  C_21
   10  A    between atoms: C_10  and  C_15
   11  A    between atoms: C_17  and  C_21
                            x       y       z     vdW  Elec       q    Type
                         _______ _______ _______ _____ _____    ______ ____

>  <TORSDO>
F 11

$$$$
=
 OpenBabel10262422013D

 30 31  0  0  1  0  0  0  0  0999 V2000
  190.5580  178.4660  143.2950 C   0  0  2  0  0  0  0  0  0  0  0  0
  189.2080  176.6800  140.3990 C   0  0  0  0  0  2  0  0  0  0  0  0
  188.7060  178.0310  140.7860 C   0  0  0  0  0  0  0  0  0  0  0  0
  190.8030  177.1290  142.7600 N   0  0  0  0  0  2  0  0  0  0  0  0
  191.7510  179.3890  143.4450 C   0  0  0  0  0  1  0  0  0  0  0  0
  190.6310  176.6790  140.3550 O   0  0  0  0  0  0  0  0  0  0  0  0
  191.4120  176.9250  141.4850 C   0  0  0  0  0  0  0  0  0  0  0  0
  189.5080  178.6020  144.3940 C   0  0  1  0  0  3  0  0  0  0  0  0
  188.3440  178.2890  142.1440 N   0  0  0  0  0  0  0  0  0  0  0  0
  188.6760  178.9560  139.9340 O   0  0  0  0  0  0  0  0  0  0  0  0
  192.6640  176.9600  141.3770 O   0  0  0  0  0  0  0  0  0  0  0  0
  189.2220  179.1380  142.9640 C   0  0  2  0  0  3  0  0  0  0  0  0
  188.7290  177.3710  144.8220 C   0  0  0  0  0  0  0  0  0  0  0  0
  188.6770  176.3560  144.1430 O   0  0  0  0  0  0  0  0  0  0  0  0
  188.0470  177.4100  146.1600 C   0  0  1  0  0  3  0  0  0  0  0  0
  186.5520  177.1000  146.0690 C   0  0  0  0  0  2  0  0  0  0  0  0
  185.6980  178.2410  146.5970 C   0  0  0  0  0  2  0  0  0  0  0  0
  183.9500  178.9480  145.0040 C   0  0  0  0  0  1  0  0  0  0  0  0
  185.3720  179.1930  145.4640 C   0  0  0  0  0  2  0  0  0  0  0  0
  188.6890  176.5610  147.0670 O   0  0  0  0  0  0  0  0  0  0  0  0
  189.6210  177.3730  147.7160 C   0  0  0  0  0  2  0  0  0  0  0  0
  191.2350  176.0090  146.3970 O   0  0  0  0  0  0  0  0  0  0  0  0
  191.9310  177.1680  148.2530 O   0  0  0  0  0  1  0  0  0  0  0  0
  190.9950  176.8580  147.4720 C   0  0  0  0  0  0  0  0  0  0  0  0
  186.9410  178.1090  142.5110 C   0  0  0  0  0  2  0  0  0  0  0  0
  184.9680  178.3760  141.0670 C   0  0  0  0  0  3  0  0  0  0  0  0
  186.0390  178.9180  141.6350 C   0  0  0  0  0  3  0  0  0  0  0  0
  184.0670  179.1550  140.2100 C   0  0  0  0  0  0  0  0  0  0  0  0
  184.5170  180.0210  139.4130 O   0  0  0  0  0  0  0  0  0  0  0  0
  182.6010  178.9210  140.2890 C   0  0  0  0  0  1  0  0  0  0  0  0
  1  5  1  1  0  0  0
  1  8  1  0  0  0  0
  2  3  1  0  0  0  0
  3  9  1  0  0  0  0
  4  1  1  0  0  0  0
  6  2  1  0  0  0  0
  6  7  1  0  0  0  0
  7  4  1  0  0  0  0
  8 13  1  6  0  0  0
  9 25  1  0  0  0  0
 10  3  2  0  0  0  0
 11  7  2  0  0  0  0
 12  9  1  6  0  0  0
 12  1  1  0  0  0  0
 12  8  1  0  0  0  0
 13 15  1  0  0  0  0
 14 13  2  0  0  0  0
 15 16  1  6  0  0  0
 15 20  1  0  0  0  0
 16 17  1  0  0  0  0
 18 19  1  0  0  0  0
 19 17  1  0  0  0  0
 20 21  1  0  0  0  0
 22 24  2  0  0  0  0
 24 21  1  0  0  0  0
 24 23  1  0  0  0  0
 26 27  2  0  0  0  0
 27 25  1  0  0  0  0
 28 30  1  0  0  0  0
 28 26  1  0  0  0  0
 29 28  2  0  0  0  0
M  END
>  <MODEL>
5

>  <REMARK>
 VINA RESULT:      -5.8      1.723      2.542
  Name = 
  11 active torsions:
  status: ('A' for Active; 'I' for Inactive)
    1  A    between atoms: C_1  and  C_4
    2  A    between atoms: C_1  and  C_22
    3  A    between atoms: C_4  and  C_9
    4  A    between atoms: C_4  and  O_12
    5  A    between atoms: C_7  and  N_23
    6  A    between atoms: C_7  and  C_25
    7  A    between atoms: C_8  and  O_12
    8  A    between atoms: C_8  and  C_30
    9  A    between atoms: C_9  and  C_21
   10  A    between atoms: C_10  and  C_15
   11  A    between atoms: C_17  and  C_21
                            x       y       z     vdW  Elec       q    Type
                         _______ _______ _______ _____ _____    ______ ____

>  <TORSDO>
F 11

$$$$
=
 OpenBabel10262422013D

 30 31  0  0  1  0  0  0  0  0999 V2000
  189.1750  177.5990  146.1310 C   0  0  2  0  0  0  0  0  0  0  0  0
  191.7450  176.6120  143.7190 C   0  0  0  0  0  2  0  0  0  0  0  0
  191.2890  178.0280  143.8370 C   0  0  0  0  0  0  0  0  0  0  0  0
  189.7280  176.3000  145.7580 N   0  0  0  0  0  2  0  0  0  0  0  0
  189.2610  178.0040  147.5900 C   0  0  0  0  0  1  0  0  0  0  0  0
  192.0540  176.0870  145.0060 O   0  0  0  0  0  0  0  0  0  0  0  0
  191.0920  175.9600  146.0100 C   0  0  0  0  0  0  0  0  0  0  0  0
  187.9010  178.0500  145.4210 C   0  0  1  0  0  3  0  0  0  0  0  0
  189.8900  178.3220  143.8460 N   0  0  0  0  0  0  0  0  0  0  0  0
  192.1310  178.9460  144.0060 O   0  0  0  0  0  0  0  0  0  0  0  0
  191.4320  175.5350  147.1430 O   0  0  0  0  0  0  0  0  0  0  0  0
  189.2590  178.7360  145.1080 C   0  0  2  0  0  3  0  0  0  0  0  0
  187.3200  177.1710  144.3270 C   0  0  0  0  0  0  0  0  0  0  0  0
  187.8210  176.1050  144.0040 O   0  0  0  0  0  0  0  0  0  0  0  0
  186.0500  177.6300  143.6690 C   0  0  1  0  0  3  0  0  0  0  0  0
  185.4370  178.8520  144.3560 C   0  0  0  0  0  2  0  0  0  0  0  0
  184.2130  178.4910  145.1820 C   0  0  0  0  0  2  0  0  0  0  0  0
  182.1340  178.6300  143.8600 C   0  0  0  0  0  1  0  0  0  0  0  0
  183.0570  179.3880  144.7910 C   0  0  0  0  0  2  0  0  0  0  0  0
  186.2540  177.8620  142.3060 O   0  0  0  0  0  0  0  0  0  0  0  0
  185.5950  179.0650  142.0470 C   0  0  0  0  0  2  0  0  0  0  0  0
  183.7730  177.8870  140.8220 O   0  0  0  0  0  1  0  0  0  0  0  0
  184.8370  179.6900  139.8790 O   0  0  0  0  0  0  0  0  0  0  0  0
  184.7130  178.9120  140.8590 C   0  0  0  0  0  0  0  0  0  0  0  0
  189.2660  178.6530  142.5660 C   0  0  0  0  0  2  0  0  0  0  0  0
  189.2800  177.8570  140.2390 C   0  0  0  0  0  3  0  0  0  0  0  0
  189.6530  177.6780  141.5010 C   0  0  0  0  0  3  0  0  0  0  0  0
  189.6550  176.9160  139.1780 C   0  0  0  0  0  0  0  0  0  0  0  0
  188.8040  176.5080  138.3410 O   0  0  0  0  0  0  0  0  0  0  0  0
  191.0580  176.4320  139.0950 C   0  0  0  0  0  1  0  0  0  0  0  0
  1  5  1  1  0  0  0
  2  3  1  0  0  0  0
  2  6  1  0  0  0  0
  3  9  1  0  0  0  0
  3 10  2  0  0  0  0
  4  7  1  0  0  0  0
  4  1  1  0  0  0  0
  6  7  1  0  0  0  0
  7 11  2  0  0  0  0
  8 13  1  6  0  0  0
  8  1  1  0  0  0  0
 12  9  1  6  0  0  0
 12  8  1  0  0  0  0
 12  1  1  0  0  0  0
 14 13  2  0  0  0  0
 15 13  1  0  0  0  0
 15 16  1  1  0  0  0
 16 17  1  0  0  0  0
 18 19  1  0  0  0  0
 19 17  1  0  0  0  0
 20 15  1  0  0  0  0
 21 20  1  0  0  0  0
 22 24  1  0  0  0  0
 23 24  2  0  0  0  0
 24 21  1  0  0  0  0
 25  9  1  0  0  0  0
 26 27  2  0  0  0  0
 27 25  1  0  0  0  0
 28 26  1  0  0  0  0
 29 28  2  0  0  0  0
 30 28  1  0  0  0  0
M  END
>  <MODEL>
6

>  <REMARK>
 VINA RESULT:      -5.7      2.105      6.256
  Name = 
  11 active torsions:
  status: ('A' for Active; 'I' for Inactive)
    1  A    between atoms: C_1  and  C_4
    2  A    between atoms: C_1  and  C_22
    3  A    between atoms: C_4  and  C_9
    4  A    between atoms: C_4  and  O_12
    5  A    between atoms: C_7  and  N_23
    6  A    between atoms: C_7  and  C_25
    7  A    between atoms: C_8  and  O_12
    8  A    between atoms: C_8  and  C_30
    9  A    between atoms: C_9  and  C_21
   10  A    between atoms: C_10  and  C_15
   11  A    between atoms: C_17  and  C_21
                            x       y       z     vdW  Elec       q    Type
                         _______ _______ _______ _____ _____    ______ ____

>  <TORSDO>
F 11

$$$$
=
 OpenBabel10262422013D

 30 31  0  0  1  0  0  0  0  0999 V2000
  189.8910  178.2930  144.7250 C   0  0  2  0  0  0  0  0  0  0  0  0
  191.2550  175.2510  143.2140 C   0  0  0  0  0  2  0  0  0  0  0  0
  191.0710  176.5000  142.4200 C   0  0  0  0  0  0  0  0  0  0  0  0
  190.0890  176.9410  145.2400 N   0  0  0  0  0  2  0  0  0  0  0  0
  190.5520  179.4320  145.4750 C   0  0  0  0  0  1  0  0  0  0  0  0
  191.9330  175.5390  144.4330 O   0  0  0  0  0  0  0  0  0  0  0  0
  191.3910  176.3790  145.4070 C   0  0  0  0  0  0  0  0  0  0  0  0
  188.5210  178.6280  144.1400 C   0  0  1  0  0  3  0  0  0  0  0  0
  189.8240  177.1970  142.4770 N   0  0  0  0  0  0  0  0  0  0  0  0
  192.0340  176.9770  141.7670 O   0  0  0  0  0  0  0  0  0  0  0  0
  192.0560  176.6370  146.4420 O   0  0  0  0  0  0  0  0  0  0  0  0
  189.7550  178.4710  143.2090 C   0  0  2  0  0  3  0  0  0  0  0  0
  187.4690  177.5350  144.0590 C   0  0  0  0  0  0  0  0  0  0  0  0
  187.7030  176.3730  144.3570 O   0  0  0  0  0  0  0  0  0  0  0  0
  186.0820  177.9350  143.6440 C   0  0  1  0  0  3  0  0  0  0  0  0
  185.3930  178.8320  144.6740 C   0  0  0  0  0  2  0  0  0  0  0  0
  185.3280  178.1830  146.0460 C   0  0  0  0  0  2  0  0  0  0  0  0
  187.1800  178.2530  147.6770 C   0  0  0  0  0  1  0  0  0  0  0  0
  186.0560  179.0530  147.0520 C   0  0  0  0  0  2  0  0  0  0  0  0
  186.0960  178.5300  142.3780 O   0  0  0  0  0  0  0  0  0  0  0  0
  184.7570  178.8140  142.1050 C   0  0  0  0  0  2  0  0  0  0  0  0
  183.4960  177.9250  140.1480 O   0  0  0  0  0  1  0  0  0  0  0  0
  185.2480  179.3780  139.8440 O   0  0  0  0  0  0  0  0  0  0  0  0
  184.5150  178.7350  140.6390 C   0  0  0  0  0  0  0  0  0  0  0  0
  188.8310  176.8810  141.4520 C   0  0  0  0  0  2  0  0  0  0  0  0
  188.6510  178.1540  139.3550 C   0  0  0  0  0  3  0  0  0  0  0  0
  189.3120  177.2660  140.0890 C   0  0  0  0  0  3  0  0  0  0  0  0
  189.1090  178.5500  138.0190 C   0  0  0  0  0  0  0  0  0  0  0  0
  189.0540  179.7520  137.6430 O   0  0  0  0  0  0  0  0  0  0  0  0
  189.6390  177.5150  137.0930 C   0  0  0  0  0  1  0  0  0  0  0  0
  1  4  1  0  0  0  0
  1  5  1  1  0  0  0
  2  6  1  0  0  0  0
  3  9  1  0  0  0  0
  3  2  1  0  0  0  0
  4  7  1  0  0  0  0
  6  7  1  0  0  0  0
  7 11  2  0  0  0  0
  8 13  1  6  0  0  0
  8  1  1  0  0  0  0
 10  3  2  0  0  0  0
 12  9  1  6  0  0  0
 12  8  1  0  0  0  0
 12  1  1  0  0  0  0
 13 14  2  0  0  0  0
 15 13  1  0  0  0  0
 15 16  1  1  0  0  0
 16 17  1  0  0  0  0
 17 19  1  0  0  0  0
 19 18  1  0  0  0  0
 20 15  1  0  0  0  0
 21 20  1  0  0  0  0
 22 24  1  0  0  0  0
 23 24  2  0  0  0  0
 24 21  1  0  0  0  0
 25  9  1  0  0  0  0
 26 27  2  0  0  0  0
 27 25  1  0  0  0  0
 28 26  1  0  0  0  0
 29 28  2  0  0  0  0
 30 28  1  0  0  0  0
M  END
>  <MODEL>
7

>  <REMARK>
 VINA RESULT:      -5.6      2.002      5.803
  Name = 
  11 active torsions:
  status: ('A' for Active; 'I' for Inactive)
    1  A    between atoms: C_1  and  C_4
    2  A    between atoms: C_1  and  C_22
    3  A    between atoms: C_4  and  C_9
    4  A    between atoms: C_4  and  O_12
    5  A    between atoms: C_7  and  N_23
    6  A    between atoms: C_7  and  C_25
    7  A    between atoms: C_8  and  O_12
    8  A    between atoms: C_8  and  C_30
    9  A    between atoms: C_9  and  C_21
   10  A    between atoms: C_10  and  C_15
   11  A    between atoms: C_17  and  C_21
                            x       y       z     vdW  Elec       q    Type
                         _______ _______ _______ _____ _____    ______ ____

>  <TORSDO>
F 11

$$$$
=
 OpenBabel10262422013D

 30 31  0  0  1  0  0  0  0  0999 V2000
  189.5920  177.2000  140.2700 C   0  0  2  0  0  0  0  0  0  0  0  0
  191.2660  177.1390  143.5250 C   0  0  0  0  0  2  0  0  0  0  0  0
  190.2750  176.0930  143.1380 C   0  0  0  0  0  0  0  0  0  0  0  0
  190.5150  178.1260  140.9210 N   0  0  0  0  0  2  0  0  0  0  0  0
  189.9930  176.6450  138.9180 C   0  0  0  0  0  1  0  0  0  0  0  0
  192.2220  177.3180  142.4850 O   0  0  0  0  0  0  0  0  0  0  0  0
  191.8650  177.7660  141.2120 C   0  0  0  0  0  0  0  0  0  0  0  0
  188.0980  177.4720  140.4280 C   0  0  1  0  0  3  0  0  0  0  0  0
  189.0110  176.4820  142.5950 N   0  0  0  0  0  0  0  0  0  0  0  0
  190.5830  174.8770  143.2190 O   0  0  0  0  0  0  0  0  0  0  0  0
  192.7450  177.8580  140.3190 O   0  0  0  0  0  0  0  0  0  0  0  0
  188.7590  176.2730  141.1610 C   0  0  2  0  0  3  0  0  0  0  0  0
  187.6500  178.6330  141.2980 C   0  0  0  0  0  0  0  0  0  0  0  0
  188.4360  179.4270  141.7930 O   0  0  0  0  0  0  0  0  0  0  0  0
  186.1730  178.8210  141.5000 C   0  0  1  0  0  3  0  0  0  0  0  0
  185.8270  179.2890  142.9150 C   0  0  0  0  0  2  0  0  0  0  0  0
  184.7360  178.4410  143.5480 C   0  0  0  0  0  2  0  0  0  0  0  0
  182.4060  178.6280  144.3420 C   0  0  0  0  0  1  0  0  0  0  0  0
  183.7400  179.3400  144.2520 C   0  0  0  0  0  2  0  0  0  0  0  0
  185.6470  179.6840  140.5350 O   0  0  0  0  0  0  0  0  0  0  0  0
  184.5640  178.9910  139.9910 C   0  0  0  0  0  2  0  0  0  0  0  0
  186.0450  178.9570  137.9870 O   0  0  0  0  0  0  0  0  0  0  0  0
  184.2110  177.5820  138.1060 O   0  0  0  0  0  1  0  0  0  0  0  0
  184.9280  178.4590  138.6500 C   0  0  0  0  0  0  0  0  0  0  0  0
  187.8940  176.6200  143.5280 C   0  0  0  0  0  2  0  0  0  0  0  0
  187.6670  177.5770  145.7820 C   0  0  0  0  0  3  0  0  0  0  0  0
  188.3730  176.8480  144.9260 C   0  0  0  0  0  3  0  0  0  0  0  0
  188.1170  177.8080  147.1590 C   0  0  0  0  0  0  0  0  0  0  0  0
  187.3310  178.2690  148.0300 O   0  0  0  0  0  0  0  0  0  0  0  0
  189.5230  177.4970  147.5290 C   0  0  0  0  0  1  0  0  0  0  0  0
  1  5  1  6  0  0  0
  1  8  1  0  0  0  0
  1  4  1  0  0  0  0
  1 12  1  0  0  0  0
  3 10  2  0  0  0  0
  3  2  1  0  0  0  0
  4  7  1  0  0  0  0
  6  2  1  0  0  0  0
  7  6  1  0  0  0  0
  8 12  1  0  0  0  0
  8 13  1  1  0  0  0
  9  3  1  0  0  0  0
  9 25  1  0  0  0  0
 11  7  2  0  0  0  0
 12  9  1  1  0  0  0
 13 15  1  0  0  0  0
 13 14  2  0  0  0  0
 15 16  1  1  0  0  0
 16 17  1  0  0  0  0
 17 19  1  0  0  0  0
 19 18  1  0  0  0  0
 20 15  1  0  0  0  0
 21 20  1  0  0  0  0
 22 24  2  0  0  0  0
 23 24  1  0  0  0  0
 24 21  1  0  0  0  0
 25 27  1  0  0  0  0
 26 28  1  0  0  0  0
 27 26  2  0  0  0  0
 28 30  1  0  0  0  0
 28 29  2  0  0  0  0
M  END
>  <MODEL>
8

>  <REMARK>
 VINA RESULT:      -5.5      2.097      6.072
  Name = 
  11 active torsions:
  status: ('A' for Active; 'I' for Inactive)
    1  A    between atoms: C_1  and  C_4
    2  A    between atoms: C_1  and  C_22
    3  A    between atoms: C_4  and  C_9
    4  A    between atoms: C_4  and  O_12
    5  A    between atoms: C_7  and  N_23
    6  A    between atoms: C_7  and  C_25
    7  A    between atoms: C_8  and  O_12
    8  A    between atoms: C_8  and  C_30
    9  A    between atoms: C_9  and  C_21
   10  A    between atoms: C_10  and  C_15
   11  A    between atoms: C_17  and  C_21
                            x       y       z     vdW  Elec       q    Type
                         _______ _______ _______ _____ _____    ______ ____

>  <TORSDO>
F 11

$$$$
=
 OpenBabel10262422013D

 30 31  0  0  1  0  0  0  0  0999 V2000
  190.7770  175.8000  143.6850 C   0  0  2  0  0  0  0  0  0  0  0  0
  189.1400  178.2620  145.8430 C   0  0  0  0  0  2  0  0  0  0  0  0
  188.3520  177.2750  145.0490 C   0  0  0  0  0  0  0  0  0  0  0  0
  191.2930  176.9090  144.4820 N   0  0  0  0  0  2  0  0  0  0  0  0
  191.3280  174.4170  143.9680 C   0  0  0  0  0  1  0  0  0  0  0  0
  190.1800  177.6010  146.5560 O   0  0  0  0  0  0  0  0  0  0  0  0
  191.2110  176.9180  145.9080 C   0  0  0  0  0  0  0  0  0  0  0  0
  190.4750  176.0740  142.2140 C   0  0  1  0  0  3  0  0  0  0  0  0
  188.6370  177.0950  143.6600 N   0  0  0  0  0  0  0  0  0  0  0  0
  187.4960  176.5520  145.6190 O   0  0  0  0  0  0  0  0  0  0  0  0
  192.0750  176.3100  146.5880 O   0  0  0  0  0  0  0  0  0  0  0  0
  189.3160  175.8650  143.2280 C   0  0  2  0  0  3  0  0  0  0  0  0
  190.6560  177.4830  141.6760 C   0  0  0  0  0  0  0  0  0  0  0  0
  190.9880  178.4210  142.3860 O   0  0  0  0  0  0  0  0  0  0  0  0
  190.4640  177.6940  140.2020 C   0  0  1  0  0  3  0  0  0  0  0  0
  191.6170  177.1280  139.3700 C   0  0  0  0  0  2  0  0  0  0  0  0
  191.1740  175.9680  138.4940 C   0  0  0  0  0  2  0  0  0  0  0  0
  193.2130  176.0140  137.1030 C   0  0  0  0  0  1  0  0  0  0  0  0
  191.7060  176.1640  137.0880 C   0  0  0  0  0  2  0  0  0  0  0  0
  189.2330  177.1790  139.7830 O   0  0  0  0  0  0  0  0  0  0  0  0
  188.5540  178.2740  139.2470 C   0  0  0  0  0  2  0  0  0  0  0  0
  187.7910  176.5290  137.6400 O   0  0  0  0  0  1  0  0  0  0  0  0
  186.8640  178.6290  137.6080 O   0  0  0  0  0  0  0  0  0  0  0  0
  187.6800  177.8260  138.1280 C   0  0  0  0  0  0  0  0  0  0  0  0
  187.8520  177.8780  142.7070 C   0  0  0  0  0  2  0  0  0  0  0  0
  185.5790  178.8180  142.6490 C   0  0  0  0  0  3  0  0  0  0  0  0
  186.3950  177.8470  143.0430 C   0  0  0  0  0  3  0  0  0  0  0  0
  184.1470  178.8020  142.9630 C   0  0  0  0  0  0  0  0  0  0  0  0
  183.2850  178.6270  142.0590 O   0  0  0  0  0  0  0  0  0  0  0  0
  183.7060  179.0030  144.3680 C   0  0  0  0  0  1  0  0  0  0  0  0
  1  5  1  1  0  0  0
  1  4  1  0  0  0  0
  2  6  1  0  0  0  0
  3 10  2  0  0  0  0
  3  2  1  0  0  0  0
  4  7  1  0  0  0  0
  7  6  1  0  0  0  0
  7 11  2  0  0  0  0
  8 13  1  1  0  0  0
  8 12  1  0  0  0  0
  8  1  1  0  0  0  0
  9  3  1  0  0  0  0
 12  9  1  1  0  0  0
 12  1  1  0  0  0  0
 13 14  2  0  0  0  0
 15 16  1  6  0  0  0
 15 13  1  0  0  0  0
 17 16  1  0  0  0  0
 19 18  1  0  0  0  0
 19 17  1  0  0  0  0
 20 15  1  0  0  0  0
 21 20  1  0  0  0  0
 22 24  1  0  0  0  0
 23 24  2  0  0  0  0
 24 21  1  0  0  0  0
 25 27  1  0  0  0  0
 25  9  1  0  0  0  0
 26 28  1  0  0  0  0
 26 27  2  0  0  0  0
 28 30  1  0  0  0  0
 29 28  2  0  0  0  0
M  END
>  <MODEL>
9

>  <REMARK>
 VINA RESULT:      -5.5      2.008      6.496
  Name = 
  11 active torsions:
  status: ('A' for Active; 'I' for Inactive)
    1  A    between atoms: C_1  and  C_4
    2  A    between atoms: C_1  and  C_22
    3  A    between atoms: C_4  and  C_9
    4  A    between atoms: C_4  and  O_12
    5  A    between atoms: C_7  and  N_23
    6  A    between atoms: C_7  and  C_25
    7  A    between atoms: C_8  and  O_12
    8  A    between atoms: C_8  and  C_30
    9  A    between atoms: C_9  and  C_21
   10  A    between atoms: C_10  and  C_15
   11  A    between atoms: C_17  and  C_21
                            x       y       z     vdW  Elec       q    Type
                         _______ _______ _______ _____ _____    ______ ____

>  <TORSDO>
F 11

$$$$
