=
 OpenBabel10252414523D

 34 35  0  0  1  0  0  0  0  0999 V2000
  190.6550  176.7690  146.7900 C   0  0  2  0  0  3  0  0  0  0  0  0
  189.7940  177.1420  144.4370 C   0  0  1  0  0  3  0  0  0  0  0  0
  191.0040  177.2800  145.3810 C   0  0  2  0  0  3  0  0  0  0  0  0
  188.4570  177.5730  145.0940 C   0  0  2  0  0  3  0  0  0  0  0  0
  189.5180  177.5210  147.3040 N   0  0  0  0  0  2  0  0  0  0  0  0
  188.3440  177.1170  146.5460 C   0  0  0  0  0  2  0  0  0  0  0  0
  192.0840  176.5610  144.8520 O   0  0  0  0  0  0  0  0  0  0  0  0
  191.6550  175.2300  144.8240 C   0  0  0  0  0  1  0  0  0  0  0  0
  192.4750  175.6000  148.0310 C   0  0  0  0  0  1  0  0  0  0  0  0
  191.8220  176.9410  147.7470 C   0  0  0  0  0  2  0  0  0  0  0  0
  187.4480  175.9660  143.6040 O   0  0  0  0  0  1  0  0  0  0  0  0
  187.2990  177.1040  144.3260 N   0  0  0  0  0  0  0  0  0  0  0  0
  184.0840  178.6080  143.0730 C   0  0  0  0  0  0  0  0  0  0  0  0
  183.5550  179.1380  144.2550 C   0  0  0  0  0  3  0  0  0  0  0  0
  186.0370  177.8060  144.2910 C   0  0  0  0  0  0  0  0  0  0  0  0
  184.2670  179.0130  145.4510 C   0  0  0  0  0  3  0  0  0  0  0  0
  185.3190  177.9530  143.0910 C   0  0  0  0  0  3  0  0  0  0  0  0
  185.5010  178.3490  145.4680 C   0  0  0  0  0  3  0  0  0  0  0  0
  183.3390  178.7500  141.7940 C   0  0  0  0  0  1  0  0  0  0  0  0
  190.0650  177.8500  143.0890 C   0  0  2  0  0  3  0  0  0  0  0  0
  190.6530  175.7540  142.0480 O   0  0  0  0  0  0  0  0  0  0  0  0
  190.1690  176.9100  141.8980 C   0  0  0  0  0  0  0  0  0  0  0  0
  189.6730  177.2700  140.6020 N   0  0  0  0  0  2  0  0  0  0  0  0
  188.8220  178.4150  140.3240 C   0  0  0  0  0  2  0  0  0  0  0  0
  189.0290  178.8880  138.8920 C   0  0  0  0  0  2  0  0  0  0  0  0
  188.6250  177.8560  137.9370 N   0  0  0  0  0  0  0  0  0  0  0  0
  189.2960  177.6130  135.6310 C   0  0  0  0  0  2  0  0  0  0  0  0
  189.5260  177.3760  136.9170 C   0  0  0  0  0  0  0  0  0  0  0  0
  190.7650  176.6260  137.2780 C   0  0  0  0  0  1  0  0  0  0  0  0
  187.2850  177.2910  138.0600 C   0  0  0  0  0  2  0  0  0  0  0  0
  185.0480  178.2600  138.4840 C   0  0  0  0  0  1  0  0  0  0  0  0
  186.2370  178.2640  137.5460 C   0  0  0  0  0  2  0  0  0  0  0  0
  191.2830  178.7600  143.1970 C   0  0  0  0  0  2  0  0  0  0  0  0
  190.9530  179.9270  143.8940 O   0  0  0  0  0  1  0  0  0  0  0  0
  1  5  1  0  0  0  0
  1 10  1  1  0  0  0
  2 20  1  6  0  0  0
  2  4  1  0  0  0  0
  2  3  1  0  0  0  0
  3  7  1  6  0  0  0
  3  1  1  0  0  0  0
  4 12  1  6  0  0  0
  4  6  1  0  0  0  0
  6  5  1  0  0  0  0
  8  7  1  0  0  0  0
 10  9  1  0  0  0  0
 11 12  1  0  0  0  0
 13 17  2  0  0  0  0
 13 14  1  0  0  0  0
 14 16  2  0  0  0  0
 15 12  1  0  0  0  0
 15 18  2  0  0  0  0
 16 18  1  0  0  0  0
 17 15  1  0  0  0  0
 19 13  1  0  0  0  0
 20 33  1  1  0  0  0
 22 21  2  0  0  0  0
 22 20  1  0  0  0  0
 23 22  1  0  0  0  0
 24 23  1  0  0  0  0
 25 24  1  0  0  0  0
 26 30  1  0  0  0  0
 26 25  1  0  0  0  0
 27 28  2  0  0  0  0
 28 29  1  0  0  0  0
 28 26  1  0  0  0  0
 32 30  1  0  0  0  0
 32 31  1  0  0  0  0
 33 34  1  0  0  0  0
M  END
>  <MODEL>
1

>  <REMARK>
 VINA RESULT:      -7.2      0.000      0.000
  Name = 
  13 active torsions:
  status: ('A' for Active; 'I' for Inactive)
    1  A    between atoms: C_1  and  C_19
    2  A    between atoms: O_2  and  C_15
    3  A    between atoms: C_3  and  N_13
    4  A    between atoms: C_3  and  C_17
    5  A    between atoms: C_4  and  C_31
    6  A    between atoms: C_10  and  C_31
    7  A    between atoms: C_12  and  N_28
    8  A    between atoms: N_13  and  C_14
    9  A    between atoms: N_13  and  C_33
   10  A    between atoms: C_17  and  N_29
   11  A    between atoms: C_18  and  C_31
   12  A    between atoms: C_21  and  N_28
   13  A    between atoms: C_22  and  C_33
                            x       y       z     vdW  Elec       q    Type
                         _______ _______ _______ _____ _____    ______ ____

>  <TORSDO>
F 13

$$$$
=
 OpenBabel10252414523D

 34 35  0  0  1  0  0  0  0  0999 V2000
  190.6680  176.7690  146.8390 C   0  0  2  0  0  3  0  0  0  0  0  0
  189.8290  177.1560  144.4800 C   0  0  1  0  0  3  0  0  0  0  0  0
  191.0280  177.2930  145.4370 C   0  0  2  0  0  3  0  0  0  0  0  0
  188.4840  177.5760  145.1260 C   0  0  2  0  0  3  0  0  0  0  0  0
  189.5220  177.5110  147.3470 N   0  0  0  0  0  2  0  0  0  0  0  0
  188.3570  177.1070  146.5740 C   0  0  0  0  0  2  0  0  0  0  0  0
  192.1180  176.5830  144.9150 O   0  0  0  0  0  0  0  0  0  0  0  0
  191.6900  175.2530  144.8580 C   0  0  0  0  0  1  0  0  0  0  0  0
  192.5190  175.6080  148.0410 C   0  0  0  0  0  1  0  0  0  0  0  0
  191.8240  176.9380  147.8090 C   0  0  0  0  0  2  0  0  0  0  0  0
  187.5010  175.9840  143.6030 O   0  0  0  0  0  1  0  0  0  0  0  0
  187.3360  177.1080  144.3430 N   0  0  0  0  0  0  0  0  0  0  0  0
  184.1020  178.5790  143.0990 C   0  0  0  0  0  0  0  0  0  0  0  0
  183.5710  179.1040  144.2820 C   0  0  0  0  0  3  0  0  0  0  0  0
  186.0660  177.7970  144.3110 C   0  0  0  0  0  0  0  0  0  0  0  0
  184.2880  178.9860  145.4760 C   0  0  0  0  0  3  0  0  0  0  0  0
  185.3440  177.9370  143.1130 C   0  0  0  0  0  3  0  0  0  0  0  0
  185.5280  178.3350  145.4900 C   0  0  0  0  0  3  0  0  0  0  0  0
  183.3520  178.7130  141.8210 C   0  0  0  0  0  1  0  0  0  0  0  0
  190.1110  177.8770  143.1400 C   0  0  2  0  0  3  0  0  0  0  0  0
  190.8800  175.8820  142.0230 O   0  0  0  0  0  0  0  0  0  0  0  0
  190.2120  176.9490  141.9410 C   0  0  0  0  0  0  0  0  0  0  0  0
  189.5160  177.2140  140.7150 N   0  0  0  0  0  2  0  0  0  0  0  0
  188.4740  178.2140  140.5490 C   0  0  0  0  0  2  0  0  0  0  0  0
  188.3950  178.6530  139.0940 C   0  0  0  0  0  2  0  0  0  0  0  0
  187.7590  177.6240  138.2710 N   0  0  0  0  0  0  0  0  0  0  0  0
  185.8400  176.9000  136.9990 C   0  0  0  0  0  2  0  0  0  0  0  0
  186.3550  177.6810  137.9400 C   0  0  0  0  0  0  0  0  0  0  0  0
  185.4300  178.5970  138.6710 C   0  0  0  0  0  1  0  0  0  0  0  0
  188.5940  176.5430  137.7560 C   0  0  0  0  0  2  0  0  0  0  0  0
  191.0250  176.5250  137.2980 C   0  0  0  0  0  1  0  0  0  0  0  0
  189.6900  177.0870  136.8550 C   0  0  0  0  0  2  0  0  0  0  0  0
  191.3350  178.7770  143.2640 C   0  0  0  0  0  2  0  0  0  0  0  0
  190.9940  179.9700  143.9100 O   0  0  0  0  0  1  0  0  0  0  0  0
  1  5  1  0  0  0  0
  1 10  1  1  0  0  0
  2 20  1  6  0  0  0
  2  4  1  0  0  0  0
  2  3  1  0  0  0  0
  3  7  1  6  0  0  0
  3  1  1  0  0  0  0
  4 12  1  6  0  0  0
  4  6  1  0  0  0  0
  6  5  1  0  0  0  0
  8  7  1  0  0  0  0
 10  9  1  0  0  0  0
 11 12  1  0  0  0  0
 13 17  2  0  0  0  0
 13 14  1  0  0  0  0
 14 16  2  0  0  0  0
 15 12  1  0  0  0  0
 15 18  2  0  0  0  0
 16 18  1  0  0  0  0
 17 15  1  0  0  0  0
 19 13  1  0  0  0  0
 20 33  1  1  0  0  0
 22 21  2  0  0  0  0
 22 20  1  0  0  0  0
 23 22  1  0  0  0  0
 24 23  1  0  0  0  0
 25 24  1  0  0  0  0
 26 25  1  0  0  0  0
 27 28  2  0  0  0  0
 28 26  1  0  0  0  0
 28 29  1  0  0  0  0
 30 26  1  0  0  0  0
 32 31  1  0  0  0  0
 32 30  1  0  0  0  0
 33 34  1  0  0  0  0
M  END
>  <MODEL>
2

>  <REMARK>
 VINA RESULT:      -7.1      0.466      1.862
  Name = 
  13 active torsions:
  status: ('A' for Active; 'I' for Inactive)
    1  A    between atoms: C_1  and  C_19
    2  A    between atoms: O_2  and  C_15
    3  A    between atoms: C_3  and  N_13
    4  A    between atoms: C_3  and  C_17
    5  A    between atoms: C_4  and  C_31
    6  A    between atoms: C_10  and  C_31
    7  A    between atoms: C_12  and  N_28
    8  A    between atoms: N_13  and  C_14
    9  A    between atoms: N_13  and  C_33
   10  A    between atoms: C_17  and  N_29
   11  A    between atoms: C_18  and  C_31
   12  A    between atoms: C_21  and  N_28
   13  A    between atoms: C_22  and  C_33
                            x       y       z     vdW  Elec       q    Type
                         _______ _______ _______ _____ _____    ______ ____

>  <TORSDO>
F 13

$$$$
=
 OpenBabel10252414523D

 34 35  0  0  1  0  0  0  0  0999 V2000
  180.9290  179.3700  142.8190 C   0  0  2  0  0  3  0  0  0  0  0  0
  182.9590  178.8860  141.3830 C   0  0  1  0  0  3  0  0  0  0  0  0
  181.4220  178.8260  141.4660 C   0  0  2  0  0  3  0  0  0  0  0  0
  183.6580  178.4260  142.6880 C   0  0  2  0  0  3  0  0  0  0  0  0
  181.5290  178.5930  143.8940 N   0  0  0  0  0  2  0  0  0  0  0  0
  182.9450  178.9260  143.9420 C   0  0  0  0  0  2  0  0  0  0  0  0
  180.8750  179.5670  140.4100 O   0  0  0  0  0  0  0  0  0  0  0  0
  179.7880  178.8100  139.9600 C   0  0  0  0  0  1  0  0  0  0  0  0
  179.0010  179.2660  144.3970 C   0  0  0  0  0  1  0  0  0  0  0  0
  179.4180  179.2760  142.9360 C   0  0  0  0  0  2  0  0  0  0  0  0
  185.4470  179.8460  141.9110 O   0  0  0  0  0  1  0  0  0  0  0  0
  185.0680  178.8230  142.7180 N   0  0  0  0  0  0  0  0  0  0  0  0
  188.0910  176.8420  143.7720 C   0  0  0  0  0  0  0  0  0  0  0  0
  188.0020  176.9340  145.1650 C   0  0  0  0  0  3  0  0  0  0  0  0
  186.0590  178.1670  143.5410 C   0  0  0  0  0  0  0  0  0  0  0  0
  186.9400  177.6310  145.7480 C   0  0  0  0  0  3  0  0  0  0  0  0
  187.1220  177.4480  142.9670 C   0  0  0  0  0  3  0  0  0  0  0  0
  185.9750  178.2460  144.9390 C   0  0  0  0  0  3  0  0  0  0  0  0
  189.2100  176.0900  143.1450 C   0  0  0  0  0  1  0  0  0  0  0  0
  183.4710  178.1440  140.1260 C   0  0  2  0  0  3  0  0  0  0  0  0
  183.7660  180.2920  139.0700 O   0  0  0  0  0  0  0  0  0  0  0  0
  184.0150  179.0560  139.0390 C   0  0  0  0  0  0  0  0  0  0  0  0
  184.8670  178.5670  137.9940 N   0  0  0  0  0  2  0  0  0  0  0  0
  185.4990  177.2580  137.9780 C   0  0  0  0  0  2  0  0  0  0  0  0
  186.5260  177.1840  136.8570 C   0  0  0  0  0  2  0  0  0  0  0  0
  187.8790  177.0380  137.3950 N   0  0  0  0  0  0  0  0  0  0  0  0
  188.9990  179.1740  137.3030 C   0  0  0  0  0  2  0  0  0  0  0  0
  188.5670  178.1430  138.0190 C   0  0  0  0  0  0  0  0  0  0  0  0
  188.7870  178.1760  139.4950 C   0  0  0  0  0  1  0  0  0  0  0  0
  188.5120  175.7250  137.3170 C   0  0  0  0  0  2  0  0  0  0  0  0
  189.9260  175.4700  135.3030 C   0  0  0  0  0  1  0  0  0  0  0  0
  189.9260  175.8370  136.7730 C   0  0  0  0  0  2  0  0  0  0  0  0
  182.4010  177.2000  139.5880 C   0  0  0  0  0  2  0  0  0  0  0  0
  182.7930  175.8700  139.7710 O   0  0  0  0  0  1  0  0  0  0  0  0
  1 10  1  6  0  0  0
  1  5  1  0  0  0  0
  2 20  1  6  0  0  0
  2  3  1  0  0  0  0
  2  4  1  0  0  0  0
  3  7  1  6  0  0  0
  3  1  1  0  0  0  0
  4 12  1  6  0  0  0
  4  6  1  0  0  0  0
  5  6  1  0  0  0  0
  8  7  1  0  0  0  0
 10  9  1  0  0  0  0
 11 12  1  0  0  0  0
 12 15  1  0  0  0  0
 13 14  1  0  0  0  0
 14 16  2  0  0  0  0
 15 18  2  0  0  0  0
 17 15  1  0  0  0  0
 17 13  2  0  0  0  0
 18 16  1  0  0  0  0
 19 13  1  0  0  0  0
 20 33  1  6  0  0  0
 22 21  2  0  0  0  0
 22 20  1  0  0  0  0
 23 22  1  0  0  0  0
 24 23  1  0  0  0  0
 25 26  1  0  0  0  0
 25 24  1  0  0  0  0
 26 28  1  0  0  0  0
 27 28  2  0  0  0  0
 28 29  1  0  0  0  0
 30 26  1  0  0  0  0
 31 32  1  0  0  0  0
 32 30  1  0  0  0  0
 33 34  1  0  0  0  0
M  END
>  <MODEL>
3

>  <REMARK>
 VINA RESULT:      -6.6      3.246      7.301
  Name = 
  13 active torsions:
  status: ('A' for Active; 'I' for Inactive)
    1  A    between atoms: C_1  and  C_19
    2  A    between atoms: O_2  and  C_15
    3  A    between atoms: C_3  and  N_13
    4  A    between atoms: C_3  and  C_17
    5  A    between atoms: C_4  and  C_31
    6  A    between atoms: C_10  and  C_31
    7  A    between atoms: C_12  and  N_28
    8  A    between atoms: N_13  and  C_14
    9  A    between atoms: N_13  and  C_33
   10  A    between atoms: C_17  and  N_29
   11  A    between atoms: C_18  and  C_31
   12  A    between atoms: C_21  and  N_28
   13  A    between atoms: C_22  and  C_33
                            x       y       z     vdW  Elec       q    Type
                         _______ _______ _______ _____ _____    ______ ____

>  <TORSDO>
F 13

$$$$
=
 OpenBabel10252414523D

 34 35  0  0  1  0  0  0  0  0999 V2000
  181.4530  179.3450  143.0530 C   0  0  2  0  0  3  0  0  0  0  0  0
  183.3250  178.7570  141.4500 C   0  0  1  0  0  3  0  0  0  0  0  0
  181.8050  178.7050  141.6980 C   0  0  2  0  0  3  0  0  0  0  0  0
  184.1590  178.3900  142.7050 C   0  0  2  0  0  3  0  0  0  0  0  0
  182.1670  178.6460  144.1120 N   0  0  0  0  0  2  0  0  0  0  0  0
  183.5780  178.9790  143.9880 C   0  0  0  0  0  2  0  0  0  0  0  0
  181.1470  179.3710  140.6550 O   0  0  0  0  0  0  0  0  0  0  0  0
  180.0230  178.5860  140.3770 C   0  0  0  0  0  1  0  0  0  0  0  0
  179.6760  178.1610  144.3390 C   0  0  0  0  0  1  0  0  0  0  0  0
  179.9630  179.2620  143.3340 C   0  0  0  0  0  2  0  0  0  0  0  0
  185.8340  179.8340  141.7410 O   0  0  0  0  0  1  0  0  0  0  0  0
  185.5630  178.7860  142.5590 N   0  0  0  0  0  0  0  0  0  0  0  0
  187.7980  177.4030  145.2530 C   0  0  0  0  0  0  0  0  0  0  0  0
  188.7550  176.7270  144.4900 C   0  0  0  0  0  3  0  0  0  0  0  0
  186.6510  178.1030  143.2210 C   0  0  0  0  0  0  0  0  0  0  0  0
  188.6690  176.7450  143.0950 C   0  0  0  0  0  3  0  0  0  0  0  0
  186.7580  178.0920  144.6230 C   0  0  0  0  0  3  0  0  0  0  0  0
  187.6210  177.4290  142.4640 C   0  0  0  0  0  3  0  0  0  0  0  0
  187.8920  177.4010  146.7380 C   0  0  0  0  0  1  0  0  0  0  0  0
  183.7070  177.9270  140.2020 C   0  0  2  0  0  3  0  0  0  0  0  0
  183.1150  179.5590  138.5280 O   0  0  0  0  0  0  0  0  0  0  0  0
  183.9870  178.7570  138.9600 C   0  0  0  0  0  0  0  0  0  0  0  0
  185.2510  178.7070  138.2840 N   0  0  0  0  0  2  0  0  0  0  0  0
  186.4540  178.0860  138.8110 C   0  0  0  0  0  2  0  0  0  0  0  0
  187.5310  178.0290  137.7360 C   0  0  0  0  0  2  0  0  0  0  0  0
  187.7570  176.6520  137.2960 N   0  0  0  0  0  0  0  0  0  0  0  0
  186.0630  176.3730  135.6000 C   0  0  0  0  0  2  0  0  0  0  0  0
  186.7210  175.8860  136.6450 C   0  0  0  0  0  0  0  0  0  0  0  0
  186.3810  174.5080  137.1050 C   0  0  0  0  0  1  0  0  0  0  0  0
  189.0810  176.0740  137.5020 C   0  0  0  0  0  2  0  0  0  0  0  0
  191.1980  176.2180  138.7740 C   0  0  0  0  0  1  0  0  0  0  0  0
  189.9130  176.9430  138.4300 C   0  0  0  0  0  2  0  0  0  0  0  0
  182.6630  176.8480  139.9370 C   0  0  0  0  0  2  0  0  0  0  0  0
  183.1260  175.9560  138.9640 O   0  0  0  0  0  1  0  0  0  0  0  0
  1 10  1  1  0  0  0
  1  5  1  0  0  0  0
  2 20  1  6  0  0  0
  2  3  1  0  0  0  0
  2  4  1  0  0  0  0
  3  7  1  6  0  0  0
  3  1  1  0  0  0  0
  4 12  1  6  0  0  0
  4  6  1  0  0  0  0
  6  5  1  0  0  0  0
  8  7  1  0  0  0  0
 10  9  1  0  0  0  0
 11 12  1  0  0  0  0
 12 15  1  0  0  0  0
 13 19  1  0  0  0  0
 14 13  2  0  0  0  0
 15 17  2  0  0  0  0
 16 14  1  0  0  0  0
 17 13  1  0  0  0  0
 18 16  2  0  0  0  0
 18 15  1  0  0  0  0
 20 33  1  6  0  0  0
 21 22  2  0  0  0  0
 22 20  1  0  0  0  0
 23 24  1  0  0  0  0
 23 22  1  0  0  0  0
 25 24  1  0  0  0  0
 26 30  1  0  0  0  0
 26 25  1  0  0  0  0
 27 28  2  0  0  0  0
 28 29  1  0  0  0  0
 28 26  1  0  0  0  0
 30 32  1  0  0  0  0
 32 31  1  0  0  0  0
 34 33  1  0  0  0  0
M  END
>  <MODEL>
4

>  <REMARK>
 VINA RESULT:      -6.6      3.157      7.168
  Name = 
  13 active torsions:
  status: ('A' for Active; 'I' for Inactive)
    1  A    between atoms: C_1  and  C_19
    2  A    between atoms: O_2  and  C_15
    3  A    between atoms: C_3  and  N_13
    4  A    between atoms: C_3  and  C_17
    5  A    between atoms: C_4  and  C_31
    6  A    between atoms: C_10  and  C_31
    7  A    between atoms: C_12  and  N_28
    8  A    between atoms: N_13  and  C_14
    9  A    between atoms: N_13  and  C_33
   10  A    between atoms: C_17  and  N_29
   11  A    between atoms: C_18  and  C_31
   12  A    between atoms: C_21  and  N_28
   13  A    between atoms: C_22  and  C_33
                            x       y       z     vdW  Elec       q    Type
                         _______ _______ _______ _____ _____    ______ ____

>  <TORSDO>
F 13

$$$$
=
 OpenBabel10252414523D

 34 35  0  0  1  0  0  0  0  0999 V2000
  188.9070  177.6240  147.2990 C   0  0  2  0  0  3  0  0  0  0  0  0
  189.3910  177.4300  144.8200 C   0  0  1  0  0  3  0  0  0  0  0  0
  189.9580  177.8330  146.1940 C   0  0  2  0  0  3  0  0  0  0  0  0
  187.9400  177.9250  144.5920 C   0  0  2  0  0  3  0  0  0  0  0  0
  187.7210  178.4100  146.9860 N   0  0  0  0  0  2  0  0  0  0  0  0
  187.0710  177.7910  145.8400 C   0  0  0  0  0  2  0  0  0  0  0  0
  191.1050  177.0730  146.4600 O   0  0  0  0  0  0  0  0  0  0  0  0
  190.6480  175.9730  147.1940 C   0  0  0  0  0  1  0  0  0  0  0  0
  188.2830  178.2960  149.6180 C   0  0  0  0  0  1  0  0  0  0  0  0
  189.4330  178.0600  148.6550 C   0  0  0  0  0  2  0  0  0  0  0  0
  187.7040  175.9740  143.1930 O   0  0  0  0  0  1  0  0  0  0  0  0
  187.3040  177.2420  143.4610 N   0  0  0  0  0  0  0  0  0  0  0  0
  184.0150  178.6020  142.2350 C   0  0  0  0  0  0  0  0  0  0  0  0
  184.3840  179.1160  140.9870 C   0  0  0  0  0  3  0  0  0  0  0  0
  186.3050  177.8620  142.6220 C   0  0  0  0  0  0  0  0  0  0  0  0
  185.7060  178.9970  140.5510 C   0  0  0  0  0  3  0  0  0  0  0  0
  184.9680  177.9730  143.0420 C   0  0  0  0  0  3  0  0  0  0  0  0
  186.6620  178.3740  141.3650 C   0  0  0  0  0  3  0  0  0  0  0  0
  182.6070  178.7120  142.7000 C   0  0  0  0  0  1  0  0  0  0  0  0
  190.3580  177.8400  143.6850 C   0  0  2  0  0  3  0  0  0  0  0  0
  191.6630  175.8120  143.6390 O   0  0  0  0  0  0  0  0  0  0  0  0
  191.0210  176.6710  142.9750 C   0  0  0  0  0  0  0  0  0  0  0  0
  190.8920  176.4700  141.5610 N   0  0  0  0  0  2  0  0  0  0  0  0
  189.9520  177.1710  140.7020 C   0  0  0  0  0  2  0  0  0  0  0  0
  190.4880  177.2370  139.2790 C   0  0  0  0  0  2  0  0  0  0  0  0
  189.5560  176.6120  138.3400 N   0  0  0  0  0  0  0  0  0  0  0  0
  191.1910  175.0520  137.4920 C   0  0  0  0  0  2  0  0  0  0  0  0
  189.9280  175.4530  137.5640 C   0  0  0  0  0  0  0  0  0  0  0  0
  188.8980  174.6480  136.8440 C   0  0  0  0  0  1  0  0  0  0  0  0
  188.2140  177.1730  138.2270 C   0  0  0  0  0  2  0  0  0  0  0  0
  187.4900  178.2370  136.1140 C   0  0  0  0  0  1  0  0  0  0  0  0
  188.2300  178.4590  137.4170 C   0  0  0  0  0  2  0  0  0  0  0  0
  191.3840  178.8470  144.1930 C   0  0  0  0  0  2  0  0  0  0  0  0
  190.9340  180.1520  143.9650 O   0  0  0  0  0  1  0  0  0  0  0  0
  1 10  1  1  0  0  0
  2 20  1  6  0  0  0
  2  3  1  0  0  0  0
  3  7  1  1  0  0  0
  3  1  1  0  0  0  0
  4 12  1  6  0  0  0
  4  2  1  0  0  0  0
  4  6  1  0  0  0  0
  5  1  1  0  0  0  0
  6  5  1  0  0  0  0
  7  8  1  0  0  0  0
 10  9  1  0  0  0  0
 11 12  1  0  0  0  0
 13 19  1  0  0  0  0
 13 17  1  0  0  0  0
 14 13  2  0  0  0  0
 15 17  2  0  0  0  0
 15 12  1  0  0  0  0
 16 14  1  0  0  0  0
 16 18  2  0  0  0  0
 18 15  1  0  0  0  0
 20 33  1  1  0  0  0
 22 21  2  0  0  0  0
 22 20  1  0  0  0  0
 23 22  1  0  0  0  0
 24 23  1  0  0  0  0
 25 24  1  0  0  0  0
 26 25  1  0  0  0  0
 27 28  2  0  0  0  0
 28 26  1  0  0  0  0
 29 28  1  0  0  0  0
 30 26  1  0  0  0  0
 31 32  1  0  0  0  0
 32 30  1  0  0  0  0
 34 33  1  0  0  0  0
M  END
>  <MODEL>
5

>  <REMARK>
 VINA RESULT:      -6.5      1.592      2.328
  Name = 
  13 active torsions:
  status: ('A' for Active; 'I' for Inactive)
    1  A    between atoms: C_1  and  C_19
    2  A    between atoms: O_2  and  C_15
    3  A    between atoms: C_3  and  N_13
    4  A    between atoms: C_3  and  C_17
    5  A    between atoms: C_4  and  C_31
    6  A    between atoms: C_10  and  C_31
    7  A    between atoms: C_12  and  N_28
    8  A    between atoms: N_13  and  C_14
    9  A    between atoms: N_13  and  C_33
   10  A    between atoms: C_17  and  N_29
   11  A    between atoms: C_18  and  C_31
   12  A    between atoms: C_21  and  N_28
   13  A    between atoms: C_22  and  C_33
                            x       y       z     vdW  Elec       q    Type
                         _______ _______ _______ _____ _____    ______ ____

>  <TORSDO>
F 13

$$$$
=
 OpenBabel10252414523D

 34 35  0  0  1  0  0  0  0  0999 V2000
  181.1670  179.2470  142.7970 C   0  0  2  0  0  3  0  0  0  0  0  0
  183.3600  178.8710  141.5860 C   0  0  1  0  0  3  0  0  0  0  0  0
  181.8290  178.7150  141.5140 C   0  0  2  0  0  3  0  0  0  0  0  0
  183.9470  178.4760  142.9660 C   0  0  2  0  0  3  0  0  0  0  0  0
  181.6990  178.5260  143.9450 N   0  0  0  0  0  2  0  0  0  0  0  0
  183.0800  178.9490  144.1290 C   0  0  0  0  0  2  0  0  0  0  0  0
  181.3480  179.4040  140.3930 O   0  0  0  0  0  0  0  0  0  0  0  0
  180.4240  178.5360  139.8020 C   0  0  0  0  0  1  0  0  0  0  0  0
  178.9610  180.4030  142.6590 C   0  0  0  0  0  1  0  0  0  0  0  0
  179.6600  179.0590  142.7630 C   0  0  0  0  0  2  0  0  0  0  0  0
  185.6690  180.0890  142.4590 O   0  0  0  0  0  1  0  0  0  0  0  0
  185.3200  178.9630  143.1310 N   0  0  0  0  0  0  0  0  0  0  0  0
  187.2860  177.8000  146.1230 C   0  0  0  0  0  0  0  0  0  0  0  0
  188.2070  176.9350  145.5210 C   0  0  0  0  0  3  0  0  0  0  0  0
  186.3060  178.2910  143.9470 C   0  0  0  0  0  0  0  0  0  0  0  0
  188.1860  176.7540  144.1360 C   0  0  0  0  0  3  0  0  0  0  0  0
  186.3480  178.4780  145.3390 C   0  0  0  0  0  3  0  0  0  0  0  0
  187.2390  177.4280  143.3530 C   0  0  0  0  0  3  0  0  0  0  0  0
  187.3120  178.0090  147.5950 C   0  0  0  0  0  1  0  0  0  0  0  0
  184.0430  178.1440  140.4040 C   0  0  2  0  0  3  0  0  0  0  0  0
  184.0110  180.1160  139.0150 O   0  0  0  0  0  0  0  0  0  0  0  0
  184.6340  179.0730  139.3560 C   0  0  0  0  0  0  0  0  0  0  0  0
  185.9220  178.8360  138.7730 N   0  0  0  0  0  2  0  0  0  0  0  0
  186.8950  177.8740  139.2630 C   0  0  0  0  0  2  0  0  0  0  0  0
  188.2940  178.4730  139.2200 C   0  0  0  0  0  2  0  0  0  0  0  0
  189.2580  177.5100  138.6870 N   0  0  0  0  0  0  0  0  0  0  0  0
  191.5220  176.7200  138.9620 C   0  0  0  0  0  2  0  0  0  0  0  0
  190.3380  176.9950  139.4950 C   0  0  0  0  0  0  0  0  0  0  0  0
  190.1670  176.7870  140.9630 C   0  0  0  0  0  1  0  0  0  0  0  0
  189.0820  177.0500  137.3130 C   0  0  0  0  0  2  0  0  0  0  0  0
  189.4790  174.7130  136.6040 C   0  0  0  0  0  1  0  0  0  0  0  0
  188.4980  175.6480  137.2820 C   0  0  0  0  0  2  0  0  0  0  0  0
  183.0960  177.1220  139.7850 C   0  0  0  0  0  2  0  0  0  0  0  0
  183.4280  176.9070  138.4440 O   0  0  0  0  0  1  0  0  0  0  0  0
  1 10  1  6  0  0  0
  1  5  1  0  0  0  0
  2 20  1  6  0  0  0
  2  4  1  0  0  0  0
  3  7  1  6  0  0  0
  3  2  1  0  0  0  0
  3  1  1  0  0  0  0
  4 12  1  1  0  0  0
  4  6  1  0  0  0  0
  5  6  1  0  0  0  0
  8  7  1  0  0  0  0
  9 10  1  0  0  0  0
 11 12  1  0  0  0  0
 12 15  1  0  0  0  0
 13 19  1  0  0  0  0
 14 13  1  0  0  0  0
 15 17  1  0  0  0  0
 16 14  2  0  0  0  0
 17 13  2  0  0  0  0
 18 15  2  0  0  0  0
 18 16  1  0  0  0  0
 20 33  1  6  0  0  0
 21 22  2  0  0  0  0
 22 20  1  0  0  0  0
 23 24  1  0  0  0  0
 23 22  1  0  0  0  0
 25 24  1  0  0  0  0
 26 25  1  0  0  0  0
 26 28  1  0  0  0  0
 27 28  2  0  0  0  0
 28 29  1  0  0  0  0
 30 26  1  0  0  0  0
 31 32  1  0  0  0  0
 32 30  1  0  0  0  0
 34 33  1  0  0  0  0
M  END
>  <MODEL>
6

>  <REMARK>
 VINA RESULT:      -6.5      3.114      7.146
  Name = 
  13 active torsions:
  status: ('A' for Active; 'I' for Inactive)
    1  A    between atoms: C_1  and  C_19
    2  A    between atoms: O_2  and  C_15
    3  A    between atoms: C_3  and  N_13
    4  A    between atoms: C_3  and  C_17
    5  A    between atoms: C_4  and  C_31
    6  A    between atoms: C_10  and  C_31
    7  A    between atoms: C_12  and  N_28
    8  A    between atoms: N_13  and  C_14
    9  A    between atoms: N_13  and  C_33
   10  A    between atoms: C_17  and  N_29
   11  A    between atoms: C_18  and  C_31
   12  A    between atoms: C_21  and  N_28
   13  A    between atoms: C_22  and  C_33
                            x       y       z     vdW  Elec       q    Type
                         _______ _______ _______ _____ _____    ______ ____

>  <TORSDO>
F 13

$$$$
=
 OpenBabel10252414523D

 34 35  0  0  1  0  0  0  0  0999 V2000
  190.8420  175.8680  138.6940 C   0  0  2  0  0  3  0  0  0  0  0  0
  188.6570  177.1390  138.8480 C   0  0  1  0  0  3  0  0  0  0  0  0
  189.7050  176.5320  137.8970 C   0  0  2  0  0  3  0  0  0  0  0  0
  189.2870  177.8940  140.0460 C   0  0  2  0  0  3  0  0  0  0  0  0
  191.4580  176.8590  139.5660 N   0  0  0  0  0  2  0  0  0  0  0  0
  190.5030  177.1710  140.6200 C   0  0  0  0  0  2  0  0  0  0  0  0
  189.0820  175.5960  137.0610 O   0  0  0  0  0  0  0  0  0  0  0  0
  189.6110  175.8360  135.7880 C   0  0  0  0  0  1  0  0  0  0  0  0
  192.9980  176.3340  137.5300 C   0  0  0  0  0  1  0  0  0  0  0  0
  191.9100  175.3030  137.7720 C   0  0  0  0  0  2  0  0  0  0  0  0
  187.1500  178.7640  140.7540 O   0  0  0  0  0  1  0  0  0  0  0  0
  188.3050  178.1450  141.1060 N   0  0  0  0  0  0  0  0  0  0  0  0
  189.9670  177.6610  144.4490 C   0  0  0  0  0  0  0  0  0  0  0  0
  188.9140  177.1270  145.1990 C   0  0  0  0  0  3  0  0  0  0  0  0
  188.5240  177.7880  142.4890 C   0  0  0  0  0  0  0  0  0  0  0  0
  187.6710  176.9140  144.5970 C   0  0  0  0  0  3  0  0  0  0  0  0
  189.7750  177.9820  143.1020 C   0  0  0  0  0  3  0  0  0  0  0  0
  187.4770  177.2450  143.2490 C   0  0  0  0  0  3  0  0  0  0  0  0
  191.2960  177.8770  145.0790 C   0  0  0  0  0  1  0  0  0  0  0  0
  187.6320  177.9920  138.0630 C   0  0  2  0  0  3  0  0  0  0  0  0
  186.4200  176.0850  137.2180 O   0  0  0  0  0  0  0  0  0  0  0  0
  186.3570  177.2530  137.6910 C   0  0  0  0  0  0  0  0  0  0  0  0
  185.0590  177.8190  137.9160 N   0  0  0  0  0  2  0  0  0  0  0  0
  184.7930  179.0000  138.7210 C   0  0  0  0  0  2  0  0  0  0  0  0
  183.3040  179.1080  139.0200 C   0  0  0  0  0  2  0  0  0  0  0  0
  182.9300  178.2390  140.1360 N   0  0  0  0  0  0  0  0  0  0  0  0
  181.8500  176.1020  139.8410 C   0  0  0  0  0  2  0  0  0  0  0  0
  181.7550  177.4030  140.0840 C   0  0  0  0  0  0  0  0  0  0  0  0
  180.3980  177.9700  140.3350 C   0  0  0  0  0  1  0  0  0  0  0  0
  183.8020  178.2120  141.3070 C   0  0  0  0  0  2  0  0  0  0  0  0
  184.0260  178.8350  143.6910 C   0  0  0  0  0  1  0  0  0  0  0  0
  183.0440  178.6270  142.5570 C   0  0  0  0  0  2  0  0  0  0  0  0
  188.2900  178.6330  136.8460 C   0  0  0  0  0  2  0  0  0  0  0  0
  188.9560  179.8050  137.2180 O   0  0  0  0  0  1  0  0  0  0  0  0
  1 10  1  6  0  0  0
  1  5  1  0  0  0  0
  2 20  1  6  0  0  0
  2  4  1  0  0  0  0
  3  7  1  6  0  0  0
  3  1  1  0  0  0  0
  3  2  1  0  0  0  0
  4  6  1  0  0  0  0
  4 12  1  1  0  0  0
  5  6  1  0  0  0  0
  8  7  1  0  0  0  0
  9 10  1  0  0  0  0
 11 12  1  0  0  0  0
 12 15  1  0  0  0  0
 13 19  1  0  0  0  0
 13 14  1  0  0  0  0
 15 17  1  0  0  0  0
 15 18  2  0  0  0  0
 16 14  2  0  0  0  0
 17 13  2  0  0  0  0
 18 16  1  0  0  0  0
 20 33  1  6  0  0  0
 21 22  2  0  0  0  0
 22 23  1  0  0  0  0
 22 20  1  0  0  0  0
 23 24  1  0  0  0  0
 24 25  1  0  0  0  0
 25 26  1  0  0  0  0
 26 30  1  0  0  0  0
 27 28  2  0  0  0  0
 28 26  1  0  0  0  0
 28 29  1  0  0  0  0
 30 32  1  0  0  0  0
 32 31  1  0  0  0  0
 33 34  1  0  0  0  0
M  END
>  <MODEL>
7

>  <REMARK>
 VINA RESULT:      -6.0      2.751      6.775
  Name = 
  13 active torsions:
  status: ('A' for Active; 'I' for Inactive)
    1  A    between atoms: C_1  and  C_19
    2  A    between atoms: O_2  and  C_15
    3  A    between atoms: C_3  and  N_13
    4  A    between atoms: C_3  and  C_17
    5  A    between atoms: C_4  and  C_31
    6  A    between atoms: C_10  and  C_31
    7  A    between atoms: C_12  and  N_28
    8  A    between atoms: N_13  and  C_14
    9  A    between atoms: N_13  and  C_33
   10  A    between atoms: C_17  and  N_29
   11  A    between atoms: C_18  and  C_31
   12  A    between atoms: C_21  and  N_28
   13  A    between atoms: C_22  and  C_33
                            x       y       z     vdW  Elec       q    Type
                         _______ _______ _______ _____ _____    ______ ____

>  <TORSDO>
F 13

$$$$
=
 OpenBabel10252414523D

 34 35  0  0  1  0  0  0  0  0999 V2000
  188.8400  174.4250  135.1490 C   0  0  2  0  0  3  0  0  0  0  0  0
  188.5770  176.2770  136.8580 C   0  0  1  0  0  3  0  0  0  0  0  0
  189.4330  175.0750  136.4120 C   0  0  2  0  0  3  0  0  0  0  0  0
  187.0540  175.9970  136.7900 C   0  0  2  0  0  3  0  0  0  0  0  0
  187.4730  174.0040  135.4240 N   0  0  0  0  0  2  0  0  0  0  0  0
  186.6590  175.2030  135.5470 C   0  0  0  0  0  2  0  0  0  0  0  0
  190.7440  175.5080  136.1710 O   0  0  0  0  0  0  0  0  0  0  0  0
  190.6440  176.3710  135.0740 C   0  0  0  0  0  1  0  0  0  0  0  0
  188.8420  171.9400  134.9400 C   0  0  0  0  0  1  0  0  0  0  0  0
  189.6450  173.2100  134.7210 C   0  0  0  0  0  2  0  0  0  0  0  0
  186.5800  178.2250  135.9930 O   0  0  0  0  0  1  0  0  0  0  0  0
  186.2710  177.2350  136.8670 N   0  0  0  0  0  0  0  0  0  0  0  0
  183.1780  176.7170  138.9490 C   0  0  0  0  0  0  0  0  0  0  0  0
  183.2030  177.8580  139.7570 C   0  0  0  0  0  3  0  0  0  0  0  0
  185.2180  177.4460  137.8340 C   0  0  0  0  0  0  0  0  0  0  0  0
  184.2260  178.7980  139.6010 C   0  0  0  0  0  3  0  0  0  0  0  0
  184.1750  176.5170  137.9890 C   0  0  0  0  0  3  0  0  0  0  0  0
  185.2290  178.5920  138.6440 C   0  0  0  0  0  3  0  0  0  0  0  0
  182.0850  175.7200  139.0990 C   0  0  0  0  0  1  0  0  0  0  0  0
  189.0380  176.7970  138.2400 C   0  0  2  0  0  3  0  0  0  0  0  0
  189.2590  179.0430  137.3910 O   0  0  0  0  0  0  0  0  0  0  0  0
  189.0010  178.3090  138.3840 C   0  0  0  0  0  0  0  0  0  0  0  0
  188.6170  178.9460  139.6100 N   0  0  0  0  0  2  0  0  0  0  0  0
  188.0000  178.2720  140.7410 C   0  0  0  0  0  2  0  0  0  0  0  0
  188.6000  178.7790  142.0450 C   0  0  0  0  0  2  0  0  0  0  0  0
  189.0420  177.6650  142.8840 N   0  0  0  0  0  0  0  0  0  0  0  0
  191.1460  178.6320  143.5630 C   0  0  0  0  0  2  0  0  0  0  0  0
  190.4080  177.5530  143.3340 C   0  0  0  0  0  0  0  0  0  0  0  0
  191.0260  176.2180  143.5870 C   0  0  0  0  0  1  0  0  0  0  0  0
  188.0490  176.6740  143.2900 C   0  0  0  0  0  2  0  0  0  0  0  0
  187.5330  177.5120  145.5600 C   0  0  0  0  0  1  0  0  0  0  0  0
  186.9800  177.3050  144.1650 C   0  0  0  0  0  2  0  0  0  0  0  0
  190.4080  176.2290  138.5960 C   0  0  0  0  0  2  0  0  0  0  0  0
  190.5660  176.1830  139.9850 O   0  0  0  0  0  1  0  0  0  0  0  0
  1 10  1  1  0  0  0
  1  5  1  0  0  0  0
  1  3  1  0  0  0  0
  2 20  1  1  0  0  0
  3  7  1  6  0  0  0
  3  2  1  0  0  0  0
  4  2  1  0  0  0  0
  4 12  1  6  0  0  0
  5  6  1  0  0  0  0
  6  4  1  0  0  0  0
  8  7  1  0  0  0  0
 10  9  1  0  0  0  0
 11 12  1  0  0  0  0
 12 15  1  0  0  0  0
 13 19  1  0  0  0  0
 13 14  1  0  0  0  0
 15 17  1  0  0  0  0
 15 18  2  0  0  0  0
 16 14  2  0  0  0  0
 17 13  2  0  0  0  0
 18 16  1  0  0  0  0
 20 22  1  0  0  0  0
 20 33  1  6  0  0  0
 21 22  2  0  0  0  0
 22 23  1  0  0  0  0
 23 24  1  0  0  0  0
 24 25  1  0  0  0  0
 25 26  1  0  0  0  0
 26 30  1  0  0  0  0
 26 28  1  0  0  0  0
 28 27  2  0  0  0  0
 28 29  1  0  0  0  0
 30 32  1  0  0  0  0
 32 31  1  0  0  0  0
 33 34  1  0  0  0  0
M  END
>  <MODEL>
8

>  <REMARK>
 VINA RESULT:      -6.0      3.025      7.672
  Name = 
  13 active torsions:
  status: ('A' for Active; 'I' for Inactive)
    1  A    between atoms: C_1  and  C_19
    2  A    between atoms: O_2  and  C_15
    3  A    between atoms: C_3  and  N_13
    4  A    between atoms: C_3  and  C_17
    5  A    between atoms: C_4  and  C_31
    6  A    between atoms: C_10  and  C_31
    7  A    between atoms: C_12  and  N_28
    8  A    between atoms: N_13  and  C_14
    9  A    between atoms: N_13  and  C_33
   10  A    between atoms: C_17  and  N_29
   11  A    between atoms: C_18  and  C_31
   12  A    between atoms: C_21  and  N_28
   13  A    between atoms: C_22  and  C_33
                            x       y       z     vdW  Elec       q    Type
                         _______ _______ _______ _____ _____    ______ ____

>  <TORSDO>
F 13

$$$$
=
 OpenBabel10252414523D

 34 35  0  0  1  0  0  0  0  0999 V2000
  190.8000  176.0140  138.7530 C   0  0  2  0  0  3  0  0  0  0  0  0
  188.5410  177.1560  138.8430 C   0  0  1  0  0  3  0  0  0  0  0  0
  189.6350  176.5810  137.9230 C   0  0  2  0  0  3  0  0  0  0  0  0
  189.1120  177.9870  140.0200 C   0  0  2  0  0  3  0  0  0  0  0  0
  191.3460  177.0690  139.5960 N   0  0  0  0  0  2  0  0  0  0  0  0
  190.3620  177.3600  140.6290 C   0  0  0  0  0  2  0  0  0  0  0  0
  189.0780  175.5810  137.1140 O   0  0  0  0  0  0  0  0  0  0  0  0
  189.6260  175.7940  135.8450 C   0  0  0  0  0  1  0  0  0  0  0  0
  193.1630  176.3270  138.0180 C   0  0  0  0  0  1  0  0  0  0  0  0
  191.9100  175.4830  137.8620 C   0  0  0  0  0  2  0  0  0  0  0  0
  186.9500  178.8250  140.6920 O   0  0  0  0  0  1  0  0  0  0  0  0
  188.1050  178.2160  141.0610 N   0  0  0  0  0  0  0  0  0  0  0  0
  189.7360  177.5910  144.3960 C   0  0  0  0  0  0  0  0  0  0  0  0
  188.6420  177.1630  145.1560 C   0  0  0  0  0  3  0  0  0  0  0  0
  188.2980  177.8460  142.4450 C   0  0  0  0  0  0  0  0  0  0  0  0
  187.3800  177.0670  144.5620 C   0  0  0  0  0  3  0  0  0  0  0  0
  189.5660  177.9220  143.0480 C   0  0  0  0  0  3  0  0  0  0  0  0
  187.2100  177.4080  143.2140 C   0  0  0  0  0  3  0  0  0  0  0  0
  191.0850  177.6810  145.0160 C   0  0  0  0  0  1  0  0  0  0  0  0
  187.4760  177.9190  138.0190 C   0  0  2  0  0  3  0  0  0  0  0  0
  186.4480  175.9280  137.1250 O   0  0  0  0  0  0  0  0  0  0  0  0
  186.2760  177.0770  137.6160 C   0  0  0  0  0  0  0  0  0  0  0  0
  184.9300  177.5220  137.8330 N   0  0  0  0  0  2  0  0  0  0  0  0
  184.5510  178.6600  138.6550 C   0  0  0  0  0  2  0  0  0  0  0  0
  183.0420  178.6870  138.8500 C   0  0  0  0  0  2  0  0  0  0  0  0
  182.6530  177.9110  140.0270 N   0  0  0  0  0  0  0  0  0  0  0  0
  181.3640  178.9930  141.7570 C   0  0  0  0  0  2  0  0  0  0  0  0
  182.5280  178.5220  141.3290 C   0  0  0  0  0  0  0  0  0  0  0  0
  183.7000  178.6140  142.2500 C   0  0  0  0  0  1  0  0  0  0  0  0
  182.3570  176.4930  139.8480 C   0  0  0  0  0  2  0  0  0  0  0  0
  180.1600  175.3570  139.9040 C   0  0  0  0  0  1  0  0  0  0  0  0
  181.0410  176.3020  139.1140 C   0  0  0  0  0  2  0  0  0  0  0  0
  188.1180  178.6010  136.8160 C   0  0  0  0  0  2  0  0  0  0  0  0
  188.7870  179.7610  137.2190 O   0  0  0  0  0  1  0  0  0  0  0  0
  1 10  1  6  0  0  0
  1  5  1  0  0  0  0
  2 20  1  6  0  0  0
  2  4  1  0  0  0  0
  3  7  1  1  0  0  0
  3  1  1  0  0  0  0
  3  2  1  0  0  0  0
  4  6  1  0  0  0  0
  4 12  1  1  0  0  0
  5  6  1  0  0  0  0
  8  7  1  0  0  0  0
 10  9  1  0  0  0  0
 11 12  1  0  0  0  0
 12 15  1  0  0  0  0
 13 19  1  0  0  0  0
 13 14  1  0  0  0  0
 15 17  1  0  0  0  0
 15 18  2  0  0  0  0
 16 14  2  0  0  0  0
 17 13  2  0  0  0  0
 18 16  1  0  0  0  0
 20 33  1  6  0  0  0
 21 22  2  0  0  0  0
 22 23  1  0  0  0  0
 22 20  1  0  0  0  0
 23 24  1  0  0  0  0
 24 25  1  0  0  0  0
 25 26  1  0  0  0  0
 26 28  1  0  0  0  0
 28 27  2  0  0  0  0
 28 29  1  0  0  0  0
 30 26  1  0  0  0  0
 32 30  1  0  0  0  0
 32 31  1  0  0  0  0
 33 34  1  0  0  0  0
M  END
>  <MODEL>
9

>  <REMARK>
 VINA RESULT:      -5.8      2.915      6.726
  Name = 
  13 active torsions:
  status: ('A' for Active; 'I' for Inactive)
    1  A    between atoms: C_1  and  C_19
    2  A    between atoms: O_2  and  C_15
    3  A    between atoms: C_3  and  N_13
    4  A    between atoms: C_3  and  C_17
    5  A    between atoms: C_4  and  C_31
    6  A    between atoms: C_10  and  C_31
    7  A    between atoms: C_12  and  N_28
    8  A    between atoms: N_13  and  C_14
    9  A    between atoms: N_13  and  C_33
   10  A    between atoms: C_17  and  N_29
   11  A    between atoms: C_18  and  C_31
   12  A    between atoms: C_21  and  N_28
   13  A    between atoms: C_22  and  C_33
                            x       y       z     vdW  Elec       q    Type
                         _______ _______ _______ _____ _____    ______ ____

>  <TORSDO>
F 13

$$$$
