=
 OpenBabel10262419453D

 25 27  0  0  1  0  0  0  0  0999 V2000
  188.7580  176.8590  142.0760 C   0  0  1  0  0  3  0  0  0  0  0  0
  187.4640  177.6250  142.2260 C   0  0  0  0  0  0  0  0  0  0  0  0
  189.0140  177.9630  139.8270 C   0  0  0  0  0  2  0  0  0  0  0  0
  187.5340  178.3190  139.7820 C   0  0  0  0  0  2  0  0  0  0  0  0
  185.7340  179.1010  141.3530 C   0  0  0  0  0  0  0  0  0  0  0  0
  185.1700  179.8310  140.3130 O   0  0  0  0  0  1  0  0  0  0  0  0
  186.8210  177.6290  143.4700 C   0  0  0  0  0  3  0  0  0  0  0  0
  189.2060  176.6800  140.6220 C   0  0  0  0  0  2  0  0  0  0  0  0
  185.1070  179.0970  142.6020 C   0  0  0  0  0  3  0  0  0  0  0  0
  185.6450  178.3580  143.6580 C   0  0  0  0  0  0  0  0  0  0  0  0
  186.9190  178.3730  141.1560 C   0  0  0  0  0  0  0  0  0  0  0  0
  189.8660  177.3900  142.9460 C   0  0  0  0  0  0  0  0  0  0  0  0
  191.7860  178.4070  144.8270 C   0  0  0  0  0  3  0  0  0  0  0  0
  190.8380  176.5110  143.6380 C   0  0  0  0  0  0  0  0  0  0  0  0
  191.7370  177.0870  144.6450 C   0  0  0  0  0  3  0  0  0  0  0  0
  190.9970  179.3690  143.9760 C   0  0  0  0  0  2  0  0  0  0  0  0
  190.8850  175.2760  143.4020 O   0  0  0  0  0  0  0  0  0  0  0  0
  189.9170  178.7090  143.1540 C   0  0  0  0  0  3  0  0  0  0  0  0
  184.9840  178.3740  144.9910 C   0  0  0  0  0  2  0  0  0  0  0  0
  185.7770  177.5330  145.9770 C   0  0  0  0  0  2  0  0  0  0  0  0
  186.4070  178.4120  147.0040 C   0  0  0  0  0  0  0  0  0  0  0  0
  185.7960  179.4440  147.3890 O   0  0  0  0  0  0  0  0  0  0  0  0
  187.7380  178.1000  147.5450 C   0  0  0  0  0  0  0  0  0  0  0  0
  188.7270  177.5090  146.7110 N   0  0  0  0  0  1  0  0  0  0  0  0
  188.0120  178.3550  148.7480 O   0  0  0  0  0  0  0  0  0  0  0  0
  1  2  1  0  0  0  0
  1 12  1  1  0  0  0
  2  7  1  0  0  0  0
  3  8  1  0  0  0  0
  4  3  1  0  0  0  0
  4 11  1  0  0  0  0
  5  9  2  0  0  0  0
  6  5  1  0  0  0  0
  7 10  2  0  0  0  0
  8  1  1  0  0  0  0
  9 10  1  0  0  0  0
 10 19  1  0  0  0  0
 11  5  1  0  0  0  0
 11  2  2  0  0  0  0
 12 18  2  0  0  0  0
 12 14  1  0  0  0  0
 14 15  1  0  0  0  0
 15 13  2  0  0  0  0
 16 13  1  0  0  0  0
 17 14  2  0  0  0  0
 18 16  1  0  0  0  0
 19 20  1  0  0  0  0
 20 21  1  0  0  0  0
 21 22  2  0  0  0  0
 21 23  1  0  0  0  0
 23 25  2  0  0  0  0
 24 23  1  0  0  0  0
M  END
>  <MODEL>
1

>  <REMARK>
 VINA RESULT:      -8.1      0.000      0.000
  Name = 
  5 active torsions:
  status: ('A' for Active; 'I' for Inactive)
    1  A    between atoms: C_1  and  C_5
    2  A    between atoms: C_2  and  C_21
    3  A    between atoms: C_6  and  C_15
    4  A    between atoms: C_6  and  C_23
    5  A    between atoms: C_15  and  C_21
                            x       y       z     vdW  Elec       q    Type
                         _______ _______ _______ _____ _____    ______ ____

>  <TORSDO>
F 5

$$$$
=
 OpenBabel10262419453D

 25 27  0  0  1  0  0  0  0  0999 V2000
  186.2520  177.2660  143.6220 C   0  0  1  0  0  3  0  0  0  0  0  0
  186.6340  177.6400  145.0350 C   0  0  0  0  0  0  0  0  0  0  0  0
  184.8470  179.3560  143.5750 C   0  0  0  0  0  2  0  0  0  0  0  0
  184.8440  179.4440  145.0950 C   0  0  0  0  0  2  0  0  0  0  0  0
  186.4250  179.0520  147.0090 C   0  0  0  0  0  0  0  0  0  0  0  0
  185.8190  180.0970  147.6980 O   0  0  0  0  0  1  0  0  0  0  0  0
  187.6600  176.9300  145.6690 C   0  0  0  0  0  3  0  0  0  0  0  0
  184.9390  177.8980  143.1480 C   0  0  0  0  0  2  0  0  0  0  0  0
  187.4540  178.3360  147.6250 C   0  0  0  0  0  3  0  0  0  0  0  0
  188.0680  177.2710  146.9600 C   0  0  0  0  0  0  0  0  0  0  0  0
  186.0110  178.7170  145.7100 C   0  0  0  0  0  0  0  0  0  0  0  0
  187.3670  177.4740  142.6320 C   0  0  0  0  0  0  0  0  0  0  0  0
  189.6210  178.0470  140.9440 C   0  0  0  0  0  3  0  0  0  0  0  0
  188.5260  176.5560  142.5210 C   0  0  0  0  0  0  0  0  0  0  0  0
  189.6770  176.9510  141.7000 C   0  0  0  0  0  3  0  0  0  0  0  0
  188.3730  178.8850  140.8280 C   0  0  0  0  0  2  0  0  0  0  0  0
  188.5540  175.4620  143.1410 O   0  0  0  0  0  0  0  0  0  0  0  0
  187.3350  178.5780  141.8800 C   0  0  0  0  0  3  0  0  0  0  0  0
  189.1770  176.5250  147.6130 C   0  0  0  0  0  2  0  0  0  0  0  0
  190.4640  177.3290  147.5340 C   0  0  0  0  0  2  0  0  0  0  0  0
  191.4490  176.6280  146.6610 C   0  0  0  0  0  0  0  0  0  0  0  0
  192.3010  175.8630  147.1850 O   0  0  0  0  0  0  0  0  0  0  0  0
  191.4530  176.8460  145.2070 C   0  0  0  0  0  0  0  0  0  0  0  0
  191.1490  178.1310  144.6760 N   0  0  0  0  0  1  0  0  0  0  0  0
  191.7250  175.8990  144.4230 O   0  0  0  0  0  0  0  0  0  0  0  0
  1 12  1  6  0  0  0
  1  2  1  0  0  0  0
  2  7  2  0  0  0  0
  2 11  1  0  0  0  0
  3  4  1  0  0  0  0
  4 11  1  0  0  0  0
  5  9  1  0  0  0  0
  5  6  1  0  0  0  0
  7 10  1  0  0  0  0
  8  3  1  0  0  0  0
  8  1  1  0  0  0  0
 10 19  1  0  0  0  0
 10  9  2  0  0  0  0
 11  5  2  0  0  0  0
 13 15  2  0  0  0  0
 14 12  1  0  0  0  0
 14 17  2  0  0  0  0
 15 14  1  0  0  0  0
 16 13  1  0  0  0  0
 16 18  1  0  0  0  0
 18 12  2  0  0  0  0
 20 19  1  0  0  0  0
 21 22  2  0  0  0  0
 21 20  1  0  0  0  0
 23 21  1  0  0  0  0
 24 23  1  0  0  0  0
 25 23  2  0  0  0  0
M  END
>  <MODEL>
2

>  <REMARK>
 VINA RESULT:      -8.0      1.971      4.736
  Name = 
  5 active torsions:
  status: ('A' for Active; 'I' for Inactive)
    1  A    between atoms: C_1  and  C_5
    2  A    between atoms: C_2  and  C_21
    3  A    between atoms: C_6  and  C_15
    4  A    between atoms: C_6  and  C_23
    5  A    between atoms: C_15  and  C_21
                            x       y       z     vdW  Elec       q    Type
                         _______ _______ _______ _____ _____    ______ ____

>  <TORSDO>
F 5

$$$$
=
 OpenBabel10262419453D

 25 27  0  0  1  0  0  0  0  0999 V2000
  186.9300  177.0710  145.3480 C   0  0  1  0  0  3  0  0  0  0  0  0
  188.2360  177.1530  144.5910 C   0  0  0  0  0  0  0  0  0  0  0  0
  188.0870  178.2680  147.2380 C   0  0  0  0  0  2  0  0  0  0  0  0
  189.4600  177.9090  146.6870 C   0  0  0  0  0  2  0  0  0  0  0  0
  190.6030  177.7100  144.4570 C   0  0  0  0  0  0  0  0  0  0  0  0
  191.7850  178.1470  145.0450 O   0  0  0  0  0  1  0  0  0  0  0  0
  188.2540  176.8070  143.2350 C   0  0  0  0  0  3  0  0  0  0  0  0
  187.0880  177.1810  146.8680 C   0  0  0  0  0  2  0  0  0  0  0  0
  190.6030  177.3650  143.1030 C   0  0  0  0  0  3  0  0  0  0  0  0
  189.4320  176.9080  142.4930 C   0  0  0  0  0  0  0  0  0  0  0  0
  189.4220  177.6150  145.2100 C   0  0  0  0  0  0  0  0  0  0  0  0
  185.8800  178.0110  144.8210 C   0  0  0  0  0  0  0  0  0  0  0  0
  183.7320  179.5680  143.7140 C   0  0  0  0  0  3  0  0  0  0  0  0
  184.7490  178.4980  145.6460 C   0  0  0  0  0  0  0  0  0  0  0  0
  183.6470  179.2210  144.9990 C   0  0  0  0  0  3  0  0  0  0  0  0
  184.9690  179.3150  142.8900 C   0  0  0  0  0  2  0  0  0  0  0  0
  184.7000  178.2760  146.8840 O   0  0  0  0  0  0  0  0  0  0  0  0
  185.9400  178.3540  143.5300 C   0  0  0  0  0  3  0  0  0  0  0  0
  189.4340  176.5620  141.0450 C   0  0  0  0  0  2  0  0  0  0  0  0
  189.9670  177.7280  140.2310 C   0  0  0  0  0  2  0  0  0  0  0  0
  188.8790  178.3000  139.3870 C   0  0  0  0  0  0  0  0  0  0  0  0
  187.7570  178.5390  139.9080 O   0  0  0  0  0  0  0  0  0  0  0  0
  189.0940  178.5570  137.9560 C   0  0  0  0  0  0  0  0  0  0  0  0
  189.4910  177.4980  137.0920 N   0  0  0  0  0  1  0  0  0  0  0  0
  188.9280  179.7130  137.4850 O   0  0  0  0  0  0  0  0  0  0  0  0
  1 12  1  6  0  0  0
  1  8  1  0  0  0  0
  2 11  1  0  0  0  0
  2  1  1  0  0  0  0
  4  3  1  0  0  0  0
  5  6  1  0  0  0  0
  5 11  2  0  0  0  0
  7  2  2  0  0  0  0
  8  3  1  0  0  0  0
  9  5  1  0  0  0  0
 10  9  2  0  0  0  0
 10  7  1  0  0  0  0
 11  4  1  0  0  0  0
 12 14  1  0  0  0  0
 13 15  2  0  0  0  0
 14 17  2  0  0  0  0
 15 14  1  0  0  0  0
 16 18  1  0  0  0  0
 16 13  1  0  0  0  0
 18 12  2  0  0  0  0
 19 10  1  0  0  0  0
 20 19  1  0  0  0  0
 21 22  2  0  0  0  0
 21 20  1  0  0  0  0
 23 21  1  0  0  0  0
 24 23  1  0  0  0  0
 25 23  2  0  0  0  0
M  END
>  <MODEL>
3

>  <REMARK>
 VINA RESULT:      -7.7      2.627      6.926
  Name = 
  5 active torsions:
  status: ('A' for Active; 'I' for Inactive)
    1  A    between atoms: C_1  and  C_5
    2  A    between atoms: C_2  and  C_21
    3  A    between atoms: C_6  and  C_15
    4  A    between atoms: C_6  and  C_23
    5  A    between atoms: C_15  and  C_21
                            x       y       z     vdW  Elec       q    Type
                         _______ _______ _______ _____ _____    ______ ____

>  <TORSDO>
F 5

$$$$
=
 OpenBabel10262419453D

 25 27  0  0  1  0  0  0  0  0999 V2000
  187.1120  177.0180  145.0450 C   0  0  1  0  0  3  0  0  0  0  0  0
  188.3830  177.1740  144.2420 C   0  0  0  0  0  0  0  0  0  0  0  0
  188.3050  178.1760  146.9370 C   0  0  0  0  0  2  0  0  0  0  0  0
  189.6660  177.8850  146.3180 C   0  0  0  0  0  2  0  0  0  0  0  0
  190.7240  177.8140  144.0390 C   0  0  0  0  0  0  0  0  0  0  0  0
  191.9140  178.2660  144.5980 O   0  0  0  0  0  1  0  0  0  0  0  0
  188.3570  176.8840  142.8730 C   0  0  0  0  0  3  0  0  0  0  0  0
  187.3270  177.0720  146.5610 C   0  0  0  0  0  2  0  0  0  0  0  0
  190.6800  177.5240  142.6730 C   0  0  0  0  0  3  0  0  0  0  0  0
  189.5010  177.0530  142.0900 C   0  0  0  0  0  0  0  0  0  0  0  0
  189.5780  177.6500  144.8330 C   0  0  0  0  0  0  0  0  0  0  0  0
  186.0120  177.9440  144.5990 C   0  0  0  0  0  0  0  0  0  0  0  0
  183.7720  179.4710  143.6460 C   0  0  0  0  0  3  0  0  0  0  0  0
  184.9110  178.3760  145.4930 C   0  0  0  0  0  0  0  0  0  0  0  0
  183.7600  179.0850  144.9230 C   0  0  0  0  0  3  0  0  0  0  0  0
  184.9720  179.2760  142.7550 C   0  0  0  0  0  2  0  0  0  0  0  0
  184.9300  178.1170  146.7240 O   0  0  0  0  0  0  0  0  0  0  0  0
  185.9990  178.3250  143.3180 C   0  0  0  0  0  3  0  0  0  0  0  0
  189.4550  176.7650  140.6310 C   0  0  0  0  0  2  0  0  0  0  0  0
  190.5670  177.5130  139.9160 C   0  0  0  0  0  2  0  0  0  0  0  0
  191.3640  176.5670  139.0840 C   0  0  0  0  0  0  0  0  0  0  0  0
  190.8010  175.5520  138.5950 O   0  0  0  0  0  0  0  0  0  0  0  0
  192.7980  176.7930  138.8560 C   0  0  0  0  0  0  0  0  0  0  0  0
  193.3890  176.4330  137.6120 N   0  0  0  0  0  1  0  0  0  0  0  0
  193.5130  177.3070  139.7560 O   0  0  0  0  0  0  0  0  0  0  0  0
  1 12  1  6  0  0  0
  1  8  1  0  0  0  0
  2 11  1  0  0  0  0
  2  1  1  0  0  0  0
  4  3  1  0  0  0  0
  5  6  1  0  0  0  0
  5 11  2  0  0  0  0
  7  2  2  0  0  0  0
  8  3  1  0  0  0  0
  9  5  1  0  0  0  0
 10  9  2  0  0  0  0
 10  7  1  0  0  0  0
 11  4  1  0  0  0  0
 12 14  1  0  0  0  0
 13 15  2  0  0  0  0
 14 17  2  0  0  0  0
 15 14  1  0  0  0  0
 16 18  1  0  0  0  0
 16 13  1  0  0  0  0
 18 12  2  0  0  0  0
 19 10  1  0  0  0  0
 20 19  1  0  0  0  0
 21 20  1  0  0  0  0
 22 21  2  0  0  0  0
 23 21  1  0  0  0  0
 23 25  2  0  0  0  0
 24 23  1  0  0  0  0
M  END
>  <MODEL>
4

>  <REMARK>
 VINA RESULT:      -7.4      2.981      7.110
  Name = 
  5 active torsions:
  status: ('A' for Active; 'I' for Inactive)
    1  A    between atoms: C_1  and  C_5
    2  A    between atoms: C_2  and  C_21
    3  A    between atoms: C_6  and  C_15
    4  A    between atoms: C_6  and  C_23
    5  A    between atoms: C_15  and  C_21
                            x       y       z     vdW  Elec       q    Type
                         _______ _______ _______ _____ _____    ______ ____

>  <TORSDO>
F 5

$$$$
=
 OpenBabel10262419453D

 25 27  0  0  1  0  0  0  0  0999 V2000
  187.2040  176.9290  144.3990 C   0  0  1  0  0  3  0  0  0  0  0  0
  186.1290  177.7090  143.6790 C   0  0  0  0  0  0  0  0  0  0  0  0
  188.8280  177.8220  142.6950 C   0  0  0  0  0  2  0  0  0  0  0  0
  187.6990  178.1760  141.7360 C   0  0  0  0  0  2  0  0  0  0  0  0
  185.3640  179.1030  141.8330 C   0  0  0  0  0  0  0  0  0  0  0  0
  185.5860  179.7360  140.6160 O   0  0  0  0  0  1  0  0  0  0  0  0
  184.8670  177.8280  144.2740 C   0  0  0  0  0  3  0  0  0  0  0  0
  188.4280  176.6160  143.5320 C   0  0  0  0  0  2  0  0  0  0  0  0
  184.1120  179.2150  142.4430 C   0  0  0  0  0  3  0  0  0  0  0  0
  183.8600  178.5740  143.6580 C   0  0  0  0  0  0  0  0  0  0  0  0
  186.3840  178.3570  142.4480 C   0  0  0  0  0  0  0  0  0  0  0  0
  187.5910  177.5350  145.7220 C   0  0  0  0  0  0  0  0  0  0  0  0
  188.2070  178.4550  148.3740 C   0  0  0  0  0  3  0  0  0  0  0  0
  188.9260  177.3410  146.3360 C   0  0  0  0  0  0  0  0  0  0  0  0
  189.1460  177.7660  147.7240 C   0  0  0  0  0  3  0  0  0  0  0  0
  186.9260  178.8960  147.7130 C   0  0  0  0  0  2  0  0  0  0  0  0
  189.8630  176.7900  145.7030 O   0  0  0  0  0  0  0  0  0  0  0  0
  186.6560  178.2120  146.3950 C   0  0  0  0  0  3  0  0  0  0  0  0
  182.5310  178.7140  144.3120 C   0  0  0  0  0  2  0  0  0  0  0  0
  181.5320  179.3170  143.3390 C   0  0  0  0  0  2  0  0  0  0  0  0
  180.3710  178.3970  143.1650 C   0  0  0  0  0  0  0  0  0  0  0  0
  179.7890  177.9400  144.1840 O   0  0  0  0  0  0  0  0  0  0  0  0
  179.9230  177.9990  141.8230 C   0  0  0  0  0  0  0  0  0  0  0  0
  179.2870  176.7410  141.6260 N   0  0  0  0  0  1  0  0  0  0  0  0
  180.0980  178.7670  140.8400 O   0  0  0  0  0  0  0  0  0  0  0  0
  1 12  1  1  0  0  0
  2  7  1  0  0  0  0
  2  1  1  0  0  0  0
  3  8  1  0  0  0  0
  4 11  1  0  0  0  0
  4  3  1  0  0  0  0
  5  9  2  0  0  0  0
  5 11  1  0  0  0  0
  6  5  1  0  0  0  0
  8  1  1  0  0  0  0
  9 10  1  0  0  0  0
 10  7  2  0  0  0  0
 10 19  1  0  0  0  0
 11  2  2  0  0  0  0
 12 14  1  0  0  0  0
 12 18  2  0  0  0  0
 14 15  1  0  0  0  0
 15 13  2  0  0  0  0
 16 13  1  0  0  0  0
 17 14  2  0  0  0  0
 18 16  1  0  0  0  0
 20 19  1  0  0  0  0
 21 20  1  0  0  0  0
 21 22  2  0  0  0  0
 23 21  1  0  0  0  0
 24 23  1  0  0  0  0
 25 23  2  0  0  0  0
M  END
>  <MODEL>
5

>  <REMARK>
 VINA RESULT:      -7.4      3.439      5.063
  Name = 
  5 active torsions:
  status: ('A' for Active; 'I' for Inactive)
    1  A    between atoms: C_1  and  C_5
    2  A    between atoms: C_2  and  C_21
    3  A    between atoms: C_6  and  C_15
    4  A    between atoms: C_6  and  C_23
    5  A    between atoms: C_15  and  C_21
                            x       y       z     vdW  Elec       q    Type
                         _______ _______ _______ _____ _____    ______ ____

>  <TORSDO>
F 5

$$$$
=
 OpenBabel10262419453D

 25 27  0  0  1  0  0  0  0  0999 V2000
  187.8920  177.1680  143.1490 C   0  0  1  0  0  3  0  0  0  0  0  0
  187.0830  177.6810  144.3180 C   0  0  0  0  0  0  0  0  0  0  0  0
  186.5510  178.7220  141.6910 C   0  0  0  0  0  2  0  0  0  0  0  0
  185.4600  178.8480  142.7470 C   0  0  0  0  0  2  0  0  0  0  0  0
  185.2700  179.0160  145.2480 C   0  0  0  0  0  0  0  0  0  0  0  0
  184.1630  179.8420  145.0890 O   0  0  0  0  0  1  0  0  0  0  0  0
  187.4790  177.3390  145.6160 C   0  0  0  0  0  3  0  0  0  0  0  0
  187.2040  177.3520  141.7920 C   0  0  0  0  0  2  0  0  0  0  0  0
  185.6810  178.6680  146.5370 C   0  0  0  0  0  3  0  0  0  0  0  0
  186.7800  177.8260  146.7230 C   0  0  0  0  0  0  0  0  0  0  0  0
  185.9690  178.5330  144.1290 C   0  0  0  0  0  0  0  0  0  0  0  0
  189.3070  177.6800  143.1380 C   0  0  0  0  0  0  0  0  0  0  0  0
  192.0470  178.5160  143.3720 C   0  0  0  0  0  3  0  0  0  0  0  0
  190.4100  176.9840  142.4330 C   0  0  0  0  0  0  0  0  0  0  0  0
  191.7940  177.4170  142.6610 C   0  0  0  0  0  3  0  0  0  0  0  0
  190.9510  179.4040  143.9040 C   0  0  0  0  0  2  0  0  0  0  0  0
  190.1840  176.0090  141.6700 O   0  0  0  0  0  0  0  0  0  0  0  0
  189.5820  178.7710  143.8600 C   0  0  0  0  0  3  0  0  0  0  0  0
  187.2260  177.4750  148.0990 C   0  0  0  0  0  2  0  0  0  0  0  0
  188.4530  176.5820  148.0380 C   0  0  0  0  0  2  0  0  0  0  0  0
  189.6890  177.4150  148.0240 C   0  0  0  0  0  0  0  0  0  0  0  0
  189.6700  178.5540  148.5620 O   0  0  0  0  0  0  0  0  0  0  0  0
  190.9130  176.9330  147.3670 C   0  0  0  0  0  0  0  0  0  0  0  0
  192.1260  176.8290  148.1040 N   0  0  0  0  0  1  0  0  0  0  0  0
  190.8960  176.6060  146.1510 O   0  0  0  0  0  0  0  0  0  0  0  0
  1 12  1  6  0  0  0
  1  2  1  0  0  0  0
  2  7  1  0  0  0  0
  3  8  1  0  0  0  0
  3  4  1  0  0  0  0
  4 11  1  0  0  0  0
  5  9  2  0  0  0  0
  6  5  1  0  0  0  0
  7 10  2  0  0  0  0
  8  1  1  0  0  0  0
  9 10  1  0  0  0  0
 10 19  1  0  0  0  0
 11  2  2  0  0  0  0
 11  5  1  0  0  0  0
 12 18  2  0  0  0  0
 13 16  1  0  0  0  0
 14 15  1  0  0  0  0
 14 12  1  0  0  0  0
 15 13  2  0  0  0  0
 17 14  2  0  0  0  0
 18 16  1  0  0  0  0
 20 19  1  0  0  0  0
 21 20  1  0  0  0  0
 21 22  2  0  0  0  0
 23 21  1  0  0  0  0
 23 24  1  0  0  0  0
 25 23  2  0  0  0  0
M  END
>  <MODEL>
6

>  <REMARK>
 VINA RESULT:      -7.3      1.871      3.042
  Name = 
  5 active torsions:
  status: ('A' for Active; 'I' for Inactive)
    1  A    between atoms: C_1  and  C_5
    2  A    between atoms: C_2  and  C_21
    3  A    between atoms: C_6  and  C_15
    4  A    between atoms: C_6  and  C_23
    5  A    between atoms: C_15  and  C_21
                            x       y       z     vdW  Elec       q    Type
                         _______ _______ _______ _____ _____    ______ ____

>  <TORSDO>
F 5

$$$$
=
 OpenBabel10262419453D

 25 27  0  0  1  0  0  0  0  0999 V2000
  189.4010  176.2320  143.8380 C   0  0  1  0  0  3  0  0  0  0  0  0
  188.5250  177.0490  142.9160 C   0  0  0  0  0  0  0  0  0  0  0  0
  191.3620  176.9810  142.4460 C   0  0  0  0  0  2  0  0  0  0  0  0
  190.4510  177.3690  141.2880 C   0  0  0  0  0  2  0  0  0  0  0  0
  188.1990  178.4270  140.9340 C   0  0  0  0  0  0  0  0  0  0  0  0
  188.6780  179.0110  139.7670 O   0  0  0  0  0  1  0  0  0  0  0  0
  187.1850  177.2560  143.2640 C   0  0  0  0  0  3  0  0  0  0  0  0
  190.7420  175.8250  143.2180 C   0  0  0  0  0  2  0  0  0  0  0  0
  186.8650  178.6270  141.2990 C   0  0  0  0  0  3  0  0  0  0  0  0
  186.3560  178.0380  142.4590 C   0  0  0  0  0  0  0  0  0  0  0  0
  189.0410  177.6450  141.7410 C   0  0  0  0  0  0  0  0  0  0  0  0
  189.5740  176.8540  145.1970 C   0  0  0  0  0  0  0  0  0  0  0  0
  189.7590  177.8100  147.9010 C   0  0  0  0  0  3  0  0  0  0  0  0
  190.7870  176.6540  146.0260 C   0  0  0  0  0  0  0  0  0  0  0  0
  190.7820  177.0990  147.4240 C   0  0  0  0  0  3  0  0  0  0  0  0
  188.6120  178.2560  147.0320 C   0  0  0  0  0  2  0  0  0  0  0  0
  191.8070  176.0810  145.5630 O   0  0  0  0  0  0  0  0  0  0  0  0
  188.5510  177.5540  145.6970 C   0  0  0  0  0  3  0  0  0  0  0  0
  184.9400  178.2720  142.8520 C   0  0  0  0  0  2  0  0  0  0  0  0
  184.8550  179.4350  143.8260 C   0  0  0  0  0  2  0  0  0  0  0  0
  184.1740  179.0000  145.0800 C   0  0  0  0  0  0  0  0  0  0  0  0
  182.9180  178.9040  145.0970 O   0  0  0  0  0  0  0  0  0  0  0  0
  184.9500  178.7120  146.2950 C   0  0  0  0  0  0  0  0  0  0  0  0
  185.6810  179.7500  146.9380 N   0  0  0  0  0  1  0  0  0  0  0  0
  184.9730  177.5480  146.7750 O   0  0  0  0  0  0  0  0  0  0  0  0
  1 12  1  1  0  0  0
  2  7  1  0  0  0  0
  2  1  1  0  0  0  0
  3  8  1  0  0  0  0
  4 11  1  0  0  0  0
  4  3  1  0  0  0  0
  5  9  2  0  0  0  0
  5 11  1  0  0  0  0
  6  5  1  0  0  0  0
  8  1  1  0  0  0  0
  9 10  1  0  0  0  0
 10 19  1  0  0  0  0
 10  7  2  0  0  0  0
 11  2  2  0  0  0  0
 12 18  2  0  0  0  0
 12 14  1  0  0  0  0
 14 15  1  0  0  0  0
 15 13  2  0  0  0  0
 16 13  1  0  0  0  0
 17 14  2  0  0  0  0
 18 16  1  0  0  0  0
 19 20  1  0  0  0  0
 20 21  1  0  0  0  0
 21 22  2  0  0  0  0
 21 23  1  0  0  0  0
 23 25  2  0  0  0  0
 23 24  1  0  0  0  0
M  END
>  <MODEL>
7

>  <REMARK>
 VINA RESULT:      -7.2      1.954      2.923
  Name = 
  5 active torsions:
  status: ('A' for Active; 'I' for Inactive)
    1  A    between atoms: C_1  and  C_5
    2  A    between atoms: C_2  and  C_21
    3  A    between atoms: C_6  and  C_15
    4  A    between atoms: C_6  and  C_23
    5  A    between atoms: C_15  and  C_21
                            x       y       z     vdW  Elec       q    Type
                         _______ _______ _______ _____ _____    ______ ____

>  <TORSDO>
F 5

$$$$
=
 OpenBabel10262419453D

 25 27  0  0  1  0  0  0  0  0999 V2000
  188.9360  176.6450  144.4820 C   0  0  1  0  0  3  0  0  0  0  0  0
  188.1660  177.3280  143.3750 C   0  0  0  0  0  0  0  0  0  0  0  0
  191.0270  177.6050  143.4600 C   0  0  0  0  0  2  0  0  0  0  0  0
  190.3210  177.8530  142.1330 C   0  0  0  0  0  2  0  0  0  0  0  0
  188.0720  178.6150  141.3090 C   0  0  0  0  0  0  0  0  0  0  0  0
  188.6970  179.2300  140.2310 O   0  0  0  0  0  1  0  0  0  0  0  0
  186.7690  177.3740  143.4520 C   0  0  0  0  0  3  0  0  0  0  0  0
  190.4100  176.3960  144.1490 C   0  0  0  0  0  2  0  0  0  0  0  0
  186.6790  178.6540  141.4030 C   0  0  0  0  0  3  0  0  0  0  0  0
  186.0260  178.0300  142.4690 C   0  0  0  0  0  0  0  0  0  0  0  0
  188.8270  177.9600  142.2950 C   0  0  0  0  0  0  0  0  0  0  0  0
  188.7650  177.3120  145.8210 C   0  0  0  0  0  0  0  0  0  0  0  0
  188.3080  178.3360  148.4670 C   0  0  0  0  0  3  0  0  0  0  0  0
  189.8130  177.2910  146.8700 C   0  0  0  0  0  0  0  0  0  0  0  0
  189.4850  177.7590  148.2220 C   0  0  0  0  0  3  0  0  0  0  0  0
  187.3000  178.6080  147.3800 C   0  0  0  0  0  2  0  0  0  0  0  0
  190.9670  176.8490  146.6310 O   0  0  0  0  0  0  0  0  0  0  0  0
  187.5850  177.8790  146.0900 C   0  0  0  0  0  3  0  0  0  0  0  0
  184.5430  178.0940  142.5740 C   0  0  0  0  0  2  0  0  0  0  0  0
  184.1240  179.3840  143.2570 C   0  0  0  0  0  2  0  0  0  0  0  0
  182.9870  179.1230  144.1860 C   0  0  0  0  0  0  0  0  0  0  0  0
  183.2140  179.0030  145.4190 O   0  0  0  0  0  0  0  0  0  0  0  0
  181.6170  178.9750  143.6740 C   0  0  0  0  0  0  0  0  0  0  0  0
  181.2610  179.5350  142.4140 N   0  0  0  0  0  1  0  0  0  0  0  0
  180.7500  178.3530  144.3430 O   0  0  0  0  0  0  0  0  0  0  0  0
  1 12  1  1  0  0  0
  2  7  1  0  0  0  0
  2  1  1  0  0  0  0
  3  8  1  0  0  0  0
  4 11  1  0  0  0  0
  4  3  1  0  0  0  0
  5  9  2  0  0  0  0
  5 11  1  0  0  0  0
  6  5  1  0  0  0  0
  8  1  1  0  0  0  0
  9 10  1  0  0  0  0
 10 19  1  0  0  0  0
 10  7  2  0  0  0  0
 11  2  2  0  0  0  0
 12 18  2  0  0  0  0
 12 14  1  0  0  0  0
 14 15  1  0  0  0  0
 15 13  2  0  0  0  0
 16 13  1  0  0  0  0
 17 14  2  0  0  0  0
 18 16  1  0  0  0  0
 19 20  1  0  0  0  0
 20 21  1  0  0  0  0
 21 22  2  0  0  0  0
 23 21  1  0  0  0  0
 23 25  2  0  0  0  0
 24 23  1  0  0  0  0
M  END
>  <MODEL>
8

>  <REMARK>
 VINA RESULT:      -7.1      2.848      4.266
  Name = 
  5 active torsions:
  status: ('A' for Active; 'I' for Inactive)
    1  A    between atoms: C_1  and  C_5
    2  A    between atoms: C_2  and  C_21
    3  A    between atoms: C_6  and  C_15
    4  A    between atoms: C_6  and  C_23
    5  A    between atoms: C_15  and  C_21
                            x       y       z     vdW  Elec       q    Type
                         _______ _______ _______ _____ _____    ______ ____

>  <TORSDO>
F 5

$$$$
=
 OpenBabel10262419453D

 25 27  0  0  1  0  0  0  0  0999 V2000
  188.5620  176.6050  144.3990 C   0  0  1  0  0  3  0  0  0  0  0  0
  187.8640  177.3220  143.2670 C   0  0  0  0  0  0  0  0  0  0  0  0
  190.7320  177.4430  143.4330 C   0  0  0  0  0  2  0  0  0  0  0  0
  190.0790  177.7200  142.0860 C   0  0  0  0  0  2  0  0  0  0  0  0
  187.8990  178.5990  141.1930 C   0  0  0  0  0  0  0  0  0  0  0  0
  188.5880  179.1720  140.1300 O   0  0  0  0  0  1  0  0  0  0  0  0
  186.4700  177.4450  143.3030 C   0  0  0  0  0  3  0  0  0  0  0  0
  190.0300  176.2740  144.1100 C   0  0  0  0  0  2  0  0  0  0  0  0
  186.5080  178.7150  141.2460 C   0  0  0  0  0  3  0  0  0  0  0  0
  185.7920  178.1340  142.2960 C   0  0  0  0  0  0  0  0  0  0  0  0
  188.5890  177.9100  142.2040 C   0  0  0  0  0  0  0  0  0  0  0  0
  188.3910  177.2890  145.7300 C   0  0  0  0  0  0  0  0  0  0  0  0
  187.9210  178.3500  148.3590 C   0  0  0  0  0  3  0  0  0  0  0  0
  189.4200  177.2450  146.7960 C   0  0  0  0  0  0  0  0  0  0  0  0
  189.0840  177.7350  148.1380 C   0  0  0  0  0  3  0  0  0  0  0  0
  186.9400  178.6430  147.2520 C   0  0  0  0  0  2  0  0  0  0  0  0
  190.5630  176.7670  146.5800 O   0  0  0  0  0  0  0  0  0  0  0  0
  187.2240  177.8940  145.9740 C   0  0  0  0  0  3  0  0  0  0  0  0
  184.3120  178.2790  142.3580 C   0  0  0  0  0  2  0  0  0  0  0  0
  183.6830  177.7520  141.0790 C   0  0  0  0  0  2  0  0  0  0  0  0
  182.7410  178.7650  140.5210 C   0  0  0  0  0  0  0  0  0  0  0  0
  181.6700  179.0130  141.1340 O   0  0  0  0  0  0  0  0  0  0  0  0
  183.0390  179.4490  139.2540 C   0  0  0  0  0  0  0  0  0  0  0  0
  184.2580  180.1660  139.0990 N   0  0  0  0  0  1  0  0  0  0  0  0
  182.2190  179.4050  138.2990 O   0  0  0  0  0  0  0  0  0  0  0  0
  1 12  1  1  0  0  0
  2  7  1  0  0  0  0
  2  1  1  0  0  0  0
  3  8  1  0  0  0  0
  4 11  1  0  0  0  0
  4  3  1  0  0  0  0
  5  9  2  0  0  0  0
  5 11  1  0  0  0  0
  6  5  1  0  0  0  0
  8  1  1  0  0  0  0
  9 10  1  0  0  0  0
 10 19  1  0  0  0  0
 10  7  2  0  0  0  0
 11  2  2  0  0  0  0
 12 18  2  0  0  0  0
 12 14  1  0  0  0  0
 14 15  1  0  0  0  0
 15 13  2  0  0  0  0
 16 13  1  0  0  0  0
 17 14  2  0  0  0  0
 18 16  1  0  0  0  0
 20 19  1  0  0  0  0
 21 20  1  0  0  0  0
 21 22  2  0  0  0  0
 23 21  1  0  0  0  0
 24 23  1  0  0  0  0
 25 23  2  0  0  0  0
M  END
>  <MODEL>
9

>  <REMARK>
 VINA RESULT:      -7.1      2.787      5.178
  Name = 
  5 active torsions:
  status: ('A' for Active; 'I' for Inactive)
    1  A    between atoms: C_1  and  C_5
    2  A    between atoms: C_2  and  C_21
    3  A    between atoms: C_6  and  C_15
    4  A    between atoms: C_6  and  C_23
    5  A    between atoms: C_15  and  C_21
                            x       y       z     vdW  Elec       q    Type
                         _______ _______ _______ _____ _____    ______ ____

>  <TORSDO>
F 5

$$$$
