=
 OpenBabel10262422363D

 43 47  0  0  1  0  0  0  0  0999 V2000
  187.5220  177.8330  147.3050 C   0  0  0  0  0  0  0  0  0  0  0  0
  184.0110  178.7580  143.8010 C   0  0  0  0  0  0  0  0  0  0  0  0
  185.9940  178.0540  142.3850 C   0  0  0  0  0  2  0  0  0  0  0  0
  185.4790  178.4350  146.1500 C   0  0  0  0  0  0  0  0  0  0  0  0
  188.1410  177.5710  146.0810 C   0  0  0  0  0  3  0  0  0  0  0  0
  188.2090  177.6680  148.4600 F   0  0  0  0  0  0  0  0  0  0  0  0
  186.0990  178.1720  144.9070 C   0  0  0  0  0  0  0  0  0  0  0  0
  186.1930  178.2650  147.3390 C   0  0  0  0  0  3  0  0  0  0  0  0
  187.4350  177.7400  144.8870 C   0  0  0  0  0  3  0  0  0  0  0  0
  185.3260  178.8320  141.2560 C   0  0  2  0  0  3  0  0  0  0  0  0
  185.3650  178.3550  143.7220 C   0  0  0  0  0  0  0  0  0  0  0  0
  183.4600  179.0300  145.0610 C   0  0  0  0  0  3  0  0  0  0  0  0
  183.1920  179.0460  142.5580 C   0  0  1  0  0  3  0  0  0  0  0  0
  183.8390  178.5060  141.2790 C   0  0  0  0  0  2  0  0  0  0  0  0
  184.1910  178.8590  146.1920 N   0  0  0  0  0  0  0  0  0  0  0  0
  185.9340  178.4420  139.9130 C   0  0  1  0  0  3  0  0  0  0  0  0
  185.3800  179.2170  138.8930 O   0  0  0  0  0  1  0  0  0  0  0  0
  187.3740  178.6490  139.9400 N   0  0  0  0  0  2  0  0  0  0  0  0
  188.0700  178.9960  137.4100 O   0  0  0  0  0  0  0  0  0  0  0  0
  188.0380  177.9570  138.4960 S   0  0  0  0  0  0  0  0  0  0  0  0
  187.1800  176.7990  138.0660 O   0  0  0  0  0  0  0  0  0  0  0  0
  189.6520  177.3980  138.8120 N   0  0  0  0  0  0  0  0  0  0  0  0
  190.1840  177.3440  140.1470 C   0  0  0  0  0  0  0  0  0  0  0  0
  191.4100  177.1160  140.3290 O   0  0  0  0  0  0  0  0  0  0  0  0
  189.3000  177.5290  141.3400 C   0  0  0  0  0  2  0  0  0  0  0  0
  190.1040  177.5000  142.5970 C   0  0  0  0  0  0  0  0  0  0  0  0
  191.3190  178.6690  144.3380 C   0  0  0  0  0  3  0  0  0  0  0  0
  191.2050  176.2500  144.3590 C   0  0  0  0  0  3  0  0  0  0  0  0
  191.6460  177.4470  144.9320 C   0  0  0  0  0  3  0  0  0  0  0  0
  190.4360  176.2770  143.1920 C   0  0  0  0  0  3  0  0  0  0  0  0
  190.5500  178.6960  143.1700 C   0  0  0  0  0  3  0  0  0  0  0  0
  190.4730  176.9640  137.6870 C   0  0  0  0  0  2  0  0  0  0  0  0
  191.2950  174.7470  138.0250 O   0  0  0  0  0  1  0  0  0  0  0  0
  190.2730  175.4810  137.4250 C   0  0  0  0  0  2  0  0  0  0  0  0
  181.7770  178.4880  142.6830 C   0  0  0  0  0  2  0  0  0  0  0  0
  180.0100  177.6930  139.4280 C   0  0  0  0  0  3  0  0  0  0  0  0
  179.6260  178.9730  138.9950 C   0  0  0  0  0  0  0  0  0  0  0  0
  180.6410  179.9310  140.9790 C   0  0  0  0  0  3  0  0  0  0  0  0
  180.7050  177.5350  140.6300 C   0  0  0  0  0  3  0  0  0  0  0  0
  181.0190  178.6540  141.4090 C   0  0  0  0  0  0  0  0  0  0  0  0
  179.9470  180.0880  139.7770 C   0  0  0  0  0  3  0  0  0  0  0  0
  178.9870  180.3800  137.0640 C   0  0  0  0  0  1  0  0  0  0  0  0
  178.9310  179.1640  137.7970 O   0  0  0  0  0  0  0  0  0  0  0  0
  1  8  1  0  0  0  0
  1  6  1  0  0  0  0
  2 12  1  0  0  0  0
  3 11  1  0  0  0  0
  4 15  1  0  0  0  0
  4  8  2  0  0  0  0
  5  1  2  0  0  0  0
  7  4  1  0  0  0  0
  9  7  2  0  0  0  0
  9  5  1  0  0  0  0
 10 16  1  6  0  0  0
 10 14  1  0  0  0  0
 10  3  1  0  0  0  0
 11  2  2  0  0  0  0
 11  7  1  0  0  0  0
 12 15  2  0  0  0  0
 13 35  1  1  0  0  0
 13  2  1  0  0  0  0
 14 13  1  0  0  0  0
 16 17  1  6  0  0  0
 16 18  1  0  0  0  0
 19 20  2  0  0  0  0
 20 22  1  0  0  0  0
 20 18  1  0  0  0  0
 21 20  2  0  0  0  0
 22 23  1  0  0  0  0
 23 24  2  0  0  0  0
 23 25  1  0  0  0  0
 25 26  1  0  0  0  0
 26 31  2  0  0  0  0
 26 30  1  0  0  0  0
 27 29  2  0  0  0  0
 28 29  1  0  0  0  0
 30 28  2  0  0  0  0
 31 27  1  0  0  0  0
 32 22  1  0  0  0  0
 34 32  1  0  0  0  0
 34 33  1  0  0  0  0
 36 39  1  0  0  0  0
 37 36  2  0  0  0  0
 37 41  1  0  0  0  0
 38 40  1  0  0  0  0
 39 40  2  0  0  0  0
 40 35  1  0  0  0  0
 41 38  2  0  0  0  0
 42 43  1  0  0  0  0
 43 37  1  0  0  0  0
M  END
>  <MODEL>
1

>  <REMARK>
 VINA RESULT:     -10.1      0.000      0.000
  Name = 
  11 active torsions:
  status: ('A' for Active; 'I' for Inactive)
    1  A    between atoms: C_1  and  C_34
    2  A    between atoms: C_1  and  C_35
    3  A    between atoms: C_2  and  N_6
    4  A    between atoms: C_2  and  C_27
    5  A    between atoms: N_4  and  S_12
    6  A    between atoms: N_4  and  C_15
    7  A    between atoms: N_6  and  S_12
    8  A    between atoms: C_11  and  C_14
    9  A    between atoms: C_14  and  C_22
   10  A    between atoms: C_15  and  C_42
   11  A    between atoms: C_19  and  O_37
                            x       y       z     vdW  Elec       q    Type
                         _______ _______ _______ _____ _____    ______ ____

>  <TORSDO>
F 11

$$$$
=
 OpenBabel10262422363D

 43 47  0  0  1  0  0  0  0  0999 V2000
  191.1040  176.6440  147.0380 C   0  0  0  0  0  0  0  0  0  0  0  0
  189.1580  177.6370  142.4890 C   0  0  0  0  0  0  0  0  0  0  0  0
  187.1940  178.1250  144.0190 C   0  0  0  0  0  2  0  0  0  0  0  0
  190.7670  176.9340  144.6570 C   0  0  0  0  0  0  0  0  0  0  0  0
  189.7850  177.0380  147.2770 C   0  0  0  0  0  3  0  0  0  0  0  0
  191.9090  176.3130  148.0750 F   0  0  0  0  0  0  0  0  0  0  0  0
  189.4300  177.3330  144.8900 C   0  0  0  0  0  0  0  0  0  0  0  0
  191.5930  176.5920  145.7300 C   0  0  0  0  0  3  0  0  0  0  0  0
  188.9510  177.3810  146.2090 C   0  0  0  0  0  3  0  0  0  0  0  0
  186.3180  177.8750  142.7950 C   0  0  2  0  0  3  0  0  0  0  0  0
  188.6130  177.6680  143.7950 C   0  0  0  0  0  0  0  0  0  0  0  0
  190.4810  177.2070  142.3190 C   0  0  0  0  0  3  0  0  0  0  0  0
  188.3060  177.9130  141.2650 C   0  0  1  0  0  3  0  0  0  0  0  0
  186.9670  178.5710  141.6070 C   0  0  0  0  0  2  0  0  0  0  0  0
  191.2480  176.8760  143.3890 N   0  0  0  0  0  0  0  0  0  0  0  0
  184.9140  178.4210  143.0300 C   0  0  1  0  0  3  0  0  0  0  0  0
  184.9270  179.3370  144.0850 O   0  0  0  0  0  1  0  0  0  0  0  0
  184.4300  179.0850  141.8290 N   0  0  0  0  0  2  0  0  0  0  0  0
  182.0060  178.4470  142.6790 O   0  0  0  0  0  0  0  0  0  0  0  0
  182.8720  178.4270  141.4500 S   0  0  0  0  0  0  0  0  0  0  0  0
  183.0390  177.0130  140.9670 O   0  0  0  0  0  0  0  0  0  0  0  0
  182.1300  179.3820  140.2020 N   0  0  0  0  0  0  0  0  0  0  0  0
  182.8950  179.9260  139.1130 C   0  0  0  0  0  0  0  0  0  0  0  0
  182.3710  180.7640  138.3310 O   0  0  0  0  0  0  0  0  0  0  0  0
  184.3060  179.4940  138.8660 C   0  0  0  0  0  2  0  0  0  0  0  0
  184.3390  178.2730  138.0080 C   0  0  0  0  0  0  0  0  0  0  0  0
  185.5900  176.4920  136.9420 C   0  0  0  0  0  3  0  0  0  0  0  0
  183.1970  176.6570  136.6080 C   0  0  0  0  0  3  0  0  0  0  0  0
  184.4120  176.0090  136.3660 C   0  0  0  0  0  3  0  0  0  0  0  0
  183.1610  177.7900  137.4270 C   0  0  0  0  0  3  0  0  0  0  0  0
  185.5550  177.6250  137.7610 C   0  0  0  0  0  3  0  0  0  0  0  0
  180.6930  179.6210  140.2690 C   0  0  0  0  0  2  0  0  0  0  0  0
  179.8320  178.2810  138.4870 O   0  0  0  0  0  1  0  0  0  0  0  0
  179.9280  178.3670  139.8760 C   0  0  0  0  0  2  0  0  0  0  0  0
  189.0520  178.7780  140.2530 C   0  0  0  0  0  2  0  0  0  0  0  0
  189.2570  176.1290  137.5520 C   0  0  0  0  0  3  0  0  0  0  0  0
  189.1880  176.9090  136.3860 C   0  0  0  0  0  0  0  0  0  0  0  0
  189.0210  178.9080  137.7510 C   0  0  0  0  0  3  0  0  0  0  0  0
  189.2070  176.7380  138.8100 C   0  0  0  0  0  3  0  0  0  0  0  0
  189.0860  178.1270  138.9120 C   0  0  0  0  0  0  0  0  0  0  0  0
  189.0710  178.2990  136.4950 C   0  0  0  0  0  3  0  0  0  0  0  0
  188.5330  175.1400  134.7860 C   0  0  0  0  0  1  0  0  0  0  0  0
  189.2350  176.3320  135.1140 O   0  0  0  0  0  0  0  0  0  0  0  0
  1  5  1  0  0  0  0
  1  6  1  0  0  0  0
  2 11  1  0  0  0  0
  4  7  1  0  0  0  0
  4  8  1  0  0  0  0
  7  9  1  0  0  0  0
  8  1  2  0  0  0  0
  9  5  2  0  0  0  0
 10 16  1  1  0  0  0
 10  3  1  0  0  0  0
 11  3  1  0  0  0  0
 11  7  2  0  0  0  0
 12  2  2  0  0  0  0
 12 15  1  0  0  0  0
 13 35  1  6  0  0  0
 13 14  1  0  0  0  0
 13  2  1  0  0  0  0
 14 10  1  0  0  0  0
 15  4  2  0  0  0  0
 16 17  1  1  0  0  0
 18 16  1  0  0  0  0
 20 18  1  0  0  0  0
 20 19  2  0  0  0  0
 21 20  2  0  0  0  0
 22 32  1  0  0  0  0
 22 20  1  0  0  0  0
 23 22  1  0  0  0  0
 24 23  2  0  0  0  0
 25 23  1  0  0  0  0
 26 25  1  0  0  0  0
 27 31  2  0  0  0  0
 28 30  1  0  0  0  0
 29 28  2  0  0  0  0
 29 27  1  0  0  0  0
 30 26  2  0  0  0  0
 31 26  1  0  0  0  0
 33 34  1  0  0  0  0
 34 32  1  0  0  0  0
 36 39  1  0  0  0  0
 37 41  1  0  0  0  0
 37 36  2  0  0  0  0
 38 40  1  0  0  0  0
 39 40  2  0  0  0  0
 40 35  1  0  0  0  0
 41 38  2  0  0  0  0
 42 43  1  0  0  0  0
 43 37  1  0  0  0  0
M  END
>  <MODEL>
2

>  <REMARK>
 VINA RESULT:      -9.0      2.903      7.630
  Name = 
  11 active torsions:
  status: ('A' for Active; 'I' for Inactive)
    1  A    between atoms: C_1  and  C_34
    2  A    between atoms: C_1  and  C_35
    3  A    between atoms: C_2  and  N_6
    4  A    between atoms: C_2  and  C_27
    5  A    between atoms: N_4  and  S_12
    6  A    between atoms: N_4  and  C_15
    7  A    between atoms: N_6  and  S_12
    8  A    between atoms: C_11  and  C_14
    9  A    between atoms: C_14  and  C_22
   10  A    between atoms: C_15  and  C_42
   11  A    between atoms: C_19  and  O_37
                            x       y       z     vdW  Elec       q    Type
                         _______ _______ _______ _____ _____    ______ ____

>  <TORSDO>
F 11

$$$$
=
 OpenBabel10262422363D

 43 47  0  0  1  0  0  0  0  0999 V2000
  186.9040  177.7820  146.3440 C   0  0  0  0  0  0  0  0  0  0  0  0
  184.8220  178.6170  141.8250 C   0  0  0  0  0  0  0  0  0  0  0  0
  187.1720  177.9000  141.1960 C   0  0  0  0  0  2  0  0  0  0  0  0
  185.3870  178.3480  144.5430 C   0  0  0  0  0  0  0  0  0  0  0  0
  187.9090  177.5010  145.4160 C   0  0  0  0  0  3  0  0  0  0  0  0
  187.1490  177.6430  147.6690 F   0  0  0  0  0  0  0  0  0  0  0  0
  186.3990  178.0660  143.5960 C   0  0  0  0  0  0  0  0  0  0  0  0
  185.6450  178.2050  145.9080 C   0  0  0  0  0  3  0  0  0  0  0  0
  187.6600  177.6430  144.0480 C   0  0  0  0  0  3  0  0  0  0  0  0
  186.9360  178.6530  139.8900 C   0  0  2  0  0  3  0  0  0  0  0  0
  186.1200  178.2220  142.2260 C   0  0  0  0  0  0  0  0  0  0  0  0
  183.8690  178.9080  142.8100 C   0  0  0  0  0  3  0  0  0  0  0  0
  184.4830  178.8760  140.3690 C   0  0  1  0  0  3  0  0  0  0  0  0
  185.5330  178.3170  139.4050 C   0  0  0  0  0  2  0  0  0  0  0  0
  184.1640  178.7640  144.1280 N   0  0  0  0  0  0  0  0  0  0  0  0
  187.9710  178.2420  138.8490 C   0  0  1  0  0  3  0  0  0  0  0  0
  188.9960  179.1890  138.7930 O   0  0  0  0  0  1  0  0  0  0  0  0
  188.5390  176.9470  139.1940 N   0  0  0  0  0  2  0  0  0  0  0  0
  189.5960  177.4740  136.8270 O   0  0  0  0  0  0  0  0  0  0  0  0
  189.7490  176.5650  138.0140 S   0  0  0  0  0  0  0  0  0  0  0  0
  189.5820  175.1340  137.5840 O   0  0  0  0  0  0  0  0  0  0  0  0
  191.3260  176.7820  138.7120 N   0  0  0  0  0  0  0  0  0  0  0  0
  191.5050  176.9710  140.1250 C   0  0  0  0  0  0  0  0  0  0  0  0
  192.6310  177.3110  140.5790 O   0  0  0  0  0  0  0  0  0  0  0  0
  190.3800  176.7440  141.0860 C   0  0  0  0  0  2  0  0  0  0  0  0
  190.8000  177.0880  142.4760 C   0  0  0  0  0  0  0  0  0  0  0  0
  191.3640  178.7510  144.1470 C   0  0  0  0  0  3  0  0  0  0  0  0
  191.4810  176.3950  144.6970 C   0  0  0  0  0  3  0  0  0  0  0  0
  191.6280  177.7350  145.0700 C   0  0  0  0  0  3  0  0  0  0  0  0
  191.0690  176.0720  143.4010 C   0  0  0  0  0  3  0  0  0  0  0  0
  190.9520  178.4280  142.8500 C   0  0  0  0  0  3  0  0  0  0  0  0
  192.4870  176.7580  137.8300 C   0  0  0  0  0  2  0  0  0  0  0  0
  194.4070  175.4270  138.3340 O   0  0  0  0  0  1  0  0  0  0  0  0
  193.1130  175.3730  137.8160 C   0  0  0  0  0  2  0  0  0  0  0  0
  183.1120  178.3110  140.0090 C   0  0  0  0  0  2  0  0  0  0  0  0
  181.5670  181.3700  138.3940 C   0  0  0  0  0  3  0  0  0  0  0  0
  180.3550  181.4780  139.0960 C   0  0  0  0  0  0  0  0  0  0  0  0
  180.9450  179.5100  140.3860 C   0  0  0  0  0  3  0  0  0  0  0  0
  182.4610  180.3360  138.6880 C   0  0  0  0  0  3  0  0  0  0  0  0
  182.1500  179.4030  139.6820 C   0  0  0  0  0  0  0  0  0  0  0  0
  180.0520  180.5430  140.0920 C   0  0  0  0  0  3  0  0  0  0  0  0
  179.7050  183.5410  137.8960 C   0  0  0  0  0  1  0  0  0  0  0  0
  179.4400  182.5000  138.8270 O   0  0  0  0  0  0  0  0  0  0  0  0
  1  6  1  0  0  0  0
  2 11  2  0  0  0  0
  2 12  1  0  0  0  0
  3 11  1  0  0  0  0
  4  8  2  0  0  0  0
  5  1  2  0  0  0  0
  7  9  2  0  0  0  0
  7  4  1  0  0  0  0
  8  1  1  0  0  0  0
  9  5  1  0  0  0  0
 10 16  1  6  0  0  0
 10  3  1  0  0  0  0
 11  7  1  0  0  0  0
 12 15  2  0  0  0  0
 13 35  1  6  0  0  0
 13  2  1  0  0  0  0
 14 10  1  0  0  0  0
 14 13  1  0  0  0  0
 15  4  1  0  0  0  0
 16 17  1  1  0  0  0
 16 18  1  0  0  0  0
 19 20  2  0  0  0  0
 20 22  1  0  0  0  0
 20 18  1  0  0  0  0
 21 20  2  0  0  0  0
 22 23  1  0  0  0  0
 23 24  2  0  0  0  0
 23 25  1  0  0  0  0
 25 26  1  0  0  0  0
 26 31  2  0  0  0  0
 26 30  1  0  0  0  0
 27 29  2  0  0  0  0
 28 29  1  0  0  0  0
 30 28  2  0  0  0  0
 31 27  1  0  0  0  0
 32 22  1  0  0  0  0
 34 32  1  0  0  0  0
 34 33  1  0  0  0  0
 36 39  2  0  0  0  0
 36 37  1  0  0  0  0
 37 41  2  0  0  0  0
 39 40  1  0  0  0  0
 40 35  1  0  0  0  0
 40 38  2  0  0  0  0
 41 38  1  0  0  0  0
 42 43  1  0  0  0  0
 43 37  1  0  0  0  0
M  END
>  <MODEL>
3

>  <REMARK>
 VINA RESULT:      -8.9      1.672      2.158
  Name = 
  11 active torsions:
  status: ('A' for Active; 'I' for Inactive)
    1  A    between atoms: C_1  and  C_34
    2  A    between atoms: C_1  and  C_35
    3  A    between atoms: C_2  and  N_6
    4  A    between atoms: C_2  and  C_27
    5  A    between atoms: N_4  and  S_12
    6  A    between atoms: N_4  and  C_15
    7  A    between atoms: N_6  and  S_12
    8  A    between atoms: C_11  and  C_14
    9  A    between atoms: C_14  and  C_22
   10  A    between atoms: C_15  and  C_42
   11  A    between atoms: C_19  and  O_37
                            x       y       z     vdW  Elec       q    Type
                         _______ _______ _______ _____ _____    ______ ____

>  <TORSDO>
F 11

$$$$
=
 OpenBabel10262422363D

 43 47  0  0  1  0  0  0  0  0999 V2000
  188.0980  177.6510  147.9070 C   0  0  0  0  0  0  0  0  0  0  0  0
  188.0220  177.9570  142.8710 C   0  0  0  0  0  0  0  0  0  0  0  0
  185.6020  178.4340  143.4640 C   0  0  0  0  0  2  0  0  0  0  0  0
  188.6960  177.6440  145.5600 C   0  0  0  0  0  0  0  0  0  0  0  0
  186.7750  177.9500  147.5740 C   0  0  0  0  0  3  0  0  0  0  0  0
  188.4530  177.5110  149.2060 F   0  0  0  0  0  0  0  0  0  0  0  0
  187.3580  177.9460  145.2140 C   0  0  0  0  0  0  0  0  0  0  0  0
  189.0570  177.4980  146.9010 C   0  0  0  0  0  3  0  0  0  0  0  0
  186.4050  178.0960  146.2340 C   0  0  0  0  0  3  0  0  0  0  0  0
  185.2780  177.9730  142.0460 C   0  0  2  0  0  3  0  0  0  0  0  0
  187.0150  178.0830  143.8570 C   0  0  0  0  0  0  0  0  0  0  0  0
  189.3240  177.6300  143.2740 C   0  0  0  0  0  3  0  0  0  0  0  0
  187.6990  178.0180  141.3910 C   0  0  1  0  0  3  0  0  0  0  0  0
  186.3060  178.5880  141.1080 C   0  0  0  0  0  2  0  0  0  0  0  0
  189.6310  177.4900  144.5890 N   0  0  0  0  0  0  0  0  0  0  0  0
  183.8720  178.4140  141.6560 C   0  0  1  0  0  3  0  0  0  0  0  0
  183.2310  178.9960  142.7520 O   0  0  0  0  0  1  0  0  0  0  0  0
  183.9350  179.3840  140.5720 N   0  0  0  0  0  2  0  0  0  0  0  0
  182.7270  179.9440  138.2860 O   0  0  0  0  0  0  0  0  0  0  0  0
  182.5930  179.0910  139.5170 S   0  0  0  0  0  0  0  0  0  0  0  0
  181.3170  179.4320  140.2360 O   0  0  0  0  0  0  0  0  0  0  0  0
  182.5710  177.4150  139.0610 N   0  0  0  0  0  0  0  0  0  0  0  0
  183.6010  176.8440  138.2360 C   0  0  0  0  0  0  0  0  0  0  0  0
  183.4630  175.6820  137.7670 O   0  0  0  0  0  0  0  0  0  0  0  0
  184.8600  177.5960  137.9380 C   0  0  0  0  0  2  0  0  0  0  0  0
  185.6840  176.8640  136.9320 C   0  0  0  0  0  0  0  0  0  0  0  0
  187.1370  175.0110  136.3590 C   0  0  0  0  0  3  0  0  0  0  0  0
  186.6030  176.6880  134.6960 C   0  0  0  0  0  3  0  0  0  0  0  0
  187.2630  175.5110  135.0600 C   0  0  0  0  0  3  0  0  0  0  0  0
  185.8150  177.3650  135.6320 C   0  0  0  0  0  3  0  0  0  0  0  0
  186.3500  175.6880  137.2960 C   0  0  0  0  0  3  0  0  0  0  0  0
  181.4810  176.5740  139.5430 C   0  0  0  0  0  2  0  0  0  0  0  0
  179.9430  175.2830  138.2490 O   0  0  0  0  0  1  0  0  0  0  0  0
  180.3240  176.5890  138.5580 C   0  0  0  0  0  2  0  0  0  0  0  0
  188.7430  178.8290  140.6270 C   0  0  0  0  0  2  0  0  0  0  0  0
  189.4350  177.8240  137.0410 C   0  0  0  0  0  3  0  0  0  0  0  0
  190.1650  176.6370  137.2160 C   0  0  0  0  0  0  0  0  0  0  0  0
  189.9710  176.8910  139.6210 C   0  0  0  0  0  3  0  0  0  0  0  0
  188.9770  178.5400  138.1510 C   0  0  0  0  0  3  0  0  0  0  0  0
  189.2470  178.0760  139.4430 C   0  0  0  0  0  0  0  0  0  0  0  0
  190.4280  176.1760  138.5110 C   0  0  0  0  0  3  0  0  0  0  0  0
  190.9330  174.5110  136.2120 C   0  0  0  0  0  1  0  0  0  0  0  0
  190.6360  175.8980  136.1270 O   0  0  0  0  0  0  0  0  0  0  0  0
  1  6  1  0  0  0  0
  2 12  2  0  0  0  0
  2 11  1  0  0  0  0
  3 11  1  0  0  0  0
  4  8  1  0  0  0  0
  5  1  1  0  0  0  0
  7  4  1  0  0  0  0
  7  9  1  0  0  0  0
  8  1  2  0  0  0  0
  9  5  2  0  0  0  0
 10 16  1  6  0  0  0
 10  3  1  0  0  0  0
 11  7  2  0  0  0  0
 12 15  1  0  0  0  0
 13 35  1  6  0  0  0
 13  2  1  0  0  0  0
 14 13  1  0  0  0  0
 14 10  1  0  0  0  0
 15  4  2  0  0  0  0
 16 17  1  1  0  0  0
 18 16  1  0  0  0  0
 19 20  2  0  0  0  0
 20 21  2  0  0  0  0
 20 18  1  0  0  0  0
 22 20  1  0  0  0  0
 22 32  1  0  0  0  0
 23 22  1  0  0  0  0
 24 23  2  0  0  0  0
 25 23  1  0  0  0  0
 26 31  1  0  0  0  0
 26 25  1  0  0  0  0
 27 31  2  0  0  0  0
 28 29  2  0  0  0  0
 28 30  1  0  0  0  0
 29 27  1  0  0  0  0
 30 26  2  0  0  0  0
 33 34  1  0  0  0  0
 34 32  1  0  0  0  0
 36 37  2  0  0  0  0
 36 39  1  0  0  0  0
 37 41  1  0  0  0  0
 39 40  2  0  0  0  0
 40 38  1  0  0  0  0
 40 35  1  0  0  0  0
 41 38  2  0  0  0  0
 43 42  1  0  0  0  0
 43 37  1  0  0  0  0
M  END
>  <MODEL>
4

>  <REMARK>
 VINA RESULT:      -8.7      2.738      7.330
  Name = 
  11 active torsions:
  status: ('A' for Active; 'I' for Inactive)
    1  A    between atoms: C_1  and  C_34
    2  A    between atoms: C_1  and  C_35
    3  A    between atoms: C_2  and  N_6
    4  A    between atoms: C_2  and  C_27
    5  A    between atoms: N_4  and  S_12
    6  A    between atoms: N_4  and  C_15
    7  A    between atoms: N_6  and  S_12
    8  A    between atoms: C_11  and  C_14
    9  A    between atoms: C_14  and  C_22
   10  A    between atoms: C_15  and  C_42
   11  A    between atoms: C_19  and  O_37
                            x       y       z     vdW  Elec       q    Type
                         _______ _______ _______ _____ _____    ______ ____

>  <TORSDO>
F 11

$$$$
=
 OpenBabel10262422363D

 43 47  0  0  1  0  0  0  0  0999 V2000
  184.3060  177.1260  135.6900 C   0  0  0  0  0  0  0  0  0  0  0  0
  189.0760  176.2800  137.1010 C   0  0  0  0  0  0  0  0  0  0  0  0
  188.0600  177.2270  139.2240 C   0  0  0  0  0  2  0  0  0  0  0  0
  186.6520  176.5240  135.7440 C   0  0  0  0  0  0  0  0  0  0  0  0
  184.3750  177.5300  137.0250 C   0  0  0  0  0  3  0  0  0  0  0  0
  183.1360  177.2200  135.0140 F   0  0  0  0  0  0  0  0  0  0  0  0
  186.7300  176.9310  137.0960 C   0  0  0  0  0  0  0  0  0  0  0  0
  185.4430  176.6240  135.0500 C   0  0  0  0  0  3  0  0  0  0  0  0
  185.5800  177.4340  137.7260 C   0  0  0  0  0  3  0  0  0  0  0  0
  189.4860  177.6090  139.6070 C   0  0  2  0  0  3  0  0  0  0  0  0
  187.9580  176.8270  137.7740 C   0  0  0  0  0  0  0  0  0  0  0  0
  188.9440  175.9200  135.7540 C   0  0  0  0  0  3  0  0  0  0  0  0
  190.4430  176.2140  137.7550 C   0  0  1  0  0  3  0  0  0  0  0  0
  190.3910  176.4330  139.2690 C   0  0  0  0  0  2  0  0  0  0  0  0
  187.7520  176.0400  135.1150 N   0  0  0  0  0  0  0  0  0  0  0  0
  189.5650  177.9290  141.0960 C   0  0  1  0  0  3  0  0  0  0  0  0
  188.6980  178.9790  141.4060 O   0  0  0  0  0  1  0  0  0  0  0  0
  189.1960  176.7590  141.8780 N   0  0  0  0  0  2  0  0  0  0  0  0
  191.7940  176.9180  142.3550 O   0  0  0  0  0  0  0  0  0  0  0  0
  190.5130  176.3930  142.9420 S   0  0  0  0  0  0  0  0  0  0  0  0
  190.6070  174.9020  143.1150 O   0  0  0  0  0  0  0  0  0  0  0  0
  190.2340  177.1410  144.4860 N   0  0  0  0  0  0  0  0  0  0  0  0
  188.9050  177.3620  144.9880 C   0  0  0  0  0  0  0  0  0  0  0  0
  188.7280  178.0700  146.0160 O   0  0  0  0  0  0  0  0  0  0  0  0
  187.7150  176.7420  144.3260 C   0  0  0  0  0  2  0  0  0  0  0  0
  186.5080  177.6010  144.5050 C   0  0  0  0  0  0  0  0  0  0  0  0
  184.8380  178.5970  145.9520 C   0  0  0  0  0  3  0  0  0  0  0  0
  184.7440  178.9690  143.5610 C   0  0  0  0  0  3  0  0  0  0  0  0
  184.2200  179.1780  144.8400 C   0  0  0  0  0  3  0  0  0  0  0  0
  185.8860  178.1800  143.3930 C   0  0  0  0  0  3  0  0  0  0  0  0
  185.9800  177.8070  145.7850 C   0  0  0  0  0  3  0  0  0  0  0  0
  191.3870  177.5370  145.2870 C   0  0  0  0  0  2  0  0  0  0  0  0
  191.9170  176.8550  147.5150 O   0  0  0  0  0  1  0  0  0  0  0  0
  191.8150  176.4000  146.2000 C   0  0  0  0  0  2  0  0  0  0  0  0
  191.1370  174.8870  137.4580 C   0  0  0  0  0  2  0  0  0  0  0  0
  194.9080  174.5370  137.3730 C   0  0  0  0  0  3  0  0  0  0  0  0
  195.2630  175.5250  136.4400 C   0  0  0  0  0  0  0  0  0  0  0  0
  192.9180  176.0870  136.1680 C   0  0  0  0  0  3  0  0  0  0  0  0
  193.5650  174.3260  137.6990 C   0  0  0  0  0  3  0  0  0  0  0  0
  192.5680  175.0990  137.0960 C   0  0  0  0  0  0  0  0  0  0  0  0
  194.2600  176.2970  135.8420 C   0  0  0  0  0  3  0  0  0  0  0  0
  197.6290  174.8140  136.3280 C   0  0  0  0  0  1  0  0  0  0  0  0
  196.5960  175.7600  136.0910 O   0  0  0  0  0  0  0  0  0  0  0  0
  1  5  1  0  0  0  0
  2 13  1  0  0  0  0
  2 11  1  0  0  0  0
  3 10  1  0  0  0  0
  4  7  1  0  0  0  0
  5  9  2  0  0  0  0
  6  1  1  0  0  0  0
  7  9  1  0  0  0  0
  7 11  2  0  0  0  0
  8  1  2  0  0  0  0
  8  4  1  0  0  0  0
 10 16  1  1  0  0  0
 11  3  1  0  0  0  0
 12  2  2  0  0  0  0
 13 35  1  1  0  0  0
 13 14  1  0  0  0  0
 14 10  1  0  0  0  0
 15  4  2  0  0  0  0
 15 12  1  0  0  0  0
 16 17  1  6  0  0  0
 16 18  1  0  0  0  0
 18 20  1  0  0  0  0
 19 20  2  0  0  0  0
 20 21  2  0  0  0  0
 20 22  1  0  0  0  0
 22 23  1  0  0  0  0
 22 32  1  0  0  0  0
 23 24  2  0  0  0  0
 25 26  1  0  0  0  0
 25 23  1  0  0  0  0
 26 31  1  0  0  0  0
 28 29  2  0  0  0  0
 29 27  1  0  0  0  0
 30 28  1  0  0  0  0
 30 26  2  0  0  0  0
 31 27  2  0  0  0  0
 32 34  1  0  0  0  0
 34 33  1  0  0  0  0
 36 39  1  0  0  0  0
 37 36  2  0  0  0  0
 38 40  1  0  0  0  0
 40 35  1  0  0  0  0
 40 39  2  0  0  0  0
 41 38  2  0  0  0  0
 41 37  1  0  0  0  0
 43 42  1  0  0  0  0
 43 37  1  0  0  0  0
M  END
>  <MODEL>
5

>  <REMARK>
 VINA RESULT:      -8.6      4.170      9.909
  Name = 
  11 active torsions:
  status: ('A' for Active; 'I' for Inactive)
    1  A    between atoms: C_1  and  C_34
    2  A    between atoms: C_1  and  C_35
    3  A    between atoms: C_2  and  N_6
    4  A    between atoms: C_2  and  C_27
    5  A    between atoms: N_4  and  S_12
    6  A    between atoms: N_4  and  C_15
    7  A    between atoms: N_6  and  S_12
    8  A    between atoms: C_11  and  C_14
    9  A    between atoms: C_14  and  C_22
   10  A    between atoms: C_15  and  C_42
   11  A    between atoms: C_19  and  O_37
                            x       y       z     vdW  Elec       q    Type
                         _______ _______ _______ _____ _____    ______ ____

>  <TORSDO>
F 11

$$$$
=
 OpenBabel10262422363D

 43 47  0  0  1  0  0  0  0  0999 V2000
  191.8020  176.2360  147.0400 C   0  0  0  0  0  0  0  0  0  0  0  0
  187.4840  177.9150  145.0400 C   0  0  0  0  0  0  0  0  0  0  0  0
  188.8110  177.2840  142.9720 C   0  0  0  0  0  2  0  0  0  0  0  0
  189.5810  177.1460  146.7100 C   0  0  0  0  0  0  0  0  0  0  0  0
  191.9610  176.1120  145.6570 C   0  0  0  0  0  3  0  0  0  0  0  0
  192.8000  175.8550  147.8720 F   0  0  0  0  0  0  0  0  0  0  0  0
  189.7340  177.0240  145.3100 C   0  0  0  0  0  0  0  0  0  0  0  0
  190.6140  176.7530  147.5650 C   0  0  0  0  0  3  0  0  0  0  0  0
  190.9330  176.5040  144.7950 C   0  0  0  0  0  3  0  0  0  0  0  0
  187.9100  178.2650  142.2280 C   0  0  2  0  0  3  0  0  0  0  0  0
  188.6840  177.4310  144.4670 C   0  0  0  0  0  0  0  0  0  0  0  0
  187.4020  178.0380  146.4330 C   0  0  0  0  0  3  0  0  0  0  0  0
  186.3480  178.4390  144.1830 C   0  0  1  0  0  3  0  0  0  0  0  0
  186.4830  178.0470  142.7090 C   0  0  0  0  0  2  0  0  0  0  0  0
  188.4330  177.6500  147.2280 N   0  0  0  0  0  0  0  0  0  0  0  0
  188.0060  178.0330  140.7240 C   0  0  1  0  0  3  0  0  0  0  0  0
  186.9200  178.6280  140.0780 O   0  0  0  0  0  1  0  0  0  0  0  0
  189.2390  178.6070  140.2080 N   0  0  0  0  0  2  0  0  0  0  0  0
  189.6820  176.0030  140.0510 O   0  0  0  0  0  0  0  0  0  0  0  0
  190.1800  177.3210  139.5270 S   0  0  0  0  0  0  0  0  0  0  0  0
  191.6220  177.5090  139.9120 O   0  0  0  0  0  0  0  0  0  0  0  0
  190.0330  177.3500  137.7960 N   0  0  0  0  0  0  0  0  0  0  0  0
  190.4780  176.2510  136.9830 C   0  0  0  0  0  0  0  0  0  0  0  0
  190.5320  176.3750  135.7300 O   0  0  0  0  0  0  0  0  0  0  0  0
  190.8570  174.9390  137.5940 C   0  0  0  0  0  2  0  0  0  0  0  0
  192.2460  174.5590  137.2040 C   0  0  0  0  0  0  0  0  0  0  0  0
  194.6390  174.9030  137.3690 C   0  0  0  0  0  3  0  0  0  0  0  0
  193.7610  173.1960  135.8930 C   0  0  0  0  0  3  0  0  0  0  0  0
  194.8510  173.8790  136.4420 C   0  0  0  0  0  3  0  0  0  0  0  0
  192.4600  173.5370  136.2720 C   0  0  0  0  0  3  0  0  0  0  0  0
  193.3370  175.2450  137.7490 C   0  0  0  0  0  3  0  0  0  0  0  0
  189.4300  178.5200  137.1670 C   0  0  0  0  0  2  0  0  0  0  0  0
  187.2240  179.3780  136.8440 O   0  0  0  0  0  1  0  0  0  0  0  0
  187.9980  178.2210  136.7540 C   0  0  0  0  0  2  0  0  0  0  0  0
  184.9940  177.9720  144.7090 C   0  0  0  0  0  2  0  0  0  0  0  0
  181.6770  179.3450  143.4980 C   0  0  0  0  0  3  0  0  0  0  0  0
  181.7950  179.1840  142.1080 C   0  0  0  0  0  0  0  0  0  0  0  0
  184.0070  178.2390  142.4220 C   0  0  0  0  0  3  0  0  0  0  0  0
  182.7200  178.9560  144.3440 C   0  0  0  0  0  3  0  0  0  0  0  0
  183.8880  178.4050  143.8070 C   0  0  0  0  0  0  0  0  0  0  0  0
  182.9650  178.6280  141.5770 C   0  0  0  0  0  3  0  0  0  0  0  0
  180.7890  179.2490  139.8500 C   0  0  0  0  0  1  0  0  0  0  0  0
  180.7700  179.5630  141.2350 O   0  0  0  0  0  0  0  0  0  0  0  0
  1  8  1  0  0  0  0
  1  6  1  0  0  0  0
  2 12  1  0  0  0  0
  3 11  1  0  0  0  0
  4 15  1  0  0  0  0
  4  8  2  0  0  0  0
  5  1  2  0  0  0  0
  7  4  1  0  0  0  0
  9  7  2  0  0  0  0
  9  5  1  0  0  0  0
 10 16  1  6  0  0  0
 10 14  1  0  0  0  0
 10  3  1  0  0  0  0
 11  2  2  0  0  0  0
 11  7  1  0  0  0  0
 12 15  2  0  0  0  0
 13 35  1  1  0  0  0
 13  2  1  0  0  0  0
 14 13  1  0  0  0  0
 16 17  1  6  0  0  0
 18 16  1  0  0  0  0
 20 21  2  0  0  0  0
 20 19  2  0  0  0  0
 20 18  1  0  0  0  0
 22 20  1  0  0  0  0
 23 25  1  0  0  0  0
 23 22  1  0  0  0  0
 24 23  2  0  0  0  0
 26 25  1  0  0  0  0
 26 31  1  0  0  0  0
 27 31  2  0  0  0  0
 28 30  1  0  0  0  0
 28 29  2  0  0  0  0
 29 27  1  0  0  0  0
 30 26  2  0  0  0  0
 32 22  1  0  0  0  0
 34 33  1  0  0  0  0
 34 32  1  0  0  0  0
 36 39  1  0  0  0  0
 37 36  2  0  0  0  0
 38 40  1  0  0  0  0
 40 39  2  0  0  0  0
 40 35  1  0  0  0  0
 41 37  1  0  0  0  0
 41 38  2  0  0  0  0
 42 43  1  0  0  0  0
 43 37  1  0  0  0  0
M  END
>  <MODEL>
6

>  <REMARK>
 VINA RESULT:      -8.5      2.333      4.732
  Name = 
  11 active torsions:
  status: ('A' for Active; 'I' for Inactive)
    1  A    between atoms: C_1  and  C_34
    2  A    between atoms: C_1  and  C_35
    3  A    between atoms: C_2  and  N_6
    4  A    between atoms: C_2  and  C_27
    5  A    between atoms: N_4  and  S_12
    6  A    between atoms: N_4  and  C_15
    7  A    between atoms: N_6  and  S_12
    8  A    between atoms: C_11  and  C_14
    9  A    between atoms: C_14  and  C_22
   10  A    between atoms: C_15  and  C_42
   11  A    between atoms: C_19  and  O_37
                            x       y       z     vdW  Elec       q    Type
                         _______ _______ _______ _____ _____    ______ ____

>  <TORSDO>
F 11

$$$$
=
 OpenBabel10262422363D

 43 47  0  0  1  0  0  0  0  0999 V2000
  194.6880  173.6780  136.8040 C   0  0  0  0  0  0  0  0  0  0  0  0
  189.7950  174.8550  137.1800 C   0  0  0  0  0  0  0  0  0  0  0  0
  190.8700  176.5830  138.6950 C   0  0  0  0  0  2  0  0  0  0  0  0
  192.2760  173.7280  136.5830 C   0  0  0  0  0  0  0  0  0  0  0  0
  194.6350  174.7690  137.6750 C   0  0  0  0  0  3  0  0  0  0  0  0
  195.8820  173.1240  136.4860 F   0  0  0  0  0  0  0  0  0  0  0  0
  192.2140  174.8330  137.4640 C   0  0  0  0  0  0  0  0  0  0  0  0
  193.5100  173.1590  136.2590 C   0  0  0  0  0  3  0  0  0  0  0  0
  193.4040  175.3440  138.0050 C   0  0  0  0  0  3  0  0  0  0  0  0
  189.5080  176.6720  139.3770 C   0  0  2  0  0  3  0  0  0  0  0  0
  190.9600  175.3870  137.7810 C   0  0  0  0  0  0  0  0  0  0  0  0
  189.9190  173.7430  136.3360 C   0  0  0  0  0  3  0  0  0  0  0  0
  188.4120  175.3600  137.5410 C   0  0  1  0  0  3  0  0  0  0  0  0
  188.4420  176.6950  138.2910 C   0  0  0  0  0  2  0  0  0  0  0  0
  191.1370  173.2150  136.0530 N   0  0  0  0  0  0  0  0  0  0  0  0
  189.4260  177.9340  140.2290 C   0  0  1  0  0  3  0  0  0  0  0  0
  188.5890  178.8710  139.6180 O   0  0  0  0  0  1  0  0  0  0  0  0
  188.8990  177.6130  141.5470 N   0  0  0  0  0  2  0  0  0  0  0  0
  191.5100  177.4990  141.9640 O   0  0  0  0  0  0  0  0  0  0  0  0
  190.2020  176.9890  142.5040 S   0  0  0  0  0  0  0  0  0  0  0  0
  190.1800  175.4870  142.4470 O   0  0  0  0  0  0  0  0  0  0  0  0
  190.0120  177.5110  144.1500 N   0  0  0  0  0  0  0  0  0  0  0  0
  188.7260  177.5230  144.7930 C   0  0  0  0  0  0  0  0  0  0  0  0
  188.5870  178.0800  145.9160 O   0  0  0  0  0  0  0  0  0  0  0  0
  187.5400  176.8610  144.1660 C   0  0  0  0  0  2  0  0  0  0  0  0
  186.3170  177.6970  144.3430 C   0  0  0  0  0  0  0  0  0  0  0  0
  184.6340  178.6720  145.7900 C   0  0  0  0  0  3  0  0  0  0  0  0
  184.5190  179.0180  143.3950 C   0  0  0  0  0  3  0  0  0  0  0  0
  183.9980  179.2280  144.6760 C   0  0  0  0  0  3  0  0  0  0  0  0
  185.6760  178.2510  143.2290 C   0  0  0  0  0  3  0  0  0  0  0  0
  185.7920  177.9040  145.6240 C   0  0  0  0  0  3  0  0  0  0  0  0
  191.1960  177.9330  144.8900 C   0  0  0  0  0  2  0  0  0  0  0  0
  191.6730  177.0280  147.0490 O   0  0  0  0  0  1  0  0  0  0  0  0
  191.7690  176.7690  145.6820 C   0  0  0  0  0  2  0  0  0  0  0  0
  187.5290  175.4950  136.3030 C   0  0  0  0  0  2  0  0  0  0  0  0
  184.0810  174.0520  135.6900 C   0  0  0  0  0  3  0  0  0  0  0  0
  184.0390  173.0100  136.6310 C   0  0  0  0  0  0  0  0  0  0  0  0
  186.2820  173.5900  137.3490 C   0  0  0  0  0  3  0  0  0  0  0  0
  185.2190  174.8560  135.5800 C   0  0  0  0  0  3  0  0  0  0  0  0
  186.3220  174.6250  136.4070 C   0  0  0  0  0  0  0  0  0  0  0  0
  185.1450  172.7860  137.4590 C   0  0  0  0  0  3  0  0  0  0  0  0
  182.1770  171.7100  135.6510 C   0  0  0  0  0  1  0  0  0  0  0  0
  182.9160  172.1870  136.7660 O   0  0  0  0  0  0  0  0  0  0  0  0
  1  5  1  0  0  0  0
  2 13  1  0  0  0  0
  2 11  1  0  0  0  0
  3 10  1  0  0  0  0
  4  7  1  0  0  0  0
  5  9  2  0  0  0  0
  6  1  1  0  0  0  0
  7 11  2  0  0  0  0
  7  9  1  0  0  0  0
  8  4  1  0  0  0  0
  8  1  2  0  0  0  0
 10 16  1  6  0  0  0
 11  3  1  0  0  0  0
 12  2  2  0  0  0  0
 13 35  1  6  0  0  0
 13 14  1  0  0  0  0
 14 10  1  0  0  0  0
 15 12  1  0  0  0  0
 15  4  2  0  0  0  0
 16 17  1  6  0  0  0
 16 18  1  0  0  0  0
 18 20  1  0  0  0  0
 19 20  2  0  0  0  0
 20 22  1  0  0  0  0
 21 20  2  0  0  0  0
 22 23  1  0  0  0  0
 22 32  1  0  0  0  0
 23 24  2  0  0  0  0
 25 26  1  0  0  0  0
 25 23  1  0  0  0  0
 26 31  1  0  0  0  0
 28 29  2  0  0  0  0
 29 27  1  0  0  0  0
 30 28  1  0  0  0  0
 30 26  2  0  0  0  0
 31 27  2  0  0  0  0
 32 34  1  0  0  0  0
 34 33  1  0  0  0  0
 35 40  1  0  0  0  0
 36 37  1  0  0  0  0
 37 43  1  0  0  0  0
 37 41  2  0  0  0  0
 38 41  1  0  0  0  0
 39 36  2  0  0  0  0
 39 40  1  0  0  0  0
 40 38  2  0  0  0  0
 42 43  1  0  0  0  0
M  END
>  <MODEL>
7

>  <REMARK>
 VINA RESULT:      -8.4      4.319      8.407
  Name = 
  11 active torsions:
  status: ('A' for Active; 'I' for Inactive)
    1  A    between atoms: C_1  and  C_34
    2  A    between atoms: C_1  and  C_35
    3  A    between atoms: C_2  and  N_6
    4  A    between atoms: C_2  and  C_27
    5  A    between atoms: N_4  and  S_12
    6  A    between atoms: N_4  and  C_15
    7  A    between atoms: N_6  and  S_12
    8  A    between atoms: C_11  and  C_14
    9  A    between atoms: C_14  and  C_22
   10  A    between atoms: C_15  and  C_42
   11  A    between atoms: C_19  and  O_37
                            x       y       z     vdW  Elec       q    Type
                         _______ _______ _______ _____ _____    ______ ____

>  <TORSDO>
F 11

$$$$
=
 OpenBabel10262422363D

 43 47  0  0  1  0  0  0  0  0999 V2000
  188.1630  177.7040  147.5810 C   0  0  0  0  0  0  0  0  0  0  0  0
  185.5090  178.5100  143.3650 C   0  0  0  0  0  0  0  0  0  0  0  0
  187.7820  177.8690  142.4410 C   0  0  0  0  0  2  0  0  0  0  0  0
  186.4170  178.2370  145.9890 C   0  0  0  0  0  0  0  0  0  0  0  0
  189.0520  177.4610  146.5310 C   0  0  0  0  0  3  0  0  0  0  0  0
  188.5760  177.5630  148.8620 F   0  0  0  0  0  0  0  0  0  0  0  0
  187.3110  177.9930  144.9200 C   0  0  0  0  0  0  0  0  0  0  0  0
  186.8480  178.0920  147.3100 C   0  0  0  0  0  3  0  0  0  0  0  0
  188.6290  177.6050  145.2060 C   0  0  0  0  0  3  0  0  0  0  0  0
  187.3620  178.6240  141.1830 C   0  0  2  0  0  3  0  0  0  0  0  0
  186.8580  178.1510  143.5980 C   0  0  0  0  0  0  0  0  0  0  0  0
  184.6790  178.7650  144.4660 C   0  0  0  0  0  3  0  0  0  0  0  0
  184.9840  178.7690  141.9670 C   0  0  1  0  0  3  0  0  0  0  0  0
  185.9210  178.2490  140.8730 C   0  0  0  0  0  2  0  0  0  0  0  0
  185.1400  178.6190  145.7340 N   0  0  0  0  0  0  0  0  0  0  0  0
  188.2710  178.2520  140.0160 C   0  0  1  0  0  3  0  0  0  0  0  0
  189.2430  177.3410  140.4380 O   0  0  0  0  0  1  0  0  0  0  0  0
  187.4890  177.6530  138.9460 N   0  0  0  0  0  2  0  0  0  0  0  0
  189.4560  178.8370  137.6310 O   0  0  0  0  0  0  0  0  0  0  0  0
  188.0680  178.2900  137.4420 S   0  0  0  0  0  0  0  0  0  0  0  0
  187.1470  179.3870  136.9850 O   0  0  0  0  0  0  0  0  0  0  0  0
  188.1000  177.0250  136.2520 N   0  0  0  0  0  0  0  0  0  0  0  0
  188.8800  175.8320  136.4400 C   0  0  0  0  0  0  0  0  0  0  0  0
  189.0340  175.0210  135.4870 O   0  0  0  0  0  0  0  0  0  0  0  0
  189.4980  175.5120  137.7650 C   0  0  0  0  0  2  0  0  0  0  0  0
  190.9770  175.3660  137.6320 C   0  0  0  0  0  0  0  0  0  0  0  0
  192.9130  174.0010  137.1190 C   0  0  0  0  0  3  0  0  0  0  0  0
  193.2070  176.2960  137.8330 C   0  0  0  0  0  3  0  0  0  0  0  0
  193.7530  175.0760  137.4230 C   0  0  0  0  0  3  0  0  0  0  0  0
  191.8210  176.4400  137.9390 C   0  0  0  0  0  3  0  0  0  0  0  0
  191.5260  174.1440  137.2260 C   0  0  0  0  0  3  0  0  0  0  0  0
  187.3020  177.1860  135.0420 C   0  0  0  0  0  2  0  0  0  0  0  0
  185.0470  177.0900  135.8240 O   0  0  0  0  0  1  0  0  0  0  0  0
  186.0240  176.3690  135.1370 C   0  0  0  0  0  2  0  0  0  0  0  0
  183.5950  178.1660  141.7740 C   0  0  0  0  0  2  0  0  0  0  0  0
  182.5850  179.5590  138.3990 C   0  0  0  0  0  3  0  0  0  0  0  0
  182.3320  178.3840  137.6720 C   0  0  0  0  0  0  0  0  0  0  0  0
  182.9150  177.0700  139.6260 C   0  0  0  0  0  3  0  0  0  0  0  0
  183.0010  179.4870  139.7320 C   0  0  0  0  0  3  0  0  0  0  0  0
  183.1700  178.2430  140.3460 C   0  0  0  0  0  0  0  0  0  0  0  0
  182.4990  177.1420  138.2940 C   0  0  0  0  0  3  0  0  0  0  0  0
  180.8660  179.2680  135.8870 C   0  0  0  0  0  1  0  0  0  0  0  0
  181.9150  178.4220  136.3380 O   0  0  0  0  0  0  0  0  0  0  0  0
  1  6  1  0  0  0  0
  2 11  2  0  0  0  0
  2 12  1  0  0  0  0
  3 11  1  0  0  0  0
  4  8  2  0  0  0  0
  5  1  2  0  0  0  0
  7  9  2  0  0  0  0
  7  4  1  0  0  0  0
  8  1  1  0  0  0  0
  9  5  1  0  0  0  0
 10 16  1  6  0  0  0
 10  3  1  0  0  0  0
 11  7  1  0  0  0  0
 12 15  2  0  0  0  0
 13 35  1  1  0  0  0
 13  2  1  0  0  0  0
 14 10  1  0  0  0  0
 14 13  1  0  0  0  0
 15  4  1  0  0  0  0
 16 17  1  1  0  0  0
 18 16  1  0  0  0  0
 20 19  2  0  0  0  0
 20 18  1  0  0  0  0
 21 20  2  0  0  0  0
 22 23  1  0  0  0  0
 22 20  1  0  0  0  0
 23 25  1  0  0  0  0
 24 23  2  0  0  0  0
 26 25  1  0  0  0  0
 26 30  1  0  0  0  0
 27 31  1  0  0  0  0
 27 29  2  0  0  0  0
 28 30  2  0  0  0  0
 29 28  1  0  0  0  0
 31 26  2  0  0  0  0
 32 34  1  0  0  0  0
 32 22  1  0  0  0  0
 34 33  1  0  0  0  0
 36 39  1  0  0  0  0
 37 41  1  0  0  0  0
 37 36  2  0  0  0  0
 38 40  1  0  0  0  0
 39 40  2  0  0  0  0
 40 35  1  0  0  0  0
 41 38  2  0  0  0  0
 42 43  1  0  0  0  0
 43 37  1  0  0  0  0
M  END
>  <MODEL>
8

>  <REMARK>
 VINA RESULT:      -8.4      2.144      3.839
  Name = 
  11 active torsions:
  status: ('A' for Active; 'I' for Inactive)
    1  A    between atoms: C_1  and  C_34
    2  A    between atoms: C_1  and  C_35
    3  A    between atoms: C_2  and  N_6
    4  A    between atoms: C_2  and  C_27
    5  A    between atoms: N_4  and  S_12
    6  A    between atoms: N_4  and  C_15
    7  A    between atoms: N_6  and  S_12
    8  A    between atoms: C_11  and  C_14
    9  A    between atoms: C_14  and  C_22
   10  A    between atoms: C_15  and  C_42
   11  A    between atoms: C_19  and  O_37
                            x       y       z     vdW  Elec       q    Type
                         _______ _______ _______ _____ _____    ______ ____

>  <TORSDO>
F 11

$$$$
=
 OpenBabel10262422363D

 43 47  0  0  1  0  0  0  0  0999 V2000
  193.8590  175.4320  135.7530 C   0  0  0  0  0  0  0  0  0  0  0  0
  189.3530  176.8890  137.4940 C   0  0  0  0  0  0  0  0  0  0  0  0
  190.8350  177.2250  139.5250 C   0  0  0  0  0  2  0  0  0  0  0  0
  191.5070  175.9640  135.9830 C   0  0  0  0  0  0  0  0  0  0  0  0
  194.0770  175.8030  137.0820 C   0  0  0  0  0  3  0  0  0  0  0  0
  194.8920  174.9940  134.9950 F   0  0  0  0  0  0  0  0  0  0  0  0
  191.7200  176.3420  137.3290 C   0  0  0  0  0  0  0  0  0  0  0  0
  192.5750  175.5110  135.2050 C   0  0  0  0  0  3  0  0  0  0  0  0
  193.0140  176.2560  137.8680 C   0  0  0  0  0  3  0  0  0  0  0  0
  189.5540  177.1040  140.3450 C   0  0  2  0  0  3  0  0  0  0  0  0
  190.6290  176.7890  138.0970 C   0  0  0  0  0  0  0  0  0  0  0  0
  189.1990  176.4740  136.1640 C   0  0  0  0  0  3  0  0  0  0  0  0
  188.1260  177.2910  138.2900 C   0  0  1  0  0  3  0  0  0  0  0  0
  188.4730  177.9150  139.6450 C   0  0  0  0  0  2  0  0  0  0  0  0
  190.2630  176.0340  135.4450 N   0  0  0  0  0  0  0  0  0  0  0  0
  189.7800  177.6280  141.7590 C   0  0  1  0  0  3  0  0  0  0  0  0
  188.8510  178.6290  142.0530 O   0  0  0  0  0  1  0  0  0  0  0  0
  189.6350  176.5460  142.7210 N   0  0  0  0  0  2  0  0  0  0  0  0
  191.9720  177.6370  143.3120 O   0  0  0  0  0  0  0  0  0  0  0  0
  190.9920  176.6060  143.7970 S   0  0  0  0  0  0  0  0  0  0  0  0
  191.6510  175.2550  143.8330 O   0  0  0  0  0  0  0  0  0  0  0  0
  190.4460  177.0290  145.3920 N   0  0  0  0  0  0  0  0  0  0  0  0
  189.0500  177.1880  145.6930 C   0  0  0  0  0  0  0  0  0  0  0  0
  188.6950  177.6750  146.8010 O   0  0  0  0  0  0  0  0  0  0  0  0
  187.9940  176.7600  144.7230 C   0  0  0  0  0  2  0  0  0  0  0  0
  186.7330  177.5240  144.9480 C   0  0  0  0  0  0  0  0  0  0  0  0
  185.0710  178.4310  146.4620 C   0  0  0  0  0  3  0  0  0  0  0  0
  184.8110  178.7120  144.0710 C   0  0  0  0  0  3  0  0  0  0  0  0
  184.3450  178.9220  145.3720 C   0  0  0  0  0  3  0  0  0  0  0  0
  186.0020  178.0130  143.8590 C   0  0  0  0  0  3  0  0  0  0  0  0
  186.2630  177.7310  146.2500 C   0  0  0  0  0  3  0  0  0  0  0  0
  191.4400  177.2120  146.4430 C   0  0  0  0  0  2  0  0  0  0  0  0
  192.7440  176.0280  148.0580 O   0  0  0  0  0  1  0  0  0  0  0  0
  191.6330  175.9210  147.2220 C   0  0  0  0  0  2  0  0  0  0  0  0
  187.2420  178.2530  137.5010 C   0  0  0  0  0  2  0  0  0  0  0  0
  183.8630  176.6070  137.0220 C   0  0  0  0  0  3  0  0  0  0  0  0
  183.0750  177.3040  137.9520 C   0  0  0  0  0  0  0  0  0  0  0  0
  185.0150  178.6130  138.5910 C   0  0  0  0  0  3  0  0  0  0  0  0
  185.2200  176.9120  136.8800 C   0  0  0  0  0  3  0  0  0  0  0  0
  185.7990  177.9140  137.6660 C   0  0  0  0  0  0  0  0  0  0  0  0
  183.6600  178.3080  138.7330 C   0  0  0  0  0  3  0  0  0  0  0  0
  180.7830  177.9930  138.5780 C   0  0  0  0  0  1  0  0  0  0  0  0
  181.7160  177.0230  138.1190 O   0  0  0  0  0  0  0  0  0  0  0  0
  1  5  1  0  0  0  0
  2 11  1  0  0  0  0
  2 13  1  0  0  0  0
  3 10  1  0  0  0  0
  4  7  1  0  0  0  0
  5  9  2  0  0  0  0
  6  1  1  0  0  0  0
  7  9  1  0  0  0  0
  7 11  2  0  0  0  0
  8  1  2  0  0  0  0
  8  4  1  0  0  0  0
 10 16  1  1  0  0  0
 11  3  1  0  0  0  0
 12  2  2  0  0  0  0
 13 35  1  6  0  0  0
 13 14  1  0  0  0  0
 14 10  1  0  0  0  0
 15  4  2  0  0  0  0
 15 12  1  0  0  0  0
 16 17  1  1  0  0  0
 16 18  1  0  0  0  0
 18 20  1  0  0  0  0
 19 20  2  0  0  0  0
 20 21  2  0  0  0  0
 20 22  1  0  0  0  0
 22 23  1  0  0  0  0
 22 32  1  0  0  0  0
 23 24  2  0  0  0  0
 25 26  1  0  0  0  0
 25 23  1  0  0  0  0
 26 31  1  0  0  0  0
 28 29  2  0  0  0  0
 29 27  1  0  0  0  0
 30 28  1  0  0  0  0
 30 26  2  0  0  0  0
 31 27  2  0  0  0  0
 32 34  1  0  0  0  0
 34 33  1  0  0  0  0
 35 40  1  0  0  0  0
 36 37  1  0  0  0  0
 37 43  1  0  0  0  0
 37 41  2  0  0  0  0
 38 41  1  0  0  0  0
 39 36  2  0  0  0  0
 39 40  1  0  0  0  0
 40 38  2  0  0  0  0
 43 42  1  0  0  0  0
M  END
>  <MODEL>
9

>  <REMARK>
 VINA RESULT:      -8.4      3.901      7.864
  Name = 
  11 active torsions:
  status: ('A' for Active; 'I' for Inactive)
    1  A    between atoms: C_1  and  C_34
    2  A    between atoms: C_1  and  C_35
    3  A    between atoms: C_2  and  N_6
    4  A    between atoms: C_2  and  C_27
    5  A    between atoms: N_4  and  S_12
    6  A    between atoms: N_4  and  C_15
    7  A    between atoms: N_6  and  S_12
    8  A    between atoms: C_11  and  C_14
    9  A    between atoms: C_14  and  C_22
   10  A    between atoms: C_15  and  C_42
   11  A    between atoms: C_19  and  O_37
                            x       y       z     vdW  Elec       q    Type
                         _______ _______ _______ _____ _____    ______ ____

>  <TORSDO>
F 11

$$$$
