=
 OpenBabel10262421133D

 32 36  0  0  1  0  0  0  0  0999 V2000
  183.0630  177.9680  140.8590 C   0  0  1  0  0  3  0  0  0  0  0  0
  184.6910  178.1710  139.1730 C   0  0  0  0  0  0  0  0  0  0  0  0
  183.1230  176.3860  138.8040 C   0  0  0  0  0  3  0  0  0  0  0  0
  187.0050  178.2860  136.3110 N   0  0  0  0  0  2  0  0  0  0  0  0
  183.6030  177.4430  139.5750 C   0  0  0  0  0  0  0  0  0  0  0  0
  185.4040  176.5000  136.0200 C   0  0  0  0  0  3  0  0  0  0  0  0
  184.8330  176.8190  137.1890 C   0  0  0  0  0  0  0  0  0  0  0  0
  183.7540  176.1010  137.6270 N   0  0  0  0  0  0  0  0  0  0  0  0
  185.0280  179.1820  140.1080 N   0  0  0  0  0  2  0  0  0  0  0  0
  184.0830  179.0830  141.2280 C   0  0  2  0  0  3  0  0  0  0  0  0
  185.3410  177.8900  137.9680 C   0  0  0  0  0  0  0  0  0  0  0  0
  186.5010  177.2410  135.5600 O   0  0  0  0  0  0  0  0  0  0  0  0
  186.3910  178.6120  137.5620 C   0  0  0  0  0  3  0  0  0  0  0  0
  184.8600  178.5600  144.9310 C   0  0  0  0  0  0  0  0  0  0  0  0
  184.2640  178.7260  146.1730 O   0  0  0  0  0  1  0  0  0  0  0  0
  184.8020  178.7350  142.5040 C   0  0  0  0  0  0  0  0  0  0  0  0
  186.1350  177.9970  144.8600 C   0  0  0  0  0  3  0  0  0  0  0  0
  186.0790  178.1520  142.4490 C   0  0  0  0  0  3  0  0  0  0  0  0
  184.1910  178.9410  143.7580 C   0  0  0  0  0  0  0  0  0  0  0  0
  182.8150  179.5190  143.8470 C   0  0  0  0  0  1  0  0  0  0  0  0
  186.7500  177.7890  143.6230 C   0  0  0  0  0  0  0  0  0  0  0  0
  188.7870  176.9780  144.7660 C   0  0  0  0  0  1  0  0  0  0  0  0
  188.0230  177.2070  143.5880 O   0  0  0  0  0  0  0  0  0  0  0  0
  180.5830  177.9530  141.0280 C   0  0  0  0  0  2  0  0  0  0  0  0
  181.6850  178.5490  140.6630 C   0  0  2  0  0  3  0  0  0  0  0  0
  181.3670  179.7340  139.9490 N   0  0  0  0  0  0  0  0  0  0  0  0
  180.0440  180.0190  140.0510 O   0  0  0  0  0  0  0  0  0  0  0  0
  179.4720  178.8130  140.5230 C   0  0  0  0  0  2  0  0  0  0  0  0
  182.1270  180.1880  138.7940 C   0  0  0  0  0  2  0  0  0  0  0  0
  181.2560  180.1490  137.5430 C   0  0  0  0  0  2  0  0  0  0  0  0
  181.4630  178.8590  136.7590 C   0  0  0  0  0  2  0  0  0  0  0  0
  180.2650  177.9370  136.9620 C   0  0  0  0  0  1  0  0  0  0  0  0
  1  5  1  6  0  0  0
  1 10  1  0  0  0  0
  2  5  2  0  0  0  0
  2  9  1  0  0  0  0
  3  5  1  0  0  0  0
  4 13  1  0  0  0  0
  6  7  2  0  0  0  0
  7  8  1  0  0  0  0
  7 11  1  0  0  0  0
  8  3  2  0  0  0  0
  9 10  1  0  0  0  0
 10 16  1  1  0  0  0
 11  2  1  0  0  0  0
 12  6  1  0  0  0  0
 12  4  1  0  0  0  0
 13 11  2  0  0  0  0
 14 15  1  0  0  0  0
 16 19  1  0  0  0  0
 17 14  1  0  0  0  0
 18 16  2  0  0  0  0
 18 21  1  0  0  0  0
 19 20  1  0  0  0  0
 19 14  2  0  0  0  0
 21 17  2  0  0  0  0
 23 21  1  0  0  0  0
 23 22  1  0  0  0  0
 25  1  1  0  0  0  0
 25 24  1  6  0  0  0
 26 27  1  0  0  0  0
 26 25  1  0  0  0  0
 27 28  1  0  0  0  0
 28 24  1  0  0  0  0
 29 26  1  0  0  0  0
 30 29  1  0  0  0  0
 31 32  1  0  0  0  0
 31 30  1  0  0  0  0
M  END
>  <MODEL>
1

>  <REMARK>
 VINA RESULT:      -7.1      0.000      0.000
  Name = 
  6 active torsions:
  status: ('A' for Active; 'I' for Inactive)
    1  A    between atoms: C_1  and  C_5
    2  A    between atoms: C_13  and  C_18
    3  A    between atoms: N_14  and  C_29
    4  A    between atoms: O_15  and  C_26
    5  A    between atoms: C_16  and  C_27
    6  A    between atoms: C_18  and  C_29
                            x       y       z     vdW  Elec       q    Type
                         _______ _______ _______ _____ _____    ______ ____

>  <TORSDO>
F 6

$$$$
=
 OpenBabel10262421133D

 32 36  0  0  1  0  0  0  0  0999 V2000
  182.8820  177.8320  140.4840 C   0  0  1  0  0  3  0  0  0  0  0  0
  184.6320  178.0720  138.9300 C   0  0  0  0  0  0  0  0  0  0  0  0
  183.2230  176.1660  138.5260 C   0  0  0  0  0  3  0  0  0  0  0  0
  187.1710  178.2190  136.2680 N   0  0  0  0  0  2  0  0  0  0  0  0
  183.5640  177.2880  139.2780 C   0  0  0  0  0  0  0  0  0  0  0  0
  185.7230  176.3130  135.9380 C   0  0  0  0  0  3  0  0  0  0  0  0
  185.0340  176.6440  137.0380 C   0  0  0  0  0  0  0  0  0  0  0  0
  183.9710  175.8730  137.4210 N   0  0  0  0  0  0  0  0  0  0  0  0
  184.8190  179.1470  139.8370 N   0  0  0  0  0  2  0  0  0  0  0  0
  183.7900  179.0320  140.8780 C   0  0  2  0  0  3  0  0  0  0  0  0
  185.4010  177.7830  137.8000 C   0  0  0  0  0  0  0  0  0  0  0  0
  186.8040  177.1080  135.5330 O   0  0  0  0  0  0  0  0  0  0  0  0
  186.4320  178.5580  137.4450 C   0  0  0  0  0  3  0  0  0  0  0  0
  184.2690  178.7070  144.6540 C   0  0  0  0  0  0  0  0  0  0  0  0
  183.5500  178.8590  145.8310 O   0  0  0  0  0  1  0  0  0  0  0  0
  184.4170  178.7940  142.2260 C   0  0  0  0  0  0  0  0  0  0  0  0
  185.5900  178.2610  144.7180 C   0  0  0  0  0  3  0  0  0  0  0  0
  185.7400  178.3300  142.3070 C   0  0  0  0  0  3  0  0  0  0  0  0
  183.6780  178.9850  143.4120 C   0  0  0  0  0  0  0  0  0  0  0  0
  182.2540  179.4380  143.3560 C   0  0  0  0  0  1  0  0  0  0  0  0
  186.3310  178.0700  143.5500 C   0  0  0  0  0  0  0  0  0  0  0  0
  188.0270  176.2940  143.2520 C   0  0  0  0  0  1  0  0  0  0  0  0
  187.6480  177.6060  143.6510 O   0  0  0  0  0  0  0  0  0  0  0  0
  181.1650  179.5560  139.9750 C   0  0  0  0  0  2  0  0  0  0  0  0
  181.4890  178.3040  140.1450 C   0  0  2  0  0  3  0  0  0  0  0  0
  180.3200  177.5020  140.0970 N   0  0  0  0  0  0  0  0  0  0  0  0
  179.2550  178.2250  139.6650 O   0  0  0  0  0  0  0  0  0  0  0  0
  179.6830  179.5690  139.7960 C   0  0  0  0  0  2  0  0  0  0  0  0
  180.1180  176.3450  140.9570 C   0  0  0  0  0  2  0  0  0  0  0  0
  180.0410  175.0740  140.1190 C   0  0  0  0  0  2  0  0  0  0  0  0
  178.9470  174.1400  140.6220 C   0  0  0  0  0  2  0  0  0  0  0  0
  179.3480  173.5620  141.9760 C   0  0  0  0  0  1  0  0  0  0  0  0
  1  5  1  6  0  0  0
  1 10  1  0  0  0  0
  2  5  2  0  0  0  0
  2  9  1  0  0  0  0
  3  5  1  0  0  0  0
  4 13  1  0  0  0  0
  6  7  2  0  0  0  0
  7  8  1  0  0  0  0
  7 11  1  0  0  0  0
  8  3  2  0  0  0  0
  9 10  1  0  0  0  0
 10 16  1  1  0  0  0
 11  2  1  0  0  0  0
 12  6  1  0  0  0  0
 12  4  1  0  0  0  0
 13 11  2  0  0  0  0
 14 17  1  0  0  0  0
 14 15  1  0  0  0  0
 16 18  2  0  0  0  0
 16 19  1  0  0  0  0
 18 21  1  0  0  0  0
 19 14  2  0  0  0  0
 20 19  1  0  0  0  0
 21 23  1  0  0  0  0
 21 17  2  0  0  0  0
 22 23  1  0  0  0  0
 25 24  1  1  0  0  0
 25  1  1  0  0  0  0
 26 25  1  0  0  0  0
 26 29  1  0  0  0  0
 27 28  1  0  0  0  0
 27 26  1  0  0  0  0
 28 24  1  0  0  0  0
 30 31  1  0  0  0  0
 30 29  1  0  0  0  0
 31 32  1  0  0  0  0
M  END
>  <MODEL>
2

>  <REMARK>
 VINA RESULT:      -7.1      1.509      2.303
  Name = 
  6 active torsions:
  status: ('A' for Active; 'I' for Inactive)
    1  A    between atoms: C_1  and  C_5
    2  A    between atoms: C_13  and  C_18
    3  A    between atoms: N_14  and  C_29
    4  A    between atoms: O_15  and  C_26
    5  A    between atoms: C_16  and  C_27
    6  A    between atoms: C_18  and  C_29
                            x       y       z     vdW  Elec       q    Type
                         _______ _______ _______ _____ _____    ______ ____

>  <TORSDO>
F 6

$$$$
=
 OpenBabel10262421133D

 32 36  0  0  1  0  0  0  0  0999 V2000
  189.1550  176.5480  138.5890 C   0  0  1  0  0  3  0  0  0  0  0  0
  191.4430  176.0710  138.3200 C   0  0  0  0  0  0  0  0  0  0  0  0
  189.9880  174.5790  137.1210 C   0  0  0  0  0  3  0  0  0  0  0  0
  194.9250  175.1270  137.5870 N   0  0  0  0  0  2  0  0  0  0  0  0
  190.1820  175.6660  137.9700 C   0  0  0  0  0  0  0  0  0  0  0  0
  193.3990  173.6560  136.4270 C   0  0  0  0  0  3  0  0  0  0  0  0
  192.3590  174.3220  136.9480 C   0  0  0  0  0  0  0  0  0  0  0  0
  191.0880  173.9330  136.6300 N   0  0  0  0  0  0  0  0  0  0  0  0
  191.4180  177.1780  139.2070 N   0  0  0  0  0  2  0  0  0  0  0  0
  190.0110  177.5020  139.4700 C   0  0  2  0  0  3  0  0  0  0  0  0
  192.5740  175.4190  137.8210 C   0  0  0  0  0  0  0  0  0  0  0  0
  194.7050  174.0600  136.7380 O   0  0  0  0  0  0  0  0  0  0  0  0
  193.8070  175.8250  138.1430 C   0  0  0  0  0  3  0  0  0  0  0  0
  188.1390  177.4940  142.8010 C   0  0  0  0  0  0  0  0  0  0  0  0
  186.9150  177.8770  143.3290 O   0  0  0  0  0  1  0  0  0  0  0  0
  189.6810  177.3080  140.9260 C   0  0  0  0  0  0  0  0  0  0  0  0
  189.0650  176.8540  143.6250 C   0  0  0  0  0  3  0  0  0  0  0  0
  190.5950  176.6510  141.7670 C   0  0  0  0  0  3  0  0  0  0  0  0
  188.4430  177.7330  141.4520 C   0  0  0  0  0  0  0  0  0  0  0  0
  187.4320  178.3970  140.5720 C   0  0  0  0  0  1  0  0  0  0  0  0
  190.2930  176.4290  143.1160 C   0  0  0  0  0  0  0  0  0  0  0  0
  191.6800  176.3760  145.1620 C   0  0  0  0  0  1  0  0  0  0  0  0
  191.1920  175.7760  143.9690 O   0  0  0  0  0  0  0  0  0  0  0  0
  188.5950  178.5900  137.2880 C   0  0  0  0  0  2  0  0  0  0  0  0
  188.4070  177.3230  137.5330 C   0  0  2  0  0  3  0  0  0  0  0  0
  187.3170  176.8490  136.7580 N   0  0  0  0  0  0  0  0  0  0  0  0
  186.9430  177.7710  135.8350 O   0  0  0  0  0  0  0  0  0  0  0  0
  187.5610  178.9650  136.2780 C   0  0  0  0  0  2  0  0  0  0  0  0
  186.3510  175.8830  137.2600 C   0  0  0  0  0  2  0  0  0  0  0  0
  186.3470  174.6370  136.3810 C   0  0  0  0  0  2  0  0  0  0  0  0
  186.3850  173.3640  137.2190 C   0  0  0  0  0  2  0  0  0  0  0  0
  184.9650  172.9540  137.5950 C   0  0  0  0  0  1  0  0  0  0  0  0
  1  5  1  6  0  0  0
  1 10  1  0  0  0  0
  2  9  1  0  0  0  0
  3  5  1  0  0  0  0
  4 13  1  0  0  0  0
  5  2  2  0  0  0  0
  6 12  1  0  0  0  0
  6  7  2  0  0  0  0
  7 11  1  0  0  0  0
  8  7  1  0  0  0  0
  8  3  2  0  0  0  0
  9 10  1  0  0  0  0
 10 16  1  1  0  0  0
 11 13  2  0  0  0  0
 11  2  1  0  0  0  0
 12  4  1  0  0  0  0
 14 15  1  0  0  0  0
 14 17  1  0  0  0  0
 16 19  1  0  0  0  0
 16 18  2  0  0  0  0
 18 21  1  0  0  0  0
 19 14  2  0  0  0  0
 20 19  1  0  0  0  0
 21 17  2  0  0  0  0
 21 23  1  0  0  0  0
 23 22  1  0  0  0  0
 25 24  1  1  0  0  0
 25  1  1  0  0  0  0
 26 29  1  0  0  0  0
 26 25  1  0  0  0  0
 27 28  1  0  0  0  0
 27 26  1  0  0  0  0
 28 24  1  0  0  0  0
 30 31  1  0  0  0  0
 30 29  1  0  0  0  0
 31 32  1  0  0  0  0
M  END
>  <MODEL>
3

>  <REMARK>
 VINA RESULT:      -6.8      4.651      6.808
  Name = 
  6 active torsions:
  status: ('A' for Active; 'I' for Inactive)
    1  A    between atoms: C_1  and  C_5
    2  A    between atoms: C_13  and  C_18
    3  A    between atoms: N_14  and  C_29
    4  A    between atoms: O_15  and  C_26
    5  A    between atoms: C_16  and  C_27
    6  A    between atoms: C_18  and  C_29
                            x       y       z     vdW  Elec       q    Type
                         _______ _______ _______ _____ _____    ______ ____

>  <TORSDO>
F 6

$$$$
=
 OpenBabel10262421133D

 32 36  0  0  1  0  0  0  0  0999 V2000
  190.1530  177.3570  142.9620 C   0  0  1  0  0  3  0  0  0  0  0  0
  190.3160  176.5620  140.7540 C   0  0  0  0  0  0  0  0  0  0  0  0
  192.1290  177.9990  141.4100 C   0  0  0  0  0  3  0  0  0  0  0  0
  190.9430  175.4080  137.3140 N   0  0  0  0  0  2  0  0  0  0  0  0
  190.9280  177.3510  141.6920 C   0  0  0  0  0  0  0  0  0  0  0  0
  192.7190  176.8760  138.0400 C   0  0  0  0  0  3  0  0  0  0  0  0
  192.1140  177.0250  139.2260 C   0  0  0  0  0  0  0  0  0  0  0  0
  192.6920  177.8180  140.1780 N   0  0  0  0  0  0  0  0  0  0  0  0
  189.0990  176.0150  141.2330 N   0  0  0  0  0  2  0  0  0  0  0  0
  188.8960  176.5150  142.5990 C   0  0  2  0  0  3  0  0  0  0  0  0
  190.8860  176.3670  139.4930 C   0  0  0  0  0  0  0  0  0  0  0  0
  192.1390  176.0530  137.0650 O   0  0  0  0  0  0  0  0  0  0  0  0
  190.3020  175.5810  138.5820 C   0  0  0  0  0  3  0  0  0  0  0  0
  185.8060  178.3130  143.9450 C   0  0  0  0  0  0  0  0  0  0  0  0
  185.0960  178.4590  145.1280 O   0  0  0  0  0  1  0  0  0  0  0  0
  187.6550  177.3640  142.6790 C   0  0  0  0  0  0  0  0  0  0  0  0
  185.3960  179.0220  142.8160 C   0  0  0  0  0  3  0  0  0  0  0  0
  187.2390  178.0980  141.5550 C   0  0  0  0  0  3  0  0  0  0  0  0
  186.9290  177.4740  143.8820 C   0  0  0  0  0  0  0  0  0  0  0  0
  187.3730  176.7400  145.1070 C   0  0  0  0  0  1  0  0  0  0  0  0
  186.1080  178.9200  141.6180 C   0  0  0  0  0  0  0  0  0  0  0  0
  184.5780  179.2500  139.7030 C   0  0  0  0  0  1  0  0  0  0  0  0
  185.6770  179.6590  140.5090 O   0  0  0  0  0  0  0  0  0  0  0  0
  191.5050  175.5290  143.9660 C   0  0  0  0  0  2  0  0  0  0  0  0
  190.9350  176.6970  144.0710 C   0  0  2  0  0  3  0  0  0  0  0  0
  191.0530  177.1630  145.4060 N   0  0  0  0  0  0  0  0  0  0  0  0
  191.9080  176.3830  146.1160 O   0  0  0  0  0  0  0  0  0  0  0  0
  192.0380  175.2160  145.3250 C   0  0  0  0  0  2  0  0  0  0  0  0
  189.9940  177.8940  146.0860 C   0  0  0  0  0  2  0  0  0  0  0  0
  189.7350  177.2870  147.4600 C   0  0  0  0  0  2  0  0  0  0  0  0
  189.1490  178.3140  148.4220 C   0  0  0  0  0  2  0  0  0  0  0  0
  187.6290  178.3280  148.2940 C   0  0  0  0  0  1  0  0  0  0  0  0
  1  5  1  6  0  0  0
  1 25  1  0  0  0  0
  2  9  1  0  0  0  0
  2  5  2  0  0  0  0
  3  5  1  0  0  0  0
  4 13  1  0  0  0  0
  6  7  2  0  0  0  0
  7 11  1  0  0  0  0
  7  8  1  0  0  0  0
  8  3  2  0  0  0  0
  9 10  1  0  0  0  0
 10 16  1  6  0  0  0
 10  1  1  0  0  0  0
 11  2  1  0  0  0  0
 12  4  1  0  0  0  0
 12  6  1  0  0  0  0
 13 11  2  0  0  0  0
 14 15  1  0  0  0  0
 16 19  2  0  0  0  0
 17 14  2  0  0  0  0
 18 21  2  0  0  0  0
 18 16  1  0  0  0  0
 19 14  1  0  0  0  0
 19 20  1  0  0  0  0
 21 17  1  0  0  0  0
 22 23  1  0  0  0  0
 23 21  1  0  0  0  0
 24 28  1  0  0  0  0
 25 24  1  1  0  0  0
 25 26  1  0  0  0  0
 26 29  1  0  0  0  0
 26 27  1  0  0  0  0
 28 27  1  0  0  0  0
 29 30  1  0  0  0  0
 30 31  1  0  0  0  0
 32 31  1  0  0  0  0
M  END
>  <MODEL>
4

>  <REMARK>
 VINA RESULT:      -6.8      4.082      8.270
  Name = 
  6 active torsions:
  status: ('A' for Active; 'I' for Inactive)
    1  A    between atoms: C_1  and  C_5
    2  A    between atoms: C_13  and  C_18
    3  A    between atoms: N_14  and  C_29
    4  A    between atoms: O_15  and  C_26
    5  A    between atoms: C_16  and  C_27
    6  A    between atoms: C_18  and  C_29
                            x       y       z     vdW  Elec       q    Type
                         _______ _______ _______ _____ _____    ______ ____

>  <TORSDO>
F 6

$$$$
=
 OpenBabel10262421133D

 32 36  0  0  1  0  0  0  0  0999 V2000
  187.9340  176.7420  138.1990 C   0  0  1  0  0  3  0  0  0  0  0  0
  190.2750  176.6380  138.4010 C   0  0  0  0  0  0  0  0  0  0  0  0
  189.3010  174.7120  137.3420 C   0  0  0  0  0  3  0  0  0  0  0  0
  193.9320  176.2070  138.4440 N   0  0  0  0  0  2  0  0  0  0  0  0
  189.1740  175.9570  137.9550 C   0  0  0  0  0  0  0  0  0  0  0  0
  192.8770  174.2960  137.4070 C   0  0  0  0  0  3  0  0  0  0  0  0
  191.6740  174.8520  137.6020 C   0  0  0  0  0  0  0  0  0  0  0  0
  190.5540  174.1900  137.1820 N   0  0  0  0  0  0  0  0  0  0  0  0
  189.9270  177.8690  139.0110 N   0  0  0  0  0  2  0  0  0  0  0  0
  188.4630  177.9820  138.9750 C   0  0  2  0  0  3  0  0  0  0  0  0
  191.5610  176.1150  138.2380 C   0  0  0  0  0  0  0  0  0  0  0  0
  194.0300  174.9760  137.8230 O   0  0  0  0  0  0  0  0  0  0  0  0
  192.6410  176.7870  138.6540 C   0  0  0  0  0  3  0  0  0  0  0  0
  186.0650  178.4630  141.9100 C   0  0  0  0  0  0  0  0  0  0  0  0
  184.7750  178.9060  142.1630 O   0  0  0  0  0  1  0  0  0  0  0  0
  187.8940  178.0110  140.3680 C   0  0  0  0  0  0  0  0  0  0  0  0
  186.8330  177.9710  142.9650 C   0  0  0  0  0  3  0  0  0  0  0  0
  188.6490  177.5040  141.4400 C   0  0  0  0  0  3  0  0  0  0  0  0
  186.5910  178.4950  140.6090 C   0  0  0  0  0  0  0  0  0  0  0  0
  185.7480  179.0000  139.4830 C   0  0  0  0  0  1  0  0  0  0  0  0
  188.1250  177.4900  142.7380 C   0  0  0  0  0  0  0  0  0  0  0  0
  188.5670  177.3370  145.1660 C   0  0  0  0  0  1  0  0  0  0  0  0
  188.8610  176.9890  143.8190 O   0  0  0  0  0  0  0  0  0  0  0  0
  187.7530  178.1140  136.1340 C   0  0  0  0  0  2  0  0  0  0  0  0
  187.2970  177.1590  136.8960 C   0  0  2  0  0  3  0  0  0  0  0  0
  186.0630  176.6890  136.3770 N   0  0  0  0  0  0  0  0  0  0  0  0
  185.8340  177.1970  135.1390 O   0  0  0  0  0  0  0  0  0  0  0  0
  186.7510  178.2720  135.0390 C   0  0  0  0  0  2  0  0  0  0  0  0
  184.9460  176.2980  137.2250 C   0  0  0  0  0  2  0  0  0  0  0  0
  184.4870  174.8880  136.8730 C   0  0  0  0  0  2  0  0  0  0  0  0
  185.6610  174.0020  136.4760 C   0  0  0  0  0  2  0  0  0  0  0  0
  185.9520  173.0030  137.5920 C   0  0  0  0  0  1  0  0  0  0  0  0
  1  5  1  6  0  0  0
  1 10  1  0  0  0  0
  2  9  1  0  0  0  0
  3  5  1  0  0  0  0
  4 13  1  0  0  0  0
  5  2  2  0  0  0  0
  6  7  2  0  0  0  0
  6 12  1  0  0  0  0
  7 11  1  0  0  0  0
  8  3  2  0  0  0  0
  8  7  1  0  0  0  0
 10  9  1  0  0  0  0
 10 16  1  1  0  0  0
 11  2  1  0  0  0  0
 11 13  2  0  0  0  0
 12  4  1  0  0  0  0
 14 15  1  0  0  0  0
 14 17  1  0  0  0  0
 16 19  1  0  0  0  0
 16 18  2  0  0  0  0
 18 21  1  0  0  0  0
 19 14  2  0  0  0  0
 20 19  1  0  0  0  0
 21 17  2  0  0  0  0
 21 23  1  0  0  0  0
 23 22  1  0  0  0  0
 25 24  1  1  0  0  0
 25  1  1  0  0  0  0
 26 25  1  0  0  0  0
 26 29  1  0  0  0  0
 27 26  1  0  0  0  0
 28 27  1  0  0  0  0
 28 24  1  0  0  0  0
 30 29  1  0  0  0  0
 31 30  1  0  0  0  0
 31 32  1  0  0  0  0
M  END
>  <MODEL>
5

>  <REMARK>
 VINA RESULT:      -6.6      3.962      5.996
  Name = 
  6 active torsions:
  status: ('A' for Active; 'I' for Inactive)
    1  A    between atoms: C_1  and  C_5
    2  A    between atoms: C_13  and  C_18
    3  A    between atoms: N_14  and  C_29
    4  A    between atoms: O_15  and  C_26
    5  A    between atoms: C_16  and  C_27
    6  A    between atoms: C_18  and  C_29
                            x       y       z     vdW  Elec       q    Type
                         _______ _______ _______ _____ _____    ______ ____

>  <TORSDO>
F 6

$$$$
=
 OpenBabel10262421133D

 32 36  0  0  1  0  0  0  0  0999 V2000
  184.7850  178.0020  141.2940 C   0  0  1  0  0  3  0  0  0  0  0  0
  183.3400  179.1520  139.8360 C   0  0  0  0  0  0  0  0  0  0  0  0
  182.2710  177.4010  141.0900 C   0  0  0  0  0  3  0  0  0  0  0  0
  180.7910  180.8140  137.7640 N   0  0  0  0  0  2  0  0  0  0  0  0
  183.4050  178.1360  140.7530 C   0  0  0  0  0  0  0  0  0  0  0  0
  179.7910  179.0250  139.0450 C   0  0  0  0  0  3  0  0  0  0  0  0
  180.9840  178.7440  139.5870 C   0  0  0  0  0  0  0  0  0  0  0  0
  181.0850  177.7270  140.4940 N   0  0  0  0  0  0  0  0  0  0  0  0
  184.6060  179.7550  139.6220 N   0  0  0  0  0  2  0  0  0  0  0  0
  185.5810  179.0480  140.4620 C   0  0  2  0  0  3  0  0  0  0  0  0
  182.1310  179.4950  139.2250 C   0  0  0  0  0  0  0  0  0  0  0  0
  179.6790  180.0770  138.1250 O   0  0  0  0  0  0  0  0  0  0  0  0
  182.0600  180.5000  138.3440 C   0  0  0  0  0  3  0  0  0  0  0  0
  188.8940  177.5650  139.2710 C   0  0  0  0  0  0  0  0  0  0  0  0
  190.2050  177.4180  139.7000 O   0  0  0  0  0  1  0  0  0  0  0  0
  186.6200  178.3640  139.6150 C   0  0  0  0  0  0  0  0  0  0  0  0
  188.5130  177.0080  138.0490 C   0  0  0  0  0  3  0  0  0  0  0  0
  186.2500  177.7840  138.3900 C   0  0  0  0  0  3  0  0  0  0  0  0
  187.9560  178.2530  140.0550 C   0  0  0  0  0  0  0  0  0  0  0  0
  188.3710  178.8220  141.3740 C   0  0  0  0  0  1  0  0  0  0  0  0
  187.1940  177.1120  137.6030 C   0  0  0  0  0  0  0  0  0  0  0  0
  186.4640  177.3010  135.2480 C   0  0  0  0  0  1  0  0  0  0  0  0
  186.8430  176.5280  136.3800 O   0  0  0  0  0  0  0  0  0  0  0  0
  184.2180  179.3780  143.2840 C   0  0  0  0  0  2  0  0  0  0  0  0
  184.8220  178.3470  142.7620 C   0  0  2  0  0  3  0  0  0  0  0  0
  185.6080  177.7060  143.7550 N   0  0  0  0  0  0  0  0  0  0  0  0
  185.3280  178.2020  144.9870 O   0  0  0  0  0  0  0  0  0  0  0  0
  184.6340  179.4070  144.7180 C   0  0  0  0  0  2  0  0  0  0  0  0
  186.9160  177.1300  143.4780 C   0  0  0  0  0  2  0  0  0  0  0  0
  187.8000  177.2130  144.7170 C   0  0  0  0  0  2  0  0  0  0  0  0
  189.2530  176.8920  144.3880 C   0  0  0  0  0  2  0  0  0  0  0  0
  190.1310  178.0960  144.7140 C   0  0  0  0  0  1  0  0  0  0  0  0
  1  5  1  6  0  0  0
  1 25  1  0  0  0  0
  2  5  2  0  0  0  0
  4 12  1  0  0  0  0
  4 13  1  0  0  0  0
  5  3  1  0  0  0  0
  6  7  2  0  0  0  0
  7  8  1  0  0  0  0
  8  3  2  0  0  0  0
  9  2  1  0  0  0  0
  9 10  1  0  0  0  0
 10 16  1  6  0  0  0
 10  1  1  0  0  0  0
 11  7  1  0  0  0  0
 11  2  1  0  0  0  0
 12  6  1  0  0  0  0
 13 11  2  0  0  0  0
 14 15  1  0  0  0  0
 14 19  1  0  0  0  0
 16 19  2  0  0  0  0
 17 14  2  0  0  0  0
 18 16  1  0  0  0  0
 19 20  1  0  0  0  0
 21 17  1  0  0  0  0
 21 18  2  0  0  0  0
 22 23  1  0  0  0  0
 23 21  1  0  0  0  0
 24 28  1  0  0  0  0
 25 24  1  6  0  0  0
 25 26  1  0  0  0  0
 26 27  1  0  0  0  0
 28 27  1  0  0  0  0
 29 26  1  0  0  0  0
 29 30  1  0  0  0  0
 31 32  1  0  0  0  0
 31 30  1  0  0  0  0
M  END
>  <MODEL>
6

>  <REMARK>
 VINA RESULT:      -6.6      1.921      6.434
  Name = 
  6 active torsions:
  status: ('A' for Active; 'I' for Inactive)
    1  A    between atoms: C_1  and  C_5
    2  A    between atoms: C_13  and  C_18
    3  A    between atoms: N_14  and  C_29
    4  A    between atoms: O_15  and  C_26
    5  A    between atoms: C_16  and  C_27
    6  A    between atoms: C_18  and  C_29
                            x       y       z     vdW  Elec       q    Type
                         _______ _______ _______ _____ _____    ______ ____

>  <TORSDO>
F 6

$$$$
=
 OpenBabel10262421133D

 32 36  0  0  1  0  0  0  0  0999 V2000
  190.2280  177.3740  142.9930 C   0  0  1  0  0  3  0  0  0  0  0  0
  190.3560  176.5860  140.7790 C   0  0  0  0  0  0  0  0  0  0  0  0
  192.2230  177.9510  141.4400 C   0  0  0  0  0  3  0  0  0  0  0  0
  190.9320  175.4300  137.3320 N   0  0  0  0  0  2  0  0  0  0  0  0
  190.9990  177.3460  141.7210 C   0  0  0  0  0  0  0  0  0  0  0  0
  192.7640  176.8270  138.0610 C   0  0  0  0  0  3  0  0  0  0  0  0
  192.1670  176.9910  139.2500 C   0  0  0  0  0  0  0  0  0  0  0  0
  192.7760  177.7560  140.2060 N   0  0  0  0  0  0  0  0  0  0  0  0
  189.1210  176.0820  141.2590 N   0  0  0  0  0  2  0  0  0  0  0  0
  188.9400  176.5820  142.6280 C   0  0  2  0  0  3  0  0  0  0  0  0
  190.9160  176.3780  139.5160 C   0  0  0  0  0  0  0  0  0  0  0  0
  192.1510  176.0310  137.0830 O   0  0  0  0  0  0  0  0  0  0  0  0
  190.3010  175.6190  138.6020 C   0  0  0  0  0  3  0  0  0  0  0  0
  186.1400  179.0050  141.6910 C   0  0  0  0  0  0  0  0  0  0  0  0
  185.6790  179.7210  140.5950 O   0  0  0  0  0  1  0  0  0  0  0  0
  187.7320  177.4760  142.7150 C   0  0  0  0  0  0  0  0  0  0  0  0
  185.4270  179.0660  142.8890 C   0  0  0  0  0  3  0  0  0  0  0  0
  186.9940  177.5350  143.9100 C   0  0  0  0  0  3  0  0  0  0  0  0
  187.2990  178.2200  141.5980 C   0  0  0  0  0  0  0  0  0  0  0  0
  188.0380  178.1430  140.3010 C   0  0  0  0  0  1  0  0  0  0  0  0
  185.8470  178.3340  144.0010 C   0  0  0  0  0  0  0  0  0  0  0  0
  183.8090  179.0030  145.2310 C   0  0  0  0  0  1  0  0  0  0  0  0
  185.0990  178.4070  145.1830 O   0  0  0  0  0  0  0  0  0  0  0  0
  191.5430  175.5050  143.9720 C   0  0  0  0  0  2  0  0  0  0  0  0
  190.9870  176.6790  144.0960 C   0  0  2  0  0  3  0  0  0  0  0  0
  191.0950  177.1130  145.4430 N   0  0  0  0  0  0  0  0  0  0  0  0
  191.9310  176.3060  146.1450 O   0  0  0  0  0  0  0  0  0  0  0  0
  192.0550  175.1550  145.3300 C   0  0  0  0  0  2  0  0  0  0  0  0
  190.0370  177.8420  146.1260 C   0  0  0  0  0  2  0  0  0  0  0  0
  189.4790  177.0070  147.2730 C   0  0  0  0  0  2  0  0  0  0  0  0
  188.7620  177.8770  148.2980 C   0  0  0  0  0  2  0  0  0  0  0  0
  187.3780  178.2520  147.7760 C   0  0  0  0  0  1  0  0  0  0  0  0
  1  5  1  6  0  0  0
  1 25  1  0  0  0  0
  2  9  1  0  0  0  0
  2  5  2  0  0  0  0
  3  5  1  0  0  0  0
  4 13  1  0  0  0  0
  6  7  2  0  0  0  0
  7 11  1  0  0  0  0
  7  8  1  0  0  0  0
  8  3  2  0  0  0  0
  9 10  1  0  0  0  0
 10 16  1  6  0  0  0
 10  1  1  0  0  0  0
 11  2  1  0  0  0  0
 12  4  1  0  0  0  0
 12  6  1  0  0  0  0
 13 11  2  0  0  0  0
 14 17  1  0  0  0  0
 15 14  1  0  0  0  0
 16 18  2  0  0  0  0
 17 21  2  0  0  0  0
 18 21  1  0  0  0  0
 19 14  2  0  0  0  0
 19 16  1  0  0  0  0
 20 19  1  0  0  0  0
 21 23  1  0  0  0  0
 23 22  1  0  0  0  0
 24 28  1  0  0  0  0
 25 24  1  1  0  0  0
 25 26  1  0  0  0  0
 26 29  1  0  0  0  0
 26 27  1  0  0  0  0
 28 27  1  0  0  0  0
 29 30  1  0  0  0  0
 30 31  1  0  0  0  0
 32 31  1  0  0  0  0
M  END
>  <MODEL>
7

>  <REMARK>
 VINA RESULT:      -6.3      4.535      8.296
  Name = 
  6 active torsions:
  status: ('A' for Active; 'I' for Inactive)
    1  A    between atoms: C_1  and  C_5
    2  A    between atoms: C_13  and  C_18
    3  A    between atoms: N_14  and  C_29
    4  A    between atoms: O_15  and  C_26
    5  A    between atoms: C_16  and  C_27
    6  A    between atoms: C_18  and  C_29
                            x       y       z     vdW  Elec       q    Type
                         _______ _______ _______ _____ _____    ______ ____

>  <TORSDO>
F 6

$$$$
=
 OpenBabel10262421133D

 32 36  0  0  1  0  0  0  0  0999 V2000
  189.1390  177.9280  141.5580 C   0  0  1  0  0  3  0  0  0  0  0  0
  190.3760  176.5480  143.0070 C   0  0  0  0  0  0  0  0  0  0  0  0
  190.1330  178.8090  143.7850 C   0  0  0  0  0  3  0  0  0  0  0  0
  192.2410  174.6440  145.5470 N   0  0  0  0  0  2  0  0  0  0  0  0
  189.9020  177.8210  142.8310 C   0  0  0  0  0  0  0  0  0  0  0  0
  191.9710  176.9390  146.2540 C   0  0  0  0  0  3  0  0  0  0  0  0
  191.3030  177.2100  145.1240 C   0  0  0  0  0  0  0  0  0  0  0  0
  190.8310  178.4750  144.9120 N   0  0  0  0  0  0  0  0  0  0  0  0
  190.0520  175.7050  141.9130 N   0  0  0  0  0  2  0  0  0  0  0  0
  189.3220  176.5170  140.9300 C   0  0  2  0  0  3  0  0  0  0  0  0
  191.0870  176.1950  144.1570 C   0  0  0  0  0  0  0  0  0  0  0  0
  192.4450  175.6400  146.4830 O   0  0  0  0  0  0  0  0  0  0  0  0
  191.5330  174.9470  144.3410 C   0  0  0  0  0  3  0  0  0  0  0  0
  190.1770  177.0410  137.2440 C   0  0  0  0  0  0  0  0  0  0  0  0
  189.5540  177.3600  136.0470 O   0  0  0  0  0  1  0  0  0  0  0  0
  190.0890  176.6120  139.6390 C   0  0  0  0  0  0  0  0  0  0  0  0
  191.5610  176.8670  137.2640 C   0  0  0  0  0  3  0  0  0  0  0  0
  191.4850  176.4550  139.6450 C   0  0  0  0  0  3  0  0  0  0  0  0
  189.4320  176.9060  138.4260 C   0  0  0  0  0  0  0  0  0  0  0  0
  187.9530  177.1200  138.3960 C   0  0  0  0  0  1  0  0  0  0  0  0
  192.2220  176.5750  138.4600 C   0  0  0  0  0  0  0  0  0  0  0  0
  194.2450  175.2440  137.9570 C   0  0  0  0  0  1  0  0  0  0  0  0
  193.6140  176.4220  138.4450 O   0  0  0  0  0  0  0  0  0  0  0  0
  187.0330  179.2320  141.3470 C   0  0  0  0  0  2  0  0  0  0  0  0
  187.6810  178.2080  141.8290 C   0  0  2  0  0  3  0  0  0  0  0  0
  186.8460  177.5020  142.7340 N   0  0  0  0  0  0  0  0  0  0  0  0
  185.5670  177.9520  142.6610 O   0  0  0  0  0  0  0  0  0  0  0  0
  185.6790  179.1860  141.9750 C   0  0  0  0  0  2  0  0  0  0  0  0
  187.3410  176.9020  143.9630 C   0  0  0  0  0  2  0  0  0  0  0  0
  186.8380  177.6850  145.1710 C   0  0  0  0  0  2  0  0  0  0  0  0
  187.7540  177.5020  146.3750 C   0  0  0  0  0  2  0  0  0  0  0  0
  187.1820  178.2530  147.5740 C   0  0  0  0  0  1  0  0  0  0  0  0
  1 25  1  0  0  0  0
  1  5  1  1  0  0  0
  2 11  1  0  0  0  0
  3  8  2  0  0  0  0
  4 12  1  0  0  0  0
  5  2  2  0  0  0  0
  5  3  1  0  0  0  0
  6 12  1  0  0  0  0
  7  6  2  0  0  0  0
  8  7  1  0  0  0  0
  9  2  1  0  0  0  0
 10 16  1  6  0  0  0
 10  1  1  0  0  0  0
 10  9  1  0  0  0  0
 11 13  2  0  0  0  0
 11  7  1  0  0  0  0
 13  4  1  0  0  0  0
 14 17  2  0  0  0  0
 14 19  1  0  0  0  0
 15 14  1  0  0  0  0
 16 18  1  0  0  0  0
 17 21  1  0  0  0  0
 19 16  2  0  0  0  0
 20 19  1  0  0  0  0
 21 18  2  0  0  0  0
 22 23  1  0  0  0  0
 23 21  1  0  0  0  0
 24 28  1  0  0  0  0
 25 24  1  1  0  0  0
 25 26  1  0  0  0  0
 26 29  1  0  0  0  0
 27 26  1  0  0  0  0
 28 27  1  0  0  0  0
 29 30  1  0  0  0  0
 30 31  1  0  0  0  0
 31 32  1  0  0  0  0
M  END
>  <MODEL>
8

>  <REMARK>
 VINA RESULT:      -6.3      4.519      8.779
  Name = 
  6 active torsions:
  status: ('A' for Active; 'I' for Inactive)
    1  A    between atoms: C_1  and  C_5
    2  A    between atoms: C_13  and  C_18
    3  A    between atoms: N_14  and  C_29
    4  A    between atoms: O_15  and  C_26
    5  A    between atoms: C_16  and  C_27
    6  A    between atoms: C_18  and  C_29
                            x       y       z     vdW  Elec       q    Type
                         _______ _______ _______ _____ _____    ______ ____

>  <TORSDO>
F 6

$$$$
=
 OpenBabel10262421133D

 32 36  0  0  1  0  0  0  0  0999 V2000
  189.6360  177.2480  142.1930 C   0  0  1  0  0  3  0  0  0  0  0  0
  187.5230  178.1910  141.7670 C   0  0  0  0  0  0  0  0  0  0  0  0
  187.5900  176.7880  143.7190 C   0  0  0  0  0  3  0  0  0  0  0  0
  184.1300  179.5900  141.4660 N   0  0  0  0  0  2  0  0  0  0  0  0
  188.2140  177.3680  142.6170 C   0  0  0  0  0  0  0  0  0  0  0  0
  184.2720  178.1510  143.4020 C   0  0  0  0  0  3  0  0  0  0  0  0
  185.5580  177.9010  143.1240 C   0  0  0  0  0  0  0  0  0  0  0  0
  186.2730  177.0720  143.9440 N   0  0  0  0  0  0  0  0  0  0  0  0
  188.3340  178.6560  140.7010 N   0  0  0  0  0  2  0  0  0  0  0  0
  189.6660  178.0600  140.8660 C   0  0  2  0  0  3  0  0  0  0  0  0
  186.1760  178.4900  141.9910 C   0  0  0  0  0  0  0  0  0  0  0  0
  183.5390  179.0110  142.5730 O   0  0  0  0  0  0  0  0  0  0  0  0
  185.5030  179.3090  141.1750 C   0  0  0  0  0  3  0  0  0  0  0  0
  191.6130  175.9590  138.3400 C   0  0  0  0  0  0  0  0  0  0  0  0
  192.9210  175.6110  138.0340 O   0  0  0  0  0  1  0  0  0  0  0  0
  189.9960  177.1590  139.7070 C   0  0  0  0  0  0  0  0  0  0  0  0
  190.5720  175.4070  137.5920 C   0  0  0  0  0  3  0  0  0  0  0  0
  188.9580  176.5830  138.9550 C   0  0  0  0  0  3  0  0  0  0  0  0
  191.3340  176.8430  139.3930 C   0  0  0  0  0  0  0  0  0  0  0  0
  192.4580  177.4060  140.2020 C   0  0  0  0  0  1  0  0  0  0  0  0
  189.2430  175.7140  137.8940 C   0  0  0  0  0  0  0  0  0  0  0  0
  187.1390  175.8860  136.6060 C   0  0  0  0  0  1  0  0  0  0  0  0
  188.2230  175.1300  137.1330 O   0  0  0  0  0  0  0  0  0  0  0  0
  190.9430  179.1100  143.1930 C   0  0  0  0  0  2  0  0  0  0  0  0
  190.5550  177.8660  143.2180 C   0  0  2  0  0  3  0  0  0  0  0  0
  191.2330  177.1790  144.2580 N   0  0  0  0  0  0  0  0  0  0  0  0
  191.9000  178.0500  145.0580 O   0  0  0  0  0  0  0  0  0  0  0  0
  191.9370  179.2460  144.2990 C   0  0  0  0  0  2  0  0  0  0  0  0
  191.6940  175.8050  144.1290 C   0  0  0  0  0  2  0  0  0  0  0  0
  192.2490  175.3090  145.4600 C   0  0  0  0  0  2  0  0  0  0  0  0
  191.5470  175.9730  146.6390 C   0  0  0  0  0  2  0  0  0  0  0  0
  192.3840  175.7940  147.9020 C   0  0  0  0  0  1  0  0  0  0  0  0
  1  5  1  1  0  0  0
  1 25  1  0  0  0  0
  2 11  1  0  0  0  0
  2  5  2  0  0  0  0
  3  8  2  0  0  0  0
  4 12  1  0  0  0  0
  5  3  1  0  0  0  0
  7  6  2  0  0  0  0
  7  8  1  0  0  0  0
  9 10  1  0  0  0  0
  9  2  1  0  0  0  0
 10 16  1  6  0  0  0
 10  1  1  0  0  0  0
 11  7  1  0  0  0  0
 12  6  1  0  0  0  0
 13  4  1  0  0  0  0
 13 11  2  0  0  0  0
 14 19  1  0  0  0  0
 15 14  1  0  0  0  0
 17 21  1  0  0  0  0
 17 14  2  0  0  0  0
 18 16  1  0  0  0  0
 19 16  2  0  0  0  0
 19 20  1  0  0  0  0
 21 18  2  0  0  0  0
 22 23  1  0  0  0  0
 23 21  1  0  0  0  0
 24 28  1  0  0  0  0
 25 24  1  6  0  0  0
 25 26  1  0  0  0  0
 26 27  1  0  0  0  0
 28 27  1  0  0  0  0
 29 26  1  0  0  0  0
 29 30  1  0  0  0  0
 30 31  1  0  0  0  0
 31 32  1  0  0  0  0
M  END
>  <MODEL>
9

>  <REMARK>
 VINA RESULT:      -6.3      3.938      9.131
  Name = 
  6 active torsions:
  status: ('A' for Active; 'I' for Inactive)
    1  A    between atoms: C_1  and  C_5
    2  A    between atoms: C_13  and  C_18
    3  A    between atoms: N_14  and  C_29
    4  A    between atoms: O_15  and  C_26
    5  A    between atoms: C_16  and  C_27
    6  A    between atoms: C_18  and  C_29
                            x       y       z     vdW  Elec       q    Type
                         _______ _______ _______ _____ _____    ______ ____

>  <TORSDO>
F 6

$$$$
