=
 OpenBabel10262421543D

 30 34  0  0  1  0  0  0  0  0999 V2000
  187.0790  177.9460  143.2880 N   0  0  0  0  0  0  0  0  0  0  0  0
  184.7080  178.2430  142.5690 C   0  0  1  0  0  3  0  0  0  0  0  0
  186.1030  178.4210  147.3400 N   0  0  0  0  0  0  0  0  0  0  0  0
  188.0720  177.8400  144.2110 C   0  0  0  0  0  0  0  0  0  0  0  0
  187.0840  178.2470  148.3640 C   0  0  0  0  0  3  0  0  0  0  0  0
  183.5550  179.1690  142.9720 C   0  0  0  0  0  2  0  0  0  0  0  0
  185.2420  178.6830  141.2160 C   0  0  0  0  0  1  0  0  0  0  0  0
  186.4390  178.2820  145.9550 C   0  0  0  0  0  0  0  0  0  0  0  0
  183.1400  178.9580  144.4010 C   0  0  0  0  0  3  0  0  0  0  0  0
  185.7940  178.2330  143.6220 C   0  0  0  0  0  0  0  0  0  0  0  0
  187.7700  178.0140  145.5830 C   0  0  0  0  0  0  0  0  0  0  0  0
  188.3560  178.0070  148.0570 C   0  0  0  0  0  3  0  0  0  0  0  0
  188.8510  177.9340  146.6370 C   0  0  0  0  0  3  0  0  0  0  0  0
  184.0370  178.6420  145.3370 C   0  0  0  0  0  3  0  0  0  0  0  0
  185.4460  178.3940  144.9750 C   0  0  0  0  0  0  0  0  0  0  0  0
  189.4640  177.5490  143.6980 C   0  0  1  0  0  3  0  0  0  0  0  0
  190.6070  177.2450  141.5410 O   0  0  0  0  0  0  0  0  0  0  0  0
  189.0550  175.6310  142.0850 O   0  0  0  0  0  1  0  0  0  0  0  0
  189.5230  176.9360  142.2910 C   0  0  1  0  0  0  0  0  0  0  0  0
  189.4080  177.8530  141.1730 N   0  0  2  0  0  0  0  0  0  0  0  0
  188.9640  177.1830  139.9560 C   0  0  0  0  0  3  0  0  0  0  0  0
  189.6730  177.7930  138.7660 C   0  0  0  0  0  2  0  0  0  0  0  0
  188.2450  178.1820  139.0740 C   0  0  0  0  0  2  0  0  0  0  0  0
  190.4390  178.7140  143.8550 C   0  0  0  0  0  2  0  0  0  0  0  0
  191.7580  178.2630  144.4730 C   0  0  0  0  0  2  0  0  0  0  0  0
  191.6860  176.8310  144.9830 C   0  0  0  0  0  2  0  0  0  0  0  0
  191.6760  176.8030  146.5010 C   0  0  0  0  0  2  0  0  0  0  0  0
  192.8140  175.5920  148.2950 O   0  0  0  0  0  0  0  0  0  0  0  0
  192.4340  175.6600  146.9760 N   0  0  0  0  0  0  0  0  0  0  0  0
  192.5950  174.6700  146.2340 O   0  0  0  0  0  0  0  0  0  0  0  0
  1 10  2  0  0  0  0
  1  4  1  0  0  0  0
  2  7  1  6  0  0  0
  2  6  1  0  0  0  0
  2 10  1  0  0  0  0
  3  5  2  0  0  0  0
  4 11  2  0  0  0  0
  6  9  1  0  0  0  0
  8  3  1  0  0  0  0
  9 14  2  0  0  0  0
 10 15  1  0  0  0  0
 11  8  1  0  0  0  0
 11 13  1  0  0  0  0
 12  5  1  0  0  0  0
 13 12  2  0  0  0  0
 15 14  1  0  0  0  0
 15  8  2  0  0  0  0
 16 24  1  6  0  0  0
 16  4  1  0  0  0  0
 17 19  1  0  0  0  0
 19 18  1  6  0  0  0
 19 16  1  0  0  0  0
 20 21  1  6  0  0  0
 20 17  1  0  0  0  0
 20 19  1  0  0  0  0
 22 23  1  0  0  0  0
 22 21  1  0  0  0  0
 23 21  1  0  0  0  0
 24 25  1  0  0  0  0
 25 26  1  0  0  0  0
 26 27  1  0  0  0  0
 27 29  1  0  0  0  0
 29 28  2  0  0  0  0
 30 29  2  0  0  0  0
M  END
>  <MODEL>
1

>  <REMARK>
 VINA RESULT:      -8.7      0.000      0.000
  Name = 
  8 active torsions:
  status: ('A' for Active; 'I' for Inactive)
    1  A    between atoms: C_4  and  C_13
    2  A    between atoms: C_7  and  N_15
    3  A    between atoms: C_7  and  C_16
    4  A    between atoms: C_8  and  C_13
    5  A    between atoms: C_9  and  N_12
    6  A    between atoms: C_13  and  C_27
    7  A    between atoms: C_16  and  C_30
    8  A    between atoms: C_27  and  C_30
                            x       y       z     vdW  Elec       q    Type
                         _______ _______ _______ _____ _____    ______ ____

>  <TORSDO>
F 8

$$$$
=
 OpenBabel10262421543D

 30 34  0  0  1  0  0  0  0  0999 V2000
  187.0010  178.0100  144.6000 N   0  0  0  0  0  0  0  0  0  0  0  0
  186.5700  178.1200  147.0550 C   0  0  1  0  0  3  0  0  0  0  0  0
  190.8800  176.5160  145.1630 N   0  0  0  0  0  0  0  0  0  0  0  0
  187.7480  177.7160  143.5030 C   0  0  0  0  0  0  0  0  0  0  0  0
  191.6880  176.1150  144.0550 C   0  0  0  0  0  3  0  0  0  0  0  0
  187.3780  178.5430  148.2870 C   0  0  0  0  0  2  0  0  0  0  0  0
  185.5300  179.1880  146.7590 C   0  0  0  0  0  1  0  0  0  0  0  0
  189.5640  177.0470  144.9720 C   0  0  0  0  0  0  0  0  0  0  0  0
  188.5820  177.6680  148.4950 C   0  0  0  0  0  3  0  0  0  0  0  0
  187.4720  177.8730  145.8680 C   0  0  0  0  0  0  0  0  0  0  0  0
  189.0660  177.2270  143.6680 C   0  0  0  0  0  0  0  0  0  0  0  0
  191.2620  176.2810  142.8050 C   0  0  0  0  0  3  0  0  0  0  0  0
  189.9400  176.9170  142.4730 C   0  0  0  0  0  3  0  0  0  0  0  0
  189.2520  177.1640  147.4560 C   0  0  0  0  0  3  0  0  0  0  0  0
  188.7680  177.3710  146.0770 C   0  0  0  0  0  0  0  0  0  0  0  0
  187.1120  177.9470  142.1520 C   0  0  1  0  0  3  0  0  0  0  0  0
  184.7620  177.8580  142.8770 O   0  0  0  0  0  0  0  0  0  0  0  0
  185.5490  179.9440  142.2930 O   0  0  0  0  0  1  0  0  0  0  0  0
  185.7010  178.5540  142.1930 C   0  0  1  0  0  0  0  0  0  0  0  0
  184.6590  177.8340  141.4870 N   0  0  2  0  0  0  0  0  0  0  0  0
  183.5320  178.6950  141.1440 C   0  0  0  0  0  3  0  0  0  0  0  0
  182.4750  177.8720  140.4380 C   0  0  0  0  0  2  0  0  0  0  0  0
  183.4000  178.7610  139.6360 C   0  0  0  0  0  2  0  0  0  0  0  0
  188.0160  178.6700  141.1550 C   0  0  0  0  0  2  0  0  0  0  0  0
  187.7780  178.1860  139.7280 C   0  0  0  0  0  2  0  0  0  0  0  0
  189.0470  178.2420  138.8910 C   0  0  0  0  0  2  0  0  0  0  0  0
  189.3150  176.8990  138.2350 C   0  0  0  0  0  2  0  0  0  0  0  0
  190.8910  175.0420  138.4480 O   0  0  0  0  0  0  0  0  0  0  0  0
  190.5520  176.3390  138.7470 N   0  0  0  0  0  0  0  0  0  0  0  0
  191.3810  177.0800  139.3130 O   0  0  0  0  0  0  0  0  0  0  0  0
  1 10  1  0  0  0  0
  2  7  1  6  0  0  0
  2  6  1  0  0  0  0
  4 11  1  0  0  0  0
  4  1  2  0  0  0  0
  5  3  2  0  0  0  0
  6  9  1  0  0  0  0
  8  3  1  0  0  0  0
  8 15  1  0  0  0  0
 10 15  2  0  0  0  0
 10  2  1  0  0  0  0
 11  8  2  0  0  0  0
 12  5  1  0  0  0  0
 13 12  2  0  0  0  0
 13 11  1  0  0  0  0
 14  9  2  0  0  0  0
 15 14  1  0  0  0  0
 16 24  1  6  0  0  0
 16 19  1  0  0  0  0
 16  4  1  0  0  0  0
 19 18  1  1  0  0  0
 19 17  1  0  0  0  0
 20 21  1  1  0  0  0
 20 19  1  0  0  0  0
 20 17  1  0  0  0  0
 22 21  1  0  0  0  0
 23 22  1  0  0  0  0
 23 21  1  0  0  0  0
 25 24  1  0  0  0  0
 26 25  1  0  0  0  0
 27 29  1  0  0  0  0
 27 26  1  0  0  0  0
 28 29  2  0  0  0  0
 29 30  2  0  0  0  0
M  END
>  <MODEL>
2

>  <REMARK>
 VINA RESULT:      -8.5      2.819      5.722
  Name = 
  8 active torsions:
  status: ('A' for Active; 'I' for Inactive)
    1  A    between atoms: C_4  and  C_13
    2  A    between atoms: C_7  and  N_15
    3  A    between atoms: C_7  and  C_16
    4  A    between atoms: C_8  and  C_13
    5  A    between atoms: C_9  and  N_12
    6  A    between atoms: C_13  and  C_27
    7  A    between atoms: C_16  and  C_30
    8  A    between atoms: C_27  and  C_30
                            x       y       z     vdW  Elec       q    Type
                         _______ _______ _______ _____ _____    ______ ____

>  <TORSDO>
F 8

$$$$
=
 OpenBabel10262421543D

 30 34  0  0  1  0  0  0  0  0999 V2000
  185.7760  177.6290  142.4840 N   0  0  0  0  0  0  0  0  0  0  0  0
  183.3970  178.1230  141.9160 C   0  0  1  0  0  3  0  0  0  0  0  0
  185.2420  178.7480  146.4920 N   0  0  0  0  0  0  0  0  0  0  0  0
  186.8320  177.5220  143.3340 C   0  0  0  0  0  0  0  0  0  0  0  0
  186.2870  178.5880  147.4520 C   0  0  0  0  0  3  0  0  0  0  0  0
  182.3980  179.2290  142.2710 C   0  0  0  0  0  2  0  0  0  0  0  0
  183.8480  178.3120  140.4770 C   0  0  0  0  0  1  0  0  0  0  0  0
  185.4290  178.3880  145.1190 C   0  0  0  0  0  0  0  0  0  0  0  0
  182.0960  179.2600  143.7430 C   0  0  0  0  0  3  0  0  0  0  0  0
  184.5670  178.1160  142.8730 C   0  0  0  0  0  0  0  0  0  0  0  0
  186.6810  177.9100  144.6870 C   0  0  0  0  0  0  0  0  0  0  0  0
  187.4900  178.1530  147.0840 C   0  0  0  0  0  3  0  0  0  0  0  0
  187.8390  177.8350  145.6560 C   0  0  0  0  0  3  0  0  0  0  0  0
  183.0360  178.9600  144.6430 C   0  0  0  0  0  3  0  0  0  0  0  0
  184.3680  178.4930  144.2120 C   0  0  0  0  0  0  0  0  0  0  0  0
  188.1280  176.9960  142.7620 C   0  0  1  0  0  3  0  0  0  0  0  0
  187.9820  178.5280  140.8420 O   0  0  0  0  0  0  0  0  0  0  0  0
  189.9040  178.6870  142.1040 O   0  0  0  0  0  1  0  0  0  0  0  0
  188.8010  177.9100  141.7270 C   0  0  1  0  0  0  0  0  0  0  0  0
  188.7510  177.4780  140.3430 N   0  0  2  0  0  0  0  0  0  0  0  0
  189.8040  178.0860  139.5390 C   0  0  0  0  0  3  0  0  0  0  0  0
  189.2140  178.5750  138.2330 C   0  0  0  0  0  2  0  0  0  0  0  0
  189.9920  177.2780  138.2720 C   0  0  0  0  0  2  0  0  0  0  0  0
  189.1170  176.5020  143.8170 C   0  0  0  0  0  2  0  0  0  0  0  0
  190.2700  175.7290  143.1860 C   0  0  0  0  0  2  0  0  0  0  0  0
  191.5710  175.9250  143.9510 C   0  0  0  0  0  2  0  0  0  0  0  0
  191.4110  177.0000  145.0110 C   0  0  0  0  0  2  0  0  0  0  0  0
  192.4010  175.3450  146.5150 O   0  0  0  0  0  0  0  0  0  0  0  0
  191.5580  176.4140  146.3310 N   0  0  0  0  0  0  0  0  0  0  0  0
  191.0520  176.9810  147.3210 O   0  0  0  0  0  0  0  0  0  0  0  0
  1 10  2  0  0  0  0
  1  4  1  0  0  0  0
  2  7  1  6  0  0  0
  2  6  1  0  0  0  0
  2 10  1  0  0  0  0
  3  5  2  0  0  0  0
  4 11  2  0  0  0  0
  6  9  1  0  0  0  0
  8  3  1  0  0  0  0
  9 14  2  0  0  0  0
 10 15  1  0  0  0  0
 11  8  1  0  0  0  0
 11 13  1  0  0  0  0
 12  5  1  0  0  0  0
 13 12  2  0  0  0  0
 15 14  1  0  0  0  0
 15  8  2  0  0  0  0
 16  4  1  0  0  0  0
 16 24  1  1  0  0  0
 17 19  1  0  0  0  0
 19 18  1  1  0  0  0
 19 16  1  0  0  0  0
 20 21  1  6  0  0  0
 20 17  1  0  0  0  0
 20 19  1  0  0  0  0
 22 23  1  0  0  0  0
 22 21  1  0  0  0  0
 23 21  1  0  0  0  0
 25 24  1  0  0  0  0
 25 26  1  0  0  0  0
 26 27  1  0  0  0  0
 27 29  1  0  0  0  0
 29 28  2  0  0  0  0
 29 30  2  0  0  0  0
M  END
>  <MODEL>
3

>  <REMARK>
 VINA RESULT:      -8.5      1.387      1.796
  Name = 
  8 active torsions:
  status: ('A' for Active; 'I' for Inactive)
    1  A    between atoms: C_4  and  C_13
    2  A    between atoms: C_7  and  N_15
    3  A    between atoms: C_7  and  C_16
    4  A    between atoms: C_8  and  C_13
    5  A    between atoms: C_9  and  N_12
    6  A    between atoms: C_13  and  C_27
    7  A    between atoms: C_16  and  C_30
    8  A    between atoms: C_27  and  C_30
                            x       y       z     vdW  Elec       q    Type
                         _______ _______ _______ _____ _____    ______ ____

>  <TORSDO>
F 8

$$$$
=
 OpenBabel10262421543D

 30 34  0  0  1  0  0  0  0  0999 V2000
  187.8290  178.1720  144.1800 N   0  0  0  0  0  0  0  0  0  0  0  0
  186.3820  178.4790  146.1900 C   0  0  1  0  0  3  0  0  0  0  0  0
  184.6320  178.8490  141.5490 N   0  0  0  0  0  0  0  0  0  0  0  0
  188.0740  178.1520  142.8430 C   0  0  0  0  0  0  0  0  0  0  0  0
  184.8360  178.9170  140.1370 C   0  0  0  0  0  3  0  0  0  0  0  0
  184.9630  178.0530  146.5880 C   0  0  0  0  0  2  0  0  0  0  0  0
  187.3820  177.6320  146.9590 C   0  0  0  0  0  1  0  0  0  0  0  0
  185.7180  178.5950  142.4480 C   0  0  0  0  0  0  0  0  0  0  0  0
  183.9230  178.6660  145.6930 C   0  0  0  0  0  3  0  0  0  0  0  0
  186.5860  178.3670  144.6960 C   0  0  0  0  0  0  0  0  0  0  0  0
  187.0080  178.3610  141.9350 C   0  0  0  0  0  0  0  0  0  0  0  0
  186.0360  178.6870  139.6090 C   0  0  0  0  0  3  0  0  0  0  0  0
  187.2340  178.3160  140.4410 C   0  0  0  0  0  3  0  0  0  0  0  0
  184.1680  178.8730  144.3970 C   0  0  0  0  0  3  0  0  0  0  0  0
  185.5030  178.5980  143.8310 C   0  0  0  0  0  0  0  0  0  0  0  0
  189.4970  177.8910  142.4060 C   0  0  1  0  0  3  0  0  0  0  0  0
  191.6010  177.1720  143.4590 O   0  0  0  0  0  0  0  0  0  0  0  0
  190.8940  179.3000  143.9910 O   0  0  0  0  0  1  0  0  0  0  0  0
  190.5520  178.0270  143.5140 C   0  0  1  0  0  0  0  0  0  0  0  0
  190.6570  176.9290  144.4550 N   0  0  2  0  0  0  0  0  0  0  0  0
  191.2710  177.3390  145.7120 C   0  0  0  0  0  3  0  0  0  0  0  0
  191.9560  176.1460  146.3440 C   0  0  0  0  0  2  0  0  0  0  0  0
  190.6060  176.5990  146.8540 C   0  0  0  0  0  2  0  0  0  0  0  0
  189.6730  176.6030  141.6030 C   0  0  0  0  0  2  0  0  0  0  0  0
  190.5720  176.8170  140.3900 C   0  0  0  0  0  2  0  0  0  0  0  0
  189.8660  176.4610  139.0900 C   0  0  0  0  0  2  0  0  0  0  0  0
  190.2460  177.4370  137.9900 C   0  0  0  0  0  2  0  0  0  0  0  0
  189.0340  179.4840  137.4260 O   0  0  0  0  0  0  0  0  0  0  0  0
  189.0590  178.1120  137.4990 N   0  0  0  0  0  0  0  0  0  0  0  0
  188.1320  177.4480  136.9920 O   0  0  0  0  0  0  0  0  0  0  0  0
  1 10  1  0  0  0  0
  2  6  1  0  0  0  0
  2  7  1  1  0  0  0
  3  8  1  0  0  0  0
  4  1  2  0  0  0  0
  5  3  2  0  0  0  0
  8 15  1  0  0  0  0
  9  6  1  0  0  0  0
 10  2  1  0  0  0  0
 11  8  2  0  0  0  0
 11  4  1  0  0  0  0
 12  5  1  0  0  0  0
 12 13  2  0  0  0  0
 13 11  1  0  0  0  0
 14  9  2  0  0  0  0
 15 14  1  0  0  0  0
 15 10  2  0  0  0  0
 16 24  1  1  0  0  0
 16  4  1  0  0  0  0
 16 19  1  0  0  0  0
 17 19  1  0  0  0  0
 17 20  1  0  0  0  0
 19 18  1  1  0  0  0
 19 20  1  0  0  0  0
 20 21  1  1  0  0  0
 21 22  1  0  0  0  0
 21 23  1  0  0  0  0
 22 23  1  0  0  0  0
 25 24  1  0  0  0  0
 26 25  1  0  0  0  0
 27 26  1  0  0  0  0
 28 29  2  0  0  0  0
 29 27  1  0  0  0  0
 30 29  2  0  0  0  0
M  END
>  <MODEL>
4

>  <REMARK>
 VINA RESULT:      -8.3      2.122      5.952
  Name = 
  8 active torsions:
  status: ('A' for Active; 'I' for Inactive)
    1  A    between atoms: C_4  and  C_13
    2  A    between atoms: C_7  and  N_15
    3  A    between atoms: C_7  and  C_16
    4  A    between atoms: C_8  and  C_13
    5  A    between atoms: C_9  and  N_12
    6  A    between atoms: C_13  and  C_27
    7  A    between atoms: C_16  and  C_30
    8  A    between atoms: C_27  and  C_30
                            x       y       z     vdW  Elec       q    Type
                         _______ _______ _______ _____ _____    ______ ____

>  <TORSDO>
F 8

$$$$
=
 OpenBabel10262421543D

 30 34  0  0  1  0  0  0  0  0999 V2000
  186.8100  177.8610  144.5550 N   0  0  0  0  0  0  0  0  0  0  0  0
  187.8120  177.4510  146.8020 C   0  0  1  0  0  3  0  0  0  0  0  0
  190.4410  177.1030  142.5940 N   0  0  0  0  0  0  0  0  0  0  0  0
  186.8380  177.9200  143.1960 C   0  0  0  0  0  0  0  0  0  0  0  0
  190.5210  177.0740  141.1690 C   0  0  0  0  0  3  0  0  0  0  0  0
  189.1370  177.8060  147.4870 C   0  0  0  0  0  2  0  0  0  0  0  0
  186.7110  178.3220  147.3810 C   0  0  0  0  0  1  0  0  0  0  0  0
  189.2070  177.3840  143.2660 C   0  0  0  0  0  0  0  0  0  0  0  0
  190.3110  177.1690  146.8000 C   0  0  0  0  0  3  0  0  0  0  0  0
  187.9160  177.6020  145.3020 C   0  0  0  0  0  0  0  0  0  0  0  0
  188.0560  177.6850  142.5140 C   0  0  0  0  0  0  0  0  0  0  0  0
  189.4610  177.3660  140.4190 C   0  0  0  0  0  3  0  0  0  0  0  0
  188.1360  177.7710  141.0060 C   0  0  0  0  0  3  0  0  0  0  0  0
  190.3240  177.0000  145.4760 C   0  0  0  0  0  3  0  0  0  0  0  0
  189.1410  177.3430  144.6630 C   0  0  0  0  0  0  0  0  0  0  0  0
  185.5420  178.2500  142.4920 C   0  0  1  0  0  3  0  0  0  0  0  0
  183.9290  178.1040  144.3440 O   0  0  0  0  0  0  0  0  0  0  0  0
  184.5910  180.2330  143.7620 O   0  0  0  0  0  1  0  0  0  0  0  0
  184.4650  178.8900  143.3800 C   0  0  1  0  0  0  0  0  0  0  0  0
  183.1160  178.3760  143.2450 N   0  0  2  0  0  0  0  0  0  0  0  0
  182.1140  179.3330  143.7010 C   0  0  0  0  0  3  0  0  0  0  0  0
  180.8220  178.5990  143.9920 C   0  0  0  0  0  2  0  0  0  0  0  0
  180.9760  179.3740  142.7020 C   0  0  0  0  0  2  0  0  0  0  0  0
  185.7260  179.0090  141.1790 C   0  0  0  0  0  2  0  0  0  0  0  0
  184.5880  178.7270  140.2040 C   0  0  0  0  0  2  0  0  0  0  0  0
  184.9690  179.0690  138.7710 C   0  0  0  0  0  2  0  0  0  0  0  0
  185.2710  177.8080  137.9820 C   0  0  0  0  0  2  0  0  0  0  0  0
  187.4280  178.9020  137.6240 O   0  0  0  0  0  0  0  0  0  0  0  0
  186.6890  177.7460  137.6770 N   0  0  0  0  0  0  0  0  0  0  0  0
  187.2650  176.6400  137.6290 O   0  0  0  0  0  0  0  0  0  0  0  0
  1 10  1  0  0  0  0
  2  7  1  1  0  0  0
  2  6  1  0  0  0  0
  3  8  1  0  0  0  0
  4  1  2  0  0  0  0
  5  3  2  0  0  0  0
  8 15  1  0  0  0  0
  9  6  1  0  0  0  0
 10  2  1  0  0  0  0
 11  4  1  0  0  0  0
 11  8  2  0  0  0  0
 12 13  2  0  0  0  0
 12  5  1  0  0  0  0
 13 11  1  0  0  0  0
 14  9  2  0  0  0  0
 15 10  2  0  0  0  0
 15 14  1  0  0  0  0
 16 24  1  6  0  0  0
 16  4  1  0  0  0  0
 16 19  1  0  0  0  0
 19 18  1  1  0  0  0
 19 17  1  0  0  0  0
 20 19  1  0  0  0  0
 20 21  1  1  0  0  0
 20 17  1  0  0  0  0
 21 22  1  0  0  0  0
 23 21  1  0  0  0  0
 23 22  1  0  0  0  0
 25 24  1  0  0  0  0
 26 25  1  0  0  0  0
 27 26  1  0  0  0  0
 28 29  2  0  0  0  0
 29 27  1  0  0  0  0
 30 29  2  0  0  0  0
M  END
>  <MODEL>
5

>  <REMARK>
 VINA RESULT:      -8.3      3.278      7.285
  Name = 
  8 active torsions:
  status: ('A' for Active; 'I' for Inactive)
    1  A    between atoms: C_4  and  C_13
    2  A    between atoms: C_7  and  N_15
    3  A    between atoms: C_7  and  C_16
    4  A    between atoms: C_8  and  C_13
    5  A    between atoms: C_9  and  N_12
    6  A    between atoms: C_13  and  C_27
    7  A    between atoms: C_16  and  C_30
    8  A    between atoms: C_27  and  C_30
                            x       y       z     vdW  Elec       q    Type
                         _______ _______ _______ _____ _____    ______ ____

>  <TORSDO>
F 8

$$$$
=
 OpenBabel10262421543D

 30 34  0  0  1  0  0  0  0  0999 V2000
  189.1470  177.6960  143.7470 N   0  0  0  0  0  0  0  0  0  0  0  0
  191.2840  177.1110  144.8930 C   0  0  1  0  0  3  0  0  0  0  0  0
  187.0540  177.9410  147.3750 N   0  0  0  0  0  0  0  0  0  0  0  0
  187.8310  178.0420  143.7160 C   0  0  0  0  0  0  0  0  0  0  0  0
  185.6930  178.3730  147.4180 C   0  0  0  0  0  3  0  0  0  0  0  0
  191.6810  176.2050  146.0650 C   0  0  0  0  0  2  0  0  0  0  0  0
  191.7260  176.4570  143.5950 C   0  0  0  0  0  1  0  0  0  0  0  0
  187.7640  177.8350  146.1360 C   0  0  0  0  0  0  0  0  0  0  0  0
  191.0620  176.6580  147.3570 C   0  0  0  0  0  3  0  0  0  0  0  0
  189.7990  177.3940  144.9010 C   0  0  0  0  0  0  0  0  0  0  0  0
  187.1010  178.1140  144.9250 C   0  0  0  0  0  0  0  0  0  0  0  0
  185.0240  178.6330  146.2970 C   0  0  0  0  0  3  0  0  0  0  0  0
  185.6300  178.4650  144.9300 C   0  0  0  0  0  3  0  0  0  0  0  0
  189.8450  177.2050  147.3820 C   0  0  0  0  0  3  0  0  0  0  0  0
  189.1160  177.4730  146.1270 C   0  0  0  0  0  0  0  0  0  0  0  0
  187.2230  178.3210  142.3610 C   0  0  1  0  0  3  0  0  0  0  0  0
  188.8510  178.9770  140.6370 O   0  0  0  0  0  0  0  0  0  0  0  0
  188.7660  176.7270  141.1250 O   0  0  0  0  0  1  0  0  0  0  0  0
  188.1170  177.9680  141.1620 C   0  0  1  0  0  0  0  0  0  0  0  0
  187.7570  178.5530  139.8840 N   0  0  2  0  0  0  0  0  0  0  0  0
  188.2990  177.7970  138.7610 C   0  0  0  0  0  3  0  0  0  0  0  0
  189.0790  178.7320  137.8620 C   0  0  0  0  0  2  0  0  0  0  0  0
  187.6810  178.3050  137.4760 C   0  0  0  0  0  2  0  0  0  0  0  0
  185.8040  177.7790  142.1940 C   0  0  0  0  0  2  0  0  0  0  0  0
  184.8250  178.8820  141.8070 C   0  0  0  0  0  2  0  0  0  0  0  0
  183.4520  178.3250  141.4570 C   0  0  0  0  0  2  0  0  0  0  0  0
  182.9190  178.9740  140.1910 C   0  0  0  0  0  2  0  0  0  0  0  0
  184.4380  178.0710  138.5010 O   0  0  0  0  0  0  0  0  0  0  0  0
  183.9970  179.1460  139.2350 N   0  0  0  0  0  0  0  0  0  0  0  0
  184.4070  180.2920  138.9610 O   0  0  0  0  0  0  0  0  0  0  0  0
  1 10  1  0  0  0  0
  2  7  1  6  0  0  0
  2 10  1  0  0  0  0
  2  6  1  0  0  0  0
  3  5  1  0  0  0  0
  4  1  2  0  0  0  0
  4 11  1  0  0  0  0
  6  9  1  0  0  0  0
  8  3  2  0  0  0  0
  9 14  2  0  0  0  0
 10 15  2  0  0  0  0
 11 13  2  0  0  0  0
 11  8  1  0  0  0  0
 12  5  2  0  0  0  0
 13 12  1  0  0  0  0
 15  8  1  0  0  0  0
 15 14  1  0  0  0  0
 16 24  1  6  0  0  0
 16  4  1  0  0  0  0
 17 19  1  0  0  0  0
 19 18  1  6  0  0  0
 19 16  1  0  0  0  0
 20 21  1  6  0  0  0
 20 17  1  0  0  0  0
 20 19  1  0  0  0  0
 22 21  1  0  0  0  0
 23 22  1  0  0  0  0
 23 21  1  0  0  0  0
 25 24  1  0  0  0  0
 26 25  1  0  0  0  0
 27 26  1  0  0  0  0
 28 29  2  0  0  0  0
 29 27  1  0  0  0  0
 30 29  2  0  0  0  0
M  END
>  <MODEL>
6

>  <REMARK>
 VINA RESULT:      -8.2      2.556      6.223
  Name = 
  8 active torsions:
  status: ('A' for Active; 'I' for Inactive)
    1  A    between atoms: C_4  and  C_13
    2  A    between atoms: C_7  and  N_15
    3  A    between atoms: C_7  and  C_16
    4  A    between atoms: C_8  and  C_13
    5  A    between atoms: C_9  and  N_12
    6  A    between atoms: C_13  and  C_27
    7  A    between atoms: C_16  and  C_30
    8  A    between atoms: C_27  and  C_30
                            x       y       z     vdW  Elec       q    Type
                         _______ _______ _______ _____ _____    ______ ____

>  <TORSDO>
F 8

$$$$
=
 OpenBabel10262421543D

 30 34  0  0  1  0  0  0  0  0999 V2000
  189.2250  177.2160  141.4800 N   0  0  0  0  0  0  0  0  0  0  0  0
  190.2160  177.0000  139.2000 C   0  0  1  0  0  3  0  0  0  0  0  0
  185.6600  178.8380  139.9760 N   0  0  0  0  0  0  0  0  0  0  0  0
  188.2310  177.5220  142.3560 C   0  0  0  0  0  0  0  0  0  0  0  0
  184.5500  179.1100  140.8330 C   0  0  0  0  0  3  0  0  0  0  0  0
  190.2470  177.8690  137.9370 C   0  0  0  0  0  2  0  0  0  0  0  0
  191.5830  177.0450  139.8610 C   0  0  0  0  0  1  0  0  0  0  0  0
  186.8860  178.3060  140.4900 C   0  0  0  0  0  0  0  0  0  0  0  0
  188.8730  178.0760  137.3660 C   0  0  0  0  0  3  0  0  0  0  0  0
  189.1230  177.4480  140.1440 C   0  0  0  0  0  0  0  0  0  0  0  0
  187.0260  178.0860  141.8740 C   0  0  0  0  0  0  0  0  0  0  0  0
  184.6440  178.9300  142.1490 C   0  0  0  0  0  3  0  0  0  0  0  0
  185.9090  178.4680  142.8190 C   0  0  0  0  0  3  0  0  0  0  0  0
  187.8060  178.1780  138.1630 C   0  0  0  0  0  3  0  0  0  0  0  0
  187.9360  177.9880  139.6210 C   0  0  0  0  0  0  0  0  0  0  0  0
  188.4900  177.2430  143.8180 C   0  0  1  0  0  3  0  0  0  0  0  0
  190.8190  176.4500  143.8000 O   0  0  0  0  0  0  0  0  0  0  0  0
  190.5220  178.6630  144.3680 O   0  0  0  0  0  1  0  0  0  0  0  0
  189.9550  177.3860  144.2580 C   0  0  1  0  0  0  0  0  0  0  0  0
  190.4740  176.3640  145.1480 N   0  0  2  0  0  0  0  0  0  0  0  0
  191.6340  176.8280  145.9000 C   0  0  0  0  0  3  0  0  0  0  0  0
  192.1990  175.6750  146.7020 C   0  0  0  0  0  2  0  0  0  0  0  0
  191.3410  176.7180  147.3820 C   0  0  0  0  0  2  0  0  0  0  0  0
  187.5350  177.9660  144.7670 C   0  0  0  0  0  2  0  0  0  0  0  0
  187.7540  177.5420  146.2150 C   0  0  0  0  0  2  0  0  0  0  0  0
  186.8270  178.2790  147.1700 C   0  0  0  0  0  2  0  0  0  0  0  0
  185.9250  179.2350  146.4080 C   0  0  0  0  0  2  0  0  0  0  0  0
  183.6460  179.1490  145.5260 O   0  0  0  0  0  0  0  0  0  0  0  0
  184.5480  178.7870  146.4970 N   0  0  0  0  0  0  0  0  0  0  0  0
  184.2240  177.9440  147.3590 O   0  0  0  0  0  0  0  0  0  0  0  0
  1  4  1  0  0  0  0
  2  7  1  1  0  0  0
  2 10  1  0  0  0  0
  3  8  1  0  0  0  0
  3  5  2  0  0  0  0
  4 16  1  0  0  0  0
  5 12  1  0  0  0  0
  6  2  1  0  0  0  0
  8 11  1  0  0  0  0
  9  6  1  0  0  0  0
  9 14  2  0  0  0  0
 10  1  2  0  0  0  0
 11  4  2  0  0  0  0
 11 13  1  0  0  0  0
 12 13  2  0  0  0  0
 14 15  1  0  0  0  0
 15 10  1  0  0  0  0
 15  8  2  0  0  0  0
 16 19  1  0  0  0  0
 16 24  1  1  0  0  0
 17 19  1  0  0  0  0
 17 20  1  0  0  0  0
 19 18  1  1  0  0  0
 19 20  1  0  0  0  0
 20 21  1  1  0  0  0
 21 22  1  0  0  0  0
 21 23  1  0  0  0  0
 22 23  1  0  0  0  0
 24 25  1  0  0  0  0
 25 26  1  0  0  0  0
 27 29  1  0  0  0  0
 27 26  1  0  0  0  0
 28 29  2  0  0  0  0
 29 30  2  0  0  0  0
M  END
>  <MODEL>
7

>  <REMARK>
 VINA RESULT:      -8.0      2.467      6.369
  Name = 
  8 active torsions:
  status: ('A' for Active; 'I' for Inactive)
    1  A    between atoms: C_4  and  C_13
    2  A    between atoms: C_7  and  N_15
    3  A    between atoms: C_7  and  C_16
    4  A    between atoms: C_8  and  C_13
    5  A    between atoms: C_9  and  N_12
    6  A    between atoms: C_13  and  C_27
    7  A    between atoms: C_16  and  C_30
    8  A    between atoms: C_27  and  C_30
                            x       y       z     vdW  Elec       q    Type
                         _______ _______ _______ _____ _____    ______ ____

>  <TORSDO>
F 8

$$$$
=
 OpenBabel10262421543D

 30 34  0  0  1  0  0  0  0  0999 V2000
  187.1070  178.5790  140.2320 N   0  0  0  0  0  0  0  0  0  0  0  0
  189.0500  178.3330  138.6870 C   0  0  1  0  0  3  0  0  0  0  0  0
  189.2960  177.1400  143.5090 N   0  0  0  0  0  0  0  0  0  0  0  0
  186.4960  178.5210  141.4460 C   0  0  0  0  0  0  0  0  0  0  0  0
  188.7390  177.1250  144.8240 C   0  0  0  0  0  3  0  0  0  0  0  0
  190.1450  177.2820  138.4700 C   0  0  0  0  0  2  0  0  0  0  0  0
  188.0500  178.2430  137.5470 C   0  0  0  0  0  1  0  0  0  0  0  0
  188.5430  177.6100  142.3850 C   0  0  0  0  0  0  0  0  0  0  0  0
  191.0310  177.1390  139.6740 C   0  0  0  0  0  3  0  0  0  0  0  0
  188.3840  178.1570  140.0320 C   0  0  0  0  0  0  0  0  0  0  0  0
  187.2090  178.0230  142.5620 C   0  0  0  0  0  0  0  0  0  0  0  0
  187.4770  177.4940  145.0340 C   0  0  0  0  0  3  0  0  0  0  0  0
  186.5560  177.9150  143.9210 C   0  0  0  0  0  3  0  0  0  0  0  0
  190.5400  177.2770  140.9080 C   0  0  0  0  0  3  0  0  0  0  0  0
  189.1340  177.6740  141.1180 C   0  0  0  0  0  0  0  0  0  0  0  0
  185.0620  178.9930  141.5200 C   0  0  1  0  0  3  0  0  0  0  0  0
  183.0450  178.6150  140.1630 O   0  0  0  0  0  0  0  0  0  0  0  0
  184.5560  180.1280  139.3050 O   0  0  0  0  0  1  0  0  0  0  0  0
  184.3270  179.0520  140.1720 C   0  0  1  0  0  0  0  0  0  0  0  0
  183.9850  177.7820  139.5590 N   0  0  2  0  0  0  0  0  0  0  0  0
  183.7790  177.9050  138.1200 C   0  0  0  0  0  3  0  0  0  0  0  0
  183.0180  176.6950  137.6220 C   0  0  0  0  0  2  0  0  0  0  0  0
  184.5130  176.7840  137.4160 C   0  0  0  0  0  2  0  0  0  0  0  0
  184.2330  178.2910  142.5930 C   0  0  0  0  0  2  0  0  0  0  0  0
  183.5910  179.2900  143.5500 C   0  0  0  0  0  2  0  0  0  0  0  0
  182.2500  178.7960  144.0730 C   0  0  0  0  0  2  0  0  0  0  0  0
  181.1340  179.1540  143.1080 C   0  0  0  0  0  2  0  0  0  0  0  0
  179.6350  177.4970  142.1150 O   0  0  0  0  0  0  0  0  0  0  0  0
  180.0550  178.1910  143.2240 N   0  0  0  0  0  0  0  0  0  0  0  0
  179.6250  177.8730  144.3520 O   0  0  0  0  0  0  0  0  0  0  0  0
  1  4  1  0  0  0  0
  2  7  1  6  0  0  0
  2 10  1  0  0  0  0
  3  5  2  0  0  0  0
  4 16  1  0  0  0  0
  4 11  2  0  0  0  0
  5 12  1  0  0  0  0
  6  2  1  0  0  0  0
  6  9  1  0  0  0  0
  8 11  1  0  0  0  0
  8  3  1  0  0  0  0
  9 14  2  0  0  0  0
 10  1  2  0  0  0  0
 10 15  1  0  0  0  0
 11 13  1  0  0  0  0
 13 12  2  0  0  0  0
 14 15  1  0  0  0  0
 15  8  2  0  0  0  0
 16 24  1  1  0  0  0
 17 19  1  0  0  0  0
 19 18  1  6  0  0  0
 19 16  1  0  0  0  0
 20 21  1  6  0  0  0
 20 17  1  0  0  0  0
 20 19  1  0  0  0  0
 22 21  1  0  0  0  0
 23 22  1  0  0  0  0
 23 21  1  0  0  0  0
 24 25  1  0  0  0  0
 25 26  1  0  0  0  0
 27 29  1  0  0  0  0
 27 26  1  0  0  0  0
 28 29  2  0  0  0  0
 29 30  2  0  0  0  0
M  END
>  <MODEL>
8

>  <REMARK>
 VINA RESULT:      -7.9      4.300      7.389
  Name = 
  8 active torsions:
  status: ('A' for Active; 'I' for Inactive)
    1  A    between atoms: C_4  and  C_13
    2  A    between atoms: C_7  and  N_15
    3  A    between atoms: C_7  and  C_16
    4  A    between atoms: C_8  and  C_13
    5  A    between atoms: C_9  and  N_12
    6  A    between atoms: C_13  and  C_27
    7  A    between atoms: C_16  and  C_30
    8  A    between atoms: C_27  and  C_30
                            x       y       z     vdW  Elec       q    Type
                         _______ _______ _______ _____ _____    ______ ____

>  <TORSDO>
F 8

$$$$
=
 OpenBabel10262421543D

 30 34  0  0  1  0  0  0  0  0999 V2000
  186.6890  178.0090  144.8160 N   0  0  0  0  0  0  0  0  0  0  0  0
  187.4030  177.7260  147.1900 C   0  0  1  0  0  3  0  0  0  0  0  0
  190.4610  176.8940  143.3580 N   0  0  0  0  0  0  0  0  0  0  0  0
  186.8750  177.9560  143.4700 C   0  0  0  0  0  0  0  0  0  0  0  0
  190.7010  176.7450  141.9570 C   0  0  0  0  0  3  0  0  0  0  0  0
  188.6620  178.0610  147.9980 C   0  0  0  0  0  2  0  0  0  0  0  0
  186.3020  178.7020  147.5700 C   0  0  0  0  0  1  0  0  0  0  0  0
  189.1810  177.2960  143.8570 C   0  0  0  0  0  0  0  0  0  0  0  0
  189.8630  177.3050  147.5030 C   0  0  0  0  0  3  0  0  0  0  0  0
  187.6850  177.7500  145.7050 C   0  0  0  0  0  0  0  0  0  0  0  0
  188.1440  177.5990  142.9550 C   0  0  0  0  0  0  0  0  0  0  0  0
  189.7530  177.0340  141.0690 C   0  0  0  0  0  3  0  0  0  0  0  0
  188.3990  177.5590  141.4650 C   0  0  0  0  0  3  0  0  0  0  0  0
  190.0140  177.0290  146.2050 C   0  0  0  0  0  3  0  0  0  0  0  0
  188.9550  177.3720  145.2360 C   0  0  0  0  0  0  0  0  0  0  0  0
  185.6910  178.3010  142.5960 C   0  0  1  0  0  3  0  0  0  0  0  0
  183.8130  178.1050  144.1740 O   0  0  0  0  0  0  0  0  0  0  0  0
  184.5720  180.2460  143.7860 O   0  0  0  0  0  1  0  0  0  0  0  0
  184.4960  178.9210  143.3360 C   0  0  1  0  0  0  0  0  0  0  0  0
  183.1790  178.4300  142.9760 N   0  0  2  0  0  0  0  0  0  0  0  0
  182.1270  179.3820  143.3130 C   0  0  0  0  0  3  0  0  0  0  0  0
  180.8730  178.6230  143.6940 C   0  0  0  0  0  2  0  0  0  0  0  0
  180.9930  179.2410  142.3190 C   0  0  0  0  0  2  0  0  0  0  0  0
  186.0560  179.0890  141.3390 C   0  0  0  0  0  2  0  0  0  0  0  0
  185.3060  178.5730  140.1160 C   0  0  0  0  0  2  0  0  0  0  0  0
  184.2240  179.5420  139.6620 C   0  0  0  0  0  2  0  0  0  0  0  0
  183.1410  178.8110  138.8880 C   0  0  0  0  0  2  0  0  0  0  0  0
  182.1930  181.0350  138.5200 O   0  0  0  0  0  0  0  0  0  0  0  0
  181.9990  179.6860  138.6950 N   0  0  0  0  0  0  0  0  0  0  0  0
  180.8650  179.1960  138.5230 O   0  0  0  0  0  0  0  0  0  0  0  0
  1 10  1  0  0  0  0
  2  7  1  6  0  0  0
  2  6  1  0  0  0  0
  3  8  1  0  0  0  0
  4  1  2  0  0  0  0
  5  3  2  0  0  0  0
  8 15  1  0  0  0  0
  9  6  1  0  0  0  0
 10  2  1  0  0  0  0
 11  4  1  0  0  0  0
 11  8  2  0  0  0  0
 12 13  2  0  0  0  0
 12  5  1  0  0  0  0
 13 11  1  0  0  0  0
 14  9  2  0  0  0  0
 15 10  2  0  0  0  0
 15 14  1  0  0  0  0
 16 24  1  6  0  0  0
 16 19  1  0  0  0  0
 16  4  1  0  0  0  0
 19 18  1  1  0  0  0
 19 17  1  0  0  0  0
 20 21  1  1  0  0  0
 20 19  1  0  0  0  0
 20 17  1  0  0  0  0
 21 22  1  0  0  0  0
 23 21  1  0  0  0  0
 23 22  1  0  0  0  0
 25 24  1  0  0  0  0
 26 25  1  0  0  0  0
 27 26  1  0  0  0  0
 28 29  2  0  0  0  0
 29 27  1  0  0  0  0
 30 29  2  0  0  0  0
M  END
>  <MODEL>
9

>  <REMARK>
 VINA RESULT:      -7.9      3.605      7.781
  Name = 
  8 active torsions:
  status: ('A' for Active; 'I' for Inactive)
    1  A    between atoms: C_4  and  C_13
    2  A    between atoms: C_7  and  N_15
    3  A    between atoms: C_7  and  C_16
    4  A    between atoms: C_8  and  C_13
    5  A    between atoms: C_9  and  N_12
    6  A    between atoms: C_13  and  C_27
    7  A    between atoms: C_16  and  C_30
    8  A    between atoms: C_27  and  C_30
                            x       y       z     vdW  Elec       q    Type
                         _______ _______ _______ _____ _____    ______ ____

>  <TORSDO>
F 8

$$$$
