=
 OpenBabel10262420503D

 28 30  0  0  1  0  0  0  0  0999 V2000
  187.3260  177.6390  143.3250 C   0  0  0  0  0  0  0  0  0  0  0  0
  183.2300  179.1550  145.3520 O   0  0  0  0  0  0  0  0  0  0  0  0
  183.8800  178.1590  141.8870 C   0  0  1  0  0  3  0  0  0  0  0  0
  181.8450  178.6650  143.0540 O   0  0  0  0  0  1  0  0  0  0  0  0
  185.2570  178.3620  144.3970 C   0  0  0  0  0  0  0  0  0  0  0  0
  185.3940  178.3750  141.8750 C   0  0  0  0  0  2  0  0  0  0  0  0
  187.1580  177.6890  145.7460 C   0  0  0  0  0  3  0  0  0  0  0  0
  183.8590  178.8400  144.3050 C   0  0  0  0  0  0  0  0  0  0  0  0
  185.8460  178.1550  145.6500 C   0  0  0  0  0  3  0  0  0  0  0  0
  183.1960  179.0140  142.9640 C   0  0  1  0  0  3  0  0  0  0  0  0
  187.8940  177.4320  144.5900 C   0  0  0  0  0  3  0  0  0  0  0  0
  185.9960  178.0900  143.2240 C   0  0  0  0  0  0  0  0  0  0  0  0
  183.4590  179.6480  139.9450 C   0  0  0  0  0  3  0  0  0  0  0  0
  182.5900  177.3860  139.8070 C   0  0  0  0  0  0  0  0  0  0  0  0
  182.2350  178.9440  137.9810 C   0  0  0  0  0  0  0  0  0  0  0  0
  183.2970  178.3810  140.5190 C   0  0  0  0  0  0  0  0  0  0  0  0
  182.0650  177.6770  138.5430 C   0  0  0  0  0  3  0  0  0  0  0  0
  182.3710  176.0170  140.3620 C   0  0  0  0  0  1  0  0  0  0  0  0
  181.7110  179.2230  136.7260 O   0  0  0  0  0  1  0  0  0  0  0  0
  182.9330  179.9290  138.6820 C   0  0  0  0  0  3  0  0  0  0  0  0
  188.1360  177.3670  142.0880 C   0  0  1  0  0  3  0  0  0  0  0  0
  188.4810  178.4030  140.0190 C   0  0  0  0  0  1  0  0  0  0  0  0
  188.5610  178.6070  141.4560 N   0  0  0  0  0  2  0  0  0  0  0  0
  189.3280  176.4550  142.3690 C   0  0  0  0  0  2  0  0  0  0  0  0
  190.5240  177.1770  142.3430 O   0  0  0  0  0  0  0  0  0  0  0  0
  191.2950  176.6180  143.3630 C   0  0  0  0  0  2  0  0  0  0  0  0
  191.5080  177.6400  144.4660 C   0  0  0  0  0  2  0  0  0  0  0  0
  191.3270  179.0460  143.9230 C   0  0  0  0  0  1  0  0  0  0  0  0
  1 11  1  0  0  0  0
  3 16  1  6  0  0  0
  3 10  1  0  0  0  0
  5  9  2  0  0  0  0
  6  3  1  0  0  0  0
  6 12  1  0  0  0  0
  8  5  1  0  0  0  0
  8  2  2  0  0  0  0
  9  7  1  0  0  0  0
 10  4  1  1  0  0  0
 10  8  1  0  0  0  0
 11  7  2  0  0  0  0
 12  1  2  0  0  0  0
 12  5  1  0  0  0  0
 13 16  1  0  0  0  0
 14 18  1  0  0  0  0
 14 16  2  0  0  0  0
 15 17  2  0  0  0  0
 15 20  1  0  0  0  0
 17 14  1  0  0  0  0
 19 15  1  0  0  0  0
 20 13  2  0  0  0  0
 21 24  1  1  0  0  0
 21  1  1  0  0  0  0
 22 23  1  0  0  0  0
 23 21  1  0  0  0  0
 25 24  1  0  0  0  0
 25 26  1  0  0  0  0
 26 27  1  0  0  0  0
 28 27  1  0  0  0  0
M  END
>  <MODEL>
1

>  <REMARK>
 VINA RESULT:      -7.5      0.000      0.000
  Name = 
  7 active torsions:
  status: ('A' for Active; 'I' for Inactive)
    1  A    between atoms: C_1  and  C_2
    2  A    between atoms: C_2  and  C_3
    3  A    between atoms: C_2  and  N_11
    4  A    between atoms: C_3  and  O_7
    5  A    between atoms: C_6  and  C_22
    6  A    between atoms: O_7  and  C_22
    7  A    between atoms: C_10  and  C_13
                            x       y       z     vdW  Elec       q    Type
                         _______ _______ _______ _____ _____    ______ ____

>  <TORSDO>
F 7

$$$$
=
 OpenBabel10262420503D

 28 30  0  0  1  0  0  0  0  0999 V2000
  190.2560  177.2590  144.9720 C   0  0  0  0  0  0  0  0  0  0  0  0
  187.7320  177.8600  149.0280 O   0  0  0  0  0  0  0  0  0  0  0  0
  186.5630  177.7380  145.5580 C   0  0  1  0  0  3  0  0  0  0  0  0
  185.3820  177.7610  147.6470 O   0  0  0  0  0  1  0  0  0  0  0  0
  189.0040  177.5100  147.0500 C   0  0  0  0  0  0  0  0  0  0  0  0
  187.8780  178.1020  144.8690 C   0  0  0  0  0  2  0  0  0  0  0  0
  191.3060  176.7460  147.1000 C   0  0  0  0  0  3  0  0  0  0  0  0
  187.7550  177.8530  147.7670 C   0  0  0  0  0  0  0  0  0  0  0  0
  190.1300  177.0870  147.7680 C   0  0  0  0  0  3  0  0  0  0  0  0
  186.5210  178.2560  147.0030 C   0  0  1  0  0  3  0  0  0  0  0  0
  191.3700  176.8310  145.7100 C   0  0  0  0  0  3  0  0  0  0  0  0
  189.0610  177.5840  145.6410 C   0  0  0  0  0  0  0  0  0  0  0  0
  184.2480  178.6270  145.4410 C   0  0  0  0  0  3  0  0  0  0  0  0
  185.3740  178.2100  143.3320 C   0  0  0  0  0  0  0  0  0  0  0  0
  183.1050  179.0680  143.3560 C   0  0  0  0  0  0  0  0  0  0  0  0
  185.3860  178.2010  144.7450 C   0  0  0  0  0  0  0  0  0  0  0  0
  184.2320  178.6430  142.6490 C   0  0  0  0  0  3  0  0  0  0  0  0
  186.5490  177.7600  142.5250 C   0  0  0  0  0  1  0  0  0  0  0  0
  181.9770  179.4960  142.6700 O   0  0  0  0  0  1  0  0  0  0  0  0
  183.1140  179.0600  144.7520 C   0  0  0  0  0  3  0  0  0  0  0  0
  190.3440  177.3540  143.4740 C   0  0  1  0  0  3  0  0  0  0  0  0
  191.4120  179.4210  143.7160 C   0  0  0  0  0  1  0  0  0  0  0  0
  191.5080  178.1250  143.0640 N   0  0  0  0  0  2  0  0  0  0  0  0
  190.3290  175.9810  142.8070 C   0  0  0  0  0  2  0  0  0  0  0  0
  190.6050  176.0880  141.4410 O   0  0  0  0  0  0  0  0  0  0  0  0
  189.5830  176.8950  140.9380 C   0  0  0  0  0  2  0  0  0  0  0  0
  190.0130  177.5050  139.6160 C   0  0  0  0  0  2  0  0  0  0  0  0
  188.9610  178.4790  139.1190 C   0  0  0  0  0  1  0  0  0  0  0  0
  1 12  2  0  0  0  0
  1 11  1  0  0  0  0
  3 16  1  6  0  0  0
  3 10  1  0  0  0  0
  5  8  1  0  0  0  0
  5  9  2  0  0  0  0
  6  3  1  0  0  0  0
  6 12  1  0  0  0  0
  7  9  1  0  0  0  0
  8  2  2  0  0  0  0
 10  4  1  1  0  0  0
 10  8  1  0  0  0  0
 11  7  2  0  0  0  0
 12  5  1  0  0  0  0
 14 16  1  0  0  0  0
 15 20  2  0  0  0  0
 16 13  2  0  0  0  0
 17 14  2  0  0  0  0
 17 15  1  0  0  0  0
 18 14  1  0  0  0  0
 19 15  1  0  0  0  0
 20 13  1  0  0  0  0
 21 24  1  6  0  0  0
 21  1  1  0  0  0  0
 23 21  1  0  0  0  0
 23 22  1  0  0  0  0
 25 24  1  0  0  0  0
 26 25  1  0  0  0  0
 27 26  1  0  0  0  0
 28 27  1  0  0  0  0
M  END
>  <MODEL>
2

>  <REMARK>
 VINA RESULT:      -7.5      2.569      4.639
  Name = 
  7 active torsions:
  status: ('A' for Active; 'I' for Inactive)
    1  A    between atoms: C_1  and  C_2
    2  A    between atoms: C_2  and  C_3
    3  A    between atoms: C_2  and  N_11
    4  A    between atoms: C_3  and  O_7
    5  A    between atoms: C_6  and  C_22
    6  A    between atoms: O_7  and  C_22
    7  A    between atoms: C_10  and  C_13
                            x       y       z     vdW  Elec       q    Type
                         _______ _______ _______ _____ _____    ______ ____

>  <TORSDO>
F 7

$$$$
=
 OpenBabel10262420503D

 28 30  0  0  1  0  0  0  0  0999 V2000
  188.9740  177.4270  145.1200 C   0  0  0  0  0  0  0  0  0  0  0  0
  184.8530  178.6860  147.2670 O   0  0  0  0  0  0  0  0  0  0  0  0
  185.5300  178.0590  143.7220 C   0  0  1  0  0  3  0  0  0  0  0  0
  183.4840  178.4220  144.9230 O   0  0  0  0  0  1  0  0  0  0  0  0
  186.8930  178.0150  146.2480 C   0  0  0  0  0  0  0  0  0  0  0  0
  187.0410  178.2890  143.7420 C   0  0  0  0  0  2  0  0  0  0  0  0
  188.7930  177.2250  147.5320 C   0  0  0  0  0  3  0  0  0  0  0  0
  185.4900  178.4860  146.1980 C   0  0  0  0  0  0  0  0  0  0  0  0
  187.4780  177.6850  147.4770 C   0  0  0  0  0  3  0  0  0  0  0  0
  184.8320  178.7910  144.8780 C   0  0  1  0  0  3  0  0  0  0  0  0
  189.5380  177.0950  146.3610 C   0  0  0  0  0  3  0  0  0  0  0  0
  187.6400  177.8720  145.0580 C   0  0  0  0  0  0  0  0  0  0  0  0
  183.5580  178.3800  142.2500 C   0  0  0  0  0  3  0  0  0  0  0  0
  185.7420  178.7630  141.2620 C   0  0  0  0  0  0  0  0  0  0  0  0
  183.7340  179.0310  139.9270 C   0  0  0  0  0  0  0  0  0  0  0  0
  184.9510  178.4150  142.3810 C   0  0  0  0  0  0  0  0  0  0  0  0
  185.1250  179.0680  140.0440 C   0  0  0  0  0  3  0  0  0  0  0  0
  187.2340  178.8110  141.3290 C   0  0  0  0  0  1  0  0  0  0  0  0
  183.1320  179.3350  138.7140 O   0  0  0  0  0  1  0  0  0  0  0  0
  182.9510  178.6870  141.0300 C   0  0  0  0  0  3  0  0  0  0  0  0
  189.7930  177.2920  143.8660 C   0  0  1  0  0  3  0  0  0  0  0  0
  191.4450  178.9480  143.8800 C   0  0  0  0  0  1  0  0  0  0  0  0
  191.2030  177.5370  144.1320 N   0  0  0  0  0  2  0  0  0  0  0  0
  189.5870  175.9410  143.1870 C   0  0  0  0  0  2  0  0  0  0  0  0
  190.4220  175.8120  142.0730 O   0  0  0  0  0  0  0  0  0  0  0  0
  189.8420  176.6260  141.1000 C   0  0  0  0  0  2  0  0  0  0  0  0
  190.8380  176.8860  139.9850 C   0  0  0  0  0  2  0  0  0  0  0  0
  192.1200  177.4710  140.5490 C   0  0  0  0  0  1  0  0  0  0  0  0
  1 11  1  0  0  0  0
  3 16  1  6  0  0  0
  3  6  1  0  0  0  0
  3 10  1  0  0  0  0
  5  9  2  0  0  0  0
  6 12  1  0  0  0  0
  8  5  1  0  0  0  0
  8  2  2  0  0  0  0
  9  7  1  0  0  0  0
 10  4  1  1  0  0  0
 10  8  1  0  0  0  0
 11  7  2  0  0  0  0
 12  1  2  0  0  0  0
 12  5  1  0  0  0  0
 13 16  1  0  0  0  0
 14 18  1  0  0  0  0
 14 16  2  0  0  0  0
 15 17  2  0  0  0  0
 15 20  1  0  0  0  0
 17 14  1  0  0  0  0
 19 15  1  0  0  0  0
 20 13  2  0  0  0  0
 21 24  1  1  0  0  0
 21 23  1  0  0  0  0
 21  1  1  0  0  0  0
 22 23  1  0  0  0  0
 25 24  1  0  0  0  0
 26 25  1  0  0  0  0
 27 28  1  0  0  0  0
 27 26  1  0  0  0  0
M  END
>  <MODEL>
3

>  <REMARK>
 VINA RESULT:      -7.5      1.714      3.032
  Name = 
  7 active torsions:
  status: ('A' for Active; 'I' for Inactive)
    1  A    between atoms: C_1  and  C_2
    2  A    between atoms: C_2  and  C_3
    3  A    between atoms: C_2  and  N_11
    4  A    between atoms: C_3  and  O_7
    5  A    between atoms: C_6  and  C_22
    6  A    between atoms: O_7  and  C_22
    7  A    between atoms: C_10  and  C_13
                            x       y       z     vdW  Elec       q    Type
                         _______ _______ _______ _____ _____    ______ ____

>  <TORSDO>
F 7

$$$$
=
 OpenBabel10262420503D

 28 30  0  0  1  0  0  0  0  0999 V2000
  185.9370  178.4560  142.3550 C   0  0  0  0  0  0  0  0  0  0  0  0
  184.5550  178.4930  146.9670 O   0  0  0  0  0  0  0  0  0  0  0  0
  187.9080  178.0890  145.5480 C   0  0  1  0  0  3  0  0  0  0  0  0
  187.1490  178.3910  147.8040 O   0  0  0  0  0  1  0  0  0  0  0  0
  185.2080  178.5310  144.6820 C   0  0  0  0  0  0  0  0  0  0  0  0
  187.5020  177.6190  144.1520 C   0  0  0  0  0  2  0  0  0  0  0  0
  183.7240  179.2820  142.9160 C   0  0  0  0  0  3  0  0  0  0  0  0
  185.4720  178.3070  146.1210 C   0  0  0  0  0  0  0  0  0  0  0  0
  183.9760  179.0530  144.2680 C   0  0  0  0  0  3  0  0  0  0  0  0
  186.8120  177.7990  146.5830 C   0  0  1  0  0  3  0  0  0  0  0  0
  184.6990  178.9860  141.9640 C   0  0  0  0  0  3  0  0  0  0  0  0
  186.2020  178.2430  143.7210 C   0  0  0  0  0  0  0  0  0  0  0  0
  189.2470  176.5130  146.9200 C   0  0  0  0  0  3  0  0  0  0  0  0
  190.4660  177.9440  145.3860 C   0  0  0  0  0  0  0  0  0  0  0  0
  191.6580  176.3670  146.7930 C   0  0  0  0  0  0  0  0  0  0  0  0
  189.2400  177.5140  145.9420 C   0  0  0  0  0  0  0  0  0  0  0  0
  191.6650  177.3660  145.8170 C   0  0  0  0  0  3  0  0  0  0  0  0
  190.5340  179.0130  144.3450 C   0  0  0  0  0  1  0  0  0  0  0  0
  192.8520  175.7990  147.2140 O   0  0  0  0  0  1  0  0  0  0  0  0
  190.4480  175.9400  147.3440 C   0  0  0  0  0  3  0  0  0  0  0  0
  186.9740  178.1330  141.3160 C   0  0  1  0  0  3  0  0  0  0  0  0
  187.1090  177.7120  139.0190 C   0  0  0  0  0  1  0  0  0  0  0  0
  186.5820  178.6370  140.0090 N   0  0  0  0  0  2  0  0  0  0  0  0
  188.3600  178.6380  141.7090 C   0  0  0  0  0  2  0  0  0  0  0  0
  189.3410  178.1050  140.8670 O   0  0  0  0  0  0  0  0  0  0  0  0
  189.3720  176.7460  141.1790 C   0  0  0  0  0  2  0  0  0  0  0  0
  190.5950  176.4390  142.0240 C   0  0  0  0  0  2  0  0  0  0  0  0
  190.2570  175.4040  143.0820 C   0  0  0  0  0  1  0  0  0  0  0  0
  1 12  1  0  0  0  0
  3 16  1  1  0  0  0
  3 10  1  0  0  0  0
  5  8  1  0  0  0  0
  6  3  1  0  0  0  0
  7  9  2  0  0  0  0
  8 10  1  0  0  0  0
  8  2  2  0  0  0  0
  9  5  1  0  0  0  0
 10  4  1  1  0  0  0
 11  1  2  0  0  0  0
 11  7  1  0  0  0  0
 12  6  1  0  0  0  0
 12  5  2  0  0  0  0
 13 20  1  0  0  0  0
 14 17  2  0  0  0  0
 14 16  1  0  0  0  0
 15 19  1  0  0  0  0
 15 20  2  0  0  0  0
 16 13  2  0  0  0  0
 17 15  1  0  0  0  0
 18 14  1  0  0  0  0
 21 24  1  1  0  0  0
 21  1  1  0  0  0  0
 22 23  1  0  0  0  0
 23 21  1  0  0  0  0
 25 26  1  0  0  0  0
 25 24  1  0  0  0  0
 26 27  1  0  0  0  0
 27 28  1  0  0  0  0
M  END
>  <MODEL>
4

>  <REMARK>
 VINA RESULT:      -7.3      2.846      6.786
  Name = 
  7 active torsions:
  status: ('A' for Active; 'I' for Inactive)
    1  A    between atoms: C_1  and  C_2
    2  A    between atoms: C_2  and  C_3
    3  A    between atoms: C_2  and  N_11
    4  A    between atoms: C_3  and  O_7
    5  A    between atoms: C_6  and  C_22
    6  A    between atoms: O_7  and  C_22
    7  A    between atoms: C_10  and  C_13
                            x       y       z     vdW  Elec       q    Type
                         _______ _______ _______ _____ _____    ______ ____

>  <TORSDO>
F 7

$$$$
=
 OpenBabel10262420503D

 28 30  0  0  1  0  0  0  0  0999 V2000
  186.3230  178.4330  139.5180 C   0  0  0  0  0  0  0  0  0  0  0  0
  190.6660  176.3820  139.8610 O   0  0  0  0  0  0  0  0  0  0  0  0
  188.2440  177.1540  142.5000 C   0  0  1  0  0  3  0  0  0  0  0  0
  190.2940  175.9050  142.5210 O   0  0  0  0  0  1  0  0  0  0  0  0
  188.5050  177.3500  139.6480 C   0  0  0  0  0  0  0  0  0  0  0  0
  187.4570  178.2400  141.7670 C   0  0  0  0  0  2  0  0  0  0  0  0
  187.3950  177.6000  137.5060 C   0  0  0  0  0  3  0  0  0  0  0  0
  189.6590  176.8700  140.4420 C   0  0  0  0  0  0  0  0  0  0  0  0
  188.4850  177.1650  138.2600 C   0  0  0  0  0  3  0  0  0  0  0  0
  189.6680  177.0140  141.9420 C   0  0  1  0  0  3  0  0  0  0  0  0
  186.3200  178.2300  138.1310 C   0  0  0  0  0  3  0  0  0  0  0  0
  187.4120  177.9760  140.2850 C   0  0  0  0  0  0  0  0  0  0  0  0
  187.1170  176.9250  144.6990 C   0  0  0  0  0  3  0  0  0  0  0  0
  189.2620  178.0610  144.6740 C   0  0  0  0  0  0  0  0  0  0  0  0
  188.0520  177.7820  146.7590 C   0  0  0  0  0  0  0  0  0  0  0  0
  188.2280  177.3890  143.9840 C   0  0  0  0  0  0  0  0  0  0  0  0
  189.1640  178.2520  146.0570 C   0  0  0  0  0  3  0  0  0  0  0  0
  190.4710  178.5900  143.9740 C   0  0  0  0  0  1  0  0  0  0  0  0
  187.9640  177.9770  148.1310 O   0  0  0  0  0  1  0  0  0  0  0  0
  187.0290  177.1180  146.0800 C   0  0  0  0  0  3  0  0  0  0  0  0
  185.1600  179.1220  140.1760 C   0  0  1  0  0  3  0  0  0  0  0  0
  183.1990  179.7400  139.0610 C   0  0  0  0  0  1  0  0  0  0  0  0
  184.5810  180.1270  139.2980 N   0  0  0  0  0  2  0  0  0  0  0  0
  184.1020  178.1340  140.6580 C   0  0  0  0  0  2  0  0  0  0  0  0
  184.2690  177.8470  142.0160 O   0  0  0  0  0  0  0  0  0  0  0  0
  183.6210  178.8900  142.6790 C   0  0  0  0  0  2  0  0  0  0  0  0
  184.4710  179.3680  143.8420 C   0  0  0  0  0  2  0  0  0  0  0  0
  183.8740  178.9020  145.1570 C   0  0  0  0  0  1  0  0  0  0  0  0
  1 21  1  0  0  0  0
  1 12  1  0  0  0  0
  2  8  2  0  0  0  0
  3 16  1  1  0  0  0
  5 12  2  0  0  0  0
  5  8  1  0  0  0  0
  6  3  1  0  0  0  0
  7 11  1  0  0  0  0
  7  9  2  0  0  0  0
  8 10  1  0  0  0  0
  9  5  1  0  0  0  0
 10  3  1  0  0  0  0
 10  4  1  1  0  0  0
 11  1  2  0  0  0  0
 12  6  1  0  0  0  0
 13 20  1  0  0  0  0
 14 17  2  0  0  0  0
 15 19  1  0  0  0  0
 16 14  1  0  0  0  0
 16 13  2  0  0  0  0
 17 15  1  0  0  0  0
 18 14  1  0  0  0  0
 20 15  2  0  0  0  0
 21 24  1  6  0  0  0
 22 23  1  0  0  0  0
 23 21  1  0  0  0  0
 24 25  1  0  0  0  0
 25 26  1  0  0  0  0
 26 27  1  0  0  0  0
 27 28  1  0  0  0  0
M  END
>  <MODEL>
5

>  <REMARK>
 VINA RESULT:      -7.3      2.160      7.448
  Name = 
  7 active torsions:
  status: ('A' for Active; 'I' for Inactive)
    1  A    between atoms: C_1  and  C_2
    2  A    between atoms: C_2  and  C_3
    3  A    between atoms: C_2  and  N_11
    4  A    between atoms: C_3  and  O_7
    5  A    between atoms: C_6  and  C_22
    6  A    between atoms: O_7  and  C_22
    7  A    between atoms: C_10  and  C_13
                            x       y       z     vdW  Elec       q    Type
                         _______ _______ _______ _____ _____    ______ ____

>  <TORSDO>
F 7

$$$$
=
 OpenBabel10262420503D

 28 30  0  0  1  0  0  0  0  0999 V2000
  186.9930  178.2720  141.4560 C   0  0  0  0  0  0  0  0  0  0  0  0
  184.4610  178.2390  145.5510 O   0  0  0  0  0  0  0  0  0  0  0  0
  188.0810  177.9730  145.0540 C   0  0  1  0  0  3  0  0  0  0  0  0
  186.7510  178.2380  147.0340 O   0  0  0  0  0  1  0  0  0  0  0  0
  185.6830  178.3110  143.5130 C   0  0  0  0  0  0  0  0  0  0  0  0
  188.0700  177.4910  143.6030 C   0  0  0  0  0  2  0  0  0  0  0  0
  184.6810  179.0080  141.4170 C   0  0  0  0  0  3  0  0  0  0  0  0
  185.5730  178.0930  144.9730 C   0  0  0  0  0  0  0  0  0  0  0  0
  184.5810  178.7850  142.7900 C   0  0  0  0  0  3  0  0  0  0  0  0
  186.7650  177.6360  145.7710 C   0  0  1  0  0  3  0  0  0  0  0  0
  185.8800  178.7540  140.7530 C   0  0  0  0  0  3  0  0  0  0  0  0
  186.9030  178.0650  142.8460 C   0  0  0  0  0  0  0  0  0  0  0  0
  189.0660  176.7580  146.9810 C   0  0  0  0  0  3  0  0  0  0  0  0
  190.6110  177.6350  145.3280 C   0  0  0  0  0  0  0  0  0  0  0  0
  191.4460  176.4380  147.2660 C   0  0  0  0  0  0  0  0  0  0  0  0
  189.2860  177.4490  145.7840 C   0  0  0  0  0  0  0  0  0  0  0  0
  191.6800  177.1270  146.0740 C   0  0  0  0  0  3  0  0  0  0  0  0
  190.9200  178.3710  144.0650 C   0  0  0  0  0  1  0  0  0  0  0  0
  192.5140  175.9380  147.9990 O   0  0  0  0  0  1  0  0  0  0  0  0
  190.1390  176.2530  147.7180 C   0  0  0  0  0  3  0  0  0  0  0  0
  188.2770  177.9930  140.7240 C   0  0  1  0  0  3  0  0  0  0  0  0
  190.2680  176.7660  140.7610 C   0  0  0  0  0  1  0  0  0  0  0  0
  188.8730  176.7420  141.1680 N   0  0  0  0  0  2  0  0  0  0  0  0
  188.0920  178.0090  139.2090 C   0  0  0  0  0  2  0  0  0  0  0  0
  188.8520  179.0260  138.6250 O   0  0  0  0  0  0  0  0  0  0  0  0
  188.8650  178.7190  137.2640 C   0  0  0  0  0  2  0  0  0  0  0  0
  187.4420  178.6120  136.7470 C   0  0  0  0  0  2  0  0  0  0  0  0
  187.4160  177.8680  135.4240 C   0  0  0  0  0  1  0  0  0  0  0  0
  1 12  1  0  0  0  0
  3 10  1  0  0  0  0
  3 16  1  1  0  0  0
  5  8  1  0  0  0  0
  6  3  1  0  0  0  0
  7  9  2  0  0  0  0
  8  2  2  0  0  0  0
  8 10  1  0  0  0  0
  9  5  1  0  0  0  0
 10  4  1  1  0  0  0
 11  7  1  0  0  0  0
 11  1  2  0  0  0  0
 12  5  2  0  0  0  0
 12  6  1  0  0  0  0
 13 20  1  0  0  0  0
 14 16  1  0  0  0  0
 14 17  2  0  0  0  0
 15 20  2  0  0  0  0
 15 19  1  0  0  0  0
 16 13  2  0  0  0  0
 17 15  1  0  0  0  0
 18 14  1  0  0  0  0
 21 24  1  6  0  0  0
 21 23  1  0  0  0  0
 21  1  1  0  0  0  0
 22 23  1  0  0  0  0
 25 24  1  0  0  0  0
 26 25  1  0  0  0  0
 27 26  1  0  0  0  0
 28 27  1  0  0  0  0
M  END
>  <MODEL>
6

>  <REMARK>
 VINA RESULT:      -7.1      2.634      7.319
  Name = 
  7 active torsions:
  status: ('A' for Active; 'I' for Inactive)
    1  A    between atoms: C_1  and  C_2
    2  A    between atoms: C_2  and  C_3
    3  A    between atoms: C_2  and  N_11
    4  A    between atoms: C_3  and  O_7
    5  A    between atoms: C_6  and  C_22
    6  A    between atoms: O_7  and  C_22
    7  A    between atoms: C_10  and  C_13
                            x       y       z     vdW  Elec       q    Type
                         _______ _______ _______ _____ _____    ______ ____

>  <TORSDO>
F 7

$$$$
=
 OpenBabel10262420503D

 28 30  0  0  1  0  0  0  0  0999 V2000
  185.9020  178.0500  143.5340 C   0  0  0  0  0  0  0  0  0  0  0  0
  181.3030  179.4710  143.6730 O   0  0  0  0  0  0  0  0  0  0  0  0
  183.0830  177.6050  141.0700 C   0  0  1  0  0  3  0  0  0  0  0  0
  180.7580  178.1240  141.3640 O   0  0  0  0  0  1  0  0  0  0  0  0
  183.5660  178.7410  143.6620 C   0  0  0  0  0  0  0  0  0  0  0  0
  184.5070  178.0290  141.4290 C   0  0  0  0  0  2  0  0  0  0  0  0
  184.9600  178.7860  145.6460 C   0  0  0  0  0  3  0  0  0  0  0  0
  182.2510  178.9580  143.0170 C   0  0  0  0  0  0  0  0  0  0  0  0
  183.7280  179.0030  145.0280 C   0  0  0  0  0  3  0  0  0  0  0  0
  182.0480  178.6280  141.5620 C   0  0  1  0  0  3  0  0  0  0  0  0
  186.0410  178.3110  144.9050 C   0  0  0  0  0  3  0  0  0  0  0  0
  184.6550  178.2480  142.9100 C   0  0  0  0  0  0  0  0  0  0  0  0
  182.6810  176.0070  139.2130 C   0  0  0  0  0  3  0  0  0  0  0  0
  183.1300  178.3130  138.6040 C   0  0  0  0  0  0  0  0  0  0  0  0
  182.7320  176.6500  136.8820 C   0  0  0  0  0  0  0  0  0  0  0  0
  182.9610  177.3240  139.5990 C   0  0  0  0  0  0  0  0  0  0  0  0
  183.0140  177.9670  137.2530 C   0  0  0  0  0  3  0  0  0  0  0  0
  183.4390  179.7350  138.9420 C   0  0  0  0  0  1  0  0  0  0  0  0
  182.6190  176.3170  135.5390 O   0  0  0  0  0  1  0  0  0  0  0  0
  182.5650  175.6710  137.8630 C   0  0  0  0  0  3  0  0  0  0  0  0
  187.0790  177.5480  142.7450 C   0  0  1  0  0  3  0  0  0  0  0  0
  188.0730  178.2530  140.7490 C   0  0  0  0  0  1  0  0  0  0  0  0
  187.7990  178.6470  142.1210 N   0  0  0  0  0  2  0  0  0  0  0  0
  188.0140  176.6860  143.5900 C   0  0  0  0  0  2  0  0  0  0  0  0
  189.2090  177.3610  143.8560 O   0  0  0  0  0  0  0  0  0  0  0  0
  189.6570  176.8240  145.0630 C   0  0  0  0  0  2  0  0  0  0  0  0
  189.4170  177.8150  146.1880 C   0  0  0  0  0  2  0  0  0  0  0  0
  188.6810  177.1440  147.3330 C   0  0  0  0  0  1  0  0  0  0  0  0
  1 11  1  0  0  0  0
  3 16  1  6  0  0  0
  3  6  1  0  0  0  0
  3 10  1  0  0  0  0
  5  9  2  0  0  0  0
  6 12  1  0  0  0  0
  8  5  1  0  0  0  0
  8  2  2  0  0  0  0
  9  7  1  0  0  0  0
 10  4  1  1  0  0  0
 10  8  1  0  0  0  0
 11  7  2  0  0  0  0
 12  1  2  0  0  0  0
 12  5  1  0  0  0  0
 13 16  1  0  0  0  0
 14 18  1  0  0  0  0
 14 16  2  0  0  0  0
 15 17  2  0  0  0  0
 15 20  1  0  0  0  0
 17 14  1  0  0  0  0
 19 15  1  0  0  0  0
 20 13  2  0  0  0  0
 21  1  1  0  0  0  0
 21 24  1  1  0  0  0
 22 23  1  0  0  0  0
 23 21  1  0  0  0  0
 24 25  1  0  0  0  0
 25 26  1  0  0  0  0
 26 27  1  0  0  0  0
 27 28  1  0  0  0  0
M  END
>  <MODEL>
7

>  <REMARK>
 VINA RESULT:      -7.1      1.515      2.434
  Name = 
  7 active torsions:
  status: ('A' for Active; 'I' for Inactive)
    1  A    between atoms: C_1  and  C_2
    2  A    between atoms: C_2  and  C_3
    3  A    between atoms: C_2  and  N_11
    4  A    between atoms: C_3  and  O_7
    5  A    between atoms: C_6  and  C_22
    6  A    between atoms: O_7  and  C_22
    7  A    between atoms: C_10  and  C_13
                            x       y       z     vdW  Elec       q    Type
                         _______ _______ _______ _____ _____    ______ ____

>  <TORSDO>
F 7

$$$$
=
 OpenBabel10262420503D

 28 30  0  0  1  0  0  0  0  0999 V2000
  184.8440  178.3570  143.8270 C   0  0  0  0  0  0  0  0  0  0  0  0
  187.4740  177.5180  147.7720 O   0  0  0  0  0  0  0  0  0  0  0  0
  188.5710  178.0730  144.3210 C   0  0  1  0  0  3  0  0  0  0  0  0
  189.7870  177.9180  146.3840 O   0  0  0  0  0  1  0  0  0  0  0  0
  186.1470  177.9810  145.8550 C   0  0  0  0  0  0  0  0  0  0  0  0
  187.2710  177.6930  143.6120 C   0  0  0  0  0  2  0  0  0  0  0  0
  183.8000  178.5770  146.0070 C   0  0  0  0  0  3  0  0  0  0  0  0
  187.4280  177.6530  146.5190 C   0  0  0  0  0  0  0  0  0  0  0  0
  185.0080  178.2500  146.6240 C   0  0  0  0  0  3  0  0  0  0  0  0
  188.6730  177.4150  145.7050 C   0  0  1  0  0  3  0  0  0  0  0  0
  183.7180  178.6310  144.6160 C   0  0  0  0  0  3  0  0  0  0  0  0
  186.0700  178.0480  144.4460 C   0  0  0  0  0  0  0  0  0  0  0  0
  189.6860  176.6610  142.6110 C   0  0  0  0  0  3  0  0  0  0  0  0
  190.9410  178.5570  143.4610 C   0  0  0  0  0  0  0  0  0  0  0  0
  191.9220  177.0900  141.7960 C   0  0  0  0  0  0  0  0  0  0  0  0
  189.7620  177.7770  143.4520 C   0  0  0  0  0  0  0  0  0  0  0  0
  192.0110  178.2060  142.6310 C   0  0  0  0  0  3  0  0  0  0  0  0
  191.0940  179.7550  144.3390 C   0  0  0  0  0  1  0  0  0  0  0  0
  192.9900  176.7500  140.9770 O   0  0  0  0  0  1  0  0  0  0  0  0
  190.7590  176.3180  141.7860 C   0  0  0  0  0  3  0  0  0  0  0  0
  184.7370  178.4100  142.3280 C   0  0  1  0  0  3  0  0  0  0  0  0
  183.0200  177.7730  140.8730 C   0  0  0  0  0  1  0  0  0  0  0  0
  183.3800  178.7260  141.9100 N   0  0  0  0  0  2  0  0  0  0  0  0
  185.7440  179.3780  141.7120 C   0  0  0  0  0  2  0  0  0  0  0  0
  186.1320  178.9480  140.4400 O   0  0  0  0  0  0  0  0  0  0  0  0
  187.4840  178.6280  140.5730 C   0  0  0  0  0  2  0  0  0  0  0  0
  187.9590  177.8780  139.3420 C   0  0  0  0  0  2  0  0  0  0  0  0
  189.3820  178.2810  138.9970 C   0  0  0  0  0  1  0  0  0  0  0  0
  1 12  2  0  0  0  0
  1 11  1  0  0  0  0
  3 16  1  6  0  0  0
  3 10  1  0  0  0  0
  5  8  1  0  0  0  0
  5  9  2  0  0  0  0
  6  3  1  0  0  0  0
  6 12  1  0  0  0  0
  7  9  1  0  0  0  0
  8  2  2  0  0  0  0
 10  4  1  1  0  0  0
 10  8  1  0  0  0  0
 11  7  2  0  0  0  0
 12  5  1  0  0  0  0
 13 16  1  0  0  0  0
 14 18  1  0  0  0  0
 15 17  2  0  0  0  0
 16 14  2  0  0  0  0
 17 14  1  0  0  0  0
 19 15  1  0  0  0  0
 20 15  1  0  0  0  0
 20 13  2  0  0  0  0
 21 24  1  1  0  0  0
 21  1  1  0  0  0  0
 22 23  1  0  0  0  0
 23 21  1  0  0  0  0
 25 26  1  0  0  0  0
 25 24  1  0  0  0  0
 27 26  1  0  0  0  0
 28 27  1  0  0  0  0
M  END
>  <MODEL>
8

>  <REMARK>
 VINA RESULT:      -7.0      2.506      6.576
  Name = 
  7 active torsions:
  status: ('A' for Active; 'I' for Inactive)
    1  A    between atoms: C_1  and  C_2
    2  A    between atoms: C_2  and  C_3
    3  A    between atoms: C_2  and  N_11
    4  A    between atoms: C_3  and  O_7
    5  A    between atoms: C_6  and  C_22
    6  A    between atoms: O_7  and  C_22
    7  A    between atoms: C_10  and  C_13
                            x       y       z     vdW  Elec       q    Type
                         _______ _______ _______ _____ _____    ______ ____

>  <TORSDO>
F 7

$$$$
=
 OpenBabel10262420503D

 28 30  0  0  1  0  0  0  0  0999 V2000
  183.0710  178.4940  141.4650 C   0  0  0  0  0  0  0  0  0  0  0  0
  183.8040  178.9520  146.2010 O   0  0  0  0  0  0  0  0  0  0  0  0
  186.2340  178.4100  143.5140 C   0  0  1  0  0  3  0  0  0  0  0  0
  186.5080  178.9170  145.8440 O   0  0  0  0  0  1  0  0  0  0  0  0
  183.4100  178.7810  143.8630 C   0  0  0  0  0  0  0  0  0  0  0  0
  185.2850  177.8160  142.4740 C   0  0  0  0  0  2  0  0  0  0  0  0
  181.2850  179.3740  142.8530 C   0  0  0  0  0  3  0  0  0  0  0  0
  184.2740  178.6870  145.0610 C   0  0  0  0  0  0  0  0  0  0  0  0
  182.1010  179.2670  143.9790 C   0  0  0  0  0  3  0  0  0  0  0  0
  185.7000  178.2180  144.9410 C   0  0  1  0  0  3  0  0  0  0  0  0
  181.7670  178.9900  141.6020 C   0  0  0  0  0  3  0  0  0  0  0  0
  183.9040  178.4030  142.5950 C   0  0  0  0  0  0  0  0  0  0  0  0
  188.1370  177.0640  144.3670 C   0  0  0  0  0  3  0  0  0  0  0  0
  188.4310  178.1430  142.2130 C   0  0  0  0  0  0  0  0  0  0  0  0
  190.2200  176.8080  143.1650 C   0  0  0  0  0  0  0  0  0  0  0  0
  187.6260  177.8680  143.3410 C   0  0  0  0  0  0  0  0  0  0  0  0
  189.7230  177.6100  142.1350 C   0  0  0  0  0  3  0  0  0  0  0  0
  187.9530  178.9990  141.0860 C   0  0  0  0  0  1  0  0  0  0  0  0
  191.5030  176.2840  143.0780 O   0  0  0  0  0  1  0  0  0  0  0  0
  189.4270  176.5350  144.2800 C   0  0  0  0  0  3  0  0  0  0  0  0
  183.5720  178.0740  140.1110 C   0  0  1  0  0  3  0  0  0  0  0  0
  182.6790  176.0020  139.4920 C   0  0  0  0  0  1  0  0  0  0  0  0
  182.5180  177.4390  139.3350 N   0  0  0  0  0  2  0  0  0  0  0  0
  184.1980  179.2350  139.3430 C   0  0  0  0  0  2  0  0  0  0  0  0
  185.5590  179.0090  139.1210 O   0  0  0  0  0  0  0  0  0  0  0  0
  185.6030  178.2070  137.9800 C   0  0  0  0  0  2  0  0  0  0  0  0
  186.9960  178.2400  137.3800 C   0  0  0  0  0  2  0  0  0  0  0  0
  187.7760  177.0050  137.7900 C   0  0  0  0  0  1  0  0  0  0  0  0
  1 11  2  0  0  0  0
  1 12  1  0  0  0  0
  3 16  1  1  0  0  0
  3 10  1  0  0  0  0
  5  9  1  0  0  0  0
  5  8  1  0  0  0  0
  6 12  1  0  0  0  0
  6  3  1  0  0  0  0
  7  9  2  0  0  0  0
  8  2  2  0  0  0  0
 10  8  1  0  0  0  0
 10  4  1  1  0  0  0
 11  7  1  0  0  0  0
 12  5  2  0  0  0  0
 14 16  1  0  0  0  0
 15 20  2  0  0  0  0
 16 13  2  0  0  0  0
 17 14  2  0  0  0  0
 17 15  1  0  0  0  0
 18 14  1  0  0  0  0
 19 15  1  0  0  0  0
 20 13  1  0  0  0  0
 21 24  1  6  0  0  0
 21  1  1  0  0  0  0
 23 22  1  0  0  0  0
 23 21  1  0  0  0  0
 25 24  1  0  0  0  0
 26 25  1  0  0  0  0
 27 28  1  0  0  0  0
 27 26  1  0  0  0  0
M  END
>  <MODEL>
9

>  <REMARK>
 VINA RESULT:      -6.9      2.153      6.341
  Name = 
  7 active torsions:
  status: ('A' for Active; 'I' for Inactive)
    1  A    between atoms: C_1  and  C_2
    2  A    between atoms: C_2  and  C_3
    3  A    between atoms: C_2  and  N_11
    4  A    between atoms: C_3  and  O_7
    5  A    between atoms: C_6  and  C_22
    6  A    between atoms: O_7  and  C_22
    7  A    between atoms: C_10  and  C_13
                            x       y       z     vdW  Elec       q    Type
                         _______ _______ _______ _____ _____    ______ ____

>  <TORSDO>
F 7

$$$$
