=
 OpenBabel10262421573D

 30 33  0  0  1  0  0  0  0  0999 V2000
  186.4770  177.0370  144.5150 C   0  0  0  0  0  2  0  0  0  0  0  0
  186.8260  177.8860  146.8740 C   0  0  0  0  0  0  0  0  0  0  0  0
  190.7050  177.2540  143.7540 C   0  0  0  0  0  3  0  0  0  0  0  0
  186.9330  177.2470  143.0610 C   0  0  2  0  0  3  0  0  0  0  0  0
  191.2070  177.1240  142.4570 C   0  0  0  0  0  3  0  0  0  0  0  0
  187.6610  177.9690  147.9240 C   0  0  0  0  0  3  0  0  0  0  0  0
  185.1120  178.1570  147.1570 Cl  0  0  0  0  0  0  0  0  0  0  0  0
  189.3220  177.3150  143.9820 C   0  0  0  0  0  0  0  0  0  0  0  0
  189.1570  177.8060  147.7950 C   0  0  0  0  0  2  0  0  0  0  0  0
  187.3600  177.8410  145.4610 C   0  0  1  0  0  3  0  0  0  0  0  0
  188.4350  177.1970  142.8830 C   0  0  0  0  0  0  0  0  0  0  0  0
  190.3310  177.0230  141.3760 C   0  0  0  0  0  3  0  0  0  0  0  0
  188.9520  177.0540  141.5900 C   0  0  0  0  0  3  0  0  0  0  0  0
  189.6490  178.1010  146.3780 C   0  0  0  0  0  2  0  0  0  0  0  0
  188.7920  177.3090  145.3960 C   0  0  2  0  0  3  0  0  0  0  0  0
  186.3070  178.4800  142.3780 C   0  0  2  0  0  3  0  0  0  0  0  0
  182.9590  179.6590  143.7960 C   0  0  0  0  0  3  0  0  0  0  0  0
  185.2580  180.2930  144.4800 C   0  0  0  0  0  1  0  0  0  0  0  0
  184.8200  178.6700  142.5830 C   0  0  0  0  0  0  0  0  0  0  0  0
  183.9000  177.9870  141.7710 C   0  0  0  0  0  3  0  0  0  0  0  0
  184.3360  179.5170  143.6020 C   0  0  0  0  0  0  0  0  0  0  0  0
  182.0550  178.9690  142.9860 C   0  0  0  0  0  3  0  0  0  0  0  0
  182.5260  178.1340  141.9710 C   0  0  0  0  0  3  0  0  0  0  0  0
  186.7620  178.6670  140.9560 C   0  0  0  0  0  3  0  0  0  0  0  0
  185.9900  178.3580  139.9110 C   0  0  0  0  0  3  0  0  0  0  0  0
  186.4810  178.5570  138.5180 C   0  0  0  0  0  2  0  0  0  0  0  0
  187.6560  177.7310  138.2820 N   0  0  0  0  0  2  0  0  0  0  0  0
  189.0240  179.5330  137.7010 O   0  0  0  0  0  0  0  0  0  0  0  0
  188.9030  178.2910  137.8730 C   0  0  0  0  0  0  0  0  0  0  0  0
  190.0690  177.4000  137.6460 C   0  0  0  0  0  1  0  0  0  0  0  0
  2  7  1  0  0  0  0
  2  6  2  0  0  0  0
  3  8  1  0  0  0  0
  4 16  1  1  0  0  0
  4  1  1  0  0  0  0
  5  3  2  0  0  0  0
  8 15  1  0  0  0  0
  9  6  1  0  0  0  0
 10  1  1  6  0  0  0
 10  2  1  0  0  0  0
 11  4  1  0  0  0  0
 11  8  2  0  0  0  0
 12 13  2  0  0  0  0
 12  5  1  0  0  0  0
 13 11  1  0  0  0  0
 14  9  1  0  0  0  0
 15 10  1  0  0  0  0
 15 14  1  1  0  0  0
 16 24  1  6  0  0  0
 16 19  1  0  0  0  0
 19 21  2  0  0  0  0
 20 23  2  0  0  0  0
 20 19  1  0  0  0  0
 21 17  1  0  0  0  0
 21 18  1  0  0  0  0
 22 17  2  0  0  0  0
 23 22  1  0  0  0  0
 25 24  2  0  0  0  0
 26 25  1  0  0  0  0
 27 26  1  0  0  0  0
 28 29  2  0  0  0  0
 29 27  1  0  0  0  0
 30 29  1  0  0  0  0
M  END
>  <MODEL>
1

>  <REMARK>
 VINA RESULT:      -9.0      0.000      0.000
  Name = 
  5 active torsions:
  status: ('A' for Active; 'I' for Inactive)
    1  A    between atoms: C_4  and  C_13
    2  A    between atoms: N_7  and  C_16
    3  A    between atoms: C_8  and  C_13
    4  A    between atoms: C_13  and  C_27
    5  A    between atoms: C_16  and  C_30
                            x       y       z     vdW  Elec       q    Type
                         _______ _______ _______ _____ _____    ______ ____

>  <TORSDO>
F 5

$$$$
=
 OpenBabel10262421573D

 30 33  0  0  1  0  0  0  0  0999 V2000
  186.1160  177.1910  142.7110 C   0  0  0  0  0  2  0  0  0  0  0  0
  184.0850  178.4760  141.9150 C   0  0  0  0  0  0  0  0  0  0  0  0
  185.4890  178.5880  146.7310 C   0  0  0  0  0  3  0  0  0  0  0  0
  187.3430  177.2950  143.6320 C   0  0  2  0  0  3  0  0  0  0  0  0
  186.4680  178.4130  147.7120 C   0  0  0  0  0  3  0  0  0  0  0  0
  182.8820  178.9830  142.2350 C   0  0  0  0  0  3  0  0  0  0  0  0
  184.4580  178.2420  140.2120 Cl  0  0  0  0  0  0  0  0  0  0  0  0
  185.7480  178.2510  145.3940 C   0  0  0  0  0  0  0  0  0  0  0  0
  182.4700  179.2760  143.6590 C   0  0  0  0  0  2  0  0  0  0  0  0
  185.1830  178.3710  142.9490 C   0  0  1  0  0  3  0  0  0  0  0  0
  187.0030  177.6870  145.0540 C   0  0  0  0  0  0  0  0  0  0  0  0
  187.7080  177.8700  147.3710 C   0  0  0  0  0  3  0  0  0  0  0  0
  187.9710  177.5050  146.0490 C   0  0  0  0  0  3  0  0  0  0  0  0
  183.6740  179.4760  144.5780 C   0  0  0  0  0  2  0  0  0  0  0  0
  184.6350  178.3080  144.3750 C   0  0  2  0  0  3  0  0  0  0  0  0
  188.4930  178.1440  143.0550 C   0  0  2  0  0  3  0  0  0  0  0  0
  190.0060  176.6060  139.8990 C   0  0  0  0  0  3  0  0  0  0  0  0
  190.1940  175.8480  142.2540 C   0  0  0  0  0  1  0  0  0  0  0  0
  188.8420  177.8910  141.6050 C   0  0  0  0  0  0  0  0  0  0  0  0
  188.3590  178.7450  140.6000 C   0  0  0  0  0  3  0  0  0  0  0  0
  189.6710  176.8080  141.2410 C   0  0  0  0  0  0  0  0  0  0  0  0
  189.5240  177.4680  138.9120 C   0  0  0  0  0  3  0  0  0  0  0  0
  188.6980  178.5360  139.2630 C   0  0  0  0  0  3  0  0  0  0  0  0
  189.6840  178.2340  143.9690 C   0  0  0  0  0  3  0  0  0  0  0  0
  190.8820  178.6470  143.5460 C   0  0  0  0  0  3  0  0  0  0  0  0
  192.0370  178.7190  144.4850 C   0  0  0  0  0  2  0  0  0  0  0  0
  191.6710  178.1410  145.7690 N   0  0  0  0  0  2  0  0  0  0  0  0
  192.0610  175.9410  145.0890 O   0  0  0  0  0  0  0  0  0  0  0  0
  191.7060  176.7340  146.0010 C   0  0  0  0  0  0  0  0  0  0  0  0
  191.3210  176.1990  147.3320 C   0  0  0  0  0  1  0  0  0  0  0  0
  1  4  1  0  0  0  0
  2  6  2  0  0  0  0
  2 10  1  0  0  0  0
  3  5  1  0  0  0  0
  4 16  1  6  0  0  0
  4 11  1  0  0  0  0
  6  9  1  0  0  0  0
  7  2  1  0  0  0  0
  8  3  2  0  0  0  0
  9 14  1  0  0  0  0
 10  1  1  6  0  0  0
 10 15  1  0  0  0  0
 11  8  1  0  0  0  0
 11 13  2  0  0  0  0
 12  5  2  0  0  0  0
 13 12  1  0  0  0  0
 15 14  1  1  0  0  0
 15  8  1  0  0  0  0
 16 24  1  1  0  0  0
 17 21  1  0  0  0  0
 19 16  1  0  0  0  0
 20 19  1  0  0  0  0
 21 19  2  0  0  0  0
 21 18  1  0  0  0  0
 22 23  1  0  0  0  0
 22 17  2  0  0  0  0
 23 20  2  0  0  0  0
 25 24  2  0  0  0  0
 25 26  1  0  0  0  0
 26 27  1  0  0  0  0
 27 29  1  0  0  0  0
 28 29  2  0  0  0  0
 29 30  1  0  0  0  0
M  END
>  <MODEL>
2

>  <REMARK>
 VINA RESULT:      -8.6      2.865      6.395
  Name = 
  5 active torsions:
  status: ('A' for Active; 'I' for Inactive)
    1  A    between atoms: C_4  and  C_13
    2  A    between atoms: N_7  and  C_16
    3  A    between atoms: C_8  and  C_13
    4  A    between atoms: C_13  and  C_27
    5  A    between atoms: C_16  and  C_30
                            x       y       z     vdW  Elec       q    Type
                         _______ _______ _______ _____ _____    ______ ____

>  <TORSDO>
F 5

$$$$
=
 OpenBabel10262421573D

 30 33  0  0  1  0  0  0  0  0999 V2000
  186.6210  179.3070  141.9780 C   0  0  0  0  0  2  0  0  0  0  0  0
  184.4040  178.9330  143.1420 C   0  0  0  0  0  0  0  0  0  0  0  0
  184.9510  177.9600  138.2500 C   0  0  0  0  0  3  0  0  0  0  0  0
  187.5790  178.6860  140.9470 C   0  0  2  0  0  3  0  0  0  0  0  0
  185.7720  177.6870  137.1540 C   0  0  0  0  0  3  0  0  0  0  0  0
  183.0660  178.8900  143.0190 C   0  0  0  0  0  3  0  0  0  0  0  0
  185.0810  179.1320  144.7520 Cl  0  0  0  0  0  0  0  0  0  0  0  0
  185.5070  178.2710  139.5000 C   0  0  0  0  0  0  0  0  0  0  0  0
  182.3720  178.6710  141.6950 C   0  0  0  0  0  2  0  0  0  0  0  0
  185.3010  178.5460  141.9890 C   0  0  1  0  0  3  0  0  0  0  0  0
  186.9160  178.3490  139.6290 C   0  0  0  0  0  0  0  0  0  0  0  0
  187.1600  177.7500  137.2880 C   0  0  0  0  0  3  0  0  0  0  0  0
  187.7270  178.0840  138.5190 C   0  0  0  0  0  3  0  0  0  0  0  0
  183.2740  177.9700  140.6800 C   0  0  0  0  0  2  0  0  0  0  0  0
  184.6100  178.7060  140.6340 C   0  0  2  0  0  3  0  0  0  0  0  0
  188.4180  177.5130  141.4930 C   0  0  2  0  0  3  0  0  0  0  0  0
  189.0530  177.3720  145.2600 C   0  0  0  0  0  3  0  0  0  0  0  0
  187.2700  176.2700  143.9320 C   0  0  0  0  0  1  0  0  0  0  0  0
  189.0450  177.7230  142.8540 C   0  0  0  0  0  0  0  0  0  0  0  0
  190.1970  178.5150  142.9880 C   0  0  0  0  0  3  0  0  0  0  0  0
  188.4750  177.1440  144.0070 C   0  0  0  0  0  0  0  0  0  0  0  0
  190.1940  178.1670  145.3790 C   0  0  0  0  0  3  0  0  0  0  0  0
  190.7670  178.7370  144.2420 C   0  0  0  0  0  3  0  0  0  0  0  0
  189.3460  176.9180  140.4700 C   0  0  0  0  0  3  0  0  0  0  0  0
  190.5470  177.4390  140.2050 C   0  0  0  0  0  3  0  0  0  0  0  0
  191.4360  176.8190  139.1820 C   0  0  0  0  0  2  0  0  0  0  0  0
  190.8380  175.5900  138.6840 N   0  0  0  0  0  2  0  0  0  0  0  0
  190.4210  176.4480  136.5510 O   0  0  0  0  0  0  0  0  0  0  0  0
  190.3490  175.4750  137.3480 C   0  0  0  0  0  0  0  0  0  0  0  0
  189.7480  174.1950  136.8930 C   0  0  0  0  0  1  0  0  0  0  0  0
  2  7  1  0  0  0  0
  3  8  1  0  0  0  0
  4 16  1  1  0  0  0
  4  1  1  0  0  0  0
  5 12  1  0  0  0  0
  5  3  2  0  0  0  0
  6  2  2  0  0  0  0
  8 11  2  0  0  0  0
  8 15  1  0  0  0  0
  9  6  1  0  0  0  0
 10  1  1  6  0  0  0
 10  2  1  0  0  0  0
 11  4  1  0  0  0  0
 12 13  2  0  0  0  0
 13 11  1  0  0  0  0
 14  9  1  0  0  0  0
 15 14  1  1  0  0  0
 15 10  1  0  0  0  0
 16 24  1  6  0  0  0
 16 19  1  0  0  0  0
 17 22  1  0  0  0  0
 18 21  1  0  0  0  0
 19 20  2  0  0  0  0
 19 21  1  0  0  0  0
 20 23  1  0  0  0  0
 21 17  2  0  0  0  0
 23 22  2  0  0  0  0
 25 24  2  0  0  0  0
 26 25  1  0  0  0  0
 27 26  1  0  0  0  0
 28 29  2  0  0  0  0
 29 27  1  0  0  0  0
 30 29  1  0  0  0  0
M  END
>  <MODEL>
3

>  <REMARK>
 VINA RESULT:      -8.3      1.772      5.562
  Name = 
  5 active torsions:
  status: ('A' for Active; 'I' for Inactive)
    1  A    between atoms: C_4  and  C_13
    2  A    between atoms: N_7  and  C_16
    3  A    between atoms: C_8  and  C_13
    4  A    between atoms: C_13  and  C_27
    5  A    between atoms: C_16  and  C_30
                            x       y       z     vdW  Elec       q    Type
                         _______ _______ _______ _____ _____    ______ ____

>  <TORSDO>
F 5

$$$$
=
 OpenBabel10262421573D

 30 33  0  0  1  0  0  0  0  0999 V2000
  184.9120  179.2900  143.3430 C   0  0  0  0  0  2  0  0  0  0  0  0
  182.5360  178.7390  142.6670 C   0  0  0  0  0  0  0  0  0  0  0  0
  186.3010  178.4250  139.3650 C   0  0  0  0  0  3  0  0  0  0  0  0
  186.3680  178.8230  143.1790 C   0  0  2  0  0  3  0  0  0  0  0  0
  187.6660  178.3080  139.0920 C   0  0  0  0  0  3  0  0  0  0  0  0
  181.6340  178.6970  141.6710 C   0  0  0  0  0  3  0  0  0  0  0  0
  181.9400  178.7330  144.3220 Cl  0  0  0  0  0  0  0  0  0  0  0  0
  185.8460  178.5760  140.6840 C   0  0  0  0  0  0  0  0  0  0  0  0
  182.0280  178.6450  140.2130 C   0  0  0  0  0  2  0  0  0  0  0  0
  184.0060  178.5180  142.3930 C   0  0  1  0  0  3  0  0  0  0  0  0
  186.7920  178.6530  141.7360 C   0  0  0  0  0  0  0  0  0  0  0  0
  188.5940  178.3710  140.1320 C   0  0  0  0  0  3  0  0  0  0  0  0
  188.1580  178.5470  141.4470 C   0  0  0  0  0  3  0  0  0  0  0  0
  183.4400  178.0950  140.0160 C   0  0  0  0  0  2  0  0  0  0  0  0
  184.3850  178.8470  140.9490 C   0  0  2  0  0  3  0  0  0  0  0  0
  186.7370  177.5980  144.0410 C   0  0  2  0  0  3  0  0  0  0  0  0
  186.6090  178.5000  147.7540 C   0  0  0  0  0  3  0  0  0  0  0  0
  184.7400  178.2150  146.1480 C   0  0  0  0  0  1  0  0  0  0  0  0
  187.1580  177.8910  145.4640 C   0  0  0  0  0  0  0  0  0  0  0  0
  188.5180  177.8710  145.8190 C   0  0  0  0  0  3  0  0  0  0  0  0
  186.1990  178.2040  146.4500 C   0  0  0  0  0  0  0  0  0  0  0  0
  187.9640  178.4840  148.0900 C   0  0  0  0  0  3  0  0  0  0  0  0
  188.9180  178.1670  147.1220 C   0  0  0  0  0  3  0  0  0  0  0  0
  187.6190  176.6110  143.3260 C   0  0  0  0  0  3  0  0  0  0  0  0
  188.9000  176.4280  143.6560 C   0  0  0  0  0  3  0  0  0  0  0  0
  189.7410  175.4410  142.9210 C   0  0  0  0  0  2  0  0  0  0  0  0
  190.4260  176.0970  141.8160 N   0  0  0  0  0  2  0  0  0  0  0  0
  191.9210  177.2470  143.1940 O   0  0  0  0  0  0  0  0  0  0  0  0
  191.5150  176.9940  142.0290 C   0  0  0  0  0  0  0  0  0  0  0  0
  192.1770  177.6350  140.8640 C   0  0  0  0  0  1  0  0  0  0  0  0
  2  7  1  0  0  0  0
  3  8  1  0  0  0  0
  4  1  1  0  0  0  0
  4 16  1  1  0  0  0
  5  3  2  0  0  0  0
  5 12  1  0  0  0  0
  6  2  2  0  0  0  0
  8 15  1  0  0  0  0
  8 11  2  0  0  0  0
  9  6  1  0  0  0  0
 10  2  1  0  0  0  0
 10  1  1  1  0  0  0
 11  4  1  0  0  0  0
 12 13  2  0  0  0  0
 13 11  1  0  0  0  0
 14  9  1  0  0  0  0
 15 14  1  6  0  0  0
 15 10  1  0  0  0  0
 16 24  1  6  0  0  0
 16 19  1  0  0  0  0
 17 22  1  0  0  0  0
 18 21  1  0  0  0  0
 19 20  2  0  0  0  0
 19 21  1  0  0  0  0
 20 23  1  0  0  0  0
 21 17  2  0  0  0  0
 23 22  2  0  0  0  0
 24 25  2  0  0  0  0
 26 25  1  0  0  0  0
 27 29  1  0  0  0  0
 27 26  1  0  0  0  0
 29 28  2  0  0  0  0
 30 29  1  0  0  0  0
M  END
>  <MODEL>
4

>  <REMARK>
 VINA RESULT:      -8.2      2.055      5.532
  Name = 
  5 active torsions:
  status: ('A' for Active; 'I' for Inactive)
    1  A    between atoms: C_4  and  C_13
    2  A    between atoms: N_7  and  C_16
    3  A    between atoms: C_8  and  C_13
    4  A    between atoms: C_13  and  C_27
    5  A    between atoms: C_16  and  C_30
                            x       y       z     vdW  Elec       q    Type
                         _______ _______ _______ _____ _____    ______ ____

>  <TORSDO>
F 5

$$$$
=
 OpenBabel10262421573D

 30 33  0  0  1  0  0  0  0  0999 V2000
  186.3770  178.9440  141.2550 C   0  0  0  0  0  2  0  0  0  0  0  0
  188.4760  177.5370  141.4210 C   0  0  0  0  0  0  0  0  0  0  0  0
  185.4730  178.1790  145.3900 C   0  0  0  0  0  3  0  0  0  0  0  0
  184.9010  178.9910  141.6860 C   0  0  2  0  0  3  0  0  0  0  0  0
  184.2260  178.5100  145.9240 C   0  0  0  0  0  3  0  0  0  0  0  0
  189.4580  177.0780  142.2160 C   0  0  0  0  0  3  0  0  0  0  0  0
  188.7370  177.5090  139.6820 Cl  0  0  0  0  0  0  0  0  0  0  0  0
  185.7190  178.3080  144.0150 C   0  0  0  0  0  0  0  0  0  0  0  0
  189.3270  177.0050  143.7190 C   0  0  0  0  0  2  0  0  0  0  0  0
  187.0940  177.8080  141.9730 C   0  0  1  0  0  3  0  0  0  0  0  0
  184.6990  178.8210  143.1760 C   0  0  0  0  0  0  0  0  0  0  0  0
  183.2190  179.0020  145.0930 C   0  0  0  0  0  3  0  0  0  0  0  0
  183.4570  179.1610  143.7270 C   0  0  0  0  0  3  0  0  0  0  0  0
  187.8680  176.9570  144.1700 C   0  0  0  0  0  2  0  0  0  0  0  0
  187.1120  178.0860  143.4760 C   0  0  2  0  0  3  0  0  0  0  0  0
  183.9760  178.0720  140.8640 C   0  0  2  0  0  3  0  0  0  0  0  0
  184.2260  176.5410  137.3700 C   0  0  0  0  0  3  0  0  0  0  0  0
  182.7430  175.9040  139.2540 C   0  0  0  0  0  1  0  0  0  0  0  0
  184.3900  177.8230  139.4310 C   0  0  0  0  0  0  0  0  0  0  0  0
  185.3730  178.6240  138.8280 C   0  0  0  0  0  3  0  0  0  0  0  0
  183.8110  176.7740  138.6850 C   0  0  0  0  0  0  0  0  0  0  0  0
  185.2100  177.3410  136.7860 C   0  0  0  0  0  3  0  0  0  0  0  0
  185.7810  178.3850  137.5150 C   0  0  0  0  0  3  0  0  0  0  0  0
  182.5160  178.3870  141.0390 C   0  0  0  0  0  3  0  0  0  0  0  0
  181.8860  179.2970  140.2930 C   0  0  0  0  0  3  0  0  0  0  0  0
  180.4370  179.5810  140.5000 C   0  0  0  0  0  2  0  0  0  0  0  0
  179.9720  178.9300  141.7150 N   0  0  0  0  0  2  0  0  0  0  0  0
  180.0550  180.8770  143.0020 O   0  0  0  0  0  0  0  0  0  0  0  0
  179.8030  179.6450  142.9390 C   0  0  0  0  0  0  0  0  0  0  0  0
  179.3260  178.9280  144.1480 C   0  0  0  0  0  1  0  0  0  0  0  0
  1  4  1  0  0  0  0
  2 10  1  0  0  0  0
  2  6  2  0  0  0  0
  3  5  1  0  0  0  0
  4 16  1  6  0  0  0
  4 11  1  0  0  0  0
  6  9  1  0  0  0  0
  7  2  1  0  0  0  0
  8  3  2  0  0  0  0
  9 14  1  0  0  0  0
 10  1  1  6  0  0  0
 10 15  1  0  0  0  0
 11 13  2  0  0  0  0
 11  8  1  0  0  0  0
 12  5  2  0  0  0  0
 13 12  1  0  0  0  0
 15  8  1  0  0  0  0
 15 14  1  1  0  0  0
 16 24  1  6  0  0  0
 17 21  1  0  0  0  0
 19 16  1  0  0  0  0
 20 19  1  0  0  0  0
 21 18  1  0  0  0  0
 21 19  2  0  0  0  0
 22 17  2  0  0  0  0
 22 23  1  0  0  0  0
 23 20  2  0  0  0  0
 25 26  1  0  0  0  0
 25 24  2  0  0  0  0
 26 27  1  0  0  0  0
 27 29  1  0  0  0  0
 29 28  2  0  0  0  0
 29 30  1  0  0  0  0
M  END
>  <MODEL>
5

>  <REMARK>
 VINA RESULT:      -8.1      3.413      6.375
  Name = 
  5 active torsions:
  status: ('A' for Active; 'I' for Inactive)
    1  A    between atoms: C_4  and  C_13
    2  A    between atoms: N_7  and  C_16
    3  A    between atoms: C_8  and  C_13
    4  A    between atoms: C_13  and  C_27
    5  A    between atoms: C_16  and  C_30
                            x       y       z     vdW  Elec       q    Type
                         _______ _______ _______ _____ _____    ______ ____

>  <TORSDO>
F 5

$$$$
=
 OpenBabel10262421573D

 30 33  0  0  1  0  0  0  0  0999 V2000
  189.2120  178.6680  144.0850 C   0  0  0  0  0  2  0  0  0  0  0  0
  191.0790  177.3490  145.1730 C   0  0  0  0  0  0  0  0  0  0  0  0
  186.5910  177.7740  147.3770 C   0  0  0  0  0  3  0  0  0  0  0  0
  187.6990  178.6420  143.8090 C   0  0  2  0  0  3  0  0  0  0  0  0
  185.2220  178.0400  147.2960 C   0  0  0  0  0  3  0  0  0  0  0  0
  191.6230  176.9150  146.3240 C   0  0  0  0  0  3  0  0  0  0  0  0
  192.0920  177.3700  143.7360 Cl  0  0  0  0  0  0  0  0  0  0  0  0
  187.4200  177.9430  146.2580 C   0  0  0  0  0  0  0  0  0  0  0  0
  190.8380  176.8040  147.6090 C   0  0  0  0  0  2  0  0  0  0  0  0
  189.5860  177.5480  145.0480 C   0  0  1  0  0  3  0  0  0  0  0  0
  186.8600  178.4310  145.0510 C   0  0  0  0  0  0  0  0  0  0  0  0
  184.6710  178.5060  146.1010 C   0  0  0  0  0  3  0  0  0  0  0  0
  185.4880  178.7050  144.9870 C   0  0  0  0  0  3  0  0  0  0  0  0
  189.3350  176.6840  147.3590 C   0  0  0  0  0  2  0  0  0  0  0  0
  188.9160  177.7940  146.4000 C   0  0  2  0  0  3  0  0  0  0  0  0
  187.2850  177.7010  142.6600 C   0  0  2  0  0  3  0  0  0  0  0  0
  190.1510  176.6440  140.3630 C   0  0  0  0  0  3  0  0  0  0  0  0
  189.4390  175.6640  142.5280 C   0  0  0  0  0  1  0  0  0  0  0  0
  188.2330  177.6330  141.4830 C   0  0  0  0  0  0  0  0  0  0  0  0
  188.1070  178.5400  140.4180 C   0  0  0  0  0  3  0  0  0  0  0  0
  189.2660  176.6730  141.4450 C   0  0  0  0  0  0  0  0  0  0  0  0
  190.0190  177.5560  139.3150 C   0  0  0  0  0  3  0  0  0  0  0  0
  188.9940  178.5030  139.3420 C   0  0  0  0  0  3  0  0  0  0  0  0
  185.8360  177.8310  142.2780 C   0  0  0  0  0  3  0  0  0  0  0  0
  185.3910  178.8020  141.4760 C   0  0  0  0  0  3  0  0  0  0  0  0
  183.9460  178.8960  141.1240 C   0  0  0  0  0  2  0  0  0  0  0  0
  183.1310  178.7150  142.3160 N   0  0  0  0  0  2  0  0  0  0  0  0
  181.1400  179.3380  141.2650 O   0  0  0  0  0  0  0  0  0  0  0  0
  181.7250  178.9560  142.3140 C   0  0  0  0  0  0  0  0  0  0  0  0
  180.9430  178.7540  143.5600 C   0  0  0  0  0  1  0  0  0  0  0  0
  2  6  2  0  0  0  0
  4 16  1  6  0  0  0
  4  1  1  0  0  0  0
  4 11  1  0  0  0  0
  5  3  1  0  0  0  0
  6  9  1  0  0  0  0
  7  2  1  0  0  0  0
  8 15  1  0  0  0  0
  8  3  2  0  0  0  0
 10  1  1  6  0  0  0
 10  2  1  0  0  0  0
 10 15  1  0  0  0  0
 11  8  1  0  0  0  0
 12  5  2  0  0  0  0
 13 11  2  0  0  0  0
 13 12  1  0  0  0  0
 14  9  1  0  0  0  0
 15 14  1  1  0  0  0
 16 24  1  6  0  0  0
 17 21  1  0  0  0  0
 19 16  1  0  0  0  0
 20 19  1  0  0  0  0
 21 19  2  0  0  0  0
 21 18  1  0  0  0  0
 22 23  1  0  0  0  0
 22 17  2  0  0  0  0
 23 20  2  0  0  0  0
 25 24  2  0  0  0  0
 26 25  1  0  0  0  0
 26 27  1  0  0  0  0
 28 29  2  0  0  0  0
 29 27  1  0  0  0  0
 29 30  1  0  0  0  0
M  END
>  <MODEL>
6

>  <REMARK>
 VINA RESULT:      -7.9      2.746      5.655
  Name = 
  5 active torsions:
  status: ('A' for Active; 'I' for Inactive)
    1  A    between atoms: C_4  and  C_13
    2  A    between atoms: N_7  and  C_16
    3  A    between atoms: C_8  and  C_13
    4  A    between atoms: C_13  and  C_27
    5  A    between atoms: C_16  and  C_30
                            x       y       z     vdW  Elec       q    Type
                         _______ _______ _______ _____ _____    ______ ____

>  <TORSDO>
F 5

$$$$
=
 OpenBabel10262421573D

 30 33  0  0  1  0  0  0  0  0999 V2000
  184.1410  179.0220  138.7180 C   0  0  0  0  0  2  0  0  0  0  0  0
  184.0190  177.6640  136.5850 C   0  0  0  0  0  0  0  0  0  0  0  0
  188.2090  177.7700  139.3450 C   0  0  0  0  0  3  0  0  0  0  0  0
  184.6620  178.9790  140.1650 C   0  0  2  0  0  3  0  0  0  0  0  0
  188.8510  178.0040  140.5630 C   0  0  0  0  0  3  0  0  0  0  0  0
  184.6950  177.1450  135.5450 C   0  0  0  0  0  3  0  0  0  0  0  0
  182.2760  177.8390  136.4330 Cl  0  0  0  0  0  0  0  0  0  0  0  0
  186.8450  178.0600  139.1890 C   0  0  0  0  0  0  0  0  0  0  0  0
  186.1860  176.9000  135.5800 C   0  0  0  0  0  2  0  0  0  0  0  0
  184.6800  177.8320  137.9340 C   0  0  1  0  0  3  0  0  0  0  0  0
  186.1330  178.6360  140.2700 C   0  0  0  0  0  0  0  0  0  0  0  0
  188.1430  178.5580  141.6300 C   0  0  0  0  0  3  0  0  0  0  0  0
  186.7920  178.8770  141.4810 C   0  0  0  0  0  3  0  0  0  0  0  0
  186.7150  176.7600  137.0060 C   0  0  0  0  0  2  0  0  0  0  0  0
  186.2010  177.9390  137.8280 C   0  0  2  0  0  3  0  0  0  0  0  0
  183.7980  178.1330  141.1210 C   0  0  2  0  0  3  0  0  0  0  0  0
  180.2860  177.1750  139.9520 C   0  0  0  0  0  3  0  0  0  0  0  0
  182.4060  175.9030  139.7420 C   0  0  0  0  0  1  0  0  0  0  0  0
  182.3060  178.1680  140.8740 C   0  0  0  0  0  0  0  0  0  0  0  0
  181.5430  179.2680  141.3010 C   0  0  0  0  0  3  0  0  0  0  0  0
  181.6620  177.1110  140.1970 C   0  0  0  0  0  0  0  0  0  0  0  0
  179.5420  178.2770  140.3760 C   0  0  0  0  0  3  0  0  0  0  0  0
  180.1710  179.3230  141.0530 C   0  0  0  0  0  3  0  0  0  0  0  0
  184.1880  178.2820  142.5660 C   0  0  0  0  0  3  0  0  0  0  0  0
  183.3900  178.8620  143.4660 C   0  0  0  0  0  3  0  0  0  0  0  0
  183.8160  178.9920  144.8880 C   0  0  0  0  0  2  0  0  0  0  0  0
  185.1120  178.3560  145.0790 N   0  0  0  0  0  2  0  0  0  0  0  0
  185.5250  179.4090  147.1230 O   0  0  0  0  0  0  0  0  0  0  0  0
  185.9170  178.6140  146.2280 C   0  0  0  0  0  0  0  0  0  0  0  0
  187.2310  177.9370  146.3710 C   0  0  0  0  0  1  0  0  0  0  0  0
  1  4  1  0  0  0  0
  2 10  1  0  0  0  0
  3  5  1  0  0  0  0
  4 11  1  0  0  0  0
  4 16  1  1  0  0  0
  5 12  2  0  0  0  0
  6  9  1  0  0  0  0
  6  2  2  0  0  0  0
  7  2  1  0  0  0  0
  8  3  2  0  0  0  0
  8 11  1  0  0  0  0
  9 14  1  0  0  0  0
 10  1  1  6  0  0  0
 11 13  2  0  0  0  0
 13 12  1  0  0  0  0
 15 14  1  1  0  0  0
 15 10  1  0  0  0  0
 15  8  1  0  0  0  0
 16 24  1  1  0  0  0
 17 21  2  0  0  0  0
 17 22  1  0  0  0  0
 18 21  1  0  0  0  0
 19 16  1  0  0  0  0
 19 20  2  0  0  0  0
 21 19  1  0  0  0  0
 22 23  2  0  0  0  0
 23 20  1  0  0  0  0
 24 25  2  0  0  0  0
 25 26  1  0  0  0  0
 26 27  1  0  0  0  0
 27 29  1  0  0  0  0
 29 30  1  0  0  0  0
 29 28  2  0  0  0  0
M  END
>  <MODEL>
7

>  <REMARK>
 VINA RESULT:      -7.8      3.625      7.030
  Name = 
  5 active torsions:
  status: ('A' for Active; 'I' for Inactive)
    1  A    between atoms: C_4  and  C_13
    2  A    between atoms: N_7  and  C_16
    3  A    between atoms: C_8  and  C_13
    4  A    between atoms: C_13  and  C_27
    5  A    between atoms: C_16  and  C_30
                            x       y       z     vdW  Elec       q    Type
                         _______ _______ _______ _____ _____    ______ ____

>  <TORSDO>
F 5

$$$$
=
 OpenBabel10262421573D

 30 33  0  0  1  0  0  0  0  0999 V2000
  185.0610  179.2200  140.2110 C   0  0  0  0  0  2  0  0  0  0  0  0
  187.3630  178.2530  139.7930 C   0  0  0  0  0  0  0  0  0  0  0  0
  185.4730  178.5140  144.4340 C   0  0  0  0  0  3  0  0  0  0  0  0
  183.7760  179.0050  141.0290 C   0  0  2  0  0  3  0  0  0  0  0  0
  184.3740  178.6270  145.2900 C   0  0  0  0  0  3  0  0  0  0  0  0
  188.5940  178.0340  140.2880 C   0  0  0  0  0  3  0  0  0  0  0  0
  187.1480  178.1840  138.0490 Cl  0  0  0  0  0  0  0  0  0  0  0  0
  185.3090  178.6150  143.0440 C   0  0  0  0  0  0  0  0  0  0  0  0
  188.8890  178.0160  141.7690 C   0  0  0  0  0  2  0  0  0  0  0  0
  186.1560  178.2820  140.7020 C   0  0  1  0  0  3  0  0  0  0  0  0
  184.0200  178.8780  142.5180 C   0  0  0  0  0  0  0  0  0  0  0  0
  183.1040  178.8720  144.7670 C   0  0  0  0  0  3  0  0  0  0  0  0
  182.9300  179.0010  143.3880 C   0  0  0  0  0  3  0  0  0  0  0  0
  187.6450  177.7130  142.6020 C   0  0  0  0  0  2  0  0  0  0  0  0
  186.5210  178.6370  142.1440 C   0  0  2  0  0  3  0  0  0  0  0  0
  182.8670  177.8830  140.4900 C   0  0  2  0  0  3  0  0  0  0  0  0
  182.6540  178.0690  136.6780 C   0  0  0  0  0  3  0  0  0  0  0  0
  181.8660  179.7030  138.3710 C   0  0  0  0  0  1  0  0  0  0  0  0
  183.0250  177.5460  139.0240 C   0  0  0  0  0  0  0  0  0  0  0  0
  183.6590  176.3550  138.6350 C   0  0  0  0  0  3  0  0  0  0  0  0
  182.5240  178.4100  138.0280 C   0  0  0  0  0  0  0  0  0  0  0  0
  183.2800  176.8780  136.3070 C   0  0  0  0  0  3  0  0  0  0  0  0
  183.7850  176.0220  137.2860 C   0  0  0  0  0  3  0  0  0  0  0  0
  181.4380  178.0050  140.9450 C   0  0  0  0  0  3  0  0  0  0  0  0
  180.5780  176.9840  140.8830 C   0  0  0  0  0  3  0  0  0  0  0  0
  179.1700  177.1480  141.3420 C   0  0  0  0  0  2  0  0  0  0  0  0
  179.0310  178.3900  142.0880 N   0  0  0  0  0  2  0  0  0  0  0  0
  179.6880  177.4470  144.1220 O   0  0  0  0  0  0  0  0  0  0  0  0
  179.3090  178.4660  143.4860 C   0  0  0  0  0  0  0  0  0  0  0  0
  179.1510  179.7610  144.1960 C   0  0  0  0  0  1  0  0  0  0  0  0
  1  4  1  0  0  0  0
  2  6  2  0  0  0  0
  2 10  1  0  0  0  0
  3  5  1  0  0  0  0
  4 16  1  6  0  0  0
  4 11  1  0  0  0  0
  6  9  1  0  0  0  0
  7  2  1  0  0  0  0
  8  3  2  0  0  0  0
  9 14  1  0  0  0  0
 10  1  1  6  0  0  0
 10 15  1  0  0  0  0
 11  8  1  0  0  0  0
 11 13  2  0  0  0  0
 12  5  2  0  0  0  0
 13 12  1  0  0  0  0
 15 14  1  1  0  0  0
 15  8  1  0  0  0  0
 16 24  1  6  0  0  0
 17 21  1  0  0  0  0
 19 16  1  0  0  0  0
 20 19  1  0  0  0  0
 21 18  1  0  0  0  0
 21 19  2  0  0  0  0
 22 17  2  0  0  0  0
 22 23  1  0  0  0  0
 23 20  2  0  0  0  0
 25 24  2  0  0  0  0
 25 26  1  0  0  0  0
 26 27  1  0  0  0  0
 27 29  1  0  0  0  0
 29 28  2  0  0  0  0
 29 30  1  0  0  0  0
M  END
>  <MODEL>
8

>  <REMARK>
 VINA RESULT:      -7.6      3.976      7.008
  Name = 
  5 active torsions:
  status: ('A' for Active; 'I' for Inactive)
    1  A    between atoms: C_4  and  C_13
    2  A    between atoms: N_7  and  C_16
    3  A    between atoms: C_8  and  C_13
    4  A    between atoms: C_13  and  C_27
    5  A    between atoms: C_16  and  C_30
                            x       y       z     vdW  Elec       q    Type
                         _______ _______ _______ _____ _____    ______ ____

>  <TORSDO>
F 5

$$$$
=
 OpenBabel10262421573D

 30 33  0  0  1  0  0  0  0  0999 V2000
  182.0840  180.5460  138.6950 C   0  0  0  0  0  2  0  0  0  0  0  0
  180.1460  181.4730  137.3550 C   0  0  0  0  0  0  0  0  0  0  0  0
  182.3230  177.1330  136.0870 C   0  0  0  0  0  3  0  0  0  0  0  0
  182.6540  179.2400  139.2750 C   0  0  2  0  0  3  0  0  0  0  0  0
  183.1060  176.0270  136.4250 C   0  0  0  0  0  3  0  0  0  0  0  0
  179.5430  181.5410  136.1560 C   0  0  0  0  0  3  0  0  0  0  0  0
  179.7540  182.7020  138.5500 Cl  0  0  0  0  0  0  0  0  0  0  0  0
  182.1430  178.1860  136.9970 C   0  0  0  0  0  0  0  0  0  0  0  0
  179.7610  180.5140  135.0700 C   0  0  0  0  0  2  0  0  0  0  0  0
  180.9160  180.2390  137.7670 C   0  0  1  0  0  3  0  0  0  0  0  0
  182.8010  178.1350  138.2510 C   0  0  0  0  0  0  0  0  0  0  0  0
  183.7410  175.9740  137.6660 C   0  0  0  0  0  3  0  0  0  0  0  0
  183.5930  177.0260  138.5720 C   0  0  0  0  0  3  0  0  0  0  0  0
  180.2400  179.1750  135.6310 C   0  0  0  0  0  2  0  0  0  0  0  0
  181.4180  179.4370  136.5650 C   0  0  2  0  0  3  0  0  0  0  0  0
  181.9430  178.7570  140.5550 C   0  0  2  0  0  3  0  0  0  0  0  0
  183.0680  178.9320  144.2040 C   0  0  0  0  0  3  0  0  0  0  0  0
  180.8190  179.3390  143.2390 C   0  0  0  0  0  1  0  0  0  0  0  0
  182.7980  178.6790  141.8000 C   0  0  0  0  0  0  0  0  0  0  0  0
  184.1540  178.3230  141.7080 C   0  0  0  0  0  3  0  0  0  0  0  0
  182.2550  178.9810  143.0670 C   0  0  0  0  0  0  0  0  0  0  0  0
  184.4150  178.5820  144.0960 C   0  0  0  0  0  3  0  0  0  0  0  0
  184.9570  178.2750  142.8480 C   0  0  0  0  0  3  0  0  0  0  0  0
  181.0680  177.5550  140.3310 C   0  0  0  0  0  3  0  0  0  0  0  0
  179.7640  177.6600  140.0610 C   0  0  0  0  0  3  0  0  0  0  0  0
  178.9310  176.4420  139.8480 C   0  0  0  0  0  2  0  0  0  0  0  0
  179.0000  175.5810  141.0190 N   0  0  0  0  0  2  0  0  0  0  0  0
  179.6000  173.6790  139.8040 O   0  0  0  0  0  0  0  0  0  0  0  0
  179.3430  174.2000  140.9220 C   0  0  0  0  0  0  0  0  0  0  0  0
  179.3990  173.3680  142.1520 C   0  0  0  0  0  1  0  0  0  0  0  0
  1  4  1  0  0  0  0
  2 10  1  0  0  0  0
  2  7  1  0  0  0  0
  3  5  2  0  0  0  0
  3  8  1  0  0  0  0
  4 16  1  1  0  0  0
  5 12  1  0  0  0  0
  6  2  2  0  0  0  0
  8 11  2  0  0  0  0
  9 14  1  0  0  0  0
  9  6  1  0  0  0  0
 10  1  1  1  0  0  0
 11 13  1  0  0  0  0
 11  4  1  0  0  0  0
 12 13  2  0  0  0  0
 15 14  1  6  0  0  0
 15  8  1  0  0  0  0
 15 10  1  0  0  0  0
 16 24  1  6  0  0  0
 16 19  1  0  0  0  0
 19 21  1  0  0  0  0
 20 19  2  0  0  0  0
 20 23  1  0  0  0  0
 21 18  1  0  0  0  0
 21 17  2  0  0  0  0
 22 17  1  0  0  0  0
 23 22  2  0  0  0  0
 25 24  2  0  0  0  0
 26 25  1  0  0  0  0
 26 27  1  0  0  0  0
 28 29  2  0  0  0  0
 29 27  1  0  0  0  0
 29 30  1  0  0  0  0
M  END
>  <MODEL>
9

>  <REMARK>
 VINA RESULT:      -7.6      5.251      9.070
  Name = 
  5 active torsions:
  status: ('A' for Active; 'I' for Inactive)
    1  A    between atoms: C_4  and  C_13
    2  A    between atoms: N_7  and  C_16
    3  A    between atoms: C_8  and  C_13
    4  A    between atoms: C_13  and  C_27
    5  A    between atoms: C_16  and  C_30
                            x       y       z     vdW  Elec       q    Type
                         _______ _______ _______ _____ _____    ______ ____

>  <TORSDO>
F 5

$$$$
