=
 OpenBabel10262422553D

 37 40  0  0  1  0  0  0  0  0999 V2000
  189.1320  178.0120  136.2670 C   0  0  0  0  0  2  0  0  0  0  0  0
  191.6820  174.8180  137.6400 C   0  0  0  0  0  2  0  0  0  0  0  0
  186.5190  173.9590  135.3820 N   0  0  0  0  0  2  0  0  0  0  0  0
  189.4490  176.7360  137.0340 C   0  0  2  0  0  3  0  0  0  0  0  0
  187.4230  175.0670  135.6990 C   0  0  2  0  0  3  0  0  0  0  0  0
  190.4760  176.9970  138.1360 C   0  0  2  0  0  3  0  0  0  0  0  0
  187.3230  176.1520  134.6380 C   0  0  0  0  0  2  0  0  0  0  0  0
  188.8570  174.5350  135.8580 C   0  0  2  0  0  3  0  0  0  0  0  0
  188.1440  172.5140  136.5620 C   0  0  0  0  0  2  0  0  0  0  0  0
  187.1040  179.1460  136.7510 O   0  0  0  0  0  0  0  0  0  0  0  0
  186.8560  177.3840  135.2580 N   0  0  0  0  0  2  0  0  0  0  0  0
  188.8940  173.6440  136.9440 O   0  0  0  0  0  0  0  0  0  0  0  0
  190.9610  175.6660  138.6950 C   0  0  0  0  0  2  0  0  0  0  0  0
  187.6550  178.2080  136.1170 C   0  0  0  0  0  0  0  0  0  0  0  0
  189.8970  175.6550  136.0260 C   0  0  2  0  0  3  0  0  0  0  0  0
  186.6630  172.8810  136.3720 C   0  0  1  0  0  3  0  0  0  0  0  0
  191.3670  175.1660  136.1600 C   0  0  1  0  0  0  0  0  0  0  0  0
  186.0180  173.2560  137.7010 C   0  0  0  0  0  2  0  0  0  0  0  0
  184.5120  173.3440  137.5510 C   0  0  0  0  0  1  0  0  0  0  0  0
  192.3060  176.3110  135.7130 C   0  0  0  0  0  2  0  0  0  0  0  0
  193.6720  176.2830  136.3950 C   0  0  0  0  0  2  0  0  0  0  0  0
  195.3970  177.4310  135.0470 C   0  0  0  0  0  1  0  0  0  0  0  0
  194.7820  176.0890  135.3820 C   0  0  0  0  0  2  0  0  0  0  0  0
  191.5360  174.0220  135.3320 O   0  0  0  0  0  0  0  0  0  0  0  0
  192.3600  173.0700  135.9600 C   0  0  0  0  0  2  0  0  0  0  0  0
  193.4200  172.6020  134.9870 C   0  0  0  0  0  2  0  0  0  0  0  0
  194.5500  172.7130  137.1830 C   0  0  0  0  0  1  0  0  0  0  0  0
  194.6790  172.2450  135.7490 C   0  0  0  0  0  2  0  0  0  0  0  0
  189.8440  177.8170  139.2500 C   0  0  0  0  0  2  0  0  0  0  0  0
  189.8780  177.0440  140.5580 C   0  0  0  0  0  2  0  0  0  0  0  0
  188.5570  176.7260  142.7500 C   0  0  0  0  0  2  0  0  0  0  0  0
  188.6910  177.3820  141.3940 C   0  0  0  0  0  0  0  0  0  0  0  0
  187.8240  178.3050  140.9640 C   0  0  0  0  0  3  0  0  0  0  0  0
  185.8570  179.5530  141.3730 O   0  0  0  0  0  0  0  0  0  0  0  0
  186.4190  177.9830  143.0480 C   0  0  0  0  0  3  0  0  0  0  0  0
  186.6580  178.6690  141.7760 C   0  0  0  0  0  0  0  0  0  0  0  0
  187.2900  177.0740  143.4920 C   0  0  0  0  0  3  0  0  0  0  0  0
  2 13  1  0  0  0  0
  3  5  1  0  0  0  0
  3 16  1  0  0  0  0
  4  1  1  6  0  0  0
  4  6  1  0  0  0  0
  5  7  1  6  0  0  0
  5  8  1  0  0  0  0
  6 13  1  0  0  0  0
  6 29  1  1  0  0  0
  7 11  1  0  0  0  0
  8 15  1  0  0  0  0
  8 12  1  1  0  0  0
  9 12  1  0  0  0  0
 11 14  1  0  0  0  0
 14  1  1  0  0  0  0
 14 10  2  0  0  0  0
 15 17  1  0  0  0  0
 15  4  1  0  0  0  0
 16  9  1  0  0  0  0
 16 18  1  0  0  0  0
 17  2  1  0  0  0  0
 19 18  1  0  0  0  0
 20 17  1  0  0  0  0
 20 21  1  0  0  0  0
 22 23  1  0  0  0  0
 23 21  1  0  0  0  0
 24 25  1  0  0  0  0
 24 17  1  0  0  0  0
 26 28  1  0  0  0  0
 26 25  1  0  0  0  0
 28 27  1  0  0  0  0
 29 30  1  0  0  0  0
 30 32  1  0  0  0  0
 31 37  1  0  0  0  0
 32 31  1  0  0  0  0
 33 32  2  0  0  0  0
 33 36  1  0  0  0  0
 34 36  2  0  0  0  0
 35 37  2  0  0  0  0
 36 35  1  0  0  0  0
M  END
>  <MODEL>
1

>  <REMARK>
 VINA RESULT:      -6.0      0.000      0.000
  Name = 
  11 active torsions:
  status: ('A' for Active; 'I' for Inactive)
    1  A    between atoms: C_1  and  C_5
    2  A    between atoms: C_1  and  C_36
    3  A    between atoms: C_3  and  C_32
    4  A    between atoms: C_5  and  C_23
    5  A    between atoms: C_6  and  C_31
    6  A    between atoms: C_14  and  C_37
    7  A    between atoms: C_17  and  C_26
    8  A    between atoms: C_17  and  O_33
    9  A    between atoms: C_26  and  C_34
   10  A    between atoms: C_31  and  C_37
   11  A    between atoms: O_33  and  C_36
                            x       y       z     vdW  Elec       q    Type
                         _______ _______ _______ _____ _____    ______ ____

>  <TORSDO>
F 11

$$$$
=
 OpenBabel10262422553D

 37 40  0  0  1  0  0  0  0  0999 V2000
  181.3890  179.5880  141.9340 C   0  0  0  0  0  2  0  0  0  0  0  0
  183.9850  177.9430  138.9110 C   0  0  0  0  0  2  0  0  0  0  0  0
  178.9320  175.6840  140.2740 N   0  0  0  0  0  2  0  0  0  0  0  0
  182.1470  178.4720  141.2290 C   0  0  2  0  0  3  0  0  0  0  0  0
  179.7820  176.8140  140.6530 C   0  0  2  0  0  3  0  0  0  0  0  0
  183.6570  178.6940  141.3150 C   0  0  2  0  0  3  0  0  0  0  0  0
  178.9310  178.0340  140.9710 C   0  0  0  0  0  2  0  0  0  0  0  0
  180.8040  177.0890  139.5370 C   0  0  2  0  0  3  0  0  0  0  0  0
  180.8370  174.9290  138.8880 C   0  0  0  0  0  2  0  0  0  0  0  0
  180.4990  179.1590  144.0930 O   0  0  0  0  0  0  0  0  0  0  0  0
  179.1440  178.4160  142.3590 N   0  0  0  0  0  2  0  0  0  0  0  0
  181.6400  175.9680  139.4000 O   0  0  0  0  0  0  0  0  0  0  0  0
  184.3600  177.7180  140.3800 C   0  0  0  0  0  2  0  0  0  0  0  0
  180.3370  179.0410  142.8500 C   0  0  0  0  0  0  0  0  0  0  0  0
  181.6270  178.3660  139.7790 C   0  0  2  0  0  3  0  0  0  0  0  0
  179.7560  174.5240  139.9040 C   0  0  1  0  0  3  0  0  0  0  0  0
  182.6540  178.7020  138.6610 C   0  0  1  0  0  0  0  0  0  0  0  0
  180.3790  173.8690  141.1310 C   0  0  0  0  0  2  0  0  0  0  0  0
  179.3050  173.5030  142.1360 C   0  0  0  0  0  1  0  0  0  0  0  0
  182.9390  180.2220  138.6990 C   0  0  0  0  0  2  0  0  0  0  0  0
  181.6890  181.0820  138.5260 C   0  0  0  0  0  2  0  0  0  0  0  0
  181.0230  183.1800  137.3980 C   0  0  0  0  0  1  0  0  0  0  0  0
  182.0560  182.5350  138.2970 C   0  0  0  0  0  2  0  0  0  0  0  0
  182.0920  178.3250  137.4090 O   0  0  0  0  0  0  0  0  0  0  0  0
  183.0460  177.6600  136.6150 C   0  0  0  0  0  2  0  0  0  0  0  0
  182.3560  176.6080  135.7750 C   0  0  0  0  0  2  0  0  0  0  0  0
  184.6980  175.8540  136.0120 C   0  0  0  0  0  1  0  0  0  0  0  0
  183.3600  175.5490  135.3720 C   0  0  0  0  0  2  0  0  0  0  0  0
  184.1340  178.4670  142.7400 C   0  0  0  0  0  2  0  0  0  0  0  0
  185.5230  177.8510  142.7410 C   0  0  0  0  0  2  0  0  0  0  0  0
  187.5500  177.4470  144.2820 C   0  0  0  0  0  2  0  0  0  0  0  0
  186.1300  177.9340  144.0990 C   0  0  0  0  0  0  0  0  0  0  0  0
  185.4410  178.5020  145.0950 C   0  0  0  0  0  3  0  0  0  0  0  0
  185.3750  179.1670  147.3640 O   0  0  0  0  0  0  0  0  0  0  0  0
  187.3530  178.0570  146.6970 C   0  0  0  0  0  3  0  0  0  0  0  0
  186.0220  178.6130  146.4370 C   0  0  0  0  0  0  0  0  0  0  0  0
  188.0540  177.5040  145.7040 C   0  0  0  0  0  3  0  0  0  0  0  0
  1 14  1  0  0  0  0
  2 13  1  0  0  0  0
  3  5  1  0  0  0  0
  4  6  1  0  0  0  0
  4  1  1  6  0  0  0
  5  7  1  6  0  0  0
  6 29  1  1  0  0  0
  7 11  1  0  0  0  0
  8 12  1  1  0  0  0
  8 15  1  0  0  0  0
  8  5  1  0  0  0  0
  9 12  1  0  0  0  0
  9 16  1  0  0  0  0
 11 14  1  0  0  0  0
 13  6  1  0  0  0  0
 14 10  2  0  0  0  0
 15  4  1  0  0  0  0
 16  3  1  0  0  0  0
 16 18  1  0  0  0  0
 17 20  1  0  0  0  0
 17  2  1  0  0  0  0
 17 15  1  0  0  0  0
 18 19  1  0  0  0  0
 21 20  1  0  0  0  0
 22 23  1  0  0  0  0
 23 21  1  0  0  0  0
 24 17  1  0  0  0  0
 25 24  1  0  0  0  0
 26 25  1  0  0  0  0
 28 26  1  0  0  0  0
 28 27  1  0  0  0  0
 29 30  1  0  0  0  0
 30 32  1  0  0  0  0
 31 37  1  0  0  0  0
 32 31  1  0  0  0  0
 32 33  2  0  0  0  0
 33 36  1  0  0  0  0
 36 35  1  0  0  0  0
 36 34  2  0  0  0  0
 37 35  2  0  0  0  0
M  END
>  <MODEL>
2

>  <REMARK>
 VINA RESULT:      -6.0      6.546      9.050
  Name = 
  11 active torsions:
  status: ('A' for Active; 'I' for Inactive)
    1  A    between atoms: C_1  and  C_5
    2  A    between atoms: C_1  and  C_36
    3  A    between atoms: C_3  and  C_32
    4  A    between atoms: C_5  and  C_23
    5  A    between atoms: C_6  and  C_31
    6  A    between atoms: C_14  and  C_37
    7  A    between atoms: C_17  and  C_26
    8  A    between atoms: C_17  and  O_33
    9  A    between atoms: C_26  and  C_34
   10  A    between atoms: C_31  and  C_37
   11  A    between atoms: O_33  and  C_36
                            x       y       z     vdW  Elec       q    Type
                         _______ _______ _______ _____ _____    ______ ____

>  <TORSDO>
F 11

$$$$
=
 OpenBabel10262422553D

 37 40  0  0  1  0  0  0  0  0999 V2000
  187.8370  178.6970  141.2020 C   0  0  0  0  0  2  0  0  0  0  0  0
  191.3640  176.2760  141.7370 C   0  0  0  0  0  2  0  0  0  0  0  0
  188.4380  176.5170  136.8510 N   0  0  0  0  0  2  0  0  0  0  0  0
  188.6540  177.4150  141.1140 C   0  0  2  0  0  3  0  0  0  0  0  0
  188.4020  177.0920  138.1980 C   0  0  2  0  0  3  0  0  0  0  0  0
  189.0270  176.9050  142.5060 C   0  0  2  0  0  3  0  0  0  0  0  0
  187.9350  178.5390  138.1440 C   0  0  0  0  0  2  0  0  0  0  0  0
  189.7830  176.9480  138.8590 C   0  0  2  0  0  3  0  0  0  0  0  0
  190.2630  175.0760  137.6960 C   0  0  0  0  0  2  0  0  0  0  0  0
  185.4890  178.5630  140.8810 O   0  0  0  0  0  0  0  0  0  0  0  0
  186.6980  178.6700  138.9010 N   0  0  0  0  0  2  0  0  0  0  0  0
  190.0800  175.5810  138.9980 O   0  0  0  0  0  0  0  0  0  0  0  0
  190.0560  175.7900  142.3710 C   0  0  0  0  0  2  0  0  0  0  0  0
  186.6200  178.6310  140.3320 C   0  0  0  0  0  0  0  0  0  0  0  0
  189.8790  177.6750  140.2110 C   0  0  2  0  0  3  0  0  0  0  0  0
  188.9510  175.1400  136.8960 C   0  0  1  0  0  3  0  0  0  0  0  0
  191.2680  177.5830  140.9040 C   0  0  1  0  0  0  0  0  0  0  0  0
  187.9160  174.1780  137.4670 C   0  0  0  0  0  2  0  0  0  0  0  0
  188.0730  172.8040  136.8440 C   0  0  0  0  0  1  0  0  0  0  0  0
  191.4190  178.7890  141.8600 C   0  0  0  0  0  2  0  0  0  0  0  0
  192.0560  178.4300  143.2010 C   0  0  0  0  0  2  0  0  0  0  0  0
  191.2240  177.7030  145.4130 C   0  0  0  0  0  1  0  0  0  0  0  0
  191.1340  178.7790  144.3510 C   0  0  0  0  0  2  0  0  0  0  0  0
  192.2730  177.6070  139.8970 O   0  0  0  0  0  0  0  0  0  0  0  0
  193.3400  176.7540  140.2380 C   0  0  0  0  0  2  0  0  0  0  0  0
  193.8280  176.0380  138.9970 C   0  0  0  0  0  2  0  0  0  0  0  0
  193.7050  175.9770  136.5300 C   0  0  0  0  0  1  0  0  0  0  0  0
  193.3090  176.7520  137.7680 C   0  0  0  0  0  2  0  0  0  0  0  0
  187.7900  176.3730  143.2120 C   0  0  0  0  0  2  0  0  0  0  0  0
  187.8170  176.7540  144.6830 C   0  0  0  0  0  2  0  0  0  0  0  0
  186.4020  177.9290  146.4900 C   0  0  0  0  0  2  0  0  0  0  0  0
  186.5870  177.5130  145.0480 C   0  0  0  0  0  0  0  0  0  0  0  0
  185.7260  177.8720  144.0900 C   0  0  0  0  0  3  0  0  0  0  0  0
  183.7220  178.9860  143.5090 O   0  0  0  0  0  0  0  0  0  0  0  0
  184.2330  178.9700  145.8170 C   0  0  0  0  0  3  0  0  0  0  0  0
  184.5180  178.6350  144.4190 C   0  0  0  0  0  0  0  0  0  0  0  0
  185.0960  178.6310  146.7770 C   0  0  0  0  0  3  0  0  0  0  0  0
  2 13  1  0  0  0  0
  3 16  1  0  0  0  0
  3  5  1  0  0  0  0
  4  1  1  1  0  0  0
  4  6  1  0  0  0  0
  5  7  1  6  0  0  0
  5  8  1  0  0  0  0
  6 29  1  6  0  0  0
  7 11  1  0  0  0  0
  8 12  1  1  0  0  0
  8 15  1  0  0  0  0
  9 12  1  0  0  0  0
 11 14  1  0  0  0  0
 13  6  1  0  0  0  0
 14 10  2  0  0  0  0
 14  1  1  0  0  0  0
 15 17  1  0  0  0  0
 15  4  1  0  0  0  0
 16 18  1  0  0  0  0
 16  9  1  0  0  0  0
 17  2  1  0  0  0  0
 17 20  1  0  0  0  0
 19 18  1  0  0  0  0
 20 21  1  0  0  0  0
 21 23  1  0  0  0  0
 23 22  1  0  0  0  0
 24 25  1  0  0  0  0
 24 17  1  0  0  0  0
 26 25  1  0  0  0  0
 27 28  1  0  0  0  0
 28 26  1  0  0  0  0
 29 30  1  0  0  0  0
 30 32  1  0  0  0  0
 31 37  1  0  0  0  0
 32 31  1  0  0  0  0
 33 36  1  0  0  0  0
 33 32  2  0  0  0  0
 34 36  2  0  0  0  0
 35 37  2  0  0  0  0
 36 35  1  0  0  0  0
M  END
>  <MODEL>
3

>  <REMARK>
 VINA RESULT:      -5.3      2.460      4.976
  Name = 
  11 active torsions:
  status: ('A' for Active; 'I' for Inactive)
    1  A    between atoms: C_1  and  C_5
    2  A    between atoms: C_1  and  C_36
    3  A    between atoms: C_3  and  C_32
    4  A    between atoms: C_5  and  C_23
    5  A    between atoms: C_6  and  C_31
    6  A    between atoms: C_14  and  C_37
    7  A    between atoms: C_17  and  C_26
    8  A    between atoms: C_17  and  O_33
    9  A    between atoms: C_26  and  C_34
   10  A    between atoms: C_31  and  C_37
   11  A    between atoms: O_33  and  C_36
                            x       y       z     vdW  Elec       q    Type
                         _______ _______ _______ _____ _____    ______ ____

>  <TORSDO>
F 11

$$$$
=
 OpenBabel10262422553D

 37 40  0  0  1  0  0  0  0  0999 V2000
  183.5390  177.4400  137.5240 C   0  0  0  0  0  2  0  0  0  0  0  0
  180.3370  177.2770  140.4060 C   0  0  0  0  0  2  0  0  0  0  0  0
  185.4320  179.5840  141.5060 N   0  0  0  0  0  2  0  0  0  0  0  0
  182.9280  177.1550  138.8890 C   0  0  2  0  0  3  0  0  0  0  0  0
  184.7220  178.9320  140.4040 C   0  0  2  0  0  3  0  0  0  0  0  0
  181.8740  176.0510  138.7990 C   0  0  2  0  0  3  0  0  0  0  0  0
  185.1120  179.5620  139.0750 C   0  0  0  0  0  2  0  0  0  0  0  0
  183.2070  178.9920  140.6570 C   0  0  2  0  0  3  0  0  0  0  0  0
  183.4730  178.9940  142.8970 C   0  0  0  0  0  2  0  0  0  0  0  0
  185.6910  176.5600  137.0440 O   0  0  0  0  0  0  0  0  0  0  0  0
  185.7400  178.5540  138.2340 N   0  0  0  0  0  2  0  0  0  0  0  0
  182.9130  178.2700  141.8270 O   0  0  0  0  0  0  0  0  0  0  0  0
  181.1060  175.9840  140.1130 C   0  0  0  0  0  2  0  0  0  0  0  0
  185.0350  177.4840  137.5920 C   0  0  0  0  0  0  0  0  0  0  0  0
  182.3790  178.4770  139.4670 C   0  0  2  0  0  3  0  0  0  0  0  0
  185.0070  179.0190  142.7950 C   0  0  1  0  0  3  0  0  0  0  0  0
  180.8390  178.5470  139.6650 C   0  0  1  0  0  0  0  0  0  0  0  0
  185.5910  177.6280  143.0130 C   0  0  0  0  0  2  0  0  0  0  0  0
  186.5110  177.6260  144.2180 C   0  0  0  0  0  1  0  0  0  0  0  0
  180.1680  178.6010  138.2730 C   0  0  0  0  0  2  0  0  0  0  0  0
  180.6750  179.7430  137.3950 C   0  0  0  0  0  2  0  0  0  0  0  0
  180.3470  177.8870  135.7940 C   0  0  0  0  0  1  0  0  0  0  0  0
  180.6080  179.3730  135.9270 C   0  0  0  0  0  2  0  0  0  0  0  0
  180.5360  179.7160  140.4180 O   0  0  0  0  0  0  0  0  0  0  0  0
  179.4530  179.4820  141.2860 C   0  0  0  0  0  2  0  0  0  0  0  0
  179.6050  180.3400  142.5230 C   0  0  0  0  0  2  0  0  0  0  0  0
  179.9480  178.3990  144.0140 C   0  0  0  0  0  1  0  0  0  0  0  0
  179.0640  179.5930  143.7230 C   0  0  0  0  0  2  0  0  0  0  0  0
  182.5460  174.7130  138.5340 C   0  0  0  0  0  2  0  0  0  0  0  0
  181.9250  174.0420  137.3190 C   0  0  0  0  0  2  0  0  0  0  0  0
  182.5010  171.5670  136.8850 C   0  0  0  0  0  2  0  0  0  0  0  0
  182.8580  173.0310  136.7490 C   0  0  0  0  0  0  0  0  0  0  0  0
  183.9360  173.4370  136.0690 C   0  0  0  0  0  3  0  0  0  0  0  0
  185.8630  172.8530  134.8270 O   0  0  0  0  0  0  0  0  0  0  0  0
  184.6220  171.0300  135.6790 C   0  0  0  0  0  3  0  0  0  0  0  0
  184.8610  172.4620  135.4820 C   0  0  0  0  0  0  0  0  0  0  0  0
  183.5390  170.6150  136.3400 C   0  0  0  0  0  3  0  0  0  0  0  0
  1 14  1  0  0  0  0
  3 16  1  0  0  0  0
  4  1  1  6  0  0  0
  4 15  1  0  0  0  0
  5  7  1  6  0  0  0
  5  8  1  0  0  0  0
  5  3  1  0  0  0  0
  6 29  1  1  0  0  0
  6  4  1  0  0  0  0
  6 13  1  0  0  0  0
  8 12  1  1  0  0  0
 10 14  2  0  0  0  0
 11  7  1  0  0  0  0
 12  9  1  0  0  0  0
 13  2  1  0  0  0  0
 14 11  1  0  0  0  0
 15 17  1  0  0  0  0
 15  8  1  0  0  0  0
 16  9  1  0  0  0  0
 16 18  1  0  0  0  0
 17  2  1  0  0  0  0
 17 24  1  0  0  0  0
 18 19  1  0  0  0  0
 20 17  1  0  0  0  0
 21 20  1  0  0  0  0
 22 23  1  0  0  0  0
 23 21  1  0  0  0  0
 24 25  1  0  0  0  0
 25 26  1  0  0  0  0
 26 28  1  0  0  0  0
 28 27  1  0  0  0  0
 30 29  1  0  0  0  0
 32 31  1  0  0  0  0
 32 30  1  0  0  0  0
 33 32  2  0  0  0  0
 34 36  2  0  0  0  0
 35 37  2  0  0  0  0
 36 35  1  0  0  0  0
 36 33  1  0  0  0  0
 37 31  1  0  0  0  0
M  END
>  <MODEL>
4

>  <REMARK>
 VINA RESULT:      -5.1      5.673     10.608
  Name = 
  11 active torsions:
  status: ('A' for Active; 'I' for Inactive)
    1  A    between atoms: C_1  and  C_5
    2  A    between atoms: C_1  and  C_36
    3  A    between atoms: C_3  and  C_32
    4  A    between atoms: C_5  and  C_23
    5  A    between atoms: C_6  and  C_31
    6  A    between atoms: C_14  and  C_37
    7  A    between atoms: C_17  and  C_26
    8  A    between atoms: C_17  and  O_33
    9  A    between atoms: C_26  and  C_34
   10  A    between atoms: C_31  and  C_37
   11  A    between atoms: O_33  and  C_36
                            x       y       z     vdW  Elec       q    Type
                         _______ _______ _______ _____ _____    ______ ____

>  <TORSDO>
F 11

$$$$
=
 OpenBabel10262422553D

 37 40  0  0  1  0  0  0  0  0999 V2000
  183.4750  175.6610  138.2650 C   0  0  0  0  0  2  0  0  0  0  0  0
  183.5890  179.7450  139.6380 C   0  0  0  0  0  2  0  0  0  0  0  0
  179.3150  177.5970  136.5380 N   0  0  0  0  0  2  0  0  0  0  0  0
  183.3620  177.1700  138.1060 C   0  0  2  0  0  3  0  0  0  0  0  0
  180.5850  177.1680  137.1290 C   0  0  2  0  0  3  0  0  0  0  0  0
  184.7050  177.8520  138.3670 C   0  0  2  0  0  3  0  0  0  0  0  0
  180.4790  175.7350  137.6280 C   0  0  0  0  0  2  0  0  0  0  0  0
  180.9940  178.1470  138.2420 C   0  0  2  0  0  3  0  0  0  0  0  0
  179.9470  179.8810  137.2500 C   0  0  0  0  0  2  0  0  0  0  0  0
  183.6000  174.3250  136.3060 O   0  0  0  0  0  0  0  0  0  0  0  0
  181.4320  174.9060  136.9050 N   0  0  0  0  0  2  0  0  0  0  0  0
  181.2060  179.4160  137.6750 O   0  0  0  0  0  0  0  0  0  0  0  0
  184.4930  179.3570  138.4630 C   0  0  0  0  0  2  0  0  0  0  0  0
  182.8510  174.9410  137.1100 C   0  0  0  0  0  0  0  0  0  0  0  0
  182.2320  177.6780  139.0270 C   0  0  2  0  0  3  0  0  0  0  0  0
  179.3960  179.0030  136.1140 C   0  0  1  0  0  3  0  0  0  0  0  0
  182.6660  178.6220  140.1830 C   0  0  1  0  0  0  0  0  0  0  0  0
  180.2340  179.1560  134.8510 C   0  0  0  0  0  2  0  0  0  0  0  0
  180.5460  180.6180  134.5980 C   0  0  0  0  0  1  0  0  0  0  0  0
  183.4600  177.7920  141.2190 C   0  0  0  0  0  2  0  0  0  0  0  0
  184.4020  178.6300  142.0810 C   0  0  0  0  0  2  0  0  0  0  0  0
  183.5480  179.4280  144.2600 C   0  0  0  0  0  1  0  0  0  0  0  0
  184.2460  178.2880  143.5490 C   0  0  0  0  0  2  0  0  0  0  0  0
  181.4960  179.1780  140.7710 O   0  0  0  0  0  0  0  0  0  0  0  0
  180.8560  178.2340  141.5960 C   0  0  0  0  0  2  0  0  0  0  0  0
  179.6690  178.8820  142.2750 C   0  0  0  0  0  2  0  0  0  0  0  0
  178.9360  179.7480  144.4710 C   0  0  0  0  0  1  0  0  0  0  0  0
  179.7950  178.7140  143.7750 C   0  0  0  0  0  2  0  0  0  0  0  0
  185.6720  177.5450  137.2340 C   0  0  0  0  0  2  0  0  0  0  0  0
  186.8200  178.5410  137.2350 C   0  0  0  0  0  2  0  0  0  0  0  0
  187.9460  178.1590  139.5230 C   0  0  0  0  0  2  0  0  0  0  0  0
  187.9710  178.0080  138.0180 C   0  0  0  0  0  0  0  0  0  0  0  0
  188.9480  177.3480  137.3870 C   0  0  0  0  0  3  0  0  0  0  0  0
  190.9870  176.1600  137.5380 O   0  0  0  0  0  0  0  0  0  0  0  0
  190.1640  177.0110  139.5840 C   0  0  0  0  0  3  0  0  0  0  0  0
  190.0810  176.7970  138.1370 C   0  0  0  0  0  0  0  0  0  0  0  0
  189.1840  177.6540  140.2240 C   0  0  0  0  0  3  0  0  0  0  0  0
  2 17  1  0  0  0  0
  3  5  1  0  0  0  0
  4  1  1  1  0  0  0
  4  6  1  0  0  0  0
  4 15  1  0  0  0  0
  5  7  1  1  0  0  0
  5  8  1  0  0  0  0
  6 29  1  6  0  0  0
  6 13  1  0  0  0  0
  8 12  1  6  0  0  0
  8 15  1  0  0  0  0
  9 12  1  0  0  0  0
 10 14  2  0  0  0  0
 11 14  1  0  0  0  0
 11  7  1  0  0  0  0
 13  2  1  0  0  0  0
 14  1  1  0  0  0  0
 15 17  1  0  0  0  0
 16  3  1  0  0  0  0
 16  9  1  0  0  0  0
 17 24  1  0  0  0  0
 17 20  1  0  0  0  0
 18 16  1  0  0  0  0
 19 18  1  0  0  0  0
 20 21  1  0  0  0  0
 21 23  1  0  0  0  0
 23 22  1  0  0  0  0
 24 25  1  0  0  0  0
 25 26  1  0  0  0  0
 26 28  1  0  0  0  0
 28 27  1  0  0  0  0
 29 30  1  0  0  0  0
 30 32  1  0  0  0  0
 31 37  1  0  0  0  0
 32 31  1  0  0  0  0
 33 32  2  0  0  0  0
 33 36  1  0  0  0  0
 34 36  2  0  0  0  0
 35 37  2  0  0  0  0
 36 35  1  0  0  0  0
M  END
>  <MODEL>
5

>  <REMARK>
 VINA RESULT:      -4.9      4.831      9.614
  Name = 
  11 active torsions:
  status: ('A' for Active; 'I' for Inactive)
    1  A    between atoms: C_1  and  C_5
    2  A    between atoms: C_1  and  C_36
    3  A    between atoms: C_3  and  C_32
    4  A    between atoms: C_5  and  C_23
    5  A    between atoms: C_6  and  C_31
    6  A    between atoms: C_14  and  C_37
    7  A    between atoms: C_17  and  C_26
    8  A    between atoms: C_17  and  O_33
    9  A    between atoms: C_26  and  C_34
   10  A    between atoms: C_31  and  C_37
   11  A    between atoms: O_33  and  C_36
                            x       y       z     vdW  Elec       q    Type
                         _______ _______ _______ _____ _____    ______ ____

>  <TORSDO>
F 11

$$$$
=
 OpenBabel10262422553D

 37 40  0  0  1  0  0  0  0  0999 V2000
  183.0610  175.8170  139.1300 C   0  0  0  0  0  2  0  0  0  0  0  0
  184.4360  179.7500  140.2370 C   0  0  0  0  0  2  0  0  0  0  0  0
  178.9310  178.2800  140.0830 N   0  0  0  0  0  2  0  0  0  0  0  0
  183.0690  177.3380  139.0780 C   0  0  2  0  0  3  0  0  0  0  0  0
  180.2470  177.6840  139.8460 C   0  0  2  0  0  3  0  0  0  0  0  0
  184.3990  177.8630  138.5390 C   0  0  2  0  0  3  0  0  0  0  0  0
  180.2620  176.2330  140.3040 C   0  0  0  0  0  2  0  0  0  0  0  0
  181.3290  178.5280  140.5410 C   0  0  2  0  0  3  0  0  0  0  0  0
  180.1320  180.4280  140.3340 C   0  0  0  0  0  2  0  0  0  0  0  0
  181.8970  174.6350  137.4330 O   0  0  0  0  0  0  0  0  0  0  0  0
  180.5330  175.3750  139.1600 N   0  0  0  0  0  2  0  0  0  0  0  0
  181.3440  179.8100  139.9660 O   0  0  0  0  0  0  0  0  0  0  0  0
  184.4670  179.3690  138.7530 C   0  0  0  0  0  2  0  0  0  0  0  0
  181.8120  175.2550  138.5250 C   0  0  0  0  0  0  0  0  0  0  0  0
  182.7240  177.8800  140.4820 C   0  0  2  0  0  3  0  0  0  0  0  0
  178.9350  179.7000  139.7010 C   0  0  1  0  0  3  0  0  0  0  0  0
  183.8460  178.6830  141.1980 C   0  0  1  0  0  0  0  0  0  0  0  0
  178.9310  179.8700  138.1870 C   0  0  0  0  0  2  0  0  0  0  0  0
  179.8960  180.9640  137.7760 C   0  0  0  0  0  1  0  0  0  0  0  0
  184.9730  177.7000  141.5940 C   0  0  0  0  0  2  0  0  0  0  0  0
  186.3720  178.3060  141.5000 C   0  0  0  0  0  2  0  0  0  0  0  0
  188.6450  178.3750  142.4710 C   0  0  0  0  0  1  0  0  0  0  0  0
  187.3160  177.6500  142.4880 C   0  0  0  0  0  2  0  0  0  0  0  0
  183.2880  179.3030  142.3510 O   0  0  0  0  0  0  0  0  0  0  0  0
  183.5510  178.5390  143.5030 C   0  0  0  0  0  2  0  0  0  0  0  0
  184.0290  179.4510  144.6130 C   0  0  0  0  0  2  0  0  0  0  0  0
  184.9870  178.2610  146.5550 C   0  0  0  0  0  1  0  0  0  0  0  0
  185.2990  178.8880  145.2130 C   0  0  0  0  0  2  0  0  0  0  0  0
  184.5160  177.5540  137.0540 C   0  0  0  0  0  2  0  0  0  0  0  0
  185.7000  176.6370  136.7970 C   0  0  0  0  0  2  0  0  0  0  0  0
  187.3480  178.6160  136.6810 C   0  0  0  0  0  2  0  0  0  0  0  0
  186.9640  177.2750  137.2640 C   0  0  0  0  0  0  0  0  0  0  0  0
  187.6780  176.6910  138.2320 C   0  0  0  0  0  3  0  0  0  0  0  0
  189.5720  176.7620  139.6470 O   0  0  0  0  0  0  0  0  0  0  0  0
  189.3930  178.5520  138.1140 C   0  0  0  0  0  3  0  0  0  0  0  0
  188.9150  177.3080  138.7220 C   0  0  0  0  0  0  0  0  0  0  0  0
  188.6770  179.1500  137.1600 C   0  0  0  0  0  3  0  0  0  0  0  0
  2 17  1  0  0  0  0
  4  1  1  1  0  0  0
  4 15  1  0  0  0  0
  5  3  1  0  0  0  0
  5  7  1  1  0  0  0
  5  8  1  0  0  0  0
  6 29  1  6  0  0  0
  6 13  1  0  0  0  0
  6  4  1  0  0  0  0
  8 12  1  6  0  0  0
 10 14  2  0  0  0  0
 11  7  1  0  0  0  0
 12  9  1  0  0  0  0
 13  2  1  0  0  0  0
 14  1  1  0  0  0  0
 14 11  1  0  0  0  0
 15  8  1  0  0  0  0
 15 17  1  0  0  0  0
 16  3  1  0  0  0  0
 16  9  1  0  0  0  0
 17 20  1  0  0  0  0
 17 24  1  0  0  0  0
 18 16  1  0  0  0  0
 19 18  1  0  0  0  0
 21 20  1  0  0  0  0
 21 23  1  0  0  0  0
 22 23  1  0  0  0  0
 24 25  1  0  0  0  0
 25 26  1  0  0  0  0
 26 28  1  0  0  0  0
 28 27  1  0  0  0  0
 30 29  1  0  0  0  0
 30 32  1  0  0  0  0
 31 37  1  0  0  0  0
 31 32  1  0  0  0  0
 32 33  2  0  0  0  0
 33 36  1  0  0  0  0
 35 36  1  0  0  0  0
 36 34  2  0  0  0  0
 37 35  2  0  0  0  0
M  END
>  <MODEL>
6

>  <REMARK>
 VINA RESULT:      -4.9      4.596      9.148
  Name = 
  11 active torsions:
  status: ('A' for Active; 'I' for Inactive)
    1  A    between atoms: C_1  and  C_5
    2  A    between atoms: C_1  and  C_36
    3  A    between atoms: C_3  and  C_32
    4  A    between atoms: C_5  and  C_23
    5  A    between atoms: C_6  and  C_31
    6  A    between atoms: C_14  and  C_37
    7  A    between atoms: C_17  and  C_26
    8  A    between atoms: C_17  and  O_33
    9  A    between atoms: C_26  and  C_34
   10  A    between atoms: C_31  and  C_37
   11  A    between atoms: O_33  and  C_36
                            x       y       z     vdW  Elec       q    Type
                         _______ _______ _______ _____ _____    ______ ____

>  <TORSDO>
F 11

$$$$
=
 OpenBabel10262422553D

 37 40  0  0  1  0  0  0  0  0999 V2000
  187.8120  178.6280  141.5330 C   0  0  0  0  0  2  0  0  0  0  0  0
  191.3170  176.1250  141.7090 C   0  0  0  0  0  2  0  0  0  0  0  0
  188.0810  176.6680  137.0480 N   0  0  0  0  0  2  0  0  0  0  0  0
  188.5960  177.3400  141.3270 C   0  0  2  0  0  3  0  0  0  0  0  0
  188.1460  177.1720  138.4210 C   0  0  2  0  0  3  0  0  0  0  0  0
  189.0490  176.7520  142.6630 C   0  0  2  0  0  3  0  0  0  0  0  0
  187.7050  178.6280  138.4720 C   0  0  0  0  0  2  0  0  0  0  0  0
  189.5640  176.9710  138.9800 C   0  0  2  0  0  3  0  0  0  0  0  0
  189.9290  175.1540  137.6950 C   0  0  0  0  0  2  0  0  0  0  0  0
  185.4460  178.5510  141.3640 O   0  0  0  0  0  0  0  0  0  0  0  0
  186.5240  178.7400  139.3160 N   0  0  0  0  0  2  0  0  0  0  0  0
  189.8420  175.5940  139.0300 O   0  0  0  0  0  0  0  0  0  0  0  0
  190.0440  175.6280  142.4040 C   0  0  0  0  0  2  0  0  0  0  0  0
  186.5390  178.6280  140.7440 C   0  0  0  0  0  0  0  0  0  0  0  0
  189.7640  177.6250  140.3580 C   0  0  2  0  0  3  0  0  0  0  0  0
  188.5690  175.2810  136.9890 C   0  0  1  0  0  3  0  0  0  0  0  0
  191.1930  177.4740  140.9510 C   0  0  1  0  0  0  0  0  0  0  0  0
  187.5540  174.3080  137.5780 C   0  0  0  0  0  2  0  0  0  0  0  0
  186.2170  174.4530  136.8790 C   0  0  0  0  0  1  0  0  0  0  0  0
  191.4310  178.6270  141.9550 C   0  0  0  0  0  2  0  0  0  0  0  0
  192.0960  178.1780  143.2540 C   0  0  0  0  0  2  0  0  0  0  0  0
  190.5550  179.9740  143.9710 C   0  0  0  0  0  1  0  0  0  0  0  0
  191.6810  179.0620  144.4120 C   0  0  0  0  0  2  0  0  0  0  0  0
  192.1300  177.5330  139.8820 O   0  0  0  0  0  0  0  0  0  0  0  0
  193.3130  176.8490  140.2180 C   0  0  0  0  0  2  0  0  0  0  0  0
  193.8680  176.1680  138.9860 C   0  0  0  0  0  2  0  0  0  0  0  0
  193.4490  175.8040  136.5780 C   0  0  0  0  0  1  0  0  0  0  0  0
  193.1790  176.7170  137.7550 C   0  0  0  0  0  2  0  0  0  0  0  0
  187.8500  176.2050  143.4220 C   0  0  0  0  0  2  0  0  0  0  0  0
  187.1490  177.3230  144.1770 C   0  0  0  0  0  2  0  0  0  0  0  0
  186.8760  178.0520  146.6350 C   0  0  0  0  0  2  0  0  0  0  0  0
  187.7460  177.4910  145.5320 C   0  0  0  0  0  0  0  0  0  0  0  0
  188.9960  177.0730  145.7580 C   0  0  0  0  0  3  0  0  0  0  0  0
  190.7710  176.7970  147.2960 O   0  0  0  0  0  0  0  0  0  0  0  0
  188.8410  177.8490  148.1640 C   0  0  0  0  0  3  0  0  0  0  0  0
  189.6010  177.2100  147.0870 C   0  0  0  0  0  0  0  0  0  0  0  0
  187.5860  178.2520  147.9520 C   0  0  0  0  0  3  0  0  0  0  0  0
  2 13  1  0  0  0  0
  3  5  1  0  0  0  0
  4  1  1  1  0  0  0
  4  6  1  0  0  0  0
  5  7  1  6  0  0  0
  5  8  1  0  0  0  0
  6 29  1  6  0  0  0
  7 11  1  0  0  0  0
  8 12  1  1  0  0  0
  8 15  1  0  0  0  0
  9 12  1  0  0  0  0
 11 14  1  0  0  0  0
 13  6  1  0  0  0  0
 14 10  2  0  0  0  0
 14  1  1  0  0  0  0
 15 17  1  0  0  0  0
 15  4  1  0  0  0  0
 16  3  1  0  0  0  0
 16 18  1  0  0  0  0
 16  9  1  0  0  0  0
 17  2  1  0  0  0  0
 17 20  1  0  0  0  0
 19 18  1  0  0  0  0
 20 21  1  0  0  0  0
 21 23  1  0  0  0  0
 22 23  1  0  0  0  0
 24 25  1  0  0  0  0
 24 17  1  0  0  0  0
 26 25  1  0  0  0  0
 27 28  1  0  0  0  0
 28 26  1  0  0  0  0
 29 30  1  0  0  0  0
 30 32  1  0  0  0  0
 31 37  1  0  0  0  0
 32 33  2  0  0  0  0
 32 31  1  0  0  0  0
 33 36  1  0  0  0  0
 36 34  2  0  0  0  0
 36 35  1  0  0  0  0
 37 35  2  0  0  0  0
M  END
>  <MODEL>
7

>  <REMARK>
 VINA RESULT:      -4.9      2.982      5.277
  Name = 
  11 active torsions:
  status: ('A' for Active; 'I' for Inactive)
    1  A    between atoms: C_1  and  C_5
    2  A    between atoms: C_1  and  C_36
    3  A    between atoms: C_3  and  C_32
    4  A    between atoms: C_5  and  C_23
    5  A    between atoms: C_6  and  C_31
    6  A    between atoms: C_14  and  C_37
    7  A    between atoms: C_17  and  C_26
    8  A    between atoms: C_17  and  O_33
    9  A    between atoms: C_26  and  C_34
   10  A    between atoms: C_31  and  C_37
   11  A    between atoms: O_33  and  C_36
                            x       y       z     vdW  Elec       q    Type
                         _______ _______ _______ _____ _____    ______ ____

>  <TORSDO>
F 11

$$$$
=
 OpenBabel10262422553D

 37 40  0  0  1  0  0  0  0  0999 V2000
  189.2140  178.1220  136.4260 C   0  0  0  0  0  2  0  0  0  0  0  0
  191.2490  174.3840  137.1130 C   0  0  0  0  0  2  0  0  0  0  0  0
  185.9690  174.7370  134.9930 N   0  0  0  0  0  2  0  0  0  0  0  0
  189.3380  176.6980  136.9490 C   0  0  2  0  0  3  0  0  0  0  0  0
  187.0450  175.6200  135.4490 C   0  0  2  0  0  3  0  0  0  0  0  0
  190.4160  176.6010  138.0290 C   0  0  2  0  0  3  0  0  0  0  0  0
  187.0980  176.8770  134.5940 C   0  0  0  0  0  2  0  0  0  0  0  0
  188.3790  174.8540  135.4460 C   0  0  2  0  0  3  0  0  0  0  0  0
  187.3670  172.8760  135.8310 C   0  0  0  0  0  2  0  0  0  0  0  0
  187.4030  179.4520  137.1920 O   0  0  0  0  0  0  0  0  0  0  0  0
  186.8470  178.0380  135.4360 N   0  0  0  0  0  2  0  0  0  0  0  0
  188.2950  173.7920  136.3630 O   0  0  0  0  0  0  0  0  0  0  0  0
  190.6940  175.1340  138.3300 C   0  0  0  0  0  2  0  0  0  0  0  0
  187.7840  178.5660  136.3830 C   0  0  0  0  0  0  0  0  0  0  0  0
  189.5880  175.7550  135.7530 C   0  0  2  0  0  3  0  0  0  0  0  0
  185.9600  173.4940  135.7770 C   0  0  1  0  0  3  0  0  0  0  0  0
  190.9630  175.0300  135.7310 C   0  0  1  0  0  0  0  0  0  0  0  0
  185.4110  173.7240  137.1800 C   0  0  0  0  0  2  0  0  0  0  0  0
  184.6550  172.5000  137.6580 C   0  0  0  0  0  1  0  0  0  0  0  0
  192.0630  176.0780  135.4400 C   0  0  0  0  0  2  0  0  0  0  0  0
  193.4260  175.7090  136.0210 C   0  0  0  0  0  2  0  0  0  0  0  0
  195.6940  176.3330  135.2570 C   0  0  0  0  0  1  0  0  0  0  0  0
  194.4550  175.5280  134.9240 C   0  0  0  0  0  2  0  0  0  0  0  0
  190.9290  174.0360  134.7130 O   0  0  0  0  0  0  0  0  0  0  0  0
  191.3460  172.7910  135.2200 C   0  0  0  0  0  2  0  0  0  0  0  0
  192.6700  172.4110  134.5940 C   0  0  0  0  0  2  0  0  0  0  0  0
  194.9350  171.8200  135.3880 C   0  0  0  0  0  1  0  0  0  0  0  0
  193.4550  171.5510  135.5610 C   0  0  0  0  0  2  0  0  0  0  0  0
  189.9460  177.3000  139.2950 C   0  0  0  0  0  2  0  0  0  0  0  0
  191.1100  177.4950  140.2530 C   0  0  0  0  0  2  0  0  0  0  0  0
  189.2320  177.7590  142.0000 C   0  0  0  0  0  2  0  0  0  0  0  0
  190.6510  177.3580  141.6650 C   0  0  0  0  0  0  0  0  0  0  0  0
  191.4680  176.8160  142.5740 C   0  0  0  0  0  3  0  0  0  0  0  0
  191.8030  176.1240  144.8110 O   0  0  0  0  0  0  0  0  0  0  0  0
  189.7080  177.1270  144.3690 C   0  0  0  0  0  3  0  0  0  0  0  0
  191.0340  176.6520  143.9650 C   0  0  0  0  0  0  0  0  0  0  0  0
  188.8790  177.6520  143.4640 C   0  0  0  0  0  3  0  0  0  0  0  0
  2 13  1  0  0  0  0
  3  5  1  0  0  0  0
  3 16  1  0  0  0  0
  4  1  1  6  0  0  0
  4  6  1  0  0  0  0
  5  7  1  6  0  0  0
  6 13  1  0  0  0  0
  6 29  1  1  0  0  0
  7 11  1  0  0  0  0
  8  5  1  0  0  0  0
  8 15  1  0  0  0  0
  8 12  1  1  0  0  0
  9 12  1  0  0  0  0
 11 14  1  0  0  0  0
 14  1  1  0  0  0  0
 14 10  2  0  0  0  0
 15  4  1  0  0  0  0
 16  9  1  0  0  0  0
 16 18  1  0  0  0  0
 17 15  1  0  0  0  0
 17  2  1  0  0  0  0
 18 19  1  0  0  0  0
 20 17  1  0  0  0  0
 20 21  1  0  0  0  0
 23 22  1  0  0  0  0
 23 21  1  0  0  0  0
 24 25  1  0  0  0  0
 24 17  1  0  0  0  0
 26 25  1  0  0  0  0
 26 28  1  0  0  0  0
 27 28  1  0  0  0  0
 29 30  1  0  0  0  0
 30 32  1  0  0  0  0
 31 37  1  0  0  0  0
 32 31  1  0  0  0  0
 32 33  2  0  0  0  0
 33 36  1  0  0  0  0
 36 35  1  0  0  0  0
 36 34  2  0  0  0  0
 37 35  2  0  0  0  0
M  END
>  <MODEL>
8

>  <REMARK>
 VINA RESULT:      -4.9      1.650      2.025
  Name = 
  11 active torsions:
  status: ('A' for Active; 'I' for Inactive)
    1  A    between atoms: C_1  and  C_5
    2  A    between atoms: C_1  and  C_36
    3  A    between atoms: C_3  and  C_32
    4  A    between atoms: C_5  and  C_23
    5  A    between atoms: C_6  and  C_31
    6  A    between atoms: C_14  and  C_37
    7  A    between atoms: C_17  and  C_26
    8  A    between atoms: C_17  and  O_33
    9  A    between atoms: C_26  and  C_34
   10  A    between atoms: C_31  and  C_37
   11  A    between atoms: O_33  and  C_36
                            x       y       z     vdW  Elec       q    Type
                         _______ _______ _______ _____ _____    ______ ____

>  <TORSDO>
F 11

$$$$
=
 OpenBabel10262422553D

 37 40  0  0  1  0  0  0  0  0999 V2000
  181.3190  177.5010  136.8730 C   0  0  0  0  0  2  0  0  0  0  0  0
  181.9090  179.2420  140.7730 C   0  0  0  0  0  2  0  0  0  0  0  0
  179.0850  181.8550  136.5680 N   0  0  0  0  0  2  0  0  0  0  0  0
  181.7050  178.6100  137.8420 C   0  0  2  0  0  3  0  0  0  0  0  0
  179.7820  180.5920  136.8210 C   0  0  2  0  0  3  0  0  0  0  0  0
  182.9160  178.2060  138.6840 C   0  0  2  0  0  3  0  0  0  0  0  0
  179.0780  179.4460  136.1110 C   0  0  0  0  0  2  0  0  0  0  0  0
  179.8970  180.3590  138.3370 C   0  0  2  0  0  3  0  0  0  0  0  0
  179.9240  182.5700  138.7820 C   0  0  0  0  0  2  0  0  0  0  0  0
  181.9430  177.7250  134.5940 O   0  0  0  0  0  0  0  0  0  0  0  0
  179.9880  178.8520  135.1430 N   0  0  0  0  0  2  0  0  0  0  0  0
  180.6770  181.3860  138.8960 O   0  0  0  0  0  0  0  0  0  0  0  0
  183.1020  179.2150  139.8100 C   0  0  0  0  0  2  0  0  0  0  0  0
  181.1120  178.0320  135.4880 C   0  0  0  0  0  0  0  0  0  0  0  0
  180.4680  178.9750  138.6890 C   0  0  2  0  0  3  0  0  0  0  0  0
  179.7270  182.9520  137.3060 C   0  0  1  0  0  3  0  0  0  0  0  0
  180.5740  178.6830  140.2130 C   0  0  1  0  0  0  0  0  0  0  0  0
  181.0510  183.3540  136.6660 C   0  0  0  0  0  2  0  0  0  0  0  0
  180.8090  184.3000  135.5050 C   0  0  0  0  0  1  0  0  0  0  0  0
  180.5560  177.1500  140.4180 C   0  0  0  0  0  2  0  0  0  0  0  0
  179.2490  176.4900  139.9850 C   0  0  0  0  0  2  0  0  0  0  0  0
  180.9530  174.8950  139.1680 C   0  0  0  0  0  1  0  0  0  0  0  0
  179.4880  175.0720  139.5070 C   0  0  0  0  0  2  0  0  0  0  0  0
  179.4650  179.2920  140.8640 O   0  0  0  0  0  0  0  0  0  0  0  0
  179.8950  180.0560  141.9660 C   0  0  0  0  0  2  0  0  0  0  0  0
  179.0910  179.6710  143.1890 C   0  0  0  0  0  2  0  0  0  0  0  0
  181.0860  178.6350  144.2160 C   0  0  0  0  0  1  0  0  0  0  0  0
  179.6560  178.3970  143.7800 C   0  0  0  0  0  2  0  0  0  0  0  0
  184.1640  178.1760  137.8160 C   0  0  0  0  0  2  0  0  0  0  0  0
  185.4040  178.4020  138.6660 C   0  0  0  0  0  2  0  0  0  0  0  0
  186.5420  178.0430  136.3810 C   0  0  0  0  0  2  0  0  0  0  0  0
  186.6340  178.0770  137.8900 C   0  0  0  0  0  0  0  0  0  0  0  0
  187.7930  177.9030  138.5340 C   0  0  0  0  0  3  0  0  0  0  0  0
  190.1120  177.4570  138.4060 O   0  0  0  0  0  0  0  0  0  0  0  0
  188.9680  177.4460  136.3370 C   0  0  0  0  0  3  0  0  0  0  0  0
  189.0210  177.6000  137.7930 C   0  0  0  0  0  0  0  0  0  0  0  0
  187.8190  177.6370  135.6850 C   0  0  0  0  0  3  0  0  0  0  0  0
  3  5  1  0  0  0  0
  3 16  1  0  0  0  0
  4  1  1  6  0  0  0
  4  6  1  0  0  0  0
  4 15  1  0  0  0  0
  5  7  1  6  0  0  0
  5  8  1  0  0  0  0
  6 29  1  6  0  0  0
  6 13  1  0  0  0  0
  8 15  1  0  0  0  0
  8 12  1  6  0  0  0
  9 12  1  0  0  0  0
 10 14  2  0  0  0  0
 11 14  1  0  0  0  0
 11  7  1  0  0  0  0
 13  2  1  0  0  0  0
 14  1  1  0  0  0  0
 15 17  1  0  0  0  0
 16  9  1  0  0  0  0
 17 20  1  0  0  0  0
 17  2  1  0  0  0  0
 17 24  1  0  0  0  0
 18 16  1  0  0  0  0
 19 18  1  0  0  0  0
 21 20  1  0  0  0  0
 22 23  1  0  0  0  0
 23 21  1  0  0  0  0
 24 25  1  0  0  0  0
 25 26  1  0  0  0  0
 26 28  1  0  0  0  0
 28 27  1  0  0  0  0
 29 30  1  0  0  0  0
 31 32  1  0  0  0  0
 32 33  2  0  0  0  0
 32 30  1  0  0  0  0
 35 36  1  0  0  0  0
 36 34  2  0  0  0  0
 36 33  1  0  0  0  0
 37 35  2  0  0  0  0
 37 31  1  0  0  0  0
M  END
>  <MODEL>
9

>  <REMARK>
 VINA RESULT:      -4.7      6.084     10.927
  Name = 
  11 active torsions:
  status: ('A' for Active; 'I' for Inactive)
    1  A    between atoms: C_1  and  C_5
    2  A    between atoms: C_1  and  C_36
    3  A    between atoms: C_3  and  C_32
    4  A    between atoms: C_5  and  C_23
    5  A    between atoms: C_6  and  C_31
    6  A    between atoms: C_14  and  C_37
    7  A    between atoms: C_17  and  C_26
    8  A    between atoms: C_17  and  O_33
    9  A    between atoms: C_26  and  C_34
   10  A    between atoms: C_31  and  C_37
   11  A    between atoms: O_33  and  C_36
                            x       y       z     vdW  Elec       q    Type
                         _______ _______ _______ _____ _____    ______ ____

>  <TORSDO>
F 11

$$$$
