=
 OpenBabel10262419373D

 31 35  0  0  1  0  0  0  0  0999 V2000
  181.4990  178.0610  140.2070 C   0  0  1  0  0  3  0  0  0  0  0  0
  182.4840  178.2260  141.3560 C   0  0  1  0  0  3  0  0  0  0  0  0
  184.9160  178.6130  141.9130 C   0  0  0  0  0  2  0  0  0  0  0  0
  181.4660  176.6220  139.6520 C   0  0  1  0  0  3  0  0  0  0  0  0
  179.1660  175.9840  138.7730 C   0  0  0  0  0  1  0  0  0  0  0  0
  183.8160  178.7800  140.8660 C   0  0  0  0  0  2  0  0  0  0  0  0
  179.0010  179.0290  139.9020 C   0  0  0  0  0  2  0  0  0  0  0  0
  180.3420  179.2700  142.0440 C   0  0  1  0  0  3  0  0  0  0  0  0
  184.6200  179.3730  143.2030 C   0  0  0  0  0  2  0  0  0  0  0  0
  179.4140  178.5560  137.4200 C   0  0  0  0  0  2  0  0  0  0  0  0
  180.1400  178.4890  140.7660 C   0  0  2  0  0  0  0  0  0  0  0  0
  179.3960  179.6070  138.5360 C   0  0  2  0  0  3  0  0  0  0  0  0
  183.6260  178.5890  144.0550 C   0  0  0  0  0  2  0  0  0  0  0  0
  180.6370  177.6370  137.4210 C   0  0  0  0  0  2  0  0  0  0  0  0
  180.5650  176.4720  138.4250 C   0  0  1  0  0  3  0  0  0  0  0  0
  179.7050  177.8820  142.0850 C   0  0  0  0  0  2  0  0  0  0  0  0
  181.8440  179.2290  142.3070 C   0  0  1  0  0  3  0  0  0  0  0  0
  182.1640  178.9610  143.7790 C   0  0  0  0  0  2  0  0  0  0  0  0
  181.7320  180.0900  137.7060 C   0  0  0  0  0  1  0  0  0  0  0  0
  180.5650  180.6140  138.5280 C   0  0  1  0  0  3  0  0  0  0  0  0
  179.4770  184.5220  137.0420 C   0  0  0  0  0  0  0  0  0  0  0  0
  180.6280  182.4140  136.7540 C   0  0  0  0  0  3  0  0  0  0  0  0
  178.9310  182.4690  140.1620 C   0  0  0  0  0  1  0  0  0  0  0  0
  179.1360  185.7460  136.5740 F   0  0  0  0  0  0  0  0  0  0  0  0
  180.2790  183.6780  136.2720 C   0  0  0  0  0  3  0  0  0  0  0  0
  179.3860  182.8460  138.7930 C   0  0  0  0  0  0  0  0  0  0  0  0
  180.1680  181.9750  138.0070 C   0  0  0  0  0  0  0  0  0  0  0  0
  179.0400  184.1090  138.3030 C   0  0  0  0  0  3  0  0  0  0  0  0
  182.8550  176.1200  139.2740 C   0  0  0  0  0  2  0  0  0  0  0  0
  182.7490  175.0300  138.4090 O   0  0  0  0  0  0  0  0  0  0  0  0
  183.8760  175.1200  137.5930 C   0  0  0  0  0  1  0  0  0  0  0  0
  1 11  1  0  0  0  0
  1  2  1  0  0  0  0
  2 17  1  0  0  0  0
  3  9  1  0  0  0  0
  4  1  1  0  0  0  0
  6  2  1  0  0  0  0
  6  3  1  0  0  0  0
  7 11  1  0  0  0  0
  8 16  1  0  0  0  0
  8 17  1  0  0  0  0
  9 13  1  0  0  0  0
 10 14  1  0  0  0  0
 10 12  1  0  0  0  0
 11  8  1  0  0  0  0
 11 16  1  0  0  0  0
 12  7  1  0  0  0  0
 14 15  1  0  0  0  0
 15  5  1  0  0  0  0
 15  4  1  0  0  0  0
 17 18  1  0  0  0  0
 18 13  1  0  0  0  0
 19 20  1  0  0  0  0
 20 12  1  0  0  0  0
 21 28  1  0  0  0  0
 22 27  2  0  0  0  0
 24 21  1  0  0  0  0
 25 22  1  0  0  0  0
 25 21  2  0  0  0  0
 26 23  1  0  0  0  0
 27 20  1  0  0  0  0
 27 26  1  0  0  0  0
 28 26  2  0  0  0  0
 29  4  1  0  0  0  0
 30 29  1  0  0  0  0
 31 30  1  0  0  0  0
M  END
>  <MODEL>
1

>  <REMARK>
 VINA RESULT:      -6.2      0.000      0.000
  Name = 
  4 active torsions:
  status: ('A' for Active; 'I' for Inactive)
    1  A    between atoms: O_2  and  C_25
    2  A    between atoms: C_9  and  C_22
    3  A    between atoms: C_9  and  C_23
    4  A    between atoms: C_12  and  C_25
                            x       y       z     vdW  Elec       q    Type
                         _______ _______ _______ _____ _____    ______ ____

>  <TORSDO>
F 4

$$$$
=
 OpenBabel10262419373D

 31 35  0  0  1  0  0  0  0  0999 V2000
  181.1570  179.4680  138.4670 C   0  0  1  0  0  3  0  0  0  0  0  0
  180.7270  180.6760  137.6470 C   0  0  1  0  0  3  0  0  0  0  0  0
  180.8650  183.1930  137.5050 C   0  0  0  0  0  2  0  0  0  0  0  0
  180.2360  179.2110  139.6780 C   0  0  1  0  0  3  0  0  0  0  0  0
  180.0640  176.7370  140.2450 C   0  0  0  0  0  1  0  0  0  0  0  0
  181.5150  181.9190  138.0400 C   0  0  0  0  0  2  0  0  0  0  0  0
  182.0270  177.0420  137.6710 C   0  0  0  0  0  2  0  0  0  0  0  0
  181.1470  178.8070  136.0720 C   0  0  1  0  0  3  0  0  0  0  0  0
  180.8060  183.2270  135.9800 C   0  0  0  0  0  2  0  0  0  0  0  0
  182.9700  176.9030  140.0470 C   0  0  0  0  0  2  0  0  0  0  0  0
  181.1600  178.2890  137.4910 C   0  0  2  0  0  0  0  0  0  0  0  0
  183.2600  177.1940  138.5700 C   0  0  2  0  0  3  0  0  0  0  0  0
  179.6450  182.3690  135.4830 C   0  0  0  0  0  2  0  0  0  0  0  0
  182.2460  178.0240  140.7940 C   0  0  0  0  0  2  0  0  0  0  0  0
  180.7240  178.0690  140.5720 C   0  0  1  0  0  3  0  0  0  0  0  0
  179.9240  178.0870  136.6360 C   0  0  0  0  0  2  0  0  0  0  0  0
  181.0390  180.3230  136.1980 C   0  0  1  0  0  3  0  0  0  0  0  0
  180.0410  180.9150  135.2000 C   0  0  0  0  0  2  0  0  0  0  0  0
  184.1780  179.3660  139.4770 C   0  0  0  0  0  1  0  0  0  0  0  0
  184.1680  178.4110  138.2930 C   0  0  1  0  0  3  0  0  0  0  0  0
  188.2460  177.3530  137.3400 C   0  0  0  0  0  0  0  0  0  0  0  0
  186.6190  178.2520  138.8880 C   0  0  0  0  0  3  0  0  0  0  0  0
  184.8760  177.2950  135.6420 C   0  0  0  0  0  1  0  0  0  0  0  0
  189.5250  177.0210  137.0440 F   0  0  0  0  0  0  0  0  0  0  0  0
  187.9390  177.9120  138.5810 C   0  0  0  0  0  3  0  0  0  0  0  0
  185.9120  177.4900  136.6950 C   0  0  0  0  0  0  0  0  0  0  0  0
  185.5890  178.0250  137.9600 C   0  0  0  0  0  0  0  0  0  0  0  0
  187.2350  177.1510  136.3980 C   0  0  0  0  0  3  0  0  0  0  0  0
  180.0750  180.4500  140.5510 C   0  0  0  0  0  2  0  0  0  0  0  0
  179.0640  180.2440  141.4890 O   0  0  0  0  0  0  0  0  0  0  0  0
  179.6680  180.5050  142.7180 C   0  0  0  0  0  1  0  0  0  0  0  0
  1  4  1  0  0  0  0
  2  6  1  0  0  0  0
  2  1  1  0  0  0  0
  3  6  1  0  0  0  0
  4 29  1  0  0  0  0
  4 15  1  0  0  0  0
  5 15  1  0  0  0  0
  7 12  1  0  0  0  0
  8 17  1  0  0  0  0
  8 16  1  0  0  0  0
  8 11  1  0  0  0  0
  9  3  1  0  0  0  0
 10 14  1  0  0  0  0
 11  7  1  0  0  0  0
 11  1  1  0  0  0  0
 12 10  1  0  0  0  0
 13  9  1  0  0  0  0
 15 14  1  0  0  0  0
 16 11  1  0  0  0  0
 17  2  1  0  0  0  0
 18 13  1  0  0  0  0
 18 17  1  0  0  0  0
 20 12  1  0  0  0  0
 20 19  1  0  0  0  0
 21 25  1  0  0  0  0
 23 26  1  0  0  0  0
 24 21  1  0  0  0  0
 25 22  2  0  0  0  0
 26 27  2  0  0  0  0
 27 20  1  0  0  0  0
 27 22  1  0  0  0  0
 28 26  1  0  0  0  0
 28 21  2  0  0  0  0
 29 30  1  0  0  0  0
 30 31  1  0  0  0  0
M  END
>  <MODEL>
2

>  <REMARK>
 VINA RESULT:      -5.8      3.533      7.083
  Name = 
  4 active torsions:
  status: ('A' for Active; 'I' for Inactive)
    1  A    between atoms: O_2  and  C_25
    2  A    between atoms: C_9  and  C_22
    3  A    between atoms: C_9  and  C_23
    4  A    between atoms: C_12  and  C_25
                            x       y       z     vdW  Elec       q    Type
                         _______ _______ _______ _____ _____    ______ ____

>  <TORSDO>
F 4

$$$$
=
 OpenBabel10262419373D

 31 35  0  0  1  0  0  0  0  0999 V2000
  180.8180  177.4640  139.0330 C   0  0  1  0  0  3  0  0  0  0  0  0
  181.1320  176.3100  138.0910 C   0  0  1  0  0  3  0  0  0  0  0  0
  180.1280  174.7460  136.3830 C   0  0  0  0  0  2  0  0  0  0  0  0
  180.2150  176.9930  140.3730 C   0  0  1  0  0  3  0  0  0  0  0  0
  180.8540  178.5200  142.3030 C   0  0  0  0  0  1  0  0  0  0  0  0
  180.0080  176.0970  137.0850 C   0  0  0  0  0  2  0  0  0  0  0  0
  182.2380  179.6850  139.6020 C   0  0  0  0  0  2  0  0  0  0  0  0
  183.1180  177.7950  138.1530 C   0  0  1  0  0  3  0  0  0  0  0  0
  181.4160  174.6160  135.5730 C   0  0  0  0  0  2  0  0  0  0  0  0
  179.9880  180.5820  140.4300 C   0  0  0  0  0  2  0  0  0  0  0  0
  182.1430  178.2050  139.2320 C   0  0  2  0  0  0  0  0  0  0  0  0
  181.0090  180.5470  139.2870 C   0  0  2  0  0  3  0  0  0  0  0  0
  182.5850  174.2920  136.4980 C   0  0  0  0  0  2  0  0  0  0  0  0
  179.1190  179.3290  140.5560 C   0  0  0  0  0  2  0  0  0  0  0  0
  179.7910  178.1490  141.2800 C   0  0  1  0  0  3  0  0  0  0  0  0
  183.3570  177.3760  139.6030 C   0  0  0  0  0  2  0  0  0  0  0  0
  182.3980  176.7180  137.3490 C   0  0  1  0  0  3  0  0  0  0  0  0
  183.3150  175.5370  137.0160 C   0  0  0  0  0  2  0  0  0  0  0  0
  178.9330  180.0950  137.9200 C   0  0  0  0  0  1  0  0  0  0  0  0
  180.4200  180.4120  137.8670 C   0  0  1  0  0  3  0  0  0  0  0  0
  180.9780  183.9570  135.4620 C   0  0  0  0  0  0  0  0  0  0  0  0
  180.8230  182.8970  137.6300 C   0  0  0  0  0  3  0  0  0  0  0  0
  180.2980  180.2860  134.9100 C   0  0  0  0  0  1  0  0  0  0  0  0
  181.1540  185.0690  134.7100 F   0  0  0  0  0  0  0  0  0  0  0  0
  181.0020  184.0440  136.8550 C   0  0  0  0  0  3  0  0  0  0  0  0
  180.5740  181.5700  135.6140 C   0  0  0  0  0  0  0  0  0  0  0  0
  180.6300  181.6450  137.0210 C   0  0  0  0  0  0  0  0  0  0  0  0
  180.7560  182.7240  134.8450 C   0  0  0  0  0  3  0  0  0  0  0  0
  179.0030  176.0900  140.1720 C   0  0  0  0  0  2  0  0  0  0  0  0
  178.9420  175.1400  141.1910 O   0  0  0  0  0  0  0  0  0  0  0  0
  179.3800  173.9580  140.5950 C   0  0  0  0  0  1  0  0  0  0  0  0
  1 11  1  0  0  0  0
  1  4  1  0  0  0  0
  2  1  1  0  0  0  0
  3  6  1  0  0  0  0
  4 15  1  0  0  0  0
  6  2  1  0  0  0  0
  8 11  1  0  0  0  0
  8 16  1  0  0  0  0
  9  3  1  0  0  0  0
  9 13  1  0  0  0  0
 10 14  1  0  0  0  0
 11  7  1  0  0  0  0
 11 16  1  0  0  0  0
 12  7  1  0  0  0  0
 12 10  1  0  0  0  0
 13 18  1  0  0  0  0
 14 15  1  0  0  0  0
 15  5  1  0  0  0  0
 17  2  1  0  0  0  0
 17  8  1  0  0  0  0
 18 17  1  0  0  0  0
 20 19  1  0  0  0  0
 20 12  1  0  0  0  0
 21 25  1  0  0  0  0
 23 26  1  0  0  0  0
 24 21  1  0  0  0  0
 25 22  2  0  0  0  0
 26 27  2  0  0  0  0
 27 22  1  0  0  0  0
 27 20  1  0  0  0  0
 28 21  2  0  0  0  0
 28 26  1  0  0  0  0
 29  4  1  0  0  0  0
 29 30  1  0  0  0  0
 31 30  1  0  0  0  0
M  END
>  <MODEL>
3

>  <REMARK>
 VINA RESULT:      -5.7      1.943      4.643
  Name = 
  4 active torsions:
  status: ('A' for Active; 'I' for Inactive)
    1  A    between atoms: O_2  and  C_25
    2  A    between atoms: C_9  and  C_22
    3  A    between atoms: C_9  and  C_23
    4  A    between atoms: C_12  and  C_25
                            x       y       z     vdW  Elec       q    Type
                         _______ _______ _______ _____ _____    ______ ____

>  <TORSDO>
F 4

$$$$
=
 OpenBabel10262419373D

 31 35  0  0  1  0  0  0  0  0999 V2000
  182.1790  177.4510  137.9760 C   0  0  1  0  0  3  0  0  0  0  0  0
  183.1170  176.5740  137.1580 C   0  0  1  0  0  3  0  0  0  0  0  0
  185.1920  176.6000  135.7210 C   0  0  0  0  0  2  0  0  0  0  0  0
  181.1150  178.1560  137.1090 C   0  0  1  0  0  3  0  0  0  0  0  0
  178.9310  178.5030  138.3650 C   0  0  0  0  0  1  0  0  0  0  0  0
  184.4090  177.3090  136.8240 C   0  0  0  0  0  2  0  0  0  0  0  0
  181.0090  176.9990  140.3630 C   0  0  0  0  0  2  0  0  0  0  0  0
  182.3550  175.2480  139.1100 C   0  0  1  0  0  3  0  0  0  0  0  0
  185.6280  175.1920  136.1200 C   0  0  0  0  0  2  0  0  0  0  0  0
  180.7370  179.5440  140.4050 C   0  0  0  0  0  2  0  0  0  0  0  0
  181.5470  176.5210  139.0140 C   0  0  2  0  0  0  0  0  0  0  0  0
  181.5540  178.3360  140.8790 C   0  0  2  0  0  3  0  0  0  0  0  0
  184.4580  174.2240  135.9770 C   0  0  0  0  0  2  0  0  0  0  0  0
  180.9890  179.9630  138.9560 C   0  0  0  0  0  2  0  0  0  0  0  0
  180.2400  179.1270  137.9040 C   0  0  1  0  0  3  0  0  0  0  0  0
  180.9490  175.2210  138.5140 C   0  0  0  0  0  2  0  0  0  0  0  0
  183.4370  175.3760  138.0430 C   0  0  1  0  0  3  0  0  0  0  0  0
  183.6300  174.0760  137.2590 C   0  0  0  0  0  2  0  0  0  0  0  0
  183.4840  179.7140  140.0070 C   0  0  0  0  0  1  0  0  0  0  0  0
  183.0870  178.5120  140.8500 C   0  0  1  0  0  3  0  0  0  0  0  0
  184.8010  178.9690  144.7890 C   0  0  0  0  0  0  0  0  0  0  0  0
  182.8640  178.8550  143.3450 C   0  0  0  0  0  3  0  0  0  0  0  0
  186.0230  178.5210  141.2460 C   0  0  0  0  0  1  0  0  0  0  0  0
  185.3360  179.1110  146.0240 F   0  0  0  0  0  0  0  0  0  0  0  0
  183.4160  179.0050  144.6190 C   0  0  0  0  0  3  0  0  0  0  0  0
  185.0910  178.6530  142.4020 C   0  0  0  0  0  0  0  0  0  0  0  0
  183.6910  178.6550  142.2260 C   0  0  0  0  0  0  0  0  0  0  0  0
  185.6350  178.8020  143.6810 C   0  0  0  0  0  3  0  0  0  0  0  0
  181.7350  178.9290  135.9510 C   0  0  0  0  0  2  0  0  0  0  0  0
  180.7770  179.1590  134.9630 O   0  0  0  0  0  0  0  0  0  0  0  0
  180.9040  180.5150  134.6630 C   0  0  0  0  0  1  0  0  0  0  0  0
  1 11  1  0  0  0  0
  2  1  1  0  0  0  0
  2 17  1  0  0  0  0
  3  9  1  0  0  0  0
  3  6  1  0  0  0  0
  4 15  1  0  0  0  0
  4  1  1  0  0  0  0
  6  2  1  0  0  0  0
  7 12  1  0  0  0  0
 10 12  1  0  0  0  0
 11  8  1  0  0  0  0
 11  7  1  0  0  0  0
 13  9  1  0  0  0  0
 13 18  1  0  0  0  0
 14 10  1  0  0  0  0
 15  5  1  0  0  0  0
 15 14  1  0  0  0  0
 16 11  1  0  0  0  0
 16  8  1  0  0  0  0
 17  8  1  0  0  0  0
 18 17  1  0  0  0  0
 19 20  1  0  0  0  0
 20 12  1  0  0  0  0
 20 27  1  0  0  0  0
 21 24  1  0  0  0  0
 22 25  2  0  0  0  0
 23 26  1  0  0  0  0
 25 21  1  0  0  0  0
 26 28  1  0  0  0  0
 27 26  2  0  0  0  0
 27 22  1  0  0  0  0
 28 21  2  0  0  0  0
 29  4  1  0  0  0  0
 30 29  1  0  0  0  0
 31 30  1  0  0  0  0
M  END
>  <MODEL>
4

>  <REMARK>
 VINA RESULT:      -5.6      3.270      6.518
  Name = 
  4 active torsions:
  status: ('A' for Active; 'I' for Inactive)
    1  A    between atoms: O_2  and  C_25
    2  A    between atoms: C_9  and  C_22
    3  A    between atoms: C_9  and  C_23
    4  A    between atoms: C_12  and  C_25
                            x       y       z     vdW  Elec       q    Type
                         _______ _______ _______ _____ _____    ______ ____

>  <TORSDO>
F 4

$$$$
=
 OpenBabel10262419373D

 31 35  0  0  1  0  0  0  0  0999 V2000
  183.0770  177.1770  138.3170 C   0  0  1  0  0  3  0  0  0  0  0  0
  184.5870  177.3290  138.2030 C   0  0  1  0  0  3  0  0  0  0  0  0
  186.5320  177.1920  136.6000 C   0  0  0  0  0  2  0  0  0  0  0  0
  182.6370  175.7090  138.4980 C   0  0  1  0  0  3  0  0  0  0  0  0
  180.5250  175.5060  139.9000 C   0  0  0  0  0  1  0  0  0  0  0  0
  185.0270  177.4040  136.7470 C   0  0  0  0  0  2  0  0  0  0  0  0
  181.2720  178.6610  139.6630 C   0  0  0  0  0  2  0  0  0  0  0  0
  183.7810  179.0090  139.8400 C   0  0  1  0  0  3  0  0  0  0  0  0
  187.3500  178.2630  137.3170 C   0  0  0  0  0  2  0  0  0  0  0  0
  179.5920  177.5730  138.0660 C   0  0  0  0  0  2  0  0  0  0  0  0
  182.6640  178.0480  139.5050 C   0  0  2  0  0  0  0  0  0  0  0  0
  180.4430  178.8090  138.3800 C   0  0  2  0  0  3  0  0  0  0  0  0
  187.4060  177.9630  138.8120 C   0  0  0  0  0  2  0  0  0  0  0  0
  180.3640  176.3950  137.4710 C   0  0  0  0  0  2  0  0  0  0  0  0
  181.1170  175.5330  138.4990 C   0  0  1  0  0  3  0  0  0  0  0  0
  183.4320  177.8730  140.8000 C   0  0  0  0  0  2  0  0  0  0  0  0
  184.9220  178.6430  138.8960 C   0  0  1  0  0  3  0  0  0  0  0  0
  186.2760  178.6280  139.6090 C   0  0  0  0  0  2  0  0  0  0  0  0
  181.0200  178.5920  135.9300 C   0  0  0  0  0  1  0  0  0  0  0  0
  181.1530  179.4580  137.1730 C   0  0  1  0  0  3  0  0  0  0  0  0
  179.7140  183.4230  136.2420 C   0  0  0  0  0  0  0  0  0  0  0  0
  179.6630  181.0330  135.8740 C   0  0  0  0  0  3  0  0  0  0  0  0
  182.2790  181.8460  138.5180 C   0  0  0  0  0  1  0  0  0  0  0  0
  179.2610  184.6650  135.9500 F   0  0  0  0  0  0  0  0  0  0  0  0
  179.1970  182.3150  135.5710 C   0  0  0  0  0  3  0  0  0  0  0  0
  181.1840  181.9730  137.5140 C   0  0  0  0  0  0  0  0  0  0  0  0
  180.6430  180.8450  136.8630 C   0  0  0  0  0  0  0  0  0  0  0  0
  180.7110  183.2520  137.2050 C   0  0  0  0  0  3  0  0  0  0  0  0
  183.2110  174.7990  137.4180 C   0  0  0  0  0  2  0  0  0  0  0  0
  184.1790  173.9580  137.9680 O   0  0  0  0  0  0  0  0  0  0  0  0
  184.0950  172.7890  137.2140 C   0  0  0  0  0  1  0  0  0  0  0  0
  1  4  1  0  0  0  0
  1 11  1  0  0  0  0
  2  1  1  0  0  0  0
  2 17  1  0  0  0  0
  3  6  1  0  0  0  0
  3  9  1  0  0  0  0
  4 15  1  0  0  0  0
  6  2  1  0  0  0  0
  8 16  1  0  0  0  0
  9 13  1  0  0  0  0
 10 12  1  0  0  0  0
 11  7  1  0  0  0  0
 11  8  1  0  0  0  0
 11 16  1  0  0  0  0
 12  7  1  0  0  0  0
 13 18  1  0  0  0  0
 14 10  1  0  0  0  0
 14 15  1  0  0  0  0
 15  5  1  0  0  0  0
 17 18  1  0  0  0  0
 17  8  1  0  0  0  0
 19 20  1  0  0  0  0
 20 12  1  0  0  0  0
 21 28  1  0  0  0  0
 22 27  2  0  0  0  0
 24 21  1  0  0  0  0
 25 22  1  0  0  0  0
 25 21  2  0  0  0  0
 26 23  1  0  0  0  0
 27 20  1  0  0  0  0
 27 26  1  0  0  0  0
 28 26  2  0  0  0  0
 29 30  1  0  0  0  0
 29  4  1  0  0  0  0
 31 30  1  0  0  0  0
M  END
>  <MODEL>
5

>  <REMARK>
 VINA RESULT:      -5.5      1.986      3.297
  Name = 
  4 active torsions:
  status: ('A' for Active; 'I' for Inactive)
    1  A    between atoms: O_2  and  C_25
    2  A    between atoms: C_9  and  C_22
    3  A    between atoms: C_9  and  C_23
    4  A    between atoms: C_12  and  C_25
                            x       y       z     vdW  Elec       q    Type
                         _______ _______ _______ _____ _____    ______ ____

>  <TORSDO>
F 4

$$$$
=
 OpenBabel10262419373D

 31 35  0  0  1  0  0  0  0  0999 V2000
  182.0270  175.5380  137.2110 C   0  0  1  0  0  3  0  0  0  0  0  0
  181.6920  176.8030  137.9900 C   0  0  1  0  0  3  0  0  0  0  0  0
  181.6440  177.8180  140.3010 C   0  0  0  0  0  2  0  0  0  0  0  0
  180.8830  174.5020  137.2340 C   0  0  1  0  0  3  0  0  0  0  0  0
  180.7980  173.1190  135.1010 C   0  0  0  0  0  1  0  0  0  0  0  0
  182.2640  176.7510  139.4010 C   0  0  0  0  0  2  0  0  0  0  0  0
  183.2540  175.2330  134.8290 C   0  0  0  0  0  2  0  0  0  0  0  0
  182.6090  177.4920  135.7920 C   0  0  1  0  0  3  0  0  0  0  0  0
  181.9250  179.2360  139.8100 C   0  0  0  0  0  2  0  0  0  0  0  0
  183.6500  172.8390  135.6480 C   0  0  0  0  0  2  0  0  0  0  0  0
  182.3480  176.0040  135.7890 C   0  0  2  0  0  0  0  0  0  0  0  0
  184.2380  174.2440  135.4680 C   0  0  2  0  0  3  0  0  0  0  0  0
  180.9820  179.5880  138.6640 C   0  0  0  0  0  2  0  0  0  0  0  0
  182.6860  172.6910  136.8260 C   0  0  0  0  0  2  0  0  0  0  0  0
  181.2540  173.1840  136.5520 C   0  0  1  0  0  3  0  0  0  0  0  0
  181.3560  176.9340  135.1190 C   0  0  0  0  0  2  0  0  0  0  0  0
  182.3480  177.9440  137.2240 C   0  0  1  0  0  3  0  0  0  0  0  0
  181.5530  179.2510  137.2810 C   0  0  0  0  0  2  0  0  0  0  0  0
  185.6170  173.6300  137.4930 C   0  0  0  0  0  1  0  0  0  0  0  0
  185.0790  174.7740  136.6480 C   0  0  1  0  0  3  0  0  0  0  0  0
  188.4050  177.2370  135.4120 C   0  0  0  0  0  0  0  0  0  0  0  0
  187.1370  175.1850  135.2390 C   0  0  0  0  0  3  0  0  0  0  0  0
  185.5660  177.4180  137.8930 C   0  0  0  0  0  1  0  0  0  0  0  0
  189.4470  178.0080  135.0210 F   0  0  0  0  0  0  0  0  0  0  0  0
  188.2140  175.9790  134.8390 C   0  0  0  0  0  3  0  0  0  0  0  0
  186.4480  176.9050  136.8060 C   0  0  0  0  0  0  0  0  0  0  0  0
  186.2300  175.6460  136.2090 C   0  0  0  0  0  0  0  0  0  0  0  0
  187.5280  177.6940  136.3980 C   0  0  0  0  0  3  0  0  0  0  0  0
  180.4270  174.1810  138.6530 C   0  0  0  0  0  2  0  0  0  0  0  0
  179.0770  174.4960  138.8020 O   0  0  0  0  0  0  0  0  0  0  0  0
  178.9820  175.0280  140.0880 C   0  0  0  0  0  1  0  0  0  0  0  0
  1  4  1  0  0  0  0
  1  2  1  0  0  0  0
  2  6  1  0  0  0  0
  4 29  1  0  0  0  0
  5 15  1  0  0  0  0
  6  3  1  0  0  0  0
  7 12  1  0  0  0  0
  7 11  1  0  0  0  0
  8 17  1  0  0  0  0
  9  3  1  0  0  0  0
 10 14  1  0  0  0  0
 11  8  1  0  0  0  0
 11  1  1  0  0  0  0
 12 10  1  0  0  0  0
 12 20  1  0  0  0  0
 13  9  1  0  0  0  0
 15 14  1  0  0  0  0
 15  4  1  0  0  0  0
 16 11  1  0  0  0  0
 16  8  1  0  0  0  0
 17 18  1  0  0  0  0
 17  2  1  0  0  0  0
 18 13  1  0  0  0  0
 20 19  1  0  0  0  0
 21 28  1  0  0  0  0
 22 27  2  0  0  0  0
 24 21  1  0  0  0  0
 25 22  1  0  0  0  0
 25 21  2  0  0  0  0
 26 23  1  0  0  0  0
 27 20  1  0  0  0  0
 27 26  1  0  0  0  0
 28 26  2  0  0  0  0
 29 30  1  0  0  0  0
 30 31  1  0  0  0  0
M  END
>  <MODEL>
6

>  <REMARK>
 VINA RESULT:      -5.4      3.701      7.232
  Name = 
  4 active torsions:
  status: ('A' for Active; 'I' for Inactive)
    1  A    between atoms: O_2  and  C_25
    2  A    between atoms: C_9  and  C_22
    3  A    between atoms: C_9  and  C_23
    4  A    between atoms: C_12  and  C_25
                            x       y       z     vdW  Elec       q    Type
                         _______ _______ _______ _____ _____    ______ ____

>  <TORSDO>
F 4

$$$$
=
 OpenBabel10262419373D

 31 35  0  0  1  0  0  0  0  0999 V2000
  180.7280  176.9140  137.8420 C   0  0  1  0  0  3  0  0  0  0  0  0
  180.4640  177.9030  138.9690 C   0  0  1  0  0  3  0  0  0  0  0  0
  180.3760  178.1530  141.4790 C   0  0  0  0  0  2  0  0  0  0  0  0
  179.4950  176.0470  137.5090 C   0  0  1  0  0  3  0  0  0  0  0  0
  179.4080  175.4090  135.0480 C   0  0  0  0  0  1  0  0  0  0  0  0
  180.9470  177.3580  140.3070 C   0  0  0  0  0  2  0  0  0  0  0  0
  182.0580  177.2340  135.5180 C   0  0  0  0  0  2  0  0  0  0  0  0
  181.5670  179.1390  137.1230 C   0  0  1  0  0  3  0  0  0  0  0  0
  180.8130  179.6160  141.4660 C   0  0  0  0  0  2  0  0  0  0  0  0
  182.1860  174.6770  135.5550 C   0  0  0  0  0  2  0  0  0  0  0  0
  181.1710  177.7610  136.6470 C   0  0  2  0  0  0  0  0  0  0  0  0
  182.9090  175.9990  135.8400 C   0  0  2  0  0  3  0  0  0  0  0  0
  179.9740  180.4020  140.4640 C   0  0  0  0  0  2  0  0  0  0  0  0
  181.1460  174.2730  136.6010 C   0  0  0  0  0  2  0  0  0  0  0  0
  179.7830  174.9740  136.4580 C   0  0  1  0  0  3  0  0  0  0  0  0
  180.3090  178.9510  136.2760 C   0  0  0  0  0  2  0  0  0  0  0  0
  181.2650  179.1500  138.6180 C   0  0  1  0  0  3  0  0  0  0  0  0
  180.5900  180.4510  139.0600 C   0  0  0  0  0  2  0  0  0  0  0  0
  184.1300  174.6490  137.5920 C   0  0  0  0  0  1  0  0  0  0  0  0
  183.7250  176.0470  137.1490 C   0  0  1  0  0  3  0  0  0  0  0  0
  187.2880  178.4710  136.8550 C   0  0  0  0  0  0  0  0  0  0  0  0
  185.8520  176.7370  135.9710 C   0  0  0  0  0  3  0  0  0  0  0  0
  184.4030  178.0250  139.2470 C   0  0  0  0  0  1  0  0  0  0  0  0
  188.4050  179.2300  136.7610 F   0  0  0  0  0  0  0  0  0  0  0  0
  187.0060  177.5180  135.8750 C   0  0  0  0  0  3  0  0  0  0  0  0
  185.2690  177.8490  138.0470 C   0  0  0  0  0  0  0  0  0  0  0  0
  184.9610  176.9080  137.0430 C   0  0  0  0  0  0  0  0  0  0  0  0
  186.4250  178.6280  137.9420 C   0  0  0  0  0  3  0  0  0  0  0  0
  178.9310  175.3520  138.7420 C   0  0  0  0  0  2  0  0  0  0  0  0
  179.8450  174.4150  139.2230 O   0  0  0  0  0  0  0  0  0  0  0  0
  179.3260  174.0180  140.4540 C   0  0  0  0  0  1  0  0  0  0  0  0
  1  2  1  0  0  0  0
  2  6  1  0  0  0  0
  4  1  1  0  0  0  0
  4 29  1  0  0  0  0
  5 15  1  0  0  0  0
  6  3  1  0  0  0  0
  7 12  1  0  0  0  0
  7 11  1  0  0  0  0
  8 17  1  0  0  0  0
  9  3  1  0  0  0  0
 10 12  1  0  0  0  0
 10 14  1  0  0  0  0
 11  8  1  0  0  0  0
 11  1  1  0  0  0  0
 12 20  1  0  0  0  0
 13  9  1  0  0  0  0
 15 14  1  0  0  0  0
 15  4  1  0  0  0  0
 16 11  1  0  0  0  0
 16  8  1  0  0  0  0
 17  2  1  0  0  0  0
 17 18  1  0  0  0  0
 18 13  1  0  0  0  0
 20 19  1  0  0  0  0
 21 28  1  0  0  0  0
 22 27  2  0  0  0  0
 24 21  1  0  0  0  0
 25 22  1  0  0  0  0
 25 21  2  0  0  0  0
 26 23  1  0  0  0  0
 27 20  1  0  0  0  0
 27 26  1  0  0  0  0
 28 26  2  0  0  0  0
 29 30  1  0  0  0  0
 30 31  1  0  0  0  0
M  END
>  <MODEL>
7

>  <REMARK>
 VINA RESULT:      -5.4      3.106      5.923
  Name = 
  4 active torsions:
  status: ('A' for Active; 'I' for Inactive)
    1  A    between atoms: O_2  and  C_25
    2  A    between atoms: C_9  and  C_22
    3  A    between atoms: C_9  and  C_23
    4  A    between atoms: C_12  and  C_25
                            x       y       z     vdW  Elec       q    Type
                         _______ _______ _______ _____ _____    ______ ____

>  <TORSDO>
F 4

$$$$
=
 OpenBabel10262419373D

 31 35  0  0  1  0  0  0  0  0999 V2000
  186.2050  175.7320  136.8470 C   0  0  1  0  0  3  0  0  0  0  0  0
  185.2010  174.6570  136.4560 C   0  0  1  0  0  3  0  0  0  0  0  0
  184.1240  172.5040  137.2160 C   0  0  0  0  0  2  0  0  0  0  0  0
  187.6610  175.3310  136.5340 C   0  0  1  0  0  3  0  0  0  0  0  0
  189.1040  177.3420  135.9460 C   0  0  0  0  0  1  0  0  0  0  0  0
  184.8290  173.7880  137.6500 C   0  0  0  0  0  2  0  0  0  0  0  0
  186.0930  178.4100  136.5490 C   0  0  0  0  0  2  0  0  0  0  0  0
  184.3640  176.8220  135.5840 C   0  0  1  0  0  3  0  0  0  0  0  0
  182.8050  172.7730  136.4940 C   0  0  0  0  0  2  0  0  0  0  0  0
  187.8910  178.4140  138.3720 C   0  0  0  0  0  2  0  0  0  0  0  0
  185.7800  176.9890  136.0820 C   0  0  2  0  0  0  0  0  0  0  0  0
  186.4040  178.5850  138.0410 C   0  0  2  0  0  3  0  0  0  0  0  0
  183.0750  173.1700  135.0460 C   0  0  0  0  0  2  0  0  0  0  0  0
  188.3810  176.9660  138.4060 C   0  0  0  0  0  2  0  0  0  0  0  0
  188.6850  176.3560  137.0270 C   0  0  1  0  0  3  0  0  0  0  0  0
  185.5270  176.8480  134.5950 C   0  0  0  0  0  2  0  0  0  0  0  0
  183.9640  175.4030  135.9740 C   0  0  1  0  0  3  0  0  0  0  0  0
  183.2190  174.6830  134.8470 C   0  0  0  0  0  2  0  0  0  0  0  0
  185.8980  178.0870  140.4650 C   0  0  0  0  0  1  0  0  0  0  0  0
  185.4180  177.9290  139.0300 C   0  0  1  0  0  3  0  0  0  0  0  0
  181.4110  179.5180  138.7520 C   0  0  0  0  0  0  0  0  0  0  0  0
  183.8040  179.8620  138.8070 C   0  0  0  0  0  3  0  0  0  0  0  0
  183.0550  176.1480  139.1780 C   0  0  0  0  0  1  0  0  0  0  0  0
  180.1550  180.0180  138.6630 F   0  0  0  0  0  0  0  0  0  0  0  0
  182.5090  180.3780  138.7180 C   0  0  0  0  0  3  0  0  0  0  0  0
  182.8990  177.6180  138.9850 C   0  0  0  0  0  0  0  0  0  0  0  0
  184.0150  178.4770  138.9180 C   0  0  0  0  0  0  0  0  0  0  0  0
  181.6070  178.1430  138.8940 C   0  0  0  0  0  3  0  0  0  0  0  0
  188.0280  173.9800  137.1350 C   0  0  0  0  0  2  0  0  0  0  0  0
  188.5730  173.1530  136.1530 O   0  0  0  0  0  0  0  0  0  0  0  0
  187.8580  171.9610  136.2640 C   0  0  0  0  0  1  0  0  0  0  0  0
  2  1  1  0  0  0  0
  2  6  1  0  0  0  0
  3  6  1  0  0  0  0
  4  1  1  0  0  0  0
  4 15  1  0  0  0  0
  4 29  1  0  0  0  0
  5 15  1  0  0  0  0
  7 12  1  0  0  0  0
  8 17  1  0  0  0  0
  8 11  1  0  0  0  0
  9  3  1  0  0  0  0
 10 14  1  0  0  0  0
 11  7  1  0  0  0  0
 11  1  1  0  0  0  0
 12 10  1  0  0  0  0
 12 20  1  0  0  0  0
 13  9  1  0  0  0  0
 15 14  1  0  0  0  0
 16  8  1  0  0  0  0
 16 11  1  0  0  0  0
 17  2  1  0  0  0  0
 18 13  1  0  0  0  0
 18 17  1  0  0  0  0
 20 19  1  0  0  0  0
 21 28  1  0  0  0  0
 22 27  2  0  0  0  0
 24 21  1  0  0  0  0
 25 21  2  0  0  0  0
 25 22  1  0  0  0  0
 26 23  1  0  0  0  0
 27 26  1  0  0  0  0
 27 20  1  0  0  0  0
 28 26  2  0  0  0  0
 30 31  1  0  0  0  0
 30 29  1  0  0  0  0
M  END
>  <MODEL>
8

>  <REMARK>
 VINA RESULT:      -5.2      3.533      7.341
  Name = 
  4 active torsions:
  status: ('A' for Active; 'I' for Inactive)
    1  A    between atoms: O_2  and  C_25
    2  A    between atoms: C_9  and  C_22
    3  A    between atoms: C_9  and  C_23
    4  A    between atoms: C_12  and  C_25
                            x       y       z     vdW  Elec       q    Type
                         _______ _______ _______ _____ _____    ______ ____

>  <TORSDO>
F 4

$$$$
=
 OpenBabel10262419373D

 31 35  0  0  1  0  0  0  0  0999 V2000
  181.7830  178.6720  140.2990 C   0  0  1  0  0  3  0  0  0  0  0  0
  183.0760  178.8130  141.0900 C   0  0  1  0  0  3  0  0  0  0  0  0
  184.1900  178.2520  143.2850 C   0  0  0  0  0  2  0  0  0  0  0  0
  180.7350  179.7410  140.6730 C   0  0  1  0  0  3  0  0  0  0  0  0
  179.2600  180.3720  138.7000 C   0  0  0  0  0  1  0  0  0  0  0  0
  183.0930  177.8770  142.2920 C   0  0  0  0  0  2  0  0  0  0  0  0
  181.3900  178.1350  137.6850 C   0  0  0  0  0  2  0  0  0  0  0  0
  183.6810  178.5470  138.7000 C   0  0  1  0  0  3  0  0  0  0  0  0
  185.5890  178.1500  142.6820 C   0  0  0  0  0  2  0  0  0  0  0  0
  179.0400  177.4740  138.4550 C   0  0  0  0  0  2  0  0  0  0  0  0
  182.1910  178.7630  138.8260 C   0  0  2  0  0  0  0  0  0  0  0  0
  180.4420  176.9910  138.0680 C   0  0  2  0  0  3  0  0  0  0  0  0
  185.8790  179.3780  141.8250 C   0  0  0  0  0  2  0  0  0  0  0  0
  178.9310  178.0760  139.8570 C   0  0  0  0  0  2  0  0  0  0  0  0
  179.3930  179.5400  139.9660 C   0  0  1  0  0  3  0  0  0  0  0  0
  183.0790  179.9220  138.4180 C   0  0  0  0  0  2  0  0  0  0  0  0
  184.1910  178.4180  140.1310 C   0  0  1  0  0  3  0  0  0  0  0  0
  185.4890  179.1990  140.3530 C   0  0  0  0  0  2  0  0  0  0  0  0
  180.1450  175.6000  140.1550 C   0  0  0  0  0  1  0  0  0  0  0  0
  181.0340  175.8730  138.9520 C   0  0  1  0  0  3  0  0  0  0  0  0
  181.6680  172.1540  136.8470 C   0  0  0  0  0  0  0  0  0  0  0  0
  180.2170  173.6460  138.0800 C   0  0  0  0  0  3  0  0  0  0  0  0
  183.6880  175.1870  137.8280 C   0  0  0  0  0  1  0  0  0  0  0  0
  181.8640  170.9890  136.1870 F   0  0  0  0  0  0  0  0  0  0  0  0
  180.4200  172.4420  137.4020 C   0  0  0  0  0  3  0  0  0  0  0  0
  182.5250  174.2700  137.6680 C   0  0  0  0  0  0  0  0  0  0  0  0
  181.2570  174.5820  138.2010 C   0  0  0  0  0  0  0  0  0  0  0  0
  182.7190  173.0630  136.9880 C   0  0  0  0  0  3  0  0  0  0  0  0
  180.4700  179.7850  142.1730 C   0  0  0  0  0  2  0  0  0  0  0  0
  179.2310  180.3780  142.4220 O   0  0  0  0  0  0  0  0  0  0  0  0
  178.9320  180.0250  143.7370 C   0  0  0  0  0  1  0  0  0  0  0  0
  1  4  1  0  0  0  0
  1  2  1  0  0  0  0
  2  6  1  0  0  0  0
  4 29  1  0  0  0  0
  5 15  1  0  0  0  0
  6  3  1  0  0  0  0
  7 12  1  0  0  0  0
  7 11  1  0  0  0  0
  8 11  1  0  0  0  0
  8 17  1  0  0  0  0
  9  3  1  0  0  0  0
 10 14  1  0  0  0  0
 11  1  1  0  0  0  0
 12 10  1  0  0  0  0
 12 20  1  0  0  0  0
 13  9  1  0  0  0  0
 14 15  1  0  0  0  0
 15  4  1  0  0  0  0
 16  8  1  0  0  0  0
 16 11  1  0  0  0  0
 17 18  1  0  0  0  0
 17  2  1  0  0  0  0
 18 13  1  0  0  0  0
 20 19  1  0  0  0  0
 21 28  2  0  0  0  0
 21 25  1  0  0  0  0
 22 27  1  0  0  0  0
 24 21  1  0  0  0  0
 25 22  2  0  0  0  0
 26 23  1  0  0  0  0
 26 27  2  0  0  0  0
 27 20  1  0  0  0  0
 28 26  1  0  0  0  0
 29 30  1  0  0  0  0
 30 31  1  0  0  0  0
M  END
>  <MODEL>
9

>  <REMARK>
 VINA RESULT:      -5.2      3.572      6.623
  Name = 
  4 active torsions:
  status: ('A' for Active; 'I' for Inactive)
    1  A    between atoms: O_2  and  C_25
    2  A    between atoms: C_9  and  C_22
    3  A    between atoms: C_9  and  C_23
    4  A    between atoms: C_12  and  C_25
                            x       y       z     vdW  Elec       q    Type
                         _______ _______ _______ _____ _____    ______ ____

>  <TORSDO>
F 4

$$$$
