=
 OpenBabel10262419573D

 25 28  0  0  1  0  0  0  0  0999 V2000
  187.4140  178.0070  145.9110 C   0  0  0  0  0  0  0  0  0  0  0  0
  188.5250  177.0600  145.5370 C   0  0  1  0  0  3  0  0  0  0  0  0
  188.4870  178.4390  148.2000 C   0  0  0  0  0  2  0  0  0  0  0  0
  186.2510  178.2330  145.3070 C   0  0  0  0  0  0  0  0  0  0  0  0
  190.1970  177.9350  143.7800 C   0  0  1  0  0  3  0  0  0  0  0  0
  189.2180  177.1980  147.9140 N   0  0  0  0  0  2  0  0  0  0  0  0
  185.3670  179.0570  146.2070 C   0  0  1  0  0  3  0  0  0  0  0  0
  184.2200  178.3330  146.5360 O   0  0  0  0  0  1  0  0  0  0  0  0
  190.7650  176.2480  146.2450 N   0  0  0  0  0  0  0  0  0  0  0  0
  191.4550  175.8290  147.4610 C   0  0  0  0  0  1  0  0  0  0  0  0
  188.9110  177.1600  144.0530 C   0  0  0  0  0  2  0  0  0  0  0  0
  187.3630  178.5930  147.2280 C   0  0  0  0  0  0  0  0  0  0  0  0
  186.2180  179.2180  147.4320 C   0  0  0  0  0  3  0  0  0  0  0  0
  191.7800  176.9290  145.4490 C   0  0  0  0  0  2  0  0  0  0  0  0
  191.3870  177.0070  143.9780 C   0  0  0  0  0  2  0  0  0  0  0  0
  189.7090  177.2380  146.5230 C   0  0  1  0  0  3  0  0  0  0  0  0
  185.9980  178.5700  142.8730 C   0  0  0  0  0  2  0  0  0  0  0  0
  184.6160  178.3230  143.4290 C   0  0  0  0  0  2  0  0  0  0  0  0
  185.8090  177.5940  144.0210 C   0  0  0  0  0  3  0  0  0  0  0  0
  190.1920  178.4060  142.4390 O   0  0  0  0  0  0  0  0  0  0  0  0
  190.8490  177.1740  140.4270 N   0  0  0  0  0  0  0  0  0  0  0  0
  190.5150  176.3150  139.3030 C   0  0  0  0  0  1  0  0  0  0  0  0
  192.2260  177.6030  140.5900 C   0  0  0  0  0  1  0  0  0  0  0  0
  188.6500  177.2070  141.2120 O   0  0  0  0  0  0  0  0  0  0  0  0
  189.8440  177.5830  141.3630 C   0  0  0  0  0  0  0  0  0  0  0  0
  1 12  1  0  0  0  0
  2 11  1  6  0  0  0
  2  1  1  0  0  0  0
  2 16  1  0  0  0  0
  4  1  2  0  0  0  0
  4  7  1  0  0  0  0
  5 20  1  6  0  0  0
  5 15  1  0  0  0  0
  5 11  1  0  0  0  0
  6  3  1  0  0  0  0
  7  8  1  1  0  0  0
  7 13  1  0  0  0  0
  9 16  1  0  0  0  0
  9 10  1  0  0  0  0
 12 13  2  0  0  0  0
 12  3  1  0  0  0  0
 14  9  1  0  0  0  0
 15 14  1  0  0  0  0
 16  6  1  1  0  0  0
 17 18  1  0  0  0  0
 17 19  1  0  0  0  0
 18 19  1  0  0  0  0
 19  4  1  0  0  0  0
 21 23  1  0  0  0  0
 21 25  1  0  0  0  0
 22 21  1  0  0  0  0
 24 25  2  0  0  0  0
 25 20  1  0  0  0  0
M  END
>  <MODEL>
1

>  <REMARK>
 VINA RESULT:      -9.0      0.000      0.000
  Name = 
  3 active torsions:
  status: ('A' for Active; 'I' for Inactive)
    1  A    between atoms: C_5  and  C_22
    2  A    between atoms: C_6  and  O_15
    3  A    between atoms: O_15  and  C_25
                            x       y       z     vdW  Elec       q    Type
                         _______ _______ _______ _____ _____    ______ ____

>  <TORSDO>
F 3

$$$$
=
 OpenBabel10262419573D

 25 28  0  0  1  0  0  0  0  0999 V2000
  189.0510  177.5660  143.9840 C   0  0  0  0  0  0  0  0  0  0  0  0
  188.6090  177.1310  142.6110 C   0  0  1  0  0  3  0  0  0  0  0  0
  191.4770  177.7910  143.1850 C   0  0  0  0  0  2  0  0  0  0  0  0
  188.3890  177.5400  145.1370 C   0  0  0  0  0  0  0  0  0  0  0  0
  187.2450  178.8610  141.2720 C   0  0  1  0  0  3  0  0  0  0  0  0
  191.0230  176.9450  142.0750 N   0  0  0  0  0  2  0  0  0  0  0  0
  189.3410  177.8160  146.2720 C   0  0  1  0  0  3  0  0  0  0  0  0
  189.3980  176.7110  147.1220 O   0  0  0  0  0  1  0  0  0  0  0  0
  189.3640  176.9350  140.2500 N   0  0  0  0  0  0  0  0  0  0  0  0
  190.5350  176.4960  139.4980 C   0  0  0  0  0  1  0  0  0  0  0  0
  187.2230  177.6780  142.2350 C   0  0  0  0  0  2  0  0  0  0  0  0
  190.4460  177.7940  144.2670 C   0  0  0  0  0  0  0  0  0  0  0  0
  190.6540  177.9610  145.5600 C   0  0  0  0  0  3  0  0  0  0  0  0
  188.8300  178.0640  139.4960 C   0  0  0  0  0  2  0  0  0  0  0  0
  187.3730  178.3410  139.8490 C   0  0  0  0  0  2  0  0  0  0  0  0
  189.7270  177.4500  141.5840 C   0  0  1  0  0  3  0  0  0  0  0  0
  186.0400  178.3010  145.2030 C   0  0  0  0  0  2  0  0  0  0  0  0
  186.3450  177.6980  146.5540 C   0  0  0  0  0  2  0  0  0  0  0  0
  186.9620  177.0990  145.3020 C   0  0  0  0  0  3  0  0  0  0  0  0
  186.0340  179.5940  141.3930 O   0  0  0  0  0  0  0  0  0  0  0  0
  183.7600  178.7150  141.1600 N   0  0  0  0  0  0  0  0  0  0  0  0
  182.5880  178.4350  140.3470 C   0  0  0  0  0  1  0  0  0  0  0  0
  183.7290  178.3660  142.5700 C   0  0  0  0  0  1  0  0  0  0  0  0
  184.9400  179.6290  139.3630 O   0  0  0  0  0  0  0  0  0  0  0  0
  184.9210  179.3310  140.5890 C   0  0  0  0  0  0  0  0  0  0  0  0
  1 12  1  0  0  0  0
  1  4  2  0  0  0  0
  2 11  1  6  0  0  0
  2  1  1  0  0  0  0
  3 12  1  0  0  0  0
  4 19  1  0  0  0  0
  4  7  1  0  0  0  0
  5 20  1  6  0  0  0
  5 11  1  0  0  0  0
  6  3  1  0  0  0  0
  7  8  1  1  0  0  0
  9 16  1  0  0  0  0
 10  9  1  0  0  0  0
 12 13  2  0  0  0  0
 13  7  1  0  0  0  0
 14 15  1  0  0  0  0
 14  9  1  0  0  0  0
 15  5  1  0  0  0  0
 16  6  1  1  0  0  0
 16  2  1  0  0  0  0
 17 19  1  0  0  0  0
 17 18  1  0  0  0  0
 19 18  1  0  0  0  0
 21 23  1  0  0  0  0
 22 21  1  0  0  0  0
 24 25  2  0  0  0  0
 25 21  1  0  0  0  0
 25 20  1  0  0  0  0
M  END
>  <MODEL>
2

>  <REMARK>
 VINA RESULT:      -8.8      2.627      5.307
  Name = 
  3 active torsions:
  status: ('A' for Active; 'I' for Inactive)
    1  A    between atoms: C_5  and  C_22
    2  A    between atoms: C_6  and  O_15
    3  A    between atoms: O_15  and  C_25
                            x       y       z     vdW  Elec       q    Type
                         _______ _______ _______ _____ _____    ______ ____

>  <TORSDO>
F 3

$$$$
=
 OpenBabel10262419573D

 25 28  0  0  1  0  0  0  0  0999 V2000
  187.1770  177.9020  144.8330 C   0  0  0  0  0  0  0  0  0  0  0  0
  187.8730  177.0290  143.8210 C   0  0  1  0  0  3  0  0  0  0  0  0
  189.1900  177.7590  146.4140 C   0  0  0  0  0  2  0  0  0  0  0  0
  185.9090  178.3010  144.8810 C   0  0  0  0  0  0  0  0  0  0  0  0
  188.7100  178.2250  141.6960 C   0  0  1  0  0  3  0  0  0  0  0  0
  189.5480  176.5930  145.5980 N   0  0  0  0  0  2  0  0  0  0  0  0
  185.6280  178.9260  146.2230 C   0  0  1  0  0  3  0  0  0  0  0  0
  184.6540  178.1860  146.8950 O   0  0  0  0  0  1  0  0  0  0  0  0
  190.0650  175.9980  143.2610 N   0  0  0  0  0  0  0  0  0  0  0  0
  191.1540  175.2880  143.9240 C   0  0  0  0  0  1  0  0  0  0  0  0
  187.5810  177.4540  142.3730 C   0  0  0  0  0  2  0  0  0  0  0  0
  187.7860  178.1710  146.1110 C   0  0  0  0  0  0  0  0  0  0  0  0
  186.9420  178.7720  146.9290 C   0  0  0  0  0  3  0  0  0  0  0  0
  190.7120  176.8090  142.2340 C   0  0  0  0  0  2  0  0  0  0  0  0
  189.7290  177.2360  141.1500 C   0  0  0  0  0  2  0  0  0  0  0  0
  189.3810  176.9350  144.1720 C   0  0  1  0  0  3  0  0  0  0  0  0
  184.7410  179.1570  142.8800 C   0  0  0  0  0  2  0  0  0  0  0  0
  183.6920  178.9460  143.9440 C   0  0  0  0  0  2  0  0  0  0  0  0
  184.8680  177.9900  143.8430 C   0  0  0  0  0  3  0  0  0  0  0  0
  188.1830  178.9910  140.6210 O   0  0  0  0  0  0  0  0  0  0  0  0
  187.0160  178.2000  138.6190 N   0  0  0  0  0  0  0  0  0  0  0  0
  187.0360  177.7400  137.2410 C   0  0  0  0  0  1  0  0  0  0  0  0
  185.7360  178.3110  139.2970 C   0  0  0  0  0  1  0  0  0  0  0  0
  189.3370  178.4450  138.7010 O   0  0  0  0  0  0  0  0  0  0  0  0
  188.2290  178.5460  139.2970 C   0  0  0  0  0  0  0  0  0  0  0  0
  1  4  2  0  0  0  0
  1 12  1  0  0  0  0
  2 11  1  6  0  0  0
  2 16  1  0  0  0  0
  2  1  1  0  0  0  0
  4  7  1  0  0  0  0
  5 20  1  6  0  0  0
  5 11  1  0  0  0  0
  6  3  1  0  0  0  0
  7  8  1  1  0  0  0
  7 13  1  0  0  0  0
  9 10  1  0  0  0  0
  9 16  1  0  0  0  0
 12  3  1  0  0  0  0
 12 13  2  0  0  0  0
 14  9  1  0  0  0  0
 15  5  1  0  0  0  0
 15 14  1  0  0  0  0
 16  6  1  1  0  0  0
 17 19  1  0  0  0  0
 17 18  1  0  0  0  0
 19 18  1  0  0  0  0
 19  4  1  0  0  0  0
 21 25  1  0  0  0  0
 21 23  1  0  0  0  0
 22 21  1  0  0  0  0
 24 25  2  0  0  0  0
 25 20  1  0  0  0  0
M  END
>  <MODEL>
3

>  <REMARK>
 VINA RESULT:      -8.3      2.001      2.754
  Name = 
  3 active torsions:
  status: ('A' for Active; 'I' for Inactive)
    1  A    between atoms: C_5  and  C_22
    2  A    between atoms: C_6  and  O_15
    3  A    between atoms: O_15  and  C_25
                            x       y       z     vdW  Elec       q    Type
                         _______ _______ _______ _____ _____    ______ ____

>  <TORSDO>
F 3

$$$$
=
 OpenBabel10262419573D

 25 28  0  0  1  0  0  0  0  0999 V2000
  185.8170  178.3400  144.4270 C   0  0  0  0  0  0  0  0  0  0  0  0
  187.0240  177.4390  144.4920 C   0  0  1  0  0  3  0  0  0  0  0  0
  186.0980  178.9760  146.8950 C   0  0  0  0  0  2  0  0  0  0  0  0
  184.8970  178.4580  143.4750 C   0  0  0  0  0  0  0  0  0  0  0  0
  189.1310  178.3010  143.2820 C   0  0  1  0  0  3  0  0  0  0  0  0
  186.9270  177.7650  146.9490 N   0  0  0  0  0  2  0  0  0  0  0  0
  183.7440  179.2820  143.9880 C   0  0  1  0  0  3  0  0  0  0  0  0
  182.5790  178.5130  143.9980 O   0  0  0  0  0  1  0  0  0  0  0  0
  188.9550  176.8070  145.9240 N   0  0  0  0  0  0  0  0  0  0  0  0
  189.2420  176.5060  147.3230 C   0  0  0  0  0  1  0  0  0  0  0  0
  187.8540  177.4700  143.1990 C   0  0  0  0  0  2  0  0  0  0  0  0
  185.3320  179.0020  145.6120 C   0  0  0  0  0  0  0  0  0  0  0  0
  184.1590  179.5690  145.4000 C   0  0  0  0  0  3  0  0  0  0  0  0
  190.1440  177.4970  145.4340 C   0  0  0  0  0  2  0  0  0  0  0  0
  190.2310  177.4600  143.9120 C   0  0  0  0  0  2  0  0  0  0  0  0
  187.8290  177.7480  145.7810 C   0  0  1  0  0  3  0  0  0  0  0  0
  185.1510  178.6870  141.0290 C   0  0  0  0  0  2  0  0  0  0  0  0
  183.7590  178.1580  141.2780 C   0  0  0  0  0  2  0  0  0  0  0  0
  184.9070  177.7150  142.1690 C   0  0  0  0  0  3  0  0  0  0  0  0
  189.5310  178.6860  141.9740 O   0  0  0  0  0  0  0  0  0  0  0  0
  190.6190  177.2480  140.3170 N   0  0  0  0  0  0  0  0  0  0  0  0
  190.5430  176.3420  139.1830 C   0  0  0  0  0  1  0  0  0  0  0  0
  191.9230  177.5560  140.8770 C   0  0  0  0  0  1  0  0  0  0  0  0
  188.3040  177.5490  140.3860 O   0  0  0  0  0  0  0  0  0  0  0  0
  189.4320  177.8210  140.8800 C   0  0  0  0  0  0  0  0  0  0  0  0
  1  2  1  0  0  0  0
  1 12  1  0  0  0  0
  2 11  1  6  0  0  0
  2 16  1  0  0  0  0
  3  6  1  0  0  0  0
  4  7  1  0  0  0  0
  4  1  2  0  0  0  0
  5 20  1  6  0  0  0
  5 15  1  0  0  0  0
  7  8  1  1  0  0  0
  7 13  1  0  0  0  0
  9 10  1  0  0  0  0
 11  5  1  0  0  0  0
 12  3  1  0  0  0  0
 13 12  2  0  0  0  0
 14  9  1  0  0  0  0
 15 14  1  0  0  0  0
 16  9  1  0  0  0  0
 16  6  1  1  0  0  0
 17 18  1  0  0  0  0
 17 19  1  0  0  0  0
 18 19  1  0  0  0  0
 19  4  1  0  0  0  0
 21 23  1  0  0  0  0
 21 25  1  0  0  0  0
 22 21  1  0  0  0  0
 24 25  2  0  0  0  0
 25 20  1  0  0  0  0
M  END
>  <MODEL>
4

>  <REMARK>
 VINA RESULT:      -7.9      1.381      1.975
  Name = 
  3 active torsions:
  status: ('A' for Active; 'I' for Inactive)
    1  A    between atoms: C_5  and  C_22
    2  A    between atoms: C_6  and  O_15
    3  A    between atoms: O_15  and  C_25
                            x       y       z     vdW  Elec       q    Type
                         _______ _______ _______ _____ _____    ______ ____

>  <TORSDO>
F 3

$$$$
=
 OpenBabel10262419573D

 25 28  0  0  1  0  0  0  0  0999 V2000
  185.2570  178.5280  142.0810 C   0  0  0  0  0  0  0  0  0  0  0  0
  186.7030  178.7510  141.7200 C   0  0  1  0  0  3  0  0  0  0  0  0
  184.6300  178.2560  139.6100 C   0  0  0  0  0  2  0  0  0  0  0  0
  184.6370  178.7010  143.2450 C   0  0  0  0  0  0  0  0  0  0  0  0
  188.3080  176.8110  142.2740 C   0  0  1  0  0  3  0  0  0  0  0  0
  185.9170  178.9230  139.3740 N   0  0  0  0  0  2  0  0  0  0  0  0
  183.1470  178.6160  143.0390 C   0  0  1  0  0  3  0  0  0  0  0  0
  182.5510  179.8320  143.3760 O   0  0  0  0  0  1  0  0  0  0  0  0
  188.3210  178.6270  139.8360 N   0  0  0  0  0  0  0  0  0  0  0  0
  188.4020  178.9850  138.4240 C   0  0  0  0  0  1  0  0  0  0  0  0
  187.6700  178.1180  142.7330 C   0  0  0  0  0  2  0  0  0  0  0  0
  184.2590  178.3800  141.0520 C   0  0  0  0  0  0  0  0  0  0  0  0
  183.0400  178.4060  141.5570 C   0  0  0  0  0  3  0  0  0  0  0  0
  189.0820  177.3880  139.9570 C   0  0  0  0  0  2  0  0  0  0  0  0
  189.5100  177.1260  141.3960 C   0  0  0  0  0  2  0  0  0  0  0  0
  186.9390  178.3180  140.2490 C   0  0  1  0  0  3  0  0  0  0  0  0
  185.7720  177.8950  145.2850 C   0  0  0  0  0  2  0  0  0  0  0  0
  184.5300  178.6290  145.7340 C   0  0  0  0  0  2  0  0  0  0  0  0
  185.3050  179.1230  144.5230 C   0  0  0  0  0  3  0  0  0  0  0  0
  188.7410  176.0710  143.4080 O   0  0  0  0  0  0  0  0  0  0  0  0
  190.3260  176.7940  145.1280 N   0  0  0  0  0  0  0  0  0  0  0  0
  191.6810  176.8740  145.6480 C   0  0  0  0  0  1  0  0  0  0  0  0
  189.2480  177.3860  145.9000 C   0  0  0  0  0  1  0  0  0  0  0  0
  190.9960  175.6280  143.2190 O   0  0  0  0  0  0  0  0  0  0  0  0
  190.0530  176.1380  143.8840 C   0  0  0  0  0  0  0  0  0  0  0  0
  1  4  2  0  0  0  0
  2  1  1  0  0  0  0
  2 11  1  1  0  0  0
  3 12  1  0  0  0  0
  4 19  1  0  0  0  0
  5 11  1  0  0  0  0
  5 20  1  1  0  0  0
  6  3  1  0  0  0  0
  7  4  1  0  0  0  0
  7  8  1  6  0  0  0
  9 14  1  0  0  0  0
  9 16  1  0  0  0  0
 10  9  1  0  0  0  0
 12 13  2  0  0  0  0
 12  1  1  0  0  0  0
 13  7  1  0  0  0  0
 14 15  1  0  0  0  0
 15  5  1  0  0  0  0
 16  6  1  6  0  0  0
 16  2  1  0  0  0  0
 17 18  1  0  0  0  0
 19 17  1  0  0  0  0
 19 18  1  0  0  0  0
 20 25  1  0  0  0  0
 21 22  1  0  0  0  0
 21 23  1  0  0  0  0
 24 25  2  0  0  0  0
 25 21  1  0  0  0  0
M  END
>  <MODEL>
5

>  <REMARK>
 VINA RESULT:      -7.7      2.331      5.486
  Name = 
  3 active torsions:
  status: ('A' for Active; 'I' for Inactive)
    1  A    between atoms: C_5  and  C_22
    2  A    between atoms: C_6  and  O_15
    3  A    between atoms: O_15  and  C_25
                            x       y       z     vdW  Elec       q    Type
                         _______ _______ _______ _____ _____    ______ ____

>  <TORSDO>
F 3

$$$$
=
 OpenBabel10262419573D

 25 28  0  0  1  0  0  0  0  0999 V2000
  187.9390  177.6550  142.2050 C   0  0  0  0  0  0  0  0  0  0  0  0
  186.8320  178.6080  142.5760 C   0  0  1  0  0  3  0  0  0  0  0  0
  187.8500  176.5700  144.5270 C   0  0  0  0  0  2  0  0  0  0  0  0
  188.7460  177.6610  141.1480 C   0  0  0  0  0  0  0  0  0  0  0  0
  184.5450  178.1480  141.4770 C   0  0  1  0  0  3  0  0  0  0  0  0
  187.1430  177.8020  144.9010 N   0  0  0  0  0  2  0  0  0  0  0  0
  189.8650  176.6740  141.3620 C   0  0  1  0  0  3  0  0  0  0  0  0
  191.0890  177.3440  141.3810 O   0  0  0  0  0  1  0  0  0  0  0  0
  185.1180  179.0810  144.3130 N   0  0  0  0  0  0  0  0  0  0  0  0
  185.0000  179.1210  145.7680 C   0  0  0  0  0  1  0  0  0  0  0  0
  185.8770  178.8880  141.4040 C   0  0  0  0  0  2  0  0  0  0  0  0
  188.4780  176.7420  143.1820 C   0  0  0  0  0  0  0  0  0  0  0  0
  189.5680  176.1460  142.7340 C   0  0  0  0  0  3  0  0  0  0  0  0
  183.8290  178.5840  143.8430 C   0  0  0  0  0  2  0  0  0  0  0  0
  183.5940  178.9240  142.3760 C   0  0  0  0  0  2  0  0  0  0  0  0
  186.1340  178.1090  143.8690 C   0  0  1  0  0  3  0  0  0  0  0  0
  187.8920  178.0380  138.8620 C   0  0  0  0  0  2  0  0  0  0  0  0
  189.3980  178.1180  138.7870 C   0  0  0  0  0  2  0  0  0  0  0  0
  188.6730  178.6440  140.0140 C   0  0  0  0  0  3  0  0  0  0  0  0
  183.9830  178.0540  140.1750 O   0  0  0  0  0  0  0  0  0  0  0  0
  182.1650  179.3340  139.1480 N   0  0  0  0  0  0  0  0  0  0  0  0
  181.6920  180.4980  138.4180 C   0  0  0  0  0  1  0  0  0  0  0  0
  181.2000  178.3300  139.5590 C   0  0  0  0  0  1  0  0  0  0  0  0
  184.3860  180.0570  139.1050 O   0  0  0  0  0  0  0  0  0  0  0  0
  183.5540  179.1810  139.4670 C   0  0  0  0  0  0  0  0  0  0  0  0
  1  2  1  0  0  0  0
  1 12  1  0  0  0  0
  2 11  1  6  0  0  0
  2 16  1  0  0  0  0
  3  6  1  0  0  0  0
  4  7  1  0  0  0  0
  4  1  2  0  0  0  0
  5 20  1  6  0  0  0
  5 15  1  0  0  0  0
  7  8  1  1  0  0  0
  7 13  1  0  0  0  0
  9 10  1  0  0  0  0
 11  5  1  0  0  0  0
 12  3  1  0  0  0  0
 13 12  2  0  0  0  0
 14  9  1  0  0  0  0
 15 14  1  0  0  0  0
 16  9  1  0  0  0  0
 16  6  1  1  0  0  0
 17 19  1  0  0  0  0
 18 17  1  0  0  0  0
 18 19  1  0  0  0  0
 19  4  1  0  0  0  0
 21 25  1  0  0  0  0
 21 23  1  0  0  0  0
 22 21  1  0  0  0  0
 24 25  2  0  0  0  0
 25 20  1  0  0  0  0
M  END
>  <MODEL>
6

>  <REMARK>
 VINA RESULT:      -7.6      3.529      6.614
  Name = 
  3 active torsions:
  status: ('A' for Active; 'I' for Inactive)
    1  A    between atoms: C_5  and  C_22
    2  A    between atoms: C_6  and  O_15
    3  A    between atoms: O_15  and  C_25
                            x       y       z     vdW  Elec       q    Type
                         _______ _______ _______ _____ _____    ______ ____

>  <TORSDO>
F 3

$$$$
=
 OpenBabel10262419573D

 25 28  0  0  1  0  0  0  0  0999 V2000
  188.5730  177.5520  146.1550 C   0  0  0  0  0  0  0  0  0  0  0  0
  188.9160  176.7990  144.8950 C   0  0  1  0  0  3  0  0  0  0  0  0
  190.9760  177.3040  147.0150 C   0  0  0  0  0  2  0  0  0  0  0  0
  187.3850  177.9120  146.6320 C   0  0  0  0  0  0  0  0  0  0  0  0
  189.0620  178.2190  142.7480 C   0  0  1  0  0  3  0  0  0  0  0  0
  191.0550  176.2330  146.0150 N   0  0  0  0  0  2  0  0  0  0  0  0
  187.5370  178.3950  148.0520 C   0  0  1  0  0  3  0  0  0  0  0  0
  186.8150  177.5690  148.9130 O   0  0  0  0  0  1  0  0  0  0  0  0
  190.8200  175.8840  143.5850 N   0  0  0  0  0  0  0  0  0  0  0  0
  192.0560  175.1390  143.8040 C   0  0  0  0  0  1  0  0  0  0  0  0
  188.1930  177.3570  143.6590 C   0  0  0  0  0  2  0  0  0  0  0  0
  189.5500  177.7090  147.2040 C   0  0  0  0  0  0  0  0  0  0  0  0
  189.0050  178.2060  148.2990 C   0  0  0  0  0  3  0  0  0  0  0  0
  191.1230  176.8070  142.4960 C   0  0  0  0  0  2  0  0  0  0  0  0
  189.8550  177.3140  141.8170 C   0  0  0  0  0  2  0  0  0  0  0  0
  190.4580  176.7090  144.7530 C   0  0  1  0  0  3  0  0  0  0  0  0
  185.5330  178.9940  145.4080 C   0  0  0  0  0  2  0  0  0  0  0  0
  184.9400  178.3920  146.6600 C   0  0  0  0  0  2  0  0  0  0  0  0
  186.0720  177.6780  145.9410 C   0  0  0  0  0  3  0  0  0  0  0  0
  188.2320  179.0730  141.9720 O   0  0  0  0  0  0  0  0  0  0  0  0
  186.2660  178.6280  140.5810 N   0  0  0  0  0  0  0  0  0  0  0  0
  185.6760  178.2200  139.3180 C   0  0  0  0  0  1  0  0  0  0  0  0
  185.3850  179.0020  141.6740 C   0  0  0  0  0  1  0  0  0  0  0  0
  188.4470  178.3440  139.7950 O   0  0  0  0  0  0  0  0  0  0  0  0
  187.6890  178.6720  140.7480 C   0  0  0  0  0  0  0  0  0  0  0  0
  1  4  2  0  0  0  0
  1 12  1  0  0  0  0
  2 11  1  6  0  0  0
  2  1  1  0  0  0  0
  3 12  1  0  0  0  0
  4  7  1  0  0  0  0
  5 20  1  6  0  0  0
  5 11  1  0  0  0  0
  6  3  1  0  0  0  0
  7 13  1  0  0  0  0
  7  8  1  1  0  0  0
  9 10  1  0  0  0  0
  9 16  1  0  0  0  0
 12 13  2  0  0  0  0
 14  9  1  0  0  0  0
 15 14  1  0  0  0  0
 15  5  1  0  0  0  0
 16  2  1  0  0  0  0
 16  6  1  1  0  0  0
 17 19  1  0  0  0  0
 17 18  1  0  0  0  0
 19  4  1  0  0  0  0
 19 18  1  0  0  0  0
 21 25  1  0  0  0  0
 21 23  1  0  0  0  0
 22 21  1  0  0  0  0
 24 25  2  0  0  0  0
 25 20  1  0  0  0  0
M  END
>  <MODEL>
7

>  <REMARK>
 VINA RESULT:      -7.6      1.908      3.092
  Name = 
  3 active torsions:
  status: ('A' for Active; 'I' for Inactive)
    1  A    between atoms: C_5  and  C_22
    2  A    between atoms: C_6  and  O_15
    3  A    between atoms: O_15  and  C_25
                            x       y       z     vdW  Elec       q    Type
                         _______ _______ _______ _____ _____    ______ ____

>  <TORSDO>
F 3

$$$$
=
 OpenBabel10262419573D

 25 28  0  0  1  0  0  0  0  0999 V2000
  190.1780  177.1840  144.4910 C   0  0  0  0  0  0  0  0  0  0  0  0
  189.5040  178.0180  145.5500 C   0  0  1  0  0  3  0  0  0  0  0  0
  191.6760  176.0730  146.2490 C   0  0  0  0  0  2  0  0  0  0  0  0
  190.1140  177.2810  143.1660 C   0  0  0  0  0  0  0  0  0  0  0  0
  187.0850  177.3450  146.1350 C   0  0  1  0  0  3  0  0  0  0  0  0
  191.2920  177.2240  147.0750 N   0  0  0  0  0  2  0  0  0  0  0  0
  191.1740  176.4080  142.5450 C   0  0  1  0  0  3  0  0  0  0  0  0
  192.0740  177.1950  141.8250 O   0  0  0  0  0  1  0  0  0  0  0  0
  189.2800  178.3020  148.0090 N   0  0  0  0  0  0  0  0  0  0  0  0
  190.1210  178.3160  149.2010 C   0  0  0  0  0  1  0  0  0  0  0  0
  188.0040  178.2140  145.2810 C   0  0  0  0  0  2  0  0  0  0  0  0
  191.2800  176.3190  144.8300 C   0  0  0  0  0  0  0  0  0  0  0  0
  191.8650  175.8390  143.7480 C   0  0  0  0  0  3  0  0  0  0  0  0
  188.0290  177.6850  148.4370 C   0  0  0  0  0  2  0  0  0  0  0  0
  186.8830  178.0140  147.4860 C   0  0  0  0  0  2  0  0  0  0  0  0
  189.8370  177.4400  146.9500 C   0  0  1  0  0  3  0  0  0  0  0  0
  187.9910  177.5790  141.9400 C   0  0  0  0  0  2  0  0  0  0  0  0
  189.1060  177.8520  140.9590 C   0  0  0  0  0  2  0  0  0  0  0  0
  189.2610  178.2630  142.4130 C   0  0  0  0  0  3  0  0  0  0  0  0
  185.8260  177.2090  145.4890 O   0  0  0  0  0  0  0  0  0  0  0  0
  184.3920  178.7080  144.1870 N   0  0  0  0  0  0  0  0  0  0  0  0
  183.4190  179.7850  144.1180 C   0  0  0  0  0  1  0  0  0  0  0  0
  184.8420  178.0940  142.9500 C   0  0  0  0  0  1  0  0  0  0  0  0
  184.5000  178.7900  146.5190 O   0  0  0  0  0  0  0  0  0  0  0  0
  184.8940  178.2510  145.4490 C   0  0  0  0  0  0  0  0  0  0  0  0
  1 12  1  0  0  0  0
  1  2  1  0  0  0  0
  2 11  1  6  0  0  0
  2 16  1  0  0  0  0
  3  6  1  0  0  0  0
  4  1  2  0  0  0  0
  5 20  1  6  0  0  0
  5 15  1  0  0  0  0
  7  8  1  6  0  0  0
  7  4  1  0  0  0  0
  7 13  1  0  0  0  0
  9 14  1  0  0  0  0
  9 10  1  0  0  0  0
 11  5  1  0  0  0  0
 12  3  1  0  0  0  0
 13 12  2  0  0  0  0
 15 14  1  0  0  0  0
 16  6  1  1  0  0  0
 16  9  1  0  0  0  0
 17 19  1  0  0  0  0
 18 17  1  0  0  0  0
 18 19  1  0  0  0  0
 19  4  1  0  0  0  0
 21 25  1  0  0  0  0
 22 21  1  0  0  0  0
 23 21  1  0  0  0  0
 25 20  1  0  0  0  0
 25 24  2  0  0  0  0
M  END
>  <MODEL>
8

>  <REMARK>
 VINA RESULT:      -7.3      1.994      5.467
  Name = 
  3 active torsions:
  status: ('A' for Active; 'I' for Inactive)
    1  A    between atoms: C_5  and  C_22
    2  A    between atoms: C_6  and  O_15
    3  A    between atoms: O_15  and  C_25
                            x       y       z     vdW  Elec       q    Type
                         _______ _______ _______ _____ _____    ______ ____

>  <TORSDO>
F 3

$$$$
=
 OpenBabel10262419573D

 25 28  0  0  1  0  0  0  0  0999 V2000
  187.8330  177.6950  142.0700 C   0  0  0  0  0  0  0  0  0  0  0  0
  186.6810  178.6250  142.3530 C   0  0  1  0  0  3  0  0  0  0  0  0
  187.6450  176.6700  144.4130 C   0  0  0  0  0  2  0  0  0  0  0  0
  188.6960  177.6960  141.0580 C   0  0  0  0  0  0  0  0  0  0  0  0
  184.4720  178.0710  141.1450 C   0  0  1  0  0  3  0  0  0  0  0  0
  186.8860  177.8900  144.7130 N   0  0  0  0  0  2  0  0  0  0  0  0
  189.8280  176.7480  141.3600 C   0  0  1  0  0  3  0  0  0  0  0  0
  191.0310  177.4520  141.4270 O   0  0  0  0  0  1  0  0  0  0  0  0
  184.8620  179.0950  143.9810 N   0  0  0  0  0  0  0  0  0  0  0  0
  184.6640  179.1700  145.4250 C   0  0  0  0  0  1  0  0  0  0  0  0
  185.7860  178.8470  141.1240 C   0  0  0  0  0  2  0  0  0  0  0  0
  188.3420  176.8240  143.1000 C   0  0  0  0  0  0  0  0  0  0  0  0
  189.4700  176.2480  142.7280 C   0  0  0  0  0  3  0  0  0  0  0  0
  183.6150  178.5490  143.4560 C   0  0  0  0  0  2  0  0  0  0  0  0
  183.4520  178.8430  141.9680 C   0  0  0  0  0  2  0  0  0  0  0  0
  185.9280  178.1410  143.6190 C   0  0  1  0  0  3  0  0  0  0  0  0
  187.9570  177.9890  138.7200 C   0  0  0  0  0  2  0  0  0  0  0  0
  189.4620  178.1080  138.7230 C   0  0  0  0  0  2  0  0  0  0  0  0
  188.6590  178.6460  139.8950 C   0  0  0  0  0  3  0  0  0  0  0  0
  183.9860  177.9270  139.8170 O   0  0  0  0  0  0  0  0  0  0  0  0
  181.6850  177.9810  138.9800 N   0  0  0  0  0  0  0  0  0  0  0  0
  180.4350  177.3080  138.6680 C   0  0  0  0  0  1  0  0  0  0  0  0
  181.7940  179.4050  138.7140 C   0  0  0  0  0  1  0  0  0  0  0  0
  182.6880  176.0210  139.7600 O   0  0  0  0  0  0  0  0  0  0  0  0
  182.7920  177.2570  139.5300 C   0  0  0  0  0  0  0  0  0  0  0  0
  1  2  1  0  0  0  0
  1 12  1  0  0  0  0
  2 11  1  6  0  0  0
  2 16  1  0  0  0  0
  3  6  1  0  0  0  0
  4  7  1  0  0  0  0
  4  1  2  0  0  0  0
  5 20  1  6  0  0  0
  5 15  1  0  0  0  0
  7  8  1  1  0  0  0
  7 13  1  0  0  0  0
  9 10  1  0  0  0  0
 11  5  1  0  0  0  0
 12  3  1  0  0  0  0
 13 12  2  0  0  0  0
 14  9  1  0  0  0  0
 15 14  1  0  0  0  0
 16  9  1  0  0  0  0
 16  6  1  1  0  0  0
 17 18  1  0  0  0  0
 17 19  1  0  0  0  0
 18 19  1  0  0  0  0
 19  4  1  0  0  0  0
 21 25  1  0  0  0  0
 22 21  1  0  0  0  0
 23 21  1  0  0  0  0
 25 24  2  0  0  0  0
 25 20  1  0  0  0  0
M  END
>  <MODEL>
9

>  <REMARK>
 VINA RESULT:      -7.3      3.723      6.778
  Name = 
  3 active torsions:
  status: ('A' for Active; 'I' for Inactive)
    1  A    between atoms: C_5  and  C_22
    2  A    between atoms: C_6  and  O_15
    3  A    between atoms: O_15  and  C_25
                            x       y       z     vdW  Elec       q    Type
                         _______ _______ _______ _____ _____    ______ ____

>  <TORSDO>
F 3

$$$$
