=
 OpenBabel10262421193D

 32 35  0  0  1  0  0  0  0  0999 V2000
  188.9320  176.5070  143.5460 C   0  0  0  0  0  2  0  0  0  0  0  0
  190.0270  177.4470  143.1500 N   0  0  0  0  0  0  0  0  0  0  0  0
  188.5070  177.0140  144.9330 C   0  0  1  0  0  3  0  0  0  0  0  0
  189.3900  178.0560  145.3590 N   0  0  0  0  0  0  0  0  0  0  0  0
  190.9120  179.4630  144.0670 C   0  0  0  0  0  1  0  0  0  0  0  0
  190.5050  178.0140  144.3880 C   0  0  2  0  0  3  0  0  0  0  0  0
  187.1110  177.6420  144.8930 C   0  0  0  0  0  0  0  0  0  0  0  0
  186.4460  177.9660  146.0890 C   0  0  0  0  0  3  0  0  0  0  0  0
  183.1020  178.7610  142.4260 C   0  0  0  0  0  3  0  0  0  0  0  0
  186.4220  177.7540  143.6960 C   0  0  0  0  0  3  0  0  0  0  0  0
  183.1730  179.0550  144.8200 C   0  0  0  0  0  3  0  0  0  0  0  0
  184.5070  178.6050  144.8700 C   0  0  0  0  0  0  0  0  0  0  0  0
  185.1600  178.4800  146.0640 C   0  0  0  0  0  3  0  0  0  0  0  0
  185.1100  178.2380  143.6540 C   0  0  0  0  0  0  0  0  0  0  0  0
  182.5070  179.1450  143.6350 C   0  0  0  0  0  3  0  0  0  0  0  0
  184.4280  178.3310  142.4550 C   0  0  0  0  0  3  0  0  0  0  0  0
  191.0570  176.6690  142.3840 C   0  0  2  0  0  3  0  0  0  0  0  0
  192.0070  176.2220  143.2080 O   0  0  0  0  0  1  0  0  0  0  0  0
  191.6350  177.3740  141.0980 C   0  0  0  0  0  2  0  0  0  0  0  0
  191.0200  176.9320  139.7440 C   0  0  1  0  0  3  0  0  0  0  0  0
  190.0770  177.9260  139.3470 O   0  0  0  0  0  0  0  0  0  0  0  0
  188.7320  177.4290  139.4410 C   0  0  0  0  0  2  0  0  0  0  0  0
  187.8520  178.3200  140.3100 C   0  0  0  0  0  2  0  0  0  0  0  0
  186.6340  178.6520  139.6330 O   0  0  0  0  0  1  0  0  0  0  0  0
  192.0420  176.7350  138.6900 N   0  0  0  0  0  2  0  0  0  0  0  0
  190.9520  174.5510  137.9310 N   0  0  0  0  0  1  0  0  0  0  0  0
  193.4130  175.2440  137.0850 S   0  0  0  0  0  0  0  0  0  0  0  0
  192.0510  175.4960  137.9190 C   0  0  0  0  0  0  0  0  0  0  0  0
  189.9280  177.7730  146.6940 C   0  0  0  0  0  2  0  0  0  0  0  0
  191.0880  176.8240  146.5180 C   0  0  1  0  0  3  0  0  0  0  0  0
  191.9170  176.4680  147.6830 C   0  0  0  0  0  2  0  0  0  0  0  0
  190.7610  175.7410  147.3750 O   0  0  0  0  0  0  0  0  0  0  0  0
  1  3  1  0  0  0  0
  2  1  1  0  0  0  0
  2  6  1  0  0  0  0
  3  7  1  6  0  0  0
  3  4  1  0  0  0  0
  4 29  1  0  0  0  0
  6  5  1  6  0  0  0
  6  4  1  0  0  0  0
  7  8  1  0  0  0  0
  9 16  2  0  0  0  0
  9 15  1  0  0  0  0
 10  7  2  0  0  0  0
 11 12  1  0  0  0  0
 12 13  1  0  0  0  0
 13  8  2  0  0  0  0
 14 10  1  0  0  0  0
 14 12  2  0  0  0  0
 15 11  2  0  0  0  0
 16 14  1  0  0  0  0
 17  2  1  0  0  0  0
 17 18  1  1  0  0  0
 19 17  1  0  0  0  0
 20 19  1  1  0  0  0
 21 22  1  0  0  0  0
 21 20  1  0  0  0  0
 22 23  1  0  0  0  0
 24 23  1  0  0  0  0
 25 20  1  0  0  0  0
 27 28  2  0  0  0  0
 28 26  1  0  0  0  0
 28 25  1  0  0  0  0
 30 29  1  1  0  0  0
 30 32  1  0  0  0  0
 30 31  1  0  0  0  0
 32 31  1  0  0  0  0
M  END
>  <MODEL>
1

>  <REMARK>
 VINA RESULT:      -8.8      0.000      0.000
  Name = 
  11 active torsions:
  status: ('A' for Active; 'I' for Inactive)
    1  A    between atoms: C_2  and  C_5
    2  A    between atoms: C_3  and  O_8
    3  A    between atoms: C_3  and  C_22
    4  A    between atoms: N_4  and  C_24
    5  A    between atoms: O_8  and  C_20
    6  A    between atoms: C_13  and  C_18
    7  A    between atoms: N_14  and  C_18
    8  A    between atoms: N_15  and  C_20
    9  A    between atoms: N_15  and  C_26
   10  A    between atoms: C_16  and  C_20
   11  A    between atoms: C_16  and  C_24
                            x       y       z     vdW  Elec       q    Type
                         _______ _______ _______ _____ _____    ______ ____

>  <TORSDO>
F 11

$$$$
=
 OpenBabel10262421193D

 32 35  0  0  1  0  0  0  0  0999 V2000
  188.9030  176.5220  143.4500 C   0  0  0  0  0  2  0  0  0  0  0  0
  189.9890  177.4730  143.0540 N   0  0  0  0  0  0  0  0  0  0  0  0
  188.5000  177.0020  144.8530 C   0  0  1  0  0  3  0  0  0  0  0  0
  189.3870  178.0380  145.2840 N   0  0  0  0  0  0  0  0  0  0  0  0
  190.8840  179.4740  143.9930 C   0  0  0  0  0  1  0  0  0  0  0  0
  190.4860  178.0180  144.2940 C   0  0  2  0  0  3  0  0  0  0  0  0
  187.1020  177.6260  144.8480 C   0  0  0  0  0  0  0  0  0  0  0  0
  186.4550  177.9240  146.0610 C   0  0  0  0  0  3  0  0  0  0  0  0
  183.0510  178.7820  142.4690 C   0  0  0  0  0  3  0  0  0  0  0  0
  186.3940  177.7600  143.6650 C   0  0  0  0  0  3  0  0  0  0  0  0
  183.1590  179.0280  144.8670 C   0  0  0  0  0  3  0  0  0  0  0  0
  184.4950  178.5810  144.8870 C   0  0  0  0  0  0  0  0  0  0  0  0
  185.1680  178.4340  146.0670 C   0  0  0  0  0  3  0  0  0  0  0  0
  185.0790  178.2400  143.6540 C   0  0  0  0  0  0  0  0  0  0  0  0
  182.4750  179.1400  143.6950 C   0  0  0  0  0  3  0  0  0  0  0  0
  184.3780  178.3560  142.4680 C   0  0  0  0  0  3  0  0  0  0  0  0
  191.0080  176.7120  142.2550 C   0  0  2  0  0  3  0  0  0  0  0  0
  192.0270  176.3460  143.0360 O   0  0  0  0  0  1  0  0  0  0  0  0
  191.4710  177.3880  140.9090 C   0  0  0  0  0  2  0  0  0  0  0  0
  190.6120  177.0730  139.6570 C   0  0  1  0  0  3  0  0  0  0  0  0
  190.9400  175.7540  139.2220 O   0  0  0  0  0  0  0  0  0  0  0  0
  191.5320  175.7740  137.9140 C   0  0  0  0  0  2  0  0  0  0  0  0
  193.0530  175.6860  137.9720 C   0  0  0  0  0  2  0  0  0  0  0  0
  193.6500  176.9590  137.6980 O   0  0  0  0  0  1  0  0  0  0  0  0
  189.1580  177.1870  139.9190 N   0  0  0  0  0  2  0  0  0  0  0  0
  187.0210  178.5290  139.5160 N   0  0  0  0  0  1  0  0  0  0  0  0
  189.0590  178.5980  137.7560 S   0  0  0  0  0  0  0  0  0  0  0  0
  188.3540  178.1130  139.1280 C   0  0  0  0  0  0  0  0  0  0  0  0
  189.9480  177.7320  146.6040 C   0  0  0  0  0  2  0  0  0  0  0  0
  191.0550  176.7270  146.3980 C   0  0  1  0  0  3  0  0  0  0  0  0
  191.9430  176.3860  147.5250 C   0  0  0  0  0  2  0  0  0  0  0  0
  190.7410  175.6970  147.3230 O   0  0  0  0  0  0  0  0  0  0  0  0
  1  3  1  0  0  0  0
  2  1  1  0  0  0  0
  2  6  1  0  0  0  0
  3  7  1  6  0  0  0
  3  4  1  0  0  0  0
  4 29  1  0  0  0  0
  6  5  1  6  0  0  0
  6  4  1  0  0  0  0
  7  8  1  0  0  0  0
  8 13  2  0  0  0  0
  9 15  1  0  0  0  0
 10  7  2  0  0  0  0
 11 12  1  0  0  0  0
 12 13  1  0  0  0  0
 14 10  1  0  0  0  0
 14 12  2  0  0  0  0
 15 11  2  0  0  0  0
 16  9  2  0  0  0  0
 16 14  1  0  0  0  0
 17 18  1  1  0  0  0
 17  2  1  0  0  0  0
 19 17  1  0  0  0  0
 20 25  1  0  0  0  0
 20 19  1  1  0  0  0
 21 20  1  0  0  0  0
 22 23  1  0  0  0  0
 22 21  1  0  0  0  0
 24 23  1  0  0  0  0
 27 28  2  0  0  0  0
 28 26  1  0  0  0  0
 28 25  1  0  0  0  0
 30 29  1  1  0  0  0
 30 32  1  0  0  0  0
 30 31  1  0  0  0  0
 32 31  1  0  0  0  0
M  END
>  <MODEL>
2

>  <REMARK>
 VINA RESULT:      -8.8      1.683      2.565
  Name = 
  11 active torsions:
  status: ('A' for Active; 'I' for Inactive)
    1  A    between atoms: C_2  and  C_5
    2  A    between atoms: C_3  and  O_8
    3  A    between atoms: C_3  and  C_22
    4  A    between atoms: N_4  and  C_24
    5  A    between atoms: O_8  and  C_20
    6  A    between atoms: C_13  and  C_18
    7  A    between atoms: N_14  and  C_18
    8  A    between atoms: N_15  and  C_20
    9  A    between atoms: N_15  and  C_26
   10  A    between atoms: C_16  and  C_20
   11  A    between atoms: C_16  and  C_24
                            x       y       z     vdW  Elec       q    Type
                         _______ _______ _______ _____ _____    ______ ____

>  <TORSDO>
F 11

$$$$
=
 OpenBabel10262421193D

 32 35  0  0  1  0  0  0  0  0999 V2000
  189.1510  176.5740  142.0030 C   0  0  0  0  0  2  0  0  0  0  0  0
  190.3540  177.4570  141.8950 N   0  0  0  0  0  0  0  0  0  0  0  0
  188.9450  176.4310  143.5190 C   0  0  1  0  0  3  0  0  0  0  0  0
  190.0300  177.0510  144.2150 N   0  0  0  0  0  0  0  0  0  0  0  0
  191.6550  178.7080  143.4530 C   0  0  0  0  0  1  0  0  0  0  0  0
  191.0310  177.3320  143.1620 C   0  0  2  0  0  3  0  0  0  0  0  0
  187.6820  177.1640  143.9810 C   0  0  0  0  0  0  0  0  0  0  0  0
  187.4580  177.3910  145.3510 C   0  0  0  0  0  3  0  0  0  0  0  0
  183.2570  178.8720  143.0290 C   0  0  0  0  0  3  0  0  0  0  0  0
  186.6750  177.4700  143.0810 C   0  0  0  0  0  3  0  0  0  0  0  0
  184.0940  178.8700  145.2920 C   0  0  0  0  0  3  0  0  0  0  0  0
  185.3200  178.3170  144.8750 C   0  0  0  0  0  0  0  0  0  0  0  0
  186.2910  178.0000  145.7820 C   0  0  0  0  0  3  0  0  0  0  0  0
  185.4750  178.0540  143.5020 C   0  0  0  0  0  0  0  0  0  0  0  0
  183.1090  179.1520  144.3930 C   0  0  0  0  0  3  0  0  0  0  0  0
  184.4720  178.3420  142.5960 C   0  0  0  0  0  3  0  0  0  0  0  0
  191.1600  177.0070  140.7110 C   0  0  2  0  0  3  0  0  0  0  0  0
  192.0410  177.9490  140.3660 O   0  0  0  0  0  1  0  0  0  0  0  0
  190.3350  176.4530  139.4880 C   0  0  0  0  0  2  0  0  0  0  0  0
  190.8310  176.8810  138.0820 C   0  0  1  0  0  3  0  0  0  0  0  0
  191.6560  175.8360  137.5720 O   0  0  0  0  0  0  0  0  0  0  0  0
  193.0290  176.2520  137.4940 C   0  0  0  0  0  2  0  0  0  0  0  0
  193.9810  175.1840  138.0210 C   0  0  0  0  0  2  0  0  0  0  0  0
  195.2760  175.3120  137.4210 O   0  0  0  0  0  1  0  0  0  0  0  0
  189.7180  177.1690  137.1470 N   0  0  0  0  0  2  0  0  0  0  0  0
  189.0080  179.5740  137.6390 N   0  0  0  0  0  1  0  0  0  0  0  0
  187.2450  177.5440  137.7950 S   0  0  0  0  0  0  0  0  0  0  0  0
  188.7110  178.1610  137.5080 C   0  0  0  0  0  0  0  0  0  0  0  0
  190.6270  176.1250  145.1850 C   0  0  0  0  0  2  0  0  0  0  0  0
  190.7260  176.8570  146.5010 C   0  0  1  0  0  3  0  0  0  0  0  0
  191.5280  176.2790  147.5940 C   0  0  0  0  0  2  0  0  0  0  0  0
  192.1160  177.1110  146.6330 O   0  0  0  0  0  0  0  0  0  0  0  0
  1  3  1  0  0  0  0
  2  1  1  0  0  0  0
  2  6  1  0  0  0  0
  3  7  1  1  0  0  0
  3  4  1  0  0  0  0
  4 29  1  0  0  0  0
  6  5  1  1  0  0  0
  6  4  1  0  0  0  0
  7  8  1  0  0  0  0
  8 13  2  0  0  0  0
  9 15  1  0  0  0  0
 10 14  1  0  0  0  0
 10  7  2  0  0  0  0
 12 11  1  0  0  0  0
 12 13  1  0  0  0  0
 14 12  2  0  0  0  0
 15 11  2  0  0  0  0
 16  9  2  0  0  0  0
 16 14  1  0  0  0  0
 17 18  1  6  0  0  0
 17  2  1  0  0  0  0
 19 17  1  0  0  0  0
 20 19  1  1  0  0  0
 21 20  1  0  0  0  0
 22 21  1  0  0  0  0
 22 23  1  0  0  0  0
 24 23  1  0  0  0  0
 25 28  1  0  0  0  0
 25 20  1  0  0  0  0
 28 26  1  0  0  0  0
 28 27  2  0  0  0  0
 30 29  1  6  0  0  0
 30 32  1  0  0  0  0
 30 31  1  0  0  0  0
 32 31  1  0  0  0  0
M  END
>  <MODEL>
3

>  <REMARK>
 VINA RESULT:      -7.7      2.208      3.212
  Name = 
  11 active torsions:
  status: ('A' for Active; 'I' for Inactive)
    1  A    between atoms: C_2  and  C_5
    2  A    between atoms: C_3  and  O_8
    3  A    between atoms: C_3  and  C_22
    4  A    between atoms: N_4  and  C_24
    5  A    between atoms: O_8  and  C_20
    6  A    between atoms: C_13  and  C_18
    7  A    between atoms: N_14  and  C_18
    8  A    between atoms: N_15  and  C_20
    9  A    between atoms: N_15  and  C_26
   10  A    between atoms: C_16  and  C_20
   11  A    between atoms: C_16  and  C_24
                            x       y       z     vdW  Elec       q    Type
                         _______ _______ _______ _____ _____    ______ ____

>  <TORSDO>
F 11

$$$$
=
 OpenBabel10262421193D

 32 35  0  0  1  0  0  0  0  0999 V2000
  184.1810  178.9870  140.2110 C   0  0  0  0  0  2  0  0  0  0  0  0
  183.7970  177.7560  139.4520 N   0  0  0  0  0  0  0  0  0  0  0  0
  183.1360  179.0560  141.3360 C   0  0  1  0  0  3  0  0  0  0  0  0
  182.1480  178.0400  141.1410 N   0  0  0  0  0  0  0  0  0  0  0  0
  182.2240  175.9980  139.8020 C   0  0  0  0  0  1  0  0  0  0  0  0
  182.4120  177.5260  139.7800 C   0  0  2  0  0  3  0  0  0  0  0  0
  183.7680  178.7670  142.7010 C   0  0  0  0  0  0  0  0  0  0  0  0
  183.1050  179.1480  143.8820 C   0  0  0  0  0  3  0  0  0  0  0  0
  187.6170  177.4890  145.3380 C   0  0  0  0  0  3  0  0  0  0  0  0
  185.0590  178.2740  142.7900 C   0  0  0  0  0  3  0  0  0  0  0  0
  185.6150  178.2830  146.4240 C   0  0  0  0  0  3  0  0  0  0  0  0
  184.9610  178.4330  145.1850 C   0  0  0  0  0  0  0  0  0  0  0  0
  183.6960  178.9440  145.1180 C   0  0  0  0  0  3  0  0  0  0  0  0
  185.6850  178.0940  144.0290 C   0  0  0  0  0  0  0  0  0  0  0  0
  186.8900  177.8090  146.4910 C   0  0  0  0  0  3  0  0  0  0  0  0
  186.9790  177.6140  144.1040 C   0  0  0  0  0  3  0  0  0  0  0  0
  184.0600  178.0040  137.9950 C   0  0  2  0  0  3  0  0  0  0  0  0
  182.9130  178.2460  137.3530 O   0  0  0  0  0  1  0  0  0  0  0  0
  184.9630  176.9380  137.2660 C   0  0  0  0  0  2  0  0  0  0  0  0
  186.4110  177.3840  136.9350 C   0  0  1  0  0  3  0  0  0  0  0  0
  186.7610  178.4360  137.8320 O   0  0  0  0  0  0  0  0  0  0  0  0
  187.7350  177.9950  138.7910 C   0  0  0  0  0  2  0  0  0  0  0  0
  189.0710  178.7100  138.6200 C   0  0  0  0  0  2  0  0  0  0  0  0
  188.9950  179.6960  137.5840 O   0  0  0  0  0  1  0  0  0  0  0  0
  187.3870  176.2730  137.0300 N   0  0  0  0  0  2  0  0  0  0  0  0
  188.3270  174.4960  135.4520 N   0  0  0  0  0  1  0  0  0  0  0  0
  188.8110  177.1140  135.0450 S   0  0  0  0  0  0  0  0  0  0  0  0
  188.1470  175.8790  135.8480 C   0  0  0  0  0  0  0  0  0  0  0  0
  180.7970  178.6110  141.1670 C   0  0  0  0  0  2  0  0  0  0  0  0
  180.7900  179.7880  140.2220 C   0  0  1  0  0  3  0  0  0  0  0  0
  179.5040  180.3690  139.7970 C   0  0  0  0  0  2  0  0  0  0  0  0
  180.1380  180.8050  140.9670 O   0  0  0  0  0  0  0  0  0  0  0  0
  1  3  1  0  0  0  0
  2  6  1  0  0  0  0
  2  1  1  0  0  0  0
  3  7  1  1  0  0  0
  4 29  1  0  0  0  0
  4  3  1  0  0  0  0
  6  5  1  1  0  0  0
  6  4  1  0  0  0  0
  7 10  2  0  0  0  0
  7  8  1  0  0  0  0
  8 13  2  0  0  0  0
  9 15  1  0  0  0  0
 10 14  1  0  0  0  0
 11 15  2  0  0  0  0
 12 11  1  0  0  0  0
 13 12  1  0  0  0  0
 14 16  1  0  0  0  0
 14 12  2  0  0  0  0
 16  9  2  0  0  0  0
 17 18  1  6  0  0  0
 17  2  1  0  0  0  0
 19 17  1  0  0  0  0
 20 25  1  0  0  0  0
 20 19  1  1  0  0  0
 20 21  1  0  0  0  0
 21 22  1  0  0  0  0
 23 22  1  0  0  0  0
 24 23  1  0  0  0  0
 26 28  1  0  0  0  0
 27 28  2  0  0  0  0
 28 25  1  0  0  0  0
 30 32  1  0  0  0  0
 30 29  1  1  0  0  0
 31 30  1  0  0  0  0
 31 32  1  0  0  0  0
M  END
>  <MODEL>
4

>  <REMARK>
 VINA RESULT:      -7.2      3.978      7.067
  Name = 
  11 active torsions:
  status: ('A' for Active; 'I' for Inactive)
    1  A    between atoms: C_2  and  C_5
    2  A    between atoms: C_3  and  O_8
    3  A    between atoms: C_3  and  C_22
    4  A    between atoms: N_4  and  C_24
    5  A    between atoms: O_8  and  C_20
    6  A    between atoms: C_13  and  C_18
    7  A    between atoms: N_14  and  C_18
    8  A    between atoms: N_15  and  C_20
    9  A    between atoms: N_15  and  C_26
   10  A    between atoms: C_16  and  C_20
   11  A    between atoms: C_16  and  C_24
                            x       y       z     vdW  Elec       q    Type
                         _______ _______ _______ _____ _____    ______ ____

>  <TORSDO>
F 11

$$$$
=
 OpenBabel10262421193D

 32 35  0  0  1  0  0  0  0  0999 V2000
  189.0110  176.9910  141.6060 C   0  0  0  0  0  2  0  0  0  0  0  0
  190.1830  177.9080  141.4410 N   0  0  0  0  0  0  0  0  0  0  0  0
  189.0740  176.5910  143.0890 C   0  0  1  0  0  3  0  0  0  0  0  0
  190.2690  177.1110  143.6800 N   0  0  0  0  0  0  0  0  0  0  0  0
  191.7450  178.9100  142.9370 C   0  0  0  0  0  1  0  0  0  0  0  0
  191.0700  177.5870  142.5320 C   0  0  2  0  0  3  0  0  0  0  0  0
  187.9170  177.2070  143.8810 C   0  0  0  0  0  0  0  0  0  0  0  0
  187.9610  177.2430  145.2860 C   0  0  0  0  0  3  0  0  0  0  0  0
  183.3700  178.8510  144.0380 C   0  0  0  0  0  3  0  0  0  0  0  0
  186.7500  177.5900  143.2410 C   0  0  0  0  0  3  0  0  0  0  0  0
  184.6320  178.5840  146.0770 C   0  0  0  0  0  3  0  0  0  0  0  0
  185.7610  178.1390  145.3600 C   0  0  0  0  0  0  0  0  0  0  0  0
  186.8940  177.7440  146.0120 C   0  0  0  0  0  3  0  0  0  0  0  0
  185.6470  178.0650  143.9610 C   0  0  0  0  0  0  0  0  0  0  0  0
  183.4880  178.9430  145.4310 C   0  0  0  0  0  3  0  0  0  0  0  0
  184.4830  178.4310  143.3120 C   0  0  0  0  0  3  0  0  0  0  0  0
  190.7650  177.6800  140.0760 C   0  0  2  0  0  3  0  0  0  0  0  0
  189.7910  177.5100  139.1800 O   0  0  0  0  0  1  0  0  0  0  0  0
  191.8900  176.5800  139.9830 C   0  0  0  0  0  2  0  0  0  0  0  0
  192.3230  176.1670  138.5530 C   0  0  1  0  0  3  0  0  0  0  0  0
  193.7490  176.1630  138.5110 O   0  0  0  0  0  0  0  0  0  0  0  0
  194.2500  174.8990  138.0500 C   0  0  0  0  0  2  0  0  0  0  0  0
  195.4840  174.4550  138.8270 C   0  0  0  0  0  2  0  0  0  0  0  0
  195.7220  175.3170  139.9460 O   0  0  0  0  0  1  0  0  0  0  0  0
  191.7880  174.8450  138.1530 N   0  0  0  0  0  2  0  0  0  0  0  0
  189.9310  173.6170  136.8970 N   0  0  0  0  0  1  0  0  0  0  0  0
  190.8020  176.0310  136.0800 S   0  0  0  0  0  0  0  0  0  0  0  0
  190.8040  174.7600  137.0790 C   0  0  0  0  0  0  0  0  0  0  0  0
  191.0200  176.0510  144.3610 C   0  0  0  0  0  2  0  0  0  0  0  0
  191.7080  176.6810  145.5470 C   0  0  1  0  0  3  0  0  0  0  0  0
  191.2410  176.3630  146.9090 C   0  0  0  0  0  2  0  0  0  0  0  0
  192.2000  175.5640  146.2740 O   0  0  0  0  0  0  0  0  0  0  0  0
  1  3  1  0  0  0  0
  2  1  1  0  0  0  0
  2  6  1  0  0  0  0
  3  4  1  0  0  0  0
  3  7  1  1  0  0  0
  4 29  1  0  0  0  0
  6  5  1  1  0  0  0
  6  4  1  0  0  0  0
  7  8  1  0  0  0  0
  8 13  2  0  0  0  0
  9 15  1  0  0  0  0
 10  7  2  0  0  0  0
 10 14  1  0  0  0  0
 12 13  1  0  0  0  0
 12 11  1  0  0  0  0
 14 12  2  0  0  0  0
 15 11  2  0  0  0  0
 16 14  1  0  0  0  0
 16  9  2  0  0  0  0
 17 18  1  6  0  0  0
 17  2  1  0  0  0  0
 19 17  1  0  0  0  0
 20 19  1  1  0  0  0
 21 20  1  0  0  0  0
 22 21  1  0  0  0  0
 22 23  1  0  0  0  0
 23 24  1  0  0  0  0
 25 20  1  0  0  0  0
 26 28  1  0  0  0  0
 27 28  2  0  0  0  0
 28 25  1  0  0  0  0
 30 29  1  6  0  0  0
 30 32  1  0  0  0  0
 30 31  1  0  0  0  0
 32 31  1  0  0  0  0
M  END
>  <MODEL>
5

>  <REMARK>
 VINA RESULT:      -7.2      1.816      3.253
  Name = 
  11 active torsions:
  status: ('A' for Active; 'I' for Inactive)
    1  A    between atoms: C_2  and  C_5
    2  A    between atoms: C_3  and  O_8
    3  A    between atoms: C_3  and  C_22
    4  A    between atoms: N_4  and  C_24
    5  A    between atoms: O_8  and  C_20
    6  A    between atoms: C_13  and  C_18
    7  A    between atoms: N_14  and  C_18
    8  A    between atoms: N_15  and  C_20
    9  A    between atoms: N_15  and  C_26
   10  A    between atoms: C_16  and  C_20
   11  A    between atoms: C_16  and  C_24
                            x       y       z     vdW  Elec       q    Type
                         _______ _______ _______ _____ _____    ______ ____

>  <TORSDO>
F 11

$$$$
=
 OpenBabel10262421193D

 32 35  0  0  1  0  0  0  0  0999 V2000
  184.4210  178.9940  140.1950 C   0  0  0  0  0  2  0  0  0  0  0  0
  184.0800  177.7590  139.4210 N   0  0  0  0  0  0  0  0  0  0  0  0
  183.3200  179.0620  141.2660 C   0  0  1  0  0  3  0  0  0  0  0  0
  182.3460  178.0420  141.0240 N   0  0  0  0  0  0  0  0  0  0  0  0
  182.4970  175.9970  139.6950 C   0  0  0  0  0  1  0  0  0  0  0  0
  182.6800  177.5250  139.6790 C   0  0  2  0  0  3  0  0  0  0  0  0
  183.8820  178.7780  142.6610 C   0  0  0  0  0  0  0  0  0  0  0  0
  183.1570  179.1540  143.8060 C   0  0  0  0  0  3  0  0  0  0  0  0
  187.6010  177.5330  145.4950 C   0  0  0  0  0  3  0  0  0  0  0  0
  185.1710  178.2960  142.8180 C   0  0  0  0  0  3  0  0  0  0  0  0
  185.5380  178.3100  146.4750 C   0  0  0  0  0  3  0  0  0  0  0  0
  184.9480  178.4550  145.2050 C   0  0  0  0  0  0  0  0  0  0  0  0
  183.6840  178.9550  145.0710 C   0  0  0  0  0  3  0  0  0  0  0  0
  185.7340  178.1210  144.0870 C   0  0  0  0  0  0  0  0  0  0  0  0
  186.8120  177.8470  146.6090 C   0  0  0  0  0  3  0  0  0  0  0  0
  187.0260  177.6520  144.2300 C   0  0  0  0  0  3  0  0  0  0  0  0
  184.4150  178.0050  137.9780 C   0  0  2  0  0  3  0  0  0  0  0  0
  183.2970  178.1340  137.2600 O   0  0  0  0  0  1  0  0  0  0  0  0
  185.4520  177.0090  137.3330 C   0  0  0  0  0  2  0  0  0  0  0  0
  186.8860  177.5610  137.1240 C   0  0  1  0  0  3  0  0  0  0  0  0
  186.9230  178.2140  135.8560 O   0  0  0  0  0  0  0  0  0  0  0  0
  187.5020  177.3650  134.8530 C   0  0  0  0  0  2  0  0  0  0  0  0
  189.0260  177.4220  134.8640 C   0  0  0  0  0  2  0  0  0  0  0  0
  189.5850  176.1340  135.1450 O   0  0  0  0  0  1  0  0  0  0  0  0
  187.3040  178.4900  138.1990 N   0  0  0  0  0  2  0  0  0  0  0  0
  189.7620  177.8120  138.3780 N   0  0  0  0  0  1  0  0  0  0  0  0
  188.2860  178.2870  140.5810 S   0  0  0  0  0  0  0  0  0  0  0  0
  188.5000  178.1950  138.9810 C   0  0  0  0  0  0  0  0  0  0  0  0
  180.9940  178.6080  140.9800 C   0  0  0  0  0  2  0  0  0  0  0  0
  180.9910  179.6780  139.9150 C   0  0  1  0  0  3  0  0  0  0  0  0
  179.7230  180.0430  139.2580 C   0  0  0  0  0  2  0  0  0  0  0  0
  180.1240  180.6690  140.4450 O   0  0  0  0  0  0  0  0  0  0  0  0
  1  3  1  0  0  0  0
  2  6  1  0  0  0  0
  2  1  1  0  0  0  0
  3  7  1  1  0  0  0
  4  3  1  0  0  0  0
  6  5  1  1  0  0  0
  6  4  1  0  0  0  0
  7 10  2  0  0  0  0
  7  8  1  0  0  0  0
  8 13  2  0  0  0  0
  9 15  1  0  0  0  0
 10 14  1  0  0  0  0
 11 15  2  0  0  0  0
 12 11  1  0  0  0  0
 13 12  1  0  0  0  0
 14 16  1  0  0  0  0
 14 12  2  0  0  0  0
 16  9  2  0  0  0  0
 17 18  1  6  0  0  0
 17  2  1  0  0  0  0
 19 17  1  0  0  0  0
 20 19  1  1  0  0  0
 20 25  1  0  0  0  0
 21 20  1  0  0  0  0
 22 23  1  0  0  0  0
 22 21  1  0  0  0  0
 23 24  1  0  0  0  0
 25 28  1  0  0  0  0
 26 28  1  0  0  0  0
 28 27  2  0  0  0  0
 29  4  1  0  0  0  0
 30 32  1  0  0  0  0
 30 29  1  1  0  0  0
 31 30  1  0  0  0  0
 31 32  1  0  0  0  0
M  END
>  <MODEL>
6

>  <REMARK>
 VINA RESULT:      -7.1      4.136      7.217
  Name = 
  11 active torsions:
  status: ('A' for Active; 'I' for Inactive)
    1  A    between atoms: C_2  and  C_5
    2  A    between atoms: C_3  and  O_8
    3  A    between atoms: C_3  and  C_22
    4  A    between atoms: N_4  and  C_24
    5  A    between atoms: O_8  and  C_20
    6  A    between atoms: C_13  and  C_18
    7  A    between atoms: N_14  and  C_18
    8  A    between atoms: N_15  and  C_20
    9  A    between atoms: N_15  and  C_26
   10  A    between atoms: C_16  and  C_20
   11  A    between atoms: C_16  and  C_24
                            x       y       z     vdW  Elec       q    Type
                         _______ _______ _______ _____ _____    ______ ____

>  <TORSDO>
F 11

$$$$
=
 OpenBabel10262421193D

 32 35  0  0  1  0  0  0  0  0999 V2000
  184.5810  178.9630  140.0360 C   0  0  0  0  0  2  0  0  0  0  0  0
  184.1630  177.7490  139.2680 N   0  0  0  0  0  0  0  0  0  0  0  0
  183.5420  179.0490  141.1660 C   0  0  1  0  0  3  0  0  0  0  0  0
  182.5280  178.0600  140.9670 N   0  0  0  0  0  0  0  0  0  0  0  0
  182.5470  176.0280  139.6100 C   0  0  0  0  0  1  0  0  0  0  0  0
  182.7730  177.5510  139.6000 C   0  0  2  0  0  3  0  0  0  0  0  0
  184.1720  178.7320  142.5250 C   0  0  0  0  0  0  0  0  0  0  0  0
  183.5250  179.1210  143.7120 C   0  0  0  0  0  3  0  0  0  0  0  0
  187.9980  177.3320  145.1350 C   0  0  0  0  0  3  0  0  0  0  0  0
  185.4500  178.2040  142.6050 C   0  0  0  0  0  3  0  0  0  0  0  0
  186.0210  178.1700  146.2360 C   0  0  0  0  0  3  0  0  0  0  0  0
  185.3660  178.3470  145.0020 C   0  0  0  0  0  0  0  0  0  0  0  0
  184.1150  178.8920  144.9440 C   0  0  0  0  0  3  0  0  0  0  0  0
  186.0760  177.9980  143.8390 C   0  0  0  0  0  0  0  0  0  0  0  0
  187.2840  177.6620  146.2940 C   0  0  0  0  0  3  0  0  0  0  0  0
  187.3580  177.4840  143.9050 C   0  0  0  0  0  3  0  0  0  0  0  0
  184.4250  178.0030  137.8120 C   0  0  2  0  0  3  0  0  0  0  0  0
  183.6600  177.2090  137.0590 O   0  0  0  0  0  1  0  0  0  0  0  0
  185.9390  177.9980  137.3740 C   0  0  0  0  0  2  0  0  0  0  0  0
  186.7390  176.7110  137.7020 C   0  0  1  0  0  3  0  0  0  0  0  0
  186.6190  175.8260  136.5900 O   0  0  0  0  0  0  0  0  0  0  0  0
  186.5560  174.4580  137.0210 C   0  0  0  0  0  2  0  0  0  0  0  0
  185.1200  173.9840  137.2140 C   0  0  0  0  0  2  0  0  0  0  0  0
  185.0720  172.8270  138.0580 O   0  0  0  0  0  1  0  0  0  0  0  0
  188.1650  176.9840  137.9980 N   0  0  0  0  0  2  0  0  0  0  0  0
  189.0120  179.3930  137.8850 N   0  0  0  0  0  1  0  0  0  0  0  0
  188.4340  178.2310  140.2450 S   0  0  0  0  0  0  0  0  0  0  0  0
  188.5410  178.2430  138.6320 C   0  0  0  0  0  0  0  0  0  0  0  0
  181.1920  178.6650  141.0030 C   0  0  0  0  0  2  0  0  0  0  0  0
  181.0880  179.5910  139.8160 C   0  0  1  0  0  3  0  0  0  0  0  0
  179.7640  179.8710  139.2300 C   0  0  0  0  0  2  0  0  0  0  0  0
  180.2590  180.6420  140.2900 O   0  0  0  0  0  0  0  0  0  0  0  0
  1  3  1  0  0  0  0
  2  6  1  0  0  0  0
  2  1  1  0  0  0  0
  3  7  1  1  0  0  0
  4 29  1  0  0  0  0
  4  3  1  0  0  0  0
  6  5  1  1  0  0  0
  6  4  1  0  0  0  0
  7 10  2  0  0  0  0
  7  8  1  0  0  0  0
  8 13  2  0  0  0  0
  9 15  1  0  0  0  0
 10 14  1  0  0  0  0
 11 15  2  0  0  0  0
 12 11  1  0  0  0  0
 13 12  1  0  0  0  0
 14 16  1  0  0  0  0
 14 12  2  0  0  0  0
 16  9  2  0  0  0  0
 17 18  1  6  0  0  0
 17  2  1  0  0  0  0
 19 17  1  0  0  0  0
 20 19  1  6  0  0  0
 20 25  1  0  0  0  0
 21 22  1  0  0  0  0
 21 20  1  0  0  0  0
 22 23  1  0  0  0  0
 23 24  1  0  0  0  0
 25 28  1  0  0  0  0
 26 28  1  0  0  0  0
 28 27  2  0  0  0  0
 30 32  1  0  0  0  0
 30 29  1  1  0  0  0
 31 30  1  0  0  0  0
 31 32  1  0  0  0  0
M  END
>  <MODEL>
7

>  <REMARK>
 VINA RESULT:      -7.0      4.116      7.187
  Name = 
  11 active torsions:
  status: ('A' for Active; 'I' for Inactive)
    1  A    between atoms: C_2  and  C_5
    2  A    between atoms: C_3  and  O_8
    3  A    between atoms: C_3  and  C_22
    4  A    between atoms: N_4  and  C_24
    5  A    between atoms: O_8  and  C_20
    6  A    between atoms: C_13  and  C_18
    7  A    between atoms: N_14  and  C_18
    8  A    between atoms: N_15  and  C_20
    9  A    between atoms: N_15  and  C_26
   10  A    between atoms: C_16  and  C_20
   11  A    between atoms: C_16  and  C_24
                            x       y       z     vdW  Elec       q    Type
                         _______ _______ _______ _____ _____    ______ ____

>  <TORSDO>
F 11

$$$$
=
 OpenBabel10262421193D

 32 35  0  0  1  0  0  0  0  0999 V2000
  189.1040  178.9940  142.8190 C   0  0  0  0  0  2  0  0  0  0  0  0
  189.7540  177.7610  143.3640 N   0  0  0  0  0  0  0  0  0  0  0  0
  188.3630  178.4890  141.5710 C   0  0  1  0  0  3  0  0  0  0  0  0
  188.6920  177.1160  141.3360 N   0  0  0  0  0  0  0  0  0  0  0  0
  189.6340  175.4380  142.8410 C   0  0  0  0  0  1  0  0  0  0  0  0
  189.8230  176.8470  142.2500 C   0  0  2  0  0  3  0  0  0  0  0  0
  186.8460  178.5250  141.7710 C   0  0  0  0  0  0  0  0  0  0  0  0
  185.9900  178.6760  140.6650 C   0  0  0  0  0  3  0  0  0  0  0  0
  183.0280  178.9430  144.7130 C   0  0  0  0  0  3  0  0  0  0  0  0
  186.3040  178.5700  143.0450 C   0  0  0  0  0  3  0  0  0  0  0  0
  182.7200  178.9550  142.3200 C   0  0  0  0  0  3  0  0  0  0  0  0
  184.1020  178.7870  142.1070 C   0  0  0  0  0  0  0  0  0  0  0  0
  184.6190  178.7690  140.8430 C   0  0  0  0  0  3  0  0  0  0  0  0
  184.9240  178.7000  143.2440 C   0  0  0  0  0  0  0  0  0  0  0  0
  182.2070  179.0110  143.5810 C   0  0  0  0  0  3  0  0  0  0  0  0
  184.3970  178.7580  144.5210 C   0  0  0  0  0  3  0  0  0  0  0  0
  191.0870  178.1480  143.9350 C   0  0  2  0  0  3  0  0  0  0  0  0
  192.0520  177.9500  143.0330 O   0  0  0  0  0  1  0  0  0  0  0  0
  191.4310  177.5460  145.3500 C   0  0  0  0  0  2  0  0  0  0  0  0
  190.2250  177.0490  146.1900 C   0  0  1  0  0  3  0  0  0  0  0  0
  190.7380  176.3030  147.2920 O   0  0  0  0  0  0  0  0  0  0  0  0
  192.1080  175.9310  147.0720 C   0  0  0  0  0  2  0  0  0  0  0  0
  192.8350  175.6260  148.3770 C   0  0  0  0  0  2  0  0  0  0  0  0
  193.1570  176.8340  149.0770 O   0  0  0  0  0  1  0  0  0  0  0  0
  189.3660  178.1570  146.6670 N   0  0  0  0  0  2  0  0  0  0  0  0
  186.9140  177.4790  146.4180 N   0  0  0  0  0  1  0  0  0  0  0  0
  187.9650  178.0350  148.8350 S   0  0  0  0  0  0  0  0  0  0  0  0
  188.0530  177.8590  147.2300 C   0  0  0  0  0  0  0  0  0  0  0  0
  189.1530  176.9160  139.9580 C   0  0  0  0  0  2  0  0  0  0  0  0
  190.5410  177.5000  139.8610 C   0  0  1  0  0  3  0  0  0  0  0  0
  191.6000  176.7410  139.1710 C   0  0  0  0  0  2  0  0  0  0  0  0
  190.7570  177.6060  138.4620 O   0  0  0  0  0  0  0  0  0  0  0  0
  1  2  1  0  0  0  0
  2 17  1  0  0  0  0
  3  7  1  1  0  0  0
  3  1  1  0  0  0  0
  4  3  1  0  0  0  0
  4  6  1  0  0  0  0
  6  5  1  1  0  0  0
  6  2  1  0  0  0  0
  7 10  1  0  0  0  0
  8 13  1  0  0  0  0
  8  7  2  0  0  0  0
 10 14  2  0  0  0  0
 11 15  2  0  0  0  0
 12 11  1  0  0  0  0
 12 14  1  0  0  0  0
 13 12  2  0  0  0  0
 14 16  1  0  0  0  0
 15  9  1  0  0  0  0
 16  9  2  0  0  0  0
 17 18  1  6  0  0  0
 17 19  1  0  0  0  0
 20 19  1  1  0  0  0
 20 25  1  0  0  0  0
 20 21  1  0  0  0  0
 22 21  1  0  0  0  0
 22 23  1  0  0  0  0
 23 24  1  0  0  0  0
 25 28  1  0  0  0  0
 26 28  1  0  0  0  0
 28 27  2  0  0  0  0
 29  4  1  0  0  0  0
 30 29  1  6  0  0  0
 31 30  1  0  0  0  0
 32 31  1  0  0  0  0
 32 30  1  0  0  0  0
M  END
>  <MODEL>
8

>  <REMARK>
 VINA RESULT:      -7.0      2.957      6.366
  Name = 
  11 active torsions:
  status: ('A' for Active; 'I' for Inactive)
    1  A    between atoms: C_2  and  C_5
    2  A    between atoms: C_3  and  O_8
    3  A    between atoms: C_3  and  C_22
    4  A    between atoms: N_4  and  C_24
    5  A    between atoms: O_8  and  C_20
    6  A    between atoms: C_13  and  C_18
    7  A    between atoms: N_14  and  C_18
    8  A    between atoms: N_15  and  C_20
    9  A    between atoms: N_15  and  C_26
   10  A    between atoms: C_16  and  C_20
   11  A    between atoms: C_16  and  C_24
                            x       y       z     vdW  Elec       q    Type
                         _______ _______ _______ _____ _____    ______ ____

>  <TORSDO>
F 11

$$$$
=
 OpenBabel10262421193D

 32 35  0  0  1  0  0  0  0  0999 V2000
  189.3410  176.5180  141.9550 C   0  0  0  0  0  2  0  0  0  0  0  0
  190.5170  177.4170  141.7360 N   0  0  0  0  0  0  0  0  0  0  0  0
  189.3150  176.3240  143.4790 C   0  0  1  0  0  3  0  0  0  0  0  0
  190.4700  176.9330  144.0640 N   0  0  0  0  0  0  0  0  0  0  0  0
  191.9830  178.6320  143.1720 C   0  0  0  0  0  1  0  0  0  0  0  0
  191.3380  177.2590  142.9110 C   0  0  2  0  0  3  0  0  0  0  0  0
  188.1100  177.0280  144.1100 C   0  0  0  0  0  0  0  0  0  0  0  0
  188.0170  177.1570  145.5070 C   0  0  0  0  0  3  0  0  0  0  0  0
  183.6350  178.8220  143.7030 C   0  0  0  0  0  3  0  0  0  0  0  0
  187.0270  177.4030  143.3320 C   0  0  0  0  0  3  0  0  0  0  0  0
  184.6800  178.6520  145.8710 C   0  0  0  0  0  3  0  0  0  0  0  0
  185.8560  178.1250  145.3020 C   0  0  0  0  0  0  0  0  0  0  0  0
  186.9030  177.7390  146.0890 C   0  0  0  0  0  3  0  0  0  0  0  0
  185.8780  177.9610  143.9050 C   0  0  0  0  0  0  0  0  0  0  0  0
  183.6190  179.0030  145.0910 C   0  0  0  0  0  3  0  0  0  0  0  0
  184.7980  178.3190  143.1200 C   0  0  0  0  0  3  0  0  0  0  0  0
  191.1820  177.0130  140.4520 C   0  0  2  0  0  3  0  0  0  0  0  0
  192.2610  177.7690  140.2330 O   0  0  0  0  0  1  0  0  0  0  0  0
  190.2390  176.9010  139.1950 C   0  0  0  0  0  2  0  0  0  0  0  0
  190.7960  176.0900  137.9960 C   0  0  1  0  0  3  0  0  0  0  0  0
  189.7340  175.9050  137.0610 O   0  0  0  0  0  0  0  0  0  0  0  0
  189.8700  174.6560  136.3650 C   0  0  0  0  0  2  0  0  0  0  0  0
  188.8610  173.6200  136.8470 C   0  0  0  0  0  2  0  0  0  0  0  0
  187.5430  173.9330  136.3810 O   0  0  0  0  0  1  0  0  0  0  0  0
  191.9510  176.7530  137.3450 N   0  0  0  0  0  2  0  0  0  0  0  0
  193.2840  175.7580  135.4050 N   0  0  0  0  0  1  0  0  0  0  0  0
  193.9430  175.2270  137.9620 S   0  0  0  0  0  0  0  0  0  0  0  0
  193.0460  175.9420  136.8230 C   0  0  0  0  0  0  0  0  0  0  0  0
  191.1830  175.9840  144.9260 C   0  0  0  0  0  2  0  0  0  0  0  0
  191.6820  176.7540  146.1240 C   0  0  1  0  0  3  0  0  0  0  0  0
  191.2350  176.3650  147.4740 C   0  0  0  0  0  2  0  0  0  0  0  0
  192.3600  175.7700  146.8900 O   0  0  0  0  0  0  0  0  0  0  0  0
  1  3  1  0  0  0  0
  2  1  1  0  0  0  0
  2  6  1  0  0  0  0
  3  4  1  0  0  0  0
  3  7  1  1  0  0  0
  4 29  1  0  0  0  0
  6  5  1  1  0  0  0
  6  4  1  0  0  0  0
  7  8  1  0  0  0  0
  8 13  2  0  0  0  0
  9 15  1  0  0  0  0
 10 14  1  0  0  0  0
 10  7  2  0  0  0  0
 12 11  1  0  0  0  0
 12 13  1  0  0  0  0
 14 12  2  0  0  0  0
 15 11  2  0  0  0  0
 16  9  2  0  0  0  0
 16 14  1  0  0  0  0
 17 18  1  6  0  0  0
 17  2  1  0  0  0  0
 19 17  1  0  0  0  0
 20 19  1  1  0  0  0
 21 20  1  0  0  0  0
 22 23  1  0  0  0  0
 22 21  1  0  0  0  0
 24 23  1  0  0  0  0
 25 20  1  0  0  0  0
 26 28  1  0  0  0  0
 28 25  1  0  0  0  0
 28 27  2  0  0  0  0
 30 29  1  6  0  0  0
 30 32  1  0  0  0  0
 30 31  1  0  0  0  0
 32 31  1  0  0  0  0
M  END
>  <MODEL>
9

>  <REMARK>
 VINA RESULT:      -6.9      1.885      2.450
  Name = 
  11 active torsions:
  status: ('A' for Active; 'I' for Inactive)
    1  A    between atoms: C_2  and  C_5
    2  A    between atoms: C_3  and  O_8
    3  A    between atoms: C_3  and  C_22
    4  A    between atoms: N_4  and  C_24
    5  A    between atoms: O_8  and  C_20
    6  A    between atoms: C_13  and  C_18
    7  A    between atoms: N_14  and  C_18
    8  A    between atoms: N_15  and  C_20
    9  A    between atoms: N_15  and  C_26
   10  A    between atoms: C_16  and  C_20
   11  A    between atoms: C_16  and  C_24
                            x       y       z     vdW  Elec       q    Type
                         _______ _______ _______ _____ _____    ______ ____

>  <TORSDO>
F 11

$$$$
