=
 OpenBabel10262421583D

 30 34  0  0  1  0  0  0  0  0999 V2000
  185.7210  178.3340  142.1690 C   0  0  0  0  0  3  0  0  0  0  0  0
  183.4310  178.6550  141.4110 C   0  0  0  0  0  0  0  0  0  0  0  0
  184.4820  178.5200  146.1880 C   0  0  0  0  0  3  0  0  0  0  0  0
  186.6730  178.1980  143.1830 C   0  0  0  0  0  0  0  0  0  0  0  0
  185.4200  178.4220  147.2160 C   0  0  0  0  0  3  0  0  0  0  0  0
  182.0780  178.8400  141.7070 C   0  0  0  0  0  3  0  0  0  0  0  0
  183.8400  178.5950  140.0460 N   0  0  0  0  0  1  0  0  0  0  0  0
  184.8800  178.4540  144.8420 C   0  0  0  0  0  0  0  0  0  0  0  0
  181.6480  178.8960  143.0330 C   0  0  0  0  0  3  0  0  0  0  0  0
  184.3670  178.5240  142.4540 C   0  0  0  0  0  0  0  0  0  0  0  0
  186.2550  178.2710  144.5320 C   0  0  0  0  0  0  0  0  0  0  0  0
  186.7720  178.2610  146.9130 C   0  0  0  0  0  3  0  0  0  0  0  0
  187.1850  178.1910  145.5820 C   0  0  0  0  0  3  0  0  0  0  0  0
  182.5700  178.7670  144.0730 C   0  0  0  0  0  3  0  0  0  0  0  0
  183.9360  178.5800  143.8000 C   0  0  0  0  0  0  0  0  0  0  0  0
  188.0580  177.9790  142.8220 N   0  0  0  0  0  0  0  0  0  0  0  0
  191.5680  177.4200  143.5510 C   0  0  0  0  0  3  0  0  0  0  0  0
  190.2680  179.2550  144.2630 O   0  0  0  0  0  0  0  0  0  0  0  0
  188.9960  177.2940  143.7130 C   0  0  1  0  0  3  0  0  0  0  0  0
  189.1970  175.9050  143.2770 N   0  0  0  0  0  0  0  0  0  0  0  0
  190.2870  178.0630  143.8590 C   0  0  0  0  0  0  0  0  0  0  0  0
  191.6010  176.1500  143.1580 C   0  0  0  0  0  3  0  0  0  0  0  0
  190.3580  175.3740  143.0260 C   0  0  0  0  0  3  0  0  0  0  0  0
  188.6050  178.5290  141.5880 C   0  0  0  0  0  2  0  0  0  0  0  0
  188.7740  177.4320  140.5490 C   0  0  0  0  0  2  0  0  0  0  0  0
  189.4900  177.9830  139.3320 C   0  0  0  0  0  2  0  0  0  0  0  0
  188.5600  178.7580  138.5280 N   0  0  0  0  0  2  0  0  0  0  0  0
  186.4280  178.2380  137.5200 C   0  0  0  0  0  2  0  0  0  0  0  0
  187.8800  177.8270  137.6500 C   0  0  0  0  0  3  0  0  0  0  0  0
  187.4050  178.5640  136.4150 C   0  0  0  0  0  2  0  0  0  0  0  0
  1 10  2  0  0  0  0
  1  4  1  0  0  0  0
  2  6  2  0  0  0  0
  2 10  1  0  0  0  0
  3  5  2  0  0  0  0
  4 11  2  0  0  0  0
  6  9  1  0  0  0  0
  7  2  1  0  0  0  0
  8  3  1  0  0  0  0
  9 14  2  0  0  0  0
 10 15  1  0  0  0  0
 11  8  1  0  0  0  0
 11 13  1  0  0  0  0
 12  5  1  0  0  0  0
 13 12  2  0  0  0  0
 15 14  1  0  0  0  0
 15  8  2  0  0  0  0
 16  4  1  0  0  0  0
 17 21  1  0  0  0  0
 19 16  1  6  0  0  0
 19 21  1  0  0  0  0
 20 19  1  0  0  0  0
 21 18  2  0  0  0  0
 22 17  2  0  0  0  0
 23 22  1  0  0  0  0
 23 20  2  0  0  0  0
 24 16  1  0  0  0  0
 25 24  1  0  0  0  0
 26 25  1  0  0  0  0
 27 26  1  0  0  0  0
 28 29  1  0  0  0  0
 29 27  1  0  0  0  0
 30 28  1  0  0  0  0
 30 29  1  0  0  0  0
M  END
>  <MODEL>
1

>  <REMARK>
 VINA RESULT:      -9.0      0.000      0.000
  Name = 
  7 active torsions:
  status: ('A' for Active; 'I' for Inactive)
    1  A    between atoms: C_4  and  N_13
    2  A    between atoms: N_7  and  C_15
    3  A    between atoms: N_7  and  C_16
    4  A    between atoms: C_8  and  N_13
    5  A    between atoms: N_13  and  C_27
    6  A    between atoms: C_16  and  C_30
    7  A    between atoms: C_27  and  C_30
                            x       y       z     vdW  Elec       q    Type
                         _______ _______ _______ _____ _____    ______ ____

>  <TORSDO>
F 7

$$$$
=
 OpenBabel10262421583D

 30 34  0  0  1  0  0  0  0  0999 V2000
  188.2400  177.5140  144.1040 C   0  0  0  0  0  3  0  0  0  0  0  0
  187.3350  177.6340  146.3600 C   0  0  0  0  0  0  0  0  0  0  0  0
  184.6290  178.9810  142.5120 C   0  0  0  0  0  3  0  0  0  0  0  0
  188.1260  177.6900  142.7220 C   0  0  0  0  0  0  0  0  0  0  0  0
  184.4810  179.1310  141.1330 C   0  0  0  0  0  3  0  0  0  0  0  0
  186.2800  177.9460  147.2200 C   0  0  0  0  0  3  0  0  0  0  0  0
  188.5530  177.1360  146.9090 N   0  0  0  0  0  1  0  0  0  0  0  0
  185.8300  178.4980  143.0580 C   0  0  0  0  0  0  0  0  0  0  0  0
  185.0790  178.4410  146.7110 C   0  0  0  0  0  3  0  0  0  0  0  0
  187.1890  177.8190  144.9720 C   0  0  0  0  0  0  0  0  0  0  0  0
  186.9080  178.1740  142.1900 C   0  0  0  0  0  0  0  0  0  0  0  0
  185.5300  178.7950  140.2780 C   0  0  0  0  0  3  0  0  0  0  0  0
  186.7310  178.3170  140.8030 C   0  0  0  0  0  3  0  0  0  0  0  0
  184.9260  178.6270  145.3360 C   0  0  0  0  0  3  0  0  0  0  0  0
  185.9730  178.3200  144.4510 C   0  0  0  0  0  0  0  0  0  0  0  0
  189.2600  177.3790  141.8780 N   0  0  0  0  0  0  0  0  0  0  0  0
  191.3170  176.4320  144.7130 C   0  0  0  0  0  3  0  0  0  0  0  0
  190.5830  175.0070  142.9820 O   0  0  0  0  0  0  0  0  0  0  0  0
  190.6280  177.3360  142.3970 C   0  0  1  0  0  3  0  0  0  0  0  0
  190.9990  178.6360  142.9730 N   0  0  0  0  0  0  0  0  0  0  0  0
  190.8250  176.1850  143.3540 C   0  0  0  0  0  0  0  0  0  0  0  0
  191.6090  177.6680  145.1050 C   0  0  0  0  0  3  0  0  0  0  0  0
  191.4430  178.8040  144.1840 C   0  0  0  0  0  3  0  0  0  0  0  0
  189.0960  177.1970  140.4410 C   0  0  0  0  0  2  0  0  0  0  0  0
  190.3850  176.6830  139.8230 C   0  0  0  0  0  2  0  0  0  0  0  0
  190.1300  176.2350  138.3980 C   0  0  0  0  0  2  0  0  0  0  0  0
  188.8720  176.7920  137.9290 N   0  0  0  0  0  2  0  0  0  0  0  0
  187.9290  178.4040  136.3970 C   0  0  0  0  0  2  0  0  0  0  0  0
  189.1870  177.6730  136.8210 C   0  0  0  0  0  3  0  0  0  0  0  0
  188.9590  179.1090  137.2490 C   0  0  0  0  0  2  0  0  0  0  0  0
  1 10  1  0  0  0  0
  2  7  1  0  0  0  0
  2  6  1  0  0  0  0
  3  8  1  0  0  0  0
  4  1  2  0  0  0  0
  5  3  2  0  0  0  0
  8 15  1  0  0  0  0
  9  6  2  0  0  0  0
 10  2  2  0  0  0  0
 11  4  1  0  0  0  0
 11  8  2  0  0  0  0
 12 13  2  0  0  0  0
 12  5  1  0  0  0  0
 13 11  1  0  0  0  0
 14  9  1  0  0  0  0
 15 10  1  0  0  0  0
 15 14  2  0  0  0  0
 16  4  1  0  0  0  0
 17 22  2  0  0  0  0
 18 21  2  0  0  0  0
 19 16  1  1  0  0  0
 19 20  1  0  0  0  0
 19 21  1  0  0  0  0
 20 23  2  0  0  0  0
 21 17  1  0  0  0  0
 23 22  1  0  0  0  0
 24 16  1  0  0  0  0
 25 24  1  0  0  0  0
 26 25  1  0  0  0  0
 27 26  1  0  0  0  0
 28 29  1  0  0  0  0
 28 30  1  0  0  0  0
 29 30  1  0  0  0  0
 29 27  1  0  0  0  0
M  END
>  <MODEL>
2

>  <REMARK>
 VINA RESULT:      -8.6      1.921      3.861
  Name = 
  7 active torsions:
  status: ('A' for Active; 'I' for Inactive)
    1  A    between atoms: C_4  and  N_13
    2  A    between atoms: N_7  and  C_15
    3  A    between atoms: N_7  and  C_16
    4  A    between atoms: C_8  and  N_13
    5  A    between atoms: N_13  and  C_27
    6  A    between atoms: C_16  and  C_30
    7  A    between atoms: C_27  and  C_30
                            x       y       z     vdW  Elec       q    Type
                         _______ _______ _______ _____ _____    ______ ____

>  <TORSDO>
F 7

$$$$
=
 OpenBabel10262421583D

 30 34  0  0  1  0  0  0  0  0999 V2000
  187.4870  178.1100  142.2300 C   0  0  0  0  0  3  0  0  0  0  0  0
  186.9510  178.3170  139.8650 C   0  0  0  0  0  0  0  0  0  0  0  0
  183.4750  178.8580  143.2670 C   0  0  0  0  0  3  0  0  0  0  0  0
  187.1220  178.1190  143.5790 C   0  0  0  0  0  0  0  0  0  0  0  0
  183.0960  178.9060  144.6090 C   0  0  0  0  0  3  0  0  0  0  0  0
  186.0090  178.5400  138.8580 C   0  0  0  0  0  3  0  0  0  0  0  0
  188.3070  178.0670  139.5030 N   0  0  0  0  0  1  0  0  0  0  0  0
  184.8090  178.6040  142.9060 C   0  0  0  0  0  0  0  0  0  0  0  0
  184.6730  178.7810  139.1830 C   0  0  0  0  0  3  0  0  0  0  0  0
  186.5540  178.3360  141.2150 C   0  0  0  0  0  0  0  0  0  0  0  0
  185.7750  178.3810  143.9250 C   0  0  0  0  0  0  0  0  0  0  0  0
  184.0470  178.7070  145.6100 C   0  0  0  0  0  3  0  0  0  0  0  0
  185.3750  178.4510  145.2700 C   0  0  0  0  0  3  0  0  0  0  0  0
  184.2710  178.8010  140.5190 C   0  0  0  0  0  3  0  0  0  0  0  0
  185.2010  178.5800  141.5500 C   0  0  0  0  0  0  0  0  0  0  0  0
  188.1310  177.8540  144.5820 N   0  0  0  0  0  0  0  0  0  0  0  0
  191.1060  177.9580  142.5050 C   0  0  0  0  0  3  0  0  0  0  0  0
  190.7820  179.1060  144.5410 O   0  0  0  0  0  0  0  0  0  0  0  0
  189.3860  177.1710  144.2610 C   0  0  1  0  0  3  0  0  0  0  0  0
  189.1480  176.0810  143.3040 N   0  0  0  0  0  0  0  0  0  0  0  0
  190.4480  178.1430  143.8030 C   0  0  0  0  0  0  0  0  0  0  0  0
  190.7850  176.9230  141.7340 C   0  0  0  0  0  3  0  0  0  0  0  0
  189.7680  175.9530  142.1670 C   0  0  0  0  0  3  0  0  0  0  0  0
  187.8920  178.1650  145.9860 C   0  0  0  0  0  2  0  0  0  0  0  0
  188.4100  177.0430  146.8710 C   0  0  0  0  0  2  0  0  0  0  0  0
  189.2450  177.6200  147.9960 C   0  0  0  0  0  2  0  0  0  0  0  0
  190.6550  177.5300  147.6540 N   0  0  0  0  0  2  0  0  0  0  0  0
  192.0500  176.0100  146.3980 C   0  0  0  0  0  2  0  0  0  0  0  0
  190.9470  176.1270  147.4290 C   0  0  0  0  0  3  0  0  0  0  0  0
  192.3680  175.8400  147.8660 C   0  0  0  0  0  2  0  0  0  0  0  0
  1  4  1  0  0  0  0
  2 10  1  0  0  0  0
  3  5  2  0  0  0  0
  4 11  2  0  0  0  0
  4 16  1  0  0  0  0
  5 12  1  0  0  0  0
  6  9  1  0  0  0  0
  6  2  2  0  0  0  0
  7  2  1  0  0  0  0
  8  3  1  0  0  0  0
  8 11  1  0  0  0  0
  9 14  2  0  0  0  0
 10 15  1  0  0  0  0
 10  1  2  0  0  0  0
 11 13  1  0  0  0  0
 13 12  2  0  0  0  0
 14 15  1  0  0  0  0
 15  8  2  0  0  0  0
 16 24  1  0  0  0  0
 17 21  1  0  0  0  0
 19 16  1  6  0  0  0
 20 19  1  0  0  0  0
 21 19  1  0  0  0  0
 21 18  2  0  0  0  0
 22 23  1  0  0  0  0
 22 17  2  0  0  0  0
 23 20  2  0  0  0  0
 24 25  1  0  0  0  0
 25 26  1  0  0  0  0
 27 26  1  0  0  0  0
 28 29  1  0  0  0  0
 28 30  1  0  0  0  0
 29 27  1  0  0  0  0
 29 30  1  0  0  0  0
M  END
>  <MODEL>
3

>  <REMARK>
 VINA RESULT:      -8.1      1.992      5.086
  Name = 
  7 active torsions:
  status: ('A' for Active; 'I' for Inactive)
    1  A    between atoms: C_4  and  N_13
    2  A    between atoms: N_7  and  C_15
    3  A    between atoms: N_7  and  C_16
    4  A    between atoms: C_8  and  N_13
    5  A    between atoms: N_13  and  C_27
    6  A    between atoms: C_16  and  C_30
    7  A    between atoms: C_27  and  C_30
                            x       y       z     vdW  Elec       q    Type
                         _______ _______ _______ _____ _____    ______ ____

>  <TORSDO>
F 7

$$$$
=
 OpenBabel10262421583D

 30 34  0  0  1  0  0  0  0  0999 V2000
  187.5270  178.0530  141.6310 C   0  0  0  0  0  3  0  0  0  0  0  0
  185.4900  178.4880  142.8900 C   0  0  0  0  0  0  0  0  0  0  0  0
  189.5780  177.0640  145.1730 C   0  0  0  0  0  3  0  0  0  0  0  0
  188.8700  177.6740  141.5580 C   0  0  0  0  0  0  0  0  0  0  0  0
  190.9280  176.7170  145.1260 C   0  0  0  0  0  3  0  0  0  0  0  0
  184.8150  178.5330  144.1120 C   0  0  0  0  0  3  0  0  0  0  0  0
  184.7860  178.8260  141.6970 N   0  0  0  0  0  1  0  0  0  0  0  0
  188.8780  177.3910  143.9980 C   0  0  0  0  0  0  0  0  0  0  0  0
  185.4760  178.2000  145.2950 C   0  0  0  0  0  3  0  0  0  0  0  0
  186.8440  178.1050  142.8480 C   0  0  0  0  0  0  0  0  0  0  0  0
  189.5590  177.3520  142.7510 C   0  0  0  0  0  0  0  0  0  0  0  0
  191.6020  176.6980  143.9060 C   0  0  0  0  0  3  0  0  0  0  0  0
  190.9230  177.0170  142.7300 C   0  0  0  0  0  3  0  0  0  0  0  0
  186.8190  177.8200  145.2620 C   0  0  0  0  0  3  0  0  0  0  0  0
  187.5190  177.7680  144.0450 C   0  0  0  0  0  0  0  0  0  0  0  0
  189.5140  177.6160  140.2630 N   0  0  0  0  0  0  0  0  0  0  0  0
  192.3160  176.6860  138.1530 C   0  0  0  0  0  3  0  0  0  0  0  0
  192.4420  177.7610  140.2490 O   0  0  0  0  0  0  0  0  0  0  0  0
  190.4150  176.5240  139.8900 C   0  0  1  0  0  3  0  0  0  0  0  0
  189.7850  175.6600  138.8820 N   0  0  0  0  0  0  0  0  0  0  0  0
  191.7700  177.0390  139.4670 C   0  0  0  0  0  0  0  0  0  0  0  0
  191.6290  175.8950  137.3330 C   0  0  0  0  0  3  0  0  0  0  0  0
  190.3160  175.3660  137.7310 C   0  0  0  0  0  3  0  0  0  0  0  0
  189.3720  178.7070  139.3070 C   0  0  0  0  0  2  0  0  0  0  0  0
  188.3290  178.3580  138.2580 C   0  0  0  0  0  2  0  0  0  0  0  0
  188.8660  178.6710  136.8750 C   0  0  0  0  0  2  0  0  0  0  0  0
  188.0290  178.0360  135.8710 N   0  0  0  0  0  2  0  0  0  0  0  0
  185.9590  176.8120  135.6530 C   0  0  0  0  0  2  0  0  0  0  0  0
  187.1050  177.1690  136.5760 C   0  0  0  0  0  3  0  0  0  0  0  0
  187.0720  175.8180  135.8930 C   0  0  0  0  0  2  0  0  0  0  0  0
  1 10  1  0  0  0  0
  2  6  1  0  0  0  0
  4  1  2  0  0  0  0
  4 11  1  0  0  0  0
  5  3  1  0  0  0  0
  6  9  2  0  0  0  0
  7  2  1  0  0  0  0
  8 15  1  0  0  0  0
  8  3  2  0  0  0  0
 10  2  2  0  0  0  0
 10 15  1  0  0  0  0
 11  8  1  0  0  0  0
 12  5  2  0  0  0  0
 13 11  2  0  0  0  0
 13 12  1  0  0  0  0
 14  9  1  0  0  0  0
 15 14  2  0  0  0  0
 16  4  1  0  0  0  0
 17 21  1  0  0  0  0
 19 16  1  6  0  0  0
 20 19  1  0  0  0  0
 21 19  1  0  0  0  0
 21 18  2  0  0  0  0
 22 23  1  0  0  0  0
 22 17  2  0  0  0  0
 23 20  2  0  0  0  0
 24 16  1  0  0  0  0
 25 24  1  0  0  0  0
 26 25  1  0  0  0  0
 27 29  1  0  0  0  0
 27 26  1  0  0  0  0
 28 30  1  0  0  0  0
 28 29  1  0  0  0  0
 30 29  1  0  0  0  0
M  END
>  <MODEL>
4

>  <REMARK>
 VINA RESULT:      -7.8      2.074      3.999
  Name = 
  7 active torsions:
  status: ('A' for Active; 'I' for Inactive)
    1  A    between atoms: C_4  and  N_13
    2  A    between atoms: N_7  and  C_15
    3  A    between atoms: N_7  and  C_16
    4  A    between atoms: C_8  and  N_13
    5  A    between atoms: N_13  and  C_27
    6  A    between atoms: C_16  and  C_30
    7  A    between atoms: C_27  and  C_30
                            x       y       z     vdW  Elec       q    Type
                         _______ _______ _______ _____ _____    ______ ____

>  <TORSDO>
F 7

$$$$
=
 OpenBabel10262421583D

 30 34  0  0  1  0  0  0  0  0999 V2000
  189.3750  177.3570  144.0660 C   0  0  0  0  0  3  0  0  0  0  0  0
  189.7900  177.1340  146.4540 C   0  0  0  0  0  0  0  0  0  0  0  0
  185.3430  178.3260  144.7960 C   0  0  0  0  0  3  0  0  0  0  0  0
  188.5320  177.6270  142.9840 C   0  0  0  0  0  0  0  0  0  0  0  0
  184.4760  178.5640  143.7290 C   0  0  0  0  0  3  0  0  0  0  0  0
  189.3230  177.1910  147.7690 C   0  0  0  0  0  3  0  0  0  0  0  0
  191.1570  176.8030  146.2180 N   0  0  0  0  0  1  0  0  0  0  0  0
  186.6930  178.0070  144.5680 C   0  0  0  0  0  0  0  0  0  0  0  0
  187.9920  177.5190  148.0300 C   0  0  0  0  0  3  0  0  0  0  0  0
  188.9170  177.4070  145.3850 C   0  0  0  0  0  0  0  0  0  0  0  0
  187.1760  177.9420  143.2320 C   0  0  0  0  0  0  0  0  0  0  0  0
  184.9440  178.4820  142.4180 C   0  0  0  0  0  3  0  0  0  0  0  0
  186.2810  178.1690  142.1730 C   0  0  0  0  0  3  0  0  0  0  0  0
  187.1190  177.7920  146.9750 C   0  0  0  0  0  3  0  0  0  0  0  0
  187.5660  177.7400  145.6440 C   0  0  0  0  0  0  0  0  0  0  0  0
  189.0740  177.5820  141.6430 N   0  0  0  0  0  0  0  0  0  0  0  0
  192.4130  177.5030  140.2220 C   0  0  0  0  0  3  0  0  0  0  0  0
  191.8590  177.9870  142.4640 O   0  0  0  0  0  0  0  0  0  0  0  0
  190.1980  176.7140  141.2860 C   0  0  1  0  0  3  0  0  0  0  0  0
  189.9730  176.0980  139.9710 N   0  0  0  0  0  0  0  0  0  0  0  0
  191.5170  177.4430  141.3820 C   0  0  0  0  0  0  0  0  0  0  0  0
  192.0760  176.9010  139.0850 C   0  0  0  0  0  3  0  0  0  0  0  0
  190.8050  176.1690  138.9730 C   0  0  0  0  0  3  0  0  0  0  0  0
  188.5870  178.4860  140.6080 C   0  0  0  0  0  2  0  0  0  0  0  0
  187.9210  177.7000  139.4910 C   0  0  0  0  0  2  0  0  0  0  0  0
  187.0710  178.6280  138.6460 C   0  0  0  0  0  2  0  0  0  0  0  0
  187.7180  178.8510  137.3640 N   0  0  0  0  0  2  0  0  0  0  0  0
  187.7460  177.5740  135.3140 C   0  0  0  0  0  2  0  0  0  0  0  0
  188.0120  177.5460  136.8050 C   0  0  0  0  0  3  0  0  0  0  0  0
  189.1630  177.6710  135.8290 C   0  0  0  0  0  2  0  0  0  0  0  0
  1 10  1  0  0  0  0
  2  6  1  0  0  0  0
  4 11  1  0  0  0  0
  4  1  2  0  0  0  0
  5  3  2  0  0  0  0
  6  9  2  0  0  0  0
  7  2  1  0  0  0  0
  8  3  1  0  0  0  0
  8 15  1  0  0  0  0
 10 15  1  0  0  0  0
 10  2  2  0  0  0  0
 11  8  2  0  0  0  0
 12  5  1  0  0  0  0
 13 12  2  0  0  0  0
 13 11  1  0  0  0  0
 14  9  1  0  0  0  0
 15 14  2  0  0  0  0
 16  4  1  0  0  0  0
 17 21  1  0  0  0  0
 19 21  1  0  0  0  0
 19 16  1  6  0  0  0
 20 19  1  0  0  0  0
 21 18  2  0  0  0  0
 22 17  2  0  0  0  0
 23 22  1  0  0  0  0
 23 20  2  0  0  0  0
 24 16  1  0  0  0  0
 25 24  1  0  0  0  0
 26 25  1  0  0  0  0
 27 26  1  0  0  0  0
 28 30  1  0  0  0  0
 28 29  1  0  0  0  0
 29 27  1  0  0  0  0
 30 29  1  0  0  0  0
M  END
>  <MODEL>
5

>  <REMARK>
 VINA RESULT:      -7.8      1.870      4.424
  Name = 
  7 active torsions:
  status: ('A' for Active; 'I' for Inactive)
    1  A    between atoms: C_4  and  N_13
    2  A    between atoms: N_7  and  C_15
    3  A    between atoms: N_7  and  C_16
    4  A    between atoms: C_8  and  N_13
    5  A    between atoms: N_13  and  C_27
    6  A    between atoms: C_16  and  C_30
    7  A    between atoms: C_27  and  C_30
                            x       y       z     vdW  Elec       q    Type
                         _______ _______ _______ _____ _____    ______ ____

>  <TORSDO>
F 7

$$$$
=
 OpenBabel10262421583D

 30 34  0  0  1  0  0  0  0  0999 V2000
  186.5270  178.4410  141.6100 C   0  0  0  0  0  3  0  0  0  0  0  0
  185.0180  178.7090  139.7200 C   0  0  0  0  0  0  0  0  0  0  0  0
  183.2990  178.6910  144.3020 C   0  0  0  0  0  3  0  0  0  0  0  0
  186.7740  178.3410  142.9830 C   0  0  0  0  0  0  0  0  0  0  0  0
  183.5270  178.6280  145.6770 C   0  0  0  0  0  3  0  0  0  0  0  0
  183.7210  178.8790  139.2280 C   0  0  0  0  0  3  0  0  0  0  0  0
  186.1040  178.6280  138.8000 N   0  0  0  0  0  1  0  0  0  0  0  0
  184.3660  178.6030  143.3910 C   0  0  0  0  0  0  0  0  0  0  0  0
  182.6390  178.9550  140.1040 C   0  0  0  0  0  3  0  0  0  0  0  0
  185.2350  178.6150  141.1080 C   0  0  0  0  0  0  0  0  0  0  0  0
  185.6880  178.4350  143.8850 C   0  0  0  0  0  0  0  0  0  0  0  0
  184.8260  178.4830  146.1630 C   0  0  0  0  0  3  0  0  0  0  0  0
  185.8970  178.3920  145.2730 C   0  0  0  0  0  3  0  0  0  0  0  0
  182.8460  178.8620  141.4820 C   0  0  0  0  0  3  0  0  0  0  0  0
  184.1410  178.6920  142.0010 C   0  0  0  0  0  0  0  0  0  0  0  0
  188.1320  178.1360  143.4390 N   0  0  0  0  0  0  0  0  0  0  0  0
  190.6250  175.5040  143.2740 C   0  0  0  0  0  3  0  0  0  0  0  0
  188.3170  175.2720  142.8440 O   0  0  0  0  0  0  0  0  0  0  0  0
  189.1510  177.5100  142.5940 C   0  0  1  0  0  3  0  0  0  0  0  0
  190.4140  178.2580  142.6730 N   0  0  0  0  0  0  0  0  0  0  0  0
  189.3110  176.0420  142.9090 C   0  0  0  0  0  0  0  0  0  0  0  0
  191.6880  176.3030  143.3120 C   0  0  0  0  0  3  0  0  0  0  0  0
  191.5610  177.7330  142.9900 C   0  0  0  0  0  3  0  0  0  0  0  0
  188.5180  178.4530  144.8080 C   0  0  0  0  0  2  0  0  0  0  0  0
  188.6720  177.1790  145.6220 C   0  0  0  0  0  2  0  0  0  0  0  0
  189.3580  177.4890  146.9380 C   0  0  0  0  0  2  0  0  0  0  0  0
  190.1580  176.3490  147.3510 N   0  0  0  0  0  2  0  0  0  0  0  0
  192.4310  176.0020  148.0930 C   0  0  0  0  0  2  0  0  0  0  0  0
  191.5420  176.6780  147.0690 C   0  0  0  0  0  3  0  0  0  0  0  0
  192.2900  175.4110  146.7090 C   0  0  0  0  0  2  0  0  0  0  0  0
  1  4  1  0  0  0  0
  2 10  1  0  0  0  0
  3  5  2  0  0  0  0
  4 16  1  0  0  0  0
  4 11  2  0  0  0  0
  5 12  1  0  0  0  0
  6  2  2  0  0  0  0
  6  9  1  0  0  0  0
  7  2  1  0  0  0  0
  8 11  1  0  0  0  0
  8  3  1  0  0  0  0
  9 14  2  0  0  0  0
 10  1  2  0  0  0  0
 10 15  1  0  0  0  0
 11 13  1  0  0  0  0
 13 12  2  0  0  0  0
 14 15  1  0  0  0  0
 15  8  2  0  0  0  0
 16 24  1  0  0  0  0
 17 22  2  0  0  0  0
 18 21  2  0  0  0  0
 19 20  1  0  0  0  0
 19 21  1  0  0  0  0
 19 16  1  1  0  0  0
 20 23  2  0  0  0  0
 21 17  1  0  0  0  0
 23 22  1  0  0  0  0
 24 25  1  0  0  0  0
 25 26  1  0  0  0  0
 26 27  1  0  0  0  0
 29 27  1  0  0  0  0
 29 28  1  0  0  0  0
 30 29  1  0  0  0  0
 30 28  1  0  0  0  0
M  END
>  <MODEL>
6

>  <REMARK>
 VINA RESULT:      -7.8      2.140      4.794
  Name = 
  7 active torsions:
  status: ('A' for Active; 'I' for Inactive)
    1  A    between atoms: C_4  and  N_13
    2  A    between atoms: N_7  and  C_15
    3  A    between atoms: N_7  and  C_16
    4  A    between atoms: C_8  and  N_13
    5  A    between atoms: N_13  and  C_27
    6  A    between atoms: C_16  and  C_30
    7  A    between atoms: C_27  and  C_30
                            x       y       z     vdW  Elec       q    Type
                         _______ _______ _______ _____ _____    ______ ____

>  <TORSDO>
F 7

$$$$
=
 OpenBabel10262421583D

 30 34  0  0  1  0  0  0  0  0999 V2000
  187.2270  177.8180  141.7440 C   0  0  0  0  0  3  0  0  0  0  0  0
  185.4150  178.4100  143.2570 C   0  0  0  0  0  0  0  0  0  0  0  0
  189.7760  177.0380  145.0030 C   0  0  0  0  0  3  0  0  0  0  0  0
  188.5360  177.3930  141.4990 C   0  0  0  0  0  0  0  0  0  0  0  0
  191.0970  176.6470  144.7810 C   0  0  0  0  0  3  0  0  0  0  0  0
  184.9360  178.5690  144.5590 C   0  0  0  0  0  3  0  0  0  0  0  0
  184.5440  178.6780  142.1600 N   0  0  0  0  0  1  0  0  0  0  0  0
  188.9120  177.2960  143.9250 C   0  0  0  0  0  0  0  0  0  0  0  0
  185.7640  178.3060  145.6510 C   0  0  0  0  0  3  0  0  0  0  0  0
  186.7390  177.9840  143.0420 C   0  0  0  0  0  0  0  0  0  0  0  0
  189.3930  177.1420  142.5970 C   0  0  0  0  0  0  0  0  0  0  0  0
  191.5750  176.5140  143.4790 C   0  0  0  0  0  3  0  0  0  0  0  0
  190.7310  176.7630  142.3970 C   0  0  0  0  0  3  0  0  0  0  0  0
  187.0780  177.8840  145.4470 C   0  0  0  0  0  3  0  0  0  0  0  0
  187.5830  177.7170  144.1460 C   0  0  0  0  0  0  0  0  0  0  0  0
  188.9730  177.2160  140.1310 N   0  0  0  0  0  0  0  0  0  0  0  0
  188.6220  177.1540  136.5200 C   0  0  0  0  0  3  0  0  0  0  0  0
  187.6820  175.6160  138.0420 O   0  0  0  0  0  0  0  0  0  0  0  0
  188.2190  177.7530  138.9970 C   0  0  1  0  0  3  0  0  0  0  0  0
  188.7520  179.0640  138.6000 N   0  0  0  0  0  0  0  0  0  0  0  0
  188.1540  176.7680  137.8540 C   0  0  0  0  0  0  0  0  0  0  0  0
  189.0890  178.3800  136.3030 C   0  0  0  0  0  3  0  0  0  0  0  0
  189.1450  179.3630  137.3960 C   0  0  0  0  0  3  0  0  0  0  0  0
  190.1390  176.3990  139.8170 C   0  0  0  0  0  2  0  0  0  0  0  0
  191.2380  177.2560  139.2130 C   0  0  0  0  0  2  0  0  0  0  0  0
  192.0320  176.4420  138.2110 C   0  0  0  0  0  2  0  0  0  0  0  0
  191.4880  175.0970  138.1330 N   0  0  0  0  0  2  0  0  0  0  0  0
  191.7550  173.3450  136.4930 C   0  0  0  0  0  2  0  0  0  0  0  0
  191.3370  174.7820  136.7260 C   0  0  0  0  0  3  0  0  0  0  0  0
  190.2890  173.7000  136.5690 C   0  0  0  0  0  2  0  0  0  0  0  0
  1 10  1  0  0  0  0
  2  6  1  0  0  0  0
  4  1  2  0  0  0  0
  4 11  1  0  0  0  0
  5  3  1  0  0  0  0
  6  9  2  0  0  0  0
  7  2  1  0  0  0  0
  8 15  1  0  0  0  0
  8  3  2  0  0  0  0
 10  2  2  0  0  0  0
 10 15  1  0  0  0  0
 11  8  1  0  0  0  0
 12  5  2  0  0  0  0
 13 11  2  0  0  0  0
 13 12  1  0  0  0  0
 14  9  1  0  0  0  0
 15 14  2  0  0  0  0
 16  4  1  0  0  0  0
 17 21  1  0  0  0  0
 19 16  1  1  0  0  0
 20 19  1  0  0  0  0
 21 18  2  0  0  0  0
 21 19  1  0  0  0  0
 22 17  2  0  0  0  0
 22 23  1  0  0  0  0
 23 20  2  0  0  0  0
 24 16  1  0  0  0  0
 25 24  1  0  0  0  0
 26 25  1  0  0  0  0
 27 26  1  0  0  0  0
 28 30  1  0  0  0  0
 28 29  1  0  0  0  0
 29 27  1  0  0  0  0
 30 29  1  0  0  0  0
M  END
>  <MODEL>
7

>  <REMARK>
 VINA RESULT:      -7.7      2.682      5.042
  Name = 
  7 active torsions:
  status: ('A' for Active; 'I' for Inactive)
    1  A    between atoms: C_4  and  N_13
    2  A    between atoms: N_7  and  C_15
    3  A    between atoms: N_7  and  C_16
    4  A    between atoms: C_8  and  N_13
    5  A    between atoms: N_13  and  C_27
    6  A    between atoms: C_16  and  C_30
    7  A    between atoms: C_27  and  C_30
                            x       y       z     vdW  Elec       q    Type
                         _______ _______ _______ _____ _____    ______ ____

>  <TORSDO>
F 7

$$$$
=
 OpenBabel10262421583D

 30 34  0  0  1  0  0  0  0  0999 V2000
  189.5940  177.5510  139.8280 C   0  0  0  0  0  3  0  0  0  0  0  0
  190.1820  177.0250  137.5260 C   0  0  0  0  0  0  0  0  0  0  0  0
  185.6390  178.4290  138.6810 C   0  0  0  0  0  3  0  0  0  0  0  0
  188.6740  177.9490  140.8020 C   0  0  0  0  0  0  0  0  0  0  0  0
  184.7140  178.8620  139.6320 C   0  0  0  0  0  3  0  0  0  0  0  0
  189.8100  176.9030  136.1850 C   0  0  0  0  0  3  0  0  0  0  0  0
  191.5240  176.7270  137.9030 N   0  0  0  0  0  1  0  0  0  0  0  0
  186.9610  178.1270  139.0500 C   0  0  0  0  0  0  0  0  0  0  0  0
  188.5020  177.1810  135.7880 C   0  0  0  0  0  3  0  0  0  0  0  0
  189.2340  177.4310  138.4830 C   0  0  0  0  0  0  0  0  0  0  0  0
  187.3490  178.2530  140.4120 C   0  0  0  0  0  0  0  0  0  0  0  0
  185.0980  179.0040  140.9650 C   0  0  0  0  0  3  0  0  0  0  0  0
  186.4050  178.7060  141.3490 C   0  0  0  0  0  3  0  0  0  0  0  0
  187.5560  177.5840  136.7320 C   0  0  0  0  0  3  0  0  0  0  0  0
  187.9060  177.7150  138.0860 C   0  0  0  0  0  0  0  0  0  0  0  0
  189.1040  178.0310  142.1820 N   0  0  0  0  0  0  0  0  0  0  0  0
  191.3050  176.2930  144.4840 C   0  0  0  0  0  3  0  0  0  0  0  0
  190.4310  175.4340  142.4690 O   0  0  0  0  0  0  0  0  0  0  0  0
  190.4990  177.8320  142.5760 C   0  0  1  0  0  3  0  0  0  0  0  0
  190.9370  178.9080  143.4750 N   0  0  0  0  0  0  0  0  0  0  0  0
  190.7250  176.4520  143.1470 C   0  0  0  0  0  0  0  0  0  0  0  0
  191.6520  177.3630  145.1950 C   0  0  0  0  0  3  0  0  0  0  0  0
  191.4580  178.7160  144.6520 C   0  0  0  0  0  3  0  0  0  0  0  0
  188.1360  178.2140  143.2570 C   0  0  0  0  0  2  0  0  0  0  0  0
  187.7850  176.8750  143.8840 C   0  0  0  0  0  2  0  0  0  0  0  0
  187.1700  177.0940  145.2520 C   0  0  0  0  0  2  0  0  0  0  0  0
  188.0550  177.9150  146.0600 N   0  0  0  0  0  2  0  0  0  0  0  0
  189.4270  177.8640  148.0470 C   0  0  0  0  0  2  0  0  0  0  0  0
  188.3030  177.1880  147.2900 C   0  0  0  0  0  3  0  0  0  0  0  0
  187.9930  178.0860  148.4690 C   0  0  0  0  0  2  0  0  0  0  0  0
  1  4  1  0  0  0  0
  2  7  1  0  0  0  0
  2 10  1  0  0  0  0
  3  8  1  0  0  0  0
  3  5  2  0  0  0  0
  4 16  1  0  0  0  0
  5 12  1  0  0  0  0
  6  2  2  0  0  0  0
  8 11  1  0  0  0  0
  9  6  1  0  0  0  0
  9 14  2  0  0  0  0
 10  1  2  0  0  0  0
 11  4  2  0  0  0  0
 11 13  1  0  0  0  0
 12 13  2  0  0  0  0
 14 15  1  0  0  0  0
 15 10  1  0  0  0  0
 15  8  2  0  0  0  0
 16 24  1  0  0  0  0
 17 22  2  0  0  0  0
 18 21  2  0  0  0  0
 19 16  1  1  0  0  0
 19 21  1  0  0  0  0
 19 20  1  0  0  0  0
 20 23  2  0  0  0  0
 21 17  1  0  0  0  0
 23 22  1  0  0  0  0
 24 25  1  0  0  0  0
 25 26  1  0  0  0  0
 26 27  1  0  0  0  0
 27 29  1  0  0  0  0
 28 30  1  0  0  0  0
 29 28  1  0  0  0  0
 29 30  1  0  0  0  0
M  END
>  <MODEL>
8

>  <REMARK>
 VINA RESULT:      -7.7      2.435      6.564
  Name = 
  7 active torsions:
  status: ('A' for Active; 'I' for Inactive)
    1  A    between atoms: C_4  and  N_13
    2  A    between atoms: N_7  and  C_15
    3  A    between atoms: N_7  and  C_16
    4  A    between atoms: C_8  and  N_13
    5  A    between atoms: N_13  and  C_27
    6  A    between atoms: C_16  and  C_30
    7  A    between atoms: C_27  and  C_30
                            x       y       z     vdW  Elec       q    Type
                         _______ _______ _______ _____ _____    ______ ____

>  <TORSDO>
F 7

$$$$
=
 OpenBabel10262421583D

 30 34  0  0  1  0  0  0  0  0999 V2000
  184.1940  178.5030  141.5190 C   0  0  0  0  0  3  0  0  0  0  0  0
  185.6500  178.4160  143.4660 C   0  0  0  0  0  0  0  0  0  0  0  0
  180.8180  178.9810  143.9880 C   0  0  0  0  0  3  0  0  0  0  0  0
  182.9320  178.6270  140.9310 C   0  0  0  0  0  0  0  0  0  0  0  0
  179.5450  179.0710  143.4250 C   0  0  0  0  0  3  0  0  0  0  0  0
  185.8120  178.4600  144.8530 C   0  0  0  0  0  3  0  0  0  0  0  0
  186.8000  178.2530  142.6390 N   0  0  0  0  0  1  0  0  0  0  0  0
  181.9540  178.8270  143.1770 C   0  0  0  0  0  0  0  0  0  0  0  0
  184.7060  178.6270  145.6870 C   0  0  0  0  0  3  0  0  0  0  0  0
  184.3660  178.5410  142.9040 C   0  0  0  0  0  0  0  0  0  0  0  0
  181.7980  178.7770  141.7640 C   0  0  0  0  0  0  0  0  0  0  0  0
  179.3880  179.0030  142.0410 C   0  0  0  0  0  3  0  0  0  0  0  0
  180.5060  178.8530  141.2190 C   0  0  0  0  0  3  0  0  0  0  0  0
  183.4290  178.7500  145.1370 C   0  0  0  0  0  3  0  0  0  0  0  0
  183.2410  178.7090  143.7450 C   0  0  0  0  0  0  0  0  0  0  0  0
  182.8230  178.6040  139.4880 N   0  0  0  0  0  0  0  0  0  0  0  0
  183.4640  177.1190  136.2400 C   0  0  0  0  0  3  0  0  0  0  0  0
  185.0670  177.5680  137.9120 O   0  0  0  0  0  0  0  0  0  0  0  0
  182.8180  177.3540  138.7270 C   0  0  1  0  0  3  0  0  0  0  0  0
  181.4650  177.0570  138.2370 N   0  0  0  0  0  0  0  0  0  0  0  0
  183.8570  177.3640  137.6310 C   0  0  0  0  0  0  0  0  0  0  0  0
  182.1940  176.8680  135.9370 C   0  0  0  0  0  3  0  0  0  0  0  0
  181.1670  176.8340  136.9900 C   0  0  0  0  0  3  0  0  0  0  0  0
  182.8200  179.8430  138.7190 C   0  0  0  0  0  2  0  0  0  0  0  0
  181.4130  180.1670  138.2460 C   0  0  0  0  0  2  0  0  0  0  0  0
  180.9990  181.5310  138.7620 C   0  0  0  0  0  2  0  0  0  0  0  0
  181.6360  182.5680  137.9690 N   0  0  0  0  0  2  0  0  0  0  0  0
  181.1810  184.7200  136.9710 C   0  0  0  0  0  2  0  0  0  0  0  0
  180.5790  183.4170  137.4540 C   0  0  0  0  0  3  0  0  0  0  0  0
  180.8030  183.6480  135.9750 C   0  0  0  0  0  2  0  0  0  0  0  0
  1 10  1  0  0  0  0
  2  6  1  0  0  0  0
  4  1  2  0  0  0  0
  4 11  1  0  0  0  0
  5  3  1  0  0  0  0
  6  9  2  0  0  0  0
  7  2  1  0  0  0  0
  8 15  1  0  0  0  0
  8  3  2  0  0  0  0
 10  2  2  0  0  0  0
 10 15  1  0  0  0  0
 11  8  1  0  0  0  0
 12  5  2  0  0  0  0
 13 11  2  0  0  0  0
 13 12  1  0  0  0  0
 14  9  1  0  0  0  0
 15 14  2  0  0  0  0
 16  4  1  0  0  0  0
 17 21  1  0  0  0  0
 19 16  1  6  0  0  0
 20 19  1  0  0  0  0
 21 18  2  0  0  0  0
 21 19  1  0  0  0  0
 22 17  2  0  0  0  0
 22 23  1  0  0  0  0
 23 20  2  0  0  0  0
 24 16  1  0  0  0  0
 25 24  1  0  0  0  0
 25 26  1  0  0  0  0
 27 26  1  0  0  0  0
 28 29  1  0  0  0  0
 29 27  1  0  0  0  0
 30 28  1  0  0  0  0
 30 29  1  0  0  0  0
M  END
>  <MODEL>
9

>  <REMARK>
 VINA RESULT:      -7.7      3.674      7.176
  Name = 
  7 active torsions:
  status: ('A' for Active; 'I' for Inactive)
    1  A    between atoms: C_4  and  N_13
    2  A    between atoms: N_7  and  C_15
    3  A    between atoms: N_7  and  C_16
    4  A    between atoms: C_8  and  N_13
    5  A    between atoms: N_13  and  C_27
    6  A    between atoms: C_16  and  C_30
    7  A    between atoms: C_27  and  C_30
                            x       y       z     vdW  Elec       q    Type
                         _______ _______ _______ _____ _____    ______ ____

>  <TORSDO>
F 7

$$$$
