=
 OpenBabel10262420573D

 28 32  0  0  1  0  0  0  0  0999 V2000
  181.2120  178.6170  137.1290 C   0  0  0  0  0  2  0  0  0  0  0  0
  181.5060  175.7600  136.8050 C   0  0  0  0  0  1  0  0  0  0  0  0
  180.3810  176.2430  137.7180 C   0  0  1  0  0  0  0  0  0  0  0  0
  180.7790  181.7150  136.9140 C   0  0  0  0  0  2  0  0  0  0  0  0
  181.4860  176.1680  139.8740 C   0  0  0  0  0  2  0  0  0  0  0  0
  181.0210  178.5360  140.5750 C   0  0  2  0  0  3  0  0  0  0  0  0
  180.4750  175.4260  139.0140 C   0  0  1  0  0  3  0  0  0  0  0  0
  180.9310  180.6390  139.1450 C   0  0  0  0  0  2  0  0  0  0  0  0
  181.4930  177.6250  139.4190 C   0  0  2  0  0  3  0  0  0  0  0  0
  180.9140  180.6890  135.9610 O   0  0  0  0  0  0  0  0  0  0  0  0
  180.1840  179.7460  140.1250 C   0  0  0  0  0  2  0  0  0  0  0  0
  180.0730  180.8240  137.8970 C   0  0  2  0  0  3  0  0  0  0  0  0
  180.2650  179.7760  136.8080 C   0  0  2  0  0  3  0  0  0  0  0  0
  180.6060  177.6880  138.1780 C   0  0  1  0  0  3  0  0  0  0  0  0
  184.2430  178.3540  142.6440 C   0  0  0  0  0  2  0  0  0  0  0  0
  181.8550  179.0590  142.9830 C   0  0  1  0  0  3  0  0  0  0  0  0
  183.2080  178.8490  143.6220 C   0  0  2  0  0  0  0  0  0  0  0  0
  182.1830  178.9880  141.4820 C   0  0  1  0  0  3  0  0  0  0  0  0
  183.6480  180.0360  144.2320 O   0  0  0  0  0  0  0  0  0  0  0  0
  183.4510  178.9280  145.0780 C   0  0  0  0  0  2  0  0  0  0  0  0
  183.4590  178.1510  141.3550 C   0  0  0  0  0  2  0  0  0  0  0  0
  180.8340  178.0170  143.4720 C   0  0  0  0  0  2  0  0  0  0  0  0
  179.7190  178.6110  144.3240 C   0  0  0  0  0  2  0  0  0  0  0  0
  179.1380  179.8190  143.6230 C   0  0  0  0  0  1  0  0  0  0  0  0
  179.3710  175.5550  141.3920 O   0  0  0  0  0  0  0  0  0  0  0  0
  178.9310  175.3010  139.9570 S   0  0  0  0  0  3  0  0  0  0  0  0
  179.0890  176.0780  136.9510 C   0  0  0  0  0  3  0  0  0  0  0  0
  179.0330  175.7950  135.6470 C   0  0  0  0  0  2  0  0  0  0  0  0
  3  2  1  6  0  0  0
  3 14  1  0  0  0  0
  3  7  1  0  0  0  0
  6 11  1  6  0  0  0
  6 18  1  0  0  0  0
  7  5  1  0  0  0  0
  7 26  1  1  0  0  0
  8 11  1  0  0  0  0
  9  5  1  1  0  0  0
  9  6  1  0  0  0  0
 10 13  1  0  0  0  0
 10  4  1  0  0  0  0
 12  4  1  6  0  0  0
 12  8  1  0  0  0  0
 13  1  1  1  0  0  0
 13 12  1  0  0  0  0
 14  1  1  6  0  0  0
 14  9  1  0  0  0  0
 16 22  1  1  0  0  0
 16 17  1  0  0  0  0
 17 15  1  6  0  0  0
 17 19  1  0  0  0  0
 17 20  1  0  0  0  0
 18 21  1  1  0  0  0
 18 16  1  0  0  0  0
 19 20  1  0  0  0  0
 21 15  1  0  0  0  0
 22 23  1  0  0  0  0
 24 23  1  0  0  0  0
 26 25  2  0  0  0  0
 27  3  1  0  0  0  0
 28 27  2  0  0  0  0
M  END
>  <MODEL>
1

>  <REMARK>
 VINA RESULT:      -5.1      0.000      0.000
  Name = 
  5 active torsions:
  status: ('A' for Active; 'I' for Inactive)
    1  A    between atoms: C_3  and  C_7
    2  A    between atoms: C_9  and  C_18
    3  A    between atoms: C_10  and  C_13
    4  A    between atoms: C_11  and  S_22
    5  A    between atoms: C_14  and  C_18
                            x       y       z     vdW  Elec       q    Type
                         _______ _______ _______ _____ _____    ______ ____

>  <TORSDO>
F 5

$$$$
=
 OpenBabel10262420573D

 28 32  0  0  1  0  0  0  0  0999 V2000
  188.4150  174.5440  135.6810 C   0  0  0  0  0  2  0  0  0  0  0  0
  189.8490  177.0530  135.6770 C   0  0  0  0  0  1  0  0  0  0  0  0
  189.1470  176.6570  136.9740 C   0  0  1  0  0  0  0  0  0  0  0  0
  187.3790  171.5860  135.5950 C   0  0  0  0  0  2  0  0  0  0  0  0
  187.0280  177.8050  136.7080 C   0  0  0  0  0  2  0  0  0  0  0  0
  185.5240  175.8240  137.0670 C   0  0  2  0  0  3  0  0  0  0  0  0
  188.3550  177.8850  137.4460 C   0  0  1  0  0  3  0  0  0  0  0  0
  185.8760  173.4010  136.3730 C   0  0  0  0  0  2  0  0  0  0  0  0
  186.7910  176.3400  136.3490 C   0  0  2  0  0  3  0  0  0  0  0  0
  188.6090  172.1900  135.2760 O   0  0  0  0  0  0  0  0  0  0  0  0
  185.6100  174.3590  137.5260 C   0  0  0  0  0  2  0  0  0  0  0  0
  187.0990  172.5530  136.7110 C   0  0  2  0  0  3  0  0  0  0  0  0
  188.4400  173.1410  136.2940 C   0  0  2  0  0  3  0  0  0  0  0  0
  188.0680  175.5960  136.7320 C   0  0  1  0  0  3  0  0  0  0  0  0
  183.0920  177.4580  134.5950 C   0  0  0  0  0  2  0  0  0  0  0  0
  183.0890  176.7380  137.0020 C   0  0  1  0  0  3  0  0  0  0  0  0
  182.3250  177.4180  135.8910 C   0  0  2  0  0  0  0  0  0  0  0  0
  184.2420  176.0590  136.2440 C   0  0  1  0  0  3  0  0  0  0  0  0
  181.0830  176.7870  135.6980 O   0  0  0  0  0  0  0  0  0  0  0  0
  181.0500  178.1390  136.0910 C   0  0  0  0  0  2  0  0  0  0  0  0
  184.4450  176.8610  134.9540 C   0  0  0  0  0  2  0  0  0  0  0  0
  183.5290  177.7450  138.0790 C   0  0  0  0  0  2  0  0  0  0  0  0
  183.2010  177.2980  139.4990 C   0  0  0  0  0  2  0  0  0  0  0  0
  182.4700  175.9750  139.4550 C   0  0  0  0  0  1  0  0  0  0  0  0
  186.6650  178.6630  139.2980 O   0  0  0  0  0  0  0  0  0  0  0  0
  187.9990  177.9310  139.2240 S   0  0  0  0  0  3  0  0  0  0  0  0
  190.2180  176.1820  137.9280 C   0  0  0  0  0  3  0  0  0  0  0  0
  191.5220  176.4060  137.7480 C   0  0  0  0  0  2  0  0  0  0  0  0
  3  2  1  6  0  0  0
  3  7  1  0  0  0  0
  3 27  1  0  0  0  0
  5  7  1  0  0  0  0
  6 11  1  6  0  0  0
  7 26  1  1  0  0  0
  8 12  1  0  0  0  0
  8 11  1  0  0  0  0
  9  5  1  1  0  0  0
  9 14  1  0  0  0  0
  9  6  1  0  0  0  0
 10  4  1  0  0  0  0
 10 13  1  0  0  0  0
 12  4  1  6  0  0  0
 13  1  1  6  0  0  0
 13 12  1  0  0  0  0
 14  1  1  6  0  0  0
 14  3  1  0  0  0  0
 15 21  1  0  0  0  0
 16 22  1  1  0  0  0
 17 15  1  6  0  0  0
 17 20  1  0  0  0  0
 17 16  1  0  0  0  0
 18 21  1  6  0  0  0
 18 16  1  0  0  0  0
 18  6  1  0  0  0  0
 19 17  1  0  0  0  0
 19 20  1  0  0  0  0
 22 23  1  0  0  0  0
 24 23  1  0  0  0  0
 26 25  2  0  0  0  0
 28 27  2  0  0  0  0
M  END
>  <MODEL>
2

>  <REMARK>
 VINA RESULT:      -4.5      5.969      8.718
  Name = 
  5 active torsions:
  status: ('A' for Active; 'I' for Inactive)
    1  A    between atoms: C_3  and  C_7
    2  A    between atoms: C_9  and  C_18
    3  A    between atoms: C_10  and  C_13
    4  A    between atoms: C_11  and  S_22
    5  A    between atoms: C_14  and  C_18
                            x       y       z     vdW  Elec       q    Type
                         _______ _______ _______ _____ _____    ______ ____

>  <TORSDO>
F 5

$$$$
=
 OpenBabel10262420573D

 28 32  0  0  1  0  0  0  0  0999 V2000
  186.0560  173.8550  135.6640 C   0  0  0  0  0  2  0  0  0  0  0  0
  188.1590  175.6730  134.8710 C   0  0  0  0  0  1  0  0  0  0  0  0
  187.6980  175.7380  136.3260 C   0  0  1  0  0  0  0  0  0  0  0  0
  184.1580  171.4700  136.3980 C   0  0  0  0  0  2  0  0  0  0  0  0
  186.0450  177.5060  136.1970 C   0  0  0  0  0  2  0  0  0  0  0  0
  184.1280  176.2520  137.2320 C   0  0  2  0  0  3  0  0  0  0  0  0
  187.4660  177.2190  136.6560 C   0  0  1  0  0  3  0  0  0  0  0  0
  183.5290  173.7880  137.0220 C   0  0  0  0  0  2  0  0  0  0  0  0
  185.2840  176.1830  136.2080 C   0  0  2  0  0  3  0  0  0  0  0  0
  185.4020  171.5510  135.7450 O   0  0  0  0  0  0  0  0  0  0  0  0
  183.8580  174.9310  137.9710 C   0  0  0  0  0  2  0  0  0  0  0  0
  184.4680  172.6220  137.3120 C   0  0  2  0  0  3  0  0  0  0  0  0
  185.7870  172.6360  136.5490 C   0  0  2  0  0  3  0  0  0  0  0  0
  186.3160  175.1000  136.5100 C   0  0  1  0  0  3  0  0  0  0  0  0
  181.8140  178.3220  134.9840 C   0  0  0  0  0  2  0  0  0  0  0  0
  182.1200  177.8930  137.4400 C   0  0  1  0  0  3  0  0  0  0  0  0
  181.3690  178.6660  136.3820 C   0  0  2  0  0  0  0  0  0  0  0  0
  182.8260  176.8040  136.6160 C   0  0  1  0  0  3  0  0  0  0  0  0
  179.9860  178.4540  136.5150 O   0  0  0  0  0  0  0  0  0  0  0  0
  180.4400  179.7770  136.6790 C   0  0  0  0  0  2  0  0  0  0  0  0
  182.9740  177.3600  135.1960 C   0  0  0  0  0  2  0  0  0  0  0  0
  183.0600  178.8080  138.2430 C   0  0  0  0  0  2  0  0  0  0  0  0
  182.6860  178.9230  139.7160 C   0  0  0  0  0  2  0  0  0  0  0  0
  183.4510  177.8890  140.5130 C   0  0  0  0  0  1  0  0  0  0  0  0
  186.4350  178.6280  138.6170 O   0  0  0  0  0  0  0  0  0  0  0  0
  187.5760  177.6380  138.4170 S   0  0  0  0  0  3  0  0  0  0  0  0
  188.7620  175.0570  137.1560 C   0  0  0  0  0  3  0  0  0  0  0  0
  189.6280  174.1670  136.6640 C   0  0  0  0  0  2  0  0  0  0  0  0
  3  2  1  6  0  0  0
  3 14  1  0  0  0  0
  3  7  1  0  0  0  0
  3 27  1  0  0  0  0
  5  7  1  0  0  0  0
  6 11  1  6  0  0  0
  7 26  1  1  0  0  0
  8 12  1  0  0  0  0
  8 11  1  0  0  0  0
  9  5  1  1  0  0  0
  9 14  1  0  0  0  0
  9  6  1  0  0  0  0
 10  4  1  0  0  0  0
 10 13  1  0  0  0  0
 12  4  1  6  0  0  0
 13  1  1  6  0  0  0
 13 12  1  0  0  0  0
 14  1  1  6  0  0  0
 15 21  1  0  0  0  0
 16 22  1  6  0  0  0
 17 15  1  6  0  0  0
 17 19  1  0  0  0  0
 17 20  1  0  0  0  0
 17 16  1  0  0  0  0
 18 21  1  6  0  0  0
 18  6  1  0  0  0  0
 18 16  1  0  0  0  0
 19 20  1  0  0  0  0
 22 23  1  0  0  0  0
 23 24  1  0  0  0  0
 26 25  2  0  0  0  0
 28 27  2  0  0  0  0
M  END
>  <MODEL>
3

>  <REMARK>
 VINA RESULT:      -4.4      4.892      7.700
  Name = 
  5 active torsions:
  status: ('A' for Active; 'I' for Inactive)
    1  A    between atoms: C_3  and  C_7
    2  A    between atoms: C_9  and  C_18
    3  A    between atoms: C_10  and  C_13
    4  A    between atoms: C_11  and  S_22
    5  A    between atoms: C_14  and  C_18
                            x       y       z     vdW  Elec       q    Type
                         _______ _______ _______ _____ _____    ______ ____

>  <TORSDO>
F 5

$$$$
=
 OpenBabel10262420573D

 28 32  0  0  1  0  0  0  0  0999 V2000
  191.6670  175.0970  137.9090 C   0  0  0  0  0  2  0  0  0  0  0  0
  188.9730  174.9470  136.8720 C   0  0  0  0  0  1  0  0  0  0  0  0
  189.5920  176.3370  136.9970 C   0  0  1  0  0  0  0  0  0  0  0  0
  194.7300  174.9600  138.5610 C   0  0  0  0  0  2  0  0  0  0  0  0
  188.7740  177.0010  139.1800 C   0  0  0  0  0  2  0  0  0  0  0  0
  190.9920  177.5810  140.2100 C   0  0  2  0  0  3  0  0  0  0  0  0
  188.5530  177.2280  137.6920 C   0  0  1  0  0  3  0  0  0  0  0  0
  193.2540  176.4690  139.8660 C   0  0  0  0  0  2  0  0  0  0  0  0
  190.2180  176.5440  139.3640 C   0  0  2  0  0  3  0  0  0  0  0  0
  193.9140  174.3170  137.6130 O   0  0  0  0  0  0  0  0  0  0  0  0
  192.4610  177.7660  139.7950 C   0  0  0  0  0  2  0  0  0  0  0  0
  193.9260  176.2290  138.5180 C   0  0  2  0  0  3  0  0  0  0  0  0
  193.0980  175.4550  137.5000 C   0  0  2  0  0  3  0  0  0  0  0  0
  190.7840  176.3420  137.9610 C   0  0  1  0  0  3  0  0  0  0  0  0
  189.8590  175.9650  143.4960 C   0  0  0  0  0  2  0  0  0  0  0  0
  189.9820  178.2700  142.5060 C   0  0  1  0  0  3  0  0  0  0  0  0
  189.5440  177.4270  143.6800 C   0  0  2  0  0  0  0  0  0  0  0  0
  190.8870  177.3050  141.7230 C   0  0  1  0  0  3  0  0  0  0  0  0
  190.1310  177.9030  144.8660 O   0  0  0  0  0  0  0  0  0  0  0  0
  188.7240  177.9370  144.8000 C   0  0  0  0  0  2  0  0  0  0  0  0
  190.4300  175.8890  142.0870 C   0  0  0  0  0  2  0  0  0  0  0  0
  188.7730  178.8060  141.7180 C   0  0  0  0  0  2  0  0  0  0  0  0
  187.4570  178.1350  142.0920 C   0  0  0  0  0  2  0  0  0  0  0  0
  186.3190  178.8150  141.3620 C   0  0  0  0  0  1  0  0  0  0  0  0
  187.3450  179.4130  136.8810 O   0  0  0  0  0  0  0  0  0  0  0  0
  188.7280  179.0050  137.3700 S   0  0  0  0  0  3  0  0  0  0  0  0
  189.9780  176.7740  135.6020 C   0  0  0  0  0  3  0  0  0  0  0  0
  190.2490  175.9250  134.6090 C   0  0  0  0  0  2  0  0  0  0  0  0
  3  2  1  6  0  0  0
  3  7  1  0  0  0  0
  3 14  1  0  0  0  0
  6 11  1  6  0  0  0
  6 18  1  0  0  0  0
  7 26  1  1  0  0  0
  7  5  1  0  0  0  0
  9  5  1  6  0  0  0
  9  6  1  0  0  0  0
 10  4  1  0  0  0  0
 11  8  1  0  0  0  0
 12  4  1  1  0  0  0
 12  8  1  0  0  0  0
 13 10  1  0  0  0  0
 13  1  1  1  0  0  0
 13 12  1  0  0  0  0
 14  1  1  1  0  0  0
 14  9  1  0  0  0  0
 16 22  1  6  0  0  0
 16 17  1  0  0  0  0
 17 15  1  6  0  0  0
 17 20  1  0  0  0  0
 17 19  1  0  0  0  0
 18 21  1  6  0  0  0
 18 16  1  0  0  0  0
 20 19  1  0  0  0  0
 21 15  1  0  0  0  0
 22 23  1  0  0  0  0
 24 23  1  0  0  0  0
 25 26  2  0  0  0  0
 27  3  1  0  0  0  0
 28 27  2  0  0  0  0
M  END
>  <MODEL>
4

>  <REMARK>
 VINA RESULT:      -4.3      7.983     10.102
  Name = 
  5 active torsions:
  status: ('A' for Active; 'I' for Inactive)
    1  A    between atoms: C_3  and  C_7
    2  A    between atoms: C_9  and  C_18
    3  A    between atoms: C_10  and  C_13
    4  A    between atoms: C_11  and  S_22
    5  A    between atoms: C_14  and  C_18
                            x       y       z     vdW  Elec       q    Type
                         _______ _______ _______ _____ _____    ______ ____

>  <TORSDO>
F 5

$$$$
=
 OpenBabel10262420573D

 28 32  0  0  1  0  0  0  0  0999 V2000
  184.6120  175.5860  135.8600 C   0  0  0  0  0  2  0  0  0  0  0  0
  186.6070  177.6240  135.3940 C   0  0  0  0  0  1  0  0  0  0  0  0
  186.5200  177.0500  136.8060 C   0  0  1  0  0  0  0  0  0  0  0  0
  182.7510  173.0660  135.9840 C   0  0  0  0  0  2  0  0  0  0  0  0
  185.0410  178.6590  137.8570 C   0  0  0  0  0  2  0  0  0  0  0  0
  183.3320  177.0320  138.7220 C   0  0  2  0  0  3  0  0  0  0  0  0
  186.5020  178.2420  137.7740 C   0  0  1  0  0  3  0  0  0  0  0  0
  182.4920  174.8780  137.6600 C   0  0  0  0  0  2  0  0  0  0  0  0
  184.1950  177.4380  137.5060 C   0  0  2  0  0  3  0  0  0  0  0  0
  183.8030  173.4510  135.1320 O   0  0  0  0  0  0  0  0  0  0  0  0
  183.1370  175.5160  138.8820 C   0  0  0  0  0  2  0  0  0  0  0  0
  183.3700  173.7250  137.1840 C   0  0  2  0  0  3  0  0  0  0  0  0
  184.4620  174.0990  136.1890 C   0  0  2  0  0  3  0  0  0  0  0  0
  185.1740  176.3570  137.0520 C   0  0  1  0  0  3  0  0  0  0  0  0
  180.6830  179.7230  138.0580 C   0  0  0  0  0  2  0  0  0  0  0  0
  181.6660  178.5340  140.0400 C   0  0  1  0  0  3  0  0  0  0  0  0
  180.7180  179.6080  139.5600 C   0  0  2  0  0  0  0  0  0  0  0  0
  181.9720  177.7590  138.7480 C   0  0  1  0  0  3  0  0  0  0  0  0
  179.4250  179.3730  140.0570 O   0  0  0  0  0  0  0  0  0  0  0  0
  180.0460  180.5720  140.4560 C   0  0  0  0  0  2  0  0  0  0  0  0
  181.7440  178.7360  137.5910 C   0  0  0  0  0  2  0  0  0  0  0  0
  182.8970  179.1410  140.7370 C   0  0  0  0  0  2  0  0  0  0  0  0
  183.0990  178.6380  142.1610 C   0  0  0  0  0  2  0  0  0  0  0  0
  184.5400  178.2150  142.3460 C   0  0  0  0  0  1  0  0  0  0  0  0
  188.3930  178.6190  139.5550 O   0  0  0  0  0  0  0  0  0  0  0  0
  187.0690  177.8730  139.4560 S   0  0  0  0  0  3  0  0  0  0  0  0
  187.6900  176.1090  136.9730 C   0  0  0  0  0  3  0  0  0  0  0  0
  188.4690  175.7100  135.9650 C   0  0  0  0  0  2  0  0  0  0  0  0
  3  2  1  6  0  0  0
  3 27  1  0  0  0  0
  3 14  1  0  0  0  0
  3  7  1  0  0  0  0
  6 18  1  0  0  0  0
  6 11  1  6  0  0  0
  7  5  1  0  0  0  0
  7 26  1  1  0  0  0
  8 11  1  0  0  0  0
  9  5  1  1  0  0  0
  9  6  1  0  0  0  0
 10  4  1  0  0  0  0
 10 13  1  0  0  0  0
 12  4  1  6  0  0  0
 12  8  1  0  0  0  0
 13  1  1  6  0  0  0
 13 12  1  0  0  0  0
 14  1  1  6  0  0  0
 14  9  1  0  0  0  0
 16 22  1  6  0  0  0
 17 15  1  6  0  0  0
 17 16  1  0  0  0  0
 17 19  1  0  0  0  0
 17 20  1  0  0  0  0
 18 21  1  6  0  0  0
 18 16  1  0  0  0  0
 19 20  1  0  0  0  0
 21 15  1  0  0  0  0
 22 23  1  0  0  0  0
 23 24  1  0  0  0  0
 26 25  2  0  0  0  0
 28 27  2  0  0  0  0
M  END
>  <MODEL>
5

>  <REMARK>
 VINA RESULT:      -4.2      4.063      6.225
  Name = 
  5 active torsions:
  status: ('A' for Active; 'I' for Inactive)
    1  A    between atoms: C_3  and  C_7
    2  A    between atoms: C_9  and  C_18
    3  A    between atoms: C_10  and  C_13
    4  A    between atoms: C_11  and  S_22
    5  A    between atoms: C_14  and  C_18
                            x       y       z     vdW  Elec       q    Type
                         _______ _______ _______ _____ _____    ______ ____

>  <TORSDO>
F 5

$$$$
=
 OpenBabel10262420573D

 28 32  0  0  1  0  0  0  0  0999 V2000
  187.1360  174.9420  135.8050 C   0  0  0  0  0  2  0  0  0  0  0  0
  187.0930  177.8010  135.3830 C   0  0  0  0  0  1  0  0  0  0  0  0
  186.7110  177.2990  136.7740 C   0  0  1  0  0  0  0  0  0  0  0  0
  187.7480  171.8880  136.1560 C   0  0  0  0  0  2  0  0  0  0  0  0
  184.3000  177.1760  136.5620 C   0  0  0  0  0  2  0  0  0  0  0  0
  184.0190  174.7840  137.2800 C   0  0  2  0  0  3  0  0  0  0  0  0
  185.4130  178.0180  137.1670 C   0  0  1  0  0  3  0  0  0  0  0  0
  185.5440  172.7940  136.8460 C   0  0  0  0  0  2  0  0  0  0  0  0
  184.8350  175.7560  136.3990 C   0  0  2  0  0  3  0  0  0  0  0  0
  188.4950  172.9730  135.6610 O   0  0  0  0  0  0  0  0  0  0  0  0
  184.8460  173.6440  137.8980 C   0  0  0  0  0  2  0  0  0  0  0  0
  187.0330  172.7330  137.1710 C   0  0  2  0  0  3  0  0  0  0  0  0
  187.8820  173.8480  136.5730 C   0  0  2  0  0  3  0  0  0  0  0  0
  186.3190  175.8180  136.7530 C   0  0  1  0  0  3  0  0  0  0  0  0
  181.1520  174.5250  134.7490 C   0  0  0  0  0  2  0  0  0  0  0  0
  181.4350  174.4830  137.2450 C   0  0  1  0  0  3  0  0  0  0  0  0
  180.4640  174.4650  136.0880 C   0  0  2  0  0  0  0  0  0  0  0  0
  182.7820  174.2230  136.5510 C   0  0  1  0  0  3  0  0  0  0  0  0
  179.6450  173.3250  136.1590 O   0  0  0  0  0  0  0  0  0  0  0  0
  178.9980  174.5730  136.2430 C   0  0  0  0  0  2  0  0  0  0  0  0
  182.6230  174.6940  135.1020 C   0  0  0  0  0  2  0  0  0  0  0  0
  181.3550  175.8080  138.0240 C   0  0  0  0  0  2  0  0  0  0  0  0
  181.2590  175.6200  139.5340 C   0  0  0  0  0  2  0  0  0  0  0  0
  180.0470  174.7760  139.8610 C   0  0  0  0  0  1  0  0  0  0  0  0
  184.9380  179.6310  139.1840 O   0  0  0  0  0  0  0  0  0  0  0  0
  185.1110  178.1350  138.9520 S   0  0  0  0  0  3  0  0  0  0  0  0
  187.8900  177.5700  137.6790 C   0  0  0  0  0  3  0  0  0  0  0  0
  188.7310  178.5940  137.5150 C   0  0  0  0  0  2  0  0  0  0  0  0
  3  2  1  6  0  0  0
  3  7  1  0  0  0  0
  3 27  1  0  0  0  0
  5  7  1  0  0  0  0
  6 11  1  6  0  0  0
  7 26  1  1  0  0  0
  8 12  1  0  0  0  0
  8 11  1  0  0  0  0
  9  5  1  1  0  0  0
  9 14  1  0  0  0  0
  9  6  1  0  0  0  0
 10  4  1  0  0  0  0
 10 13  1  0  0  0  0
 12  4  1  6  0  0  0
 13  1  1  6  0  0  0
 13 12  1  0  0  0  0
 14  1  1  6  0  0  0
 14  3  1  0  0  0  0
 15 21  1  0  0  0  0
 16 22  1  6  0  0  0
 17 15  1  6  0  0  0
 17 19  1  0  0  0  0
 17 20  1  0  0  0  0
 17 16  1  0  0  0  0
 18 21  1  6  0  0  0
 18 16  1  0  0  0  0
 18  6  1  0  0  0  0
 19 20  1  0  0  0  0
 22 23  1  0  0  0  0
 23 24  1  0  0  0  0
 26 25  2  0  0  0  0
 28 27  2  0  0  0  0
M  END
>  <MODEL>
6

>  <REMARK>
 VINA RESULT:      -4.2      4.914      8.159
  Name = 
  5 active torsions:
  status: ('A' for Active; 'I' for Inactive)
    1  A    between atoms: C_3  and  C_7
    2  A    between atoms: C_9  and  C_18
    3  A    between atoms: C_10  and  C_13
    4  A    between atoms: C_11  and  S_22
    5  A    between atoms: C_14  and  C_18
                            x       y       z     vdW  Elec       q    Type
                         _______ _______ _______ _____ _____    ______ ____

>  <TORSDO>
F 5

$$$$
=
 OpenBabel10262420573D

 28 32  0  0  1  0  0  0  0  0999 V2000
  186.6580  177.2440  144.7230 C   0  0  0  0  0  2  0  0  0  0  0  0
  188.5400  175.7780  143.0910 C   0  0  0  0  0  1  0  0  0  0  0  0
  188.5070  177.2950  142.9180 C   0  0  1  0  0  0  0  0  0  0  0  0
  184.9290  178.6370  146.9370 C   0  0  0  0  0  2  0  0  0  0  0  0
  186.9690  177.5020  141.0560 C   0  0  0  0  0  2  0  0  0  0  0  0
  185.3590  179.1100  142.1250 C   0  0  2  0  0  3  0  0  0  0  0  0
  188.4470  177.5710  141.4090 C   0  0  1  0  0  3  0  0  0  0  0  0
  184.6090  179.2460  144.5520 C   0  0  0  0  0  2  0  0  0  0  0  0
  186.1790  177.8150  142.3240 C   0  0  2  0  0  3  0  0  0  0  0  0
  185.9440  177.6630  146.9720 O   0  0  0  0  0  0  0  0  0  0  0  0
  185.2440  179.9850  143.3830 C   0  0  0  0  0  2  0  0  0  0  0  0
  185.5360  179.3470  145.7600 C   0  0  2  0  0  3  0  0  0  0  0  0
  186.5890  178.2530  145.8730 C   0  0  2  0  0  3  0  0  0  0  0  0
  187.2030  177.8970  143.4540 C   0  0  1  0  0  3  0  0  0  0  0  0
  182.4860  177.2290  140.4210 C   0  0  0  0  0  2  0  0  0  0  0  0
  183.7470  179.3780  140.1000 C   0  0  1  0  0  3  0  0  0  0  0  0
  182.6860  178.4480  139.5590 C   0  0  2  0  0  0  0  0  0  0  0  0
  183.9650  178.8390  141.5240 C   0  0  1  0  0  3  0  0  0  0  0  0
  181.4700  179.1370  139.4050 O   0  0  0  0  0  0  0  0  0  0  0  0
  182.0500  178.6090  138.2340 C   0  0  0  0  0  2  0  0  0  0  0  0
  183.5530  177.3630  141.4970 C   0  0  0  0  0  2  0  0  0  0  0  0
  185.0020  179.3780  139.2100 C   0  0  0  0  0  2  0  0  0  0  0  0
  185.0680  178.1930  138.2530 C   0  0  0  0  0  2  0  0  0  0  0  0
  186.3590  178.2530  137.4650 C   0  0  0  0  0  1  0  0  0  0  0  0
  189.0560  179.1240  139.3820 O   0  0  0  0  0  0  0  0  0  0  0  0
  189.0620  179.2000  140.9030 S   0  0  0  0  0  3  0  0  0  0  0  0
  189.7260  177.8460  143.6210 C   0  0  0  0  0  3  0  0  0  0  0  0
  190.2530  177.3060  144.7230 C   0  0  0  0  0  2  0  0  0  0  0  0
  3  2  1  1  0  0  0
  3 14  1  0  0  0  0
  3 27  1  0  0  0  0
  4 10  1  0  0  0  0
  5  7  1  0  0  0  0
  6  9  1  0  0  0  0
  6 11  1  1  0  0  0
  7 26  1  1  0  0  0
  7  3  1  0  0  0  0
  9  5  1  6  0  0  0
  9 14  1  0  0  0  0
 11  8  1  0  0  0  0
 12  8  1  6  0  0  0
 12 13  1  0  0  0  0
 12  4  1  0  0  0  0
 13  1  1  6  0  0  0
 13 10  1  0  0  0  0
 14  1  1  1  0  0  0
 15 21  1  0  0  0  0
 16 22  1  6  0  0  0
 16 18  1  0  0  0  0
 17 20  1  6  0  0  0
 17 16  1  0  0  0  0
 17 15  1  0  0  0  0
 18 21  1  6  0  0  0
 18  6  1  0  0  0  0
 19 17  1  0  0  0  0
 20 19  1  0  0  0  0
 23 22  1  0  0  0  0
 24 23  1  0  0  0  0
 25 26  2  0  0  0  0
 27 28  2  0  0  0  0
M  END
>  <MODEL>
7

>  <REMARK>
 VINA RESULT:      -4.1      4.067      8.454
  Name = 
  5 active torsions:
  status: ('A' for Active; 'I' for Inactive)
    1  A    between atoms: C_3  and  C_7
    2  A    between atoms: C_9  and  C_18
    3  A    between atoms: C_10  and  C_13
    4  A    between atoms: C_11  and  S_22
    5  A    between atoms: C_14  and  C_18
                            x       y       z     vdW  Elec       q    Type
                         _______ _______ _______ _____ _____    ______ ____

>  <TORSDO>
F 5

$$$$
=
 OpenBabel10262420573D

 28 32  0  0  1  0  0  0  0  0999 V2000
  180.5050  176.0480  137.5350 C   0  0  0  0  0  2  0  0  0  0  0  0
  180.8070  176.7280  140.3280 C   0  0  0  0  0  1  0  0  0  0  0  0
  181.3120  177.7460  139.3080 C   0  0  1  0  0  0  0  0  0  0  0  0
  179.6110  175.3230  134.6190 C   0  0  0  0  0  2  0  0  0  0  0  0
  183.6460  177.1100  139.1530 C   0  0  0  0  0  2  0  0  0  0  0  0
  183.7530  176.8230  136.6590 C   0  0  2  0  0  3  0  0  0  0  0  0
  182.7220  178.1610  139.7500 C   0  0  1  0  0  3  0  0  0  0  0  0
  181.9740  175.9310  135.0730 C   0  0  0  0  0  2  0  0  0  0  0  0
  182.9400  176.5170  137.9370 C   0  0  2  0  0  3  0  0  0  0  0  0
  178.9310  175.4020  135.8480 O   0  0  0  0  0  0  0  0  0  0  0  0
  182.8940  177.0940  135.4120 C   0  0  0  0  0  2  0  0  0  0  0  0
  180.5430  176.4490  134.9670 C   0  0  2  0  0  3  0  0  0  0  0  0
  179.7510  176.4610  136.2680 C   0  0  2  0  0  3  0  0  0  0  0  0
  181.5320  177.1070  137.9320 C   0  0  1  0  0  3  0  0  0  0  0  0
  186.1020  173.8450  137.2160 C   0  0  0  0  0  2  0  0  0  0  0  0
  186.2730  176.2220  136.4200 C   0  0  1  0  0  3  0  0  0  0  0  0
  187.0180  174.9540  136.7650 C   0  0  2  0  0  0  0  0  0  0  0  0
  184.8130  175.7430  136.3610 C   0  0  1  0  0  3  0  0  0  0  0  0
  187.7880  174.5290  135.6690 O   0  0  0  0  0  0  0  0  0  0  0  0
  188.4910  174.8600  136.8430 C   0  0  0  0  0  2  0  0  0  0  0  0
  184.7280  174.4980  137.2490 C   0  0  0  0  0  2  0  0  0  0  0  0
  186.5480  177.3330  137.4490 C   0  0  0  0  0  2  0  0  0  0  0  0
  187.4690  178.4300  136.9280 C   0  0  0  0  0  2  0  0  0  0  0  0
  188.6170  178.6260  137.8930 C   0  0  0  0  0  1  0  0  0  0  0  0
  184.7680  179.7720  139.4140 O   0  0  0  0  0  0  0  0  0  0  0  0
  183.2680  179.7830  139.1510 S   0  0  0  0  0  3  0  0  0  0  0  0
  180.3000  178.8670  139.2660 C   0  0  0  0  0  3  0  0  0  0  0  0
  179.0540  178.7580  139.7340 C   0  0  0  0  0  2  0  0  0  0  0  0
  3  7  1  0  0  0  0
  3  2  1  1  0  0  0
  4 10  1  0  0  0  0
  5  7  1  0  0  0  0
  6 11  1  6  0  0  0
  6  9  1  0  0  0  0
  7 26  1  6  0  0  0
  8 11  1  0  0  0  0
  9  5  1  1  0  0  0
 10 13  1  0  0  0  0
 12  4  1  6  0  0  0
 12  8  1  0  0  0  0
 12 13  1  0  0  0  0
 13  1  1  1  0  0  0
 14  1  1  1  0  0  0
 14  9  1  0  0  0  0
 14  3  1  0  0  0  0
 15 21  1  0  0  0  0
 16 17  1  0  0  0  0
 16 22  1  1  0  0  0
 17 20  1  1  0  0  0
 17 15  1  0  0  0  0
 18 16  1  0  0  0  0
 18  6  1  0  0  0  0
 18 21  1  1  0  0  0
 19 17  1  0  0  0  0
 19 20  1  0  0  0  0
 23 22  1  0  0  0  0
 23 24  1  0  0  0  0
 26 25  2  0  0  0  0
 27  3  1  0  0  0  0
 27 28  2  0  0  0  0
M  END
>  <MODEL>
8

>  <REMARK>
 VINA RESULT:      -3.9      4.099      6.598
  Name = 
  5 active torsions:
  status: ('A' for Active; 'I' for Inactive)
    1  A    between atoms: C_3  and  C_7
    2  A    between atoms: C_9  and  C_18
    3  A    between atoms: C_10  and  C_13
    4  A    between atoms: C_11  and  S_22
    5  A    between atoms: C_14  and  C_18
                            x       y       z     vdW  Elec       q    Type
                         _______ _______ _______ _____ _____    ______ ____

>  <TORSDO>
F 5

$$$$
=
 OpenBabel10262420573D

 28 32  0  0  1  0  0  0  0  0999 V2000
  187.1070  175.2270  137.2170 C   0  0  0  0  0  2  0  0  0  0  0  0
  185.9050  172.6250  137.5910 C   0  0  0  0  0  1  0  0  0  0  0  0
  185.3810  173.4710  136.4330 C   0  0  1  0  0  0  0  0  0  0  0  0
  188.8940  177.7520  136.7100 C   0  0  0  0  0  2  0  0  0  0  0  0
  183.4890  174.5570  137.4880 C   0  0  0  0  0  2  0  0  0  0  0  0
  184.1160  176.9300  136.9450 C   0  0  2  0  0  3  0  0  0  0  0  0
  183.8490  173.4440  136.5170 C   0  0  1  0  0  3  0  0  0  0  0  0
  186.4270  177.9880  136.8360 C   0  0  0  0  0  2  0  0  0  0  0  0
  184.6310  175.5700  137.4680 C   0  0  2  0  0  3  0  0  0  0  0  0
  189.1790  176.3860  136.8930 O   0  0  0  0  0  0  0  0  0  0  0  0
  185.1320  177.7040  136.0890 C   0  0  0  0  0  2  0  0  0  0  0  0
  187.5970  177.4730  136.0040 C   0  0  2  0  0  3  0  0  0  0  0  0
  187.9870  176.0200  136.2480 C   0  0  2  0  0  3  0  0  0  0  0  0
  185.7320  174.9520  136.6100 C   0  0  1  0  0  3  0  0  0  0  0  0
  182.3730  177.9310  140.2100 C   0  0  0  0  0  2  0  0  0  0  0  0
  182.2230  178.5130  137.7710 C   0  0  1  0  0  3  0  0  0  0  0  0
  181.6410  178.7120  139.1500 C   0  0  2  0  0  0  0  0  0  0  0  0
  183.5650  177.8250  138.0730 C   0  0  1  0  0  3  0  0  0  0  0  0
  181.6280  180.0790  139.4790 O   0  0  0  0  0  0  0  0  0  0  0  0
  180.3780  179.4340  139.4130 C   0  0  0  0  0  2  0  0  0  0  0  0
  183.3980  177.1250  139.4260 C   0  0  0  0  0  2  0  0  0  0  0  0
  181.2720  177.7050  136.8700 C   0  0  0  0  0  2  0  0  0  0  0  0
  181.0100  178.3600  135.5190 C   0  0  0  0  0  2  0  0  0  0  0  0
  180.8000  179.8460  135.7120 C   0  0  0  0  0  1  0  0  0  0  0  0
  181.7660  174.5720  135.3840 O   0  0  0  0  0  0  0  0  0  0  0  0
  182.9890  173.7710  134.9540 S   0  0  0  0  0  3  0  0  0  0  0  0
  185.9620  172.8890  135.1650 C   0  0  0  0  0  3  0  0  0  0  0  0
  186.3350  171.6140  135.0380 C   0  0  0  0  0  2  0  0  0  0  0  0
  3  7  1  0  0  0  0
  3 14  1  0  0  0  0
  3  2  1  1  0  0  0
  4 10  1  0  0  0  0
  6 11  1  1  0  0  0
  6  9  1  0  0  0  0
  6 18  1  0  0  0  0
  7 26  1  6  0  0  0
  7  5  1  0  0  0  0
  9  5  1  6  0  0  0
 11  8  1  0  0  0  0
 12 13  1  0  0  0  0
 12  4  1  1  0  0  0
 12  8  1  0  0  0  0
 13 10  1  0  0  0  0
 13  1  1  1  0  0  0
 14  1  1  1  0  0  0
 14  9  1  0  0  0  0
 16 22  1  6  0  0  0
 16 18  1  0  0  0  0
 16 17  1  0  0  0  0
 17 20  1  6  0  0  0
 17 19  1  0  0  0  0
 17 15  1  0  0  0  0
 18 21  1  1  0  0  0
 20 19  1  0  0  0  0
 21 15  1  0  0  0  0
 23 24  1  0  0  0  0
 23 22  1  0  0  0  0
 26 25  2  0  0  0  0
 27  3  1  0  0  0  0
 28 27  2  0  0  0  0
M  END
>  <MODEL>
9

>  <REMARK>
 VINA RESULT:      -3.8      4.601      6.493
  Name = 
  5 active torsions:
  status: ('A' for Active; 'I' for Inactive)
    1  A    between atoms: C_3  and  C_7
    2  A    between atoms: C_9  and  C_18
    3  A    between atoms: C_10  and  C_13
    4  A    between atoms: C_11  and  S_22
    5  A    between atoms: C_14  and  C_18
                            x       y       z     vdW  Elec       q    Type
                         _______ _______ _______ _____ _____    ______ ____

>  <TORSDO>
F 5

$$$$
