=
 OpenBabel10252414503D

 34 38  0  0  1  0  0  0  0  0999 V2000
  190.4910  177.9940  143.1660 C   0  0  1  0  0  3  0  0  0  0  0  0
  188.7220  176.1130  142.9640 C   0  0  1  0  0  3  0  0  0  0  0  0
  188.9840  177.4930  145.1130 C   0  0  0  0  0  0  0  0  0  0  0  0
  187.4970  178.2070  147.6880 C   0  0  0  0  0  3  0  0  0  0  0  0
  189.2260  175.9920  141.6810 F   0  0  0  0  0  0  0  0  0  0  0  0
  186.7740  176.6900  144.3490 C   0  0  0  0  0  2  0  0  0  0  0  0
  189.6600  176.9120  143.8870 C   0  0  2  0  0  3  0  0  0  0  0  0
  186.9780  178.1650  146.4480 C   0  0  0  0  0  0  0  0  0  0  0  0
  189.8650  178.3320  145.9990 C   0  0  1  0  0  3  0  0  0  0  0  0
  190.9640  179.0840  144.1490 C   0  0  0  0  0  2  0  0  0  0  0  0
  187.3290  176.7130  142.9330 C   0  0  0  0  0  2  0  0  0  0  0  0
  188.8190  177.7150  148.1250 C   0  0  0  0  0  3  0  0  0  0  0  0
  189.9270  177.7120  147.3730 C   0  0  0  0  0  0  0  0  0  0  0  0
  187.6440  177.4740  145.2970 C   0  0  0  0  0  0  0  0  0  0  0  0
  191.1470  178.5440  145.4390 O   0  0  0  0  0  0  0  0  0  0  0  0
  193.0420  177.0250  149.4370 C   0  0  0  0  0  0  0  0  0  0  0  0
  193.4980  175.8370  148.8610 C   0  0  0  0  0  3  0  0  0  0  0  0
  191.1510  177.0560  147.9030 C   0  0  0  0  0  0  0  0  0  0  0  0
  192.7920  175.2580  147.8040 C   0  0  0  0  0  3  0  0  0  0  0  0
  191.8770  177.6310  148.9580 C   0  0  0  0  0  3  0  0  0  0  0  0
  191.6270  175.8650  147.3260 C   0  0  0  0  0  3  0  0  0  0  0  0
  193.7270  177.5900  150.4600 F   0  0  0  0  0  0  0  0  0  0  0  0
  191.5410  177.7990  141.2230 C   0  0  0  0  0  1  0  0  0  0  0  0
  191.6010  177.4010  142.5610 O   0  0  0  0  0  0  0  0  0  0  0  0
  185.6830  178.7560  146.2870 N   0  0  0  0  0  2  0  0  0  0  0  0
  185.2540  179.4610  145.0910 C   0  0  0  0  0  2  0  0  0  0  0  0
  183.8270  179.0720  144.7570 C   0  0  0  0  0  2  0  0  0  0  0  0
  181.7650  179.9240  142.9800 O   0  0  0  0  0  1  0  0  0  0  0  0
  183.7380  178.5670  143.3240 C   0  0  1  0  0  3  0  0  0  0  0  0
  182.3180  178.6640  142.7350 C   0  0  2  0  0  3  0  0  0  0  0  0
  183.5870  177.9680  140.7660 O   0  0  0  0  0  0  0  0  0  0  0  0
  184.4710  179.0460  140.9500 C   0  0  0  0  0  2  0  0  0  0  0  0
  184.7740  179.2650  142.4390 C   0  0  0  0  0  2  0  0  0  0  0  0
  182.3280  178.4120  141.2170 C   0  0  0  0  0  2  0  0  0  0  0  0
  1 24  1  1  0  0  0
  1  7  1  0  0  0  0
  1 10  1  0  0  0  0
  2  5  1  6  0  0  0
  2  7  1  0  0  0  0
  3 14  2  0  0  0  0
  4 12  1  0  0  0  0
  6 14  1  0  0  0  0
  7  3  1  1  0  0  0
  8  4  2  0  0  0  0
  9  3  1  6  0  0  0
  9 13  1  0  0  0  0
 10 15  1  0  0  0  0
 11  2  1  0  0  0  0
 11  6  1  0  0  0  0
 13 18  1  0  0  0  0
 13 12  2  0  0  0  0
 14  8  1  0  0  0  0
 15  9  1  0  0  0  0
 16 22  1  0  0  0  0
 17 16  2  0  0  0  0
 18 20  2  0  0  0  0
 19 17  1  0  0  0  0
 20 16  1  0  0  0  0
 21 19  2  0  0  0  0
 21 18  1  0  0  0  0
 23 24  1  0  0  0  0
 25  8  1  0  0  0  0
 26 25  1  0  0  0  0
 27 26  1  0  0  0  0
 29 27  1  1  0  0  0
 30 28  1  6  0  0  0
 30 29  1  0  0  0  0
 31 32  1  0  0  0  0
 31 34  1  0  0  0  0
 32 33  1  0  0  0  0
 33 29  1  0  0  0  0
 34 30  1  0  0  0  0
M  END
>  <MODEL>
1

>  <REMARK>
 VINA RESULT:      -7.6      0.000      0.000
  Name = 
  6 active torsions:
  status: ('A' for Active; 'I' for Inactive)
    1  A    between atoms: C_1  and  O_19
    2  A    between atoms: C_3  and  C_13
    3  A    between atoms: C_3  and  C_17
    4  A    between atoms: C_12  and  C_28
    5  A    between atoms: C_17  and  N_29
    6  A    between atoms: C_18  and  N_29
                            x       y       z     vdW  Elec       q    Type
                         _______ _______ _______ _____ _____    ______ ____

>  <TORSDO>
F 6

$$$$
=
 OpenBabel10252414503D

 34 38  0  0  1  0  0  0  0  0999 V2000
  184.1570  178.0230  138.7570 C   0  0  1  0  0  3  0  0  0  0  0  0
  182.4880  176.0660  139.0600 C   0  0  1  0  0  3  0  0  0  0  0  0
  182.6210  177.9990  140.7450 C   0  0  0  0  0  0  0  0  0  0  0  0
  181.0280  179.3150  142.9990 C   0  0  0  0  0  3  0  0  0  0  0  0
  183.0340  175.6220  137.8690 F   0  0  0  0  0  0  0  0  0  0  0  0
  180.4750  176.8970  140.2030 C   0  0  0  0  0  2  0  0  0  0  0  0
  183.3590  177.1390  139.7380 C   0  0  2  0  0  3  0  0  0  0  0  0
  180.5480  178.9040  141.8130 C   0  0  0  0  0  0  0  0  0  0  0  0
  183.4350  179.0970  141.3750 C   0  0  1  0  0  3  0  0  0  0  0  0
  184.5490  179.3670  139.4050 C   0  0  0  0  0  2  0  0  0  0  0  0
  181.0690  176.5570  138.8440 C   0  0  0  0  0  2  0  0  0  0  0  0
  182.3600  179.0370  143.5740 C   0  0  0  0  0  3  0  0  0  0  0  0
  183.4880  178.8860  142.8680 C   0  0  0  0  0  0  0  0  0  0  0  0
  181.2800  177.9580  140.9090 C   0  0  0  0  0  0  0  0  0  0  0  0
  184.7210  179.2150  140.7960 O   0  0  0  0  0  0  0  0  0  0  0  0
  186.0590  178.3330  145.6100 C   0  0  0  0  0  0  0  0  0  0  0  0
  187.0970  177.7290  144.8980 C   0  0  0  0  0  3  0  0  0  0  0  0
  184.7260  178.4690  143.5760 C   0  0  0  0  0  0  0  0  0  0  0  0
  186.9600  177.4990  143.5270 C   0  0  0  0  0  3  0  0  0  0  0  0
  184.8820  178.7040  144.9520 C   0  0  0  0  0  3  0  0  0  0  0  0
  185.7840  177.8690  142.8700 C   0  0  0  0  0  3  0  0  0  0  0  0
  186.1910  178.5610  146.9390 F   0  0  0  0  0  0  0  0  0  0  0  0
  186.0430  178.2830  137.6200 C   0  0  0  0  0  1  0  0  0  0  0  0
  185.3120  177.3470  138.3560 O   0  0  0  0  0  0  0  0  0  0  0  0
  179.2310  179.3560  141.4760 N   0  0  0  0  0  2  0  0  0  0  0  0
  178.9310  180.6910  140.9840 C   0  0  0  0  0  2  0  0  0  0  0  0
  180.0420  181.1540  140.0620 C   0  0  0  0  0  2  0  0  0  0  0  0
  179.7590  183.0100  137.9150 O   0  0  0  0  0  1  0  0  0  0  0  0
  179.7670  180.7010  138.6350 C   0  0  1  0  0  3  0  0  0  0  0  0
  179.0970  181.7880  137.7730 C   0  0  2  0  0  3  0  0  0  0  0  0
  179.5240  180.0650  136.0940 O   0  0  0  0  0  0  0  0  0  0  0  0
  180.8810  180.0350  136.4620 C   0  0  0  0  0  2  0  0  0  0  0  0
  181.0420  180.1590  137.9850 C   0  0  0  0  0  2  0  0  0  0  0  0
  179.0930  181.3930  136.2860 C   0  0  0  0  0  2  0  0  0  0  0  0
  1 24  1  1  0  0  0
  1 10  1  0  0  0  0
  1  7  1  0  0  0  0
  2  5  1  6  0  0  0
  2  7  1  0  0  0  0
  3 14  2  0  0  0  0
  4 12  1  0  0  0  0
  6 14  1  0  0  0  0
  7  3  1  6  0  0  0
  8  4  2  0  0  0  0
  9  3  1  6  0  0  0
  9 13  1  0  0  0  0
 10 15  1  0  0  0  0
 11  2  1  0  0  0  0
 11  6  1  0  0  0  0
 13 12  2  0  0  0  0
 13 18  1  0  0  0  0
 14  8  1  0  0  0  0
 15  9  1  0  0  0  0
 16 22  1  0  0  0  0
 17 16  2  0  0  0  0
 18 20  2  0  0  0  0
 19 17  1  0  0  0  0
 20 16  1  0  0  0  0
 21 19  2  0  0  0  0
 21 18  1  0  0  0  0
 23 24  1  0  0  0  0
 25  8  1  0  0  0  0
 26 25  1  0  0  0  0
 27 26  1  0  0  0  0
 29 27  1  1  0  0  0
 30 28  1  6  0  0  0
 30 29  1  0  0  0  0
 31 34  1  0  0  0  0
 31 32  1  0  0  0  0
 32 33  1  0  0  0  0
 33 29  1  0  0  0  0
 34 30  1  0  0  0  0
M  END
>  <MODEL>
2

>  <REMARK>
 VINA RESULT:      -7.6      4.536      7.451
  Name = 
  6 active torsions:
  status: ('A' for Active; 'I' for Inactive)
    1  A    between atoms: C_1  and  O_19
    2  A    between atoms: C_3  and  C_13
    3  A    between atoms: C_3  and  C_17
    4  A    between atoms: C_12  and  C_28
    5  A    between atoms: C_17  and  N_29
    6  A    between atoms: C_18  and  N_29
                            x       y       z     vdW  Elec       q    Type
                         _______ _______ _______ _____ _____    ______ ____

>  <TORSDO>
F 6

$$$$
=
 OpenBabel10252414503D

 34 38  0  0  1  0  0  0  0  0999 V2000
  185.7790  179.1870  145.5040 C   0  0  1  0  0  3  0  0  0  0  0  0
  186.8550  176.8880  144.9910 C   0  0  1  0  0  3  0  0  0  0  0  0
  185.8580  178.3550  143.1350 C   0  0  0  0  0  0  0  0  0  0  0  0
  185.8930  178.7160  140.0990 C   0  0  0  0  0  3  0  0  0  0  0  0
  187.0890  176.8680  146.3540 F   0  0  0  0  0  0  0  0  0  0  0  0
  187.8570  176.9530  142.7460 C   0  0  0  0  0  2  0  0  0  0  0  0
  185.8070  177.9420  144.5930 C   0  0  2  0  0  3  0  0  0  0  0  0
  186.9560  178.4940  140.8910 C   0  0  0  0  0  0  0  0  0  0  0  0
  184.8840  179.4310  142.7350 C   0  0  1  0  0  3  0  0  0  0  0  0
  185.1490  180.3960  144.7830 C   0  0  0  0  0  2  0  0  0  0  0  0
  188.1550  177.0820  144.2320 C   0  0  0  0  0  2  0  0  0  0  0  0
  184.4650  178.6200  140.4630 C   0  0  0  0  0  3  0  0  0  0  0  0
  183.9580  178.8960  141.6710 C   0  0  0  0  0  0  0  0  0  0  0  0
  186.8460  177.9750  142.2940 C   0  0  0  0  0  0  0  0  0  0  0  0
  184.1880  179.9680  143.8440 O   0  0  0  0  0  0  0  0  0  0  0  0
  180.6060  178.5760  143.4300 C   0  0  0  0  0  0  0  0  0  0  0  0
  179.8120  178.0340  142.4170 C   0  0  0  0  0  3  0  0  0  0  0  0
  182.5200  178.6170  141.9260 C   0  0  0  0  0  0  0  0  0  0  0  0
  180.3660  177.7760  141.1600 C   0  0  0  0  0  3  0  0  0  0  0  0
  181.9520  178.8620  143.1860 C   0  0  0  0  0  3  0  0  0  0  0  0
  181.7130  178.0630  140.9180 C   0  0  0  0  0  3  0  0  0  0  0  0
  180.0710  178.8240  144.6500 F   0  0  0  0  0  0  0  0  0  0  0  0
  185.8820  179.2620  147.7180 C   0  0  0  0  0  1  0  0  0  0  0  0
  185.0460  178.9020  146.6580 O   0  0  0  0  0  0  0  0  0  0  0  0
  188.2410  178.7030  140.2950 N   0  0  0  0  0  2  0  0  0  0  0  0
  188.5470  178.4210  138.9020 C   0  0  0  0  0  2  0  0  0  0  0  0
  189.1610  177.0390  138.7870 C   0  0  0  0  0  2  0  0  0  0  0  0
  190.8380  176.3470  140.9870 O   0  0  0  0  0  1  0  0  0  0  0  0
  190.6770  177.1400  138.7070 C   0  0  1  0  0  3  0  0  0  0  0  0
  191.3470  177.2860  140.0870 C   0  0  2  0  0  3  0  0  0  0  0  0
  193.3060  177.0400  138.6470 O   0  0  0  0  0  0  0  0  0  0  0  0
  192.7740  175.8500  138.1190 C   0  0  0  0  0  2  0  0  0  0  0  0
  191.2570  175.9680  137.9100 C   0  0  0  0  0  2  0  0  0  0  0  0
  192.8720  177.1040  139.9860 C   0  0  0  0  0  2  0  0  0  0  0  0
  1 24  1  1  0  0  0
  2  5  1  1  0  0  0
  4 12  1  0  0  0  0
  4  8  2  0  0  0  0
  6 11  1  0  0  0  0
  7  3  1  6  0  0  0
  7  2  1  0  0  0  0
  7  1  1  0  0  0  0
  8 14  1  0  0  0  0
  9 13  1  6  0  0  0
  9  3  1  0  0  0  0
  9 15  1  0  0  0  0
 10  1  1  0  0  0  0
 11  2  1  0  0  0  0
 12 13  2  0  0  0  0
 13 18  1  0  0  0  0
 14  6  1  0  0  0  0
 14  3  2  0  0  0  0
 15 10  1  0  0  0  0
 16 22  1  0  0  0  0
 17 16  2  0  0  0  0
 18 20  2  0  0  0  0
 19 17  1  0  0  0  0
 20 16  1  0  0  0  0
 21 19  2  0  0  0  0
 21 18  1  0  0  0  0
 24 23  1  0  0  0  0
 25  8  1  0  0  0  0
 26 25  1  0  0  0  0
 27 26  1  0  0  0  0
 29 27  1  1  0  0  0
 29 30  1  0  0  0  0
 30 28  1  1  0  0  0
 31 34  1  0  0  0  0
 32 31  1  0  0  0  0
 33 32  1  0  0  0  0
 33 29  1  0  0  0  0
 34 30  1  0  0  0  0
M  END
>  <MODEL>
3

>  <REMARK>
 VINA RESULT:      -7.1      3.750      8.837
  Name = 
  6 active torsions:
  status: ('A' for Active; 'I' for Inactive)
    1  A    between atoms: C_1  and  O_19
    2  A    between atoms: C_3  and  C_13
    3  A    between atoms: C_3  and  C_17
    4  A    between atoms: C_12  and  C_28
    5  A    between atoms: C_17  and  N_29
    6  A    between atoms: C_18  and  N_29
                            x       y       z     vdW  Elec       q    Type
                         _______ _______ _______ _____ _____    ______ ____

>  <TORSDO>
F 6

$$$$
=
 OpenBabel10252414503D

 34 38  0  0  1  0  0  0  0  0999 V2000
  180.8260  179.9700  139.6280 C   0  0  1  0  0  3  0  0  0  0  0  0
  180.4900  178.1580  141.4460 C   0  0  1  0  0  3  0  0  0  0  0  0
  182.8280  178.9910  140.7890 C   0  0  0  0  0  0  0  0  0  0  0  0
  185.7150  179.0430  141.7960 C   0  0  0  0  0  3  0  0  0  0  0  0
  179.1480  178.3550  141.1730 F   0  0  0  0  0  0  0  0  0  0  0  0
  182.2870  178.3500  143.1150 C   0  0  0  0  0  2  0  0  0  0  0  0
  181.4010  178.7320  140.3470 C   0  0  2  0  0  3  0  0  0  0  0  0
  184.6090  179.2870  142.5210 C   0  0  0  0  0  0  0  0  0  0  0  0
  183.7220  179.6120  139.7500 C   0  0  1  0  0  3  0  0  0  0  0  0
  181.9440  180.8040  138.9680 C   0  0  0  0  0  2  0  0  0  0  0  0
  180.8430  178.7200  142.8110 C   0  0  0  0  0  2  0  0  0  0  0  0
  185.7880  178.4870  140.4290 C   0  0  0  0  0  3  0  0  0  0  0  0
  184.8780  178.6840  139.4670 C   0  0  0  0  0  0  0  0  0  0  0  0
  183.2300  178.9020  142.0770 C   0  0  0  0  0  0  0  0  0  0  0  0
  183.0160  179.9760  138.5790 O   0  0  0  0  0  0  0  0  0  0  0  0
  186.2750  177.4290  136.1650 C   0  0  0  0  0  0  0  0  0  0  0  0
  185.2490  176.5860  135.7330 C   0  0  0  0  0  3  0  0  0  0  0  0
  185.0180  177.9450  138.1860 C   0  0  0  0  0  0  0  0  0  0  0  0
  184.1040  176.4220  136.5180 C   0  0  0  0  0  3  0  0  0  0  0  0
  186.1570  178.1070  137.3820 C   0  0  0  0  0  3  0  0  0  0  0  0
  183.9880  177.1000  137.7350 C   0  0  0  0  0  3  0  0  0  0  0  0
  187.3840  177.5920  135.4040 F   0  0  0  0  0  0  0  0  0  0  0  0
  179.0330  180.6330  138.5050 C   0  0  0  0  0  1  0  0  0  0  0  0
  179.9160  179.5600  138.6510 O   0  0  0  0  0  0  0  0  0  0  0  0
  184.8180  179.8740  143.8100 N   0  0  0  0  0  2  0  0  0  0  0  0
  185.1540  179.1170  145.0050 C   0  0  0  0  0  2  0  0  0  0  0  0
  186.1520  178.0310  144.6530 C   0  0  0  0  0  2  0  0  0  0  0  0
  188.9820  178.2140  144.9530 O   0  0  0  0  0  1  0  0  0  0  0  0
  186.8630  177.5410  145.9070 C   0  0  1  0  0  3  0  0  0  0  0  0
  188.3450  177.1950  145.6660 C   0  0  2  0  0  3  0  0  0  0  0  0
  188.2040  176.9560  148.0930 O   0  0  0  0  0  0  0  0  0  0  0  0
  187.6750  178.2550  148.1950 C   0  0  0  0  0  2  0  0  0  0  0  0
  186.6870  178.5400  147.0530 C   0  0  0  0  0  2  0  0  0  0  0  0
  189.0870  176.9760  146.9950 C   0  0  0  0  0  2  0  0  0  0  0  0
  1 24  1  6  0  0  0
  1  7  1  0  0  0  0
  2  5  1  6  0  0  0
  2 11  1  0  0  0  0
  3 14  2  0  0  0  0
  4  8  2  0  0  0  0
  7  3  1  1  0  0  0
  7  2  1  0  0  0  0
  8 25  1  0  0  0  0
  9 15  1  6  0  0  0
  9  3  1  0  0  0  0
 10  1  1  0  0  0  0
 11  6  1  0  0  0  0
 12  4  1  0  0  0  0
 13  9  1  0  0  0  0
 13 12  2  0  0  0  0
 14  8  1  0  0  0  0
 14  6  1  0  0  0  0
 15 10  1  0  0  0  0
 16 20  1  0  0  0  0
 17 16  2  0  0  0  0
 17 19  1  0  0  0  0
 18 13  1  0  0  0  0
 19 21  2  0  0  0  0
 20 18  2  0  0  0  0
 21 18  1  0  0  0  0
 22 16  1  0  0  0  0
 23 24  1  0  0  0  0
 25 26  1  0  0  0  0
 27 26  1  0  0  0  0
 29 27  1  6  0  0  0
 29 33  1  0  0  0  0
 30 28  1  1  0  0  0
 30 29  1  0  0  0  0
 30 34  1  0  0  0  0
 31 32  1  0  0  0  0
 33 32  1  0  0  0  0
 34 31  1  0  0  0  0
M  END
>  <MODEL>
4

>  <REMARK>
 VINA RESULT:      -7.1      4.020      9.639
  Name = 
  6 active torsions:
  status: ('A' for Active; 'I' for Inactive)
    1  A    between atoms: C_1  and  O_19
    2  A    between atoms: C_3  and  C_13
    3  A    between atoms: C_3  and  C_17
    4  A    between atoms: C_12  and  C_28
    5  A    between atoms: C_17  and  N_29
    6  A    between atoms: C_18  and  N_29
                            x       y       z     vdW  Elec       q    Type
                         _______ _______ _______ _____ _____    ______ ____

>  <TORSDO>
F 6

$$$$
=
 OpenBabel10252414503D

 34 38  0  0  1  0  0  0  0  0999 V2000
  185.7570  176.8300  136.3820 C   0  0  1  0  0  3  0  0  0  0  0  0
  187.6010  178.6440  136.2680 C   0  0  1  0  0  3  0  0  0  0  0  0
  186.3210  178.1560  138.4390 C   0  0  0  0  0  0  0  0  0  0  0  0
  186.4920  178.5970  141.4610 C   0  0  0  0  0  3  0  0  0  0  0  0
  187.7090  178.2290  134.9520 F   0  0  0  0  0  0  0  0  0  0  0  0
  188.7070  178.8040  138.4580 C   0  0  0  0  0  2  0  0  0  0  0  0
  186.2910  178.1720  136.9240 C   0  0  2  0  0  3  0  0  0  0  0  0
  187.4930  178.2150  140.6490 C   0  0  0  0  0  0  0  0  0  0  0  0
  185.0750  177.6380  139.1050 C   0  0  1  0  0  3  0  0  0  0  0  0
  184.8120  176.1520  137.3970 C   0  0  0  0  0  2  0  0  0  0  0  0
  188.8130  178.2020  137.0650 C   0  0  0  0  0  2  0  0  0  0  0  0
  185.1590  179.0990  141.0680 C   0  0  0  0  0  3  0  0  0  0  0  0
  184.4850  178.7210  139.9740 C   0  0  0  0  0  0  0  0  0  0  0  0
  187.4490  178.3610  139.1580 C   0  0  0  0  0  0  0  0  0  0  0  0
  184.1430  177.1190  138.1740 O   0  0  0  0  0  0  0  0  0  0  0  0
  180.8010  179.6410  139.8550 C   0  0  0  0  0  0  0  0  0  0  0  0
  180.8110  180.7060  138.9520 C   0  0  0  0  0  3  0  0  0  0  0  0
  183.2160  179.4180  139.6370 C   0  0  0  0  0  0  0  0  0  0  0  0
  182.0160  181.1280  138.3840 C   0  0  0  0  0  3  0  0  0  0  0  0
  181.9960  178.9990  140.1920 C   0  0  0  0  0  3  0  0  0  0  0  0
  183.2110  180.4850  138.7220 C   0  0  0  0  0  3  0  0  0  0  0  0
  179.6330  179.2280  140.4030 F   0  0  0  0  0  0  0  0  0  0  0  0
  184.5440  175.8060  134.8340 C   0  0  0  0  0  1  0  0  0  0  0  0
  185.0700  177.0520  135.1860 O   0  0  0  0  0  0  0  0  0  0  0  0
  188.6730  177.7230  141.2940 N   0  0  0  0  0  2  0  0  0  0  0  0
  188.6770  177.0560  142.5860 C   0  0  0  0  0  2  0  0  0  0  0  0
  190.0260  177.2450  143.2510 C   0  0  0  0  0  2  0  0  0  0  0  0
  192.0610  177.9550  145.1200 O   0  0  0  0  0  1  0  0  0  0  0  0
  189.9560  176.8320  144.7140 C   0  0  1  0  0  3  0  0  0  0  0  0
  191.3360  176.7930  145.3990 C   0  0  2  0  0  3  0  0  0  0  0  0
  189.8640  176.3930  147.3070 O   0  0  0  0  0  0  0  0  0  0  0  0
  189.1380  177.5570  146.9960 C   0  0  0  0  0  2  0  0  0  0  0  0
  188.9630  177.7100  145.4780 C   0  0  0  0  0  2  0  0  0  0  0  0
  191.1960  176.6470  146.9240 C   0  0  0  0  0  2  0  0  0  0  0  0
  1 24  1  6  0  0  0
  1  7  1  0  0  0  0
  1 10  1  0  0  0  0
  2  5  1  6  0  0  0
  2  7  1  0  0  0  0
  2 11  1  0  0  0  0
  3  9  1  0  0  0  0
  3 14  2  0  0  0  0
  6 14  1  0  0  0  0
  7  3  1  1  0  0  0
  8 25  1  0  0  0  0
  8  4  2  0  0  0  0
  9 15  1  6  0  0  0
  9 13  1  0  0  0  0
 10 15  1  0  0  0  0
 11  6  1  0  0  0  0
 12  4  1  0  0  0  0
 13 12  2  0  0  0  0
 14  8  1  0  0  0  0
 16 20  1  0  0  0  0
 16 22  1  0  0  0  0
 17 16  2  0  0  0  0
 18 13  1  0  0  0  0
 18 20  2  0  0  0  0
 19 21  2  0  0  0  0
 19 17  1  0  0  0  0
 21 18  1  0  0  0  0
 23 24  1  0  0  0  0
 25 26  1  0  0  0  0
 26 27  1  0  0  0  0
 29 27  1  6  0  0  0
 29 30  1  0  0  0  0
 29 33  1  0  0  0  0
 30 28  1  1  0  0  0
 30 34  1  0  0  0  0
 32 31  1  0  0  0  0
 33 32  1  0  0  0  0
 34 31  1  0  0  0  0
M  END
>  <MODEL>
5

>  <REMARK>
 VINA RESULT:      -6.9      3.972      9.829
  Name = 
  6 active torsions:
  status: ('A' for Active; 'I' for Inactive)
    1  A    between atoms: C_1  and  O_19
    2  A    between atoms: C_3  and  C_13
    3  A    between atoms: C_3  and  C_17
    4  A    between atoms: C_12  and  C_28
    5  A    between atoms: C_17  and  N_29
    6  A    between atoms: C_18  and  N_29
                            x       y       z     vdW  Elec       q    Type
                         _______ _______ _______ _____ _____    ______ ____

>  <TORSDO>
F 6

$$$$
=
 OpenBabel10252414503D

 34 38  0  0  1  0  0  0  0  0999 V2000
  185.8430  179.1140  145.5900 C   0  0  1  0  0  3  0  0  0  0  0  0
  186.8640  176.7900  145.0790 C   0  0  1  0  0  3  0  0  0  0  0  0
  185.9110  178.2830  143.2200 C   0  0  0  0  0  0  0  0  0  0  0  0
  185.9690  178.6450  140.1850 C   0  0  0  0  0  3  0  0  0  0  0  0
  187.0910  176.7630  146.4440 F   0  0  0  0  0  0  0  0  0  0  0  0
  187.8760  176.8320  142.8380 C   0  0  0  0  0  2  0  0  0  0  0  0
  185.8430  177.8700  144.6770 C   0  0  2  0  0  3  0  0  0  0  0  0
  187.0220  178.3960  140.9820 C   0  0  0  0  0  0  0  0  0  0  0  0
  184.9660  179.3820  142.8170 C   0  0  1  0  0  3  0  0  0  0  0  0
  185.2460  180.3390  144.8670 C   0  0  0  0  0  2  0  0  0  0  0  0
  188.1710  176.9520  144.3260 C   0  0  0  0  0  2  0  0  0  0  0  0
  184.5370  178.5840  140.5420 C   0  0  0  0  0  3  0  0  0  0  0  0
  184.0320  178.8710  141.7490 C   0  0  0  0  0  0  0  0  0  0  0  0
  186.8930  177.8790  142.3830 C   0  0  0  0  0  0  0  0  0  0  0  0
  184.2790  179.9350  143.9230 O   0  0  0  0  0  0  0  0  0  0  0  0
  180.6680  178.6180  143.4960 C   0  0  0  0  0  0  0  0  0  0  0  0
  179.8630  178.1110  142.4740 C   0  0  0  0  0  3  0  0  0  0  0  0
  182.5870  178.6280  141.9970 C   0  0  0  0  0  0  0  0  0  0  0  0
  180.4120  177.8550  141.2150 C   0  0  0  0  0  3  0  0  0  0  0  0
  182.0220  178.8710  143.2590 C   0  0  0  0  0  3  0  0  0  0  0  0
  181.7670  178.1090  140.9790 C   0  0  0  0  0  3  0  0  0  0  0  0
  180.1370  178.8630  144.7190 F   0  0  0  0  0  0  0  0  0  0  0  0
  185.9400  179.1750  147.8040 C   0  0  0  0  0  1  0  0  0  0  0  0
  185.0970  178.8450  146.7400 O   0  0  0  0  0  0  0  0  0  0  0  0
  188.3150  178.5740  140.3910 N   0  0  0  0  0  2  0  0  0  0  0  0
  188.9910  177.5640  139.5940 C   0  0  0  0  0  2  0  0  0  0  0  0
  189.3640  178.1480  138.2450 C   0  0  0  0  0  2  0  0  0  0  0  0
  187.2050  179.3800  136.8450 O   0  0  0  0  0  1  0  0  0  0  0  0
  188.6110  177.4320  137.1330 C   0  0  1  0  0  3  0  0  0  0  0  0
  187.1890  177.9840  136.9110 C   0  0  2  0  0  3  0  0  0  0  0  0
  187.3710  176.4170  135.0460 O   0  0  0  0  0  0  0  0  0  0  0  0
  188.5630  177.0380  134.6330 C   0  0  0  0  0  2  0  0  0  0  0  0
  189.4310  177.4250  135.8410 C   0  0  0  0  0  2  0  0  0  0  0  0
  186.5750  177.4310  135.6140 C   0  0  0  0  0  2  0  0  0  0  0  0
  1 24  1  1  0  0  0
  2  5  1  1  0  0  0
  4 12  1  0  0  0  0
  4  8  2  0  0  0  0
  6 11  1  0  0  0  0
  7  3  1  6  0  0  0
  7  2  1  0  0  0  0
  7  1  1  0  0  0  0
  8 14  1  0  0  0  0
  9 13  1  6  0  0  0
  9  3  1  0  0  0  0
  9 15  1  0  0  0  0
 10  1  1  0  0  0  0
 11  2  1  0  0  0  0
 12 13  2  0  0  0  0
 13 18  1  0  0  0  0
 14  6  1  0  0  0  0
 14  3  2  0  0  0  0
 15 10  1  0  0  0  0
 16 22  1  0  0  0  0
 17 16  2  0  0  0  0
 18 20  2  0  0  0  0
 19 17  1  0  0  0  0
 20 16  1  0  0  0  0
 21 19  2  0  0  0  0
 21 18  1  0  0  0  0
 24 23  1  0  0  0  0
 25  8  1  0  0  0  0
 26 25  1  0  0  0  0
 27 26  1  0  0  0  0
 29 27  1  1  0  0  0
 30 28  1  6  0  0  0
 30 29  1  0  0  0  0
 31 34  1  0  0  0  0
 32 31  1  0  0  0  0
 32 33  1  0  0  0  0
 33 29  1  0  0  0  0
 34 30  1  0  0  0  0
M  END
>  <MODEL>
6

>  <REMARK>
 VINA RESULT:      -6.8      4.001      8.427
  Name = 
  6 active torsions:
  status: ('A' for Active; 'I' for Inactive)
    1  A    between atoms: C_1  and  O_19
    2  A    between atoms: C_3  and  C_13
    3  A    between atoms: C_3  and  C_17
    4  A    between atoms: C_12  and  C_28
    5  A    between atoms: C_17  and  N_29
    6  A    between atoms: C_18  and  N_29
                            x       y       z     vdW  Elec       q    Type
                         _______ _______ _______ _____ _____    ______ ____

>  <TORSDO>
F 6

$$$$
=
 OpenBabel10252414503D

 34 38  0  0  1  0  0  0  0  0999 V2000
  187.5540  179.0000  137.3490 C   0  0  1  0  0  3  0  0  0  0  0  0
  185.9740  177.9180  139.0920 C   0  0  1  0  0  3  0  0  0  0  0  0
  188.5280  177.7930  139.3240 C   0  0  0  0  0  0  0  0  0  0  0  0
  190.7130  177.2160  141.3850 C   0  0  0  0  0  3  0  0  0  0  0  0
  184.9800  178.4390  138.2840 F   0  0  0  0  0  0  0  0  0  0  0  0
  187.0550  177.9780  141.3010 C   0  0  0  0  0  2  0  0  0  0  0  0
  187.3410  177.8770  138.3860 C   0  0  2  0  0  3  0  0  0  0  0  0
  189.6140  177.9680  141.5720 C   0  0  0  0  0  0  0  0  0  0  0  0
  189.8790  177.8150  138.6600 C   0  0  1  0  0  3  0  0  0  0  0  0
  189.0550  179.2480  137.0910 C   0  0  0  0  0  2  0  0  0  0  0  0
  186.0480  178.6810  140.4020 C   0  0  0  0  0  2  0  0  0  0  0  0
  191.0110  176.3280  140.2420 C   0  0  0  0  0  3  0  0  0  0  0  0
  190.6140  176.5370  138.9810 C   0  0  0  0  0  0  0  0  0  0  0  0
  188.4200  177.9240  140.6660 C   0  0  0  0  0  0  0  0  0  0  0  0
  189.7910  178.0590  137.2690 O   0  0  0  0  0  0  0  0  0  0  0  0
  190.0570  173.7550  136.4540 C   0  0  0  0  0  0  0  0  0  0  0  0
  191.3690  173.4510  136.0850 C   0  0  0  0  0  3  0  0  0  0  0  0
  190.8710  175.4830  137.9650 C   0  0  0  0  0  0  0  0  0  0  0  0
  192.4350  174.1520  136.6540 C   0  0  0  0  0  3  0  0  0  0  0  0
  189.8110  174.7630  137.3910 C   0  0  0  0  0  3  0  0  0  0  0  0
  192.1870  175.1600  137.5910 C   0  0  0  0  0  3  0  0  0  0  0  0
  189.0230  173.0740  135.9060 F   0  0  0  0  0  0  0  0  0  0  0  0
  187.1650  177.2790  136.0050 C   0  0  0  0  0  1  0  0  0  0  0  0
  186.9300  178.6490  136.1490 O   0  0  0  0  0  0  0  0  0  0  0  0
  189.5980  178.7770  142.7530 N   0  0  0  0  0  2  0  0  0  0  0  0
  190.3380  178.4650  143.9640 C   0  0  0  0  0  2  0  0  0  0  0  0
  189.6520  177.3300  144.6990 C   0  0  0  0  0  2  0  0  0  0  0  0
  186.8650  176.7520  144.8900 O   0  0  0  0  0  1  0  0  0  0  0  0
  188.7910  177.8770  145.8290 C   0  0  1  0  0  3  0  0  0  0  0  0
  187.2940  177.9500  145.4680 C   0  0  2  0  0  3  0  0  0  0  0  0
  187.2280  178.5540  147.8350 O   0  0  0  0  0  0  0  0  0  0  0  0
  187.9350  177.3820  148.1580 C   0  0  0  0  0  2  0  0  0  0  0  0
  189.0310  177.0940  147.1210 C   0  0  0  0  0  2  0  0  0  0  0  0
  186.4370  178.2380  146.7120 C   0  0  0  0  0  2  0  0  0  0  0  0
  1 24  1  6  0  0  0
  1  7  1  0  0  0  0
  2  5  1  6  0  0  0
  2 11  1  0  0  0  0
  3 14  2  0  0  0  0
  4  8  2  0  0  0  0
  7  2  1  0  0  0  0
  7  3  1  1  0  0  0
  8 25  1  0  0  0  0
  9 15  1  6  0  0  0
  9 13  1  0  0  0  0
  9  3  1  0  0  0  0
 10 15  1  0  0  0  0
 10  1  1  0  0  0  0
 11  6  1  0  0  0  0
 12  4  1  0  0  0  0
 13 12  2  0  0  0  0
 14  6  1  0  0  0  0
 14  8  1  0  0  0  0
 16 20  1  0  0  0  0
 17 16  2  0  0  0  0
 17 19  1  0  0  0  0
 18 13  1  0  0  0  0
 19 21  2  0  0  0  0
 20 18  2  0  0  0  0
 21 18  1  0  0  0  0
 22 16  1  0  0  0  0
 23 24  1  0  0  0  0
 25 26  1  0  0  0  0
 26 27  1  0  0  0  0
 29 27  1  6  0  0  0
 29 33  1  0  0  0  0
 30 28  1  1  0  0  0
 30 29  1  0  0  0  0
 30 34  1  0  0  0  0
 31 32  1  0  0  0  0
 33 32  1  0  0  0  0
 34 31  1  0  0  0  0
M  END
>  <MODEL>
7

>  <REMARK>
 VINA RESULT:      -6.8      4.174      8.109
  Name = 
  6 active torsions:
  status: ('A' for Active; 'I' for Inactive)
    1  A    between atoms: C_1  and  O_19
    2  A    between atoms: C_3  and  C_13
    3  A    between atoms: C_3  and  C_17
    4  A    between atoms: C_12  and  C_28
    5  A    between atoms: C_17  and  N_29
    6  A    between atoms: C_18  and  N_29
                            x       y       z     vdW  Elec       q    Type
                         _______ _______ _______ _____ _____    ______ ____

>  <TORSDO>
F 6

$$$$
=
 OpenBabel10252414503D

 34 38  0  0  1  0  0  0  0  0999 V2000
  185.9460  179.1030  145.7720 C   0  0  1  0  0  3  0  0  0  0  0  0
  186.9520  176.7890  145.1890 C   0  0  1  0  0  3  0  0  0  0  0  0
  185.8960  178.2920  143.3950 C   0  0  0  0  0  0  0  0  0  0  0  0
  185.7950  178.6800  140.3630 C   0  0  0  0  0  3  0  0  0  0  0  0
  187.2490  176.7530  146.5390 F   0  0  0  0  0  0  0  0  0  0  0  0
  187.8470  176.8560  142.8990 C   0  0  0  0  0  2  0  0  0  0  0  0
  185.9060  177.8670  144.8500 C   0  0  2  0  0  3  0  0  0  0  0  0
  186.8900  178.4300  141.1030 C   0  0  0  0  0  0  0  0  0  0  0  0
  184.9260  179.3890  143.0500 C   0  0  1  0  0  3  0  0  0  0  0  0
  185.3050  180.3300  145.0910 C   0  0  0  0  0  2  0  0  0  0  0  0
  188.2170  176.9660  144.3710 C   0  0  0  0  0  2  0  0  0  0  0  0
  184.3840  178.6070  140.7940 C   0  0  0  0  0  3  0  0  0  0  0  0
  183.9400  178.8820  142.0270 C   0  0  0  0  0  0  0  0  0  0  0  0
  186.8360  177.9010  142.5040 C   0  0  0  0  0  0  0  0  0  0  0  0
  184.2930  179.9290  144.1950 O   0  0  0  0  0  0  0  0  0  0  0  0
  180.2470  178.0820  141.6370 C   0  0  0  0  0  0  0  0  0  0  0  0
  179.7960  178.2050  142.9530 C   0  0  0  0  0  3  0  0  0  0  0  0
  182.5110  178.6280  142.3470 C   0  0  0  0  0  0  0  0  0  0  0  0
  180.6940  178.5450  143.9680 C   0  0  0  0  0  3  0  0  0  0  0  0
  181.5950  178.2950  141.3360 C   0  0  0  0  0  3  0  0  0  0  0  0
  182.0420  178.7580  143.6660 C   0  0  0  0  0  3  0  0  0  0  0  0
  179.3770  177.7560  140.6510 F   0  0  0  0  0  0  0  0  0  0  0  0
  186.0870  179.3050  147.9750 C   0  0  0  0  0  1  0  0  0  0  0  0
  185.2620  178.8210  146.9560 O   0  0  0  0  0  0  0  0  0  0  0  0
  188.1490  178.6200  140.4480 N   0  0  0  0  0  2  0  0  0  0  0  0
  188.6370  177.7840  139.3630 C   0  0  0  0  0  2  0  0  0  0  0  0
  189.0560  178.6590  138.1980 C   0  0  0  0  0  2  0  0  0  0  0  0
  189.9780  176.9010  136.1490 O   0  0  0  0  0  1  0  0  0  0  0  0
  188.2150  178.3420  136.9700 C   0  0  1  0  0  3  0  0  0  0  0  0
  189.0560  177.8780  135.7640 C   0  0  2  0  0  3  0  0  0  0  0  0
  186.7930  177.5180  134.9150 O   0  0  0  0  0  0  0  0  0  0  0  0
  186.4870  176.7390  136.0460 C   0  0  0  0  0  2  0  0  0  0  0  0
  187.1090  177.3420  137.3150 C   0  0  0  0  0  2  0  0  0  0  0  0
  188.1610  177.3060  134.6500 C   0  0  0  0  0  2  0  0  0  0  0  0
  1 24  1  1  0  0  0
  2  5  1  1  0  0  0
  4 12  1  0  0  0  0
  4  8  2  0  0  0  0
  6 11  1  0  0  0  0
  7  3  1  6  0  0  0
  7  2  1  0  0  0  0
  7  1  1  0  0  0  0
  8 14  1  0  0  0  0
  9 13  1  6  0  0  0
  9  3  1  0  0  0  0
  9 15  1  0  0  0  0
 10  1  1  0  0  0  0
 11  2  1  0  0  0  0
 12 13  2  0  0  0  0
 13 18  1  0  0  0  0
 14  6  1  0  0  0  0
 14  3  2  0  0  0  0
 15 10  1  0  0  0  0
 16 17  1  0  0  0  0
 17 19  2  0  0  0  0
 18 21  2  0  0  0  0
 20 16  2  0  0  0  0
 20 18  1  0  0  0  0
 21 19  1  0  0  0  0
 22 16  1  0  0  0  0
 24 23  1  0  0  0  0
 25  8  1  0  0  0  0
 26 25  1  0  0  0  0
 27 26  1  0  0  0  0
 29 33  1  0  0  0  0
 29 27  1  1  0  0  0
 30 28  1  1  0  0  0
 30 29  1  0  0  0  0
 31 32  1  0  0  0  0
 32 33  1  0  0  0  0
 34 31  1  0  0  0  0
 34 30  1  0  0  0  0
M  END
>  <MODEL>
8

>  <REMARK>
 VINA RESULT:      -6.8      3.993      8.634
  Name = 
  6 active torsions:
  status: ('A' for Active; 'I' for Inactive)
    1  A    between atoms: C_1  and  O_19
    2  A    between atoms: C_3  and  C_13
    3  A    between atoms: C_3  and  C_17
    4  A    between atoms: C_12  and  C_28
    5  A    between atoms: C_17  and  N_29
    6  A    between atoms: C_18  and  N_29
                            x       y       z     vdW  Elec       q    Type
                         _______ _______ _______ _____ _____    ______ ____

>  <TORSDO>
F 6

$$$$
=
 OpenBabel10252414503D

 34 38  0  0  1  0  0  0  0  0999 V2000
  185.9610  179.1050  145.7270 C   0  0  1  0  0  3  0  0  0  0  0  0
  186.9620  176.7930  145.1290 C   0  0  1  0  0  3  0  0  0  0  0  0
  185.8820  178.2960  143.3500 C   0  0  0  0  0  0  0  0  0  0  0  0
  185.7410  178.6860  140.3200 C   0  0  0  0  0  3  0  0  0  0  0  0
  187.2770  176.7550  146.4750 F   0  0  0  0  0  0  0  0  0  0  0  0
  187.8280  176.8620  142.8280 C   0  0  0  0  0  2  0  0  0  0  0  0
  185.9110  177.8700  144.8040 C   0  0  2  0  0  3  0  0  0  0  0  0
  186.8460  178.4370  141.0450 C   0  0  0  0  0  0  0  0  0  0  0  0
  184.9060  179.3930  143.0180 C   0  0  1  0  0  3  0  0  0  0  0  0
  185.3110  180.3320  145.0550 C   0  0  0  0  0  2  0  0  0  0  0  0
  188.2170  176.9710  144.2950 C   0  0  0  0  0  2  0  0  0  0  0  0
  184.3360  178.6120  140.7690 C   0  0  0  0  0  3  0  0  0  0  0  0
  183.9080  178.8850  142.0080 C   0  0  0  0  0  0  0  0  0  0  0  0
  186.8100  177.9070  142.4470 C   0  0  0  0  0  0  0  0  0  0  0  0
  184.2880  179.9310  144.1720 O   0  0  0  0  0  0  0  0  0  0  0  0
  180.2170  178.0470  141.6700 C   0  0  0  0  0  0  0  0  0  0  0  0
  179.7770  178.2040  142.9850 C   0  0  0  0  0  3  0  0  0  0  0  0
  182.4830  178.6300  142.3460 C   0  0  0  0  0  0  0  0  0  0  0  0
  180.6800  178.5780  143.9840 C   0  0  0  0  0  3  0  0  0  0  0  0
  181.5620  178.2630  141.3520 C   0  0  0  0  0  3  0  0  0  0  0  0
  182.0240  178.7930  143.6650 C   0  0  0  0  0  3  0  0  0  0  0  0
  179.3430  177.6880  140.6990 F   0  0  0  0  0  0  0  0  0  0  0  0
  186.0630  179.4230  147.9190 C   0  0  0  0  0  1  0  0  0  0  0  0
  185.2930  178.8220  146.9200 O   0  0  0  0  0  0  0  0  0  0  0  0
  188.0960  178.6290  140.3740 N   0  0  0  0  0  2  0  0  0  0  0  0
  188.3460  178.2470  138.9940 C   0  0  0  0  0  2  0  0  0  0  0  0
  189.8170  177.9220  138.8160 C   0  0  0  0  0  2  0  0  0  0  0  0
  189.4000  176.9860  136.1540 O   0  0  0  0  0  1  0  0  0  0  0  0
  189.9920  176.4580  138.4400 C   0  0  1  0  0  3  0  0  0  0  0  0
  189.2000  176.0580  137.1800 C   0  0  2  0  0  3  0  0  0  0  0  0
  190.4770  174.0150  137.5910 O   0  0  0  0  0  0  0  0  0  0  0  0
  191.6710  174.7590  137.6040 C   0  0  0  0  0  2  0  0  0  0  0  0
  191.4760  176.1030  138.3210 C   0  0  0  0  0  2  0  0  0  0  0  0
  189.6200  174.6650  136.6800 C   0  0  0  0  0  2  0  0  0  0  0  0
  1 24  1  1  0  0  0
  2  5  1  1  0  0  0
  4 12  1  0  0  0  0
  4  8  2  0  0  0  0
  6 11  1  0  0  0  0
  7  3  1  6  0  0  0
  7  2  1  0  0  0  0
  7  1  1  0  0  0  0
  8 14  1  0  0  0  0
  9 13  1  6  0  0  0
  9  3  1  0  0  0  0
  9 15  1  0  0  0  0
 10  1  1  0  0  0  0
 11  2  1  0  0  0  0
 12 13  2  0  0  0  0
 13 18  1  0  0  0  0
 14  6  1  0  0  0  0
 14  3  2  0  0  0  0
 15 10  1  0  0  0  0
 16 17  1  0  0  0  0
 17 19  2  0  0  0  0
 18 21  2  0  0  0  0
 20 16  2  0  0  0  0
 20 18  1  0  0  0  0
 21 19  1  0  0  0  0
 22 16  1  0  0  0  0
 24 23  1  0  0  0  0
 25  8  1  0  0  0  0
 26 25  1  0  0  0  0
 27 26  1  0  0  0  0
 29 27  1  6  0  0  0
 30 28  1  6  0  0  0
 30 29  1  0  0  0  0
 31 32  1  0  0  0  0
 32 33  1  0  0  0  0
 33 29  1  0  0  0  0
 34 30  1  0  0  0  0
 34 31  1  0  0  0  0
M  END
>  <MODEL>
9

>  <REMARK>
 VINA RESULT:      -6.7      3.909      8.832
  Name = 
  6 active torsions:
  status: ('A' for Active; 'I' for Inactive)
    1  A    between atoms: C_1  and  O_19
    2  A    between atoms: C_3  and  C_13
    3  A    between atoms: C_3  and  C_17
    4  A    between atoms: C_12  and  C_28
    5  A    between atoms: C_17  and  N_29
    6  A    between atoms: C_18  and  N_29
                            x       y       z     vdW  Elec       q    Type
                         _______ _______ _______ _____ _____    ______ ____

>  <TORSDO>
F 6

$$$$
