=
 OpenBabel10262422483D

 37 41  0  0  1  0  0  0  0  0999 V2000
  182.4030  177.3070  138.9870 C   0  0  0  0  0  2  0  0  0  0  0  0
  183.6980  178.7990  142.8560 C   0  0  0  0  0  0  0  0  0  0  0  0
  181.8220  178.4830  141.2350 C   0  0  2  0  0  3  0  0  0  0  0  0
  185.1820  178.9490  142.9310 C   0  0  2  0  0  3  0  0  0  0  0  0
  183.2860  178.4770  141.6320 C   0  0  0  0  0  0  0  0  0  0  0  0
  180.9090  178.3440  142.4550 C   0  0  0  0  0  2  0  0  0  0  0  0
  184.4240  178.4360  140.6640 C   0  0  1  0  0  3  0  0  0  0  0  0
  184.6550  180.1870  139.0690 O   0  0  0  0  0  0  0  0  0  0  0  0
  181.3450  179.3100  143.5530 C   0  0  0  0  0  2  0  0  0  0  0  0
  184.0720  179.1610  139.3850 C   0  0  0  0  0  0  0  0  0  0  0  0
  182.7620  178.9720  144.0230 C   0  0  0  0  0  2  0  0  0  0  0  0
  185.5880  179.0570  141.4470 C   0  0  0  0  0  2  0  0  0  0  0  0
  181.4580  177.4170  140.1930 C   0  0  0  0  0  2  0  0  0  0  0  0
  182.9590  178.6500  138.5030 C   0  0  0  0  0  2  0  0  0  0  0  0
  187.3360  178.9430  140.0590 O   0  0  0  0  0  0  0  0  0  0  0  0
  187.8260  178.5140  139.9450 N   0  0  0  0  0  2  0  0  0  0  0  0
  186.9100  178.4390  141.1190 C   0  0  0  0  0  1  0  0  0  0  0  0
  189.0050  177.4640  139.7490 C   0  0  1  0  0  3  0  0  0  0  0  0
  190.2040  176.2820  138.0570 O   0  0  0  0  0  0  0  0  0  0  0  0
  188.7580  176.3510  136.2890 O   0  0  0  0  0  1  0  0  0  0  0  0
  189.3940  177.4100  138.2850 C   0  0  1  0  0  3  0  0  0  0  0  0
  188.8550  176.1790  137.6690 C   0  0  2  0  0  3  0  0  0  0  0  0
  190.2160  177.8620  140.5800 C   0  0  0  0  0  2  0  0  0  0  0  0
  190.5620  176.7680  141.5730 C   0  0  0  0  0  1  0  0  0  0  0  0
  185.8790  177.8220  143.7400 C   0  0  2  0  0  3  0  0  0  0  0  0
  184.7800  178.2400  146.0310 C   0  0  0  0  0  2  0  0  0  0  0  0
  186.0260  178.0620  145.2690 C   0  0  2  0  0  0  0  0  0  0  0  0
  185.7390  179.8040  145.8120 S   0  0  0  0  0  0  0  0  0  0  0  0
  187.0400  177.1930  147.5010 C   0  0  0  0  0  2  0  0  0  0  0  0
  187.2190  177.4000  145.9850 C   0  0  0  0  0  3  0  0  0  0  0  0
  189.7460  177.4500  146.2960 C   0  0  0  0  0  2  0  0  0  0  0  0
  188.5520  178.0210  145.5460 C   0  0  0  0  0  2  0  0  0  0  0  0
  189.0830  177.9920  148.6780 C   0  0  0  0  0  2  0  0  0  0  0  0
  190.0300  178.3050  147.5240 C   0  0  0  0  0  2  0  0  0  0  0  0
  187.6330  178.3150  148.3420 C   0  0  0  0  0  2  0  0  0  0  0  0
  187.1730  177.4010  143.0450 C   0  0  0  0  0  2  0  0  0  0  0  0
  187.5280  175.9720  143.4100 C   0  0  0  0  0  1  0  0  0  0  0  0
  1 13  1  0  0  0  0
  2  4  1  0  0  0  0
  2 11  1  0  0  0  0
  3 13  1  6  0  0  0
  3  5  1  0  0  0  0
  3  6  1  0  0  0  0
  4 25  1  6  0  0  0
  5  2  2  0  0  0  0
  6  9  1  0  0  0  0
  7 12  1  1  0  0  0
  7  5  1  0  0  0  0
  8 10  2  0  0  0  0
  9 11  1  0  0  0  0
 10  7  1  0  0  0  0
 12  4  1  0  0  0  0
 14  1  1  0  0  0  0
 14 10  1  0  0  0  0
 15 17  1  0  0  0  0
 16 15  1  0  0  0  0
 18 16  1  0  0  0  0
 18 23  1  1  0  0  0
 19 21  1  0  0  0  0
 21 18  1  1  0  0  0
 22 20  1  6  0  0  0
 22 19  1  0  0  0  0
 22 21  1  0  0  0  0
 23 24  1  0  0  0  0
 25 36  1  6  0  0  0
 27 25  1  6  0  0  0
 27 28  1  0  0  0  0
 27 30  1  0  0  0  0
 27 26  1  0  0  0  0
 28 26  1  0  0  0  0
 29 35  1  0  0  0  0
 30 29  1  0  0  0  0
 31 34  1  0  0  0  0
 32 30  1  0  0  0  0
 32 31  1  0  0  0  0
 34 33  1  0  0  0  0
 35 33  1  0  0  0  0
 36 37  1  0  0  0  0
M  END
>  <MODEL>
1

>  <REMARK>
 VINA RESULT:      -8.5      0.000      0.000
  Name = 
  8 active torsions:
  status: ('A' for Active; 'I' for Inactive)
    1  A    between atoms: C_6  and  C_31
    2  A    between atoms: C_7  and  C_14
    3  A    between atoms: C_10  and  C_14
    4  A    between atoms: C_11  and  C_26
    5  A    between atoms: C_14  and  C_31
    6  A    between atoms: C_17  and  C_26
    7  A    between atoms: C_26  and  N_33
    8  A    between atoms: C_29  and  C_36
                            x       y       z     vdW  Elec       q    Type
                         _______ _______ _______ _____ _____    ______ ____

>  <TORSDO>
F 8

$$$$
=
 OpenBabel10262422483D

 37 41  0  0  1  0  0  0  0  0999 V2000
  182.7990  177.3550  140.1800 C   0  0  0  0  0  2  0  0  0  0  0  0
  185.6540  178.7490  143.1420 C   0  0  0  0  0  0  0  0  0  0  0  0
  183.2730  178.6450  142.3890 C   0  0  2  0  0  3  0  0  0  0  0  0
  187.0570  178.7050  142.6330 C   0  0  2  0  0  3  0  0  0  0  0  0
  184.7650  178.4570  142.1950 C   0  0  0  0  0  0  0  0  0  0  0  0
  182.8960  178.6530  143.8730 C   0  0  0  0  0  2  0  0  0  0  0  0
  185.4250  178.2470  140.8700 C   0  0  1  0  0  3  0  0  0  0  0  0
  185.2120  179.9170  139.1900 O   0  0  0  0  0  0  0  0  0  0  0  0
  183.8310  179.5770  144.6490 C   0  0  0  0  0  2  0  0  0  0  0  0
  184.6870  178.9830  139.7760 C   0  0  0  0  0  0  0  0  0  0  0  0
  185.2710  179.0680  144.5630 C   0  0  0  0  0  2  0  0  0  0  0  0
  186.8630  178.7260  141.1030 C   0  0  0  0  0  2  0  0  0  0  0  0
  182.4160  177.6140  141.6450 C   0  0  0  0  0  2  0  0  0  0  0  0
  183.2690  178.6030  139.4260 C   0  0  0  0  0  2  0  0  0  0  0  0
  188.2070  178.5810  139.3220 O   0  0  0  0  0  0  0  0  0  0  0  0
  188.5280  178.0970  139.0070 N   0  0  0  0  0  2  0  0  0  0  0  0
  187.8760  177.9340  140.3370 C   0  0  0  0  0  1  0  0  0  0  0  0
  189.3140  176.8960  138.3210 C   0  0  1  0  0  3  0  0  0  0  0  0
  189.3320  175.5140  136.3750 O   0  0  0  0  0  0  0  0  0  0  0  0
  187.1420  175.5500  135.7230 O   0  0  0  0  0  1  0  0  0  0  0  0
  188.8080  176.7080  136.9030 C   0  0  1  0  0  3  0  0  0  0  0  0
  187.9980  175.4740  136.8220 C   0  0  2  0  0  3  0  0  0  0  0  0
  190.8080  177.1850  138.2900 C   0  0  0  0  0  2  0  0  0  0  0  0
  191.3960  177.0910  139.6860 C   0  0  0  0  0  1  0  0  0  0  0  0
  187.8830  177.5140  143.1900 C   0  0  2  0  0  3  0  0  0  0  0  0
  189.6180  179.2230  144.0260 C   0  0  0  0  0  2  0  0  0  0  0  0
  189.0430  177.8760  144.1600 C   0  0  2  0  0  0  0  0  0  0  0  0
  190.7220  177.8830  143.3930 S   0  0  0  0  0  0  0  0  0  0  0  0
  187.6500  177.2110  146.2540 C   0  0  0  0  0  2  0  0  0  0  0  0
  189.0270  177.2370  145.5620 C   0  0  0  0  0  3  0  0  0  0  0  0
  190.1650  177.1900  147.8390 C   0  0  0  0  0  2  0  0  0  0  0  0
  190.1980  177.7350  146.4190 C   0  0  0  0  0  2  0  0  0  0  0  0
  187.9000  178.0300  148.5920 C   0  0  0  0  0  2  0  0  0  0  0  0
  189.4130  178.1620  148.7380 C   0  0  0  0  0  2  0  0  0  0  0  0
  187.4190  178.3880  147.1920 C   0  0  0  0  0  2  0  0  0  0  0  0
  188.2870  176.5780  142.0520 C   0  0  0  0  0  2  0  0  0  0  0  0
  189.2620  175.5290  142.5530 C   0  0  0  0  0  1  0  0  0  0  0  0
  1 13  1  0  0  0  0
  2 11  1  0  0  0  0
  3 13  1  6  0  0  0
  3  6  1  0  0  0  0
  4  2  1  0  0  0  0
  4 25  1  6  0  0  0
  5  3  1  0  0  0  0
  5  2  2  0  0  0  0
  6  9  1  0  0  0  0
  7 12  1  1  0  0  0
  7  5  1  0  0  0  0
  8 10  2  0  0  0  0
 10  7  1  0  0  0  0
 11  9  1  0  0  0  0
 12  4  1  0  0  0  0
 14 10  1  0  0  0  0
 14  1  1  0  0  0  0
 15 17  1  0  0  0  0
 16 15  1  0  0  0  0
 18 23  1  6  0  0  0
 18 16  1  0  0  0  0
 19 22  1  0  0  0  0
 19 21  1  0  0  0  0
 21 18  1  1  0  0  0
 22 20  1  6  0  0  0
 22 21  1  0  0  0  0
 23 24  1  0  0  0  0
 25 36  1  6  0  0  0
 26 27  1  0  0  0  0
 27 25  1  6  0  0  0
 27 30  1  0  0  0  0
 28 26  1  0  0  0  0
 28 27  1  0  0  0  0
 29 35  1  0  0  0  0
 30 29  1  0  0  0  0
 30 32  1  0  0  0  0
 31 34  1  0  0  0  0
 32 31  1  0  0  0  0
 33 34  1  0  0  0  0
 35 33  1  0  0  0  0
 36 37  1  0  0  0  0
M  END
>  <MODEL>
2

>  <REMARK>
 VINA RESULT:      -8.3      1.508      2.168
  Name = 
  8 active torsions:
  status: ('A' for Active; 'I' for Inactive)
    1  A    between atoms: C_6  and  C_31
    2  A    between atoms: C_7  and  C_14
    3  A    between atoms: C_10  and  C_14
    4  A    between atoms: C_11  and  C_26
    5  A    between atoms: C_14  and  C_31
    6  A    between atoms: C_17  and  C_26
    7  A    between atoms: C_26  and  N_33
    8  A    between atoms: C_29  and  C_36
                            x       y       z     vdW  Elec       q    Type
                         _______ _______ _______ _____ _____    ______ ____

>  <TORSDO>
F 8

$$$$
=
 OpenBabel10262422483D

 37 41  0  0  1  0  0  0  0  0999 V2000
  185.4030  176.8780  137.3380 C   0  0  0  0  0  2  0  0  0  0  0  0
  186.8540  178.6020  141.0520 C   0  0  0  0  0  0  0  0  0  0  0  0
  184.9760  178.3830  139.4170 C   0  0  2  0  0  3  0  0  0  0  0  0
  188.3410  178.5360  141.1580 C   0  0  2  0  0  3  0  0  0  0  0  0
  186.4150  178.2050  139.8590 C   0  0  0  0  0  0  0  0  0  0  0  0
  184.0330  178.5270  140.6150 C   0  0  0  0  0  2  0  0  0  0  0  0
  187.5480  177.8790  138.9400 C   0  0  1  0  0  3  0  0  0  0  0  0
  188.0670  179.3760  137.1650 O   0  0  0  0  0  0  0  0  0  0  0  0
  184.5960  179.5390  141.6100 C   0  0  0  0  0  2  0  0  0  0  0  0
  187.3290  178.4940  137.5760 C   0  0  0  0  0  0  0  0  0  0  0  0
  185.9370  179.0500  142.1610 C   0  0  0  0  0  2  0  0  0  0  0  0
  188.7810  178.4060  139.6850 C   0  0  0  0  0  2  0  0  0  0  0  0
  184.4680  177.2690  138.4930 C   0  0  0  0  0  2  0  0  0  0  0  0
  186.1650  178.0560  136.7230 C   0  0  0  0  0  2  0  0  0  0  0  0
  190.3910  177.7140  138.2970 O   0  0  0  0  0  0  0  0  0  0  0  0
  190.8200  177.2120  138.2790 N   0  0  0  0  0  2  0  0  0  0  0  0
  189.9980  177.5620  139.4720 C   0  0  0  0  0  1  0  0  0  0  0  0
  191.8590  176.0080  138.3170 C   0  0  1  0  0  3  0  0  0  0  0  0
  191.6280  173.7520  137.5700 O   0  0  0  0  0  0  0  0  0  0  0  0
  189.8650  173.8890  136.1240 O   0  0  0  0  0  1  0  0  0  0  0  0
  191.6090  175.0900  137.1360 C   0  0  1  0  0  3  0  0  0  0  0  0
  190.3620  174.3260  137.3510 C   0  0  2  0  0  3  0  0  0  0  0  0
  193.2860  176.5320  138.2570 C   0  0  0  0  0  2  0  0  0  0  0  0
  193.8540  176.3700  136.8590 C   0  0  0  0  0  1  0  0  0  0  0  0
  188.8460  177.4190  142.1120 C   0  0  2  0  0  3  0  0  0  0  0  0
  189.8010  179.2960  143.5930 C   0  0  0  0  0  2  0  0  0  0  0  0
  189.3920  177.8870  143.4900 C   0  0  2  0  0  0  0  0  0  0  0  0
  191.2220  178.1160  143.5630 S   0  0  0  0  0  0  0  0  0  0  0  0
  187.2850  177.1280  144.8130 C   0  0  0  0  0  2  0  0  0  0  0  0
  188.8220  177.2090  144.7520 C   0  0  0  0  0  3  0  0  0  0  0  0
  188.9220  177.1290  147.2940 C   0  0  0  0  0  2  0  0  0  0  0  0
  189.5180  177.7140  146.0230 C   0  0  0  0  0  2  0  0  0  0  0  0
  186.5190  177.8880  147.0570 C   0  0  0  0  0  2  0  0  0  0  0  0
  187.8320  178.0550  147.8170 C   0  0  0  0  0  2  0  0  0  0  0  0
  186.6460  178.2720  145.5890 C   0  0  0  0  0  2  0  0  0  0  0  0
  189.7760  176.4680  141.3600 C   0  0  0  0  0  2  0  0  0  0  0  0
  190.5550  175.6090  142.3390 C   0  0  0  0  0  1  0  0  0  0  0  0
  1 13  1  0  0  0  0
  2  4  1  0  0  0  0
  2 11  1  0  0  0  0
  3 13  1  1  0  0  0
  3  5  1  0  0  0  0
  3  6  1  0  0  0  0
  4 25  1  1  0  0  0
  5  2  2  0  0  0  0
  6  9  1  0  0  0  0
  7 12  1  1  0  0  0
  7  5  1  0  0  0  0
  8 10  2  0  0  0  0
  9 11  1  0  0  0  0
 10  7  1  0  0  0  0
 12  4  1  0  0  0  0
 14  1  1  0  0  0  0
 14 10  1  0  0  0  0
 15 17  1  0  0  0  0
 16 15  1  0  0  0  0
 16 18  1  0  0  0  0
 18 23  1  6  0  0  0
 21 22  1  0  0  0  0
 21 19  1  0  0  0  0
 21 18  1  1  0  0  0
 22 20  1  6  0  0  0
 22 19  1  0  0  0  0
 24 23  1  0  0  0  0
 25 36  1  6  0  0  0
 27 25  1  6  0  0  0
 27 28  1  0  0  0  0
 27 26  1  0  0  0  0
 27 30  1  0  0  0  0
 28 26  1  0  0  0  0
 29 35  1  0  0  0  0
 30 29  1  0  0  0  0
 30 32  1  0  0  0  0
 31 34  1  0  0  0  0
 32 31  1  0  0  0  0
 33 34  1  0  0  0  0
 35 33  1  0  0  0  0
 36 37  1  0  0  0  0
M  END
>  <MODEL>
3

>  <REMARK>
 VINA RESULT:      -8.2      2.383      3.598
  Name = 
  8 active torsions:
  status: ('A' for Active; 'I' for Inactive)
    1  A    between atoms: C_6  and  C_31
    2  A    between atoms: C_7  and  C_14
    3  A    between atoms: C_10  and  C_14
    4  A    between atoms: C_11  and  C_26
    5  A    between atoms: C_14  and  C_31
    6  A    between atoms: C_17  and  C_26
    7  A    between atoms: C_26  and  N_33
    8  A    between atoms: C_29  and  C_36
                            x       y       z     vdW  Elec       q    Type
                         _______ _______ _______ _____ _____    ______ ____

>  <TORSDO>
F 8

$$$$
=
 OpenBabel10262422483D

 37 41  0  0  1  0  0  0  0  0999 V2000
  186.1520  175.5380  136.6330 C   0  0  0  0  0  2  0  0  0  0  0  0
  182.7330  178.1870  137.0400 C   0  0  0  0  0  0  0  0  0  0  0  0
  184.1940  176.8430  135.5220 C   0  0  2  0  0  3  0  0  0  0  0  0
  182.7340  178.9080  138.3480 C   0  0  2  0  0  3  0  0  0  0  0  0
  183.8470  177.4830  136.8520 C   0  0  0  0  0  0  0  0  0  0  0  0
  182.9470  176.6220  134.6620 C   0  0  0  0  0  2  0  0  0  0  0  0
  184.8160  177.6810  137.9730 C   0  0  1  0  0  3  0  0  0  0  0  0
  186.7550  179.0100  137.6090 O   0  0  0  0  0  0  0  0  0  0  0  0
  182.0950  177.8880  134.6350 C   0  0  0  0  0  2  0  0  0  0  0  0
  186.2100  177.9290  137.4440 C   0  0  0  0  0  0  0  0  0  0  0  0
  181.6040  178.2270  136.0440 C   0  0  0  0  0  2  0  0  0  0  0  0
  184.2180  178.8490  138.7660 C   0  0  0  0  0  2  0  0  0  0  0  0
  184.9710  175.5270  135.6510 C   0  0  0  0  0  2  0  0  0  0  0  0
  186.9290  176.8580  136.6620 C   0  0  0  0  0  2  0  0  0  0  0  0
  185.5660  179.2060  140.5130 O   0  0  0  0  0  0  0  0  0  0  0  0
  185.6120  178.9810  141.1320 N   0  0  0  0  0  2  0  0  0  0  0  0
  184.4430  178.7330  140.2410 C   0  0  0  0  0  1  0  0  0  0  0  0
  185.6410  178.4330  142.6250 C   0  0  1  0  0  3  0  0  0  0  0  0
  187.1380  178.0200  144.4380 O   0  0  0  0  0  0  0  0  0  0  0  0
  188.5090  176.4030  143.5870 O   0  0  0  0  0  1  0  0  0  0  0  0
  187.0770  178.1810  143.0420 C   0  0  1  0  0  3  0  0  0  0  0  0
  187.1890  176.8450  143.6650 C   0  0  2  0  0  3  0  0  0  0  0  0
  185.0090  179.4410  143.5750 C   0  0  0  0  0  2  0  0  0  0  0  0
  183.8640  178.8030  144.3410 C   0  0  0  0  0  1  0  0  0  0  0  0
  181.7220  178.3310  139.3750 C   0  0  2  0  0  3  0  0  0  0  0  0
  179.7040  178.9720  137.9100 C   0  0  0  0  0  2  0  0  0  0  0  0
  180.3050  177.9950  138.8300 C   0  0  2  0  0  0  0  0  0  0  0  0
  178.9310  178.9680  139.5880 S   0  0  0  0  0  0  0  0  0  0  0  0
  181.0240  175.5100  139.1080 C   0  0  0  0  0  2  0  0  0  0  0  0
  179.9500  176.5080  138.6340 C   0  0  0  0  0  3  0  0  0  0  0  0
  179.0810  174.7790  136.9790 C   0  0  0  0  0  2  0  0  0  0  0  0
  179.3650  176.2510  137.2380 C   0  0  0  0  0  2  0  0  0  0  0  0
  181.3910  173.8070  137.3300 C   0  0  0  0  0  2  0  0  0  0  0  0
  180.2960  174.1370  136.3210 C   0  0  0  0  0  2  0  0  0  0  0  0
  181.9590  175.0520  137.9980 C   0  0  0  0  0  2  0  0  0  0  0  0
  181.7200  179.1820  140.6430 C   0  0  0  0  0  2  0  0  0  0  0  0
  181.2970  178.3480  141.8390 C   0  0  0  0  0  1  0  0  0  0  0  0
  1 14  1  0  0  0  0
  2  4  1  0  0  0  0
  3  6  1  1  0  0  0
  3 13  1  0  0  0  0
  3  5  1  0  0  0  0
  4 12  1  0  0  0  0
  4 25  1  1  0  0  0
  5  2  2  0  0  0  0
  5  7  1  0  0  0  0
  7 12  1  6  0  0  0
  9  6  1  0  0  0  0
  9 11  1  0  0  0  0
 10  8  2  0  0  0  0
 10  7  1  0  0  0  0
 11  2  1  0  0  0  0
 13  1  1  0  0  0  0
 14 10  1  0  0  0  0
 15 16  1  0  0  0  0
 16 18  1  0  0  0  0
 17 15  1  0  0  0  0
 18 23  1  1  0  0  0
 21 18  1  1  0  0  0
 21 22  1  0  0  0  0
 21 19  1  0  0  0  0
 22 20  1  6  0  0  0
 22 19  1  0  0  0  0
 23 24  1  0  0  0  0
 25 36  1  1  0  0  0
 26 27  1  0  0  0  0
 26 28  1  0  0  0  0
 27 25  1  1  0  0  0
 27 28  1  0  0  0  0
 30 27  1  0  0  0  0
 30 29  1  0  0  0  0
 31 32  1  0  0  0  0
 32 30  1  0  0  0  0
 33 35  1  0  0  0  0
 34 31  1  0  0  0  0
 34 33  1  0  0  0  0
 35 29  1  0  0  0  0
 36 37  1  0  0  0  0
M  END
>  <MODEL>
4

>  <REMARK>
 VINA RESULT:      -8.2      3.145      7.910
  Name = 
  8 active torsions:
  status: ('A' for Active; 'I' for Inactive)
    1  A    between atoms: C_6  and  C_31
    2  A    between atoms: C_7  and  C_14
    3  A    between atoms: C_10  and  C_14
    4  A    between atoms: C_11  and  C_26
    5  A    between atoms: C_14  and  C_31
    6  A    between atoms: C_17  and  C_26
    7  A    between atoms: C_26  and  N_33
    8  A    between atoms: C_29  and  C_36
                            x       y       z     vdW  Elec       q    Type
                         _______ _______ _______ _____ _____    ______ ____

>  <TORSDO>
F 8

$$$$
=
 OpenBabel10262422483D

 37 41  0  0  1  0  0  0  0  0999 V2000
  182.8630  177.4350  140.1460 C   0  0  0  0  0  2  0  0  0  0  0  0
  185.6620  178.7560  143.1940 C   0  0  0  0  0  0  0  0  0  0  0  0
  183.2870  178.6140  142.4260 C   0  0  2  0  0  3  0  0  0  0  0  0
  187.0660  178.7890  142.6900 C   0  0  2  0  0  3  0  0  0  0  0  0
  184.7850  178.4880  142.2290 C   0  0  0  0  0  0  0  0  0  0  0  0
  182.9060  178.5260  143.9060 C   0  0  0  0  0  2  0  0  0  0  0  0
  185.4560  178.3750  140.8970 C   0  0  1  0  0  3  0  0  0  0  0  0
  185.1890  180.1290  139.3120 O   0  0  0  0  0  0  0  0  0  0  0  0
  183.8070  179.4360  144.7370 C   0  0  0  0  0  2  0  0  0  0  0  0
  184.6950  179.1460  139.8430 C   0  0  0  0  0  0  0  0  0  0  0  0
  185.2640  178.9820  144.6300 C   0  0  0  0  0  2  0  0  0  0  0  0
  186.8760  178.8900  141.1620 C   0  0  0  0  0  2  0  0  0  0  0  0
  182.4680  177.5980  141.6220 C   0  0  0  0  0  2  0  0  0  0  0  0
  183.2920  178.7390  139.4660 C   0  0  0  0  0  2  0  0  0  0  0  0
  188.3540  178.9560  139.4870 O   0  0  0  0  0  0  0  0  0  0  0  0
  188.6820  178.5120  139.1240 N   0  0  0  0  0  2  0  0  0  0  0  0
  187.9170  178.1760  140.3580 C   0  0  0  0  0  1  0  0  0  0  0  0
  189.4740  177.3940  138.3150 C   0  0  1  0  0  3  0  0  0  0  0  0
  191.0290  175.6220  138.6920 O   0  0  0  0  0  0  0  0  0  0  0  0
  192.9740  176.7510  139.0950 O   0  0  0  0  0  1  0  0  0  0  0  0
  190.6320  176.8910  139.1550 C   0  0  1  0  0  3  0  0  0  0  0  0
  191.8280  176.7140  138.3030 C   0  0  2  0  0  3  0  0  0  0  0  0
  188.5550  176.2310  137.9730 C   0  0  0  0  0  2  0  0  0  0  0  0
  187.4140  176.6970  137.0870 C   0  0  0  0  0  1  0  0  0  0  0  0
  187.9310  177.5970  143.1830 C   0  0  2  0  0  3  0  0  0  0  0  0
  189.6860  179.3030  143.9820 C   0  0  0  0  0  2  0  0  0  0  0  0
  189.1210  177.9520  144.1190 C   0  0  2  0  0  0  0  0  0  0  0  0
  190.7740  177.9760  143.2960 S   0  0  0  0  0  0  0  0  0  0  0  0
  187.7810  177.1280  146.1900 C   0  0  0  0  0  2  0  0  0  0  0  0
  189.1540  177.2950  145.5120 C   0  0  0  0  0  3  0  0  0  0  0  0
  190.2730  177.3270  147.7990 C   0  0  0  0  0  2  0  0  0  0  0  0
  190.2650  177.8920  146.3880 C   0  0  0  0  0  2  0  0  0  0  0  0
  187.9300  177.9350  148.5410 C   0  0  0  0  0  2  0  0  0  0  0  0
  189.4220  178.2090  148.7040 C   0  0  0  0  0  2  0  0  0  0  0  0
  187.4300  178.2640  147.1410 C   0  0  0  0  0  2  0  0  0  0  0  0
  188.3060  176.6990  142.0060 C   0  0  0  0  0  2  0  0  0  0  0  0
  189.2850  175.6280  142.4500 C   0  0  0  0  0  1  0  0  0  0  0  0
  1 13  1  0  0  0  0
  2 11  1  0  0  0  0
  3 13  1  6  0  0  0
  3  6  1  0  0  0  0
  4 25  1  6  0  0  0
  4  2  1  0  0  0  0
  5  3  1  0  0  0  0
  5  2  2  0  0  0  0
  6  9  1  0  0  0  0
  7 12  1  1  0  0  0
  7  5  1  0  0  0  0
  8 10  2  0  0  0  0
 10  7  1  0  0  0  0
 11  9  1  0  0  0  0
 12  4  1  0  0  0  0
 14 10  1  0  0  0  0
 14  1  1  0  0  0  0
 15 17  1  0  0  0  0
 16 15  1  0  0  0  0
 18 23  1  1  0  0  0
 18 16  1  0  0  0  0
 19 21  1  0  0  0  0
 21 18  1  6  0  0  0
 22 19  1  0  0  0  0
 22 20  1  1  0  0  0
 22 21  1  0  0  0  0
 24 23  1  0  0  0  0
 25 36  1  6  0  0  0
 26 27  1  0  0  0  0
 27 25  1  6  0  0  0
 27 30  1  0  0  0  0
 28 26  1  0  0  0  0
 28 27  1  0  0  0  0
 29 35  1  0  0  0  0
 30 29  1  0  0  0  0
 30 32  1  0  0  0  0
 31 34  1  0  0  0  0
 32 31  1  0  0  0  0
 33 34  1  0  0  0  0
 35 33  1  0  0  0  0
 36 37  1  0  0  0  0
M  END
>  <MODEL>
5

>  <REMARK>
 VINA RESULT:      -8.2      1.599      2.525
  Name = 
  8 active torsions:
  status: ('A' for Active; 'I' for Inactive)
    1  A    between atoms: C_6  and  C_31
    2  A    between atoms: C_7  and  C_14
    3  A    between atoms: C_10  and  C_14
    4  A    between atoms: C_11  and  C_26
    5  A    between atoms: C_14  and  C_31
    6  A    between atoms: C_17  and  C_26
    7  A    between atoms: C_26  and  N_33
    8  A    between atoms: C_29  and  C_36
                            x       y       z     vdW  Elec       q    Type
                         _______ _______ _______ _____ _____    ______ ____

>  <TORSDO>
F 8

$$$$
=
 OpenBabel10262422483D

 37 41  0  0  1  0  0  0  0  0999 V2000
  189.9100  175.9970  138.5140 C   0  0  0  0  0  2  0  0  0  0  0  0
  186.2530  177.7520  136.9620 C   0  0  0  0  0  0  0  0  0  0  0  0
  188.5650  176.9280  136.4910 C   0  0  2  0  0  3  0  0  0  0  0  0
  185.4000  178.3220  138.0460 C   0  0  2  0  0  3  0  0  0  0  0  0
  187.4350  177.3400  137.4140 C   0  0  0  0  0  0  0  0  0  0  0  0
  188.0430  176.5170  135.1120 C   0  0  0  0  0  2  0  0  0  0  0  0
  187.5990  177.6400  138.8700 C   0  0  1  0  0  3  0  0  0  0  0  0
  189.0530  179.4020  139.5340 O   0  0  0  0  0  0  0  0  0  0  0  0
  187.0510  177.5550  134.5940 C   0  0  0  0  0  2  0  0  0  0  0  0
  188.9540  178.2470  139.1460 C   0  0  0  0  0  0  0  0  0  0  0  0
  185.8350  177.6340  135.5190 C   0  0  0  0  0  2  0  0  0  0  0  0
  186.4120  178.5590  139.1850 C   0  0  0  0  0  2  0  0  0  0  0  0
  189.4550  175.8160  137.0580 C   0  0  0  0  0  2  0  0  0  0  0  0
  190.2110  177.4490  138.9000 C   0  0  0  0  0  2  0  0  0  0  0  0
  186.0720  179.3800  141.2360 O   0  0  0  0  0  0  0  0  0  0  0  0
  185.9240  179.1310  141.8300 N   0  0  0  0  0  2  0  0  0  0  0  0
  185.8600  178.3520  140.5600 C   0  0  0  0  0  1  0  0  0  0  0  0
  185.5210  178.4740  143.2210 C   0  0  1  0  0  3  0  0  0  0  0  0
  186.4830  177.3510  145.0950 O   0  0  0  0  0  0  0  0  0  0  0  0
  188.5260  176.7160  144.2940 O   0  0  0  0  0  1  0  0  0  0  0  0
  186.7690  178.2530  144.0550 C   0  0  1  0  0  3  0  0  0  0  0  0
  187.1720  176.8330  143.9830 C   0  0  2  0  0  3  0  0  0  0  0  0
  184.5600  179.3790  143.9800 C   0  0  0  0  0  2  0  0  0  0  0  0
  183.1480  178.8260  143.9180 C   0  0  0  0  0  1  0  0  0  0  0  0
  184.1780  177.4330  138.4060 C   0  0  2  0  0  3  0  0  0  0  0  0
  182.8980  177.3060  136.1750 C   0  0  0  0  0  2  0  0  0  0  0  0
  183.5870  176.5760  137.2520 C   0  0  2  0  0  0  0  0  0  0  0  0
  181.7510  176.3810  137.2910 S   0  0  0  0  0  0  0  0  0  0  0  0
  184.0920  174.7790  135.4410 C   0  0  0  0  0  2  0  0  0  0  0  0
  184.3200  175.2720  136.8820 C   0  0  0  0  0  3  0  0  0  0  0  0
  184.8120  172.8840  137.6150 C   0  0  0  0  0  2  0  0  0  0  0  0
  184.1730  174.2140  137.9840 C   0  0  0  0  0  2  0  0  0  0  0  0
  183.5490  172.3500  135.4880 C   0  0  0  0  0  2  0  0  0  0  0  0
  183.7740  171.9880  136.9530 C   0  0  0  0  0  2  0  0  0  0  0  0
  182.9760  173.7510  135.3190 C   0  0  0  0  0  2  0  0  0  0  0  0
  183.1410  178.2530  139.1710 C   0  0  0  0  0  2  0  0  0  0  0  0
  183.1570  179.6960  138.7010 C   0  0  0  0  0  1  0  0  0  0  0  0
  1 14  1  0  0  0  0
  2  5  2  0  0  0  0
  2  4  1  0  0  0  0
  3  6  1  6  0  0  0
  3 13  1  0  0  0  0
  3  5  1  0  0  0  0
  4 25  1  1  0  0  0
  4 12  1  0  0  0  0
  5  7  1  0  0  0  0
  7 10  1  0  0  0  0
  7 12  1  6  0  0  0
  9  6  1  0  0  0  0
  9 11  1  0  0  0  0
 10  8  2  0  0  0  0
 11  2  1  0  0  0  0
 13  1  1  0  0  0  0
 14 10  1  0  0  0  0
 15 16  1  0  0  0  0
 16 18  1  0  0  0  0
 17 15  1  0  0  0  0
 18 23  1  1  0  0  0
 21 18  1  6  0  0  0
 21 19  1  0  0  0  0
 22 21  1  0  0  0  0
 22 20  1  1  0  0  0
 22 19  1  0  0  0  0
 24 23  1  0  0  0  0
 25 36  1  6  0  0  0
 26 27  1  0  0  0  0
 26 28  1  0  0  0  0
 27 28  1  0  0  0  0
 27 25  1  1  0  0  0
 29 30  1  0  0  0  0
 30 27  1  0  0  0  0
 30 32  1  0  0  0  0
 31 32  1  0  0  0  0
 33 34  1  0  0  0  0
 34 31  1  0  0  0  0
 35 29  1  0  0  0  0
 35 33  1  0  0  0  0
 37 36  1  0  0  0  0
M  END
>  <MODEL>
6

>  <REMARK>
 VINA RESULT:      -8.2      3.420      8.374
  Name = 
  8 active torsions:
  status: ('A' for Active; 'I' for Inactive)
    1  A    between atoms: C_6  and  C_31
    2  A    between atoms: C_7  and  C_14
    3  A    between atoms: C_10  and  C_14
    4  A    between atoms: C_11  and  C_26
    5  A    between atoms: C_14  and  C_31
    6  A    between atoms: C_17  and  C_26
    7  A    between atoms: C_26  and  N_33
    8  A    between atoms: C_29  and  C_36
                            x       y       z     vdW  Elec       q    Type
                         _______ _______ _______ _____ _____    ______ ____

>  <TORSDO>
F 8

$$$$
=
 OpenBabel10262422483D

 37 41  0  0  1  0  0  0  0  0999 V2000
  187.1780  176.7030  143.2990 C   0  0  0  0  0  2  0  0  0  0  0  0
  189.8440  177.4570  139.9540 C   0  0  0  0  0  0  0  0  0  0  0  0
  189.5630  177.2730  142.4310 C   0  0  2  0  0  3  0  0  0  0  0  0
  189.0970  177.7720  138.7010 C   0  0  2  0  0  3  0  0  0  0  0  0
  189.0400  177.3640  141.0110 C   0  0  0  0  0  0  0  0  0  0  0  0
  191.0030  176.7560  142.4670 C   0  0  0  0  0  2  0  0  0  0  0  0
  187.6240  177.6790  140.6500 C   0  0  1  0  0  3  0  0  0  0  0  0
  186.6850  179.7530  141.3440 O   0  0  0  0  0  0  0  0  0  0  0  0
  191.8580  177.5030  141.4460 C   0  0  0  0  0  2  0  0  0  0  0  0
  187.0060  178.6180  141.6610 C   0  0  0  0  0  0  0  0  0  0  0  0
  191.3350  177.2500  140.0310 C   0  0  0  0  0  2  0  0  0  0  0  0
  187.7310  178.2530  139.2320 C   0  0  0  0  0  2  0  0  0  0  0  0
  188.6870  176.4260  143.3620 C   0  0  0  0  0  2  0  0  0  0  0  0
  186.8210  178.1780  143.0930 C   0  0  0  0  0  2  0  0  0  0  0  0
  185.6500  178.7190  138.5600 O   0  0  0  0  0  0  0  0  0  0  0  0
  185.1660  178.3930  138.2510 N   0  0  0  0  0  2  0  0  0  0  0  0
  186.5650  177.8930  138.3650 C   0  0  0  0  0  1  0  0  0  0  0  0
  184.0570  177.5690  137.4630 C   0  0  1  0  0  3  0  0  0  0  0  0
  182.7460  175.5760  137.5450 O   0  0  0  0  0  0  0  0  0  0  0  0
  184.3160  173.9710  137.9680 O   0  0  0  0  0  1  0  0  0  0  0  0
  183.8080  176.2520  138.1740 C   0  0  1  0  0  3  0  0  0  0  0  0
  184.0470  175.1290  137.2420 C   0  0  2  0  0  3  0  0  0  0  0  0
  182.7570  178.3580  137.3910 C   0  0  0  0  0  2  0  0  0  0  0  0
  182.3660  178.8650  138.7670 C   0  0  0  0  0  1  0  0  0  0  0  0
  189.0490  176.5900  137.6940 C   0  0  2  0  0  3  0  0  0  0  0  0
  189.3080  178.1830  135.6880 C   0  0  0  0  0  2  0  0  0  0  0  0
  189.6210  176.8710  136.2760 C   0  0  2  0  0  0  0  0  0  0  0  0
  188.3820  176.7870  134.9090 S   0  0  0  0  0  0  0  0  0  0  0  0
  190.8640  174.8150  135.2820 C   0  0  0  0  0  2  0  0  0  0  0  0
  190.9670  176.2190  135.9060 C   0  0  0  0  0  3  0  0  0  0  0  0
  193.3100  175.6710  136.7380 C   0  0  0  0  0  2  0  0  0  0  0  0
  191.9960  176.3770  137.0340 C   0  0  0  0  0  2  0  0  0  0  0  0
  192.4850  173.3010  136.4130 C   0  0  0  0  0  2  0  0  0  0  0  0
  193.2660  174.2590  137.3060 C   0  0  0  0  0  2  0  0  0  0  0  0
  191.0170  173.6870  136.2930 C   0  0  0  0  0  2  0  0  0  0  0  0
  187.6590  175.9570  137.6940 C   0  0  0  0  0  2  0  0  0  0  0  0
  187.7410  174.5010  137.2720 C   0  0  0  0  0  1  0  0  0  0  0  0
  1 13  1  0  0  0  0
  2 11  1  0  0  0  0
  2  5  2  0  0  0  0
  3  6  1  6  0  0  0
  3 13  1  0  0  0  0
  4 25  1  6  0  0  0
  4 12  1  0  0  0  0
  4  2  1  0  0  0  0
  5  3  1  0  0  0  0
  7 12  1  6  0  0  0
  7  5  1  0  0  0  0
  7 10  1  0  0  0  0
  8 10  2  0  0  0  0
  9  6  1  0  0  0  0
 10 14  1  0  0  0  0
 11  9  1  0  0  0  0
 14  1  1  0  0  0  0
 16 15  1  0  0  0  0
 17 15  1  0  0  0  0
 18 23  1  1  0  0  0
 18 16  1  0  0  0  0
 19 21  1  0  0  0  0
 21 18  1  6  0  0  0
 22 19  1  0  0  0  0
 22 20  1  1  0  0  0
 22 21  1  0  0  0  0
 23 24  1  0  0  0  0
 25 36  1  6  0  0  0
 26 27  1  0  0  0  0
 27 25  1  1  0  0  0
 28 26  1  0  0  0  0
 28 27  1  0  0  0  0
 29 30  1  0  0  0  0
 29 35  1  0  0  0  0
 30 27  1  0  0  0  0
 30 32  1  0  0  0  0
 31 32  1  0  0  0  0
 31 34  1  0  0  0  0
 33 34  1  0  0  0  0
 35 33  1  0  0  0  0
 37 36  1  0  0  0  0
M  END
>  <MODEL>
7

>  <REMARK>
 VINA RESULT:      -8.0      3.513      8.173
  Name = 
  8 active torsions:
  status: ('A' for Active; 'I' for Inactive)
    1  A    between atoms: C_6  and  C_31
    2  A    between atoms: C_7  and  C_14
    3  A    between atoms: C_10  and  C_14
    4  A    between atoms: C_11  and  C_26
    5  A    between atoms: C_14  and  C_31
    6  A    between atoms: C_17  and  C_26
    7  A    between atoms: C_26  and  N_33
    8  A    between atoms: C_29  and  C_36
                            x       y       z     vdW  Elec       q    Type
                         _______ _______ _______ _____ _____    ______ ____

>  <TORSDO>
F 8

$$$$
=
 OpenBabel10262422483D

 37 41  0  0  1  0  0  0  0  0999 V2000
  187.9300  176.4280  143.2010 C   0  0  0  0  0  2  0  0  0  0  0  0
  190.4270  177.2750  139.7490 C   0  0  0  0  0  0  0  0  0  0  0  0
  190.2400  177.1400  142.2380 C   0  0  2  0  0  3  0  0  0  0  0  0
  189.6200  177.5020  138.5140 C   0  0  2  0  0  3  0  0  0  0  0  0
  189.6660  177.1550  140.8350 C   0  0  0  0  0  0  0  0  0  0  0  0
  191.7140  176.7260  142.2380 C   0  0  0  0  0  2  0  0  0  0  0  0
  188.2200  177.3600  140.5150 C   0  0  1  0  0  3  0  0  0  0  0  0
  187.1600  179.3810  141.1880 O   0  0  0  0  0  0  0  0  0  0  0  0
  192.4800  177.5030  141.1700 C   0  0  0  0  0  2  0  0  0  0  0  0
  187.5710  178.2800  141.5230 C   0  0  0  0  0  0  0  0  0  0  0  0
  191.9300  177.1750  139.7800 C   0  0  0  0  0  2  0  0  0  0  0  0
  188.2410  177.9010  139.0790 C   0  0  0  0  0  2  0  0  0  0  0  0
  189.4570  176.2590  143.2190 C   0  0  0  0  0  2  0  0  0  0  0  0
  187.4630  177.8690  142.9700 C   0  0  0  0  0  2  0  0  0  0  0  0
  186.3480  178.4180  138.0100 O   0  0  0  0  0  0  0  0  0  0  0  0
  185.8230  178.0860  137.7830 N   0  0  0  0  0  2  0  0  0  0  0  0
  187.0770  177.4370  138.2620 C   0  0  0  0  0  1  0  0  0  0  0  0
  184.6110  177.2240  137.2190 C   0  0  1  0  0  3  0  0  0  0  0  0
  182.2430  176.9780  137.3890 O   0  0  0  0  0  0  0  0  0  0  0  0
  181.7900  177.9460  139.4080 O   0  0  0  0  0  1  0  0  0  0  0  0
  183.3010  177.8780  137.6140 C   0  0  1  0  0  3  0  0  0  0  0  0
  182.6780  177.1200  138.7200 C   0  0  2  0  0  3  0  0  0  0  0  0
  184.6890  177.1220  135.7030 C   0  0  0  0  0  2  0  0  0  0  0  0
  184.9470  175.6880  135.2780 C   0  0  0  0  0  1  0  0  0  0  0  0
  189.6230  176.2930  137.5400 C   0  0  2  0  0  3  0  0  0  0  0  0
  189.5440  177.8790  135.5130 C   0  0  0  0  0  2  0  0  0  0  0  0
  190.0130  176.5990  136.0660 C   0  0  2  0  0  0  0  0  0  0  0  0
  188.6400  176.4120  134.8460 S   0  0  0  0  0  0  0  0  0  0  0  0
  191.2430  174.7690  134.6860 C   0  0  0  0  0  2  0  0  0  0  0  0
  191.3530  176.0390  135.5510 C   0  0  0  0  0  3  0  0  0  0  0  0
  193.7210  175.3770  136.2110 C   0  0  0  0  0  2  0  0  0  0  0  0
  192.4110  176.0040  136.6620 C   0  0  0  0  0  2  0  0  0  0  0  0
  192.9040  173.0950  135.4840 C   0  0  0  0  0  2  0  0  0  0  0  0
  193.7030  173.8850  136.5160 C   0  0  0  0  0  2  0  0  0  0  0  0
  191.4300  173.4800  135.4730 C   0  0  0  0  0  2  0  0  0  0  0  0
  188.3310  175.4920  137.6930 C   0  0  0  0  0  2  0  0  0  0  0  0
  188.5350  174.0650  137.2180 C   0  0  0  0  0  1  0  0  0  0  0  0
  1 13  1  0  0  0  0
  2 11  1  0  0  0  0
  2  5  2  0  0  0  0
  3  6  1  6  0  0  0
  3 13  1  0  0  0  0
  4 25  1  1  0  0  0
  4 12  1  0  0  0  0
  4  2  1  0  0  0  0
  5  3  1  0  0  0  0
  7 12  1  6  0  0  0
  7  5  1  0  0  0  0
  7 10  1  0  0  0  0
  8 10  2  0  0  0  0
  9  6  1  0  0  0  0
 10 14  1  0  0  0  0
 11  9  1  0  0  0  0
 14  1  1  0  0  0  0
 15 17  1  0  0  0  0
 16 15  1  0  0  0  0
 18 23  1  6  0  0  0
 18 16  1  0  0  0  0
 19 21  1  0  0  0  0
 19 22  1  0  0  0  0
 21 18  1  6  0  0  0
 21 22  1  0  0  0  0
 22 20  1  1  0  0  0
 24 23  1  0  0  0  0
 25 36  1  6  0  0  0
 26 27  1  0  0  0  0
 27 25  1  1  0  0  0
 28 26  1  0  0  0  0
 28 27  1  0  0  0  0
 29 35  1  0  0  0  0
 29 30  1  0  0  0  0
 30 27  1  0  0  0  0
 30 32  1  0  0  0  0
 31 34  1  0  0  0  0
 31 32  1  0  0  0  0
 33 34  1  0  0  0  0
 35 33  1  0  0  0  0
 37 36  1  0  0  0  0
M  END
>  <MODEL>
8

>  <REMARK>
 VINA RESULT:      -7.9      3.650      8.682
  Name = 
  8 active torsions:
  status: ('A' for Active; 'I' for Inactive)
    1  A    between atoms: C_6  and  C_31
    2  A    between atoms: C_7  and  C_14
    3  A    between atoms: C_10  and  C_14
    4  A    between atoms: C_11  and  C_26
    5  A    between atoms: C_14  and  C_31
    6  A    between atoms: C_17  and  C_26
    7  A    between atoms: C_26  and  N_33
    8  A    between atoms: C_29  and  C_36
                            x       y       z     vdW  Elec       q    Type
                         _______ _______ _______ _____ _____    ______ ____

>  <TORSDO>
F 8

$$$$
=
 OpenBabel10262422483D

 37 41  0  0  1  0  0  0  0  0999 V2000
  187.0130  176.7160  143.5830 C   0  0  0  0  0  2  0  0  0  0  0  0
  188.6160  177.6940  139.6660 C   0  0  0  0  0  0  0  0  0  0  0  0
  189.0720  177.2360  142.0800 C   0  0  2  0  0  3  0  0  0  0  0  0
  187.5610  178.1990  138.7380 C   0  0  2  0  0  3  0  0  0  0  0  0
  188.1590  177.5260  140.9050 C   0  0  0  0  0  0  0  0  0  0  0  0
  190.4010  176.6300  141.6230 C   0  0  0  0  0  2  0  0  0  0  0  0
  186.7370  177.9690  141.0290 C   0  0  1  0  0  3  0  0  0  0  0  0
  186.2500  180.0000  142.1680 O   0  0  0  0  0  0  0  0  0  0  0  0
  190.9780  177.4390  140.4640 C   0  0  0  0  0  2  0  0  0  0  0  0
  186.5410  178.8180  142.2640 C   0  0  0  0  0  0  0  0  0  0  0  0
  190.0340  177.3870  139.2610 C   0  0  0  0  0  2  0  0  0  0  0  0
  186.4680  178.6980  139.7060 C   0  0  0  0  0  2  0  0  0  0  0  0
  188.4390  176.3410  143.1520 C   0  0  0  0  0  2  0  0  0  0  0  0
  186.7520  178.2250  143.6360 C   0  0  0  0  0  2  0  0  0  0  0  0
  184.4430  179.5830  139.3750 O   0  0  0  0  0  0  0  0  0  0  0  0
  183.8350  179.3500  139.2610 N   0  0  0  0  0  2  0  0  0  0  0  0
  185.0690  178.5150  139.2100 C   0  0  0  0  0  1  0  0  0  0  0  0
  182.4050  178.7300  138.9440 C   0  0  1  0  0  3  0  0  0  0  0  0
  180.2020  178.4730  139.8260 O   0  0  0  0  0  0  0  0  0  0  0  0
  180.5840  178.3350  142.0740 O   0  0  0  0  0  1  0  0  0  0  0  0
  181.4290  179.1290  140.0340 C   0  0  1  0  0  3  0  0  0  0  0  0
  181.0430  177.9370  140.8200 C   0  0  2  0  0  3  0  0  0  0  0  0
  181.8930  179.2290  137.6000 C   0  0  0  0  0  2  0  0  0  0  0  0
  181.9370  178.1170  136.5680 C   0  0  0  0  0  1  0  0  0  0  0  0
  187.1030  177.1500  137.6890 C   0  0  2  0  0  3  0  0  0  0  0  0
  188.6820  178.2690  135.9920 C   0  0  0  0  0  2  0  0  0  0  0  0
  187.9560  177.0540  136.3940 C   0  0  2  0  0  0  0  0  0  0  0  0
  187.2250  177.8910  134.9190 S   0  0  0  0  0  0  0  0  0  0  0  0
  188.1410  175.0730  134.7190 C   0  0  0  0  0  2  0  0  0  0  0  0
  188.5920  175.6920  136.0560 C   0  0  0  0  0  3  0  0  0  0  0  0
  189.1220  173.3670  136.9480 C   0  0  0  0  0  2  0  0  0  0  0  0
  188.5800  174.7510  137.2690 C   0  0  0  0  0  2  0  0  0  0  0  0
  187.5460  172.6840  135.0890 C   0  0  0  0  0  2  0  0  0  0  0  0
  187.9740  172.4540  136.5350 C   0  0  0  0  0  2  0  0  0  0  0  0
  186.9920  174.0850  134.8640 C   0  0  0  0  0  2  0  0  0  0  0  0
  185.6000  177.2780  137.4410 C   0  0  0  0  0  2  0  0  0  0  0  0
  184.9940  175.9170  137.1540 C   0  0  0  0  0  1  0  0  0  0  0  0
  1 14  1  0  0  0  0
  2  5  2  0  0  0  0
  3  6  1  6  0  0  0
  3 13  1  0  0  0  0
  4 25  1  6  0  0  0
  4  2  1  0  0  0  0
  4 12  1  0  0  0  0
  5  7  1  0  0  0  0
  5  3  1  0  0  0  0
  7 12  1  6  0  0  0
  7 10  1  0  0  0  0
  8 10  2  0  0  0  0
  9  6  1  0  0  0  0
 10 14  1  0  0  0  0
 11  2  1  0  0  0  0
 11  9  1  0  0  0  0
 13  1  1  0  0  0  0
 16 15  1  0  0  0  0
 17 15  1  0  0  0  0
 18 23  1  6  0  0  0
 18 16  1  0  0  0  0
 19 21  1  0  0  0  0
 19 22  1  0  0  0  0
 21 18  1  6  0  0  0
 21 22  1  0  0  0  0
 22 20  1  1  0  0  0
 24 23  1  0  0  0  0
 25 36  1  6  0  0  0
 26 27  1  0  0  0  0
 27 25  1  1  0  0  0
 28 26  1  0  0  0  0
 28 27  1  0  0  0  0
 29 35  1  0  0  0  0
 29 30  1  0  0  0  0
 30 27  1  0  0  0  0
 30 32  1  0  0  0  0
 31 32  1  0  0  0  0
 33 34  1  0  0  0  0
 34 31  1  0  0  0  0
 35 33  1  0  0  0  0
 37 36  1  0  0  0  0
M  END
>  <MODEL>
9

>  <REMARK>
 VINA RESULT:      -7.8      3.401      8.518
  Name = 
  8 active torsions:
  status: ('A' for Active; 'I' for Inactive)
    1  A    between atoms: C_6  and  C_31
    2  A    between atoms: C_7  and  C_14
    3  A    between atoms: C_10  and  C_14
    4  A    between atoms: C_11  and  C_26
    5  A    between atoms: C_14  and  C_31
    6  A    between atoms: C_17  and  C_26
    7  A    between atoms: C_26  and  N_33
    8  A    between atoms: C_29  and  C_36
                            x       y       z     vdW  Elec       q    Type
                         _______ _______ _______ _____ _____    ______ ____

>  <TORSDO>
F 8

$$$$
