=
 OpenBabel10252414563D

 34 38  0  0  1  0  0  0  0  0999 V2000
  183.2310  177.8680  138.3510 C   0  0  1  0  0  3  0  0  0  0  0  0
  184.2510  178.4290  140.5350 C   0  0  0  0  0  0  0  0  0  0  0  0
  185.8060  178.1290  138.6660 C   0  0  0  0  0  0  0  0  0  0  0  0
  188.9160  178.9510  138.2200 C   0  0  0  0  0  2  0  0  0  0  0  0
  182.3450  176.6920  135.9580 Cl  0  0  0  0  0  0  0  0  0  0  0  0
  182.9730  178.4030  141.0910 O   0  0  0  0  0  1  0  0  0  0  0  0
  186.6340  178.8190  140.9050 C   0  0  0  0  0  3  0  0  0  0  0  0
  184.4310  178.1130  139.2410 C   0  0  0  0  0  0  0  0  0  0  0  0
  188.2800  177.9750  139.1990 C   0  0  2  0  0  3  0  0  0  0  0  0
  182.3190  179.3890  138.1300 Cl  0  0  0  0  0  0  0  0  0  0  0  0
  185.9690  177.9070  137.3350 C   0  0  0  0  0  0  0  0  0  0  0  0
  183.6010  177.3310  136.9980 C   0  0  0  0  0  0  0  0  0  0  0  0
  185.3900  178.8430  141.3820 C   0  0  0  0  0  0  0  0  0  0  0  0
  188.0370  179.2760  137.0900 N   0  0  0  0  0  2  0  0  0  0  0  0
  187.2650  178.1270  136.5910 C   0  0  1  0  0  3  0  0  0  0  0  0
  186.9160  178.3830  139.5640 N   0  0  0  0  0  0  0  0  0  0  0  0
  184.8420  177.4180  136.5220 C   0  0  0  0  0  3  0  0  0  0  0  0
  188.5040  174.5130  136.4530 C   0  0  0  0  0  0  0  0  0  0  0  0
  189.6530  174.6560  135.6710 C   0  0  0  0  0  3  0  0  0  0  0  0
  188.0810  176.8990  136.2710 C   0  0  0  0  0  0  0  0  0  0  0  0
  190.0180  175.9150  135.1880 C   0  0  0  0  0  3  0  0  0  0  0  0
  187.7200  175.6310  136.7510 C   0  0  0  0  0  3  0  0  0  0  0  0
  189.2350  177.0340  135.4880 C   0  0  0  0  0  3  0  0  0  0  0  0
  188.0470  172.9390  137.0640 Cl  0  0  0  0  0  0  0  0  0  0  0  0
  190.2660  176.9260  140.3010 C   0  0  0  0  0  3  0  0  0  0  0  0
  190.6700  176.2200  139.0470 C   0  0  0  0  0  1  0  0  0  0  0  0
  189.1910  177.7200  140.3710 C   0  0  0  0  0  3  0  0  0  0  0  0
  185.1690  179.2430  142.8040 C   0  0  0  0  0  2  0  0  0  0  0  0
  187.3970  176.9240  144.5430 N   0  0  0  0  0  0  0  0  0  0  0  0
  186.6090  177.2820  145.5470 N   0  0  0  0  0  2  0  0  0  0  0  0
  187.0000  177.5480  143.4130 C   0  0  0  0  0  3  0  0  0  0  0  0
  184.6380  178.7800  145.9030 C   0  0  0  0  0  1  0  0  0  0  0  0
  185.6940  178.1410  145.0720 C   0  0  0  0  0  0  0  0  0  0  0  0
  185.9050  178.3250  143.7260 C   0  0  0  0  0  0  0  0  0  0  0  0
  1 10  1  6  0  0  0
  1  8  1  0  0  0  0
  2  6  1  0  0  0  0
  2 13  1  0  0  0  0
  3  8  1  0  0  0  0
  3 16  1  0  0  0  0
  4  9  1  0  0  0  0
  5 12  1  0  0  0  0
  7 13  2  0  0  0  0
  8  2  2  0  0  0  0
  9 16  1  0  0  0  0
  9 27  1  1  0  0  0
 11  3  2  0  0  0  0
 12  1  1  0  0  0  0
 13 28  1  0  0  0  0
 14  4  1  0  0  0  0
 15 20  1  1  0  0  0
 15 14  1  0  0  0  0
 15 11  1  0  0  0  0
 16  7  1  0  0  0  0
 17 12  2  0  0  0  0
 17 11  1  0  0  0  0
 18 22  1  0  0  0  0
 18 24  1  0  0  0  0
 19 18  2  0  0  0  0
 20 22  2  0  0  0  0
 21 23  2  0  0  0  0
 21 19  1  0  0  0  0
 23 20  1  0  0  0  0
 25 27  2  0  0  0  0
 26 25  1  0  0  0  0
 28 34  1  0  0  0  0
 29 30  1  0  0  0  0
 31 34  1  0  0  0  0
 31 29  2  0  0  0  0
 33 30  1  0  0  0  0
 33 32  1  0  0  0  0
 34 33  2  0  0  0  0
M  END
>  <MODEL>
1

>  <REMARK>
 VINA RESULT:      -8.2      0.000      0.000
  Name = 
  4 active torsions:
  status: ('A' for Active; 'I' for Inactive)
    1  A    between atoms: C_12  and  C_28
    2  A    between atoms: C_18  and  C_29
    3  A    between atoms: C_20  and  C_25
    4  A    between atoms: C_20  and  C_34
                            x       y       z     vdW  Elec       q    Type
                         _______ _______ _______ _____ _____    ______ ____

>  <TORSDO>
F 4

$$$$
=
 OpenBabel10252414563D

 34 38  0  0  1  0  0  0  0  0999 V2000
  184.4390  178.8400  141.8680 C   0  0  1  0  0  3  0  0  0  0  0  0
  186.2420  178.8690  140.1740 C   0  0  0  0  0  0  0  0  0  0  0  0
  186.8050  177.8470  142.3300 C   0  0  0  0  0  0  0  0  0  0  0  0
  189.2120  175.8910  143.2910 C   0  0  0  0  0  2  0  0  0  0  0  0
  182.7490  179.2080  144.0840 Cl  0  0  0  0  0  0  0  0  0  0  0  0
  185.3760  179.5530  139.3250 O   0  0  0  0  0  1  0  0  0  0  0  0
  188.4460  177.8540  140.4640 C   0  0  0  0  0  3  0  0  0  0  0  0
  185.8600  178.5650  141.4270 C   0  0  0  0  0  0  0  0  0  0  0  0
  189.2430  177.3280  142.7910 C   0  0  2  0  0  3  0  0  0  0  0  0
  183.3100  177.7760  140.9800 Cl  0  0  0  0  0  0  0  0  0  0  0  0
  186.3770  177.4560  143.5580 C   0  0  0  0  0  0  0  0  0  0  0  0
  184.2290  178.6370  143.3420 C   0  0  0  0  0  0  0  0  0  0  0  0
  187.5660  178.4530  139.6620 C   0  0  0  0  0  0  0  0  0  0  0  0
  187.8780  175.4750  143.7430 N   0  0  0  0  0  2  0  0  0  0  0  0
  187.1440  176.5250  144.4680 C   0  0  1  0  0  3  0  0  0  0  0  0
  188.1490  177.5990  141.8470 N   0  0  0  0  0  0  0  0  0  0  0  0
  185.0900  177.9440  144.0850 C   0  0  0  0  0  3  0  0  0  0  0  0
  189.8660  177.3410  147.0240 C   0  0  0  0  0  0  0  0  0  0  0  0
  189.2450  178.3530  147.7610 C   0  0  0  0  0  3  0  0  0  0  0  0
  187.8990  177.1600  145.6090 C   0  0  0  0  0  0  0  0  0  0  0  0
  187.9550  178.7700  147.4250 C   0  0  0  0  0  3  0  0  0  0  0  0
  189.1970  176.7470  145.9520 C   0  0  0  0  0  3  0  0  0  0  0  0
  187.2830  178.1750  146.3520 C   0  0  0  0  0  3  0  0  0  0  0  0
  191.4800  176.8120  147.4450 Cl  0  0  0  0  0  0  0  0  0  0  0  0
  191.4050  178.5840  142.8870 C   0  0  0  0  0  3  0  0  0  0  0  0
  191.0050  179.3060  144.1330 C   0  0  0  0  0  1  0  0  0  0  0  0
  190.6130  177.6900  142.2820 C   0  0  0  0  0  3  0  0  0  0  0  0
  187.9580  178.7500  138.2520 C   0  0  0  0  0  2  0  0  0  0  0  0
  187.0350  175.9190  136.1310 N   0  0  0  0  0  0  0  0  0  0  0  0
  188.3520  175.7700  136.1510 N   0  0  0  0  0  0  0  0  0  0  0  0
  186.6890  176.9860  136.8840 C   0  0  0  0  0  2  0  0  0  0  0  0
  190.3230  176.9180  137.1780 C   0  0  0  0  0  1  0  0  0  0  0  0
  188.8670  176.7410  136.9220 C   0  0  0  0  0  0  0  0  0  0  0  0
  187.8460  177.5220  137.4090 C   0  0  0  0  0  0  0  0  0  0  0  0
  1 10  1  6  0  0  0
  1 12  1  0  0  0  0
  2  8  2  0  0  0  0
  3 11  2  0  0  0  0
  4 14  1  0  0  0  0
  6  2  1  0  0  0  0
  7 16  1  0  0  0  0
  8  1  1  0  0  0  0
  8  3  1  0  0  0  0
  9 27  1  6  0  0  0
  9  4  1  0  0  0  0
 11 17  1  0  0  0  0
 11 15  1  0  0  0  0
 12  5  1  0  0  0  0
 12 17  2  0  0  0  0
 13  2  1  0  0  0  0
 13  7  2  0  0  0  0
 14 15  1  0  0  0  0
 15 20  1  6  0  0  0
 16  3  1  0  0  0  0
 16  9  1  0  0  0  0
 18 24  1  0  0  0  0
 18 19  1  0  0  0  0
 20 22  1  0  0  0  0
 20 23  2  0  0  0  0
 21 19  2  0  0  0  0
 22 18  2  0  0  0  0
 23 21  1  0  0  0  0
 25 26  1  0  0  0  0
 27 25  2  0  0  0  0
 28 13  1  0  0  0  0
 29 30  2  0  0  0  0
 29 31  1  0  0  0  0
 30 33  1  0  0  0  0
 31 34  1  0  0  0  0
 33 32  1  0  0  0  0
 33 34  2  0  0  0  0
 34 28  1  0  0  0  0
M  END
>  <MODEL>
2

>  <REMARK>
 VINA RESULT:      -7.6      3.300      7.410
  Name = 
  4 active torsions:
  status: ('A' for Active; 'I' for Inactive)
    1  A    between atoms: C_12  and  C_28
    2  A    between atoms: C_18  and  C_29
    3  A    between atoms: C_20  and  C_25
    4  A    between atoms: C_20  and  C_34
                            x       y       z     vdW  Elec       q    Type
                         _______ _______ _______ _____ _____    ______ ____

>  <TORSDO>
F 4

$$$$
=
 OpenBabel10252414563D

 34 38  0  0  1  0  0  0  0  0999 V2000
  188.0550  177.6270  142.2860 C   0  0  0  0  0  0  0  0  0  0  0  0
  188.9410  177.4570  139.9820 C   0  0  0  0  0  0  0  0  0  0  0  0
  186.5880  178.1100  140.1860 C   0  0  1  0  0  3  0  0  0  0  0  0
  184.4820  179.4710  138.1230 C   0  0  0  0  0  2  0  0  0  0  0  0
  186.7200  177.3310  144.7420 Cl  0  0  0  0  0  0  0  0  0  0  0  0
  190.1550  177.0420  140.5250 O   0  0  0  0  0  1  0  0  0  0  0  0
  187.6870  178.0110  137.9600 C   0  0  0  0  0  3  0  0  0  0  0  0
  187.8860  177.6840  140.7840 C   0  0  0  0  0  0  0  0  0  0  0  0
  185.1760  178.1170  138.0800 C   0  0  2  0  0  3  0  0  0  0  0  0
  189.0980  178.9730  142.8310 Cl  0  0  0  0  0  0  0  0  0  0  0  0
  185.5560  178.4340  141.0080 C   0  0  0  0  0  0  0  0  0  0  0  0
  186.7510  177.7000  143.0300 C   0  0  0  0  0  0  0  0  0  0  0  0
  188.8480  177.6760  138.5220 C   0  0  0  0  0  0  0  0  0  0  0  0
  184.4890  180.0720  139.4620 N   0  0  0  0  0  2  0  0  0  0  0  0
  184.2810  179.1000  140.5480 C   0  0  1  0  0  3  0  0  0  0  0  0
  186.4890  178.1590  138.7400 N   0  0  0  0  0  0  0  0  0  0  0  0
  185.6350  178.1350  142.4490 C   0  0  0  0  0  3  0  0  0  0  0  0
  180.6720  177.8410  140.5040 C   0  0  0  0  0  0  0  0  0  0  0  0
  180.8580  176.5140  140.1060 C   0  0  0  0  0  3  0  0  0  0  0  0
  183.0710  178.2140  140.3890 C   0  0  0  0  0  0  0  0  0  0  0  0
  182.1450  176.0360  139.8490 C   0  0  0  0  0  3  0  0  0  0  0  0
  181.7740  178.6880  140.6440 C   0  0  0  0  0  3  0  0  0  0  0  0
  183.2480  176.8830  139.9910 C   0  0  0  0  0  3  0  0  0  0  0  0
  179.0620  178.4420  140.8330 Cl  0  0  0  0  0  0  0  0  0  0  0  0
  185.0570  176.2680  136.4000 C   0  0  0  0  0  3  0  0  0  0  0  0
  184.8550  175.2320  137.4580 C   0  0  0  0  0  1  0  0  0  0  0  0
  185.1990  177.5690  136.6780 C   0  0  0  0  0  3  0  0  0  0  0  0
  190.0420  177.4720  137.6500 C   0  0  0  0  0  2  0  0  0  0  0  0
  190.3610  173.8440  137.3390 N   0  0  0  0  0  0  0  0  0  0  0  0
  191.6160  174.1600  137.6250 N   0  0  0  0  0  2  0  0  0  0  0  0
  189.6050  174.9640  137.3190 C   0  0  0  0  0  3  0  0  0  0  0  0
  192.9310  176.2310  138.1150 C   0  0  0  0  0  1  0  0  0  0  0  0
  191.6800  175.4900  137.7960 C   0  0  0  0  0  0  0  0  0  0  0  0
  190.4280  176.0290  137.6190 C   0  0  0  0  0  0  0  0  0  0  0  0
  1 10  1  0  0  0  0
  1 12  2  0  0  0  0
  2  6  1  0  0  0  0
  2  8  2  0  0  0  0
  3  8  1  1  0  0  0
  3 11  1  0  0  0  0
  4 14  1  0  0  0  0
  7 13  2  0  0  0  0
  7 16  1  0  0  0  0
  8  1  1  0  0  0  0
  9 27  1  6  0  0  0
  9  4  1  0  0  0  0
  9 16  1  0  0  0  0
 11 17  2  0  0  0  0
 12  5  1  0  0  0  0
 13  2  1  0  0  0  0
 14 15  1  0  0  0  0
 15 20  1  6  0  0  0
 15 11  1  0  0  0  0
 16  3  1  0  0  0  0
 17 12  1  0  0  0  0
 18 22  1  0  0  0  0
 18 24  1  0  0  0  0
 19 18  2  0  0  0  0
 20 22  2  0  0  0  0
 21 23  2  0  0  0  0
 21 19  1  0  0  0  0
 23 20  1  0  0  0  0
 25 27  2  0  0  0  0
 25 26  1  0  0  0  0
 28 13  1  0  0  0  0
 29 30  1  0  0  0  0
 30 33  1  0  0  0  0
 31 29  2  0  0  0  0
 31 34  1  0  0  0  0
 33 32  1  0  0  0  0
 34 28  1  0  0  0  0
 34 33  2  0  0  0  0
M  END
>  <MODEL>
3

>  <REMARK>
 VINA RESULT:      -7.0      3.302      7.148
  Name = 
  4 active torsions:
  status: ('A' for Active; 'I' for Inactive)
    1  A    between atoms: C_12  and  C_28
    2  A    between atoms: C_18  and  C_29
    3  A    between atoms: C_20  and  C_25
    4  A    between atoms: C_20  and  C_34
                            x       y       z     vdW  Elec       q    Type
                         _______ _______ _______ _____ _____    ______ ____

>  <TORSDO>
F 4

$$$$
=
 OpenBabel10252414563D

 34 38  0  0  1  0  0  0  0  0999 V2000
  187.7610  178.3920  139.1780 C   0  0  1  0  0  3  0  0  0  0  0  0
  187.3440  178.2610  141.6130 C   0  0  0  0  0  0  0  0  0  0  0  0
  185.3610  178.1830  140.1750 C   0  0  0  0  0  0  0  0  0  0  0  0
  182.2870  177.2720  140.6910 C   0  0  0  0  0  2  0  0  0  0  0  0
  187.9640  179.0850  136.4620 Cl  0  0  0  0  0  0  0  0  0  0  0  0
  188.7150  178.4020  141.8130 O   0  0  0  0  0  1  0  0  0  0  0  0
  185.1490  177.9380  142.6380 C   0  0  0  0  0  3  0  0  0  0  0  0
  186.8330  178.3180  140.3710 C   0  0  0  0  0  0  0  0  0  0  0  0
  183.0900  178.4240  141.2770 C   0  0  2  0  0  3  0  0  0  0  0  0
  188.6720  176.8620  139.0220 Cl  0  0  0  0  0  0  0  0  0  0  0  0
  184.8630  178.1410  138.9120 C   0  0  0  0  0  0  0  0  0  0  0  0
  187.0400  178.6540  137.8860 C   0  0  0  0  0  0  0  0  0  0  0  0
  186.4720  178.0130  142.7830 C   0  0  0  0  0  0  0  0  0  0  0  0
  182.8760  176.7380  139.4560 N   0  0  0  0  0  2  0  0  0  0  0  0
  183.4380  177.7730  138.5720 C   0  0  1  0  0  3  0  0  0  0  0  0
  184.5230  178.1030  141.3550 N   0  0  0  0  0  0  0  0  0  0  0  0
  185.7270  178.4680  137.7640 C   0  0  0  0  0  3  0  0  0  0  0  0
  180.5120  179.7880  137.1630 C   0  0  0  0  0  0  0  0  0  0  0  0
  180.8130  181.0660  137.6410 C   0  0  0  0  0  3  0  0  0  0  0  0
  182.5020  178.9100  138.2450 C   0  0  0  0  0  0  0  0  0  0  0  0
  181.9550  181.2680  138.4210 C   0  0  0  0  0  3  0  0  0  0  0  0
  181.3520  178.7130  137.4640 C   0  0  0  0  0  3  0  0  0  0  0  0
  182.7980  180.1940  138.7210 C   0  0  0  0  0  3  0  0  0  0  0  0
  179.0860  179.5310  136.1820 Cl  0  0  0  0  0  0  0  0  0  0  0  0
  181.2690  179.4520  142.6490 C   0  0  0  0  0  3  0  0  0  0  0  0
  180.3920  179.6510  141.4540 C   0  0  0  0  0  1  0  0  0  0  0  0
  182.4840  178.8970  142.5710 C   0  0  0  0  0  3  0  0  0  0  0  0
  187.0580  177.9000  144.1510 C   0  0  0  0  0  2  0  0  0  0  0  0
  184.1980  178.9790  146.1550 N   0  0  0  0  0  0  0  0  0  0  0  0
  185.0490  178.6650  147.1210 N   0  0  0  0  0  2  0  0  0  0  0  0
  184.7810  178.7730  144.9540 C   0  0  0  0  0  3  0  0  0  0  0  0
  187.3890  177.8010  147.3100 C   0  0  0  0  0  1  0  0  0  0  0  0
  186.1920  178.2550  146.5500 C   0  0  0  0  0  0  0  0  0  0  0  0
  186.0630  178.3190  145.1830 C   0  0  0  0  0  0  0  0  0  0  0  0
  1 10  1  6  0  0  0
  1  8  1  0  0  0  0
  2  6  1  0  0  0  0
  2 13  1  0  0  0  0
  3  8  1  0  0  0  0
  3 16  1  0  0  0  0
  4  9  1  0  0  0  0
  5 12  1  0  0  0  0
  7 13  2  0  0  0  0
  8  2  2  0  0  0  0
  9 16  1  0  0  0  0
  9 27  1  1  0  0  0
 11  3  2  0  0  0  0
 12  1  1  0  0  0  0
 13 28  1  0  0  0  0
 14  4  1  0  0  0  0
 15 20  1  1  0  0  0
 15 11  1  0  0  0  0
 15 14  1  0  0  0  0
 16  7  1  0  0  0  0
 17 12  2  0  0  0  0
 17 11  1  0  0  0  0
 18 22  2  0  0  0  0
 18 19  1  0  0  0  0
 19 21  2  0  0  0  0
 20 23  2  0  0  0  0
 21 23  1  0  0  0  0
 22 20  1  0  0  0  0
 24 18  1  0  0  0  0
 26 25  1  0  0  0  0
 27 25  2  0  0  0  0
 28 34  1  0  0  0  0
 29 30  1  0  0  0  0
 31 34  1  0  0  0  0
 31 29  2  0  0  0  0
 33 30  1  0  0  0  0
 33 32  1  0  0  0  0
 34 33  2  0  0  0  0
M  END
>  <MODEL>
4

>  <REMARK>
 VINA RESULT:      -7.0      2.976      6.088
  Name = 
  4 active torsions:
  status: ('A' for Active; 'I' for Inactive)
    1  A    between atoms: C_12  and  C_28
    2  A    between atoms: C_18  and  C_29
    3  A    between atoms: C_20  and  C_25
    4  A    between atoms: C_20  and  C_34
                            x       y       z     vdW  Elec       q    Type
                         _______ _______ _______ _____ _____    ______ ____

>  <TORSDO>
F 4

$$$$
=
 OpenBabel10252414563D

 34 38  0  0  1  0  0  0  0  0999 V2000
  183.6420  175.4000  136.8430 C   0  0  1  0  0  3  0  0  0  0  0  0
  184.0520  177.2820  138.3970 C   0  0  0  0  0  0  0  0  0  0  0  0
  185.9430  176.6160  136.9880 C   0  0  0  0  0  0  0  0  0  0  0  0
  188.7330  178.0770  136.1930 C   0  0  0  0  0  2  0  0  0  0  0  0
  183.5660  172.9640  135.4420 Cl  0  0  0  0  0  0  0  0  0  0  0  0
  182.7530  177.1180  138.8710 O   0  0  0  0  0  1  0  0  0  0  0  0
  186.1270  178.5660  138.5170 C   0  0  0  0  0  3  0  0  0  0  0  0
  184.5450  176.4390  137.4720 C   0  0  0  0  0  0  0  0  0  0  0  0
  188.2240  177.5790  137.5380 C   0  0  2  0  0  3  0  0  0  0  0  0
  182.4020  176.2020  135.8370 Cl  0  0  0  0  0  0  0  0  0  0  0  0
  186.4010  175.8250  135.9830 C   0  0  0  0  0  0  0  0  0  0  0  0
  184.3860  174.4120  135.9890 C   0  0  0  0  0  0  0  0  0  0  0  0
  184.8590  178.4150  138.8990 C   0  0  0  0  0  0  0  0  0  0  0  0
  188.0200  177.4790  135.0580 N   0  0  0  0  0  2  0  0  0  0  0  0
  187.6980  176.0540  135.2450 C   0  0  1  0  0  3  0  0  0  0  0  0
  186.7570  177.6370  137.6190 N   0  0  0  0  0  0  0  0  0  0  0  0
  185.6200  174.6530  135.5490 C   0  0  0  0  0  3  0  0  0  0  0  0
  191.1780  174.4760  135.3830 C   0  0  0  0  0  0  0  0  0  0  0  0
  190.9940  173.5150  136.3810 C   0  0  0  0  0  3  0  0  0  0  0  0
  188.8660  175.1820  135.6360 C   0  0  0  0  0  0  0  0  0  0  0  0
  189.7520  173.3850  137.0060 C   0  0  0  0  0  3  0  0  0  0  0  0
  190.1180  175.3080  135.0130 C   0  0  0  0  0  3  0  0  0  0  0  0
  188.6900  174.2160  136.6340 C   0  0  0  0  0  3  0  0  0  0  0  0
  192.7300  174.6380  134.5940 Cl  0  0  0  0  0  0  0  0  0  0  0  0
  189.9860  177.7240  139.3080 C   0  0  0  0  0  3  0  0  0  0  0  0
  190.5460  176.3850  138.9510 C   0  0  0  0  0  1  0  0  0  0  0  0
  188.9400  178.2640  138.6710 C   0  0  0  0  0  3  0  0  0  0  0  0
  184.2820  179.3750  139.8860 C   0  0  0  0  0  2  0  0  0  0  0  0
  185.6150  178.4150  143.1510 N   0  0  0  0  0  0  0  0  0  0  0  0
  184.3160  178.3460  143.4050 N   0  0  0  0  0  2  0  0  0  0  0  0
  185.8060  178.7740  141.8630 C   0  0  0  0  0  3  0  0  0  0  0  0
  182.1720  178.7050  142.1670 C   0  0  0  0  0  1  0  0  0  0  0  0
  183.6560  178.6570  142.2790 C   0  0  0  0  0  0  0  0  0  0  0  0
  184.5640  178.9240  141.2820 C   0  0  0  0  0  0  0  0  0  0  0  0
  1 10  1  6  0  0  0
  1  8  1  0  0  0  0
  2  6  1  0  0  0  0
  2 13  1  0  0  0  0
  3  8  1  0  0  0  0
  3 16  1  0  0  0  0
  4  9  1  0  0  0  0
  5 12  1  0  0  0  0
  7 13  2  0  0  0  0
  8  2  2  0  0  0  0
  9 16  1  0  0  0  0
  9 27  1  1  0  0  0
 11  3  2  0  0  0  0
 12  1  1  0  0  0  0
 13 28  1  0  0  0  0
 14 15  1  0  0  0  0
 14  4  1  0  0  0  0
 15 20  1  1  0  0  0
 15 11  1  0  0  0  0
 16  7  1  0  0  0  0
 17 11  1  0  0  0  0
 17 12  2  0  0  0  0
 18 19  1  0  0  0  0
 19 21  2  0  0  0  0
 20 23  2  0  0  0  0
 22 18  2  0  0  0  0
 22 20  1  0  0  0  0
 23 21  1  0  0  0  0
 24 18  1  0  0  0  0
 26 25  1  0  0  0  0
 27 25  2  0  0  0  0
 28 34  1  0  0  0  0
 29 30  1  0  0  0  0
 31 29  2  0  0  0  0
 32 33  1  0  0  0  0
 33 30  1  0  0  0  0
 34 31  1  0  0  0  0
 34 33  2  0  0  0  0
M  END
>  <MODEL>
5

>  <REMARK>
 VINA RESULT:      -6.8      2.048      2.874
  Name = 
  4 active torsions:
  status: ('A' for Active; 'I' for Inactive)
    1  A    between atoms: C_12  and  C_28
    2  A    between atoms: C_18  and  C_29
    3  A    between atoms: C_20  and  C_25
    4  A    between atoms: C_20  and  C_34
                            x       y       z     vdW  Elec       q    Type
                         _______ _______ _______ _____ _____    ______ ____

>  <TORSDO>
F 4

$$$$
=
 OpenBabel10252414563D

 34 38  0  0  1  0  0  0  0  0999 V2000
  186.5860  178.5230  138.6690 C   0  0  1  0  0  3  0  0  0  0  0  0
  185.5870  178.9650  140.8890 C   0  0  0  0  0  0  0  0  0  0  0  0
  184.1710  177.7630  139.2900 C   0  0  0  0  0  0  0  0  0  0  0  0
  181.4660  175.9970  139.6210 C   0  0  0  0  0  2  0  0  0  0  0  0
  187.3030  178.4210  135.9530 Cl  0  0  0  0  0  0  0  0  0  0  0  0
  186.7550  179.6420  141.2330 O   0  0  0  0  0  1  0  0  0  0  0  0
  183.3860  178.1850  141.6090 C   0  0  0  0  0  3  0  0  0  0  0  0
  185.4340  178.4690  139.6480 C   0  0  0  0  0  0  0  0  0  0  0  0
  181.7180  177.4770  139.8640 C   0  0  2  0  0  3  0  0  0  0  0  0
  187.9040  177.4500  139.2230 Cl  0  0  0  0  0  0  0  0  0  0  0  0
  184.0640  177.1780  138.0680 C   0  0  0  0  0  0  0  0  0  0  0  0
  186.1940  178.1200  137.2750 C   0  0  0  0  0  0  0  0  0  0  0  0
  184.5430  178.7710  141.9190 C   0  0  0  0  0  0  0  0  0  0  0  0
  182.4920  175.3770  138.7720 N   0  0  0  0  0  2  0  0  0  0  0  0
  182.9500  176.2400  137.6710 C   0  0  1  0  0  3  0  0  0  0  0  0
  183.1070  177.7320  140.2740 N   0  0  0  0  0  0  0  0  0  0  0  0
  185.0730  177.4460  137.0280 C   0  0  0  0  0  3  0  0  0  0  0  0
  180.7230  178.7010  135.7740 C   0  0  0  0  0  0  0  0  0  0  0  0
  179.7690  177.8340  135.2340 C   0  0  0  0  0  3  0  0  0  0  0  0
  181.8510  176.8150  136.8120 C   0  0  0  0  0  0  0  0  0  0  0  0
  179.8530  176.4620  135.4790 C   0  0  0  0  0  3  0  0  0  0  0  0
  181.7610  178.1930  136.5590 C   0  0  0  0  0  3  0  0  0  0  0  0
  180.8900  175.9540  136.2670 C   0  0  0  0  0  3  0  0  0  0  0  0
  180.6180  180.4210  135.4730 Cl  0  0  0  0  0  0  0  0  0  0  0  0
  180.0940  179.2410  140.5800 C   0  0  0  0  0  3  0  0  0  0  0  0
  180.4170  180.1070  139.4050 C   0  0  0  0  0  1  0  0  0  0  0  0
  180.6780  178.0540  140.7870 C   0  0  0  0  0  3  0  0  0  0  0  0
  184.7480  179.2790  143.3070 C   0  0  0  0  0  2  0  0  0  0  0  0
  187.2640  176.9740  144.6180 N   0  0  0  0  0  0  0  0  0  0  0  0
  186.6210  177.2710  145.7380 N   0  0  0  0  0  2  0  0  0  0  0  0
  186.6920  177.6240  143.5810 C   0  0  0  0  0  3  0  0  0  0  0  0
  184.6820  178.6920  146.4300 C   0  0  0  0  0  1  0  0  0  0  0  0
  185.6240  178.1160  145.4320 C   0  0  0  0  0  0  0  0  0  0  0  0
  185.6330  178.3540  144.0780 C   0  0  0  0  0  0  0  0  0  0  0  0
  1 10  1  1  0  0  0
  1  8  1  0  0  0  0
  2  6  1  0  0  0  0
  2 13  1  0  0  0  0
  3  8  1  0  0  0  0
  3 16  1  0  0  0  0
  4  9  1  0  0  0  0
  5 12  1  0  0  0  0
  7 13  2  0  0  0  0
  8  2  2  0  0  0  0
  9 16  1  0  0  0  0
  9 27  1  1  0  0  0
 11  3  2  0  0  0  0
 12  1  1  0  0  0  0
 13 28  1  0  0  0  0
 14  4  1  0  0  0  0
 15 20  1  1  0  0  0
 15 11  1  0  0  0  0
 15 14  1  0  0  0  0
 16  7  1  0  0  0  0
 17 12  2  0  0  0  0
 17 11  1  0  0  0  0
 18 22  1  0  0  0  0
 19 21  1  0  0  0  0
 19 18  2  0  0  0  0
 21 23  2  0  0  0  0
 22 20  2  0  0  0  0
 23 20  1  0  0  0  0
 24 18  1  0  0  0  0
 25 27  2  0  0  0  0
 26 25  1  0  0  0  0
 28 34  1  0  0  0  0
 29 30  1  0  0  0  0
 31 34  1  0  0  0  0
 31 29  2  0  0  0  0
 33 30  1  0  0  0  0
 33 32  1  0  0  0  0
 34 33  2  0  0  0  0
M  END
>  <MODEL>
6

>  <REMARK>
 VINA RESULT:      -6.8      2.920      5.892
  Name = 
  4 active torsions:
  status: ('A' for Active; 'I' for Inactive)
    1  A    between atoms: C_12  and  C_28
    2  A    between atoms: C_18  and  C_29
    3  A    between atoms: C_20  and  C_25
    4  A    between atoms: C_20  and  C_34
                            x       y       z     vdW  Elec       q    Type
                         _______ _______ _______ _____ _____    ______ ____

>  <TORSDO>
F 4

$$$$
=
 OpenBabel10252414563D

 34 38  0  0  1  0  0  0  0  0999 V2000
  183.2940  178.4900  143.6960 C   0  0  0  0  0  0  0  0  0  0  0  0
  185.6790  178.2490  143.0820 C   0  0  0  0  0  0  0  0  0  0  0  0
  184.1350  178.7240  141.2400 C   0  0  1  0  0  3  0  0  0  0  0  0
  184.5740  179.7830  138.2010 C   0  0  0  0  0  2  0  0  0  0  0  0
  180.5210  178.2410  144.0830 Cl  0  0  0  0  0  0  0  0  0  0  0  0
  185.9510  177.9670  144.4190 O   0  0  0  0  0  1  0  0  0  0  0  0
  186.5820  178.5760  140.8350 C   0  0  0  0  0  3  0  0  0  0  0  0
  184.4110  178.4410  142.6770 C   0  0  0  0  0  0  0  0  0  0  0  0
  185.0110  178.4890  138.8720 C   0  0  2  0  0  3  0  0  0  0  0  0
  183.4690  179.9450  144.7180 Cl  0  0  0  0  0  0  0  0  0  0  0  0
  182.8650  179.0150  140.8550 C   0  0  0  0  0  0  0  0  0  0  0  0
  181.9270  178.5040  143.0720 C   0  0  0  0  0  0  0  0  0  0  0  0
  186.8070  178.3700  142.1330 C   0  0  0  0  0  0  0  0  0  0  0  0
  183.4950  180.4640  138.9280 N   0  0  0  0  0  2  0  0  0  0  0  0
  182.4910  179.5480  139.4920 C   0  0  1  0  0  3  0  0  0  0  0  0
  185.2470  178.6760  140.3110 N   0  0  0  0  0  0  0  0  0  0  0  0
  181.7430  178.8130  141.7890 C   0  0  0  0  0  3  0  0  0  0  0  0
  181.1940  176.3130  137.9210 C   0  0  0  0  0  0  0  0  0  0  0  0
  180.8460  176.7600  136.6430 C   0  0  0  0  0  3  0  0  0  0  0  0
  181.9070  178.5600  138.5130 C   0  0  0  0  0  0  0  0  0  0  0  0
  181.0260  178.1010  136.2980 C   0  0  0  0  0  3  0  0  0  0  0  0
  181.7210  177.2110  138.8530 C   0  0  0  0  0  3  0  0  0  0  0  0
  181.5560  178.9990  137.2300 C   0  0  0  0  0  3  0  0  0  0  0  0
  180.9740  174.6330  138.3550 Cl  0  0  0  0  0  0  0  0  0  0  0  0
  185.9880  176.9780  137.1340 C   0  0  0  0  0  3  0  0  0  0  0  0
  184.6390  176.5370  136.6660 C   0  0  0  0  0  1  0  0  0  0  0  0
  186.1580  177.8590  138.1270 C   0  0  0  0  0  3  0  0  0  0  0  0
  188.2130  178.2090  142.6060 C   0  0  0  0  0  2  0  0  0  0  0  0
  190.1080  177.2980  139.6160 N   0  0  0  0  0  0  0  0  0  0  0  0
  190.5550  176.3780  140.4590 N   0  0  0  0  0  2  0  0  0  0  0  0
  189.1980  178.0790  140.2390 C   0  0  0  0  0  3  0  0  0  0  0  0
  190.1810  175.7240  142.8440 C   0  0  0  0  0  1  0  0  0  0  0  0
  189.9330  176.5560  141.6350 C   0  0  0  0  0  0  0  0  0  0  0  0
  189.0630  177.6150  141.5300 C   0  0  0  0  0  0  0  0  0  0  0  0
  1 10  1  0  0  0  0
  2  6  1  0  0  0  0
  3 11  1  1  0  0  0
  3  8  1  0  0  0  0
  4  9  1  0  0  0  0
  4 14  1  0  0  0  0
  7 13  2  0  0  0  0
  8  2  2  0  0  0  0
  8  1  1  0  0  0  0
  9 27  1  6  0  0  0
  9 16  1  0  0  0  0
 11 17  2  0  0  0  0
 12  1  2  0  0  0  0
 12  5  1  0  0  0  0
 13 28  1  0  0  0  0
 13  2  1  0  0  0  0
 14 15  1  0  0  0  0
 15 20  1  6  0  0  0
 15 11  1  0  0  0  0
 16  7  1  0  0  0  0
 16  3  1  0  0  0  0
 17 12  1  0  0  0  0
 18 24  1  0  0  0  0
 18 22  1  0  0  0  0
 19 18  2  0  0  0  0
 20 22  2  0  0  0  0
 21 19  1  0  0  0  0
 21 23  2  0  0  0  0
 23 20  1  0  0  0  0
 25 27  2  0  0  0  0
 26 25  1  0  0  0  0
 29 31  2  0  0  0  0
 29 30  1  0  0  0  0
 30 33  1  0  0  0  0
 31 34  1  0  0  0  0
 33 32  1  0  0  0  0
 34 33  2  0  0  0  0
 34 28  1  0  0  0  0
M  END
>  <MODEL>
7

>  <REMARK>
 VINA RESULT:      -6.6      3.006      5.725
  Name = 
  4 active torsions:
  status: ('A' for Active; 'I' for Inactive)
    1  A    between atoms: C_12  and  C_28
    2  A    between atoms: C_18  and  C_29
    3  A    between atoms: C_20  and  C_25
    4  A    between atoms: C_20  and  C_34
                            x       y       z     vdW  Elec       q    Type
                         _______ _______ _______ _____ _____    ______ ____

>  <TORSDO>
F 4

$$$$
=
 OpenBabel10252414563D

 34 38  0  0  1  0  0  0  0  0999 V2000
  184.8310  179.1100  141.9200 C   0  0  0  0  0  0  0  0  0  0  0  0
  185.8570  178.8900  139.6800 C   0  0  0  0  0  0  0  0  0  0  0  0
  187.1320  177.9440  141.5460 C   0  0  2  0  0  3  0  0  0  0  0  0
  189.6050  175.8440  141.6990 C   0  0  0  0  0  2  0  0  0  0  0  0
  184.1300  179.7420  144.5680 Cl  0  0  0  0  0  0  0  0  0  0  0  0
  184.7760  179.5990  139.1610 O   0  0  0  0  0  1  0  0  0  0  0  0
  187.9430  177.7070  139.2090 C   0  0  0  0  0  3  0  0  0  0  0  0
  185.9600  178.6900  141.0050 C   0  0  0  0  0  0  0  0  0  0  0  0
  189.5290  177.2440  141.1060 C   0  0  2  0  0  3  0  0  0  0  0  0
  183.3900  178.1000  141.6090 Cl  0  0  0  0  0  0  0  0  0  0  0  0
  187.1790  177.6590  142.8740 C   0  0  0  0  0  0  0  0  0  0  0  0
  185.1830  179.0060  143.3770 C   0  0  0  0  0  0  0  0  0  0  0  0
  186.8620  178.3350  138.7470 C   0  0  0  0  0  0  0  0  0  0  0  0
  188.5200  175.5700  142.6490 N   0  0  0  0  0  2  0  0  0  0  0  0
  188.1770  176.7170  143.5050 C   0  0  1  0  0  3  0  0  0  0  0  0
  188.1780  177.5550  140.6190 N   0  0  0  0  0  0  0  0  0  0  0  0
  186.2190  178.2840  143.8000 C   0  0  0  0  0  3  0  0  0  0  0  0
  191.0780  177.2940  145.9270 C   0  0  0  0  0  0  0  0  0  0  0  0
  191.4880  178.5760  145.5510 C   0  0  0  0  0  3  0  0  0  0  0  0
  189.3440  177.3470  144.2250 C   0  0  0  0  0  0  0  0  0  0  0  0
  190.8300  179.2440  144.5150 C   0  0  0  0  0  3  0  0  0  0  0  0
  190.0110  176.6810  145.2660 C   0  0  0  0  0  3  0  0  0  0  0  0
  189.7610  178.6310  143.8550 C   0  0  0  0  0  3  0  0  0  0  0  0
  191.8950  176.4570  147.2280 Cl  0  0  0  0  0  0  0  0  0  0  0  0
  191.9180  177.5380  140.4230 C   0  0  0  0  0  3  0  0  0  0  0  0
  192.4030  177.4160  141.8320 C   0  0  0  0  0  1  0  0  0  0  0  0
  190.6230  177.4580  140.0940 C   0  0  0  0  0  3  0  0  0  0  0  0
  186.7080  178.5190  137.2730 C   0  0  0  0  0  2  0  0  0  0  0  0
  186.1350  175.2500  135.7420 N   0  0  0  0  0  0  0  0  0  0  0  0
  187.3530  175.5060  135.2850 N   0  0  0  0  0  0  0  0  0  0  0  0
  185.7230  176.2670  136.5290 C   0  0  0  0  0  2  0  0  0  0  0  0
  189.0480  177.3350  135.4780 C   0  0  0  0  0  1  0  0  0  0  0  0
  187.7390  176.6930  135.7780 C   0  0  0  0  0  0  0  0  0  0  0  0
  186.7390  177.1980  136.5750 C   0  0  0  0  0  0  0  0  0  0  0  0
  1 12  2  0  0  0  0
  2  8  2  0  0  0  0
  3  8  1  1  0  0  0
  3 11  1  0  0  0  0
  4 14  1  0  0  0  0
  6  2  1  0  0  0  0
  7 16  1  0  0  0  0
  8  1  1  0  0  0  0
  9 27  1  6  0  0  0
  9  4  1  0  0  0  0
 10  1  1  0  0  0  0
 11 15  1  0  0  0  0
 11 17  2  0  0  0  0
 12 17  1  0  0  0  0
 12  5  1  0  0  0  0
 13  7  2  0  0  0  0
 13  2  1  0  0  0  0
 14 15  1  0  0  0  0
 15 20  1  6  0  0  0
 16  9  1  0  0  0  0
 16  3  1  0  0  0  0
 18 24  1  0  0  0  0
 19 18  1  0  0  0  0
 20 22  1  0  0  0  0
 21 19  2  0  0  0  0
 22 18  2  0  0  0  0
 23 20  2  0  0  0  0
 23 21  1  0  0  0  0
 25 26  1  0  0  0  0
 27 25  2  0  0  0  0
 28 13  1  0  0  0  0
 29 31  1  0  0  0  0
 30 29  2  0  0  0  0
 30 33  1  0  0  0  0
 31 34  1  0  0  0  0
 32 33  1  0  0  0  0
 33 34  2  0  0  0  0
 34 28  1  0  0  0  0
M  END
>  <MODEL>
8

>  <REMARK>
 VINA RESULT:      -6.6      3.310      6.981
  Name = 
  4 active torsions:
  status: ('A' for Active; 'I' for Inactive)
    1  A    between atoms: C_12  and  C_28
    2  A    between atoms: C_18  and  C_29
    3  A    between atoms: C_20  and  C_25
    4  A    between atoms: C_20  and  C_34
                            x       y       z     vdW  Elec       q    Type
                         _______ _______ _______ _____ _____    ______ ____

>  <TORSDO>
F 4

$$$$
=
 OpenBabel10252414563D

 34 38  0  0  1  0  0  0  0  0999 V2000
  185.5300  178.3000  142.1880 C   0  0  0  0  0  0  0  0  0  0  0  0
  187.8480  178.0910  143.0280 C   0  0  0  0  0  0  0  0  0  0  0  0
  187.5790  178.0700  140.5930 C   0  0  1  0  0  3  0  0  0  0  0  0
  189.6550  178.4970  138.1330 C   0  0  0  0  0  2  0  0  0  0  0  0
  182.9800  177.9590  141.0570 Cl  0  0  0  0  0  0  0  0  0  0  0  0
  187.3360  178.1120  144.3240 O   0  0  0  0  0  1  0  0  0  0  0  0
  189.8410  177.9980  141.6180 C   0  0  0  0  0  3  0  0  0  0  0  0
  187.0160  178.1110  141.9720 C   0  0  0  0  0  0  0  0  0  0  0  0
  189.5810  177.4030  139.1870 C   0  0  2  0  0  3  0  0  0  0  0  0
  185.2120  179.9450  142.8100 Cl  0  0  0  0  0  0  0  0  0  0  0  0
  186.7390  178.1920  139.5320 C   0  0  0  0  0  0  0  0  0  0  0  0
  184.7220  178.0960  140.9380 C   0  0  0  0  0  0  0  0  0  0  0  0
  189.3160  178.0830  142.8390 C   0  0  0  0  0  0  0  0  0  0  0  0
  188.3990  179.2440  137.9990 N   0  0  0  0  0  2  0  0  0  0  0  0
  187.1950  178.4030  138.1080 C   0  0  1  0  0  3  0  0  0  0  0  0
  189.0120  177.9010  140.4480 N   0  0  0  0  0  0  0  0  0  0  0  0
  185.2810  178.1170  139.7290 C   0  0  0  0  0  3  0  0  0  0  0  0
  186.8070  174.8260  136.8170 C   0  0  0  0  0  0  0  0  0  0  0  0
  187.1870  174.9820  135.4810 C   0  0  0  0  0  3  0  0  0  0  0  0
  187.1750  177.1970  137.2020 C   0  0  0  0  0  0  0  0  0  0  0  0
  187.5600  176.2410  135.0040 C   0  0  0  0  0  3  0  0  0  0  0  0
  186.8000  175.9290  137.6740 C   0  0  0  0  0  3  0  0  0  0  0  0
  187.5550  177.3450  135.8620 C   0  0  0  0  0  3  0  0  0  0  0  0
  186.3440  173.2500  137.4200 Cl  0  0  0  0  0  0  0  0  0  0  0  0
  191.3050  175.7140  138.5260 C   0  0  0  0  0  3  0  0  0  0  0  0
  190.4670  175.2050  137.3980 C   0  0  0  0  0  1  0  0  0  0  0  0
  190.9080  176.7060  139.3330 C   0  0  0  0  0  3  0  0  0  0  0  0
  190.2300  178.1150  144.0200 C   0  0  0  0  0  2  0  0  0  0  0  0
  191.8740  174.8600  143.7650 N   0  0  0  0  0  0  0  0  0  0  0  0
  192.0260  175.0930  145.0610 N   0  0  0  0  0  2  0  0  0  0  0  0
  191.2010  175.8840  143.1980 C   0  0  0  0  0  3  0  0  0  0  0  0
  191.4240  176.8870  146.6960 C   0  0  0  0  0  1  0  0  0  0  0  0
  191.4490  176.2710  145.3420 C   0  0  0  0  0  0  0  0  0  0  0  0
  190.9090  176.7950  144.1910 C   0  0  0  0  0  0  0  0  0  0  0  0
  1 10  1  0  0  0  0
  2  6  1  0  0  0  0
  3 11  1  1  0  0  0
  3  8  1  0  0  0  0
  4  9  1  0  0  0  0
  7 13  2  0  0  0  0
  8  1  1  0  0  0  0
  8  2  2  0  0  0  0
  9 27  1  1  0  0  0
  9 16  1  0  0  0  0
 11 17  2  0  0  0  0
 12  5  1  0  0  0  0
 12  1  2  0  0  0  0
 13  2  1  0  0  0  0
 13 28  1  0  0  0  0
 14 15  1  0  0  0  0
 14  4  1  0  0  0  0
 15 20  1  1  0  0  0
 15 11  1  0  0  0  0
 16  3  1  0  0  0  0
 16  7  1  0  0  0  0
 17 12  1  0  0  0  0
 18 24  1  0  0  0  0
 18 22  1  0  0  0  0
 19 18  2  0  0  0  0
 20 22  2  0  0  0  0
 21 19  1  0  0  0  0
 21 23  2  0  0  0  0
 23 20  1  0  0  0  0
 25 27  2  0  0  0  0
 26 25  1  0  0  0  0
 28 34  1  0  0  0  0
 29 30  1  0  0  0  0
 30 33  1  0  0  0  0
 31 29  2  0  0  0  0
 31 34  1  0  0  0  0
 33 32  1  0  0  0  0
 34 33  2  0  0  0  0
M  END
>  <MODEL>
9

>  <REMARK>
 VINA RESULT:      -6.6      2.764      3.781
  Name = 
  4 active torsions:
  status: ('A' for Active; 'I' for Inactive)
    1  A    between atoms: C_12  and  C_28
    2  A    between atoms: C_18  and  C_29
    3  A    between atoms: C_20  and  C_25
    4  A    between atoms: C_20  and  C_34
                            x       y       z     vdW  Elec       q    Type
                         _______ _______ _______ _____ _____    ______ ____

>  <TORSDO>
F 4

$$$$
