=
 OpenBabel10262420463D

 28 30  0  0  1  0  0  0  0  0999 V2000
  190.4130  175.7110  143.7040 O   0  0  0  0  0  0  0  0  0  0  0  0
  190.6110  176.9660  143.1140 C   0  0  2  0  0  3  0  0  0  0  0  0
  191.7670  177.0940  145.9420 C   0  0  0  0  0  2  0  0  0  0  0  0
  191.0820  179.3440  143.7870 C   0  0  0  0  0  1  0  0  0  0  0  0
  191.7980  175.5940  145.6470 C   0  0  0  0  0  2  0  0  0  0  0  0
  190.4240  177.7610  145.5920 C   0  0  1  0  0  3  0  0  0  0  0  0
  191.6770  175.3190  144.1560 C   0  0  0  0  0  2  0  0  0  0  0  0
  190.2640  178.1020  144.1020 C   0  0  2  0  0  3  0  0  0  0  0  0
  189.7670  177.0690  141.8340 C   0  0  1  0  0  3  0  0  0  0  0  0
  188.6350  177.8040  139.3220 C   0  0  0  0  0  3  0  0  0  0  0  0
  188.9980  178.3870  141.7490 C   0  0  0  0  0  2  0  0  0  0  0  0
  191.6820  177.8040  140.5610 O   0  0  0  0  0  1  0  0  0  0  0  0
  190.6140  176.9030  140.5580 C   0  0  2  0  0  3  0  0  0  0  0  0
  189.7910  177.1220  139.3140 C   0  0  0  0  0  3  0  0  0  0  0  0
  188.0030  178.3180  140.5920 C   0  0  0  0  0  2  0  0  0  0  0  0
  189.2840  176.9860  146.0700 N   0  0  0  0  0  2  0  0  0  0  0  0
  188.1240  177.5350  148.4230 S   0  0  0  0  0  0  0  0  0  0  0  0
  188.1730  177.5430  146.7860 C   0  0  0  0  0  0  0  0  0  0  0  0
  186.8140  177.8730  144.7850 C   0  0  0  0  0  3  0  0  0  0  0  0
  187.0640  178.1640  146.0570 C   0  0  0  0  0  3  0  0  0  0  0  0
  184.5490  178.8100  145.0460 C   0  0  0  0  0  2  0  0  0  0  0  0
  185.1960  177.5670  142.9740 C   0  0  0  0  0  2  0  0  0  0  0  0
  182.6500  179.1160  143.3820 C   0  0  1  0  0  3  0  0  0  0  0  0
  185.6800  178.5150  144.0630 C   0  0  2  0  0  3  0  0  0  0  0  0
  183.3640  179.0080  142.0640 C   0  0  0  0  0  3  0  0  0  0  0  0
  184.4980  178.3180  141.8800 C   0  0  0  0  0  3  0  0  0  0  0  0
  182.1710  177.8830  143.7930 F   0  0  0  0  0  0  0  0  0  0  0  0
  183.5150  179.7680  144.4600 C   0  0  0  0  0  2  0  0  0  0  0  0
  1  7  1  0  0  0  0
  2  1  1  1  0  0  0
  2  8  1  0  0  0  0
  5  3  1  0  0  0  0
  6  3  1  0  0  0  0
  6 16  1  6  0  0  0
  7  5  1  0  0  0  0
  8  4  1  6  0  0  0
  8  6  1  0  0  0  0
  9 11  1  6  0  0  0
  9  2  1  0  0  0  0
 10 15  1  0  0  0  0
 13 12  1  1  0  0  0
 13  9  1  0  0  0  0
 14 10  2  0  0  0  0
 14 13  1  0  0  0  0
 15 11  1  0  0  0  0
 16 18  1  0  0  0  0
 18 17  2  0  0  0  0
 19 20  2  0  0  0  0
 20 18  1  0  0  0  0
 22 24  1  0  0  0  0
 23 27  1  1  0  0  0
 23 28  1  0  0  0  0
 24 19  1  1  0  0  0
 24 21  1  0  0  0  0
 25 23  1  0  0  0  0
 26 25  2  0  0  0  0
 26 22  1  0  0  0  0
 28 21  1  0  0  0  0
M  END
>  <MODEL>
1

>  <REMARK>
 VINA RESULT:      -8.4      0.000      0.000
  Name = 
  5 active torsions:
  status: ('A' for Active; 'I' for Inactive)
    1  A    between atoms: C_2  and  C_3
    2  A    between atoms: N_5  and  C_20
    3  A    between atoms: N_5  and  C_21
    4  A    between atoms: C_10  and  C_13
    5  A    between atoms: C_20  and  C_25
                            x       y       z     vdW  Elec       q    Type
                         _______ _______ _______ _____ _____    ______ ____

>  <TORSDO>
F 5

$$$$
=
 OpenBabel10262420463D

 28 30  0  0  1  0  0  0  0  0999 V2000
  190.3390  178.6760  143.5980 O   0  0  0  0  0  0  0  0  0  0  0  0
  189.6920  177.5640  144.1540 C   0  0  2  0  0  3  0  0  0  0  0  0
  190.9090  176.6750  141.4940 C   0  0  0  0  0  2  0  0  0  0  0  0
  188.7730  175.3330  143.4460 C   0  0  0  0  0  1  0  0  0  0  0  0
  191.7690  177.8860  141.8550 C   0  0  0  0  0  2  0  0  0  0  0  0
  189.3980  176.9290  141.6410 C   0  0  1  0  0  3  0  0  0  0  0  0
  191.6410  178.2400  143.3280 C   0  0  0  0  0  2  0  0  0  0  0  0
  188.8790  176.8040  143.0820 C   0  0  2  0  0  3  0  0  0  0  0  0
  188.7900  178.0230  145.3110 C   0  0  1  0  0  3  0  0  0  0  0  0
  187.1460  178.1890  147.6350 C   0  0  0  0  0  3  0  0  0  0  0  0
  187.4070  177.3740  145.2610 C   0  0  0  0  0  2  0  0  0  0  0  0
  189.7820  176.4050  146.8030 O   0  0  0  0  0  1  0  0  0  0  0  0
  189.4200  177.7500  146.6900 C   0  0  2  0  0  3  0  0  0  0  0  0
  188.4740  178.1000  147.8100 C   0  0  0  0  0  3  0  0  0  0  0  0
  186.4940  178.0540  146.2810 C   0  0  0  0  0  2  0  0  0  0  0  0
  188.9950  178.2030  141.0550 N   0  0  0  0  0  2  0  0  0  0  0  0
  188.3030  178.1180  138.4680 S   0  0  0  0  0  0  0  0  0  0  0  0
  187.9760  178.3460  140.0570 C   0  0  0  0  0  0  0  0  0  0  0  0
  186.2580  178.8330  141.7210 C   0  0  0  0  0  3  0  0  0  0  0  0
  186.6010  178.6690  140.4480 C   0  0  0  0  0  3  0  0  0  0  0  0
  184.7600  179.3560  143.6080 C   0  0  0  0  0  2  0  0  0  0  0  0
  183.9490  178.0220  141.6540 C   0  0  0  0  0  2  0  0  0  0  0  0
  182.2440  179.1070  143.8820 C   0  0  1  0  0  3  0  0  0  0  0  0
  184.8550  179.1640  142.0960 C   0  0  2  0  0  3  0  0  0  0  0  0
  181.7820  178.9800  142.4570 C   0  0  0  0  0  3  0  0  0  0  0  0
  182.5400  178.4970  141.4630 C   0  0  0  0  0  3  0  0  0  0  0  0
  182.4880  177.8620  144.4400 F   0  0  0  0  0  0  0  0  0  0  0  0
  183.4540  180.0300  144.0210 C   0  0  0  0  0  2  0  0  0  0  0  0
  2  1  1  6  0  0  0
  2  9  1  0  0  0  0
  3  6  1  0  0  0  0
  3  5  1  0  0  0  0
  5  7  1  0  0  0  0
  6 16  1  1  0  0  0
  6  8  1  0  0  0  0
  7  1  1  0  0  0  0
  8  4  1  1  0  0  0
  8  2  1  0  0  0  0
  9 11  1  1  0  0  0
  9 13  1  0  0  0  0
 10 14  2  0  0  0  0
 11 15  1  0  0  0  0
 13 12  1  6  0  0  0
 13 14  1  0  0  0  0
 15 10  1  0  0  0  0
 17 18  2  0  0  0  0
 18 20  1  0  0  0  0
 18 16  1  0  0  0  0
 20 19  2  0  0  0  0
 21 28  1  0  0  0  0
 22 24  1  0  0  0  0
 23 28  1  0  0  0  0
 23 27  1  6  0  0  0
 24 19  1  1  0  0  0
 24 21  1  0  0  0  0
 25 23  1  0  0  0  0
 26 22  1  0  0  0  0
 26 25  2  0  0  0  0
M  END
>  <MODEL>
2

>  <REMARK>
 VINA RESULT:      -7.6      2.694      4.754
  Name = 
  5 active torsions:
  status: ('A' for Active; 'I' for Inactive)
    1  A    between atoms: C_2  and  C_3
    2  A    between atoms: N_5  and  C_20
    3  A    between atoms: N_5  and  C_21
    4  A    between atoms: C_10  and  C_13
    5  A    between atoms: C_20  and  C_25
                            x       y       z     vdW  Elec       q    Type
                         _______ _______ _______ _____ _____    ______ ____

>  <TORSDO>
F 5

$$$$
=
 OpenBabel10262420463D

 28 30  0  0  1  0  0  0  0  0999 V2000
  188.4620  175.4730  137.9270 O   0  0  0  0  0  0  0  0  0  0  0  0
  188.0800  176.7430  137.4770 C   0  0  2  0  0  3  0  0  0  0  0  0
  191.1020  176.8090  137.9370 C   0  0  0  0  0  2  0  0  0  0  0  0
  188.9410  179.1070  137.4610 C   0  0  0  0  0  1  0  0  0  0  0  0
  190.8380  175.3170  137.7320 C   0  0  0  0  0  2  0  0  0  0  0  0
  190.1250  177.4760  138.9220 C   0  0  1  0  0  3  0  0  0  0  0  0
  189.4920  175.0780  137.0660 C   0  0  0  0  0  2  0  0  0  0  0  0
  188.7700  177.8520  138.3020 C   0  0  2  0  0  3  0  0  0  0  0  0
  186.5500  176.8720  137.5460 C   0  0  1  0  0  3  0  0  0  0  0  0
  183.8310  177.6940  137.2910 C   0  0  0  0  0  3  0  0  0  0  0  0
  186.1060  178.1320  138.2900 C   0  0  0  0  0  2  0  0  0  0  0  0
  186.4720  177.8350  135.3340 O   0  0  0  0  0  1  0  0  0  0  0  0
  185.8960  176.8600  136.1520 C   0  0  2  0  0  3  0  0  0  0  0  0
  184.4110  177.1030  136.2340 C   0  0  0  0  0  3  0  0  0  0  0  0
  184.6000  178.0690  138.5340 C   0  0  0  0  0  2  0  0  0  0  0  0
  189.9360  176.6820  140.1320 N   0  0  0  0  0  2  0  0  0  0  0  0
  191.1690  177.4880  142.3710 S   0  0  0  0  0  0  0  0  0  0  0  0
  189.8370  177.2330  141.4520 C   0  0  0  0  0  0  0  0  0  0  0  0
  188.0040  176.9960  143.0470 C   0  0  0  0  0  3  0  0  0  0  0  0
  188.5300  177.6140  141.9950 C   0  0  0  0  0  3  0  0  0  0  0  0
  185.9330  178.2340  142.5410 C   0  0  0  0  0  2  0  0  0  0  0  0
  186.8890  178.2170  144.8510 C   0  0  0  0  0  2  0  0  0  0  0  0
  184.2060  179.3220  144.0590 C   0  0  1  0  0  3  0  0  0  0  0  0
  186.6750  177.4010  143.5840 C   0  0  2  0  0  3  0  0  0  0  0  0
  184.4840  178.6590  145.3790 C   0  0  0  0  0  3  0  0  0  0  0  0
  185.6790  178.1660  145.7340 C   0  0  0  0  0  3  0  0  0  0  0  0
  184.9240  180.5000  143.9320 F   0  0  0  0  0  0  0  0  0  0  0  0
  184.4510  178.3860  142.8760 C   0  0  0  0  0  2  0  0  0  0  0  0
  2  9  1  0  0  0  0
  2  1  1  1  0  0  0
  2  8  1  0  0  0  0
  3  6  1  0  0  0  0
  5  3  1  0  0  0  0
  6 16  1  1  0  0  0
  7  5  1  0  0  0  0
  7  1  1  0  0  0  0
  8  4  1  6  0  0  0
  8  6  1  0  0  0  0
  9 11  1  6  0  0  0
 10 15  1  0  0  0  0
 11 15  1  0  0  0  0
 13 12  1  6  0  0  0
 13 14  1  0  0  0  0
 13  9  1  0  0  0  0
 14 10  2  0  0  0  0
 16 18  1  0  0  0  0
 18 20  1  0  0  0  0
 18 17  2  0  0  0  0
 20 19  2  0  0  0  0
 21 28  1  0  0  0  0
 21 24  1  0  0  0  0
 22 26  1  0  0  0  0
 23 27  1  6  0  0  0
 23 25  1  0  0  0  0
 24 19  1  6  0  0  0
 24 22  1  0  0  0  0
 25 26  2  0  0  0  0
 28 23  1  0  0  0  0
M  END
>  <MODEL>
3

>  <REMARK>
 VINA RESULT:      -7.5      3.342      5.402
  Name = 
  5 active torsions:
  status: ('A' for Active; 'I' for Inactive)
    1  A    between atoms: C_2  and  C_3
    2  A    between atoms: N_5  and  C_20
    3  A    between atoms: N_5  and  C_21
    4  A    between atoms: C_10  and  C_13
    5  A    between atoms: C_20  and  C_25
                            x       y       z     vdW  Elec       q    Type
                         _______ _______ _______ _____ _____    ______ ____

>  <TORSDO>
F 5

$$$$
=
 OpenBabel10262420463D

 28 30  0  0  1  0  0  0  0  0999 V2000
  189.8630  178.7580  143.9470 O   0  0  0  0  0  0  0  0  0  0  0  0
  189.0560  177.6850  144.3510 C   0  0  2  0  0  3  0  0  0  0  0  0
  190.9740  176.6300  142.2170 C   0  0  0  0  0  2  0  0  0  0  0  0
  188.3330  175.4200  143.5320 C   0  0  0  0  0  1  0  0  0  0  0  0
  191.7200  177.8560  142.7440 C   0  0  0  0  0  2  0  0  0  0  0  0
  189.4920  176.9000  141.9020 C   0  0  1  0  0  3  0  0  0  0  0  0
  191.1760  178.2990  144.0940 C   0  0  0  0  0  2  0  0  0  0  0  0
  188.5740  176.8660  143.1330 C   0  0  2  0  0  3  0  0  0  0  0  0
  187.8670  178.2180  145.1670 C   0  0  1  0  0  3  0  0  0  0  0  0
  185.6050  178.5280  146.8740 C   0  0  0  0  0  3  0  0  0  0  0  0
  186.5370  177.6170  144.7140 C   0  0  0  0  0  2  0  0  0  0  0  0
  188.2860  176.6230  146.9290 O   0  0  0  0  0  1  0  0  0  0  0  0
  188.0360  177.9740  146.6780 C   0  0  2  0  0  3  0  0  0  0  0  0
  186.8120  178.3980  147.4480 C   0  0  0  0  0  3  0  0  0  0  0  0
  185.3900  178.3660  145.3890 C   0  0  0  0  0  2  0  0  0  0  0  0
  189.3060  178.1400  141.1530 N   0  0  0  0  0  2  0  0  0  0  0  0
  189.4450  177.9560  138.4830 S   0  0  0  0  0  0  0  0  0  0  0  0
  188.6420  178.2240  139.8850 C   0  0  0  0  0  0  0  0  0  0  0  0
  186.4890  178.7250  140.9230 C   0  0  0  0  0  3  0  0  0  0  0  0
  187.2090  178.5230  139.8240 C   0  0  0  0  0  3  0  0  0  0  0  0
  184.2680  178.1520  141.8230 C   0  0  0  0  0  2  0  0  0  0  0  0
  184.5620  178.7570  139.4150 C   0  0  0  0  0  2  0  0  0  0  0  0
  181.9360  178.3880  140.8350 C   0  0  1  0  0  3  0  0  0  0  0  0
  185.0340  179.0300  140.8370 C   0  0  2  0  0  3  0  0  0  0  0  0
  182.1600  179.3830  139.7310 C   0  0  0  0  0  3  0  0  0  0  0  0
  183.3300  179.5490  139.0970 C   0  0  0  0  0  3  0  0  0  0  0  0
  182.0660  177.0900  140.3710 F   0  0  0  0  0  0  0  0  0  0  0  0
  182.8390  178.6450  142.0410 C   0  0  0  0  0  2  0  0  0  0  0  0
  1  7  1  0  0  0  0
  2  1  1  6  0  0  0
  2  9  1  0  0  0  0
  3  5  1  0  0  0  0
  5  7  1  0  0  0  0
  6 16  1  1  0  0  0
  6  3  1  0  0  0  0
  6  8  1  0  0  0  0
  8  4  1  1  0  0  0
  8  2  1  0  0  0  0
  9 11  1  6  0  0  0
  9 13  1  0  0  0  0
 10 14  2  0  0  0  0
 11 15  1  0  0  0  0
 13 12  1  6  0  0  0
 13 14  1  0  0  0  0
 15 10  1  0  0  0  0
 17 18  2  0  0  0  0
 18 16  1  0  0  0  0
 20 18  1  0  0  0  0
 20 19  2  0  0  0  0
 21 28  1  0  0  0  0
 22 24  1  0  0  0  0
 23 27  1  6  0  0  0
 23 28  1  0  0  0  0
 24 19  1  6  0  0  0
 24 21  1  0  0  0  0
 25 23  1  0  0  0  0
 26 22  1  0  0  0  0
 26 25  2  0  0  0  0
M  END
>  <MODEL>
4

>  <REMARK>
 VINA RESULT:      -7.4      2.812      5.034
  Name = 
  5 active torsions:
  status: ('A' for Active; 'I' for Inactive)
    1  A    between atoms: C_2  and  C_3
    2  A    between atoms: N_5  and  C_20
    3  A    between atoms: N_5  and  C_21
    4  A    between atoms: C_10  and  C_13
    5  A    between atoms: C_20  and  C_25
                            x       y       z     vdW  Elec       q    Type
                         _______ _______ _______ _____ _____    ______ ____

>  <TORSDO>
F 5

$$$$
=
 OpenBabel10262420463D

 28 30  0  0  1  0  0  0  0  0999 V2000
  190.0840  175.3040  138.2540 O   0  0  0  0  0  0  0  0  0  0  0  0
  189.3030  176.4270  137.9520 C   0  0  2  0  0  3  0  0  0  0  0  0
  191.8290  177.4240  139.3560 C   0  0  0  0  0  2  0  0  0  0  0  0
  189.0550  178.8300  138.6530 C   0  0  0  0  0  1  0  0  0  0  0  0
  192.2790  176.0710  138.8020 C   0  0  0  0  0  2  0  0  0  0  0  0
  190.4740  177.3700  140.0840 C   0  0  1  0  0  3  0  0  0  0  0  0
  191.3420  175.5800  137.7090 C   0  0  0  0  0  2  0  0  0  0  0  0
  189.2580  177.4070  139.1460 C   0  0  2  0  0  3  0  0  0  0  0  0
  187.8890  175.9760  137.5520 C   0  0  1  0  0  3  0  0  0  0  0  0
  185.4780  175.3460  136.1680 C   0  0  0  0  0  3  0  0  0  0  0  0
  187.0350  177.1320  137.0330 C   0  0  0  0  0  2  0  0  0  0  0  0
  188.6720  175.2400  135.3910 O   0  0  0  0  0  1  0  0  0  0  0  0
  187.9080  174.8550  136.4960 C   0  0  2  0  0  3  0  0  0  0  0  0
  186.5170  174.5070  136.0320 C   0  0  0  0  0  3  0  0  0  0  0  0
  185.5880  176.6660  136.8910 C   0  0  0  0  0  2  0  0  0  0  0  0
  190.3860  176.2370  140.9990 N   0  0  0  0  0  2  0  0  0  0  0  0
  191.0210  176.1340  143.6010 S   0  0  0  0  0  0  0  0  0  0  0  0
  189.9640  176.3350  142.3660 C   0  0  0  0  0  0  0  0  0  0  0  0
  188.2210  177.1580  143.8640 C   0  0  0  0  0  3  0  0  0  0  0  0
  188.5700  176.6530  142.6850 C   0  0  0  0  0  3  0  0  0  0  0  0
  186.1610  178.1700  142.9640 C   0  0  0  0  0  2  0  0  0  0  0  0
  186.7500  178.3900  145.3840 C   0  0  0  0  0  2  0  0  0  0  0  0
  184.1410  179.1960  144.1210 C   0  0  1  0  0  3  0  0  0  0  0  0
  186.7970  177.4770  144.1660 C   0  0  2  0  0  3  0  0  0  0  0  0
  184.2650  178.6480  145.5150 C   0  0  0  0  0  3  0  0  0  0  0  0
  185.4260  178.2880  146.0800 C   0  0  0  0  0  3  0  0  0  0  0  0
  184.7750  180.4220  144.0090 F   0  0  0  0  0  0  0  0  0  0  0  0
  184.6380  178.2100  143.0640 C   0  0  0  0  0  2  0  0  0  0  0  0
  2  1  1  1  0  0  0
  2  8  1  0  0  0  0
  3  6  1  0  0  0  0
  5  3  1  0  0  0  0
  6 16  1  6  0  0  0
  7  1  1  0  0  0  0
  7  5  1  0  0  0  0
  8  4  1  6  0  0  0
  8  6  1  0  0  0  0
  9 11  1  6  0  0  0
  9  2  1  0  0  0  0
 10 15  1  0  0  0  0
 13 12  1  6  0  0  0
 13  9  1  0  0  0  0
 14 10  2  0  0  0  0
 14 13  1  0  0  0  0
 15 11  1  0  0  0  0
 16 18  1  0  0  0  0
 18 20  1  0  0  0  0
 18 17  2  0  0  0  0
 20 19  2  0  0  0  0
 21 28  1  0  0  0  0
 21 24  1  0  0  0  0
 22 26  1  0  0  0  0
 23 27  1  1  0  0  0
 23 25  1  0  0  0  0
 24 19  1  6  0  0  0
 24 22  1  0  0  0  0
 25 26  2  0  0  0  0
 28 23  1  0  0  0  0
M  END
>  <MODEL>
5

>  <REMARK>
 VINA RESULT:      -7.2      3.086      4.827
  Name = 
  5 active torsions:
  status: ('A' for Active; 'I' for Inactive)
    1  A    between atoms: C_2  and  C_3
    2  A    between atoms: N_5  and  C_20
    3  A    between atoms: N_5  and  C_21
    4  A    between atoms: C_10  and  C_13
    5  A    between atoms: C_20  and  C_25
                            x       y       z     vdW  Elec       q    Type
                         _______ _______ _______ _____ _____    ______ ____

>  <TORSDO>
F 5

$$$$
=
 OpenBabel10262420463D

 28 30  0  0  1  0  0  0  0  0999 V2000
  188.2910  175.6120  137.9500 O   0  0  0  0  0  0  0  0  0  0  0  0
  187.8850  176.8060  137.3380 C   0  0  2  0  0  3  0  0  0  0  0  0
  190.8250  177.1320  138.1120 C   0  0  0  0  0  2  0  0  0  0  0  0
  188.5960  179.2130  137.1810 C   0  0  0  0  0  1  0  0  0  0  0  0
  190.6790  175.6120  138.0280 C   0  0  0  0  0  2  0  0  0  0  0  0
  189.7030  177.8130  138.9160 C   0  0  1  0  0  3  0  0  0  0  0  0
  189.4350  175.2160  137.2490 C   0  0  0  0  0  2  0  0  0  0  0  0
  188.4080  178.0330  138.1190 C   0  0  2  0  0  3  0  0  0  0  0  0
  186.3520  176.8300  137.2300 C   0  0  1  0  0  3  0  0  0  0  0  0
  183.6310  177.4730  136.6710 C   0  0  0  0  0  3  0  0  0  0  0  0
  185.7390  178.0370  137.9380 C   0  0  0  0  0  2  0  0  0  0  0  0
  186.4650  177.8410  135.0410 O   0  0  0  0  0  1  0  0  0  0  0  0
  185.8670  176.8080  135.7690 C   0  0  2  0  0  3  0  0  0  0  0  0
  184.3690  176.9490  135.6790 C   0  0  0  0  0  3  0  0  0  0  0  0
  184.2220  177.8680  138.0020 C   0  0  0  0  0  2  0  0  0  0  0  0
  189.4270  177.1210  140.1710 N   0  0  0  0  0  2  0  0  0  0  0  0
  191.7570  177.3330  141.4780 S   0  0  0  0  0  0  0  0  0  0  0  0
  190.1210  177.3730  141.4000 C   0  0  0  0  0  0  0  0  0  0  0  0
  189.9110  177.5900  143.8220 C   0  0  0  0  0  3  0  0  0  0  0  0
  189.3720  177.7080  142.6140 C   0  0  0  0  0  3  0  0  0  0  0  0
  189.8910  177.4750  146.2840 C   0  0  0  0  0  2  0  0  0  0  0  0
  187.7760  177.2480  144.9690 C   0  0  0  0  0  2  0  0  0  0  0  0
  187.9760  177.5190  147.9580 C   0  0  1  0  0  3  0  0  0  0  0  0
  189.1320  177.9380  145.0430 C   0  0  2  0  0  3  0  0  0  0  0  0
  186.8520  178.0870  147.1370 C   0  0  0  0  0  3  0  0  0  0  0  0
  186.7610  177.9680  145.8050 C   0  0  0  0  0  3  0  0  0  0  0  0
  187.9790  176.1350  147.9080 F   0  0  0  0  0  0  0  0  0  0  0  0
  189.3340  178.0970  147.5630 C   0  0  0  0  0  2  0  0  0  0  0  0
  2  1  1  1  0  0  0
  2  8  1  0  0  0  0
  3  6  1  0  0  0  0
  5  3  1  0  0  0  0
  6 16  1  1  0  0  0
  7  1  1  0  0  0  0
  7  5  1  0  0  0  0
  8  4  1  6  0  0  0
  8  6  1  0  0  0  0
  9  2  1  0  0  0  0
  9 11  1  6  0  0  0
 10 15  1  0  0  0  0
 11 15  1  0  0  0  0
 13 12  1  6  0  0  0
 13  9  1  0  0  0  0
 14 13  1  0  0  0  0
 14 10  2  0  0  0  0
 16 18  1  0  0  0  0
 18 17  2  0  0  0  0
 18 20  1  0  0  0  0
 20 19  2  0  0  0  0
 21 28  1  0  0  0  0
 22 24  1  0  0  0  0
 22 26  1  0  0  0  0
 23 27  1  6  0  0  0
 24 19  1  6  0  0  0
 24 21  1  0  0  0  0
 25 23  1  0  0  0  0
 26 25  2  0  0  0  0
 28 23  1  0  0  0  0
M  END
>  <MODEL>
6

>  <REMARK>
 VINA RESULT:      -7.1      3.732      6.177
  Name = 
  5 active torsions:
  status: ('A' for Active; 'I' for Inactive)
    1  A    between atoms: C_2  and  C_3
    2  A    between atoms: N_5  and  C_20
    3  A    between atoms: N_5  and  C_21
    4  A    between atoms: C_10  and  C_13
    5  A    between atoms: C_20  and  C_25
                            x       y       z     vdW  Elec       q    Type
                         _______ _______ _______ _____ _____    ______ ____

>  <TORSDO>
F 5

$$$$
=
 OpenBabel10262420463D

 28 30  0  0  1  0  0  0  0  0999 V2000
  187.5530  176.0480  137.7850 O   0  0  0  0  0  0  0  0  0  0  0  0
  187.5000  177.3730  137.3310 C   0  0  2  0  0  3  0  0  0  0  0  0
  190.4450  176.6730  137.7580 C   0  0  0  0  0  2  0  0  0  0  0  0
  188.9310  179.4410  137.2910 C   0  0  0  0  0  1  0  0  0  0  0  0
  189.8100  175.2960  137.5650 C   0  0  0  0  0  2  0  0  0  0  0  0
  189.6810  177.5690  138.7490 C   0  0  1  0  0  3  0  0  0  0  0  0
  188.4390  175.4030  136.9150 C   0  0  0  0  0  2  0  0  0  0  0  0
  188.4580  178.2730  138.1410 C   0  0  2  0  0  3  0  0  0  0  0  0
  186.0530  177.8850  137.4170 C   0  0  1  0  0  3  0  0  0  0  0  0
  183.3660  178.4600  138.1770 C   0  0  0  0  0  3  0  0  0  0  0  0
  185.0310  176.7500  137.3580 C   0  0  0  0  0  2  0  0  0  0  0  0
  186.1750  178.0000  139.8250 O   0  0  0  0  0  1  0  0  0  0  0  0
  185.8000  178.7190  138.6860 C   0  0  2  0  0  3  0  0  0  0  0  0
  184.3510  179.1140  138.8110 C   0  0  0  0  0  3  0  0  0  0  0  0
  183.6310  177.3400  137.2000 C   0  0  0  0  0  2  0  0  0  0  0  0
  189.3120  176.8520  139.9660 N   0  0  0  0  0  2  0  0  0  0  0  0
  191.2300  177.4110  141.7530 S   0  0  0  0  0  0  0  0  0  0  0  0
  189.6640  177.2760  141.2900 C   0  0  0  0  0  0  0  0  0  0  0  0
  188.0300  176.7160  143.0150 C   0  0  0  0  0  3  0  0  0  0  0  0
  188.6180  177.6320  142.2520 C   0  0  0  0  0  3  0  0  0  0  0  0
  185.9980  178.0760  143.3290 C   0  0  0  0  0  2  0  0  0  0  0  0
  187.6300  177.7530  145.1950 C   0  0  0  0  0  2  0  0  0  0  0  0
  184.9180  179.0350  145.4220 C   0  0  1  0  0  3  0  0  0  0  0  0
  186.9700  177.1010  143.9880 C   0  0  2  0  0  3  0  0  0  0  0  0
  185.5500  178.2120  146.5090 C   0  0  0  0  0  3  0  0  0  0  0  0
  186.7590  177.6400  146.4100 C   0  0  0  0  0  3  0  0  0  0  0  0
  185.6400  180.1950  145.1910 F   0  0  0  0  0  0  0  0  0  0  0  0
  184.7110  178.2380  144.1350 C   0  0  0  0  0  2  0  0  0  0  0  0
  2  9  1  0  0  0  0
  2  1  1  1  0  0  0
  2  8  1  0  0  0  0
  3  6  1  0  0  0  0
  5  3  1  0  0  0  0
  6 16  1  1  0  0  0
  7  5  1  0  0  0  0
  7  1  1  0  0  0  0
  8  4  1  6  0  0  0
  8  6  1  0  0  0  0
  9 11  1  1  0  0  0
  9 13  1  0  0  0  0
 10 14  2  0  0  0  0
 13 14  1  0  0  0  0
 13 12  1  1  0  0  0
 15 11  1  0  0  0  0
 15 10  1  0  0  0  0
 16 18  1  0  0  0  0
 18 17  2  0  0  0  0
 18 20  1  0  0  0  0
 20 19  2  0  0  0  0
 21 24  1  0  0  0  0
 21 28  1  0  0  0  0
 22 26  1  0  0  0  0
 23 27  1  6  0  0  0
 23 25  1  0  0  0  0
 24 19  1  6  0  0  0
 24 22  1  0  0  0  0
 26 25  2  0  0  0  0
 28 23  1  0  0  0  0
M  END
>  <MODEL>
7

>  <REMARK>
 VINA RESULT:      -7.0      3.288      5.667
  Name = 
  5 active torsions:
  status: ('A' for Active; 'I' for Inactive)
    1  A    between atoms: C_2  and  C_3
    2  A    between atoms: N_5  and  C_20
    3  A    between atoms: N_5  and  C_21
    4  A    between atoms: C_10  and  C_13
    5  A    between atoms: C_20  and  C_25
                            x       y       z     vdW  Elec       q    Type
                         _______ _______ _______ _____ _____    ______ ____

>  <TORSDO>
F 5

$$$$
=
 OpenBabel10262420463D

 28 30  0  0  1  0  0  0  0  0999 V2000
  183.3940  176.5780  139.2370 O   0  0  0  0  0  0  0  0  0  0  0  0
  182.1080  177.0740  139.4880 C   0  0  2  0  0  3  0  0  0  0  0  0
  184.0390  179.4400  139.6270 C   0  0  0  0  0  2  0  0  0  0  0  0
  180.9970  179.0820  140.5170 C   0  0  0  0  0  1  0  0  0  0  0  0
  184.8100  178.4430  138.7620 C   0  0  0  0  0  2  0  0  0  0  0  0
  183.4420  178.8150  140.9010 C   0  0  1  0  0  3  0  0  0  0  0  0
  183.8910  177.3710  138.1970 C   0  0  0  0  0  2  0  0  0  0  0  0
  182.1180  178.0680  140.6700 C   0  0  2  0  0  3  0  0  0  0  0  0
  181.1520  175.9010  139.7600 C   0  0  1  0  0  3  0  0  0  0  0  0
  178.9980  174.0330  139.7510 C   0  0  0  0  0  3  0  0  0  0  0  0
  179.7920  176.3680  140.2790 C   0  0  0  0  0  2  0  0  0  0  0  0
  180.5200  175.8020  137.4320 O   0  0  0  0  0  1  0  0  0  0  0  0
  180.9340  175.0210  138.5150 C   0  0  2  0  0  3  0  0  0  0  0  0
  179.9070  173.9470  138.7670 C   0  0  0  0  0  3  0  0  0  0  0  0
  178.9920  175.1580  140.7560 C   0  0  0  0  0  2  0  0  0  0  0  0
  184.4010  177.9630  141.5970 N   0  0  0  0  0  2  0  0  0  0  0  0
  184.3720  179.2200  143.9640 S   0  0  0  0  0  0  0  0  0  0  0  0
  185.1030  178.3450  142.7870 C   0  0  0  0  0  0  0  0  0  0  0  0
  186.8760  177.2840  144.0870 C   0  0  0  0  0  3  0  0  0  0  0  0
  186.4930  177.9270  142.9890 C   0  0  0  0  0  3  0  0  0  0  0  0
  189.0190  177.8830  145.1490 C   0  0  0  0  0  2  0  0  0  0  0  0
  188.9590  176.7850  142.9030 C   0  0  0  0  0  2  0  0  0  0  0  0
  191.4180  177.2710  144.5670 C   0  0  1  0  0  3  0  0  0  0  0  0
  188.2940  176.8660  144.2710 C   0  0  2  0  0  3  0  0  0  0  0  0
  191.2310  176.0750  143.6750 C   0  0  0  0  0  3  0  0  0  0  0  0
  190.1360  175.8570  142.9330 C   0  0  0  0  0  3  0  0  0  0  0  0
  191.4740  178.4410  143.8280 F   0  0  0  0  0  0  0  0  0  0  0  0
  190.3550  177.3500  145.6620 C   0  0  0  0  0  2  0  0  0  0  0  0
  2  1  1  1  0  0  0
  2  9  1  0  0  0  0
  2  8  1  0  0  0  0
  3  6  1  0  0  0  0
  5  3  1  0  0  0  0
  6 16  1  6  0  0  0
  7  5  1  0  0  0  0
  7  1  1  0  0  0  0
  8  4  1  6  0  0  0
  8  6  1  0  0  0  0
  9 11  1  6  0  0  0
 10 15  1  0  0  0  0
 11 15  1  0  0  0  0
 13 12  1  6  0  0  0
 13 14  1  0  0  0  0
 13  9  1  0  0  0  0
 14 10  2  0  0  0  0
 16 18  1  0  0  0  0
 18 20  1  0  0  0  0
 18 17  2  0  0  0  0
 20 19  2  0  0  0  0
 21 28  1  0  0  0  0
 22 26  1  0  0  0  0
 22 24  1  0  0  0  0
 23 27  1  6  0  0  0
 23 28  1  0  0  0  0
 24 19  1  6  0  0  0
 24 21  1  0  0  0  0
 25 23  1  0  0  0  0
 26 25  2  0  0  0  0
M  END
>  <MODEL>
8

>  <REMARK>
 VINA RESULT:      -6.9      4.850      8.331
  Name = 
  5 active torsions:
  status: ('A' for Active; 'I' for Inactive)
    1  A    between atoms: C_2  and  C_3
    2  A    between atoms: N_5  and  C_20
    3  A    between atoms: N_5  and  C_21
    4  A    between atoms: C_10  and  C_13
    5  A    between atoms: C_20  and  C_25
                            x       y       z     vdW  Elec       q    Type
                         _______ _______ _______ _____ _____    ______ ____

>  <TORSDO>
F 5

$$$$
=
 OpenBabel10262420463D

 28 30  0  0  1  0  0  0  0  0999 V2000
  183.1700  179.4650  139.0440 O   0  0  0  0  0  0  0  0  0  0  0  0
  183.4430  178.0940  138.9540 C   0  0  2  0  0  3  0  0  0  0  0  0
  180.4560  178.3920  139.5360 C   0  0  0  0  0  2  0  0  0  0  0  0
  182.4350  175.8930  139.6370 C   0  0  0  0  0  1  0  0  0  0  0  0
  180.8010  179.7440  138.9090 C   0  0  0  0  0  2  0  0  0  0  0  0
  181.4470  177.9510  140.6280 C   0  0  1  0  0  3  0  0  0  0  0  0
  182.1170  179.6840  138.1490 C   0  0  0  0  0  2  0  0  0  0  0  0
  182.7350  177.3140  140.0840 C   0  0  2  0  0  3  0  0  0  0  0  0
  184.9640  177.8710  138.9960 C   0  0  1  0  0  3  0  0  0  0  0  0
  187.7980  178.1660  139.0910 C   0  0  0  0  0  3  0  0  0  0  0  0
  185.6680  178.4470  137.7680 C   0  0  0  0  0  2  0  0  0  0  0  0
  185.2670  179.8100  140.4020 O   0  0  0  0  0  1  0  0  0  0  0  0
  185.6090  178.4610  140.2640 C   0  0  2  0  0  3  0  0  0  0  0  0
  187.1100  178.3360  140.2320 C   0  0  0  0  0  3  0  0  0  0  0  0
  187.1220  177.9780  137.7550 C   0  0  0  0  0  2  0  0  0  0  0  0
  181.7580  179.0320  141.5580 N   0  0  0  0  0  2  0  0  0  0  0  0
  180.0580  178.7970  143.6160 S   0  0  0  0  0  0  0  0  0  0  0  0
  181.5570  178.9600  142.9750 C   0  0  0  0  0  0  0  0  0  0  0  0
  183.9420  178.7610  143.4590 C   0  0  0  0  0  3  0  0  0  0  0  0
  182.7050  178.9970  143.8850 C   0  0  0  0  0  3  0  0  0  0  0  0
  186.1240  177.7520  144.0030 C   0  0  0  0  0  2  0  0  0  0  0  0
  184.5850  178.5380  145.8100 C   0  0  0  0  0  2  0  0  0  0  0  0
  187.4270  177.6280  146.1840 C   0  0  1  0  0  3  0  0  0  0  0  0
  185.0950  178.8070  144.4010 C   0  0  2  0  0  3  0  0  0  0  0  0
  186.7780  178.7090  147.0010 C   0  0  0  0  0  3  0  0  0  0  0  0
  185.5120  179.1160  146.8360 C   0  0  0  0  0  3  0  0  0  0  0  0
  186.8210  176.4020  146.4060 F   0  0  0  0  0  0  0  0  0  0  0  0
  187.4670  177.9700  144.6950 C   0  0  0  0  0  2  0  0  0  0  0  0
  2  9  1  0  0  0  0
  2  1  1  1  0  0  0
  2  8  1  0  0  0  0
  3  6  1  0  0  0  0
  5  3  1  0  0  0  0
  6 16  1  6  0  0  0
  7  5  1  0  0  0  0
  7  1  1  0  0  0  0
  8  4  1  6  0  0  0
  8  6  1  0  0  0  0
  9 11  1  6  0  0  0
  9 13  1  0  0  0  0
 10 14  2  0  0  0  0
 13 12  1  6  0  0  0
 14 13  1  0  0  0  0
 15 11  1  0  0  0  0
 15 10  1  0  0  0  0
 16 18  1  0  0  0  0
 18 17  2  0  0  0  0
 18 20  1  0  0  0  0
 19 20  2  0  0  0  0
 21 24  1  0  0  0  0
 21 28  1  0  0  0  0
 22 26  1  0  0  0  0
 23 27  1  6  0  0  0
 23 25  1  0  0  0  0
 24 19  1  6  0  0  0
 24 22  1  0  0  0  0
 26 25  2  0  0  0  0
 28 23  1  0  0  0  0
M  END
>  <MODEL>
9

>  <REMARK>
 VINA RESULT:      -6.9      4.068      7.364
  Name = 
  5 active torsions:
  status: ('A' for Active; 'I' for Inactive)
    1  A    between atoms: C_2  and  C_3
    2  A    between atoms: N_5  and  C_20
    3  A    between atoms: N_5  and  C_21
    4  A    between atoms: C_10  and  C_13
    5  A    between atoms: C_20  and  C_25
                            x       y       z     vdW  Elec       q    Type
                         _______ _______ _______ _____ _____    ______ ____

>  <TORSDO>
F 5

$$$$
