=
 OpenBabel10262422303D

 43 47  0  0  1  0  0  0  0  0999 V2000
  185.6540  178.6520  143.2070 C   0  0  0  0  0  0  0  0  0  0  0  0
  188.1100  177.6110  142.3180 C   0  0  0  0  0  0  0  0  0  0  0  0
  184.9370  178.4260  145.9180 C   0  0  0  0  0  0  0  0  0  0  0  0
  186.1660  177.8990  145.4840 C   0  0  0  0  0  0  0  0  0  0  0  0
  184.5580  178.3350  147.2530 O   0  0  0  0  0  1  0  0  0  0  0  0
  187.7470  177.4970  143.6600 C   0  0  0  0  0  3  0  0  0  0  0  0
  186.5270  178.0090  144.1230 C   0  0  0  0  0  0  0  0  0  0  0  0
  184.4350  179.1670  143.6690 C   0  0  0  0  0  3  0  0  0  0  0  0
  186.0250  178.7710  141.8510 C   0  0  0  0  0  0  0  0  0  0  0  0
  187.2500  178.2540  141.4190 C   0  0  0  0  0  3  0  0  0  0  0  0
  184.0810  179.0530  145.0130 C   0  0  0  0  0  3  0  0  0  0  0  0
  189.4400  177.0830  141.8850 C   0  0  1  0  0  3  0  0  0  0  0  0
  189.9060  175.9370  142.7690 C   0  0  0  0  0  1  0  0  0  0  0  0
  189.4050  176.6630  140.4230 C   0  0  0  0  0  2  0  0  0  0  0  0
  190.6660  177.0670  139.7320 C   0  0  0  0  0  0  0  0  0  0  0  0
  191.6020  177.5120  140.3780 O   0  0  0  0  0  0  0  0  0  0  0  0
  190.8040  176.8670  138.2440 C   0  0  0  0  0  2  0  0  0  0  0  0
  189.5280  176.6630  137.5350 N   0  0  0  0  0  0  0  0  0  0  0  0
  188.9640  179.0080  137.1670 C   0  0  0  0  0  2  0  0  0  0  0  0
  189.3310  177.6880  136.5110 C   0  0  0  0  0  3  0  0  0  0  0  0
  187.8880  178.1600  136.5260 C   0  0  0  0  0  2  0  0  0  0  0  0
  189.4640  175.0820  136.8010 S   0  0  0  0  0  0  0  0  0  0  0  0
  189.9280  175.1500  135.3720 O   0  0  0  0  0  0  0  0  0  0  0  0
  190.3470  174.1300  137.5630 O   0  0  0  0  0  0  0  0  0  0  0  0
  187.7860  174.4800  136.8380 C   0  0  0  0  0  3  0  0  0  0  0  0
  186.5380  172.2710  136.4470 C   0  0  0  0  0  2  0  0  0  0  0  0
  185.5740  174.4560  135.6180 C   0  0  0  0  0  2  0  0  0  0  0  0
  185.3270  173.1990  136.4650 C   0  0  0  0  0  2  0  0  0  0  0  0
  187.0480  174.8780  135.5630 C   0  0  0  0  0  2  0  0  0  0  0  0
  187.7720  172.9580  137.0460 C   0  0  0  0  0  2  0  0  0  0  0  0
  185.1250  179.4180  140.8420 C   0  0  0  0  0  2  0  0  0  0  0  0
  182.8110  176.6270  139.7320 C   0  0  0  0  0  3  0  0  0  0  0  0
  183.2380  176.4200  138.4160 C   0  0  0  0  0  0  0  0  0  0  0  0
  184.8800  178.1830  138.6760 C   0  0  0  0  0  3  0  0  0  0  0  0
  183.4210  177.6070  140.5210 C   0  0  0  0  0  3  0  0  0  0  0  0
  184.4570  178.3880  139.9930 C   0  0  0  0  0  0  0  0  0  0  0  0
  184.2710  177.2030  137.8870 C   0  0  0  0  0  3  0  0  0  0  0  0
  182.5780  175.3860  137.5720 C   0  0  0  0  0  2  0  0  0  0  0  0
  181.3130  175.9460  136.9510 C   0  0  0  0  0  1  0  0  0  0  0  0
  187.0670  177.2160  146.4770 C   0  0  0  0  0  2  0  0  0  0  0  0
  188.1850  178.1390  146.9430 C   0  0  0  0  0  2  0  0  0  0  0  0
  189.4930  177.4990  146.7710 C   0  0  0  0  0  0  0  0  0  0  0  0
  190.5700  176.9740  146.6310 C   0  0  0  0  0  3  0  0  0  0  0  0
  1  8  1  0  0  0  0
  1  7  1  0  0  0  0
  2  6  1  0  0  0  0
  3  5  1  0  0  0  0
  4  3  2  0  0  0  0
  4 40  1  0  0  0  0
  6  7  2  0  0  0  0
  7  4  1  0  0  0  0
  8 11  2  0  0  0  0
  9  1  2  0  0  0  0
 10  9  1  0  0  0  0
 10  2  2  0  0  0  0
 11  3  1  0  0  0  0
 12  2  1  0  0  0  0
 12 13  1  1  0  0  0
 14 12  1  0  0  0  0
 15 16  2  0  0  0  0
 15 14  1  0  0  0  0
 17 15  1  0  0  0  0
 18 17  1  0  0  0  0
 20 21  1  0  0  0  0
 20 19  1  0  0  0  0
 20 18  1  0  0  0  0
 21 19  1  0  0  0  0
 22 25  1  0  0  0  0
 22 18  1  0  0  0  0
 22 24  2  0  0  0  0
 23 22  2  0  0  0  0
 25 30  1  0  0  0  0
 26 28  1  0  0  0  0
 26 30  1  0  0  0  0
 27 28  1  0  0  0  0
 29 27  1  0  0  0  0
 29 25  1  0  0  0  0
 31  9  1  0  0  0  0
 32 35  1  0  0  0  0
 33 32  2  0  0  0  0
 34 36  1  0  0  0  0
 36 35  2  0  0  0  0
 36 31  1  0  0  0  0
 37 33  1  0  0  0  0
 37 34  2  0  0  0  0
 38 33  1  0  0  0  0
 39 38  1  0  0  0  0
 40 41  1  0  0  0  0
 42 41  1  0  0  0  0
 43 42  3  0  0  0  0
M  END
>  <MODEL>
1

>  <REMARK>
 VINA RESULT:      -8.3      0.000      0.000
  Name = 
  14 active torsions:
  status: ('A' for Active; 'I' for Inactive)
    1  A    between atoms: C_1  and  C_34
    2  A    between atoms: C_1  and  C_35
    3  A    between atoms: C_2  and  C_6
    4  A    between atoms: C_2  and  C_13
    5  A    between atoms: C_3  and  N_4
    6  A    between atoms: C_3  and  C_12
    7  A    between atoms: N_4  and  S_14
    8  A    between atoms: N_4  and  C_15
    9  A    between atoms: C_5  and  C_18
   10  A    between atoms: C_6  and  C_12
   11  A    between atoms: C_11  and  S_14
   12  A    between atoms: C_18  and  C_24
   13  A    between atoms: C_19  and  C_25
   14  A    between atoms: C_21  and  C_24
                            x       y       z     vdW  Elec       q    Type
                         _______ _______ _______ _____ _____    ______ ____

>  <TORSDO>
F 14

$$$$
=
 OpenBabel10262422303D

 43 47  0  0  1  0  0  0  0  0999 V2000
  185.6830  178.4980  145.1070 C   0  0  0  0  0  0  0  0  0  0  0  0
  186.3760  178.2560  142.3940 C   0  0  0  0  0  0  0  0  0  0  0  0
  187.4770  177.6270  147.0930 C   0  0  0  0  0  0  0  0  0  0  0  0
  187.8310  177.4990  145.7390 C   0  0  0  0  0  0  0  0  0  0  0  0
  188.3440  177.2120  148.0970 O   0  0  0  0  0  1  0  0  0  0  0  0
  187.2590  177.8220  143.3820 C   0  0  0  0  0  3  0  0  0  0  0  0
  186.9320  177.9330  144.7400 C   0  0  0  0  0  0  0  0  0  0  0  0
  185.3560  178.6130  146.4660 C   0  0  0  0  0  3  0  0  0  0  0  0
  184.7930  178.9420  144.1070 C   0  0  0  0  0  0  0  0  0  0  0  0
  185.1480  178.8210  142.7600 C   0  0  0  0  0  3  0  0  0  0  0  0
  186.2460  178.1800  147.4480 C   0  0  0  0  0  3  0  0  0  0  0  0
  186.7910  178.1510  140.9610 C   0  0  1  0  0  3  0  0  0  0  0  0
  185.7670  178.7800  140.0310 C   0  0  0  0  0  1  0  0  0  0  0  0
  188.1670  178.7660  140.7500 C   0  0  0  0  0  2  0  0  0  0  0  0
  188.7480  178.3160  139.4490 C   0  0  0  0  0  0  0  0  0  0  0  0
  188.9820  179.1300  138.5700 O   0  0  0  0  0  0  0  0  0  0  0  0
  189.1010  176.8650  139.2470 C   0  0  0  0  0  2  0  0  0  0  0  0
  189.8970  176.5930  138.0370 N   0  0  0  0  0  0  0  0  0  0  0  0
  192.2350  176.7750  138.7090 C   0  0  0  0  0  2  0  0  0  0  0  0
  191.0990  175.8270  138.3640 C   0  0  0  0  0  3  0  0  0  0  0  0
  192.1880  176.1190  137.3470 C   0  0  0  0  0  2  0  0  0  0  0  0
  188.9570  175.7280  136.8490 S   0  0  0  0  0  0  0  0  0  0  0  0
  189.2230  176.2750  135.4730 O   0  0  0  0  0  0  0  0  0  0  0  0
  189.3150  174.2670  136.8790 O   0  0  0  0  0  0  0  0  0  0  0  0
  187.2220  175.9120  137.2190 C   0  0  0  0  0  3  0  0  0  0  0  0
  185.0090  174.7490  136.6380 C   0  0  0  0  0  2  0  0  0  0  0  0
  185.1430  177.2710  136.7500 C   0  0  0  0  0  2  0  0  0  0  0  0
  184.4270  176.0130  137.2630 C   0  0  0  0  0  2  0  0  0  0  0  0
  186.6120  177.0300  136.3760 C   0  0  0  0  0  2  0  0  0  0  0  0
  186.4890  174.5800  137.0060 C   0  0  0  0  0  2  0  0  0  0  0  0
  183.4520  179.5210  144.4440 C   0  0  0  0  0  2  0  0  0  0  0  0
  181.6970  178.3590  141.2910 C   0  0  0  0  0  3  0  0  0  0  0  0
  180.4180  178.0660  141.7780 C   0  0  0  0  0  0  0  0  0  0  0  0
  181.1270  178.7010  144.0070 C   0  0  0  0  0  3  0  0  0  0  0  0
  182.6870  178.8270  142.1600 C   0  0  0  0  0  3  0  0  0  0  0  0
  182.4030  178.9980  143.5200 C   0  0  0  0  0  0  0  0  0  0  0  0
  180.1350  178.2320  143.1390 C   0  0  0  0  0  3  0  0  0  0  0  0
  179.3680  177.5530  140.8550 C   0  0  0  0  0  2  0  0  0  0  0  0
  179.8590  176.3070  140.1440 C   0  0  0  0  0  1  0  0  0  0  0  0
  189.1590  176.8880  145.3810 C   0  0  0  0  0  2  0  0  0  0  0  0
  190.2470  177.9480  145.2660 C   0  0  0  0  0  2  0  0  0  0  0  0
  190.8610  177.9210  143.9340 C   0  0  0  0  0  0  0  0  0  0  0  0
  191.3660  177.8970  142.8390 C   0  0  0  0  0  3  0  0  0  0  0  0
  1  8  1  0  0  0  0
  2 10  2  0  0  0  0
  2  6  1  0  0  0  0
  3 11  1  0  0  0  0
  3  5  1  0  0  0  0
  4  3  2  0  0  0  0
  6  7  2  0  0  0  0
  7  1  1  0  0  0  0
  7  4  1  0  0  0  0
  8 11  2  0  0  0  0
  9 31  1  0  0  0  0
  9  1  2  0  0  0  0
 10  9  1  0  0  0  0
 12 13  1  6  0  0  0
 12  2  1  0  0  0  0
 14 12  1  0  0  0  0
 15 14  1  0  0  0  0
 16 15  2  0  0  0  0
 17 15  1  0  0  0  0
 18 20  1  0  0  0  0
 18 17  1  0  0  0  0
 20 19  1  0  0  0  0
 21 20  1  0  0  0  0
 21 19  1  0  0  0  0
 22 24  2  0  0  0  0
 22 25  1  0  0  0  0
 22 18  1  0  0  0  0
 23 22  2  0  0  0  0
 26 30  1  0  0  0  0
 26 28  1  0  0  0  0
 27 28  1  0  0  0  0
 29 27  1  0  0  0  0
 29 25  1  0  0  0  0
 30 25  1  0  0  0  0
 32 33  2  0  0  0  0
 32 35  1  0  0  0  0
 33 37  1  0  0  0  0
 35 36  2  0  0  0  0
 36 34  1  0  0  0  0
 36 31  1  0  0  0  0
 37 34  2  0  0  0  0
 38 33  1  0  0  0  0
 39 38  1  0  0  0  0
 40  4  1  0  0  0  0
 41 40  1  0  0  0  0
 42 41  1  0  0  0  0
 43 42  3  0  0  0  0
M  END
>  <MODEL>
2

>  <REMARK>
 VINA RESULT:      -8.0      1.944      3.292
  Name = 
  14 active torsions:
  status: ('A' for Active; 'I' for Inactive)
    1  A    between atoms: C_1  and  C_34
    2  A    between atoms: C_1  and  C_35
    3  A    between atoms: C_2  and  C_6
    4  A    between atoms: C_2  and  C_13
    5  A    between atoms: C_3  and  N_4
    6  A    between atoms: C_3  and  C_12
    7  A    between atoms: N_4  and  S_14
    8  A    between atoms: N_4  and  C_15
    9  A    between atoms: C_5  and  C_18
   10  A    between atoms: C_6  and  C_12
   11  A    between atoms: C_11  and  S_14
   12  A    between atoms: C_18  and  C_24
   13  A    between atoms: C_19  and  C_25
   14  A    between atoms: C_21  and  C_24
                            x       y       z     vdW  Elec       q    Type
                         _______ _______ _______ _____ _____    ______ ____

>  <TORSDO>
F 14

$$$$
=
 OpenBabel10262422303D

 43 47  0  0  1  0  0  0  0  0999 V2000
  184.0800  178.6400  143.6380 C   0  0  0  0  0  0  0  0  0  0  0  0
  186.4220  178.5160  142.0890 C   0  0  0  0  0  0  0  0  0  0  0  0
  181.5740  178.8440  142.3750 C   0  0  0  0  0  0  0  0  0  0  0  0
  182.7400  178.7860  141.5910 C   0  0  0  0  0  0  0  0  0  0  0  0
  180.3210  178.9370  141.7800 O   0  0  0  0  0  1  0  0  0  0  0  0
  185.1780  178.6220  141.4680 C   0  0  0  0  0  3  0  0  0  0  0  0
  183.9990  178.6860  142.2220 C   0  0  0  0  0  0  0  0  0  0  0  0
  182.9010  178.7010  144.3950 C   0  0  0  0  0  3  0  0  0  0  0  0
  185.3390  178.5280  144.2650 C   0  0  0  0  0  0  0  0  0  0  0  0
  186.4980  178.4630  143.4860 C   0  0  0  0  0  3  0  0  0  0  0  0
  181.6610  178.8020  143.7670 C   0  0  0  0  0  3  0  0  0  0  0  0
  187.6450  178.4110  141.2350 C   0  0  1  0  0  3  0  0  0  0  0  0
  188.6460  177.4180  141.8050 C   0  0  0  0  0  1  0  0  0  0  0  0
  187.2760  178.0490  139.8040 C   0  0  0  0  0  2  0  0  0  0  0  0
  188.4760  178.1360  138.9170 C   0  0  0  0  0  0  0  0  0  0  0  0
  189.0590  179.2000  138.7790 O   0  0  0  0  0  0  0  0  0  0  0  0
  189.0010  176.8950  138.2410 C   0  0  0  0  0  2  0  0  0  0  0  0
  188.1690  176.4080  137.1260 N   0  0  0  0  0  0  0  0  0  0  0  0
  187.1690  178.2560  135.8860 C   0  0  0  0  0  2  0  0  0  0  0  0
  188.3190  177.2650  135.9500 C   0  0  0  0  0  3  0  0  0  0  0  0
  187.1630  177.0350  134.9940 C   0  0  0  0  0  2  0  0  0  0  0  0
  188.5790  174.7650  136.7090 S   0  0  0  0  0  0  0  0  0  0  0  0
  188.9650  174.6750  135.2580 O   0  0  0  0  0  0  0  0  0  0  0  0
  189.7280  174.2940  137.5580 O   0  0  0  0  0  0  0  0  0  0  0  0
  187.1690  173.7120  136.9990 C   0  0  0  0  0  3  0  0  0  0  0  0
  185.5210  172.3010  135.6260 C   0  0  0  0  0  2  0  0  0  0  0  0
  184.7130  173.6670  137.5930 C   0  0  0  0  0  2  0  0  0  0  0  0
  184.7710  172.2720  136.9540 C   0  0  0  0  0  2  0  0  0  0  0  0
  185.9170  174.5520  137.2440 C   0  0  0  0  0  2  0  0  0  0  0  0
  186.9770  172.7440  135.8220 C   0  0  0  0  0  2  0  0  0  0  0  0
  185.4780  178.5020  145.7580 C   0  0  0  0  0  2  0  0  0  0  0  0
  188.5850  177.8230  147.8220 C   0  0  0  0  0  3  0  0  0  0  0  0
  189.4150  177.2080  146.8790 C   0  0  0  0  0  0  0  0  0  0  0  0
  187.6690  177.4180  145.2120 C   0  0  0  0  0  3  0  0  0  0  0  0
  187.3010  178.2390  147.4590 C   0  0  0  0  0  3  0  0  0  0  0  0
  186.8400  178.0360  146.1530 C   0  0  0  0  0  0  0  0  0  0  0  0
  188.9540  177.0010  145.5740 C   0  0  0  0  0  3  0  0  0  0  0  0
  190.7770  176.7510  147.2700 C   0  0  0  0  0  2  0  0  0  0  0  0
  191.6380  176.5550  146.0370 C   0  0  0  0  0  1  0  0  0  0  0  0
  182.6210  178.8440  140.0920 C   0  0  0  0  0  2  0  0  0  0  0  0
  182.5780  177.4490  139.4820 C   0  0  0  0  0  2  0  0  0  0  0  0
  183.2120  177.4400  138.1590 C   0  0  0  0  0  0  0  0  0  0  0  0
  183.7340  177.4310  137.0720 C   0  0  0  0  0  3  0  0  0  0  0  0
  1  9  1  0  0  0  0
  1  8  1  0  0  0  0
  2 10  1  0  0  0  0
  3 11  1  0  0  0  0
  4  7  1  0  0  0  0
  4  3  2  0  0  0  0
  5  3  1  0  0  0  0
  6  2  2  0  0  0  0
  6  7  1  0  0  0  0
  7  1  2  0  0  0  0
  9 31  1  0  0  0  0
 10  9  2  0  0  0  0
 11  8  2  0  0  0  0
 12 13  1  1  0  0  0
 12  2  1  0  0  0  0
 14 12  1  0  0  0  0
 15 14  1  0  0  0  0
 16 15  2  0  0  0  0
 17 15  1  0  0  0  0
 18 17  1  0  0  0  0
 19 20  1  0  0  0  0
 20 18  1  0  0  0  0
 21 19  1  0  0  0  0
 21 20  1  0  0  0  0
 22 25  1  0  0  0  0
 22 18  1  0  0  0  0
 22 24  2  0  0  0  0
 23 22  2  0  0  0  0
 25 29  1  0  0  0  0
 26 30  1  0  0  0  0
 26 28  1  0  0  0  0
 28 27  1  0  0  0  0
 29 27  1  0  0  0  0
 30 25  1  0  0  0  0
 31 36  1  0  0  0  0
 33 38  1  0  0  0  0
 33 32  2  0  0  0  0
 34 37  2  0  0  0  0
 34 36  1  0  0  0  0
 35 32  1  0  0  0  0
 36 35  2  0  0  0  0
 37 33  1  0  0  0  0
 39 38  1  0  0  0  0
 40  4  1  0  0  0  0
 41 40  1  0  0  0  0
 42 41  1  0  0  0  0
 43 42  3  0  0  0  0
M  END
>  <MODEL>
3

>  <REMARK>
 VINA RESULT:      -7.8      1.763      5.811
  Name = 
  14 active torsions:
  status: ('A' for Active; 'I' for Inactive)
    1  A    between atoms: C_1  and  C_34
    2  A    between atoms: C_1  and  C_35
    3  A    between atoms: C_2  and  C_6
    4  A    between atoms: C_2  and  C_13
    5  A    between atoms: C_3  and  N_4
    6  A    between atoms: C_3  and  C_12
    7  A    between atoms: N_4  and  S_14
    8  A    between atoms: N_4  and  C_15
    9  A    between atoms: C_5  and  C_18
   10  A    between atoms: C_6  and  C_12
   11  A    between atoms: C_11  and  S_14
   12  A    between atoms: C_18  and  C_24
   13  A    between atoms: C_19  and  C_25
   14  A    between atoms: C_21  and  C_24
                            x       y       z     vdW  Elec       q    Type
                         _______ _______ _______ _____ _____    ______ ____

>  <TORSDO>
F 14

$$$$
=
 OpenBabel10262422303D

 43 47  0  0  1  0  0  0  0  0999 V2000
  185.9150  178.4140  142.7040 C   0  0  0  0  0  0  0  0  0  0  0  0
  187.8700  177.9240  140.7450 C   0  0  0  0  0  0  0  0  0  0  0  0
  186.4400  177.7790  145.3940 C   0  0  0  0  0  0  0  0  0  0  0  0
  187.4230  177.5270  144.4220 C   0  0  0  0  0  0  0  0  0  0  0  0
  186.6730  177.4820  146.7330 O   0  0  0  0  0  1  0  0  0  0  0  0
  188.1230  177.6060  142.0780 C   0  0  0  0  0  3  0  0  0  0  0  0
  187.1620  177.8420  143.0700 C   0  0  0  0  0  0  0  0  0  0  0  0
  184.9540  178.6540  143.6960 C   0  0  0  0  0  3  0  0  0  0  0  0
  185.6630  178.7400  141.3550 C   0  0  0  0  0  0  0  0  0  0  0  0
  186.6430  178.4960  140.3880 C   0  0  0  0  0  3  0  0  0  0  0  0
  185.2150  178.3380  145.0280 C   0  0  0  0  0  3  0  0  0  0  0  0
  188.9450  177.6880  139.7320 C   0  0  1  0  0  3  0  0  0  0  0  0
  189.0770  178.8570  138.7690 C   0  0  0  0  0  1  0  0  0  0  0  0
  190.2730  177.3940  140.4140 C   0  0  0  0  0  2  0  0  0  0  0  0
  191.2310  176.7750  139.4470 C   0  0  0  0  0  0  0  0  0  0  0  0
  192.3860  177.1700  139.3930 O   0  0  0  0  0  0  0  0  0  0  0  0
  190.7880  175.6220  138.5840 C   0  0  0  0  0  2  0  0  0  0  0  0
  191.4460  175.5560  137.2670 N   0  0  0  0  0  0  0  0  0  0  0  0
  193.7460  174.7770  137.4990 C   0  0  0  0  0  2  0  0  0  0  0  0
  192.3140  174.3840  137.1760 C   0  0  0  0  0  3  0  0  0  0  0  0
  193.3250  174.5760  136.0600 C   0  0  0  0  0  2  0  0  0  0  0  0
  190.2700  175.5160  135.9790 S   0  0  0  0  0  0  0  0  0  0  0  0
  190.7130  176.3940  134.8410 O   0  0  0  0  0  0  0  0  0  0  0  0
  190.1070  174.1050  135.4820 O   0  0  0  0  0  0  0  0  0  0  0  0
  188.7030  176.1060  136.5910 C   0  0  0  0  0  3  0  0  0  0  0  0
  186.2770  175.2790  136.7460 C   0  0  0  0  0  2  0  0  0  0  0  0
  186.7780  177.6850  136.1560 C   0  0  0  0  0  2  0  0  0  0  0  0
  186.0270  176.7400  137.1050 C   0  0  0  0  0  2  0  0  0  0  0  0
  188.0800  177.0910  135.6030 C   0  0  0  0  0  2  0  0  0  0  0  0
  187.7640  174.9240  136.8750 C   0  0  0  0  0  2  0  0  0  0  0  0
  184.3530  179.3210  140.9160 C   0  0  0  0  0  2  0  0  0  0  0  0
  182.7360  176.2790  139.3320 C   0  0  0  0  0  3  0  0  0  0  0  0
  182.4860  176.7420  138.0360 C   0  0  0  0  0  0  0  0  0  0  0  0
  183.4330  178.8920  138.6260 C   0  0  0  0  0  3  0  0  0  0  0  0
  183.3380  177.1190  140.2720 C   0  0  0  0  0  3  0  0  0  0  0  0
  183.6870  178.4290  139.9200 C   0  0  0  0  0  0  0  0  0  0  0  0
  182.8310  178.0520  137.6850 C   0  0  0  0  0  3  0  0  0  0  0  0
  181.8300  175.8500  137.0390 C   0  0  0  0  0  2  0  0  0  0  0  0
  182.5990  174.5490  136.9140 C   0  0  0  0  0  1  0  0  0  0  0  0
  188.7320  176.9120  144.8400 C   0  0  0  0  0  2  0  0  0  0  0  0
  189.6460  177.9400  145.4940 C   0  0  0  0  0  2  0  0  0  0  0  0
  190.5780  178.5060  144.5120 C   0  0  0  0  0  0  0  0  0  0  0  0
  191.3430  178.9730  143.7050 C   0  0  0  0  0  3  0  0  0  0  0  0
  1  7  1  0  0  0  0
  1  8  1  0  0  0  0
  2  6  1  0  0  0  0
  3  5  1  0  0  0  0
  4 40  1  0  0  0  0
  4  3  2  0  0  0  0
  6  7  2  0  0  0  0
  7  4  1  0  0  0  0
  8 11  2  0  0  0  0
  9  1  2  0  0  0  0
 10  2  2  0  0  0  0
 10  9  1  0  0  0  0
 11  3  1  0  0  0  0
 12 13  1  1  0  0  0
 12 14  1  0  0  0  0
 12  2  1  0  0  0  0
 15 14  1  0  0  0  0
 16 15  2  0  0  0  0
 17 15  1  0  0  0  0
 18 17  1  0  0  0  0
 20 18  1  0  0  0  0
 20 19  1  0  0  0  0
 21 20  1  0  0  0  0
 21 19  1  0  0  0  0
 22 25  1  0  0  0  0
 22 18  1  0  0  0  0
 23 22  2  0  0  0  0
 24 22  2  0  0  0  0
 25 30  1  0  0  0  0
 26 30  1  0  0  0  0
 26 28  1  0  0  0  0
 27 28  1  0  0  0  0
 29 27  1  0  0  0  0
 29 25  1  0  0  0  0
 31  9  1  0  0  0  0
 32 35  1  0  0  0  0
 33 32  2  0  0  0  0
 34 36  1  0  0  0  0
 36 35  2  0  0  0  0
 36 31  1  0  0  0  0
 37 33  1  0  0  0  0
 37 34  2  0  0  0  0
 38 33  1  0  0  0  0
 39 38  1  0  0  0  0
 40 41  1  0  0  0  0
 42 41  1  0  0  0  0
 43 42  3  0  0  0  0
M  END
>  <MODEL>
4

>  <REMARK>
 VINA RESULT:      -7.8      1.631      2.490
  Name = 
  14 active torsions:
  status: ('A' for Active; 'I' for Inactive)
    1  A    between atoms: C_1  and  C_34
    2  A    between atoms: C_1  and  C_35
    3  A    between atoms: C_2  and  C_6
    4  A    between atoms: C_2  and  C_13
    5  A    between atoms: C_3  and  N_4
    6  A    between atoms: C_3  and  C_12
    7  A    between atoms: N_4  and  S_14
    8  A    between atoms: N_4  and  C_15
    9  A    between atoms: C_5  and  C_18
   10  A    between atoms: C_6  and  C_12
   11  A    between atoms: C_11  and  S_14
   12  A    between atoms: C_18  and  C_24
   13  A    between atoms: C_19  and  C_25
   14  A    between atoms: C_21  and  C_24
                            x       y       z     vdW  Elec       q    Type
                         _______ _______ _______ _____ _____    ______ ____

>  <TORSDO>
F 14

$$$$
=
 OpenBabel10262422303D

 43 47  0  0  1  0  0  0  0  0999 V2000
  187.1310  178.0810  145.8360 C   0  0  0  0  0  0  0  0  0  0  0  0
  187.9040  177.6280  143.1710 C   0  0  0  0  0  0  0  0  0  0  0  0
  189.0660  178.0550  147.8780 C   0  0  0  0  0  0  0  0  0  0  0  0
  189.4620  177.8240  146.5490 C   0  0  0  0  0  0  0  0  0  0  0  0
  190.0000  178.0560  148.9080 O   0  0  0  0  0  1  0  0  0  0  0  0
  188.8570  177.6120  144.1880 C   0  0  0  0  0  3  0  0  0  0  0  0
  188.4930  177.8340  145.5230 C   0  0  0  0  0  0  0  0  0  0  0  0
  186.7650  178.3070  147.1700 C   0  0  0  0  0  3  0  0  0  0  0  0
  186.1670  178.1020  144.8060 C   0  0  0  0  0  0  0  0  0  0  0  0
  186.5620  177.8800  143.4830 C   0  0  0  0  0  3  0  0  0  0  0  0
  187.7250  178.2930  148.1810 C   0  0  0  0  0  3  0  0  0  0  0  0
  188.3530  177.4240  141.7600 C   0  0  1  0  0  3  0  0  0  0  0  0
  188.0840  178.6490  140.9010 C   0  0  0  0  0  1  0  0  0  0  0  0
  189.8240  177.0380  141.7110 C   0  0  0  0  0  2  0  0  0  0  0  0
  190.3370  177.1070  140.3090 C   0  0  0  0  0  0  0  0  0  0  0  0
  191.4430  177.5730  140.0850 O   0  0  0  0  0  0  0  0  0  0  0  0
  189.5130  176.5440  139.1800 C   0  0  0  0  0  2  0  0  0  0  0  0
  190.0200  176.8650  137.8340 N   0  0  0  0  0  0  0  0  0  0  0  0
  191.5260  174.9660  137.5570 C   0  0  0  0  0  2  0  0  0  0  0  0
  190.2610  175.6470  137.0620 C   0  0  0  0  0  3  0  0  0  0  0  0
  191.5560  175.7790  136.2820 C   0  0  0  0  0  2  0  0  0  0  0  0
  188.9050  177.8940  136.9720 S   0  0  0  0  0  0  0  0  0  0  0  0
  188.9430  179.2890  137.5330 O   0  0  0  0  0  0  0  0  0  0  0  0
  189.2730  177.9360  135.5140 O   0  0  0  0  0  0  0  0  0  0  0  0
  187.2520  177.2470  137.1410 C   0  0  0  0  0  3  0  0  0  0  0  0
  185.2010  176.8300  135.6540 C   0  0  0  0  0  2  0  0  0  0  0  0
  184.9250  177.7250  138.0020 C   0  0  0  0  0  2  0  0  0  0  0  0
  184.5280  176.6240  137.0070 C   0  0  0  0  0  2  0  0  0  0  0  0
  186.3290  178.2950  137.7570 C   0  0  0  0  0  2  0  0  0  0  0  0
  186.7290  176.7650  135.7800 C   0  0  0  0  0  2  0  0  0  0  0  0
  184.7140  178.3320  145.0900 C   0  0  0  0  0  2  0  0  0  0  0  0
  181.8940  179.0530  142.6600 C   0  0  0  0  0  3  0  0  0  0  0  0
  182.4870  178.7130  141.4390 C   0  0  0  0  0  0  0  0  0  0  0  0
  184.5380  178.1460  142.5980 C   0  0  0  0  0  3  0  0  0  0  0  0
  182.6200  178.9350  143.8480 C   0  0  0  0  0  3  0  0  0  0  0  0
  183.9440  178.4820  143.8190 C   0  0  0  0  0  0  0  0  0  0  0  0
  183.8120  178.2630  141.4090 C   0  0  0  0  0  3  0  0  0  0  0  0
  181.7170  178.8520  140.1710 C   0  0  0  0  0  2  0  0  0  0  0  0
  180.2740  178.4390  140.3860 C   0  0  0  0  0  1  0  0  0  0  0  0
  190.9130  177.5590  146.2500 C   0  0  0  0  0  2  0  0  0  0  0  0
  191.2460  176.0780  146.3780 C   0  0  0  0  0  2  0  0  0  0  0  0
  192.1850  175.8500  147.4820 C   0  0  0  0  0  0  0  0  0  0  0  0
  192.9550  175.6620  148.3910 C   0  0  0  0  0  3  0  0  0  0  0  0
  1  8  1  0  0  0  0
  2 10  2  0  0  0  0
  2  6  1  0  0  0  0
  3 11  1  0  0  0  0
  3  5  1  0  0  0  0
  4  3  2  0  0  0  0
  6  7  2  0  0  0  0
  7  1  1  0  0  0  0
  7  4  1  0  0  0  0
  8 11  2  0  0  0  0
  9 31  1  0  0  0  0
  9  1  2  0  0  0  0
 10  9  1  0  0  0  0
 12 13  1  6  0  0  0
 12  2  1  0  0  0  0
 14 12  1  0  0  0  0
 15 14  1  0  0  0  0
 16 15  2  0  0  0  0
 17 15  1  0  0  0  0
 18 17  1  0  0  0  0
 20 19  1  0  0  0  0
 20 18  1  0  0  0  0
 21 20  1  0  0  0  0
 21 19  1  0  0  0  0
 22 25  1  0  0  0  0
 22 23  2  0  0  0  0
 22 18  1  0  0  0  0
 24 22  2  0  0  0  0
 25 29  1  0  0  0  0
 26 30  1  0  0  0  0
 26 28  1  0  0  0  0
 28 27  1  0  0  0  0
 29 27  1  0  0  0  0
 30 25  1  0  0  0  0
 32 35  1  0  0  0  0
 33 32  2  0  0  0  0
 34 36  1  0  0  0  0
 36 35  2  0  0  0  0
 36 31  1  0  0  0  0
 37 33  1  0  0  0  0
 37 34  2  0  0  0  0
 38 39  1  0  0  0  0
 38 33  1  0  0  0  0
 40 41  1  0  0  0  0
 40  4  1  0  0  0  0
 41 42  1  0  0  0  0
 42 43  3  0  0  0  0
M  END
>  <MODEL>
5

>  <REMARK>
 VINA RESULT:      -7.7      2.158      3.575
  Name = 
  14 active torsions:
  status: ('A' for Active; 'I' for Inactive)
    1  A    between atoms: C_1  and  C_34
    2  A    between atoms: C_1  and  C_35
    3  A    between atoms: C_2  and  C_6
    4  A    between atoms: C_2  and  C_13
    5  A    between atoms: C_3  and  N_4
    6  A    between atoms: C_3  and  C_12
    7  A    between atoms: N_4  and  S_14
    8  A    between atoms: N_4  and  C_15
    9  A    between atoms: C_5  and  C_18
   10  A    between atoms: C_6  and  C_12
   11  A    between atoms: C_11  and  S_14
   12  A    between atoms: C_18  and  C_24
   13  A    between atoms: C_19  and  C_25
   14  A    between atoms: C_21  and  C_24
                            x       y       z     vdW  Elec       q    Type
                         _______ _______ _______ _____ _____    ______ ____

>  <TORSDO>
F 14

$$$$
=
 OpenBabel10262422303D

 43 47  0  0  1  0  0  0  0  0999 V2000
  184.9870  178.4070  144.1970 C   0  0  0  0  0  0  0  0  0  0  0  0
  187.3240  177.9510  142.7040 C   0  0  0  0  0  0  0  0  0  0  0  0
  182.5570  178.9160  142.8740 C   0  0  0  0  0  0  0  0  0  0  0  0
  183.7210  178.6930  142.1180 C   0  0  0  0  0  0  0  0  0  0  0  0
  181.3400  179.1640  142.2490 O   0  0  0  0  0  1  0  0  0  0  0  0
  186.1180  178.2090  142.0540 C   0  0  0  0  0  3  0  0  0  0  0  0
  184.9420  178.4390  142.7790 C   0  0  0  0  0  0  0  0  0  0  0  0
  183.8110  178.6340  144.9260 C   0  0  0  0  0  3  0  0  0  0  0  0
  186.2070  178.1410  144.8550 C   0  0  0  0  0  0  0  0  0  0  0  0
  187.3630  177.9120  144.1030 C   0  0  0  0  0  3  0  0  0  0  0  0
  182.6080  178.8870  144.2680 C   0  0  0  0  0  3  0  0  0  0  0  0
  188.5410  177.6720  141.8810 C   0  0  1  0  0  3  0  0  0  0  0  0
  189.3270  176.4880  142.4200 C   0  0  0  0  0  1  0  0  0  0  0  0
  188.1680  177.4570  140.4210 C   0  0  0  0  0  2  0  0  0  0  0  0
  189.3030  177.8450  139.5290 C   0  0  0  0  0  0  0  0  0  0  0  0
  190.4370  177.9110  139.9760 O   0  0  0  0  0  0  0  0  0  0  0  0
  189.0540  178.0930  138.0630 C   0  0  0  0  0  2  0  0  0  0  0  0
  188.0900  177.1680  137.4420 N   0  0  0  0  0  0  0  0  0  0  0  0
  185.9450  178.3080  137.6700 C   0  0  0  0  0  2  0  0  0  0  0  0
  187.0550  177.9030  136.7150 C   0  0  0  0  0  3  0  0  0  0  0  0
  185.7520  177.1250  136.7470 C   0  0  0  0  0  2  0  0  0  0  0  0
  188.8920  176.0600  136.3590 S   0  0  0  0  0  0  0  0  0  0  0  0
  188.4990  174.6440  136.6770 O   0  0  0  0  0  0  0  0  0  0  0  0
  188.5120  176.3720  134.9370 O   0  0  0  0  0  0  0  0  0  0  0  0
  190.6570  176.2270  136.5430 C   0  0  0  0  0  3  0  0  0  0  0  0
  192.7850  175.5490  135.2760 C   0  0  0  0  0  2  0  0  0  0  0  0
  192.6900  175.4020  137.7980 C   0  0  0  0  0  2  0  0  0  0  0  0
  193.4430  175.9710  136.5860 C   0  0  0  0  0  2  0  0  0  0  0  0
  191.1880  175.2100  137.5510 C   0  0  0  0  0  2  0  0  0  0  0  0
  191.3500  176.0840  135.1800 C   0  0  0  0  0  2  0  0  0  0  0  0
  186.3100  178.1230  146.3500 C   0  0  0  0  0  2  0  0  0  0  0  0
  189.8510  176.7670  146.3650 C   0  0  0  0  0  3  0  0  0  0  0  0
  190.3110  177.2100  147.6090 C   0  0  0  0  0  0  0  0  0  0  0  0
  188.1690  178.2650  148.0210 C   0  0  0  0  0  3  0  0  0  0  0  0
  188.5500  177.0690  145.9510 C   0  0  0  0  0  3  0  0  0  0  0  0
  187.7070  177.8200  146.7790 C   0  0  0  0  0  0  0  0  0  0  0  0
  189.4700  177.9640  148.4360 C   0  0  0  0  0  3  0  0  0  0  0  0
  191.7020  176.9000  148.0430 C   0  0  0  0  0  2  0  0  0  0  0  0
  192.2370  175.7060  147.2770 C   0  0  0  0  0  1  0  0  0  0  0  0
  183.6430  178.7410  140.6160 C   0  0  0  0  0  2  0  0  0  0  0  0
  183.1410  177.4230  140.0410 C   0  0  0  0  0  2  0  0  0  0  0  0
  182.4640  177.6390  138.7580 C   0  0  0  0  0  0  0  0  0  0  0  0
  181.9090  177.8180  137.7020 C   0  0  0  0  0  3  0  0  0  0  0  0
  1  9  1  0  0  0  0
  1  8  1  0  0  0  0
  2 10  1  0  0  0  0
  3 11  1  0  0  0  0
  4  7  1  0  0  0  0
  4  3  2  0  0  0  0
  5  3  1  0  0  0  0
  6  2  2  0  0  0  0
  6  7  1  0  0  0  0
  7  1  2  0  0  0  0
  9 31  1  0  0  0  0
 10  9  2  0  0  0  0
 11  8  2  0  0  0  0
 12 13  1  1  0  0  0
 12  2  1  0  0  0  0
 14 12  1  0  0  0  0
 15 16  2  0  0  0  0
 15 14  1  0  0  0  0
 17 15  1  0  0  0  0
 18 17  1  0  0  0  0
 20 21  1  0  0  0  0
 20 18  1  0  0  0  0
 20 19  1  0  0  0  0
 21 19  1  0  0  0  0
 22 25  1  0  0  0  0
 22 23  2  0  0  0  0
 22 18  1  0  0  0  0
 24 22  2  0  0  0  0
 25 29  1  0  0  0  0
 26 28  1  0  0  0  0
 28 27  1  0  0  0  0
 29 27  1  0  0  0  0
 30 26  1  0  0  0  0
 30 25  1  0  0  0  0
 31 36  1  0  0  0  0
 32 33  1  0  0  0  0
 33 38  1  0  0  0  0
 33 37  2  0  0  0  0
 34 37  1  0  0  0  0
 35 32  2  0  0  0  0
 35 36  1  0  0  0  0
 36 34  2  0  0  0  0
 39 38  1  0  0  0  0
 40  4  1  0  0  0  0
 41 40  1  0  0  0  0
 42 41  1  0  0  0  0
 43 42  3  0  0  0  0
M  END
>  <MODEL>
6

>  <REMARK>
 VINA RESULT:      -7.6      2.067      6.514
  Name = 
  14 active torsions:
  status: ('A' for Active; 'I' for Inactive)
    1  A    between atoms: C_1  and  C_34
    2  A    between atoms: C_1  and  C_35
    3  A    between atoms: C_2  and  C_6
    4  A    between atoms: C_2  and  C_13
    5  A    between atoms: C_3  and  N_4
    6  A    between atoms: C_3  and  C_12
    7  A    between atoms: N_4  and  S_14
    8  A    between atoms: N_4  and  C_15
    9  A    between atoms: C_5  and  C_18
   10  A    between atoms: C_6  and  C_12
   11  A    between atoms: C_11  and  S_14
   12  A    between atoms: C_18  and  C_24
   13  A    between atoms: C_19  and  C_25
   14  A    between atoms: C_21  and  C_24
                            x       y       z     vdW  Elec       q    Type
                         _______ _______ _______ _____ _____    ______ ____

>  <TORSDO>
F 14

$$$$
=
 OpenBabel10262422303D

 43 47  0  0  1  0  0  0  0  0999 V2000
  183.8130  178.6710  143.6290 C   0  0  0  0  0  0  0  0  0  0  0  0
  186.1920  178.6200  142.1330 C   0  0  0  0  0  0  0  0  0  0  0  0
  181.3300  178.7390  142.3080 C   0  0  0  0  0  0  0  0  0  0  0  0
  182.5140  178.7170  141.5500 C   0  0  0  0  0  0  0  0  0  0  0  0
  180.0880  178.7660  141.6840 O   0  0  0  0  0  1  0  0  0  0  0  0
  184.9590  178.6590  141.4840 C   0  0  0  0  0  3  0  0  0  0  0  0
  183.7620  178.6850  142.2110 C   0  0  0  0  0  0  0  0  0  0  0  0
  182.6160  178.6940  144.3580 C   0  0  0  0  0  3  0  0  0  0  0  0
  185.0610  178.6260  144.2850 C   0  0  0  0  0  0  0  0  0  0  0  0
  186.2390  178.5970  143.5320 C   0  0  0  0  0  3  0  0  0  0  0  0
  181.3870  178.7290  143.7020 C   0  0  0  0  0  3  0  0  0  0  0  0
  187.4380  178.5520  141.3090 C   0  0  1  0  0  3  0  0  0  0  0  0
  188.4150  177.5200  141.8480 C   0  0  0  0  0  1  0  0  0  0  0  0
  187.1060  178.2760  139.8500 C   0  0  0  0  0  2  0  0  0  0  0  0
  188.3580  178.0710  139.0580 C   0  0  0  0  0  0  0  0  0  0  0  0
  189.0420  179.0300  138.7390 O   0  0  0  0  0  0  0  0  0  0  0  0
  188.8040  176.6750  138.7080 C   0  0  0  0  0  2  0  0  0  0  0  0
  189.4570  176.5540  137.3920 N   0  0  0  0  0  0  0  0  0  0  0  0
  191.7960  176.4310  138.0760 C   0  0  0  0  0  2  0  0  0  0  0  0
  190.6250  175.6780  137.4670 C   0  0  0  0  0  3  0  0  0  0  0  0
  191.7320  176.2170  136.5800 C   0  0  0  0  0  2  0  0  0  0  0  0
  188.3440  175.9480  136.1930 S   0  0  0  0  0  0  0  0  0  0  0  0
  187.7630  177.0840  135.3980 O   0  0  0  0  0  0  0  0  0  0  0  0
  189.0600  175.0070  135.2630 O   0  0  0  0  0  0  0  0  0  0  0  0
  187.0200  175.0720  137.0050 C   0  0  0  0  0  3  0  0  0  0  0  0
  185.8470  172.7950  136.8350 C   0  0  0  0  0  2  0  0  0  0  0  0
  184.5120  174.8990  137.2620 C   0  0  0  0  0  2  0  0  0  0  0  0
  184.8440  173.4820  137.7560 C   0  0  0  0  0  2  0  0  0  0  0  0
  185.6660  175.5700  136.5050 C   0  0  0  0  0  2  0  0  0  0  0  0
  187.1770  173.5590  136.7960 C   0  0  0  0  0  2  0  0  0  0  0  0
  185.1670  178.6360  145.7800 C   0  0  0  0  0  2  0  0  0  0  0  0
  188.2660  178.0880  147.8960 C   0  0  0  0  0  3  0  0  0  0  0  0
  189.0790  177.3690  147.0140 C   0  0  0  0  0  0  0  0  0  0  0  0
  187.3330  177.4580  145.3370 C   0  0  0  0  0  3  0  0  0  0  0  0
  186.9900  178.4960  147.4970 C   0  0  0  0  0  3  0  0  0  0  0  0
  186.5200  178.1800  146.2160 C   0  0  0  0  0  0  0  0  0  0  0  0
  188.6100  177.0500  145.7350 C   0  0  0  0  0  3  0  0  0  0  0  0
  190.4330  176.9220  147.4450 C   0  0  0  0  0  2  0  0  0  0  0  0
  191.3240  176.7080  146.2360 C   0  0  0  0  0  1  0  0  0  0  0  0
  182.4270  178.7400  140.0480 C   0  0  0  0  0  2  0  0  0  0  0  0
  182.7090  177.3680  139.4520 C   0  0  0  0  0  2  0  0  0  0  0  0
  181.4580  176.6400  139.2080 C   0  0  0  0  0  0  0  0  0  0  0  0
  180.4310  176.0420  139.0070 C   0  0  0  0  0  3  0  0  0  0  0  0
  1  9  1  0  0  0  0
  1  8  1  0  0  0  0
  2 10  1  0  0  0  0
  3 11  1  0  0  0  0
  4  7  1  0  0  0  0
  4  3  2  0  0  0  0
  5  3  1  0  0  0  0
  6  2  2  0  0  0  0
  6  7  1  0  0  0  0
  7  1  2  0  0  0  0
  9 31  1  0  0  0  0
 10  9  2  0  0  0  0
 11  8  2  0  0  0  0
 12 13  1  1  0  0  0
 12  2  1  0  0  0  0
 14 12  1  0  0  0  0
 15 14  1  0  0  0  0
 16 15  2  0  0  0  0
 17 15  1  0  0  0  0
 18 20  1  0  0  0  0
 18 17  1  0  0  0  0
 20 19  1  0  0  0  0
 21 20  1  0  0  0  0
 21 19  1  0  0  0  0
 22 25  1  0  0  0  0
 22 18  1  0  0  0  0
 23 22  2  0  0  0  0
 24 22  2  0  0  0  0
 26 28  1  0  0  0  0
 27 28  1  0  0  0  0
 29 25  1  0  0  0  0
 29 27  1  0  0  0  0
 30 26  1  0  0  0  0
 30 25  1  0  0  0  0
 31 36  1  0  0  0  0
 33 38  1  0  0  0  0
 33 32  2  0  0  0  0
 34 37  2  0  0  0  0
 34 36  1  0  0  0  0
 35 32  1  0  0  0  0
 36 35  2  0  0  0  0
 37 33  1  0  0  0  0
 39 38  1  0  0  0  0
 40  4  1  0  0  0  0
 41 40  1  0  0  0  0
 42 41  1  0  0  0  0
 43 42  3  0  0  0  0
M  END
>  <MODEL>
7

>  <REMARK>
 VINA RESULT:      -7.6      1.890      5.973
  Name = 
  14 active torsions:
  status: ('A' for Active; 'I' for Inactive)
    1  A    between atoms: C_1  and  C_34
    2  A    between atoms: C_1  and  C_35
    3  A    between atoms: C_2  and  C_6
    4  A    between atoms: C_2  and  C_13
    5  A    between atoms: C_3  and  N_4
    6  A    between atoms: C_3  and  C_12
    7  A    between atoms: N_4  and  S_14
    8  A    between atoms: N_4  and  C_15
    9  A    between atoms: C_5  and  C_18
   10  A    between atoms: C_6  and  C_12
   11  A    between atoms: C_11  and  S_14
   12  A    between atoms: C_18  and  C_24
   13  A    between atoms: C_19  and  C_25
   14  A    between atoms: C_21  and  C_24
                            x       y       z     vdW  Elec       q    Type
                         _______ _______ _______ _____ _____    ______ ____

>  <TORSDO>
F 14

$$$$
=
 OpenBabel10262422303D

 43 47  0  0  1  0  0  0  0  0999 V2000
  188.4390  178.0170  141.9440 C   0  0  0  0  0  0  0  0  0  0  0  0
  185.8590  178.5930  140.9900 C   0  0  0  0  0  0  0  0  0  0  0  0
  188.7930  177.1770  144.6050 C   0  0  0  0  0  0  0  0  0  0  0  0
  187.4990  177.4660  144.1400 C   0  0  0  0  0  0  0  0  0  0  0  0
  189.0000  176.7540  145.9140 O   0  0  0  0  0  1  0  0  0  0  0  0
  186.0400  178.1810  142.3100 C   0  0  0  0  0  3  0  0  0  0  0  0
  187.3190  177.8900  142.8050 C   0  0  0  0  0  0  0  0  0  0  0  0
  189.7190  177.7230  142.4360 C   0  0  0  0  0  3  0  0  0  0  0  0
  188.2540  178.4290  140.6070 C   0  0  0  0  0  0  0  0  0  0  0  0
  186.9660  178.7090  140.1410 C   0  0  0  0  0  3  0  0  0  0  0  0
  189.8920  177.3080  143.7550 C   0  0  0  0  0  3  0  0  0  0  0  0
  184.4690  178.8520  140.5020 C   0  0  1  0  0  3  0  0  0  0  0  0
  184.4630  179.3890  139.0800 C   0  0  0  0  0  1  0  0  0  0  0  0
  183.6140  177.5990  140.6140 C   0  0  0  0  0  2  0  0  0  0  0  0
  182.1640  177.9570  140.6610 C   0  0  0  0  0  0  0  0  0  0  0  0
  181.7080  178.5330  141.6370 O   0  0  0  0  0  0  0  0  0  0  0  0
  181.2790  177.6620  139.4780 C   0  0  0  0  0  2  0  0  0  0  0  0
  180.9640  176.2340  139.2920 N   0  0  0  0  0  0  0  0  0  0  0  0
  179.3050  175.6090  140.9680 C   0  0  0  0  0  2  0  0  0  0  0  0
  179.5410  175.9800  139.5140 C   0  0  0  0  0  3  0  0  0  0  0  0
  179.3320  174.5300  139.9090 C   0  0  0  0  0  2  0  0  0  0  0  0
  181.4130  175.6950  137.6940 S   0  0  0  0  0  0  0  0  0  0  0  0
  181.6990  174.2190  137.7030 O   0  0  0  0  0  0  0  0  0  0  0  0
  180.2940  175.9770  136.7280 O   0  0  0  0  0  0  0  0  0  0  0  0
  182.8760  176.5670  137.1660 C   0  0  0  0  0  3  0  0  0  0  0  0
  184.1700  176.9870  134.9890 C   0  0  0  0  0  2  0  0  0  0  0  0
  185.4030  176.5400  137.1500 C   0  0  0  0  0  2  0  0  0  0  0  0
  185.2240  177.5000  135.9650 C   0  0  0  0  0  2  0  0  0  0  0  0
  184.1290  175.7630  137.5070 C   0  0  0  0  0  2  0  0  0  0  0  0
  182.7960  176.8770  135.6640 C   0  0  0  0  0  2  0  0  0  0  0  0
  189.4090  178.6030  139.6670 C   0  0  0  0  0  2  0  0  0  0  0  0
  188.7740  177.7900  136.0190 C   0  0  0  0  0  3  0  0  0  0  0  0
  188.7120  176.3920  136.0530 C   0  0  0  0  0  0  0  0  0  0  0  0
  189.1260  176.4380  138.4400 C   0  0  0  0  0  3  0  0  0  0  0  0
  189.0060  178.5100  137.1940 C   0  0  0  0  0  3  0  0  0  0  0  0
  189.1840  177.8340  138.4070 C   0  0  0  0  0  0  0  0  0  0  0  0
  188.8930  175.7160  137.2650 C   0  0  0  0  0  3  0  0  0  0  0  0
  188.4780  175.6250  134.7980 C   0  0  0  0  0  2  0  0  0  0  0  0
  187.5940  174.4250  135.0750 C   0  0  0  0  0  1  0  0  0  0  0  0
  186.3310  177.3290  145.0790 C   0  0  0  0  0  2  0  0  0  0  0  0
  185.8480  178.6880  145.5690 C   0  0  0  0  0  2  0  0  0  0  0  0
  184.4820  178.9520  145.1040 C   0  0  0  0  0  0  0  0  0  0  0  0
  183.3590  179.1680  144.7200 C   0  0  0  0  0  3  0  0  0  0  0  0
  1  8  1  0  0  0  0
  1  7  1  0  0  0  0
  2  6  1  0  0  0  0
  3  5  1  0  0  0  0
  4  3  2  0  0  0  0
  4 40  1  0  0  0  0
  6  7  2  0  0  0  0
  7  4  1  0  0  0  0
  8 11  2  0  0  0  0
  9  1  2  0  0  0  0
 10  9  1  0  0  0  0
 10  2  2  0  0  0  0
 11  3  1  0  0  0  0
 12 13  1  6  0  0  0
 12 14  1  0  0  0  0
 12  2  1  0  0  0  0
 14 15  1  0  0  0  0
 15 16  2  0  0  0  0
 17 15  1  0  0  0  0
 18 17  1  0  0  0  0
 18 20  1  0  0  0  0
 20 21  1  0  0  0  0
 20 19  1  0  0  0  0
 21 19  1  0  0  0  0
 22 23  2  0  0  0  0
 22 18  1  0  0  0  0
 24 22  2  0  0  0  0
 25 29  1  0  0  0  0
 25 22  1  0  0  0  0
 26 30  1  0  0  0  0
 26 28  1  0  0  0  0
 27 29  1  0  0  0  0
 28 27  1  0  0  0  0
 30 25  1  0  0  0  0
 31  9  1  0  0  0  0
 32 33  2  0  0  0  0
 32 35  1  0  0  0  0
 33 37  1  0  0  0  0
 35 36  2  0  0  0  0
 36 34  1  0  0  0  0
 36 31  1  0  0  0  0
 37 34  2  0  0  0  0
 38 39  1  0  0  0  0
 38 33  1  0  0  0  0
 40 41  1  0  0  0  0
 42 41  1  0  0  0  0
 43 42  3  0  0  0  0
M  END
>  <MODEL>
8

>  <REMARK>
 VINA RESULT:      -7.3      3.343      6.344
  Name = 
  14 active torsions:
  status: ('A' for Active; 'I' for Inactive)
    1  A    between atoms: C_1  and  C_34
    2  A    between atoms: C_1  and  C_35
    3  A    between atoms: C_2  and  C_6
    4  A    between atoms: C_2  and  C_13
    5  A    between atoms: C_3  and  N_4
    6  A    between atoms: C_3  and  C_12
    7  A    between atoms: N_4  and  S_14
    8  A    between atoms: N_4  and  C_15
    9  A    between atoms: C_5  and  C_18
   10  A    between atoms: C_6  and  C_12
   11  A    between atoms: C_11  and  S_14
   12  A    between atoms: C_18  and  C_24
   13  A    between atoms: C_19  and  C_25
   14  A    between atoms: C_21  and  C_24
                            x       y       z     vdW  Elec       q    Type
                         _______ _______ _______ _____ _____    ______ ____

>  <TORSDO>
F 14

$$$$
=
 OpenBabel10262422303D

 43 47  0  0  1  0  0  0  0  0999 V2000
  185.4530  178.5310  145.0810 C   0  0  0  0  0  0  0  0  0  0  0  0
  186.1530  178.6160  142.3600 C   0  0  0  0  0  0  0  0  0  0  0  0
  187.3000  177.5660  146.9710 C   0  0  0  0  0  0  0  0  0  0  0  0
  187.6580  177.6010  145.6120 C   0  0  0  0  0  0  0  0  0  0  0  0
  188.1930  177.1010  147.9300 O   0  0  0  0  0  1  0  0  0  0  0  0
  187.0620  178.1340  143.3000 C   0  0  0  0  0  3  0  0  0  0  0  0
  186.7330  178.0830  144.6610 C   0  0  0  0  0  0  0  0  0  0  0  0
  185.1230  178.4840  146.4420 C   0  0  0  0  0  3  0  0  0  0  0  0
  184.5360  179.0240  144.1290 C   0  0  0  0  0  0  0  0  0  0  0  0
  184.8940  179.0660  142.7780 C   0  0  0  0  0  3  0  0  0  0  0  0
  186.0390  178.0050  147.3770 C   0  0  0  0  0  3  0  0  0  0  0  0
  186.5700  178.6860  140.9250 C   0  0  1  0  0  3  0  0  0  0  0  0
  188.0100  178.2380  140.7350 C   0  0  0  0  0  1  0  0  0  0  0  0
  185.6280  177.8740  140.0480 C   0  0  0  0  0  2  0  0  0  0  0  0
  185.0310  178.7360  138.9830 C   0  0  0  0  0  0  0  0  0  0  0  0
  184.5550  179.8230  139.2720 O   0  0  0  0  0  0  0  0  0  0  0  0
  185.0730  178.2890  137.5450 C   0  0  0  0  0  2  0  0  0  0  0  0
  186.1050  177.2790  137.2490 N   0  0  0  0  0  0  0  0  0  0  0  0
  184.5620  175.3900  137.2130 C   0  0  0  0  0  2  0  0  0  0  0  0
  185.5630  176.2080  136.4140 C   0  0  0  0  0  3  0  0  0  0  0  0
  185.9600  174.8590  136.9850 C   0  0  0  0  0  2  0  0  0  0  0  0
  187.4800  178.0010  136.4550 S   0  0  0  0  0  0  0  0  0  0  0  0
  187.1600  178.2880  135.0140 O   0  0  0  0  0  0  0  0  0  0  0  0
  187.8500  179.2860  137.1450 O   0  0  0  0  0  0  0  0  0  0  0  0
  188.8630  176.8790  136.5290 C   0  0  0  0  0  3  0  0  0  0  0  0
  191.1570  176.7430  137.6740 C   0  0  0  0  0  2  0  0  0  0  0  0
  190.8710  175.9890  135.2780 C   0  0  0  0  0  2  0  0  0  0  0  0
  191.3450  175.5970  136.6850 C   0  0  0  0  0  2  0  0  0  0  0  0
  189.7300  177.0160  135.2800 C   0  0  0  0  0  2  0  0  0  0  0  0
  189.6760  177.1200  137.8100 C   0  0  0  0  0  2  0  0  0  0  0  0
  183.1640  179.4840  144.5200 C   0  0  0  0  0  2  0  0  0  0  0  0
  181.4940  178.5400  141.2490 C   0  0  0  0  0  3  0  0  0  0  0  0
  180.2200  178.1620  141.6880 C   0  0  0  0  0  0  0  0  0  0  0  0
  180.8750  178.6260  143.9740 C   0  0  0  0  0  3  0  0  0  0  0  0
  182.4540  178.9660  142.1710 C   0  0  0  0  0  3  0  0  0  0  0  0
  182.1470  179.0070  143.5360 C   0  0  0  0  0  0  0  0  0  0  0  0
  179.9130  178.2000  143.0530 C   0  0  0  0  0  3  0  0  0  0  0  0
  179.2020  177.6950  140.7070 C   0  0  0  0  0  2  0  0  0  0  0  0
  179.2250  176.1820  140.6070 C   0  0  0  0  0  1  0  0  0  0  0  0
  189.0190  177.1120  145.1980 C   0  0  0  0  0  2  0  0  0  0  0  0
  189.9980  178.2660  145.0230 C   0  0  0  0  0  2  0  0  0  0  0  0
  190.8260  178.0690  143.8290 C   0  0  0  0  0  0  0  0  0  0  0  0
  191.5080  177.9080  142.8470 C   0  0  0  0  0  3  0  0  0  0  0  0
  1  8  1  0  0  0  0
  2 10  2  0  0  0  0
  2  6  1  0  0  0  0
  3 11  1  0  0  0  0
  3  5  1  0  0  0  0
  4  3  2  0  0  0  0
  6  7  2  0  0  0  0
  7  1  1  0  0  0  0
  7  4  1  0  0  0  0
  8 11  2  0  0  0  0
  9 31  1  0  0  0  0
  9  1  2  0  0  0  0
 10  9  1  0  0  0  0
 12 13  1  1  0  0  0
 12  2  1  0  0  0  0
 14 12  1  0  0  0  0
 15 16  2  0  0  0  0
 15 14  1  0  0  0  0
 17 15  1  0  0  0  0
 18 17  1  0  0  0  0
 20 21  1  0  0  0  0
 20 19  1  0  0  0  0
 20 18  1  0  0  0  0
 21 19  1  0  0  0  0
 22 25  1  0  0  0  0
 22 24  2  0  0  0  0
 22 18  1  0  0  0  0
 23 22  2  0  0  0  0
 25 30  1  0  0  0  0
 26 30  1  0  0  0  0
 27 29  1  0  0  0  0
 27 28  1  0  0  0  0
 28 26  1  0  0  0  0
 29 25  1  0  0  0  0
 32 33  2  0  0  0  0
 32 35  1  0  0  0  0
 33 37  1  0  0  0  0
 35 36  2  0  0  0  0
 36 34  1  0  0  0  0
 36 31  1  0  0  0  0
 37 34  2  0  0  0  0
 38 33  1  0  0  0  0
 39 38  1  0  0  0  0
 40  4  1  0  0  0  0
 41 40  1  0  0  0  0
 42 41  1  0  0  0  0
 43 42  3  0  0  0  0
M  END
>  <MODEL>
9

>  <REMARK>
 VINA RESULT:      -7.3      2.577      4.253
  Name = 
  14 active torsions:
  status: ('A' for Active; 'I' for Inactive)
    1  A    between atoms: C_1  and  C_34
    2  A    between atoms: C_1  and  C_35
    3  A    between atoms: C_2  and  C_6
    4  A    between atoms: C_2  and  C_13
    5  A    between atoms: C_3  and  N_4
    6  A    between atoms: C_3  and  C_12
    7  A    between atoms: N_4  and  S_14
    8  A    between atoms: N_4  and  C_15
    9  A    between atoms: C_5  and  C_18
   10  A    between atoms: C_6  and  C_12
   11  A    between atoms: C_11  and  S_14
   12  A    between atoms: C_18  and  C_24
   13  A    between atoms: C_19  and  C_25
   14  A    between atoms: C_21  and  C_24
                            x       y       z     vdW  Elec       q    Type
                         _______ _______ _______ _____ _____    ______ ____

>  <TORSDO>
F 14

$$$$
