=
 OpenBabel10262420253D

 55 62  0  0  1  0  0  0  0  0999 V2000
  183.8600  175.2560  136.3950 O   0  0  0  0  0  0  0  0  0  0  0  0
  187.4220  177.9990  136.9810 C   0  0  0  0  0  2  0  0  0  0  0  0
  186.7720  176.5490  135.2060 O   0  0  0  0  0  0  0  0  0  0  0  0
  189.2670  174.2660  136.3210 C   0  0  0  0  0  2  0  0  0  0  0  0
  190.4690  173.3430  136.1540 C   0  0  0  0  0  2  0  0  0  0  0  0
  187.8240  172.3630  135.5820 C   0  0  0  0  0  0  0  0  0  0  0  0
  188.9860  171.8300  134.8550 C   0  0  0  0  0  3  0  0  0  0  0  0
  186.9050  175.5360  137.3140 N   0  0  0  0  0  2  0  0  0  0  0  0
  190.2120  172.3100  135.0900 C   0  0  0  0  0  3  0  0  0  0  0  0
  182.8520  177.4900  135.9120 C   0  0  0  0  0  2  0  0  0  0  0  0
  188.0260  173.4220  136.6430 C   0  0  2  0  0  3  0  0  0  0  0  0
  182.3560  177.8370  138.7090 C   0  0  1  0  0  3  0  0  0  0  0  0
  184.3300  174.2250  137.2530 C   0  0  0  0  0  2  0  0  0  0  0  0
  182.9450  176.5520  138.1800 C   0  0  0  0  0  3  0  0  0  0  0  0
  185.4430  172.4630  135.9080 C   0  0  0  0  0  0  0  0  0  0  0  0
  186.6000  178.2060  139.3240 C   0  0  0  0  0  2  0  0  0  0  0  0
  186.6320  171.9290  135.3030 N   0  0  0  0  0  0  0  0  0  0  0  0
  186.3710  178.6280  137.8870 C   0  0  0  0  0  2  0  0  0  0  0  0
  186.9840  176.6740  136.4470 C   0  0  0  0  0  0  0  0  0  0  0  0
  181.4620  178.0260  136.2620 C   0  0  0  0  0  2  0  0  0  0  0  0
  185.6460  178.9410  140.2610 C   0  0  1  0  0  3  0  0  0  0  0  0
  183.2120  176.3960  136.8740 C   0  0  0  0  0  0  0  0  0  0  0  0
  186.8140  174.2360  136.7900 N   0  0  0  0  0  0  0  0  0  0  0  0
  185.5320  173.5920  136.6440 C   0  0  0  0  0  0  0  0  0  0  0  0
  184.2610  178.3030  140.2560 C   0  0  0  0  0  2  0  0  0  0  0  0
  183.4850  178.7940  139.0270 C   0  0  0  0  0  2  0  0  0  0  0  0
  181.3830  178.5150  137.7210 C   0  0  0  0  0  2  0  0  0  0  0  0
  183.3090  172.5310  134.5940 C   0  0  0  0  0  3  0  0  0  0  0  0
  181.1790  171.8310  135.7250 C   0  0  1  0  0  3  0  0  0  0  0  0
  183.3660  171.3570  136.8550 C   0  0  0  0  0  2  0  0  0  0  0  0
  182.0220  170.7650  136.4470 C   0  0  0  0  0  2  0  0  0  0  0  0
  181.9680  172.5150  134.6260 C   0  0  0  0  0  3  0  0  0  0  0  0
  184.1430  171.7750  135.6030 C   0  0  2  0  0  3  0  0  0  0  0  0
  179.8740  171.2430  135.1710 C   0  0  1  0  0  3  0  0  0  0  0  0
  179.2090  170.3370  136.1940 C   0  0  0  0  0  1  0  0  0  0  0  0
  178.9490  172.3090  134.8190 N   0  0  0  0  0  1  0  0  0  0  0  0
  186.2140  178.9210  141.6670 C   0  0  0  0  0  2  0  0  0  0  0  0
  187.4960  178.2200  141.6710 N   0  0  0  0  0  2  0  0  0  0  0  0
  186.9950  178.3320  143.9630 O   0  0  0  0  0  1  0  0  0  0  0  0
  187.8410  177.7420  143.0190 C   0  0  1  0  0  0  0  0  0  0  0  0
  187.6820  176.3640  143.0710 F   0  0  0  0  0  0  0  0  0  0  0  0
  191.3600  178.2640  145.0000 C   0  0  0  0  0  2  0  0  0  0  0  0
  189.3030  178.1720  143.3250 C   0  0  1  0  0  0  0  0  0  0  0  0
  189.9660  176.0500  142.2650 O   0  0  0  0  0  0  0  0  0  0  0  0
  190.4150  177.3210  142.7010 C   0  0  2  0  0  3  0  0  0  0  0  0
  190.2210  175.0900  143.2810 C   0  0  0  0  0  2  0  0  0  0  0  0
  191.0530  177.1330  144.0450 C   0  0  1  0  0  0  0  0  0  0  0  0
  189.4880  179.5160  142.9660 O   0  0  0  0  0  1  0  0  0  0  0  0
  191.0790  175.6810  144.3930 C   0  0  2  0  0  3  0  0  0  0  0  0
  189.8930  177.9290  144.7280 C   0  0  1  0  0  0  0  0  0  0  0  0
  189.1370  177.1030  145.7060 N   0  0  0  0  0  0  0  0  0  0  0  0
  188.2180  177.9070  146.2910 O   0  0  0  0  0  1  0  0  0  0  0  0
  189.9970  176.6490  146.8010 C   0  0  0  0  0  1  0  0  0  0  0  0
  192.4420  175.1910  144.2580 N   0  0  0  0  0  2  0  0  0  0  0  0
  192.4370  173.8520  144.6800 N   0  0  0  0  0  1  0  0  0  0  0  0
  1 22  1  0  0  0  0
  1 13  1  0  0  0  0
  2 18  1  0  0  0  0
  3 19  2  0  0  0  0
  5  4  1  0  0  0  0
  6 11  1  0  0  0  0
  7  9  2  0  0  0  0
  7  6  1  0  0  0  0
  9  5  1  0  0  0  0
 10 20  1  0  0  0  0
 10 22  1  0  0  0  0
 11  4  1  6  0  0  0
 11 23  1  0  0  0  0
 12 27  1  6  0  0  0
 12 26  1  0  0  0  0
 14 12  1  0  0  0  0
 15 24  2  0  0  0  0
 16 21  1  0  0  0  0
 17  6  2  0  0  0  0
 17 15  1  0  0  0  0
 18 16  1  0  0  0  0
 19  2  1  0  0  0  0
 19  8  1  0  0  0  0
 20 27  1  0  0  0  0
 21 37  1  1  0  0  0
 22 14  2  0  0  0  0
 23  8  1  0  0  0  0
 24 23  1  0  0  0  0
 24 13  1  0  0  0  0
 25 21  1  0  0  0  0
 26 25  1  0  0  0  0
 28 32  2  0  0  0  0
 28 33  1  0  0  0  0
 29 34  1  6  0  0  0
 29 31  1  0  0  0  0
 31 30  1  0  0  0  0
 32 29  1  0  0  0  0
 33 15  1  1  0  0  0
 33 30  1  0  0  0  0
 34 35  1  1  0  0  0
 36 34  1  0  0  0  0
 37 38  1  0  0  0  0
 38 40  1  0  0  0  0
 40 41  1  1  0  0  0
 40 43  1  0  0  0  0
 40 39  1  0  0  0  0
 43 48  1  6  0  0  0
 43 50  1  0  0  0  0
 44 46  1  0  0  0  0
 45 44  1  1  0  0  0
 45 43  1  0  0  0  0
 45 47  1  0  0  0  0
 46 49  1  0  0  0  0
 47 49  1  0  0  0  0
 47 50  1  0  0  0  0
 47 42  1  1  0  0  0
 49 54  1  6  0  0  0
 50 42  1  0  0  0  0
 50 51  1  1  0  0  0
 51 52  1  0  0  0  0
 51 53  1  0  0  0  0
 54 55  1  0  0  0  0
M  END
>  <MODEL>
1

>  <REMARK>
 VINA RESULT:      -6.7      0.000      0.000
  Name = 
  8 active torsions:
  status: ('A' for Active; 'I' for Inactive)
    1  A    between atoms: N_1  and  C_53
    2  A    between atoms: C_6  and  C_20
    3  A    between atoms: C_8  and  N_22
    4  A    between atoms: C_8  and  C_43
    5  A    between atoms: C_10  and  C_32
    6  A    between atoms: N_11  and  C_50
    7  A    between atoms: C_20  and  N_22
    8  A    between atoms: C_33  and  C_52
                            x       y       z     vdW  Elec       q    Type
                         _______ _______ _______ _____ _____    ______ ____

>  <TORSDO>
F 8

$$$$
=
 OpenBabel10262420253D

 55 62  0  0  1  0  0  0  0  0999 V2000
  190.0230  177.0740  141.7680 O   0  0  0  0  0  0  0  0  0  0  0  0
  187.1400  178.8880  138.7780 C   0  0  0  0  0  2  0  0  0  0  0  0
  188.0020  179.6540  140.8610 O   0  0  0  0  0  0  0  0  0  0  0  0
  184.8530  178.8600  142.3200 C   0  0  0  0  0  2  0  0  0  0  0  0
  183.6020  179.1410  143.1450 C   0  0  0  0  0  2  0  0  0  0  0  0
  186.0150  178.2790  144.4560 C   0  0  0  0  0  0  0  0  0  0  0  0
  185.0650  179.1600  145.1530 C   0  0  0  0  0  3  0  0  0  0  0  0
  186.9800  177.5490  140.9290 N   0  0  0  0  0  2  0  0  0  0  0  0
  183.9620  179.5940  144.5340 C   0  0  0  0  0  3  0  0  0  0  0  0
  191.5870  177.8790  139.9960 C   0  0  0  0  0  2  0  0  0  0  0  0
  185.7110  177.8160  143.0490 C   0  0  2  0  0  3  0  0  0  0  0  0
  191.2110  175.4160  138.5880 C   0  0  1  0  0  3  0  0  0  0  0  0
  189.0900  176.1600  142.3310 C   0  0  0  0  0  2  0  0  0  0  0  0
  190.5650  175.6470  139.9320 C   0  0  0  0  0  3  0  0  0  0  0  0
  188.1230  177.1250  144.4020 C   0  0  0  0  0  0  0  0  0  0  0  0
  187.1810  176.6400  137.7030 C   0  0  0  0  0  2  0  0  0  0  0  0
  187.1100  177.9110  145.0490 N   0  0  0  0  0  0  0  0  0  0  0  0
  187.9480  177.9300  137.9140 C   0  0  0  0  0  2  0  0  0  0  0  0
  187.4310  178.7170  140.2330 C   0  0  0  0  0  0  0  0  0  0  0  0
  192.8690  177.2340  139.4640 C   0  0  0  0  0  2  0  0  0  0  0  0
  187.9130  175.7290  136.7230 C   0  0  1  0  0  3  0  0  0  0  0  0
  190.7090  176.8130  140.5810 C   0  0  0  0  0  0  0  0  0  0  0  0
  186.9540  177.5110  142.3320 N   0  0  0  0  0  0  0  0  0  0  0  0
  188.0450  176.9210  143.0690 C   0  0  0  0  0  0  0  0  0  0  0  0
  189.0540  174.9820  137.4050 C   0  0  0  0  0  2  0  0  0  0  0  0
  190.2740  175.9090  137.5070 C   0  0  0  0  0  2  0  0  0  0  0  0
  192.5740  176.1250  138.4360 C   0  0  0  0  0  2  0  0  0  0  0  0
  188.8700  176.3770  146.6750 C   0  0  0  0  0  3  0  0  0  0  0  0
  191.0990  177.1590  147.5260 C   0  0  1  0  0  3  0  0  0  0  0  0
  190.5270  177.5180  145.1120 C   0  0  0  0  0  2  0  0  0  0  0  0
  191.5970  177.0190  146.0760 C   0  0  0  0  0  2  0  0  0  0  0  0
  189.7160  176.5660  147.7000 C   0  0  0  0  0  3  0  0  0  0  0  0
  189.2730  176.6490  145.2450 C   0  0  2  0  0  3  0  0  0  0  0  0
  192.0850  176.5410  148.5260 C   0  0  1  0  0  3  0  0  0  0  0  0
  193.0750  175.6280  147.8210 C   0  0  0  0  0  1  0  0  0  0  0  0
  192.8240  177.5850  149.2190 N   0  0  0  0  0  1  0  0  0  0  0  0
  186.9300  174.7350  136.1350 C   0  0  0  0  0  2  0  0  0  0  0  0
  185.5720  175.2690  136.2340 N   0  0  0  0  0  2  0  0  0  0  0  0
  184.9140  173.1120  135.5760 O   0  0  0  0  0  1  0  0  0  0  0  0
  184.5850  174.1920  136.4030 C   0  0  1  0  0  0  0  0  0  0  0  0
  184.5930  173.7660  137.7240 F   0  0  0  0  0  0  0  0  0  0  0  0
  180.5480  174.5490  136.0140 C   0  0  0  0  0  2  0  0  0  0  0  0
  183.1950  174.7380  135.9740 C   0  0  1  0  0  0  0  0  0  0  0  0
  183.3500  176.1930  137.9550 O   0  0  0  0  0  0  0  0  0  0  0  0
  182.6780  175.9690  136.7290 C   0  0  2  0  0  3  0  0  0  0  0  0
  182.6000  175.6100  139.0120 C   0  0  0  0  0  2  0  0  0  0  0  0
  181.3940  175.2620  137.0440 C   0  0  1  0  0  0  0  0  0  0  0  0
  183.1920  175.0020  134.5960 O   0  0  0  0  0  1  0  0  0  0  0  0
  181.2350  175.1400  138.5230 C   0  0  2  0  0  3  0  0  0  0  0  0
  181.9180  173.9610  136.3510 C   0  0  1  0  0  0  0  0  0  0  0  0
  182.0120  172.8150  137.2940 N   0  0  0  0  0  0  0  0  0  0  0  0
  182.6270  171.8030  136.6400 O   0  0  0  0  0  1  0  0  0  0  0  0
  180.6870  172.2960  137.6390 C   0  0  0  0  0  1  0  0  0  0  0  0
  180.2180  176.0810  138.9660 N   0  0  0  0  0  2  0  0  0  0  0  0
  180.5750  176.4880  140.2600 N   0  0  0  0  0  1  0  0  0  0  0  0
  1 13  1  0  0  0  0
  2 19  1  0  0  0  0
  4  5  1  0  0  0  0
  5  9  1  0  0  0  0
  6 17  2  0  0  0  0
  6  7  1  0  0  0  0
  8 23  1  0  0  0  0
  9  7  2  0  0  0  0
 10 22  1  0  0  0  0
 11  4  1  6  0  0  0
 11  6  1  0  0  0  0
 12 26  1  6  0  0  0
 12 14  1  0  0  0  0
 13 24  1  0  0  0  0
 14 22  2  0  0  0  0
 15 17  1  0  0  0  0
 16 18  1  0  0  0  0
 18  2  1  0  0  0  0
 19  3  2  0  0  0  0
 19  8  1  0  0  0  0
 20 10  1  0  0  0  0
 21 37  1  1  0  0  0
 21 25  1  0  0  0  0
 21 16  1  0  0  0  0
 22  1  1  0  0  0  0
 23 11  1  0  0  0  0
 23 24  1  0  0  0  0
 24 15  2  0  0  0  0
 25 26  1  0  0  0  0
 27 12  1  0  0  0  0
 27 20  1  0  0  0  0
 28 32  2  0  0  0  0
 29 32  1  0  0  0  0
 29 34  1  1  0  0  0
 30 33  1  0  0  0  0
 30 31  1  0  0  0  0
 31 29  1  0  0  0  0
 33 15  1  6  0  0  0
 33 28  1  0  0  0  0
 34 35  1  6  0  0  0
 34 36  1  0  0  0  0
 37 38  1  0  0  0  0
 38 40  1  0  0  0  0
 40 39  1  6  0  0  0
 40 41  1  0  0  0  0
 42 50  1  0  0  0  0
 43 48  1  6  0  0  0
 43 50  1  0  0  0  0
 43 40  1  0  0  0  0
 43 45  1  0  0  0  0
 44 46  1  0  0  0  0
 45 47  1  0  0  0  0
 45 44  1  1  0  0  0
 47 42  1  6  0  0  0
 47 49  1  0  0  0  0
 49 54  1  1  0  0  0
 49 46  1  0  0  0  0
 50 47  1  0  0  0  0
 50 51  1  1  0  0  0
 51 53  1  0  0  0  0
 52 51  1  0  0  0  0
 54 55  1  0  0  0  0
M  END
>  <MODEL>
2

>  <REMARK>
 VINA RESULT:      -5.9      2.754     10.968
  Name = 
  8 active torsions:
  status: ('A' for Active; 'I' for Inactive)
    1  A    between atoms: N_1  and  C_53
    2  A    between atoms: C_6  and  C_20
    3  A    between atoms: C_8  and  N_22
    4  A    between atoms: C_8  and  C_43
    5  A    between atoms: C_10  and  C_32
    6  A    between atoms: N_11  and  C_50
    7  A    between atoms: C_20  and  N_22
    8  A    between atoms: C_33  and  C_52
                            x       y       z     vdW  Elec       q    Type
                         _______ _______ _______ _____ _____    ______ ____

>  <TORSDO>
F 8

$$$$
=
 OpenBabel10262420253D

 55 62  0  0  1  0  0  0  0  0999 V2000
  185.4550  176.8210  137.3160 O   0  0  0  0  0  0  0  0  0  0  0  0
  187.6570  173.9020  134.6360 C   0  0  0  0  0  2  0  0  0  0  0  0
  185.4340  174.7560  134.6140 O   0  0  0  0  0  0  0  0  0  0  0  0
  184.3480  171.6230  135.9100 C   0  0  0  0  0  2  0  0  0  0  0  0
  183.4820  170.3690  135.9490 C   0  0  0  0  0  2  0  0  0  0  0  0
  182.5340  172.7980  137.1680 C   0  0  0  0  0  0  0  0  0  0  0  0
  181.5820  171.8360  136.5940 C   0  0  0  0  0  3  0  0  0  0  0  0
  186.0940  173.7690  136.6330 N   0  0  0  0  0  2  0  0  0  0  0  0
  182.0190  170.7240  135.9920 C   0  0  0  0  0  3  0  0  0  0  0  0
  186.8400  178.3690  135.9280 C   0  0  0  0  0  2  0  0  0  0  0  0
  184.0160  172.5000  137.1270 C   0  0  2  0  0  3  0  0  0  0  0  0
  189.0060  178.0310  137.7670 C   0  0  1  0  0  3  0  0  0  0  0  0
  185.2430  175.9050  138.3820 C   0  0  0  0  0  2  0  0  0  0  0  0
  187.6660  177.3840  138.0200 C   0  0  0  0  0  3  0  0  0  0  0  0
  182.9710  174.9260  138.1990 C   0  0  0  0  0  0  0  0  0  0  0  0
  189.4350  173.9800  136.3810 C   0  0  0  0  0  2  0  0  0  0  0  0
  182.0980  173.9010  137.6990 N   0  0  0  0  0  0  0  0  0  0  0  0
  188.7940  174.7260  135.2280 C   0  0  0  0  0  2  0  0  0  0  0  0
  186.3480  174.2000  135.2900 C   0  0  0  0  0  0  0  0  0  0  0  0
  187.5550  179.6600  136.3310 C   0  0  0  0  0  2  0  0  0  0  0  0
  190.6650  174.7260  136.8900 C   0  0  1  0  0  3  0  0  0  0  0  0
  186.6570  177.5090  137.1440 C   0  0  0  0  0  0  0  0  0  0  0  0
  184.7890  173.7470  137.1490 N   0  0  0  0  0  0  0  0  0  0  0  0
  184.2940  174.8480  137.9370 C   0  0  0  0  0  0  0  0  0  0  0  0
  190.2750  175.8800  137.8060 C   0  0  0  0  0  2  0  0  0  0  0  0
  189.8580  177.0840  136.9500 C   0  0  0  0  0  2  0  0  0  0  0  0
  188.9010  179.3820  137.0260 C   0  0  0  0  0  2  0  0  0  0  0  0
  181.2140  175.6560  139.8320 C   0  0  0  0  0  3  0  0  0  0  0  0
  179.9260  177.7570  139.3510 C   0  0  1  0  0  3  0  0  0  0  0  0
  181.9670  177.2460  137.9880 C   0  0  0  0  0  2  0  0  0  0  0  0
  181.2410  178.3240  138.7860 C   0  0  0  0  0  2  0  0  0  0  0  0
  180.1470  176.4380  140.0610 C   0  0  0  0  0  3  0  0  0  0  0  0
  182.3370  176.0850  138.9160 C   0  0  2  0  0  3  0  0  0  0  0  0
  179.2280  178.7630  140.2770 C   0  0  1  0  0  3  0  0  0  0  0  0
  179.4440  178.3970  141.7370 C   0  0  0  0  0  1  0  0  0  0  0  0
  179.7460  180.1030  140.0500 N   0  0  0  0  0  1  0  0  0  0  0  0
  191.5610  173.7580  137.6380 C   0  0  0  0  0  2  0  0  0  0  0  0
  192.9440  174.2310  137.5930 N   0  0  0  0  0  2  0  0  0  0  0  0
  193.1220  172.1820  136.4600 O   0  0  0  0  0  1  0  0  0  0  0  0
  193.7650  173.4000  136.7000 C   0  0  1  0  0  0  0  0  0  0  0  0
  193.9400  174.0620  135.4920 F   0  0  0  0  0  0  0  0  0  0  0  0
  197.6080  172.2030  137.3160 C   0  0  0  0  0  2  0  0  0  0  0  0
  195.1170  173.1160  137.4120 C   0  0  1  0  0  0  0  0  0  0  0  0
  195.7050  175.4400  136.8460 O   0  0  0  0  0  0  0  0  0  0  0  0
  196.0360  174.3210  137.6480 C   0  0  2  0  0  3  0  0  0  0  0  0
  196.5180  175.4370  135.6800 C   0  0  0  0  0  2  0  0  0  0  0  0
  197.1740  173.6110  136.9780 C   0  0  1  0  0  0  0  0  0  0  0  0
  194.8850  172.4620  138.6310 O   0  0  0  0  0  1  0  0  0  0  0  0
  197.6120  174.3820  135.7770 C   0  0  2  0  0  3  0  0  0  0  0  0
  196.2460  172.3950  136.6480 C   0  0  1  0  0  0  0  0  0  0  0  0
  196.1090  172.1660  135.1850 N   0  0  0  0  0  0  0  0  0  0  0  0
  195.2480  171.1350  135.0160 O   0  0  0  0  0  1  0  0  0  0  0  0
  197.3690  171.7110  134.5950 C   0  0  0  0  0  1  0  0  0  0  0  0
  198.8790  175.0320  136.0740 N   0  0  0  0  0  2  0  0  0  0  0  0
  199.0290  175.0140  137.4690 N   0  0  0  0  0  1  0  0  0  0  0  0
  1 13  1  0  0  0  0
  2 18  1  0  0  0  0
  2 19  1  0  0  0  0
  3 19  2  0  0  0  0
  4  5  1  0  0  0  0
  5  9  1  0  0  0  0
  6 17  2  0  0  0  0
  7  6  1  0  0  0  0
  8 23  1  0  0  0  0
  9  7  2  0  0  0  0
 10 20  1  0  0  0  0
 10 22  1  0  0  0  0
 11  4  1  6  0  0  0
 11 23  1  0  0  0  0
 11  6  1  0  0  0  0
 12 26  1  6  0  0  0
 12 14  1  0  0  0  0
 16 21  1  0  0  0  0
 17 15  1  0  0  0  0
 18 16  1  0  0  0  0
 19  8  1  0  0  0  0
 20 27  1  0  0  0  0
 21 37  1  1  0  0  0
 21 25  1  0  0  0  0
 22  1  1  0  0  0  0
 22 14  2  0  0  0  0
 23 24  1  0  0  0  0
 24 15  2  0  0  0  0
 24 13  1  0  0  0  0
 26 25  1  0  0  0  0
 27 12  1  0  0  0  0
 28 32  2  0  0  0  0
 29 32  1  0  0  0  0
 29 34  1  1  0  0  0
 30 31  1  0  0  0  0
 30 33  1  0  0  0  0
 31 29  1  0  0  0  0
 33 15  1  6  0  0  0
 33 28  1  0  0  0  0
 34 35  1  1  0  0  0
 36 34  1  0  0  0  0
 38 37  1  0  0  0  0
 39 40  1  0  0  0  0
 40 41  1  6  0  0  0
 40 43  1  0  0  0  0
 40 38  1  0  0  0  0
 43 45  1  0  0  0  0
 43 48  1  1  0  0  0
 45 44  1  6  0  0  0
 46 49  1  0  0  0  0
 46 44  1  0  0  0  0
 47 42  1  1  0  0  0
 47 45  1  0  0  0  0
 49 54  1  1  0  0  0
 49 47  1  0  0  0  0
 50 51  1  6  0  0  0
 50 47  1  0  0  0  0
 50 42  1  0  0  0  0
 50 43  1  0  0  0  0
 52 51  1  0  0  0  0
 53 51  1  0  0  0  0
 54 55  1  0  0  0  0
M  END
>  <MODEL>
3

>  <REMARK>
 VINA RESULT:      -5.3      4.790      8.012
  Name = 
  8 active torsions:
  status: ('A' for Active; 'I' for Inactive)
    1  A    between atoms: N_1  and  C_53
    2  A    between atoms: C_6  and  C_20
    3  A    between atoms: C_8  and  N_22
    4  A    between atoms: C_8  and  C_43
    5  A    between atoms: C_10  and  C_32
    6  A    between atoms: N_11  and  C_50
    7  A    between atoms: C_20  and  N_22
    8  A    between atoms: C_33  and  C_52
                            x       y       z     vdW  Elec       q    Type
                         _______ _______ _______ _____ _____    ______ ____

>  <TORSDO>
F 8

$$$$
=
 OpenBabel10262420253D

 55 62  0  0  1  0  0  0  0  0999 V2000
  187.7920  178.1460  139.6350 O   0  0  0  0  0  0  0  0  0  0  0  0
  186.8260  177.5250  135.2500 C   0  0  0  0  0  2  0  0  0  0  0  0
  186.5230  179.3690  136.7270 O   0  0  0  0  0  0  0  0  0  0  0  0
  183.0630  178.5390  136.8600 C   0  0  0  0  0  2  0  0  0  0  0  0
  181.5690  178.8270  136.7720 C   0  0  0  0  0  2  0  0  0  0  0  0
  182.9830  179.3480  139.2240 C   0  0  0  0  0  0  0  0  0  0  0  0
  181.8180  180.1640  138.8520 C   0  0  0  0  0  3  0  0  0  0  0  0
  185.5930  177.3500  137.4630 N   0  0  0  0  0  2  0  0  0  0  0  0
  181.1810  179.9510  137.6960 C   0  0  0  0  0  3  0  0  0  0  0  0
  190.0430  178.4180  138.5870 C   0  0  0  0  0  2  0  0  0  0  0  0
  183.4290  178.2230  138.3170 C   0  0  2  0  0  3  0  0  0  0  0  0
  190.4130  175.5840  138.7180 C   0  0  1  0  0  3  0  0  0  0  0  0
  186.6980  177.3870  140.1320 C   0  0  0  0  0  2  0  0  0  0  0  0
  189.1780  176.2310  139.2950 C   0  0  0  0  0  3  0  0  0  0  0  0
  184.8230  178.9070  140.7080 C   0  0  0  0  0  0  0  0  0  0  0  0
  187.3900  175.1380  135.6880 C   0  0  0  0  0  2  0  0  0  0  0  0
  183.6270  179.6030  140.3230 N   0  0  0  0  0  0  0  0  0  0  0  0
  187.9540  176.5290  135.4810 C   0  0  0  0  0  2  0  0  0  0  0  0
  186.3420  178.1330  136.5260 C   0  0  0  0  0  0  0  0  0  0  0  0
  191.4140  177.9670  139.0960 C   0  0  0  0  0  2  0  0  0  0  0  0
  188.5110  174.1070  135.7770 C   0  0  1  0  0  3  0  0  0  0  0  0
  188.9820  177.5570  139.2060 C   0  0  0  0  0  0  0  0  0  0  0  0
  184.8620  177.9620  138.4930 N   0  0  0  0  0  0  0  0  0  0  0  0
  185.4280  178.0950  139.8130 C   0  0  0  0  0  0  0  0  0  0  0  0
  189.1470  174.0950  137.1630 C   0  0  0  0  0  2  0  0  0  0  0  0
  190.1540  175.2490  137.2650 C   0  0  0  0  0  2  0  0  0  0  0  0
  191.6710  176.4750  138.8140 C   0  0  0  0  0  2  0  0  0  0  0  0
  186.5800  178.3360  142.4030 C   0  0  0  0  0  3  0  0  0  0  0  0
  185.9290  178.2490  144.8260 C   0  0  1  0  0  3  0  0  0  0  0  0
  184.3260  179.2400  143.1730 C   0  0  0  0  0  2  0  0  0  0  0  0
  185.0030  179.4420  144.5240 C   0  0  0  0  0  2  0  0  0  0  0  0
  186.8460  177.9460  143.6590 C   0  0  0  0  0  3  0  0  0  0  0  0
  185.3870  179.2010  142.0700 C   0  0  2  0  0  3  0  0  0  0  0  0
  186.7390  178.4720  146.1110 C   0  0  1  0  0  3  0  0  0  0  0  0
  185.8880  179.1310  147.1840 C   0  0  0  0  0  1  0  0  0  0  0  0
  187.2350  177.2040  146.6220 N   0  0  0  0  0  1  0  0  0  0  0  0
  187.9530  172.7340  135.4580 C   0  0  0  0  0  2  0  0  0  0  0  0
  186.8980  172.3960  136.4120 N   0  0  0  0  0  2  0  0  0  0  0  0
  185.4460  172.7260  134.5960 O   0  0  0  0  0  1  0  0  0  0  0  0
  185.6820  171.9350  135.7250 C   0  0  1  0  0  0  0  0  0  0  0  0
  185.8550  170.6180  135.3230 F   0  0  0  0  0  0  0  0  0  0  0  0
  182.1090  173.1390  137.2610 C   0  0  0  0  0  2  0  0  0  0  0  0
  184.4840  172.0950  136.7020 C   0  0  1  0  0  0  0  0  0  0  0  0
  183.5950  170.0420  135.6710 O   0  0  0  0  0  0  0  0  0  0  0  0
  183.4960  170.9240  136.7750 C   0  0  2  0  0  3  0  0  0  0  0  0
  182.6230  170.4020  134.6980 C   0  0  0  0  0  2  0  0  0  0  0  0
  182.3480  171.8500  136.5080 C   0  0  1  0  0  0  0  0  0  0  0  0
  184.9570  172.3870  137.9900 O   0  0  0  0  0  1  0  0  0  0  0  0
  181.6630  171.4530  135.2420 C   0  0  2  0  0  3  0  0  0  0  0  0
  183.3320  173.0560  136.3470 C   0  0  1  0  0  0  0  0  0  0  0  0
  183.2740  173.6580  134.9890 N   0  0  0  0  0  0  0  0  0  0  0  0
  184.0820  174.7430  134.9930 O   0  0  0  0  0  1  0  0  0  0  0  0
  181.9380  174.1790  134.6910 C   0  0  0  0  0  1  0  0  0  0  0  0
  180.3960  170.8190  135.5720 N   0  0  0  0  0  2  0  0  0  0  0  0
  180.3240  169.6370  134.8190 N   0  0  0  0  0  1  0  0  0  0  0  0
  1 13  1  0  0  0  0
  2 18  1  0  0  0  0
  2 19  1  0  0  0  0
  5  4  1  0  0  0  0
  5  9  1  0  0  0  0
  6 17  2  0  0  0  0
  7  6  1  0  0  0  0
  8 23  1  0  0  0  0
  9  7  2  0  0  0  0
 10 20  1  0  0  0  0
 10 22  1  0  0  0  0
 11  4  1  6  0  0  0
 11 23  1  0  0  0  0
 11  6  1  0  0  0  0
 12 26  1  6  0  0  0
 12 27  1  0  0  0  0
 12 14  1  0  0  0  0
 16 21  1  0  0  0  0
 17 15  1  0  0  0  0
 18 16  1  0  0  0  0
 19  3  2  0  0  0  0
 19  8  1  0  0  0  0
 21 37  1  1  0  0  0
 21 25  1  0  0  0  0
 22 14  2  0  0  0  0
 22  1  1  0  0  0  0
 23 24  1  0  0  0  0
 24 13  1  0  0  0  0
 24 15  2  0  0  0  0
 25 26  1  0  0  0  0
 27 20  1  0  0  0  0
 28 32  2  0  0  0  0
 29 34  1  1  0  0  0
 30 31  1  0  0  0  0
 31 29  1  0  0  0  0
 32 29  1  0  0  0  0
 33 15  1  6  0  0  0
 33 28  1  0  0  0  0
 33 30  1  0  0  0  0
 34 36  1  0  0  0  0
 34 35  1  1  0  0  0
 37 38  1  0  0  0  0
 40 39  1  6  0  0  0
 40 38  1  0  0  0  0
 40 43  1  0  0  0  0
 41 40  1  0  0  0  0
 43 45  1  0  0  0  0
 43 48  1  1  0  0  0
 45 44  1  6  0  0  0
 46 49  1  0  0  0  0
 46 44  1  0  0  0  0
 47 45  1  0  0  0  0
 47 42  1  1  0  0  0
 49 54  1  1  0  0  0
 49 47  1  0  0  0  0
 50 51  1  6  0  0  0
 50 47  1  0  0  0  0
 50 43  1  0  0  0  0
 50 42  1  0  0  0  0
 51 52  1  0  0  0  0
 53 51  1  0  0  0  0
 55 54  1  0  0  0  0
M  END
>  <MODEL>
4

>  <REMARK>
 VINA RESULT:      -3.8      3.053     10.156
  Name = 
  8 active torsions:
  status: ('A' for Active; 'I' for Inactive)
    1  A    between atoms: N_1  and  C_53
    2  A    between atoms: C_6  and  C_20
    3  A    between atoms: C_8  and  N_22
    4  A    between atoms: C_8  and  C_43
    5  A    between atoms: C_10  and  C_32
    6  A    between atoms: N_11  and  C_50
    7  A    between atoms: C_20  and  N_22
    8  A    between atoms: C_33  and  C_52
                            x       y       z     vdW  Elec       q    Type
                         _______ _______ _______ _____ _____    ______ ____

>  <TORSDO>
F 8

$$$$
