=
 OpenBabel10262423363D

 34 37  0  0  1  0  0  0  0  0999 V2000
  182.8130  176.0730  136.6420 C   0  0  1  0  0  3  0  0  0  0  0  0
  187.3350  176.2840  138.0380 O   0  0  0  0  0  1  0  0  0  0  0  0
  185.2120  174.3430  137.3910 C   0  0  0  0  0  3  0  0  0  0  0  0
  182.9240  174.4040  134.9050 O   0  0  0  0  0  0  0  0  0  0  0  0
  182.5040  173.2500  135.5720 C   0  0  0  0  0  2  0  0  0  0  0  0
  183.9290  173.6020  137.6010 C   0  0  0  0  0  2  0  0  0  0  0  0
  182.1370  175.4380  135.4210 C   0  0  0  0  0  2  0  0  0  0  0  0
  183.6400  172.6940  136.4150 C   0  0  0  0  0  2  0  0  0  0  0  0
  186.7920  176.0820  136.7670 C   0  0  2  0  0  3  0  0  0  0  0  0
  186.8890  177.3780  135.9500 C   0  0  2  0  0  3  0  0  0  0  0  0
  186.0160  177.2900  134.7000 C   0  0  0  0  0  2  0  0  0  0  0  0
  185.3720  175.5860  136.8890 C   0  0  0  0  0  0  0  0  0  0  0  0
  184.5300  177.1370  135.0450 C   0  0  0  0  0  2  0  0  0  0  0  0
  184.2630  176.5320  136.4360 C   0  0  1  0  0  3  0  0  0  0  0  0
  181.9810  176.9460  138.9790 C   0  0  2  0  0  3  0  0  0  0  0  0
  183.1670  179.7880  138.8990 C   0  0  0  0  0  2  0  0  0  0  0  0
  184.1750  177.9090  142.0020 C   0  0  0  0  0  2  0  0  0  0  0  0
  182.1280  178.4930  136.8810 C   0  0  1  0  0  3  0  0  0  0  0  0
  181.9460  177.0660  137.4330 C   0  0  1  0  0  3  0  0  0  0  0  0
  185.7500  179.1570  140.9070 C   0  0  2  0  0  3  0  0  0  0  0  0
  182.9380  177.6420  141.1670 C   0  0  0  0  0  2  0  0  0  0  0  0
  186.7660  178.3490  141.4350 O   0  0  0  0  0  1  0  0  0  0  0  0
  183.2840  177.3360  139.7070 C   0  0  2  0  0  3  0  0  0  0  0  0
  181.2490  178.7310  135.6620 C   0  0  0  0  0  1  0  0  0  0  0  0
  180.8940  180.2350  138.1530 C   0  0  0  0  0  2  0  0  0  0  0  0
  184.6290  179.2170  141.7630 O   0  0  0  0  0  0  0  0  0  0  0  0
  185.4130  178.7640  139.4880 C   0  0  0  0  0  0  0  0  0  0  0  0
  184.0060  178.5150  139.0190 C   0  0  2  0  0  3  0  0  0  0  0  0
  186.3170  178.6790  138.6740 O   0  0  0  0  0  0  0  0  0  0  0  0
  182.0430  179.6000  137.9170 C   0  0  0  0  0  0  0  0  0  0  0  0
  181.4170  175.6230  139.4720 C   0  0  0  0  0  1  0  0  0  0  0  0
  188.3060  177.6640  135.5700 C   0  0  0  0  0  0  0  0  0  0  0  0
  188.8410  177.0750  134.5940 O   0  0  0  0  0  0  0  0  0  0  0  0
  189.0370  178.5910  136.3010 O   0  0  0  0  0  1  0  0  0  0  0  0
  1  7  1  6  0  0  0
  3  6  1  0  0  0  0
  4  7  1  0  0  0  0
  4  5  1  0  0  0  0
  5  8  1  0  0  0  0
  8  6  1  0  0  0  0
  9 12  1  0  0  0  0
  9  2  1  1  0  0  0
 10 32  1  6  0  0  0
 10  9  1  0  0  0  0
 11 13  1  0  0  0  0
 11 10  1  0  0  0  0
 12  3  2  0  0  0  0
 14 13  1  6  0  0  0
 14  1  1  0  0  0  0
 14 12  1  0  0  0  0
 15 31  1  6  0  0  0
 15 23  1  0  0  0  0
 18 24  1  6  0  0  0
 18 19  1  0  0  0  0
 18 30  1  0  0  0  0
 19  1  1  6  0  0  0
 19 15  1  0  0  0  0
 20 22  1  1  0  0  0
 20 26  1  0  0  0  0
 21 17  1  0  0  0  0
 23 21  1  1  0  0  0
 26 17  1  0  0  0  0
 27 20  1  0  0  0  0
 28 16  1  1  0  0  0
 28 27  1  0  0  0  0
 28 23  1  0  0  0  0
 29 27  2  0  0  0  0
 30 25  2  0  0  0  0
 30 16  1  0  0  0  0
 32 34  1  0  0  0  0
 33 32  2  0  0  0  0
M  END
>  <MODEL>
1

>  <REMARK>
 VINA RESULT:      -6.1      0.000      0.000
  Name = 
  2 active torsions:
  status: ('A' for Active; 'I' for Inactive)
    1  A    between atoms: C_1  and  C_9
    2  A    between atoms: C_3  and  C_25
                            x       y       z     vdW  Elec       q    Type
                         _______ _______ _______ _____ _____    ______ ____

>  <TORSDO>
F 2

$$$$
=
 OpenBabel10262423363D

 34 37  0  0  1  0  0  0  0  0999 V2000
  180.2040  178.6670  139.3430 C   0  0  1  0  0  3  0  0  0  0  0  0
  184.9180  178.6410  139.8140 O   0  0  0  0  0  1  0  0  0  0  0  0
  182.7140  180.3090  138.7870 C   0  0  0  0  0  3  0  0  0  0  0  0
  179.6570  180.8890  140.1050 O   0  0  0  0  0  0  0  0  0  0  0  0
  179.5240  181.5910  138.9040 C   0  0  0  0  0  2  0  0  0  0  0  0
  181.6070  180.6860  137.8520 C   0  0  0  0  0  2  0  0  0  0  0  0
  179.1190  179.6220  139.8550 C   0  0  0  0  0  2  0  0  0  0  0  0
  180.8950  181.9350  138.3480 C   0  0  0  0  0  2  0  0  0  0  0  0
  183.9360  179.2480  140.6010 C   0  0  2  0  0  3  0  0  0  0  0  0
  183.7130  178.4270  141.8780 C   0  0  2  0  0  3  0  0  0  0  0  0
  182.4330  178.8690  142.5840 C   0  0  0  0  0  2  0  0  0  0  0  0
  182.6680  179.4180  139.7990 C   0  0  0  0  0  0  0  0  0  0  0  0
  181.1870  178.6290  141.7230 C   0  0  0  0  0  2  0  0  0  0  0  0
  181.4680  178.5690  140.2090 C   0  0  1  0  0  3  0  0  0  0  0  0
  179.8020  177.0730  137.2910 C   0  0  2  0  0  3  0  0  0  0  0  0
  181.7090  174.7790  138.0630 C   0  0  0  0  0  2  0  0  0  0  0  0
  182.3770  176.0820  134.5940 C   0  0  0  0  0  2  0  0  0  0  0  0
  180.2210  176.1660  139.7030 C   0  0  1  0  0  3  0  0  0  0  0  0
  179.6950  177.3130  138.8190 C   0  0  1  0  0  3  0  0  0  0  0  0
  184.1530  175.6200  135.9600 C   0  0  2  0  0  3  0  0  0  0  0  0
  181.0590  176.1800  135.3390 C   0  0  0  0  0  2  0  0  0  0  0  0
  184.9450  176.5320  135.2510 O   0  0  0  0  0  1  0  0  0  0  0  0
  181.2090  176.9040  136.6800 C   0  0  2  0  0  3  0  0  0  0  0  0
  179.3590  175.9840  140.9430 C   0  0  0  0  0  1  0  0  0  0  0  0
  179.5970  173.9000  138.8960 C   0  0  0  0  0  2  0  0  0  0  0  0
  183.1520  175.0480  135.1460 O   0  0  0  0  0  0  0  0  0  0  0  0
  183.6260  176.2240  137.2400 C   0  0  0  0  0  0  0  0  0  0  0  0
  182.1760  176.1710  137.6350 C   0  0  2  0  0  3  0  0  0  0  0  0
  184.4150  176.7470  138.0090 O   0  0  0  0  0  0  0  0  0  0  0  0
  180.5120  174.8690  138.9700 C   0  0  0  0  0  0  0  0  0  0  0  0
  178.9350  178.0300  136.4890 C   0  0  0  0  0  1  0  0  0  0  0  0
  184.8810  178.5490  142.8020 C   0  0  0  0  0  0  0  0  0  0  0  0
  185.8210  177.7110  142.7640 O   0  0  0  0  0  0  0  0  0  0  0  0
  184.9310  179.6000  143.7090 O   0  0  0  0  0  1  0  0  0  0  0  0
  1  7  1  1  0  0  0
  1 14  1  0  0  0  0
  3 12  2  0  0  0  0
  5  4  1  0  0  0  0
  6  8  1  0  0  0  0
  6  3  1  0  0  0  0
  7  4  1  0  0  0  0
  8  5  1  0  0  0  0
  9  2  1  6  0  0  0
  9 10  1  0  0  0  0
 10 11  1  0  0  0  0
 10 32  1  1  0  0  0
 12 14  1  0  0  0  0
 12  9  1  0  0  0  0
 13 11  1  0  0  0  0
 14 13  1  1  0  0  0
 15 31  1  6  0  0  0
 15 19  1  0  0  0  0
 16 30  1  0  0  0  0
 17 26  1  0  0  0  0
 17 21  1  0  0  0  0
 18 24  1  1  0  0  0
 19  1  1  6  0  0  0
 19 18  1  0  0  0  0
 20 22  1  6  0  0  0
 20 27  1  0  0  0  0
 23 21  1  6  0  0  0
 23 15  1  0  0  0  0
 23 28  1  0  0  0  0
 25 30  2  0  0  0  0
 26 20  1  0  0  0  0
 27 28  1  0  0  0  0
 27 29  2  0  0  0  0
 28 16  1  6  0  0  0
 30 18  1  0  0  0  0
 32 34  1  0  0  0  0
 33 32  2  0  0  0  0
M  END
>  <MODEL>
2

>  <REMARK>
 VINA RESULT:      -6.0      2.273      6.453
  Name = 
  2 active torsions:
  status: ('A' for Active; 'I' for Inactive)
    1  A    between atoms: C_1  and  C_9
    2  A    between atoms: C_3  and  C_25
                            x       y       z     vdW  Elec       q    Type
                         _______ _______ _______ _____ _____    ______ ____

>  <TORSDO>
F 2

$$$$
=
 OpenBabel10262423363D

 34 37  0  0  1  0  0  0  0  0999 V2000
  181.1270  177.6350  137.7300 C   0  0  1  0  0  3  0  0  0  0  0  0
  184.6810  179.7490  140.0420 O   0  0  0  0  0  1  0  0  0  0  0  0
  182.2880  180.3670  138.4340 C   0  0  0  0  0  3  0  0  0  0  0  0
  179.2330  178.9240  138.4800 O   0  0  0  0  0  0  0  0  0  0  0  0
  179.0450  179.8200  137.4240 C   0  0  0  0  0  2  0  0  0  0  0  0
  181.4590  180.4400  137.1890 C   0  0  0  0  0  2  0  0  0  0  0  0
  179.6040  177.7170  137.8790 C   0  0  0  0  0  2  0  0  0  0  0  0
  180.0620  180.9460  137.5100 C   0  0  0  0  0  2  0  0  0  0  0  0
  183.3630  179.5090  140.4380 C   0  0  2  0  0  3  0  0  0  0  0  0
  183.3220  178.3190  141.4060 C   0  0  2  0  0  3  0  0  0  0  0  0
  181.8880  177.8260  141.5900 C   0  0  0  0  0  2  0  0  0  0  0  0
  182.4940  179.2920  139.2240 C   0  0  0  0  0  0  0  0  0  0  0  0
  181.2850  177.3070  140.2790 C   0  0  0  0  0  2  0  0  0  0  0  0
  181.9370  177.8880  139.0100 C   0  0  1  0  0  3  0  0  0  0  0  0
  182.4960  176.8210  135.6370 C   0  0  2  0  0  3  0  0  0  0  0  0
  184.7510  175.2960  137.0810 C   0  0  0  0  0  2  0  0  0  0  0  0
  186.0830  177.8650  134.6710 C   0  0  0  0  0  2  0  0  0  0  0  0
  182.2370  175.3660  137.7890 C   0  0  1  0  0  3  0  0  0  0  0  0
  181.6440  176.4600  136.8820 C   0  0  1  0  0  3  0  0  0  0  0  0
  187.0700  177.6620  136.7250 C   0  0  2  0  0  3  0  0  0  0  0  0
  184.7220  177.1970  134.5940 C   0  0  0  0  0  2  0  0  0  0  0  0
  187.5140  178.9890  136.6500 O   0  0  0  0  0  1  0  0  0  0  0  0
  183.9020  177.4140  135.8680 C   0  0  2  0  0  3  0  0  0  0  0  0
  181.1490  174.4580  138.3430 C   0  0  0  0  0  1  0  0  0  0  0  0
  183.2430  173.4610  136.5510 C   0  0  0  0  0  2  0  0  0  0  0  0
  186.9480  177.0760  135.4470 O   0  0  0  0  0  0  0  0  0  0  0  0
  185.8260  177.5420  137.5720 C   0  0  0  0  0  0  0  0  0  0  0  0
  184.5900  176.8160  137.1140 C   0  0  2  0  0  3  0  0  0  0  0  0
  185.8310  178.0230  138.6920 O   0  0  0  0  0  0  0  0  0  0  0  0
  183.4170  174.6110  137.2030 C   0  0  0  0  0  0  0  0  0  0  0  0
  181.7050  177.5950  134.5950 C   0  0  0  0  0  1  0  0  0  0  0  0
  183.9160  178.6850  142.7280 C   0  0  0  0  0  0  0  0  0  0  0  0
  183.2470  179.3390  143.5730 O   0  0  0  0  0  1  0  0  0  0  0  0
  185.2150  178.2980  143.0270 O   0  0  0  0  0  0  0  0  0  0  0  0
  1  7  1  1  0  0  0
  1 14  1  0  0  0  0
  3 12  2  0  0  0  0
  5  8  1  0  0  0  0
  5  4  1  0  0  0  0
  6  8  1  0  0  0  0
  6  3  1  0  0  0  0
  7  4  1  0  0  0  0
  9  2  1  6  0  0  0
  9 10  1  0  0  0  0
 10 11  1  0  0  0  0
 10 32  1  1  0  0  0
 12  9  1  0  0  0  0
 13 11  1  0  0  0  0
 14 12  1  0  0  0  0
 14 13  1  1  0  0  0
 15 31  1  1  0  0  0
 15 23  1  0  0  0  0
 15 19  1  0  0  0  0
 16 30  1  0  0  0  0
 17 26  1  0  0  0  0
 18 24  1  6  0  0  0
 19  1  1  1  0  0  0
 19 18  1  0  0  0  0
 20 22  1  6  0  0  0
 20 27  1  0  0  0  0
 21 17  1  0  0  0  0
 23 21  1  6  0  0  0
 23 28  1  0  0  0  0
 25 30  2  0  0  0  0
 26 20  1  0  0  0  0
 27 29  2  0  0  0  0
 28 16  1  6  0  0  0
 28 27  1  0  0  0  0
 30 18  1  0  0  0  0
 32 34  2  0  0  0  0
 32 33  1  0  0  0  0
M  END
>  <MODEL>
3

>  <REMARK>
 VINA RESULT:      -5.5      1.741      5.983
  Name = 
  2 active torsions:
  status: ('A' for Active; 'I' for Inactive)
    1  A    between atoms: C_1  and  C_9
    2  A    between atoms: C_3  and  C_25
                            x       y       z     vdW  Elec       q    Type
                         _______ _______ _______ _____ _____    ______ ____

>  <TORSDO>
F 2

$$$$
=
 OpenBabel10262423363D

 34 37  0  0  1  0  0  0  0  0999 V2000
  180.6290  178.6140  139.7810 C   0  0  1  0  0  3  0  0  0  0  0  0
  178.9310  182.7310  138.1660 O   0  0  0  0  0  1  0  0  0  0  0  0
  179.2220  181.1770  140.6540 C   0  0  0  0  0  3  0  0  0  0  0  0
  181.8320  179.3290  141.7450 O   0  0  0  0  0  0  0  0  0  0  0  0
  180.9200  179.0590  142.7690 C   0  0  0  0  0  2  0  0  0  0  0  0
  178.9390  180.0570  141.6070 C   0  0  0  0  0  2  0  0  0  0  0  0
  181.6900  178.2770  140.8350 C   0  0  0  0  0  2  0  0  0  0  0  0
  179.8560  180.1440  142.8170 C   0  0  0  0  0  2  0  0  0  0  0  0
  180.1440  182.4400  138.7940 C   0  0  2  0  0  3  0  0  0  0  0  0
  181.2690  182.3910  137.7510 C   0  0  2  0  0  3  0  0  0  0  0  0
  182.5240  181.7550  138.3440 C   0  0  0  0  0  2  0  0  0  0  0  0
  180.0240  181.1510  139.5700 C   0  0  0  0  0  0  0  0  0  0  0  0
  182.2890  180.2970  138.7580 C   0  0  0  0  0  2  0  0  0  0  0  0
  180.8160  179.9530  139.0530 C   0  0  1  0  0  3  0  0  0  0  0  0
  180.4540  177.6490  137.3410 C   0  0  2  0  0  3  0  0  0  0  0  0
  182.3900  175.2670  137.6100 C   0  0  0  0  0  2  0  0  0  0  0  0
  183.2680  177.4980  134.7070 C   0  0  0  0  0  2  0  0  0  0  0  0
  180.7240  176.1130  139.4360 C   0  0  1  0  0  3  0  0  0  0  0  0
  180.2200  177.4510  138.8620 C   0  0  1  0  0  3  0  0  0  0  0  0
  184.9520  176.7070  136.0390 C   0  0  2  0  0  3  0  0  0  0  0  0
  181.8940  177.3590  135.3340 C   0  0  0  0  0  2  0  0  0  0  0  0
  185.7570  177.7950  135.6790 O   0  0  0  0  0  1  0  0  0  0  0  0
  181.9100  177.6840  136.8310 C   0  0  2  0  0  3  0  0  0  0  0  0
  179.7770  175.5770  140.4990 C   0  0  0  0  0  1  0  0  0  0  0  0
  180.2600  174.1510  137.9840 C   0  0  0  0  0  2  0  0  0  0  0  0
  184.0410  176.3660  135.0150 O   0  0  0  0  0  0  0  0  0  0  0  0
  184.3030  176.9200  137.3860 C   0  0  0  0  0  0  0  0  0  0  0  0
  182.8300  176.7320  137.6250 C   0  0  2  0  0  3  0  0  0  0  0  0
  185.0070  177.2230  138.3340 O   0  0  0  0  0  0  0  0  0  0  0  0
  181.1240  175.0780  138.4000 C   0  0  0  0  0  0  0  0  0  0  0  0
  179.6120  178.7750  136.7640 C   0  0  0  0  0  1  0  0  0  0  0  0
  181.5780  183.7600  137.2350 C   0  0  0  0  0  0  0  0  0  0  0  0
  182.3200  184.5390  137.8900 O   0  0  0  0  0  1  0  0  0  0  0  0
  181.0450  184.1720  136.0220 O   0  0  0  0  0  0  0  0  0  0  0  0
  1  7  1  6  0  0  0
  3  6  1  0  0  0  0
  4  5  1  0  0  0  0
  5  8  1  0  0  0  0
  6  8  1  0  0  0  0
  7  4  1  0  0  0  0
  9  2  1  6  0  0  0
  9 12  1  0  0  0  0
 10 32  1  1  0  0  0
 10 11  1  0  0  0  0
 10  9  1  0  0  0  0
 11 13  1  0  0  0  0
 12  3  2  0  0  0  0
 14 13  1  1  0  0  0
 14 12  1  0  0  0  0
 14  1  1  0  0  0  0
 15 31  1  1  0  0  0
 15 19  1  0  0  0  0
 16 30  1  0  0  0  0
 17 26  1  0  0  0  0
 17 21  1  0  0  0  0
 18 24  1  6  0  0  0
 19 18  1  0  0  0  0
 19  1  1  1  0  0  0
 20 22  1  6  0  0  0
 20 27  1  0  0  0  0
 23 21  1  6  0  0  0
 23 15  1  0  0  0  0
 23 28  1  0  0  0  0
 25 30  2  0  0  0  0
 26 20  1  0  0  0  0
 27 28  1  0  0  0  0
 27 29  2  0  0  0  0
 28 16  1  6  0  0  0
 30 18  1  0  0  0  0
 32 33  1  0  0  0  0
 34 32  2  0  0  0  0
M  END
>  <MODEL>
4

>  <REMARK>
 VINA RESULT:      -4.9      3.088      6.919
  Name = 
  2 active torsions:
  status: ('A' for Active; 'I' for Inactive)
    1  A    between atoms: C_1  and  C_9
    2  A    between atoms: C_3  and  C_25
                            x       y       z     vdW  Elec       q    Type
                         _______ _______ _______ _____ _____    ______ ____

>  <TORSDO>
F 2

$$$$
=
 OpenBabel10262423363D

 34 37  0  0  1  0  0  0  0  0999 V2000
  181.3620  176.6180  136.6610 C   0  0  1  0  0  3  0  0  0  0  0  0
  185.8740  175.7780  137.8350 O   0  0  0  0  0  1  0  0  0  0  0  0
  183.3480  174.3760  137.2450 C   0  0  0  0  0  3  0  0  0  0  0  0
  181.0260  175.0290  134.8780 O   0  0  0  0  0  0  0  0  0  0  0  0
  180.3900  173.9720  135.5360 C   0  0  0  0  0  2  0  0  0  0  0  0
  181.9430  173.9280  137.5000 C   0  0  0  0  0  2  0  0  0  0  0  0
  180.5100  176.1920  135.4600 C   0  0  0  0  0  2  0  0  0  0  0  0
  181.4090  173.1500  136.3070 C   0  0  0  0  0  2  0  0  0  0  0  0
  185.2460  175.7460  136.5880 C   0  0  2  0  0  3  0  0  0  0  0  0
  185.5920  177.0170  135.8000 C   0  0  2  0  0  3  0  0  0  0  0  0
  184.6690  177.1690  134.5940 C   0  0  0  0  0  2  0  0  0  0  0  0
  183.7570  175.5700  136.7680 C   0  0  0  0  0  0  0  0  0  0  0  0
  183.2020  177.3340  135.0090 C   0  0  0  0  0  2  0  0  0  0  0  0
  182.8680  176.7530  136.3950 C   0  0  1  0  0  3  0  0  0  0  0  0
  180.9740  177.6390  139.0530 C   0  0  2  0  0  3  0  0  0  0  0  0
  182.5900  180.2450  138.7490 C   0  0  0  0  0  2  0  0  0  0  0  0
  183.6480  178.2560  141.7650 C   0  0  0  0  0  2  0  0  0  0  0  0
  181.1160  179.1200  136.9080 C   0  0  1  0  0  3  0  0  0  0  0  0
  180.7710  177.7490  137.5200 C   0  0  1  0  0  3  0  0  0  0  0  0
  185.2600  179.2140  140.4550 C   0  0  2  0  0  3  0  0  0  0  0  0
  182.2910  178.1890  141.0910 C   0  0  0  0  0  2  0  0  0  0  0  0
  186.1880  178.2560  140.8820 O   0  0  0  0  0  1  0  0  0  0  0  0
  182.4030  177.8150  139.6090 C   0  0  2  0  0  3  0  0  0  0  0  0
  180.1450  179.4880  135.7950 C   0  0  0  0  0  1  0  0  0  0  0  0
  180.3460  181.0540  138.2650 C   0  0  0  0  0  2  0  0  0  0  0  0
  184.2770  179.4680  141.4350 O   0  0  0  0  0  0  0  0  0  0  0  0
  184.6930  178.8690  139.0980 C   0  0  0  0  0  0  0  0  0  0  0  0
  183.2180  178.8520  138.8060 C   0  0  2  0  0  3  0  0  0  0  0  0
  185.4650  178.6280  138.1850 O   0  0  0  0  0  0  0  0  0  0  0  0
  181.3390  180.2360  137.9130 C   0  0  0  0  0  0  0  0  0  0  0  0
  180.2670  176.4320  139.6490 C   0  0  0  0  0  1  0  0  0  0  0  0
  187.0200  176.9980  135.3590 C   0  0  0  0  0  0  0  0  0  0  0  0
  187.5430  175.9380  134.9210 O   0  0  0  0  0  0  0  0  0  0  0  0
  187.7750  178.1610  135.4300 O   0  0  0  0  0  1  0  0  0  0  0  0
  1  7  1  6  0  0  0
  3  6  1  0  0  0  0
  4  7  1  0  0  0  0
  4  5  1  0  0  0  0
  5  8  1  0  0  0  0
  8  6  1  0  0  0  0
  9 12  1  0  0  0  0
  9  2  1  1  0  0  0
 10 32  1  6  0  0  0
 10  9  1  0  0  0  0
 11 13  1  0  0  0  0
 11 10  1  0  0  0  0
 12  3  2  0  0  0  0
 14 13  1  6  0  0  0
 14  1  1  0  0  0  0
 14 12  1  0  0  0  0
 15 23  1  0  0  0  0
 15 31  1  6  0  0  0
 18 24  1  6  0  0  0
 18 19  1  0  0  0  0
 18 30  1  0  0  0  0
 19  1  1  6  0  0  0
 19 15  1  0  0  0  0
 20 22  1  1  0  0  0
 20 26  1  0  0  0  0
 21 17  1  0  0  0  0
 23 21  1  1  0  0  0
 26 17  1  0  0  0  0
 27 20  1  0  0  0  0
 28 16  1  1  0  0  0
 28 27  1  0  0  0  0
 28 23  1  0  0  0  0
 29 27  2  0  0  0  0
 30 25  2  0  0  0  0
 30 16  1  0  0  0  0
 32 34  1  0  0  0  0
 33 32  2  0  0  0  0
M  END
>  <MODEL>
5

>  <REMARK>
 VINA RESULT:      -4.9      1.218      1.406
  Name = 
  2 active torsions:
  status: ('A' for Active; 'I' for Inactive)
    1  A    between atoms: C_1  and  C_9
    2  A    between atoms: C_3  and  C_25
                            x       y       z     vdW  Elec       q    Type
                         _______ _______ _______ _____ _____    ______ ____

>  <TORSDO>
F 2

$$$$
=
 OpenBabel10262423363D

 34 37  0  0  1  0  0  0  0  0999 V2000
  184.0900  178.0820  139.3000 C   0  0  1  0  0  3  0  0  0  0  0  0
  179.5930  179.0220  140.4590 O   0  0  0  0  0  1  0  0  0  0  0  0
  182.2560  178.6570  141.6700 C   0  0  0  0  0  3  0  0  0  0  0  0
  185.2750  179.7330  140.5980 O   0  0  0  0  0  0  0  0  0  0  0  0
  185.6800  178.9990  141.7170 C   0  0  0  0  0  2  0  0  0  0  0  0
  183.4680  177.8910  142.1020 C   0  0  0  0  0  2  0  0  0  0  0  0
  185.3960  178.8550  139.5150 C   0  0  0  0  0  2  0  0  0  0  0  0
  184.5150  178.8320  142.6780 C   0  0  0  0  0  2  0  0  0  0  0  0
  180.6790  179.8840  140.2860 C   0  0  2  0  0  3  0  0  0  0  0  0
  180.5710  180.5870  138.9260 C   0  0  2  0  0  3  0  0  0  0  0  0
  181.8910  181.2660  138.5660 C   0  0  0  0  0  2  0  0  0  0  0  0
  181.9710  179.1170  140.4340 C   0  0  0  0  0  0  0  0  0  0  0  0
  183.0350  180.2570  138.4130 C   0  0  0  0  0  2  0  0  0  0  0  0
  182.8210  178.9380  139.1790 C   0  0  1  0  0  3  0  0  0  0  0  0
  182.8480  176.1650  137.9960 C   0  0  2  0  0  3  0  0  0  0  0  0
  183.2020  177.2110  135.1200 C   0  0  0  0  0  2  0  0  0  0  0  0
  179.5980  176.4950  135.9430 C   0  0  0  0  0  2  0  0  0  0  0  0
  184.9640  177.3600  137.0420 C   0  0  1  0  0  3  0  0  0  0  0  0
  184.1670  176.9270  138.2880 C   0  0  1  0  0  3  0  0  0  0  0  0
  180.1080  178.4020  134.7870 C   0  0  2  0  0  3  0  0  0  0  0  0
  180.8030  175.8620  136.6120 C   0  0  0  0  0  2  0  0  0  0  0  0
  178.9340  179.0080  135.2560 O   0  0  0  0  0  1  0  0  0  0  0  0
  181.7360  176.9090  137.2270 C   0  0  2  0  0  3  0  0  0  0  0  0
  186.4630  177.2290  137.2730 C   0  0  0  0  0  1  0  0  0  0  0  0
  185.0560  175.6400  135.2510 C   0  0  0  0  0  2  0  0  0  0  0  0
  179.9720  177.0010  134.6870 O   0  0  0  0  0  0  0  0  0  0  0  0
  181.3130  178.8420  135.5830 C   0  0  0  0  0  0  0  0  0  0  0  0
  182.3070  177.8760  136.1670 C   0  0  2  0  0  3  0  0  0  0  0  0
  181.5140  180.0360  135.7300 O   0  0  0  0  0  0  0  0  0  0  0  0
  184.4960  176.7510  135.7330 C   0  0  0  0  0  0  0  0  0  0  0  0
  182.3160  175.4340  139.2180 C   0  0  0  0  0  1  0  0  0  0  0  0
  179.4600  181.5870  138.9290 C   0  0  0  0  0  0  0  0  0  0  0  0
  178.9640  181.9980  137.8470 O   0  0  0  0  0  0  0  0  0  0  0  0
  178.9700  182.0630  140.1380 O   0  0  0  0  0  1  0  0  0  0  0  0
  1  7  1  6  0  0  0
  3  6  1  0  0  0  0
  4  5  1  0  0  0  0
  5  8  1  0  0  0  0
  6  8  1  0  0  0  0
  7  4  1  0  0  0  0
  9 12  1  0  0  0  0
  9  2  1  6  0  0  0
 10 32  1  1  0  0  0
 10  9  1  0  0  0  0
 11 10  1  0  0  0  0
 12  3  2  0  0  0  0
 13 11  1  0  0  0  0
 14 13  1  1  0  0  0
 14  1  1  0  0  0  0
 14 12  1  0  0  0  0
 15 19  1  0  0  0  0
 15 31  1  1  0  0  0
 16 30  1  0  0  0  0
 17 21  1  0  0  0  0
 18 24  1  1  0  0  0
 18 19  1  0  0  0  0
 19  1  1  6  0  0  0
 20 22  1  1  0  0  0
 20 27  1  0  0  0  0
 23 21  1  6  0  0  0
 23 15  1  0  0  0  0
 25 30  2  0  0  0  0
 26 20  1  0  0  0  0
 26 17  1  0  0  0  0
 27 29  2  0  0  0  0
 27 28  1  0  0  0  0
 28 16  1  6  0  0  0
 28 23  1  0  0  0  0
 30 18  1  0  0  0  0
 32 34  1  0  0  0  0
 33 32  2  0  0  0  0
M  END
>  <MODEL>
6

>  <REMARK>
 VINA RESULT:      -4.6      2.784      6.868
  Name = 
  2 active torsions:
  status: ('A' for Active; 'I' for Inactive)
    1  A    between atoms: C_1  and  C_9
    2  A    between atoms: C_3  and  C_25
                            x       y       z     vdW  Elec       q    Type
                         _______ _______ _______ _____ _____    ______ ____

>  <TORSDO>
F 2

$$$$
=
 OpenBabel10262423363D

 34 37  0  0  1  0  0  0  0  0999 V2000
  181.6810  177.3860  139.2680 C   0  0  1  0  0  3  0  0  0  0  0  0
  181.0370  180.2700  142.9710 O   0  0  0  0  0  1  0  0  0  0  0  0
  179.8710  177.8940  141.6710 C   0  0  0  0  0  3  0  0  0  0  0  0
  181.4110  175.2200  140.2930 O   0  0  0  0  0  0  0  0  0  0  0  0
  180.0860  174.9050  139.9810 C   0  0  0  0  0  2  0  0  0  0  0  0
  179.1440  177.1410  140.6010 C   0  0  0  0  0  2  0  0  0  0  0  0
  181.9130  175.8750  139.1630 C   0  0  0  0  0  2  0  0  0  0  0  0
  179.1410  175.6510  140.9080 C   0  0  0  0  0  2  0  0  0  0  0  0
  181.6440  179.0140  142.9010 C   0  0  2  0  0  3  0  0  0  0  0  0
  183.1700  179.1730  142.9260 C   0  0  2  0  0  3  0  0  0  0  0  0
  183.8530  177.8700  142.5180 C   0  0  0  0  0  2  0  0  0  0  0  0
  181.1640  178.2800  141.6720 C   0  0  0  0  0  0  0  0  0  0  0  0
  183.5100  177.4670  141.0780 C   0  0  0  0  0  2  0  0  0  0  0  0
  182.1820  178.0490  140.5580 C   0  0  1  0  0  3  0  0  0  0  0  0
  183.4040  178.7980  137.8700 C   0  0  2  0  0  3  0  0  0  0  0  0
  183.6870  176.9510  135.4200 C   0  0  0  0  0  2  0  0  0  0  0  0
  187.0170  177.7960  136.9610 C   0  0  0  0  0  2  0  0  0  0  0  0
  181.4880  177.4230  136.7490 C   0  0  1  0  0  3  0  0  0  0  0  0
  181.9830  178.1890  137.9910 C   0  0  1  0  0  3  0  0  0  0  0  0
  186.6250  175.6430  136.2930 C   0  0  2  0  0  3  0  0  0  0  0  0
  185.7530  178.6280  137.0700 C   0  0  0  0  0  2  0  0  0  0  0  0
  187.5710  175.1770  137.2150 O   0  0  0  0  0  1  0  0  0  0  0  0
  184.5920  177.8330  137.6750 C   0  0  2  0  0  3  0  0  0  0  0  0
  180.0020  177.6520  136.5150 C   0  0  0  0  0  1  0  0  0  0  0  0
  182.0330  178.5340  134.5940 C   0  0  0  0  0  2  0  0  0  0  0  0
  186.9250  176.9480  135.8450 O   0  0  0  0  0  0  0  0  0  0  0  0
  185.2180  175.4880  136.8190 C   0  0  0  0  0  0  0  0  0  0  0  0
  184.2130  176.6080  136.8140 C   0  0  2  0  0  3  0  0  0  0  0  0
  184.8640  174.3980  137.2350 O   0  0  0  0  0  0  0  0  0  0  0  0
  182.3340  177.6040  135.5010 C   0  0  0  0  0  0  0  0  0  0  0  0
  183.6800  179.8470  138.9350 C   0  0  0  0  0  1  0  0  0  0  0  0
  183.6400  179.6000  144.2800 C   0  0  0  0  0  0  0  0  0  0  0  0
  184.5560  180.4560  144.4010 O   0  0  0  0  0  0  0  0  0  0  0  0
  183.0570  179.0470  145.4130 O   0  0  0  0  0  1  0  0  0  0  0  0
  1  7  1  6  0  0  0
  1 14  1  0  0  0  0
  3 12  2  0  0  0  0
  5  4  1  0  0  0  0
  5  8  1  0  0  0  0
  6  8  1  0  0  0  0
  6  3  1  0  0  0  0
  7  4  1  0  0  0  0
  9 10  1  0  0  0  0
  9  2  1  6  0  0  0
 10 32  1  1  0  0  0
 11 10  1  0  0  0  0
 12  9  1  0  0  0  0
 13 11  1  0  0  0  0
 14 13  1  1  0  0  0
 14 12  1  0  0  0  0
 15 19  1  0  0  0  0
 15 31  1  1  0  0  0
 16 30  1  0  0  0  0
 17 21  1  0  0  0  0
 18 24  1  6  0  0  0
 18 19  1  0  0  0  0
 19  1  1  1  0  0  0
 20 27  1  0  0  0  0
 20 22  1  1  0  0  0
 23 21  1  6  0  0  0
 23 15  1  0  0  0  0
 25 30  2  0  0  0  0
 26 20  1  0  0  0  0
 26 17  1  0  0  0  0
 27 29  2  0  0  0  0
 28 16  1  6  0  0  0
 28 27  1  0  0  0  0
 28 23  1  0  0  0  0
 30 18  1  0  0  0  0
 32 33  2  0  0  0  0
 32 34  1  0  0  0  0
M  END
>  <MODEL>
7

>  <REMARK>
 VINA RESULT:      -4.6      2.163      6.144
  Name = 
  2 active torsions:
  status: ('A' for Active; 'I' for Inactive)
    1  A    between atoms: C_1  and  C_9
    2  A    between atoms: C_3  and  C_25
                            x       y       z     vdW  Elec       q    Type
                         _______ _______ _______ _____ _____    ______ ____

>  <TORSDO>
F 2

$$$$
=
 OpenBabel10262423363D

 34 37  0  0  1  0  0  0  0  0999 V2000
  181.4960  177.2980  137.2860 C   0  0  1  0  0  3  0  0  0  0  0  0
  180.9790  181.6270  139.1380 O   0  0  0  0  0  1  0  0  0  0  0  0
  183.0060  179.5280  138.7190 C   0  0  0  0  0  3  0  0  0  0  0  0
  183.5370  177.5550  136.0270 O   0  0  0  0  0  0  0  0  0  0  0  0
  184.4920  177.0170  136.8950 C   0  0  0  0  0  2  0  0  0  0  0  0
  183.6670  178.2030  138.9400 C   0  0  0  0  0  2  0  0  0  0  0  0
  182.4040  176.7490  136.1790 C   0  0  0  0  0  2  0  0  0  0  0  0
  184.8340  178.0240  137.9810 C   0  0  0  0  0  2  0  0  0  0  0  0
  181.4800  181.2320  137.8950 C   0  0  2  0  0  3  0  0  0  0  0  0
  180.4220  181.4710  136.8100 C   0  0  2  0  0  3  0  0  0  0  0  0
  180.8050  180.7500  135.5190 C   0  0  0  0  0  2  0  0  0  0  0  0
  181.9240  179.7900  137.9570 C   0  0  0  0  0  0  0  0  0  0  0  0
  180.8620  179.2280  135.7050 C   0  0  0  0  0  2  0  0  0  0  0  0
  181.1090  178.7780  137.1570 C   0  0  1  0  0  3  0  0  0  0  0  0
  179.7440  175.4600  136.6010 C   0  0  2  0  0  3  0  0  0  0  0  0
  180.7230  173.1500  138.3900 C   0  0  0  0  0  2  0  0  0  0  0  0
  180.4700  172.1410  134.7720 C   0  0  0  0  0  2  0  0  0  0  0  0
  180.6580  175.6810  139.0360 C   0  0  1  0  0  3  0  0  0  0  0  0
  180.3350  176.3790  137.7020 C   0  0  1  0  0  3  0  0  0  0  0  0
  182.2920  171.4680  135.9800 C   0  0  2  0  0  3  0  0  0  0  0  0
  179.6940  173.2630  135.4360 C   0  0  0  0  0  2  0  0  0  0  0  0
  183.0430  171.3630  134.8020 O   0  0  0  0  0  1  0  0  0  0  0  0
  180.6190  174.3010  136.0780 C   0  0  2  0  0  3  0  0  0  0  0  0
  180.3400  176.5810  140.2210 C   0  0  0  0  0  1  0  0  0  0  0  0
  178.9310  174.0510  139.7690 C   0  0  0  0  0  2  0  0  0  0  0  0
  180.9180  171.2380  135.7500 O   0  0  0  0  0  0  0  0  0  0  0  0
  182.5810  172.7600  136.7060 C   0  0  0  0  0  0  0  0  0  0  0  0
  181.5000  173.6880  137.1880 C   0  0  2  0  0  3  0  0  0  0  0  0
  183.7410  173.0500  136.9480 O   0  0  0  0  0  0  0  0  0  0  0  0
  180.1060  174.2740  139.1780 C   0  0  0  0  0  0  0  0  0  0  0  0
  179.0930  176.2460  135.4750 C   0  0  0  0  0  1  0  0  0  0  0  0
  180.2450  182.9320  136.5510 C   0  0  0  0  0  0  0  0  0  0  0  0
  179.2570  183.5530  137.0260 O   0  0  0  0  0  1  0  0  0  0  0  0
  181.1800  183.6110  135.7800 O   0  0  0  0  0  0  0  0  0  0  0  0
  1  7  1  6  0  0  0
  3  6  1  0  0  0  0
  4  7  1  0  0  0  0
  4  5  1  0  0  0  0
  5  8  1  0  0  0  0
  8  6  1  0  0  0  0
  9 12  1  0  0  0  0
  9  2  1  1  0  0  0
 10 32  1  6  0  0  0
 10  9  1  0  0  0  0
 11 13  1  0  0  0  0
 11 10  1  0  0  0  0
 12  3  2  0  0  0  0
 14 13  1  6  0  0  0
 14  1  1  0  0  0  0
 14 12  1  0  0  0  0
 15 31  1  6  0  0  0
 15 19  1  0  0  0  0
 16 30  1  0  0  0  0
 17 21  1  0  0  0  0
 17 26  1  0  0  0  0
 18 30  1  0  0  0  0
 18 24  1  1  0  0  0
 19  1  1  6  0  0  0
 19 18  1  0  0  0  0
 20 22  1  6  0  0  0
 20 27  1  0  0  0  0
 23 21  1  1  0  0  0
 23 15  1  0  0  0  0
 23 28  1  0  0  0  0
 26 20  1  0  0  0  0
 27 29  2  0  0  0  0
 27 28  1  0  0  0  0
 28 16  1  1  0  0  0
 30 25  2  0  0  0  0
 32 33  1  0  0  0  0
 34 32  2  0  0  0  0
M  END
>  <MODEL>
8

>  <REMARK>
 VINA RESULT:      -4.5      2.934      6.811
  Name = 
  2 active torsions:
  status: ('A' for Active; 'I' for Inactive)
    1  A    between atoms: C_1  and  C_9
    2  A    between atoms: C_3  and  C_25
                            x       y       z     vdW  Elec       q    Type
                         _______ _______ _______ _____ _____    ______ ____

>  <TORSDO>
F 2

$$$$
=
 OpenBabel10262423363D

 34 37  0  0  1  0  0  0  0  0999 V2000
  182.6780  176.7150  137.3490 C   0  0  1  0  0  3  0  0  0  0  0  0
  185.4300  172.8990  137.9050 O   0  0  0  0  0  1  0  0  0  0  0  0
  183.0430  173.8240  136.4430 C   0  0  0  0  0  3  0  0  0  0  0  0
  182.4520  176.7980  134.9500 O   0  0  0  0  0  0  0  0  0  0  0  0
  181.2090  176.1900  134.7460 C   0  0  0  0  0  2  0  0  0  0  0  0
  181.6190  174.2600  136.2880 C   0  0  0  0  0  2  0  0  0  0  0  0
  182.3080  177.5510  136.1190 C   0  0  0  0  0  2  0  0  0  0  0  0
  181.3450  174.6800  134.8520 C   0  0  0  0  0  2  0  0  0  0  0  0
  185.4290  173.8720  136.9030 C   0  0  2  0  0  3  0  0  0  0  0  0
  186.5870  174.8530  137.1320 C   0  0  2  0  0  3  0  0  0  0  0  0
  186.4150  176.0990  136.2660 C   0  0  0  0  0  2  0  0  0  0  0  0
  184.0890  174.5660  136.8630 C   0  0  0  0  0  0  0  0  0  0  0  0
  185.1440  176.8780  136.6260 C   0  0  0  0  0  2  0  0  0  0  0  0
  184.0500  176.0280  137.2990 C   0  0  1  0  0  3  0  0  0  0  0  0
  182.6490  178.8710  138.8550 C   0  0  2  0  0  3  0  0  0  0  0  0
  179.6070  179.1590  139.2500 C   0  0  0  0  0  2  0  0  0  0  0  0
  181.1780  182.3160  137.9310 C   0  0  0  0  0  2  0  0  0  0  0  0
  180.9470  176.9170  139.1780 C   0  0  1  0  0  3  0  0  0  0  0  0
  182.3460  177.3570  138.7070 C   0  0  1  0  0  3  0  0  0  0  0  0
  179.1880  181.6190  137.0420 C   0  0  2  0  0  3  0  0  0  0  0  0
  181.8890  181.2360  138.7240 C   0  0  0  0  0  2  0  0  0  0  0  0
  179.4710  182.3060  135.8550 O   0  0  0  0  0  1  0  0  0  0  0  0
  181.7840  179.8640  138.0500 C   0  0  2  0  0  3  0  0  0  0  0  0
  180.9960  175.5570  139.8580 C   0  0  0  0  0  1  0  0  0  0  0  0
  180.2110  177.9880  141.2960 C   0  0  0  0  0  2  0  0  0  0  0  0
  179.7950  182.2320  138.1600 O   0  0  0  0  0  0  0  0  0  0  0  0
  179.4930  180.1460  136.9150 C   0  0  0  0  0  0  0  0  0  0  0  0
  180.3210  179.3900  137.9180 C   0  0  2  0  0  3  0  0  0  0  0  0
  179.0180  179.5280  135.9760 O   0  0  0  0  0  0  0  0  0  0  0  0
  180.1740  177.9620  139.9630 C   0  0  0  0  0  0  0  0  0  0  0  0
  184.1330  179.1810  138.7510 C   0  0  0  0  0  1  0  0  0  0  0  0
  187.9020  174.2020  136.8450 C   0  0  0  0  0  0  0  0  0  0  0  0
  187.9520  173.0850  136.2640 O   0  0  0  0  0  0  0  0  0  0  0  0
  189.0780  174.8380  137.2190 O   0  0  0  0  0  1  0  0  0  0  0  0
  1  7  1  6  0  0  0
  3 12  2  0  0  0  0
  4  7  1  0  0  0  0
  5  8  1  0  0  0  0
  5  4  1  0  0  0  0
  6  3  1  0  0  0  0
  8  6  1  0  0  0  0
  9 10  1  0  0  0  0
  9  2  1  1  0  0  0
 10 32  1  6  0  0  0
 11 13  1  0  0  0  0
 11 10  1  0  0  0  0
 12  9  1  0  0  0  0
 12 14  1  0  0  0  0
 14 13  1  6  0  0  0
 14  1  1  0  0  0  0
 15 31  1  6  0  0  0
 16 30  1  0  0  0  0
 17 26  1  0  0  0  0
 17 21  1  0  0  0  0
 18 24  1  1  0  0  0
 18 30  1  0  0  0  0
 19  1  1  6  0  0  0
 19 15  1  0  0  0  0
 19 18  1  0  0  0  0
 20 22  1  6  0  0  0
 20 26  1  0  0  0  0
 23 21  1  1  0  0  0
 23 15  1  0  0  0  0
 27 20  1  0  0  0  0
 27 28  1  0  0  0  0
 28 23  1  0  0  0  0
 28 16  1  1  0  0  0
 29 27  2  0  0  0  0
 30 25  2  0  0  0  0
 32 34  1  0  0  0  0
 33 32  2  0  0  0  0
M  END
>  <MODEL>
9

>  <REMARK>
 VINA RESULT:      -4.5      2.737      4.356
  Name = 
  2 active torsions:
  status: ('A' for Active; 'I' for Inactive)
    1  A    between atoms: C_1  and  C_9
    2  A    between atoms: C_3  and  C_25
                            x       y       z     vdW  Elec       q    Type
                         _______ _______ _______ _____ _____    ______ ____

>  <TORSDO>
F 2

$$$$
