=
 OpenBabel10262421133D

 32 36  0  0  0  0  0  0  0  0999 V2000
  186.3770  178.0900  144.3490 C   0  0  0  0  0  0  0  0  0  0  0  0
  186.8270  178.2260  141.5710 C   0  0  0  0  0  0  0  0  0  0  0  0
  186.1660  177.9900  145.7310 C   0  0  0  0  0  3  0  0  0  0  0  0
  185.2970  178.4580  143.4900 C   0  0  0  0  0  0  0  0  0  0  0  0
  184.5250  178.8860  141.1720 C   0  0  0  0  0  3  0  0  0  0  0  0
  188.4770  178.6170  138.2350 N   0  0  0  0  0  2  0  0  0  0  0  0
  185.5360  178.5270  142.0840 C   0  0  0  0  0  0  0  0  0  0  0  0
  186.3210  178.6730  137.9480 O   0  0  0  0  0  0  0  0  0  0  0  0
  186.0330  178.6310  139.3130 C   0  0  0  0  0  0  0  0  0  0  0  0
  184.0250  178.7340  144.0780 C   0  0  0  0  0  0  0  0  0  0  0  0
  184.7670  178.9400  139.7990 C   0  0  0  0  0  3  0  0  0  0  0  0
  183.8650  178.6280  145.4680 C   0  0  0  0  0  3  0  0  0  0  0  0
  187.8570  177.8750  142.4410 C   0  0  0  0  0  3  0  0  0  0  0  0
  187.6530  177.8130  143.8150 C   0  0  0  0  0  0  0  0  0  0  0  0
  187.0650  178.2920  140.1850 C   0  0  0  0  0  0  0  0  0  0  0  0
  184.9230  178.2570  146.2880 C   0  0  0  0  0  3  0  0  0  0  0  0
  187.4590  178.1150  137.4760 O   0  0  0  0  0  0  0  0  0  0  0  0
  188.4040  178.0000  139.5640 C   0  0  0  0  0  2  0  0  0  0  0  0
  190.9650  176.3840  145.0100 C   0  0  0  0  0  0  0  0  0  0  0  0
  192.0560  175.6700  144.5310 O   0  0  0  0  0  1  0  0  0  0  0  0
  188.8010  177.4390  144.6680 C   0  0  0  0  0  0  0  0  0  0  0  0
  190.9360  176.7690  146.3520 C   0  0  0  0  0  3  0  0  0  0  0  0
  188.7830  177.8120  146.0180 C   0  0  0  0  0  3  0  0  0  0  0  0
  189.8970  176.7110  144.1600 C   0  0  0  0  0  0  0  0  0  0  0  0
  189.9330  176.1700  142.4820 Cl  0  0  0  0  0  0  0  0  0  0  0  0
  189.8440  177.4840  146.8650 C   0  0  0  0  0  0  0  0  0  0  0  0
  188.5750  178.2530  148.8440 C   0  0  0  0  0  1  0  0  0  0  0  0
  189.7880  177.8780  148.2040 O   0  0  0  0  0  0  0  0  0  0  0  0
  182.9300  179.1100  143.2890 O   0  0  0  0  0  0  0  0  0  0  0  0
  181.5810  178.9930  143.7230 C   0  0  0  0  0  2  0  0  0  0  0  0
  180.6750  179.5150  142.6620 C   0  0  0  0  0  3  0  0  0  0  0  0
  180.0590  180.5510  142.8440 O   0  0  0  0  0  0  0  0  0  0  0  0
  1  3  2  0  0  0  0
  2  7  1  0  0  0  0
  2 13  1  0  0  0  0
  3 16  1  0  0  0  0
  4 10  2  0  0  0  0
  4  1  1  0  0  0  0
  5  7  2  0  0  0  0
  6 18  1  0  0  0  0
  7  4  1  0  0  0  0
  8  9  1  0  0  0  0
  9 11  2  0  0  0  0
  9 15  1  0  0  0  0
 10 12  1  0  0  0  0
 11  5  1  0  0  0  0
 12 16  2  0  0  0  0
 13 14  2  0  0  0  0
 14  1  1  0  0  0  0
 14 21  1  0  0  0  0
 15  2  2  0  0  0  0
 17  8  1  0  0  0  0
 17  6  1  0  0  0  0
 18 15  1  0  0  0  0
 19 22  1  0  0  0  0
 20 19  1  0  0  0  0
 21 23  2  0  0  0  0
 22 26  2  0  0  0  0
 23 26  1  0  0  0  0
 24 21  1  0  0  0  0
 24 19  2  0  0  0  0
 25 24  1  0  0  0  0
 26 28  1  0  0  0  0
 28 27  1  0  0  0  0
 29 30  1  0  0  0  0
 29 10  1  0  0  0  0
 31 32  2  0  0  0  0
 31 30  1  0  0  0  0
M  END
>  <MODEL>
1

>  <REMARK>
 VINA RESULT:     -10.6      0.000      0.000
  Name = 
  5 active torsions:
  status: ('A' for Active; 'I' for Inactive)
    1  A    between atoms: C_13  and  C_18
    2  A    between atoms: C_14  and  O_29
    3  A    between atoms: O_15  and  C_26
    4  A    between atoms: C_16  and  C_27
    5  A    between atoms: C_18  and  O_29
                            x       y       z     vdW  Elec       q    Type
                         _______ _______ _______ _____ _____    ______ ____

>  <TORSDO>
F 5

$$$$
=
 OpenBabel10262421133D

 32 36  0  0  0  0  0  0  0  0999 V2000
  188.1810  177.9000  142.8360 C   0  0  0  0  0  0  0  0  0  0  0  0
  185.4170  178.4170  143.0130 C   0  0  0  0  0  0  0  0  0  0  0  0
  189.5620  177.6680  142.7720 C   0  0  0  0  0  3  0  0  0  0  0  0
  187.4440  178.1450  141.6370 C   0  0  0  0  0  0  0  0  0  0  0  0
  185.2470  178.6500  140.6020 C   0  0  0  0  0  3  0  0  0  0  0  0
  181.8640  178.4840  144.1850 N   0  0  0  0  0  2  0  0  0  0  0  0
  186.0440  178.4030  141.7370 C   0  0  0  0  0  0  0  0  0  0  0  0
  181.9230  179.1880  142.1270 O   0  0  0  0  0  0  0  0  0  0  0  0
  183.2860  178.9330  141.9700 C   0  0  0  0  0  0  0  0  0  0  0  0
  188.1460  178.1270  140.3940 C   0  0  0  0  0  0  0  0  0  0  0  0
  183.8810  178.9110  140.7120 C   0  0  0  0  0  3  0  0  0  0  0  0
  189.5280  177.8830  140.3790 C   0  0  0  0  0  3  0  0  0  0  0  0
  186.1670  178.1690  144.1600 C   0  0  0  0  0  3  0  0  0  0  0  0
  187.5310  177.9030  144.0880 C   0  0  0  0  0  0  0  0  0  0  0  0
  184.0360  178.6720  143.1150 C   0  0  0  0  0  0  0  0  0  0  0  0
  190.2310  177.6580  141.5550 C   0  0  0  0  0  3  0  0  0  0  0  0
  181.4230  179.4720  143.3510 O   0  0  0  0  0  0  0  0  0  0  0  0
  183.2960  178.6940  144.4240 C   0  0  0  0  0  2  0  0  0  0  0  0
  188.3740  177.5930  147.7800 C   0  0  0  0  0  0  0  0  0  0  0  0
  187.8000  177.7960  149.0280 O   0  0  0  0  0  1  0  0  0  0  0  0
  188.2520  177.6430  145.3510 C   0  0  0  0  0  0  0  0  0  0  0  0
  189.6890  177.1280  147.7000 C   0  0  0  0  0  3  0  0  0  0  0  0
  189.5730  177.1830  145.2880 C   0  0  0  0  0  3  0  0  0  0  0  0
  187.6480  177.8590  146.6080 C   0  0  0  0  0  0  0  0  0  0  0  0
  186.0080  178.4940  146.7350 Cl  0  0  0  0  0  0  0  0  0  0  0  0
  190.2970  176.9220  146.4540 C   0  0  0  0  0  0  0  0  0  0  0  0
  192.2620  175.7450  147.3870 C   0  0  0  0  0  1  0  0  0  0  0  0
  191.6110  176.4610  146.3450 O   0  0  0  0  0  0  0  0  0  0  0  0
  187.4770  178.3500  139.1820 O   0  0  0  0  0  0  0  0  0  0  0  0
  187.8210  177.6930  137.9700 C   0  0  0  0  0  2  0  0  0  0  0  0
  188.2810  178.7020  136.9750 C   0  0  0  0  0  3  0  0  0  0  0  0
  188.9160  179.6750  137.3450 O   0  0  0  0  0  0  0  0  0  0  0  0
  1 14  1  0  0  0  0
  2 15  1  0  0  0  0
  2 13  1  0  0  0  0
  3  1  1  0  0  0  0
  4  7  1  0  0  0  0
  4  1  2  0  0  0  0
  5 11  2  0  0  0  0
  5  7  1  0  0  0  0
  6 18  1  0  0  0  0
  7  2  2  0  0  0  0
  8 17  1  0  0  0  0
  9  8  1  0  0  0  0
  9 15  2  0  0  0  0
 10  4  1  0  0  0  0
 11  9  1  0  0  0  0
 12 10  2  0  0  0  0
 12 16  1  0  0  0  0
 14 13  2  0  0  0  0
 14 21  1  0  0  0  0
 15 18  1  0  0  0  0
 16  3  2  0  0  0  0
 17  6  1  0  0  0  0
 19 20  1  0  0  0  0
 21 24  1  0  0  0  0
 22 19  1  0  0  0  0
 23 21  2  0  0  0  0
 23 26  1  0  0  0  0
 24 25  1  0  0  0  0
 24 19  2  0  0  0  0
 26 22  2  0  0  0  0
 28 26  1  0  0  0  0
 28 27  1  0  0  0  0
 29 10  1  0  0  0  0
 30 29  1  0  0  0  0
 31 32  2  0  0  0  0
 31 30  1  0  0  0  0
M  END
>  <MODEL>
2

>  <REMARK>
 VINA RESULT:     -10.6      2.361      5.358
  Name = 
  5 active torsions:
  status: ('A' for Active; 'I' for Inactive)
    1  A    between atoms: C_13  and  C_18
    2  A    between atoms: C_14  and  O_29
    3  A    between atoms: O_15  and  C_26
    4  A    between atoms: C_16  and  C_27
    5  A    between atoms: C_18  and  O_29
                            x       y       z     vdW  Elec       q    Type
                         _______ _______ _______ _____ _____    ______ ____

>  <TORSDO>
F 5

$$$$
=
 OpenBabel10262421133D

 32 36  0  0  0  0  0  0  0  0999 V2000
  189.4640  177.2080  142.9470 C   0  0  0  0  0  0  0  0  0  0  0  0
  186.9630  178.0170  143.9590 C   0  0  0  0  0  0  0  0  0  0  0  0
  190.6920  176.7830  142.4220 C   0  0  0  0  0  3  0  0  0  0  0  0
  189.2550  177.2050  144.3600 C   0  0  0  0  0  0  0  0  0  0  0  0
  187.7020  177.6480  146.2420 C   0  0  0  0  0  3  0  0  0  0  0  0
  183.6310  179.6790  144.3400 N   0  0  0  0  0  2  0  0  0  0  0  0
  187.9860  177.6190  144.8630 C   0  0  0  0  0  0  0  0  0  0  0  0
  184.1970  178.8250  146.2590 O   0  0  0  0  0  0  0  0  0  0  0  0
  185.4600  178.4190  145.8230 C   0  0  0  0  0  0  0  0  0  0  0  0
  190.3260  176.7810  145.2030 C   0  0  0  0  0  0  0  0  0  0  0  0
  186.4530  178.0440  146.7220 C   0  0  0  0  0  3  0  0  0  0  0  0
  191.5410  176.3710  144.6320 C   0  0  0  0  0  3  0  0  0  0  0  0
  187.2050  178.0110  142.5870 C   0  0  0  0  0  3  0  0  0  0  0  0
  188.4380  177.6240  142.0730 C   0  0  0  0  0  0  0  0  0  0  0  0
  185.7080  178.4250  144.4520 C   0  0  0  0  0  0  0  0  0  0  0  0
  191.7230  176.3690  143.2550 C   0  0  0  0  0  3  0  0  0  0  0  0
  183.1740  178.9210  145.3790 O   0  0  0  0  0  0  0  0  0  0  0  0
  184.5780  178.8700  143.5650 C   0  0  0  0  0  2  0  0  0  0  0  0
  187.8350  178.1740  138.3620 C   0  0  0  0  0  0  0  0  0  0  0  0
  186.8690  178.6740  137.4990 O   0  0  0  0  0  1  0  0  0  0  0  0
  188.6140  177.6540  140.6060 C   0  0  0  0  0  0  0  0  0  0  0  0
  189.0270  177.6720  137.8350 C   0  0  0  0  0  3  0  0  0  0  0  0
  189.8010  177.1460  140.0630 C   0  0  0  0  0  3  0  0  0  0  0  0
  187.6170  178.1640  139.7490 C   0  0  0  0  0  0  0  0  0  0  0  0
  186.0840  178.7570  140.3850 Cl  0  0  0  0  0  0  0  0  0  0  0  0
  190.0170  177.1530  138.6830 C   0  0  0  0  0  0  0  0  0  0  0  0
  191.3680  175.2820  137.7930 C   0  0  0  0  0  1  0  0  0  0  0  0
  191.2170  176.6400  138.1830 O   0  0  0  0  0  0  0  0  0  0  0  0
  190.1860  176.7650  146.5980 O   0  0  0  0  0  0  0  0  0  0  0  0
  191.2720  176.9650  147.4920 C   0  0  0  0  0  2  0  0  0  0  0  0
  191.9820  175.6720  147.7030 C   0  0  0  0  0  3  0  0  0  0  0  0
  193.1860  175.6630  147.8940 O   0  0  0  0  0  0  0  0  0  0  0  0
  1  4  1  0  0  0  0
  2 15  2  0  0  0  0
  2  7  1  0  0  0  0
  3  1  2  0  0  0  0
  3 16  1  0  0  0  0
  4  7  1  0  0  0  0
  4 10  2  0  0  0  0
  5 11  1  0  0  0  0
  6 17  1  0  0  0  0
  7  5  2  0  0  0  0
  9  8  1  0  0  0  0
  9 11  2  0  0  0  0
 10 29  1  0  0  0  0
 12 10  1  0  0  0  0
 13  2  1  0  0  0  0
 14 13  2  0  0  0  0
 14  1  1  0  0  0  0
 15  9  1  0  0  0  0
 16 12  2  0  0  0  0
 17  8  1  0  0  0  0
 18  6  1  0  0  0  0
 18 15  1  0  0  0  0
 19 24  1  0  0  0  0
 20 19  1  0  0  0  0
 21 14  1  0  0  0  0
 22 19  2  0  0  0  0
 22 26  1  0  0  0  0
 23 21  1  0  0  0  0
 24 25  1  0  0  0  0
 24 21  2  0  0  0  0
 26 23  2  0  0  0  0
 27 28  1  0  0  0  0
 28 26  1  0  0  0  0
 29 30  1  0  0  0  0
 30 31  1  0  0  0  0
 31 32  2  0  0  0  0
M  END
>  <MODEL>
3

>  <REMARK>
 VINA RESULT:     -10.4      2.470      7.630
  Name = 
  5 active torsions:
  status: ('A' for Active; 'I' for Inactive)
    1  A    between atoms: C_13  and  C_18
    2  A    between atoms: C_14  and  O_29
    3  A    between atoms: O_15  and  C_26
    4  A    between atoms: C_16  and  C_27
    5  A    between atoms: C_18  and  O_29
                            x       y       z     vdW  Elec       q    Type
                         _______ _______ _______ _____ _____    ______ ____

>  <TORSDO>
F 5

$$$$
=
 OpenBabel10262421133D

 32 36  0  0  0  0  0  0  0  0999 V2000
  186.1390  178.2520  144.4330 C   0  0  0  0  0  0  0  0  0  0  0  0
  188.0260  177.8230  142.3850 C   0  0  0  0  0  0  0  0  0  0  0  0
  185.1900  178.4940  145.4360 C   0  0  0  0  0  3  0  0  0  0  0  0
  187.4990  177.9940  144.7870 C   0  0  0  0  0  0  0  0  0  0  0  0
  189.8040  177.5120  144.0090 C   0  0  0  0  0  3  0  0  0  0  0  0
  189.6070  176.9060  139.1190 N   0  0  0  0  0  2  0  0  0  0  0  0
  188.4460  177.7750  143.7430 C   0  0  0  0  0  0  0  0  0  0  0  0
  191.1830  177.1740  140.5960 O   0  0  0  0  0  0  0  0  0  0  0  0
  190.2980  177.3720  141.6570 C   0  0  0  0  0  0  0  0  0  0  0  0
  187.8470  177.9740  146.1710 C   0  0  0  0  0  0  0  0  0  0  0  0
  190.7240  177.3100  142.9800 C   0  0  0  0  0  3  0  0  0  0  0  0
  186.8610  178.2160  147.1400 C   0  0  0  0  0  3  0  0  0  0  0  0
  186.6900  178.0720  142.0780 C   0  0  0  0  0  3  0  0  0  0  0  0
  185.7450  178.2760  143.0780 C   0  0  0  0  0  0  0  0  0  0  0  0
  188.9590  177.6080  141.3520 C   0  0  0  0  0  0  0  0  0  0  0  0
  185.5460  178.4760  146.7780 C   0  0  0  0  0  3  0  0  0  0  0  0
  190.8160  177.5030  139.3360 O   0  0  0  0  0  0  0  0  0  0  0  0
  188.5940  177.6320  139.8940 C   0  0  0  0  0  2  0  0  0  0  0  0
  182.6480  178.9170  140.9730 C   0  0  0  0  0  0  0  0  0  0  0  0
  182.2720  179.0720  139.6450 O   0  0  0  0  0  1  0  0  0  0  0  0
  184.3480  178.5270  142.6670 C   0  0  0  0  0  0  0  0  0  0  0  0
  181.6760  179.0030  141.9730 C   0  0  0  0  0  3  0  0  0  0  0  0
  183.3640  178.6240  143.6590 C   0  0  0  0  0  3  0  0  0  0  0  0
  183.9900  178.6840  141.3120 C   0  0  0  0  0  0  0  0  0  0  0  0
  185.2050  178.6300  140.0360 Cl  0  0  0  0  0  0  0  0  0  0  0  0
  182.0290  178.8590  143.3230 C   0  0  0  0  0  0  0  0  0  0  0  0
  179.7070  178.6290  144.1430 C   0  0  0  0  0  1  0  0  0  0  0  0
  181.0790  178.9440  144.3430 O   0  0  0  0  0  0  0  0  0  0  0  0
  189.1620  177.7180  146.5820 O   0  0  0  0  0  0  0  0  0  0  0  0
  189.5120  176.6510  147.4550 C   0  0  0  0  0  2  0  0  0  0  0  0
  190.9730  176.3810  147.3440 C   0  0  0  0  0  3  0  0  0  0  0  0
  191.6810  177.1280  146.6890 O   0  0  0  0  0  0  0  0  0  0  0  0
  1  4  1  0  0  0  0
  1  3  2  0  0  0  0
  2  7  1  0  0  0  0
  3 16  1  0  0  0  0
  4 10  2  0  0  0  0
  6 17  1  0  0  0  0
  6 18  1  0  0  0  0
  7  5  2  0  0  0  0
  7  4  1  0  0  0  0
  8  9  1  0  0  0  0
  9 11  2  0  0  0  0
 10 29  1  0  0  0  0
 10 12  1  0  0  0  0
 11  5  1  0  0  0  0
 13  2  1  0  0  0  0
 13 14  2  0  0  0  0
 14  1  1  0  0  0  0
 15  9  1  0  0  0  0
 15  2  2  0  0  0  0
 16 12  2  0  0  0  0
 17  8  1  0  0  0  0
 18 15  1  0  0  0  0
 19 24  2  0  0  0  0
 19 22  1  0  0  0  0
 20 19  1  0  0  0  0
 21 14  1  0  0  0  0
 21 23  2  0  0  0  0
 22 26  2  0  0  0  0
 24 21  1  0  0  0  0
 25 24  1  0  0  0  0
 26 23  1  0  0  0  0
 26 28  1  0  0  0  0
 27 28  1  0  0  0  0
 29 30  1  0  0  0  0
 31 30  1  0  0  0  0
 32 31  2  0  0  0  0
M  END
>  <MODEL>
4

>  <REMARK>
 VINA RESULT:     -10.0      2.056      6.630
  Name = 
  5 active torsions:
  status: ('A' for Active; 'I' for Inactive)
    1  A    between atoms: C_13  and  C_18
    2  A    between atoms: C_14  and  O_29
    3  A    between atoms: O_15  and  C_26
    4  A    between atoms: C_16  and  C_27
    5  A    between atoms: C_18  and  O_29
                            x       y       z     vdW  Elec       q    Type
                         _______ _______ _______ _____ _____    ______ ____

>  <TORSDO>
F 5

$$$$
=
 OpenBabel10262421133D

 32 36  0  0  0  0  0  0  0  0999 V2000
  187.9600  177.7760  143.6150 C   0  0  0  0  0  0  0  0  0  0  0  0
  189.6420  177.4700  141.3760 C   0  0  0  0  0  0  0  0  0  0  0  0
  187.1320  177.8970  144.7400 C   0  0  0  0  0  3  0  0  0  0  0  0
  187.4260  178.0080  142.3110 C   0  0  0  0  0  0  0  0  0  0  0  0
  187.8370  178.0670  139.8650 C   0  0  0  0  0  3  0  0  0  0  0  0
  192.6620  177.3210  139.1700 N   0  0  0  0  0  2  0  0  0  0  0  0
  188.2870  177.8530  141.1830 C   0  0  0  0  0  0  0  0  0  0  0  0
  190.8890  177.3390  137.9100 O   0  0  0  0  0  0  0  0  0  0  0  0
  190.0050  177.5140  138.9760 C   0  0  0  0  0  0  0  0  0  0  0  0
  186.0520  178.3790  142.1960 C   0  0  0  0  0  0  0  0  0  0  0  0
  188.6850  177.9010  138.7690 C   0  0  0  0  0  3  0  0  0  0  0  0
  185.2640  178.4950  143.3520 C   0  0  0  0  0  3  0  0  0  0  0  0
  190.1290  177.2560  142.6640 C   0  0  0  0  0  3  0  0  0  0  0  0
  189.3130  177.4130  143.7800 C   0  0  0  0  0  0  0  0  0  0  0  0
  190.4940  177.3140  140.2650 C   0  0  0  0  0  0  0  0  0  0  0  0
  185.7970  178.2540  144.6120 C   0  0  0  0  0  3  0  0  0  0  0  0
  192.0700  176.7080  138.1030 O   0  0  0  0  0  0  0  0  0  0  0  0
  191.9410  176.9220  140.3840 C   0  0  0  0  0  2  0  0  0  0  0  0
  191.5810  176.1690  146.5630 C   0  0  0  0  0  0  0  0  0  0  0  0
  192.7030  175.3740  146.7510 O   0  0  0  0  0  1  0  0  0  0  0  0
  189.9100  177.1750  145.1100 C   0  0  0  0  0  0  0  0  0  0  0  0
  190.9780  176.7730  147.6680 C   0  0  0  0  0  3  0  0  0  0  0  0
  189.3120  177.7680  146.2290 C   0  0  0  0  0  3  0  0  0  0  0  0
  191.0500  176.3610  145.2780 C   0  0  0  0  0  0  0  0  0  0  0  0
  191.7980  175.5470  143.9040 Cl  0  0  0  0  0  0  0  0  0  0  0  0
  189.8380  177.5750  147.5090 C   0  0  0  0  0  0  0  0  0  0  0  0
  187.8010  178.2090  148.7590 C   0  0  0  0  0  1  0  0  0  0  0  0
  189.2130  178.1870  148.5980 O   0  0  0  0  0  0  0  0  0  0  0  0
  185.4720  178.6290  140.9450 O   0  0  0  0  0  0  0  0  0  0  0  0
  184.1060  178.3640  140.6520 C   0  0  0  0  0  2  0  0  0  0  0  0
  183.6040  179.3780  139.6830 C   0  0  0  0  0  3  0  0  0  0  0  0
  184.3850  180.1430  139.1440 O   0  0  0  0  0  0  0  0  0  0  0  0
  1 14  1  0  0  0  0
  1  3  2  0  0  0  0
  2 13  1  0  0  0  0
  4  1  1  0  0  0  0
  5  7  2  0  0  0  0
  6 18  1  0  0  0  0
  7  2  1  0  0  0  0
  7  4  1  0  0  0  0
  8 17  1  0  0  0  0
  8  9  1  0  0  0  0
  9 15  1  0  0  0  0
 10  4  2  0  0  0  0
 10 12  1  0  0  0  0
 11  9  2  0  0  0  0
 11  5  1  0  0  0  0
 12 16  2  0  0  0  0
 13 14  2  0  0  0  0
 14 21  1  0  0  0  0
 15 18  1  0  0  0  0
 15  2  2  0  0  0  0
 16  3  1  0  0  0  0
 17  6  1  0  0  0  0
 19 20  1  0  0  0  0
 19 22  1  0  0  0  0
 21 24  1  0  0  0  0
 21 23  2  0  0  0  0
 23 26  1  0  0  0  0
 24 19  2  0  0  0  0
 25 24  1  0  0  0  0
 26 22  2  0  0  0  0
 26 28  1  0  0  0  0
 28 27  1  0  0  0  0
 29 10  1  0  0  0  0
 30 29  1  0  0  0  0
 31 30  1  0  0  0  0
 32 31  2  0  0  0  0
M  END
>  <MODEL>
5

>  <REMARK>
 VINA RESULT:     -10.0      2.187      3.045
  Name = 
  5 active torsions:
  status: ('A' for Active; 'I' for Inactive)
    1  A    between atoms: C_13  and  C_18
    2  A    between atoms: C_14  and  O_29
    3  A    between atoms: O_15  and  C_26
    4  A    between atoms: C_16  and  C_27
    5  A    between atoms: C_18  and  O_29
                            x       y       z     vdW  Elec       q    Type
                         _______ _______ _______ _____ _____    ______ ____

>  <TORSDO>
F 5

$$$$
=
 OpenBabel10262421133D

 32 36  0  0  0  0  0  0  0  0999 V2000
  187.8130  177.9490  141.7380 C   0  0  0  0  0  0  0  0  0  0  0  0
  189.2990  177.3020  144.0430 C   0  0  0  0  0  0  0  0  0  0  0  0
  187.0500  178.2480  140.6010 C   0  0  0  0  0  3  0  0  0  0  0  0
  189.1990  177.6300  141.6030 C   0  0  0  0  0  0  0  0  0  0  0  0
  191.3130  176.9840  142.7260 C   0  0  0  0  0  3  0  0  0  0  0  0
  190.4860  177.0950  147.5860 N   0  0  0  0  0  2  0  0  0  0  0  0
  189.9430  177.3060  142.7760 C   0  0  0  0  0  0  0  0  0  0  0  0
  192.0560  176.3290  146.2880 O   0  0  0  0  0  0  0  0  0  0  0  0
  191.3790  176.6470  145.1090 C   0  0  0  0  0  0  0  0  0  0  0  0
  189.7730  177.6430  140.2950 C   0  0  0  0  0  0  0  0  0  0  0  0
  192.0290  176.6580  143.8790 C   0  0  0  0  0  3  0  0  0  0  0  0
  188.9710  177.9560  139.1860 C   0  0  0  0  0  3  0  0  0  0  0  0
  187.9460  177.6230  144.1380 C   0  0  0  0  0  3  0  0  0  0  0  0
  187.2020  177.9550  143.0100 C   0  0  0  0  0  0  0  0  0  0  0  0
  190.0300  176.9810  145.2030 C   0  0  0  0  0  0  0  0  0  0  0  0
  187.6220  178.2530  139.3360 C   0  0  0  0  0  3  0  0  0  0  0  0
  191.3610  176.0600  147.4170 O   0  0  0  0  0  0  0  0  0  0  0  0
  189.4260  176.9650  146.5800 C   0  0  0  0  0  2  0  0  0  0  0  0
  183.8790  178.8870  144.5980 C   0  0  0  0  0  0  0  0  0  0  0  0
  183.3310  179.1680  145.8430 O   0  0  0  0  0  1  0  0  0  0  0  0
  185.7750  178.2900  143.1980 C   0  0  0  0  0  0  0  0  0  0  0  0
  183.0580  178.9160  143.4690 C   0  0  0  0  0  3  0  0  0  0  0  0
  184.9380  178.3150  142.0750 C   0  0  0  0  0  3  0  0  0  0  0  0
  185.2400  178.5700  144.4730 C   0  0  0  0  0  0  0  0  0  0  0  0
  186.2450  178.4900  145.9200 Cl  0  0  0  0  0  0  0  0  0  0  0  0
  183.5820  178.6280  142.2000 C   0  0  0  0  0  0  0  0  0  0  0  0
  183.3260  178.6630  139.7410 C   0  0  0  0  0  1  0  0  0  0  0  0
  182.7840  178.6450  141.0550 O   0  0  0  0  0  0  0  0  0  0  0  0
  191.1290  177.3480  140.0980 O   0  0  0  0  0  0  0  0  0  0  0  0
  191.6300  176.7420  138.9130 C   0  0  0  0  0  2  0  0  0  0  0  0
  193.1190  176.7530  138.9460 C   0  0  0  0  0  3  0  0  0  0  0  0
  193.7030  177.3350  139.8430 O   0  0  0  0  0  0  0  0  0  0  0  0
  1 14  1  0  0  0  0
  2 13  1  0  0  0  0
  2 15  1  0  0  0  0
  3  1  1  0  0  0  0
  4  1  2  0  0  0  0
  4  7  1  0  0  0  0
  5  7  1  0  0  0  0
  5 11  2  0  0  0  0
  7  2  2  0  0  0  0
  8 17  1  0  0  0  0
  9 15  2  0  0  0  0
  9  8  1  0  0  0  0
 10  4  1  0  0  0  0
 11  9  1  0  0  0  0
 12 16  1  0  0  0  0
 12 10  2  0  0  0  0
 14 21  1  0  0  0  0
 14 13  2  0  0  0  0
 15 18  1  0  0  0  0
 16  3  2  0  0  0  0
 17  6  1  0  0  0  0
 18  6  1  0  0  0  0
 19 20  1  0  0  0  0
 21 24  2  0  0  0  0
 22 19  2  0  0  0  0
 23 26  2  0  0  0  0
 23 21  1  0  0  0  0
 24 19  1  0  0  0  0
 24 25  1  0  0  0  0
 26 22  1  0  0  0  0
 27 28  1  0  0  0  0
 28 26  1  0  0  0  0
 29 10  1  0  0  0  0
 30 31  1  0  0  0  0
 30 29  1  0  0  0  0
 31 32  2  0  0  0  0
M  END
>  <MODEL>
6

>  <REMARK>
 VINA RESULT:     -10.0      2.842      8.003
  Name = 
  5 active torsions:
  status: ('A' for Active; 'I' for Inactive)
    1  A    between atoms: C_13  and  C_18
    2  A    between atoms: C_14  and  O_29
    3  A    between atoms: O_15  and  C_26
    4  A    between atoms: C_16  and  C_27
    5  A    between atoms: C_18  and  O_29
                            x       y       z     vdW  Elec       q    Type
                         _______ _______ _______ _____ _____    ______ ____

>  <TORSDO>
F 5

$$$$
=
 OpenBabel10262421133D

 32 36  0  0  0  0  0  0  0  0999 V2000
  188.0540  177.8350  141.4380 C   0  0  0  0  0  0  0  0  0  0  0  0
  189.4790  177.2970  143.8070 C   0  0  0  0  0  0  0  0  0  0  0  0
  187.3710  178.1230  140.2470 C   0  0  0  0  0  3  0  0  0  0  0  0
  187.4130  178.0520  142.6950 C   0  0  0  0  0  0  0  0  0  0  0  0
  187.5810  177.9580  145.1680 C   0  0  0  0  0  3  0  0  0  0  0  0
  191.9060  175.8630  146.2680 N   0  0  0  0  0  2  0  0  0  0  0  0
  188.1420  177.7740  143.8900 C   0  0  0  0  0  0  0  0  0  0  0  0
  190.3810  176.9590  147.3650 O   0  0  0  0  0  0  0  0  0  0  0  0
  189.6180  177.2390  146.2310 C   0  0  0  0  0  0  0  0  0  0  0  0
  186.0730  178.5440  142.6980 C   0  0  0  0  0  0  0  0  0  0  0  0
  188.3070  177.6930  146.3300 C   0  0  0  0  0  3  0  0  0  0  0  0
  185.4270  178.8100  141.4810 C   0  0  0  0  0  3  0  0  0  0  0  0
  190.0700  177.0930  142.5620 C   0  0  0  0  0  3  0  0  0  0  0  0
  189.3760  177.3450  141.3830 C   0  0  0  0  0  0  0  0  0  0  0  0
  190.2020  177.0230  144.9840 C   0  0  0  0  0  0  0  0  0  0  0  0
  186.0690  178.6050  140.2670 C   0  0  0  0  0  3  0  0  0  0  0  0
  191.7180  176.7840  147.2580 O   0  0  0  0  0  0  0  0  0  0  0  0
  191.6150  176.5070  144.9820 C   0  0  0  0  0  2  0  0  0  0  0  0
  192.0930  176.9080  138.7630 C   0  0  0  0  0  0  0  0  0  0  0  0
  193.4750  176.9610  138.6380 O   0  0  0  0  0  1  0  0  0  0  0  0
  190.0720  177.0950  140.1040 C   0  0  0  0  0  0  0  0  0  0  0  0
  191.3160  176.6110  137.6410 C   0  0  0  0  0  3  0  0  0  0  0  0
  189.3060  176.8040  138.9690 C   0  0  0  0  0  3  0  0  0  0  0  0
  191.4780  177.1570  140.0000 C   0  0  0  0  0  0  0  0  0  0  0  0
  192.4770  177.5790  141.3910 Cl  0  0  0  0  0  0  0  0  0  0  0  0
  189.9180  176.5590  137.7360 C   0  0  0  0  0  0  0  0  0  0  0  0
  187.9450  177.0090  136.3140 C   0  0  0  0  0  1  0  0  0  0  0  0
  189.1170  176.2690  136.6290 O   0  0  0  0  0  0  0  0  0  0  0  0
  185.3870  178.7680  143.9000 O   0  0  0  0  0  0  0  0  0  0  0  0
  184.0040  179.0910  143.9590 C   0  0  0  0  0  2  0  0  0  0  0  0
  183.5130  178.9030  145.3530 C   0  0  0  0  0  3  0  0  0  0  0  0
  184.3020  178.9170  146.2830 O   0  0  0  0  0  0  0  0  0  0  0  0
  1  4  1  0  0  0  0
  2  7  1  0  0  0  0
  2 15  1  0  0  0  0
  3 16  2  0  0  0  0
  3  1  1  0  0  0  0
  4 10  1  0  0  0  0
  4  7  2  0  0  0  0
  5 11  2  0  0  0  0
  6 17  1  0  0  0  0
  7  5  1  0  0  0  0
  9 11  1  0  0  0  0
  9  8  1  0  0  0  0
 10 29  1  0  0  0  0
 12 10  2  0  0  0  0
 13  2  2  0  0  0  0
 14  1  2  0  0  0  0
 14 13  1  0  0  0  0
 15  9  2  0  0  0  0
 16 12  1  0  0  0  0
 17  8  1  0  0  0  0
 18 15  1  0  0  0  0
 18  6  1  0  0  0  0
 19 24  1  0  0  0  0
 20 19  1  0  0  0  0
 21 14  1  0  0  0  0
 22 26  1  0  0  0  0
 22 19  2  0  0  0  0
 23 21  1  0  0  0  0
 24 21  2  0  0  0  0
 24 25  1  0  0  0  0
 26 23  2  0  0  0  0
 27 28  1  0  0  0  0
 28 26  1  0  0  0  0
 29 30  1  0  0  0  0
 30 31  1  0  0  0  0
 31 32  2  0  0  0  0
M  END
>  <MODEL>
7

>  <REMARK>
 VINA RESULT:      -9.8      2.767      6.560
  Name = 
  5 active torsions:
  status: ('A' for Active; 'I' for Inactive)
    1  A    between atoms: C_13  and  C_18
    2  A    between atoms: C_14  and  O_29
    3  A    between atoms: O_15  and  C_26
    4  A    between atoms: C_16  and  C_27
    5  A    between atoms: C_18  and  O_29
                            x       y       z     vdW  Elec       q    Type
                         _______ _______ _______ _____ _____    ______ ____

>  <TORSDO>
F 5

$$$$
=
 OpenBabel10262421133D

 32 36  0  0  0  0  0  0  0  0999 V2000
  184.1300  178.7390  142.1540 C   0  0  0  0  0  0  0  0  0  0  0  0
  186.6940  178.2640  141.0870 C   0  0  0  0  0  0  0  0  0  0  0  0
  182.8530  179.0040  142.6660 C   0  0  0  0  0  3  0  0  0  0  0  0
  185.2150  178.4820  143.0460 C   0  0  0  0  0  0  0  0  0  0  0  0
  187.6300  177.9770  143.3090 C   0  0  0  0  0  3  0  0  0  0  0  0
  189.4820  177.2790  138.7920 N   0  0  0  0  0  2  0  0  0  0  0  0
  186.5100  178.2400  142.4960 C   0  0  0  0  0  0  0  0  0  0  0  0
  190.3020  177.5700  140.7870 O   0  0  0  0  0  0  0  0  0  0  0  0
  189.0570  177.7900  141.3790 C   0  0  0  0  0  0  0  0  0  0  0  0
  184.9550  178.4880  144.4500 C   0  0  0  0  0  0  0  0  0  0  0  0
  188.8930  177.7520  142.7600 C   0  0  0  0  0  3  0  0  0  0  0  0
  183.6570  178.7510  144.9160 C   0  0  0  0  0  3  0  0  0  0  0  0
  185.6110  178.5120  140.2470 C   0  0  0  0  0  3  0  0  0  0  0  0
  184.3370  178.7390  140.7580 C   0  0  0  0  0  0  0  0  0  0  0  0
  187.9700  178.0270  140.5400 C   0  0  0  0  0  0  0  0  0  0  0  0
  182.6160  179.0090  144.0340 C   0  0  0  0  0  3  0  0  0  0  0  0
  190.4970  177.8760  139.4840 O   0  0  0  0  0  0  0  0  0  0  0  0
  188.2460  178.0230  139.0620 C   0  0  0  0  0  2  0  0  0  0  0  0
  181.3870  178.2330  138.4180 C   0  0  0  0  0  0  0  0  0  0  0  0
  180.5620  177.2220  137.9420 O   0  0  0  0  0  1  0  0  0  0  0  0
  183.2410  178.9870  139.7990 C   0  0  0  0  0  0  0  0  0  0  0  0
  181.1860  179.5430  137.9780 C   0  0  0  0  0  3  0  0  0  0  0  0
  183.0330  180.2950  139.3420 C   0  0  0  0  0  3  0  0  0  0  0  0
  182.4170  177.9440  139.3270 C   0  0  0  0  0  0  0  0  0  0  0  0
  182.6820  176.2750  139.8290 Cl  0  0  0  0  0  0  0  0  0  0  0  0
  182.0100  180.5820  138.4350 C   0  0  0  0  0  0  0  0  0  0  0  0
  180.6240  182.3620  137.4230 C   0  0  0  0  0  1  0  0  0  0  0  0
  181.8340  181.9000  138.0080 O   0  0  0  0  0  0  0  0  0  0  0  0
  185.9760  178.2340  145.3760 O   0  0  0  0  0  0  0  0  0  0  0  0
  185.9320  178.6790  146.7260 C   0  0  0  0  0  2  0  0  0  0  0  0
  187.1750  178.2520  147.4270 C   0  0  0  0  0  3  0  0  0  0  0  0
  187.9170  177.4370  146.9060 O   0  0  0  0  0  0  0  0  0  0  0  0
  1  3  2  0  0  0  0
  1  4  1  0  0  0  0
  2  7  1  0  0  0  0
  3 16  1  0  0  0  0
  4 10  2  0  0  0  0
  6 18  1  0  0  0  0
  6 17  1  0  0  0  0
  7  4  1  0  0  0  0
  7  5  2  0  0  0  0
  8  9  1  0  0  0  0
  9 11  2  0  0  0  0
 10 12  1  0  0  0  0
 10 29  1  0  0  0  0
 11  5  1  0  0  0  0
 13 14  2  0  0  0  0
 13  2  1  0  0  0  0
 14  1  1  0  0  0  0
 15  2  2  0  0  0  0
 15  9  1  0  0  0  0
 16 12  2  0  0  0  0
 17  8  1  0  0  0  0
 18 15  1  0  0  0  0
 19 24  1  0  0  0  0
 20 19  1  0  0  0  0
 21 14  1  0  0  0  0
 22 19  2  0  0  0  0
 22 26  1  0  0  0  0
 23 21  1  0  0  0  0
 24 21  2  0  0  0  0
 24 25  1  0  0  0  0
 26 23  2  0  0  0  0
 27 28  1  0  0  0  0
 28 26  1  0  0  0  0
 29 30  1  0  0  0  0
 30 31  1  0  0  0  0
 32 31  2  0  0  0  0
M  END
>  <MODEL>
8

>  <REMARK>
 VINA RESULT:      -9.5      3.009      7.246
  Name = 
  5 active torsions:
  status: ('A' for Active; 'I' for Inactive)
    1  A    between atoms: C_13  and  C_18
    2  A    between atoms: C_14  and  O_29
    3  A    between atoms: O_15  and  C_26
    4  A    between atoms: C_16  and  C_27
    5  A    between atoms: C_18  and  O_29
                            x       y       z     vdW  Elec       q    Type
                         _______ _______ _______ _____ _____    ______ ____

>  <TORSDO>
F 5

$$$$
=
 OpenBabel10262421133D

 32 36  0  0  0  0  0  0  0  0999 V2000
  185.9940  178.4130  141.8880 C   0  0  0  0  0  0  0  0  0  0  0  0
  186.9760  178.0570  144.5050 C   0  0  0  0  0  0  0  0  0  0  0  0
  185.5310  178.6140  140.5810 C   0  0  0  0  0  3  0  0  0  0  0  0
  185.0900  178.5210  142.9880 C   0  0  0  0  0  0  0  0  0  0  0  0
  184.7690  178.4230  145.4450 C   0  0  0  0  0  3  0  0  0  0  0  0
  189.0390  176.9560  147.4270 N   0  0  0  0  0  2  0  0  0  0  0  0
  185.5960  178.3360  144.3090 C   0  0  0  0  0  0  0  0  0  0  0  0
  187.1830  177.8100  148.1760 O   0  0  0  0  0  0  0  0  0  0  0  0
  186.6320  177.9900  146.9070 C   0  0  0  0  0  0  0  0  0  0  0  0
  183.7200  178.8160  142.7140 C   0  0  0  0  0  0  0  0  0  0  0  0
  185.2770  178.2510  146.7340 C   0  0  0  0  0  3  0  0  0  0  0  0
  183.3010  179.0020  141.3870 C   0  0  0  0  0  3  0  0  0  0  0  0
  187.8280  177.9540  143.4070 C   0  0  0  0  0  3  0  0  0  0  0  0
  187.3570  178.1180  142.1090 C   0  0  0  0  0  0  0  0  0  0  0  0
  187.4800  177.8760  145.8070 C   0  0  0  0  0  0  0  0  0  0  0  0
  184.1970  178.9040  140.3300 C   0  0  0  0  0  3  0  0  0  0  0  0
  188.5250  177.8290  148.3430 O   0  0  0  0  0  0  0  0  0  0  0  0
  188.9230  177.5670  146.0980 C   0  0  0  0  0  2  0  0  0  0  0  0
  190.5460  177.4970  140.1390 C   0  0  0  0  0  0  0  0  0  0  0  0
  191.8700  177.1290  140.3380 O   0  0  0  0  0  1  0  0  0  0  0  0
  188.3240  177.9860  141.0000 C   0  0  0  0  0  0  0  0  0  0  0  0
  190.0970  177.7600  138.8430 C   0  0  0  0  0  3  0  0  0  0  0  0
  187.8910  178.2540  139.6960 C   0  0  0  0  0  3  0  0  0  0  0  0
  189.6660  177.6130  141.2270 C   0  0  0  0  0  0  0  0  0  0  0  0
  190.2690  177.3250  142.8580 Cl  0  0  0  0  0  0  0  0  0  0  0  0
  188.7670  178.1420  138.6130 C   0  0  0  0  0  0  0  0  0  0  0  0
  188.8410  177.8110  136.1640 C   0  0  0  0  0  1  0  0  0  0  0  0
  188.2940  178.4150  137.3280 O   0  0  0  0  0  0  0  0  0  0  0  0
  182.7820  178.9260  143.7490 O   0  0  0  0  0  0  0  0  0  0  0  0
  181.4430  179.3570  143.5450 C   0  0  0  0  0  2  0  0  0  0  0  0
  180.5070  178.2780  143.9690 C   0  0  0  0  0  3  0  0  0  0  0  0
  179.3700  178.2520  143.5310 O   0  0  0  0  0  0  0  0  0  0  0  0
  1 14  2  0  0  0  0
  1  4  1  0  0  0  0
  2 15  1  0  0  0  0
  3  1  1  0  0  0  0
  4  7  2  0  0  0  0
  5 11  2  0  0  0  0
  6 17  1  0  0  0  0
  7  2  1  0  0  0  0
  7  5  1  0  0  0  0
  8 17  1  0  0  0  0
  9  8  1  0  0  0  0
 10  4  1  0  0  0  0
 10 29  1  0  0  0  0
 11  9  1  0  0  0  0
 12 10  2  0  0  0  0
 13  2  2  0  0  0  0
 14 13  1  0  0  0  0
 15 18  1  0  0  0  0
 15  9  2  0  0  0  0
 16  3  2  0  0  0  0
 16 12  1  0  0  0  0
 18  6  1  0  0  0  0
 19 20  1  0  0  0  0
 19 24  1  0  0  0  0
 21 24  2  0  0  0  0
 21 14  1  0  0  0  0
 22 19  2  0  0  0  0
 23 21  1  0  0  0  0
 24 25  1  0  0  0  0
 26 22  1  0  0  0  0
 26 23  2  0  0  0  0
 27 28  1  0  0  0  0
 28 26  1  0  0  0  0
 30 29  1  0  0  0  0
 30 31  1  0  0  0  0
 32 31  2  0  0  0  0
M  END
>  <MODEL>
9

>  <REMARK>
 VINA RESULT:      -9.4      2.285      5.999
  Name = 
  5 active torsions:
  status: ('A' for Active; 'I' for Inactive)
    1  A    between atoms: C_13  and  C_18
    2  A    between atoms: C_14  and  O_29
    3  A    between atoms: O_15  and  C_26
    4  A    between atoms: C_16  and  C_27
    5  A    between atoms: C_18  and  O_29
                            x       y       z     vdW  Elec       q    Type
                         _______ _______ _______ _____ _____    ______ ____

>  <TORSDO>
F 5

$$$$
