=
 OpenBabel10262421473D

 30 32  0  0  1  0  0  0  0  0999 V2000
  184.8750  178.4760  145.9420 C   0  0  1  0  0  3  0  0  0  0  0  0
  185.4700  178.7950  147.1960 O   0  0  0  0  0  0  0  0  0  0  0  0
  183.8770  179.3940  145.6650 F   0  0  0  0  0  0  0  0  0  0  0  0
  187.1060  177.5400  145.2040 C   0  0  2  0  0  3  0  0  0  0  0  0
  186.7540  178.3620  147.5350 C   0  0  0  0  0  3  0  0  0  0  0  0
  185.9200  178.4660  144.8240 C   0  0  1  0  0  3  0  0  0  0  0  0
  187.5440  177.7860  146.6310 C   0  0  0  0  0  3  0  0  0  0  0  0
  191.2880  176.3500  144.4800 C   0  0  0  0  0  3  0  0  0  0  0  0
  191.0410  176.1830  143.1760 C   0  0  0  0  0  3  0  0  0  0  0  0
  190.4040  176.9840  145.3630 O   0  0  0  0  0  0  0  0  0  0  0  0
  189.6040  176.7370  141.2420 C   0  0  0  0  0  3  0  0  0  0  0  0
  188.5090  176.4310  143.3900 C   0  0  0  0  0  2  0  0  0  0  0  0
  189.6050  178.0980  144.9680 C   0  0  0  0  0  2  0  0  0  0  0  0
  189.7420  176.4890  142.5490 C   0  0  0  0  0  0  0  0  0  0  0  0
  188.3100  177.6880  144.2420 C   0  0  2  0  0  3  0  0  0  0  0  0
  191.6210  177.6330  140.3240 O   0  0  0  0  0  1  0  0  0  0  0  0
  190.6810  176.7990  140.2380 C   0  0  0  0  0  0  0  0  0  0  0  0
  190.6550  175.9140  139.1690 O   0  0  0  0  0  0  0  0  0  0  0  0
  185.2340  177.9920  143.5520 C   0  0  0  0  0  2  0  0  0  0  0  0
  184.9490  179.1770  142.6530 C   0  0  0  0  0  2  0  0  0  0  0  0
  185.6290  178.9590  141.3150 C   0  0  0  0  0  2  0  0  0  0  0  0
  185.0150  178.5070  138.8060 C   0  0  2  0  0  3  0  0  0  0  0  0
  184.8080  179.8470  139.1980 O   0  0  0  0  0  0  0  0  0  0  0  0
  184.6030  178.8710  140.1880 C   0  0  2  0  0  0  0  0  0  0  0  0
  183.1340  178.7140  140.5230 C   0  0  0  0  0  1  0  0  0  0  0  0
  186.5110  178.2570  138.6580 C   0  0  0  0  0  2  0  0  0  0  0  0
  186.9070  178.2430  137.1920 C   0  0  2  0  0  3  0  0  0  0  0  0
  187.6320  176.9460  136.8900 C   0  0  0  0  0  1  0  0  0  0  0  0
  189.0120  178.9110  137.3600 C   0  0  0  0  0  1  0  0  0  0  0  0
  187.7530  179.3200  136.9150 O   0  0  0  0  0  0  0  0  0  0  0  0
  1  3  1  6  0  0  0
  1  2  1  0  0  0  0
  2  5  1  0  0  0  0
  4  7  1  1  0  0  0
  6 19  1  6  0  0  0
  6  4  1  0  0  0  0
  6  1  1  0  0  0  0
  7  5  2  0  0  0  0
  8 10  1  0  0  0  0
  9  8  2  0  0  0  0
 11 14  2  0  0  0  0
 13 10  1  0  0  0  0
 14  9  1  0  0  0  0
 14 12  1  0  0  0  0
 15 12  1  1  0  0  0
 15 13  1  0  0  0  0
 15  4  1  0  0  0  0
 17 16  1  0  0  0  0
 17 11  1  0  0  0  0
 18 17  2  0  0  0  0
 20 19  1  0  0  0  0
 21 20  1  0  0  0  0
 22 26  1  1  0  0  0
 22 23  1  0  0  0  0
 22 24  1  0  0  0  0
 23 24  1  0  0  0  0
 24 25  1  1  0  0  0
 24 21  1  0  0  0  0
 27 28  1  1  0  0  0
 27 26  1  0  0  0  0
 30 27  1  0  0  0  0
 30 29  1  0  0  0  0
M  END
>  <MODEL>
1

>  <REMARK>
 VINA RESULT:      -8.9      0.000      0.000
  Name = 
  9 active torsions:
  status: ('A' for Active; 'I' for Inactive)
    1  A    between atoms: C_1  and  C_4
    2  A    between atoms: C_1  and  C_5
    3  A    between atoms: C_4  and  C_27
    4  A    between atoms: C_5  and  C_22
    5  A    between atoms: C_8  and  C_12
    6  A    between atoms: C_9  and  C_12
    7  A    between atoms: C_9  and  O_21
    8  A    between atoms: C_15  and  C_16
    9  A    between atoms: C_19  and  C_29
                            x       y       z     vdW  Elec       q    Type
                         _______ _______ _______ _____ _____    ______ ____

>  <TORSDO>
F 9

$$$$
=
 OpenBabel10262421473D

 30 32  0  0  1  0  0  0  0  0999 V2000
  189.3070  176.7300  147.4060 C   0  0  1  0  0  3  0  0  0  0  0  0
  190.6850  176.8790  147.7350 O   0  0  0  0  0  0  0  0  0  0  0  0
  188.5370  177.3270  148.3880 F   0  0  0  0  0  0  0  0  0  0  0  0
  189.9610  176.7660  144.9630 C   0  0  2  0  0  3  0  0  0  0  0  0
  191.6880  176.7970  146.7670 C   0  0  0  0  0  3  0  0  0  0  0  0
  188.9990  177.3400  146.0370 C   0  0  1  0  0  3  0  0  0  0  0  0
  191.3870  176.7550  145.4700 C   0  0  0  0  0  3  0  0  0  0  0  0
  191.8390  177.2860  141.0080 C   0  0  0  0  0  3  0  0  0  0  0  0
  190.6400  177.3370  140.4180 C   0  0  0  0  0  3  0  0  0  0  0  0
  192.0260  177.3630  142.3950 O   0  0  0  0  0  0  0  0  0  0  0  0
  188.2180  177.7740  140.6590 C   0  0  0  0  0  3  0  0  0  0  0  0
  189.3320  176.6420  142.4980 C   0  0  0  0  0  2  0  0  0  0  0  0
  191.2130  178.1910  143.2270 C   0  0  0  0  0  2  0  0  0  0  0  0
  189.3670  177.3070  141.1610 C   0  0  0  0  0  0  0  0  0  0  0  0
  189.8780  177.5300  143.6190 C   0  0  2  0  0  3  0  0  0  0  0  0
  188.9240  179.1440  138.8310 O   0  0  0  0  0  1  0  0  0  0  0  0
  188.0290  178.4250  139.3500 C   0  0  0  0  0  0  0  0  0  0  0  0
  186.8300  178.2400  138.6750 O   0  0  0  0  0  0  0  0  0  0  0  0
  187.5490  177.0260  145.7040 C   0  0  0  0  0  2  0  0  0  0  0  0
  186.8180  178.3030  145.3460 C   0  0  0  0  0  2  0  0  0  0  0  0
  185.9980  178.0700  144.0920 C   0  0  0  0  0  2  0  0  0  0  0  0
  183.7930  178.9720  142.9970 C   0  0  2  0  0  3  0  0  0  0  0  0
  184.5790  179.9870  143.5850 O   0  0  0  0  0  0  0  0  0  0  0  0
  184.6250  178.7260  144.2050 C   0  0  2  0  0  0  0  0  0  0  0  0
  183.9060  178.7320  145.5390 C   0  0  0  0  0  1  0  0  0  0  0  0
  184.4510  178.5230  141.6990 C   0  0  0  0  0  2  0  0  0  0  0  0
  183.5270  178.7740  140.5180 C   0  0  2  0  0  3  0  0  0  0  0  0
  183.3060  177.4680  139.7800 C   0  0  0  0  0  1  0  0  0  0  0  0
  183.0520  180.1440  138.8440 C   0  0  0  0  0  1  0  0  0  0  0  0
  184.1040  179.7030  139.6500 O   0  0  0  0  0  0  0  0  0  0  0  0
  1  2  1  0  0  0  0
  1  3  1  1  0  0  0
  4  7  1  1  0  0  0
  4  6  1  0  0  0  0
  5  2  1  0  0  0  0
  6 19  1  6  0  0  0
  6  1  1  0  0  0  0
  7  5  2  0  0  0  0
  8 10  1  0  0  0  0
  9  8  2  0  0  0  0
  9 14  1  0  0  0  0
 10 13  1  0  0  0  0
 11 14  2  0  0  0  0
 13 15  1  0  0  0  0
 14 12  1  0  0  0  0
 15 12  1  6  0  0  0
 15  4  1  0  0  0  0
 16 17  1  0  0  0  0
 17 11  1  0  0  0  0
 18 17  2  0  0  0  0
 20 19  1  0  0  0  0
 21 24  1  0  0  0  0
 21 20  1  0  0  0  0
 22 26  1  6  0  0  0
 22 23  1  0  0  0  0
 22 24  1  0  0  0  0
 23 24  1  0  0  0  0
 24 25  1  1  0  0  0
 27 28  1  6  0  0  0
 27 26  1  0  0  0  0
 29 30  1  0  0  0  0
 30 27  1  0  0  0  0
M  END
>  <MODEL>
2

>  <REMARK>
 VINA RESULT:      -8.5      2.094      4.012
  Name = 
  9 active torsions:
  status: ('A' for Active; 'I' for Inactive)
    1  A    between atoms: C_1  and  C_4
    2  A    between atoms: C_1  and  C_5
    3  A    between atoms: C_4  and  C_27
    4  A    between atoms: C_5  and  C_22
    5  A    between atoms: C_8  and  C_12
    6  A    between atoms: C_9  and  C_12
    7  A    between atoms: C_9  and  O_21
    8  A    between atoms: C_15  and  C_16
    9  A    between atoms: C_19  and  C_29
                            x       y       z     vdW  Elec       q    Type
                         _______ _______ _______ _____ _____    ______ ____

>  <TORSDO>
F 9

$$$$
=
 OpenBabel10262421473D

 30 32  0  0  1  0  0  0  0  0999 V2000
  188.3560  177.1620  147.5430 C   0  0  1  0  0  3  0  0  0  0  0  0
  189.6660  177.3580  148.0680 O   0  0  0  0  0  0  0  0  0  0  0  0
  187.4430  177.8400  148.3300 F   0  0  0  0  0  0  0  0  0  0  0  0
  189.3880  176.9750  145.2400 C   0  0  2  0  0  3  0  0  0  0  0  0
  190.8080  177.1980  147.2810 C   0  0  0  0  0  3  0  0  0  0  0  0
  188.2700  177.6360  146.0900 C   0  0  1  0  0  3  0  0  0  0  0  0
  190.7150  177.0300  145.9640 C   0  0  0  0  0  3  0  0  0  0  0  0
  192.0060  177.3770  141.7170 C   0  0  0  0  0  3  0  0  0  0  0  0
  190.9620  177.2370  140.8940 C   0  0  0  0  0  3  0  0  0  0  0  0
  191.8850  177.5930  143.0960 O   0  0  0  0  0  0  0  0  0  0  0  0
  188.5130  177.4040  140.5890 C   0  0  0  0  0  3  0  0  0  0  0  0
  189.3140  176.5700  142.7270 C   0  0  0  0  0  2  0  0  0  0  0  0
  190.8360  178.3860  143.6510 C   0  0  0  0  0  2  0  0  0  0  0  0
  189.5680  177.1190  141.3610 C   0  0  0  0  0  0  0  0  0  0  0  0
  189.5190  177.6080  143.8330 C   0  0  2  0  0  3  0  0  0  0  0  0
  188.8250  179.1160  138.9500 O   0  0  0  0  0  1  0  0  0  0  0  0
  188.5450  177.9150  139.2070 C   0  0  0  0  0  0  0  0  0  0  0  0
  188.2570  177.0470  138.1630 O   0  0  0  0  0  0  0  0  0  0  0  0
  186.8890  177.2740  145.5650 C   0  0  0  0  0  2  0  0  0  0  0  0
  186.2150  178.5080  145.0030 C   0  0  0  0  0  2  0  0  0  0  0  0
  185.5530  178.1550  143.6860 C   0  0  0  0  0  2  0  0  0  0  0  0
  183.3510  178.6850  142.3650 C   0  0  2  0  0  3  0  0  0  0  0  0
  183.9890  179.8390  142.8720 O   0  0  0  0  0  0  0  0  0  0  0  0
  184.1170  178.6680  143.6390 C   0  0  2  0  0  0  0  0  0  0  0  0
  183.3090  178.7480  144.9190 C   0  0  0  0  0  1  0  0  0  0  0  0
  184.1400  178.1650  141.1700 C   0  0  0  0  0  2  0  0  0  0  0  0
  184.2520  179.2360  140.0980 C   0  0  2  0  0  3  0  0  0  0  0  0
  182.9880  179.2280  139.2600 C   0  0  0  0  0  1  0  0  0  0  0  0
  184.8800  178.0780  138.3170 C   0  0  0  0  0  1  0  0  0  0  0  0
  185.3520  178.9760  139.2760 O   0  0  0  0  0  0  0  0  0  0  0  0
  1  2  1  0  0  0  0
  1  3  1  1  0  0  0
  4  7  1  1  0  0  0
  4  6  1  0  0  0  0
  5  2  1  0  0  0  0
  6 19  1  6  0  0  0
  6  1  1  0  0  0  0
  7  5  2  0  0  0  0
  8 10  1  0  0  0  0
  9 14  1  0  0  0  0
  9  8  2  0  0  0  0
 10 13  1  0  0  0  0
 11 14  2  0  0  0  0
 13 15  1  0  0  0  0
 14 12  1  0  0  0  0
 15 12  1  6  0  0  0
 15  4  1  0  0  0  0
 16 17  1  0  0  0  0
 17 11  1  0  0  0  0
 18 17  2  0  0  0  0
 20 19  1  0  0  0  0
 21 20  1  0  0  0  0
 22 26  1  6  0  0  0
 22 23  1  0  0  0  0
 22 24  1  0  0  0  0
 23 24  1  0  0  0  0
 24 21  1  0  0  0  0
 24 25  1  1  0  0  0
 27 28  1  6  0  0  0
 27 26  1  0  0  0  0
 29 30  1  0  0  0  0
 30 27  1  0  0  0  0
M  END
>  <MODEL>
3

>  <REMARK>
 VINA RESULT:      -8.4      1.994      3.340
  Name = 
  9 active torsions:
  status: ('A' for Active; 'I' for Inactive)
    1  A    between atoms: C_1  and  C_4
    2  A    between atoms: C_1  and  C_5
    3  A    between atoms: C_4  and  C_27
    4  A    between atoms: C_5  and  C_22
    5  A    between atoms: C_8  and  C_12
    6  A    between atoms: C_9  and  C_12
    7  A    between atoms: C_9  and  O_21
    8  A    between atoms: C_15  and  C_16
    9  A    between atoms: C_19  and  C_29
                            x       y       z     vdW  Elec       q    Type
                         _______ _______ _______ _____ _____    ______ ____

>  <TORSDO>
F 9

$$$$
=
 OpenBabel10262421473D

 30 32  0  0  1  0  0  0  0  0999 V2000
  187.2600  177.5240  147.1200 C   0  0  1  0  0  3  0  0  0  0  0  0
  188.4520  177.7070  147.8800 O   0  0  0  0  0  0  0  0  0  0  0  0
  186.2350  178.2510  147.6980 F   0  0  0  0  0  0  0  0  0  0  0  0
  188.7040  177.2330  145.0640 C   0  0  2  0  0  3  0  0  0  0  0  0
  189.7180  177.4930  147.3310 C   0  0  0  0  0  3  0  0  0  0  0  0
  187.4660  177.9500  145.6640 C   0  0  1  0  0  3  0  0  0  0  0  0
  189.8710  177.2810  146.0250 C   0  0  0  0  0  3  0  0  0  0  0  0
  191.9110  177.3540  142.0400 C   0  0  0  0  0  3  0  0  0  0  0  0
  191.0160  177.2570  141.0510 C   0  0  0  0  0  3  0  0  0  0  0  0
  191.5700  177.6180  143.3730 O   0  0  0  0  0  0  0  0  0  0  0  0
  188.6740  177.5780  140.3240 C   0  0  0  0  0  3  0  0  0  0  0  0
  189.0350  176.7570  142.5830 C   0  0  0  0  0  2  0  0  0  0  0  0
  190.5000  178.4950  143.7240 C   0  0  0  0  0  2  0  0  0  0  0  0
  189.5580  177.2470  141.2720 C   0  0  0  0  0  0  0  0  0  0  0  0
  189.1200  177.8130  143.6890 C   0  0  2  0  0  3  0  0  0  0  0  0
  189.0080  179.2680  138.6680 O   0  0  0  0  0  1  0  0  0  0  0  0
  188.9790  178.0440  138.9590 C   0  0  0  0  0  0  0  0  0  0  0  0
  189.2380  177.1040  137.9710 O   0  0  0  0  0  0  0  0  0  0  0  0
  186.2000  177.6020  144.8970 C   0  0  0  0  0  2  0  0  0  0  0  0
  185.5050  178.8730  144.4530 C   0  0  0  0  0  2  0  0  0  0  0  0
  184.2220  178.5100  143.7320 C   0  0  0  0  0  2  0  0  0  0  0  0
  183.1620  178.8880  141.3640 C   0  0  2  0  0  3  0  0  0  0  0  0
  183.8330  177.6520  141.4830 O   0  0  0  0  0  0  0  0  0  0  0  0
  184.3610  178.7220  142.2270 C   0  0  2  0  0  0  0  0  0  0  0  0
  185.6810  179.2010  141.6570 C   0  0  0  0  0  1  0  0  0  0  0  0
  181.8440  178.8150  142.1250 C   0  0  0  0  0  2  0  0  0  0  0  0
  180.7000  179.3180  141.2610 C   0  0  2  0  0  3  0  0  0  0  0  0
  181.2110  179.5460  139.8520 C   0  0  0  0  0  1  0  0  0  0  0  0
  179.5270  180.1620  142.9390 C   0  0  0  0  0  1  0  0  0  0  0  0
  180.2070  180.5200  141.7730 O   0  0  0  0  0  0  0  0  0  0  0  0
  1  3  1  1  0  0  0
  1  2  1  0  0  0  0
  4  6  1  0  0  0  0
  4  7  1  1  0  0  0
  5  2  1  0  0  0  0
  6 19  1  6  0  0  0
  6  1  1  0  0  0  0
  7  5  2  0  0  0  0
  8 10  1  0  0  0  0
  9 14  1  0  0  0  0
  9  8  2  0  0  0  0
 10 13  1  0  0  0  0
 11 14  2  0  0  0  0
 14 12  1  0  0  0  0
 15 12  1  6  0  0  0
 15 13  1  0  0  0  0
 15  4  1  0  0  0  0
 16 17  1  0  0  0  0
 17 11  1  0  0  0  0
 18 17  2  0  0  0  0
 20 19  1  0  0  0  0
 21 20  1  0  0  0  0
 22 23  1  0  0  0  0
 22 26  1  1  0  0  0
 22 24  1  0  0  0  0
 23 24  1  0  0  0  0
 24 25  1  6  0  0  0
 24 21  1  0  0  0  0
 27 28  1  6  0  0  0
 27 30  1  0  0  0  0
 27 26  1  0  0  0  0
 30 29  1  0  0  0  0
M  END
>  <MODEL>
4

>  <REMARK>
 VINA RESULT:      -8.4      2.165      4.090
  Name = 
  9 active torsions:
  status: ('A' for Active; 'I' for Inactive)
    1  A    between atoms: C_1  and  C_4
    2  A    between atoms: C_1  and  C_5
    3  A    between atoms: C_4  and  C_27
    4  A    between atoms: C_5  and  C_22
    5  A    between atoms: C_8  and  C_12
    6  A    between atoms: C_9  and  C_12
    7  A    between atoms: C_9  and  O_21
    8  A    between atoms: C_15  and  C_16
    9  A    between atoms: C_19  and  C_29
                            x       y       z     vdW  Elec       q    Type
                         _______ _______ _______ _____ _____    ______ ____

>  <TORSDO>
F 9

$$$$
=
 OpenBabel10262421473D

 30 32  0  0  1  0  0  0  0  0999 V2000
  184.9770  178.4370  146.0310 C   0  0  1  0  0  3  0  0  0  0  0  0
  185.5370  178.8360  147.2790 O   0  0  0  0  0  0  0  0  0  0  0  0
  183.9500  179.3000  145.6940 F   0  0  0  0  0  0  0  0  0  0  0  0
  187.2570  177.5570  145.3760 C   0  0  2  0  0  3  0  0  0  0  0  0
  186.8290  178.4710  147.6590 C   0  0  0  0  0  3  0  0  0  0  0  0
  186.0430  178.4170  144.9320 C   0  0  1  0  0  3  0  0  0  0  0  0
  187.6580  177.8860  146.7970 C   0  0  0  0  0  3  0  0  0  0  0  0
  191.4510  176.3790  144.7030 C   0  0  0  0  0  3  0  0  0  0  0  0
  191.2210  176.2110  143.3970 C   0  0  0  0  0  3  0  0  0  0  0  0
  190.5550  177.0110  145.5750 O   0  0  0  0  0  0  0  0  0  0  0  0
  189.8050  176.7610  141.4450 C   0  0  0  0  0  3  0  0  0  0  0  0
  188.6850  176.4520  143.5790 C   0  0  0  0  0  2  0  0  0  0  0  0
  189.7570  178.1230  145.1700 C   0  0  0  0  0  2  0  0  0  0  0  0
  189.9290  176.5140  142.7540 C   0  0  0  0  0  0  0  0  0  0  0  0
  188.4720  177.7080  144.4280 C   0  0  2  0  0  3  0  0  0  0  0  0
  191.8710  177.6090  140.5920 O   0  0  0  0  0  1  0  0  0  0  0  0
  190.8940  176.8260  140.4540 C   0  0  0  0  0  0  0  0  0  0  0  0
  190.8380  176.0000  139.3390 O   0  0  0  0  0  0  0  0  0  0  0  0
  185.4000  177.8580  143.6730 C   0  0  0  0  0  2  0  0  0  0  0  0
  185.1520  178.9790  142.6850 C   0  0  0  0  0  2  0  0  0  0  0  0
  183.6800  179.0030  142.3220 C   0  0  0  0  0  2  0  0  0  0  0  0
  182.1150  178.6650  140.2450 C   0  0  2  0  0  3  0  0  0  0  0  0
  182.8590  177.5110  140.5760 O   0  0  0  0  0  0  0  0  0  0  0  0
  183.4800  178.7470  140.8300 C   0  0  2  0  0  0  0  0  0  0  0  0
  184.6200  179.0080  139.8660 C   0  0  0  0  0  1  0  0  0  0  0  0
  180.9990  178.8480  141.2650 C   0  0  0  0  0  2  0  0  0  0  0  0
  180.0820  177.6360  141.2750 C   0  0  2  0  0  3  0  0  0  0  0  0
  179.0280  177.8090  140.1990 C   0  0  0  0  0  1  0  0  0  0  0  0
  180.0310  178.5230  143.3040 C   0  0  0  0  0  1  0  0  0  0  0  0
  179.4580  177.5200  142.5190 O   0  0  0  0  0  0  0  0  0  0  0  0
  1  3  1  6  0  0  0
  1  2  1  0  0  0  0
  2  5  1  0  0  0  0
  4  7  1  1  0  0  0
  6 19  1  6  0  0  0
  6  4  1  0  0  0  0
  6  1  1  0  0  0  0
  7  5  2  0  0  0  0
  8 10  1  0  0  0  0
  9  8  2  0  0  0  0
 11 14  2  0  0  0  0
 13 10  1  0  0  0  0
 14  9  1  0  0  0  0
 14 12  1  0  0  0  0
 15 12  1  1  0  0  0
 15 13  1  0  0  0  0
 15  4  1  0  0  0  0
 17 16  1  0  0  0  0
 17 11  1  0  0  0  0
 18 17  2  0  0  0  0
 20 19  1  0  0  0  0
 21 20  1  0  0  0  0
 22 23  1  0  0  0  0
 22 24  1  0  0  0  0
 22 26  1  1  0  0  0
 23 24  1  0  0  0  0
 24 25  1  6  0  0  0
 24 21  1  0  0  0  0
 26 27  1  0  0  0  0
 27 28  1  6  0  0  0
 27 30  1  0  0  0  0
 30 29  1  0  0  0  0
M  END
>  <MODEL>
5

>  <REMARK>
 VINA RESULT:      -8.0      1.932      3.824
  Name = 
  9 active torsions:
  status: ('A' for Active; 'I' for Inactive)
    1  A    between atoms: C_1  and  C_4
    2  A    between atoms: C_1  and  C_5
    3  A    between atoms: C_4  and  C_27
    4  A    between atoms: C_5  and  C_22
    5  A    between atoms: C_8  and  C_12
    6  A    between atoms: C_9  and  C_12
    7  A    between atoms: C_9  and  O_21
    8  A    between atoms: C_15  and  C_16
    9  A    between atoms: C_19  and  C_29
                            x       y       z     vdW  Elec       q    Type
                         _______ _______ _______ _____ _____    ______ ____

>  <TORSDO>
F 9

$$$$
=
 OpenBabel10262421473D

 30 32  0  0  1  0  0  0  0  0999 V2000
  188.5230  178.0310  139.4290 C   0  0  1  0  0  3  0  0  0  0  0  0
  189.5370  177.1990  138.8720 O   0  0  0  0  0  0  0  0  0  0  0  0
  187.3570  177.8800  138.6990 F   0  0  0  0  0  0  0  0  0  0  0  0
  189.6190  177.7280  141.6880 C   0  0  2  0  0  3  0  0  0  0  0  0
  190.6450  176.7880  139.6160 C   0  0  0  0  0  3  0  0  0  0  0  0
  188.2820  177.6920  140.9020 C   0  0  1  0  0  3  0  0  0  0  0  0
  190.7100  177.0070  140.9270 C   0  0  0  0  0  3  0  0  0  0  0  0
  191.8620  176.1940  145.1600 C   0  0  0  0  0  3  0  0  0  0  0  0
  191.0490  176.8400  146.0020 C   0  0  0  0  0  3  0  0  0  0  0  0
  191.5960  176.0320  143.7940 O   0  0  0  0  0  0  0  0  0  0  0  0
  188.8360  177.8810  146.3730 C   0  0  0  0  0  3  0  0  0  0  0  0
  189.8520  178.1770  144.1850 C   0  0  0  0  0  2  0  0  0  0  0  0
  190.2730  175.8310  143.2960 C   0  0  0  0  0  2  0  0  0  0  0  0
  189.8660  177.6040  145.5650 C   0  0  0  0  0  0  0  0  0  0  0  0
  189.4870  177.1430  143.1160 C   0  0  2  0  0  3  0  0  0  0  0  0
  188.0890  176.3760  148.0730 O   0  0  0  0  0  0  0  0  0  0  0  0
  188.6740  177.4500  147.7730 C   0  0  0  0  0  0  0  0  0  0  0  0
  189.1810  178.2530  148.7860 O   0  0  0  0  0  1  0  0  0  0  0  0
  187.2890  178.7030  141.4540 C   0  0  0  0  0  2  0  0  0  0  0  0
  186.4420  178.0540  142.5290 C   0  0  0  0  0  2  0  0  0  0  0  0
  185.0570  178.6710  142.5090 C   0  0  0  0  0  2  0  0  0  0  0  0
  183.0690  179.0010  144.1870 C   0  0  2  0  0  3  0  0  0  0  0  0
  183.9160  180.1270  144.0970 O   0  0  0  0  0  0  0  0  0  0  0  0
  184.5270  178.8740  143.9260 C   0  0  2  0  0  0  0  0  0  0  0  0
  185.4010  178.5120  145.1110 C   0  0  0  0  0  1  0  0  0  0  0  0
  182.2130  178.9200  142.9290 C   0  0  0  0  0  2  0  0  0  0  0  0
  180.7940  179.3800  143.2190 C   0  0  2  0  0  3  0  0  0  0  0  0
  180.0650  178.2810  143.9670 C   0  0  0  0  0  1  0  0  0  0  0  0
  180.2340  178.4710  141.2790 C   0  0  0  0  0  1  0  0  0  0  0  0
  180.1250  179.6470  142.0230 O   0  0  0  0  0  0  0  0  0  0  0  0
  1  3  1  6  0  0  0
  1  6  1  0  0  0  0
  2  1  1  0  0  0  0
  2  5  1  0  0  0  0
  4  7  1  6  0  0  0
  4 15  1  0  0  0  0
  5  7  2  0  0  0  0
  6 19  1  1  0  0  0
  6  4  1  0  0  0  0
  8  9  2  0  0  0  0
 10  8  1  0  0  0  0
 11 17  1  0  0  0  0
 12 14  1  0  0  0  0
 13 10  1  0  0  0  0
 14  9  1  0  0  0  0
 14 11  2  0  0  0  0
 15 13  1  6  0  0  0
 15 12  1  0  0  0  0
 17 16  2  0  0  0  0
 17 18  1  0  0  0  0
 19 20  1  0  0  0  0
 21 20  1  0  0  0  0
 21 24  1  0  0  0  0
 22 26  1  6  0  0  0
 23 22  1  0  0  0  0
 24 23  1  0  0  0  0
 24 22  1  0  0  0  0
 24 25  1  1  0  0  0
 26 27  1  0  0  0  0
 27 28  1  6  0  0  0
 29 30  1  0  0  0  0
 30 27  1  0  0  0  0
M  END
>  <MODEL>
6

>  <REMARK>
 VINA RESULT:      -7.9      2.747      6.289
  Name = 
  9 active torsions:
  status: ('A' for Active; 'I' for Inactive)
    1  A    between atoms: C_1  and  C_4
    2  A    between atoms: C_1  and  C_5
    3  A    between atoms: C_4  and  C_27
    4  A    between atoms: C_5  and  C_22
    5  A    between atoms: C_8  and  C_12
    6  A    between atoms: C_9  and  C_12
    7  A    between atoms: C_9  and  O_21
    8  A    between atoms: C_15  and  C_16
    9  A    between atoms: C_19  and  C_29
                            x       y       z     vdW  Elec       q    Type
                         _______ _______ _______ _____ _____    ______ ____

>  <TORSDO>
F 9

$$$$
=
 OpenBabel10262421473D

 30 32  0  0  1  0  0  0  0  0999 V2000
  189.9440  177.4570  146.6420 C   0  0  1  0  0  3  0  0  0  0  0  0
  189.3740  177.2110  147.9240 O   0  0  0  0  0  0  0  0  0  0  0  0
  190.9850  176.5720  146.4270 F   0  0  0  0  0  0  0  0  0  0  0  0
  187.6630  178.2190  145.8570 C   0  0  2  0  0  3  0  0  0  0  0  0
  188.0720  177.6040  148.2410 C   0  0  0  0  0  3  0  0  0  0  0  0
  188.8910  177.3250  145.5380 C   0  0  1  0  0  3  0  0  0  0  0  0
  187.2480  178.0650  147.3030 C   0  0  0  0  0  3  0  0  0  0  0  0
  183.4200  179.1350  145.0870 C   0  0  0  0  0  3  0  0  0  0  0  0
  183.6490  179.2100  143.7720 C   0  0  0  0  0  3  0  0  0  0  0  0
  184.3410  178.6190  146.0080 O   0  0  0  0  0  0  0  0  0  0  0  0
  185.0990  178.5760  141.8710 C   0  0  0  0  0  3  0  0  0  0  0  0
  186.1920  179.1070  143.9760 C   0  0  0  0  0  2  0  0  0  0  0  0
  185.1940  177.5180  145.6940 C   0  0  0  0  0  2  0  0  0  0  0  0
  184.9570  178.9200  143.1560 C   0  0  0  0  0  0  0  0  0  0  0  0
  186.4610  177.9340  144.9220 C   0  0  2  0  0  3  0  0  0  0  0  0
  183.6170  179.3170  140.1480 O   0  0  0  0  0  0  0  0  0  0  0  0
  184.0190  178.3800  140.8880 C   0  0  0  0  0  0  0  0  0  0  0  0
  183.4300  177.1280  140.7770 O   0  0  0  0  0  1  0  0  0  0  0  0
  189.5430  177.7300  144.2250 C   0  0  0  0  0  2  0  0  0  0  0  0
  189.4550  176.5850  143.2370 C   0  0  0  0  0  2  0  0  0  0  0  0
  188.8900  177.1030  141.9280 C   0  0  0  0  0  2  0  0  0  0  0  0
  189.6920  177.8460  139.5450 C   0  0  2  0  0  3  0  0  0  0  0  0
  189.8920  176.4710  139.7960 O   0  0  0  0  0  0  0  0  0  0  0  0
  190.0000  177.3290  140.9040 C   0  0  2  0  0  0  0  0  0  0  0  0
  191.4350  177.4590  141.3730 C   0  0  0  0  0  1  0  0  0  0  0  0
  188.2080  178.0980  139.3070 C   0  0  0  0  0  2  0  0  0  0  0  0
  187.9180  178.2070  137.8190 C   0  0  2  0  0  3  0  0  0  0  0  0
  189.0120  179.0250  137.1630 C   0  0  0  0  0  1  0  0  0  0  0  0
  185.7370  177.8220  137.7660 C   0  0  0  0  0  1  0  0  0  0  0  0
  186.6870  178.8350  137.6180 O   0  0  0  0  0  0  0  0  0  0  0  0
  1  3  1  6  0  0  0
  1  2  1  0  0  0  0
  2  5  1  0  0  0  0
  4  7  1  1  0  0  0
  6 19  1  6  0  0  0
  6  4  1  0  0  0  0
  6  1  1  0  0  0  0
  7  5  2  0  0  0  0
  8 10  1  0  0  0  0
  9  8  2  0  0  0  0
 11 14  2  0  0  0  0
 13 10  1  0  0  0  0
 14  9  1  0  0  0  0
 14 12  1  0  0  0  0
 15 12  1  1  0  0  0
 15 13  1  0  0  0  0
 15  4  1  0  0  0  0
 16 17  2  0  0  0  0
 17 11  1  0  0  0  0
 18 17  1  0  0  0  0
 20 19  1  0  0  0  0
 21 20  1  0  0  0  0
 22 26  1  1  0  0  0
 22 23  1  0  0  0  0
 22 24  1  0  0  0  0
 23 24  1  0  0  0  0
 24 25  1  1  0  0  0
 24 21  1  0  0  0  0
 27 28  1  6  0  0  0
 27 26  1  0  0  0  0
 30 29  1  0  0  0  0
 30 27  1  0  0  0  0
M  END
>  <MODEL>
7

>  <REMARK>
 VINA RESULT:      -7.9      2.010      5.178
  Name = 
  9 active torsions:
  status: ('A' for Active; 'I' for Inactive)
    1  A    between atoms: C_1  and  C_4
    2  A    between atoms: C_1  and  C_5
    3  A    between atoms: C_4  and  C_27
    4  A    between atoms: C_5  and  C_22
    5  A    between atoms: C_8  and  C_12
    6  A    between atoms: C_9  and  C_12
    7  A    between atoms: C_9  and  O_21
    8  A    between atoms: C_15  and  C_16
    9  A    between atoms: C_19  and  C_29
                            x       y       z     vdW  Elec       q    Type
                         _______ _______ _______ _____ _____    ______ ____

>  <TORSDO>
F 9

$$$$
=
 OpenBabel10262421473D

 30 32  0  0  1  0  0  0  0  0999 V2000
  182.4530  178.6340  141.9710 C   0  0  1  0  0  3  0  0  0  0  0  0
  181.6430  179.2300  142.9810 O   0  0  0  0  0  0  0  0  0  0  0  0
  182.1640  179.2170  140.7510 F   0  0  0  0  0  0  0  0  0  0  0  0
  184.2330  178.2540  143.7280 C   0  0  2  0  0  3  0  0  0  0  0  0
  182.0000  179.1940  144.3300 C   0  0  0  0  0  3  0  0  0  0  0  0
  183.9410  178.7850  142.3000 C   0  0  1  0  0  3  0  0  0  0  0  0
  183.1990  178.7570  144.7110 C   0  0  0  0  0  3  0  0  0  0  0  0
  187.0960  177.8410  147.0550 C   0  0  0  0  0  3  0  0  0  0  0  0
  188.1000  177.6280  146.1980 C   0  0  0  0  0  3  0  0  0  0  0  0
  185.8310  178.3060  146.6710 O   0  0  0  0  0  0  0  0  0  0  0  0
  188.9690  177.9070  143.9000 C   0  0  0  0  0  3  0  0  0  0  0  0
  186.6020  177.4140  144.1410 C   0  0  0  0  0  2  0  0  0  0  0  0
  185.6590  179.2560  145.6190 C   0  0  0  0  0  2  0  0  0  0  0  0
  187.9450  177.6920  144.7330 C   0  0  0  0  0  0  0  0  0  0  0  0
  185.6570  178.6150  144.2180 C   0  0  2  0  0  3  0  0  0  0  0  0
  190.9050  179.2910  144.1230 O   0  0  0  0  0  0  0  0  0  0  0  0
  190.3720  178.1610  144.2750 C   0  0  0  0  0  0  0  0  0  0  0  0
  191.1230  177.1220  144.8080 O   0  0  0  0  0  1  0  0  0  0  0  0
  184.7270  178.0140  141.2520 C   0  0  0  0  0  2  0  0  0  0  0  0
  185.6390  178.9600  140.4980 C   0  0  0  0  0  2  0  0  0  0  0  0
  187.0590  178.4300  140.5550 C   0  0  0  0  0  2  0  0  0  0  0  0
  188.9740  177.6280  138.9540 C   0  0  2  0  0  3  0  0  0  0  0  0
  188.6760  179.0020  138.8220 O   0  0  0  0  0  0  0  0  0  0  0  0
  187.6000  178.1600  139.1540 C   0  0  2  0  0  0  0  0  0  0  0  0
  186.6350  178.0050  137.9960 C   0  0  0  0  0  1  0  0  0  0  0  0
  189.7400  177.4070  140.2520 C   0  0  0  0  0  2  0  0  0  0  0  0
  191.0750  176.7340  139.9760 C   0  0  2  0  0  3  0  0  0  0  0  0
  192.1780  177.5470  140.6250 C   0  0  0  0  0  1  0  0  0  0  0  0
  192.6840  176.5360  138.4670 C   0  0  0  0  0  1  0  0  0  0  0  0
  191.3000  176.6670  138.5990 O   0  0  0  0  0  0  0  0  0  0  0  0
  1  3  1  6  0  0  0
  1  6  1  0  0  0  0
  1  2  1  0  0  0  0
  2  5  1  0  0  0  0
  4 15  1  0  0  0  0
  4  7  1  1  0  0  0
  5  7  2  0  0  0  0
  6 19  1  6  0  0  0
  6  4  1  0  0  0  0
  9  8  2  0  0  0  0
 10  8  1  0  0  0  0
 11 17  1  0  0  0  0
 11 14  2  0  0  0  0
 12 14  1  0  0  0  0
 13 10  1  0  0  0  0
 14  9  1  0  0  0  0
 15 12  1  1  0  0  0
 15 13  1  0  0  0  0
 16 17  2  0  0  0  0
 17 18  1  0  0  0  0
 20 21  1  0  0  0  0
 20 19  1  0  0  0  0
 22 24  1  0  0  0  0
 22 26  1  1  0  0  0
 23 22  1  0  0  0  0
 23 24  1  0  0  0  0
 24 25  1  6  0  0  0
 24 21  1  0  0  0  0
 27 26  1  0  0  0  0
 27 28  1  1  0  0  0
 29 30  1  0  0  0  0
 30 27  1  0  0  0  0
M  END
>  <MODEL>
8

>  <REMARK>
 VINA RESULT:      -7.8      1.969      4.255
  Name = 
  9 active torsions:
  status: ('A' for Active; 'I' for Inactive)
    1  A    between atoms: C_1  and  C_4
    2  A    between atoms: C_1  and  C_5
    3  A    between atoms: C_4  and  C_27
    4  A    between atoms: C_5  and  C_22
    5  A    between atoms: C_8  and  C_12
    6  A    between atoms: C_9  and  C_12
    7  A    between atoms: C_9  and  O_21
    8  A    between atoms: C_15  and  C_16
    9  A    between atoms: C_19  and  C_29
                            x       y       z     vdW  Elec       q    Type
                         _______ _______ _______ _____ _____    ______ ____

>  <TORSDO>
F 9

$$$$
=
 OpenBabel10262421473D

 30 32  0  0  1  0  0  0  0  0999 V2000
  184.8460  178.4920  145.8920 C   0  0  1  0  0  3  0  0  0  0  0  0
  185.3840  178.9270  147.1380 O   0  0  0  0  0  0  0  0  0  0  0  0
  183.8200  179.3410  145.5170 F   0  0  0  0  0  0  0  0  0  0  0  0
  187.1390  177.6060  145.2960 C   0  0  2  0  0  3  0  0  0  0  0  0
  186.6730  178.5790  147.5470 C   0  0  0  0  0  3  0  0  0  0  0  0
  185.9290  178.4480  144.8110 C   0  0  1  0  0  3  0  0  0  0  0  0
  187.5170  177.9750  146.7140 C   0  0  0  0  0  3  0  0  0  0  0  0
  191.3260  176.3710  144.6810 C   0  0  0  0  0  3  0  0  0  0  0  0
  191.1100  176.2010  143.3720 C   0  0  0  0  0  3  0  0  0  0  0  0
  190.4270  177.0170  145.5390 O   0  0  0  0  0  0  0  0  0  0  0  0
  189.7270  176.7630  141.4000 C   0  0  0  0  0  3  0  0  0  0  0  0
  188.5750  176.4760  143.5220 C   0  0  0  0  0  2  0  0  0  0  0  0
  189.6490  178.1380  145.1210 C   0  0  0  0  0  2  0  0  0  0  0  0
  189.8300  176.5180  142.7120 C   0  0  0  0  0  0  0  0  0  0  0  0
  188.3690  177.7380  144.3630 C   0  0  2  0  0  3  0  0  0  0  0  0
  191.8270  177.5610  140.5850 O   0  0  0  0  0  1  0  0  0  0  0  0
  190.8300  176.8090  140.4230 C   0  0  0  0  0  0  0  0  0  0  0  0
  190.7620  176.0030  139.2950 O   0  0  0  0  0  0  0  0  0  0  0  0
  185.3080  177.8530  143.5570 C   0  0  0  0  0  2  0  0  0  0  0  0
  185.2170  178.9130  142.4790 C   0  0  0  0  0  2  0  0  0  0  0  0
  183.7830  179.0050  141.9950 C   0  0  0  0  0  2  0  0  0  0  0  0
  182.3330  178.3290  139.9180 C   0  0  2  0  0  3  0  0  0  0  0  0
  183.0970  177.2600  140.4350 O   0  0  0  0  0  0  0  0  0  0  0  0
  183.6640  178.5420  140.5450 C   0  0  2  0  0  0  0  0  0  0  0  0
  184.8400  178.7160  139.6050 C   0  0  0  0  0  1  0  0  0  0  0  0
  181.1630  178.6040  140.8540 C   0  0  0  0  0  2  0  0  0  0  0  0
  180.1270  179.4810  140.1700 C   0  0  2  0  0  3  0  0  0  0  0  0
  180.5620  179.7300  138.7390 C   0  0  0  0  0  1  0  0  0  0  0  0
  179.6800  181.6260  139.8480 C   0  0  0  0  0  1  0  0  0  0  0  0
  180.0180  180.7020  140.8390 O   0  0  0  0  0  0  0  0  0  0  0  0
  1  3  1  6  0  0  0
  1  2  1  0  0  0  0
  2  5  1  0  0  0  0
  4  7  1  1  0  0  0
  6 19  1  6  0  0  0
  6  4  1  0  0  0  0
  6  1  1  0  0  0  0
  7  5  2  0  0  0  0
  8 10  1  0  0  0  0
  9  8  2  0  0  0  0
 11 14  2  0  0  0  0
 13 10  1  0  0  0  0
 14  9  1  0  0  0  0
 14 12  1  0  0  0  0
 15 12  1  1  0  0  0
 15 13  1  0  0  0  0
 15  4  1  0  0  0  0
 17 16  1  0  0  0  0
 17 11  1  0  0  0  0
 18 17  2  0  0  0  0
 20 19  1  0  0  0  0
 21 20  1  0  0  0  0
 22 23  1  0  0  0  0
 22 24  1  0  0  0  0
 22 26  1  1  0  0  0
 23 24  1  0  0  0  0
 24 25  1  6  0  0  0
 24 21  1  0  0  0  0
 27 28  1  6  0  0  0
 27 30  1  0  0  0  0
 27 26  1  0  0  0  0
 29 30  1  0  0  0  0
M  END
>  <MODEL>
9

>  <REMARK>
 VINA RESULT:      -7.8      1.735      3.455
  Name = 
  9 active torsions:
  status: ('A' for Active; 'I' for Inactive)
    1  A    between atoms: C_1  and  C_4
    2  A    between atoms: C_1  and  C_5
    3  A    between atoms: C_4  and  C_27
    4  A    between atoms: C_5  and  C_22
    5  A    between atoms: C_8  and  C_12
    6  A    between atoms: C_9  and  C_12
    7  A    between atoms: C_9  and  O_21
    8  A    between atoms: C_15  and  C_16
    9  A    between atoms: C_19  and  C_29
                            x       y       z     vdW  Elec       q    Type
                         _______ _______ _______ _____ _____    ______ ____

>  <TORSDO>
F 9

$$$$
