=
 OpenBabel10262419593D

 27 31  0  0  1  0  0  0  0  0999 V2000
  187.6880  176.6110  142.9120 C   0  0  0  0  0  2  0  0  0  0  0  0
  188.9760  177.5410  141.0230 C   0  0  0  0  0  0  0  0  0  0  0  0
  186.7500  178.6350  140.9350 N   0  0  0  0  0  2  0  0  0  0  0  0
  189.3090  177.9000  136.9260 N   0  0  0  0  0  0  0  0  0  0  0  0
  187.4890  177.3450  135.4940 N   0  0  0  0  0  1  0  0  0  0  0  0
  190.1470  177.0770  140.3070 N   0  0  0  0  0  0  0  0  0  0  0  0
  187.2670  178.0110  137.9390 C   0  0  1  0  0  3  0  0  0  0  0  0
  184.6690  179.4750  143.9030 C   0  0  0  0  0  0  0  0  0  0  0  0
  185.8340  177.6480  138.1350 C   0  0  0  0  0  1  0  0  0  0  0  0
  183.7010  180.3650  144.2250 F   0  0  0  0  0  0  0  0  0  0  0  0
  188.1480  178.2780  138.8920 C   0  0  2  0  0  3  0  0  0  0  0  0
  188.8890  177.2710  142.4270 N   0  0  0  0  0  0  0  0  0  0  0  0
  188.0380  177.7860  136.7300 C   0  0  0  0  0  0  0  0  0  0  0  0
  189.5180  178.3210  138.3070 C   0  0  1  0  0  3  0  0  0  0  0  0
  186.6650  177.6330  143.2310 C   0  0  0  0  0  0  0  0  0  0  0  0
  187.9530  178.1110  140.3400 C   0  0  0  0  0  0  0  0  0  0  0  0
  185.2300  179.4840  142.6240 C   0  0  0  0  0  3  0  0  0  0  0  0
  190.4010  177.3740  139.0630 C   0  0  0  0  0  3  0  0  0  0  0  0
  185.1060  178.5460  144.8490 C   0  0  0  0  0  3  0  0  0  0  0  0
  186.1000  177.6250  144.5110 C   0  0  0  0  0  3  0  0  0  0  0  0
  186.2380  178.5770  142.2770 C   0  0  0  0  0  0  0  0  0  0  0  0
  192.0420  178.1570  145.0890 N   0  0  0  0  0  0  0  0  0  0  0  0
  189.9750  177.5720  143.3280 C   0  0  0  0  0  0  0  0  0  0  0  0
  190.5730  178.8420  143.3360 C   0  0  0  0  0  3  0  0  0  0  0  0
  191.6120  179.1160  144.2260 C   0  0  0  0  0  3  0  0  0  0  0  0
  191.4800  176.9190  145.1110 C   0  0  0  0  0  3  0  0  0  0  0  0
  190.4390  176.6060  144.2350 C   0  0  0  0  0  3  0  0  0  0  0  0
  1 15  1  0  0  0  0
  2 12  1  0  0  0  0
  3 21  1  0  0  0  0
  4 14  1  0  0  0  0
  5 13  1  0  0  0  0
  6  2  1  0  0  0  0
  7  9  1  1  0  0  0
  7 11  1  0  0  0  0
  8 10  1  0  0  0  0
  8 19  1  0  0  0  0
 11 16  1  1  0  0  0
 12  1  1  0  0  0  0
 12 23  1  0  0  0  0
 13  4  2  0  0  0  0
 13  7  1  0  0  0  0
 14 11  1  0  0  0  0
 14 18  1  1  0  0  0
 15 20  1  0  0  0  0
 16  3  1  0  0  0  0
 16  2  2  0  0  0  0
 17  8  2  0  0  0  0
 18  6  2  0  0  0  0
 20 19  2  0  0  0  0
 21 17  1  0  0  0  0
 21 15  2  0  0  0  0
 22 26  1  0  0  0  0
 23 24  2  0  0  0  0
 23 27  1  0  0  0  0
 24 25  1  0  0  0  0
 25 22  2  0  0  0  0
 27 26  2  0  0  0  0
M  END
>  <MODEL>
1

>  <REMARK>
 VINA RESULT:      -9.0      0.000      0.000
  Name = 
  1 active torsions:
  status: ('A' for Active; 'I' for Inactive)
    1  A    between atoms: C_9  and  N_15
                            x       y       z     vdW  Elec       q    Type
                         _______ _______ _______ _____ _____    ______ ____

>  <TORSDO>
F 1

$$$$
=
 OpenBabel10262419593D

 27 31  0  0  1  0  0  0  0  0999 V2000
  190.5180  178.6360  143.7150 C   0  0  0  0  0  2  0  0  0  0  0  0
  188.5220  177.8090  144.9100 C   0  0  0  0  0  0  0  0  0  0  0  0
  188.0480  177.4990  142.4940 N   0  0  0  0  0  2  0  0  0  0  0  0
  184.4900  178.3030  145.6340 N   0  0  0  0  0  0  0  0  0  0  0  0
  183.1550  179.6970  144.2390 N   0  0  0  0  0  1  0  0  0  0  0  0
  188.0070  178.0420  146.2440 N   0  0  0  0  0  0  0  0  0  0  0  0
  185.3370  178.5960  143.5350 C   0  0  1  0  0  3  0  0  0  0  0  0
  190.5970  176.6880  139.9070 C   0  0  0  0  0  0  0  0  0  0  0  0
  185.5460  179.3260  142.2510 C   0  0  0  0  0  1  0  0  0  0  0  0
  190.6340  176.0890  138.6940 F   0  0  0  0  0  0  0  0  0  0  0  0
  186.2350  177.8640  144.1780 C   0  0  2  0  0  3  0  0  0  0  0  0
  189.9420  177.7680  144.7290 N   0  0  0  0  0  0  0  0  0  0  0  0
  184.2660  178.8420  144.4820 C   0  0  0  0  0  0  0  0  0  0  0  0
  185.7280  177.5370  145.5410 C   0  0  1  0  0  3  0  0  0  0  0  0
  190.5150  177.9310  142.4120 C   0  0  0  0  0  0  0  0  0  0  0  0
  187.6660  177.7500  143.8600 C   0  0  0  0  0  0  0  0  0  0  0  0
  189.3870  176.7980  140.5970 C   0  0  0  0  0  3  0  0  0  0  0  0
  186.7430  177.9710  146.5560 C   0  0  0  0  0  3  0  0  0  0  0  0
  191.7680  177.1990  140.4690 C   0  0  0  0  0  3  0  0  0  0  0  0
  191.7250  177.8220  141.7180 C   0  0  0  0  0  3  0  0  0  0  0  0
  189.3320  177.4060  141.8570 C   0  0  0  0  0  0  0  0  0  0  0  0
  192.4510  175.4110  147.1700 N   0  0  0  0  0  0  0  0  0  0  0  0
  190.7910  176.9530  145.5640 C   0  0  0  0  0  0  0  0  0  0  0  0
  191.5510  175.9080  145.0150 C   0  0  0  0  0  3  0  0  0  0  0  0
  192.3780  175.1420  145.8390 C   0  0  0  0  0  3  0  0  0  0  0  0
  191.7340  176.4190  147.7320 C   0  0  0  0  0  3  0  0  0  0  0  0
  190.8950  177.2070  146.9410 C   0  0  0  0  0  3  0  0  0  0  0  0
  1 12  1  0  0  0  0
  2  6  1  0  0  0  0
  3 16  1  0  0  0  0
  5 13  1  0  0  0  0
  6 18  2  0  0  0  0
  7  9  1  1  0  0  0
  7 11  1  0  0  0  0
  7 13  1  0  0  0  0
  8 19  2  0  0  0  0
  8 17  1  0  0  0  0
 10  8  1  0  0  0  0
 11 16  1  1  0  0  0
 11 14  1  0  0  0  0
 12  2  1  0  0  0  0
 12 23  1  0  0  0  0
 13  4  2  0  0  0  0
 14  4  1  0  0  0  0
 14 18  1  1  0  0  0
 15  1  1  0  0  0  0
 16  2  2  0  0  0  0
 17 21  2  0  0  0  0
 19 20  1  0  0  0  0
 20 15  2  0  0  0  0
 21 15  1  0  0  0  0
 21  3  1  0  0  0  0
 22 26  1  0  0  0  0
 23 27  1  0  0  0  0
 24 23  2  0  0  0  0
 24 25  1  0  0  0  0
 25 22  2  0  0  0  0
 27 26  2  0  0  0  0
M  END
>  <MODEL>
2

>  <REMARK>
 VINA RESULT:      -8.6      3.225      6.005
  Name = 
  1 active torsions:
  status: ('A' for Active; 'I' for Inactive)
    1  A    between atoms: C_9  and  N_15
                            x       y       z     vdW  Elec       q    Type
                         _______ _______ _______ _____ _____    ______ ____

>  <TORSDO>
F 1

$$$$
=
 OpenBabel10262419593D

 27 31  0  0  1  0  0  0  0  0999 V2000
  187.3420  176.3430  143.4080 C   0  0  0  0  0  2  0  0  0  0  0  0
  189.0790  177.0840  141.8180 C   0  0  0  0  0  0  0  0  0  0  0  0
  187.1090  178.5360  141.4020 N   0  0  0  0  0  2  0  0  0  0  0  0
  190.1900  177.4660  137.8630 N   0  0  0  0  0  0  0  0  0  0  0  0
  188.5880  177.2530  136.1120 N   0  0  0  0  0  1  0  0  0  0  0  0
  190.2680  176.4460  141.2930 N   0  0  0  0  0  0  0  0  0  0  0  0
  188.0440  177.8960  138.5130 C   0  0  1  0  0  3  0  0  0  0  0  0
  184.6940  179.6500  144.0050 C   0  0  0  0  0  0  0  0  0  0  0  0
  186.5600  177.7730  138.4410 C   0  0  0  0  0  1  0  0  0  0  0  0
  183.8400  180.6820  144.1990 F   0  0  0  0  0  0  0  0  0  0  0  0
  188.7720  177.9930  139.6150 C   0  0  2  0  0  3  0  0  0  0  0  0
  188.7000  176.8040  143.1700 N   0  0  0  0  0  0  0  0  0  0  0  0
  188.9720  177.5700  137.4450 C   0  0  0  0  0  0  0  0  0  0  0  0
  190.2140  177.8180  139.2780 C   0  0  1  0  0  3  0  0  0  0  0  0
  186.4560  177.5160  143.5970 C   0  0  0  0  0  0  0  0  0  0  0  0
  188.2990  177.8310  140.9980 C   0  0  0  0  0  0  0  0  0  0  0  0
  185.4680  179.5910  142.8430 C   0  0  0  0  0  3  0  0  0  0  0  0
  190.7840  176.7220  140.1270 C   0  0  0  0  0  3  0  0  0  0  0  0
  184.8010  178.6420  144.9640 C   0  0  0  0  0  3  0  0  0  0  0  0
  185.6780  177.5760  144.7580 C   0  0  0  0  0  3  0  0  0  0  0  0
  186.3630  178.5370  142.6310 C   0  0  0  0  0  0  0  0  0  0  0  0
  191.4520  177.0520  146.3600 N   0  0  0  0  0  0  0  0  0  0  0  0
  189.6430  176.9010  144.2590 C   0  0  0  0  0  0  0  0  0  0  0  0
  189.2340  177.3430  145.5270 C   0  0  0  0  0  3  0  0  0  0  0  0
  190.1580  177.4140  146.5700 C   0  0  0  0  0  3  0  0  0  0  0  0
  191.8790  176.6130  145.1460 C   0  0  0  0  0  3  0  0  0  0  0  0
  190.9840  176.5290  144.0780 C   0  0  0  0  0  3  0  0  0  0  0  0
  1 15  1  0  0  0  0
  2 12  1  0  0  0  0
  3 21  1  0  0  0  0
  4 14  1  0  0  0  0
  5 13  1  0  0  0  0
  6  2  1  0  0  0  0
  7  9  1  1  0  0  0
  7 11  1  0  0  0  0
  8 10  1  0  0  0  0
  8 19  1  0  0  0  0
 11 16  1  1  0  0  0
 12  1  1  0  0  0  0
 12 23  1  0  0  0  0
 13  4  2  0  0  0  0
 13  7  1  0  0  0  0
 14 11  1  0  0  0  0
 14 18  1  1  0  0  0
 15 20  1  0  0  0  0
 16  3  1  0  0  0  0
 16  2  2  0  0  0  0
 17  8  2  0  0  0  0
 18  6  2  0  0  0  0
 20 19  2  0  0  0  0
 21 17  1  0  0  0  0
 21 15  2  0  0  0  0
 22 25  1  0  0  0  0
 23 24  1  0  0  0  0
 24 25  2  0  0  0  0
 26 22  2  0  0  0  0
 27 23  2  0  0  0  0
 27 26  1  0  0  0  0
M  END
>  <MODEL>
3

>  <REMARK>
 VINA RESULT:      -8.1      1.075      1.229
  Name = 
  1 active torsions:
  status: ('A' for Active; 'I' for Inactive)
    1  A    between atoms: C_9  and  N_15
                            x       y       z     vdW  Elec       q    Type
                         _______ _______ _______ _____ _____    ______ ____

>  <TORSDO>
F 1

$$$$
=
 OpenBabel10262419593D

 27 31  0  0  1  0  0  0  0  0999 V2000
  189.4180  178.9810  142.2610 C   0  0  0  0  0  2  0  0  0  0  0  0
  188.5560  177.7210  140.3200 C   0  0  0  0  0  0  0  0  0  0  0  0
  190.5000  176.4290  141.1650 N   0  0  0  0  0  2  0  0  0  0  0  0
  189.3020  176.3400  136.5050 N   0  0  0  0  0  0  0  0  0  0  0  0
  191.5130  176.3190  135.6170 N   0  0  0  0  0  1  0  0  0  0  0  0
  187.7240  178.0950  139.1950 N   0  0  0  0  0  0  0  0  0  0  0  0
  190.9390  176.2960  138.0960 C   0  0  1  0  0  3  0  0  0  0  0  0
  191.5120  176.1920  144.7380 C   0  0  0  0  0  0  0  0  0  0  0  0
  192.3030  176.5550  138.6390 C   0  0  0  0  0  1  0  0  0  0  0  0
  192.1870  175.3260  145.5300 F   0  0  0  0  0  0  0  0  0  0  0  0
  189.7980  176.3750  138.7650 C   0  0  2  0  0  3  0  0  0  0  0  0
  188.3010  178.3380  141.5870 N   0  0  0  0  0  0  0  0  0  0  0  0
  190.5790  176.2730  136.6900 C   0  0  0  0  0  0  0  0  0  0  0  0
  188.6540  176.3170  137.8110 C   0  0  1  0  0  3  0  0  0  0  0  0
  190.1230  177.9810  143.0960 C   0  0  0  0  0  0  0  0  0  0  0  0
  189.6140  176.8940  140.1290 C   0  0  0  0  0  0  0  0  0  0  0  0
  191.3300  175.9050  143.3830 C   0  0  0  0  0  3  0  0  0  0  0  0
  187.7740  177.5100  138.0310 C   0  0  0  0  0  3  0  0  0  0  0  0
  190.9990  177.3740  145.2740 C   0  0  0  0  0  3  0  0  0  0  0  0
  190.3090  178.2670  144.4530 C   0  0  0  0  0  3  0  0  0  0  0  0
  190.6260  176.7840  142.5520 C   0  0  0  0  0  0  0  0  0  0  0  0
  184.4280  178.5280  143.2530 N   0  0  0  0  0  0  0  0  0  0  0  0
  186.9740  178.3910  142.1530 C   0  0  0  0  0  0  0  0  0  0  0  0
  186.7120  177.8560  143.4240 C   0  0  0  0  0  3  0  0  0  0  0  0
  185.4260  177.9320  143.9590 C   0  0  0  0  0  3  0  0  0  0  0  0
  184.6500  179.0620  142.0220 C   0  0  0  0  0  3  0  0  0  0  0  0
  185.9240  179.0050  141.4530 C   0  0  0  0  0  3  0  0  0  0  0  0
  1 15  1  0  0  0  0
  2 12  1  0  0  0  0
  3 21  1  0  0  0  0
  4 13  2  0  0  0  0
  4 14  1  0  0  0  0
  5 13  1  0  0  0  0
  6  2  1  0  0  0  0
  7  9  1  6  0  0  0
  7 11  1  0  0  0  0
  8 19  1  0  0  0  0
  8 10  1  0  0  0  0
 11 16  1  6  0  0  0
 12 23  1  0  0  0  0
 12  1  1  0  0  0  0
 13  7  1  0  0  0  0
 14 18  1  6  0  0  0
 14 11  1  0  0  0  0
 15 20  1  0  0  0  0
 16  2  2  0  0  0  0
 16  3  1  0  0  0  0
 17  8  2  0  0  0  0
 18  6  2  0  0  0  0
 20 19  2  0  0  0  0
 21 15  2  0  0  0  0
 21 17  1  0  0  0  0
 22 25  1  0  0  0  0
 23 24  1  0  0  0  0
 24 25  2  0  0  0  0
 26 22  2  0  0  0  0
 27 26  1  0  0  0  0
 27 23  2  0  0  0  0
M  END
>  <MODEL>
4

>  <REMARK>
 VINA RESULT:      -7.9      2.460      4.985
  Name = 
  1 active torsions:
  status: ('A' for Active; 'I' for Inactive)
    1  A    between atoms: C_9  and  N_15
                            x       y       z     vdW  Elec       q    Type
                         _______ _______ _______ _____ _____    ______ ____

>  <TORSDO>
F 1

$$$$
=
 OpenBabel10262419593D

 27 31  0  0  1  0  0  0  0  0999 V2000
  187.0930  179.4650  141.3440 C   0  0  0  0  0  2  0  0  0  0  0  0
  188.1740  177.9220  142.9380 C   0  0  0  0  0  0  0  0  0  0  0  0
  185.7500  177.8620  143.4680 N   0  0  0  0  0  2  0  0  0  0  0  0
  189.0530  177.1080  146.8870 N   0  0  0  0  0  0  0  0  0  0  0  0
  187.9360  178.2520  148.6530 N   0  0  0  0  0  1  0  0  0  0  0  0
  189.5390  177.7880  143.4060 N   0  0  0  0  0  0  0  0  0  0  0  0
  187.0140  177.9530  146.3010 C   0  0  1  0  0  3  0  0  0  0  0  0
  183.0130  178.2310  140.9740 C   0  0  0  0  0  0  0  0  0  0  0  0
  185.8660  178.9000  146.3940 C   0  0  0  0  0  1  0  0  0  0  0  0
  181.7170  177.8620  140.8510 F   0  0  0  0  0  0  0  0  0  0  0  0
  187.5080  177.4220  145.1920 C   0  0  2  0  0  3  0  0  0  0  0  0
  187.9600  178.3220  141.5800 N   0  0  0  0  0  0  0  0  0  0  0  0
  188.0110  177.7290  147.3320 C   0  0  0  0  0  0  0  0  0  0  0  0
  188.8080  176.7580  145.4920 C   0  0  1  0  0  3  0  0  0  0  0  0
  185.6910  178.9980  141.2350 C   0  0  0  0  0  0  0  0  0  0  0  0
  187.1470  177.7780  143.8110 C   0  0  0  0  0  0  0  0  0  0  0  0
  183.7370  177.8780  142.1160 C   0  0  0  0  0  3  0  0  0  0  0  0
  189.8600  177.3070  144.5750 C   0  0  0  0  0  3  0  0  0  0  0  0
  183.6280  178.9670  139.9600 C   0  0  0  0  0  3  0  0  0  0  0  0
  184.9640  179.3520  140.0930 C   0  0  0  0  0  3  0  0  0  0  0  0
  185.0800  178.2440  142.2550 C   0  0  0  0  0  0  0  0  0  0  0  0
  189.9400  176.4470  138.3590 N   0  0  0  0  0  0  0  0  0  0  0  0
  188.6300  177.6710  140.4810 C   0  0  0  0  0  0  0  0  0  0  0  0
  188.0270  177.5890  139.2170 C   0  0  0  0  0  3  0  0  0  0  0  0
  188.6990  176.9690  138.1630 C   0  0  0  0  0  3  0  0  0  0  0  0
  190.5550  176.5150  139.5690 C   0  0  0  0  0  3  0  0  0  0  0  0
  189.9140  177.1280  140.6480 C   0  0  0  0  0  3  0  0  0  0  0  0
  1 12  1  0  0  0  0
  2  6  1  0  0  0  0
  2 16  2  0  0  0  0
  3 16  1  0  0  0  0
  4 13  2  0  0  0  0
  6 18  2  0  0  0  0
  7  9  1  6  0  0  0
  7 13  1  0  0  0  0
  8 17  1  0  0  0  0
 10  8  1  0  0  0  0
 11 16  1  6  0  0  0
 11 14  1  0  0  0  0
 11  7  1  0  0  0  0
 12  2  1  0  0  0  0
 13  5  1  0  0  0  0
 14 18  1  6  0  0  0
 14  4  1  0  0  0  0
 15  1  1  0  0  0  0
 15 21  1  0  0  0  0
 17 21  2  0  0  0  0
 19 20  1  0  0  0  0
 19  8  2  0  0  0  0
 20 15  2  0  0  0  0
 21  3  1  0  0  0  0
 22 26  1  0  0  0  0
 23 27  1  0  0  0  0
 23 12  1  0  0  0  0
 24 23  2  0  0  0  0
 25 22  2  0  0  0  0
 25 24  1  0  0  0  0
 26 27  2  0  0  0  0
M  END
>  <MODEL>
5

>  <REMARK>
 VINA RESULT:      -7.8      2.367      6.031
  Name = 
  1 active torsions:
  status: ('A' for Active; 'I' for Inactive)
    1  A    between atoms: C_9  and  N_15
                            x       y       z     vdW  Elec       q    Type
                         _______ _______ _______ _____ _____    ______ ____

>  <TORSDO>
F 1

$$$$
=
 OpenBabel10262419593D

 27 31  0  0  1  0  0  0  0  0999 V2000
  188.2930  179.0880  141.3190 C   0  0  0  0  0  2  0  0  0  0  0  0
  189.7190  177.3230  142.2910 C   0  0  0  0  0  0  0  0  0  0  0  0
  187.6810  177.4100  143.7060 N   0  0  0  0  0  2  0  0  0  0  0  0
  191.9240  176.0840  145.5510 N   0  0  0  0  0  0  0  0  0  0  0  0
  191.6870  177.1480  147.6690 N   0  0  0  0  0  1  0  0  0  0  0  0
  191.1360  177.0380  142.1920 N   0  0  0  0  0  0  0  0  0  0  0  0
  189.9210  177.1400  145.8380 C   0  0  1  0  0  3  0  0  0  0  0  0
  184.2650  178.2250  142.4760 C   0  0  0  0  0  0  0  0  0  0  0  0
  189.0030  178.1640  146.4150 C   0  0  0  0  0  1  0  0  0  0  0  0
  182.9860  177.9740  142.8400 F   0  0  0  0  0  0  0  0  0  0  0  0
  189.9000  176.6750  144.5980 C   0  0  2  0  0  3  0  0  0  0  0  0
  189.0540  177.8620  141.1430 N   0  0  0  0  0  0  0  0  0  0  0  0
  191.2010  176.7440  146.3940 C   0  0  0  0  0  0  0  0  0  0  0  0
  191.1360  175.8840  144.3400 C   0  0  1  0  0  3  0  0  0  0  0  0
  186.9110  178.7470  141.7310 C   0  0  0  0  0  0  0  0  0  0  0  0
  189.0870  177.1840  143.4830 C   0  0  0  0  0  0  0  0  0  0  0  0
  185.3220  177.7120  143.2320 C   0  0  0  0  0  3  0  0  0  0  0  0
  191.8190  176.4280  143.1210 C   0  0  0  0  0  3  0  0  0  0  0  0
  184.5300  178.9990  141.3450 C   0  0  0  0  0  3  0  0  0  0  0  0
  185.8510  179.2610  140.9760 C   0  0  0  0  0  3  0  0  0  0  0  0
  186.6510  177.9540  142.8650 C   0  0  0  0  0  0  0  0  0  0  0  0
  189.4610  176.1340  137.3140 N   0  0  0  0  0  0  0  0  0  0  0  0
  189.1860  177.2610  139.8370 C   0  0  0  0  0  0  0  0  0  0  0  0
  188.1860  177.4250  138.8660 C   0  0  0  0  0  3  0  0  0  0  0  0
  188.3410  176.8490  137.6040 C   0  0  0  0  0  3  0  0  0  0  0  0
  190.4520  175.9630  138.2300 C   0  0  0  0  0  3  0  0  0  0  0  0
  190.3330  176.5230  139.5030 C   0  0  0  0  0  3  0  0  0  0  0  0
  1 15  1  0  0  0  0
  2 16  2  0  0  0  0
  4 13  2  0  0  0  0
  6  2  1  0  0  0  0
  6 18  2  0  0  0  0
  7 13  1  0  0  0  0
  7  9  1  6  0  0  0
  8 10  1  0  0  0  0
  8 17  1  0  0  0  0
 11 16  1  6  0  0  0
 11  7  1  0  0  0  0
 12  1  1  0  0  0  0
 12  2  1  0  0  0  0
 13  5  1  0  0  0  0
 14 18  1  6  0  0  0
 14 11  1  0  0  0  0
 14  4  1  0  0  0  0
 15 21  1  0  0  0  0
 16  3  1  0  0  0  0
 19  8  2  0  0  0  0
 20 19  1  0  0  0  0
 20 15  2  0  0  0  0
 21 17  2  0  0  0  0
 21  3  1  0  0  0  0
 22 25  2  0  0  0  0
 22 26  1  0  0  0  0
 23 12  1  0  0  0  0
 24 23  2  0  0  0  0
 25 24  1  0  0  0  0
 26 27  2  0  0  0  0
 27 23  1  0  0  0  0
M  END
>  <MODEL>
6

>  <REMARK>
 VINA RESULT:      -7.7      1.766      5.893
  Name = 
  1 active torsions:
  status: ('A' for Active; 'I' for Inactive)
    1  A    between atoms: C_9  and  N_15
                            x       y       z     vdW  Elec       q    Type
                         _______ _______ _______ _____ _____    ______ ____

>  <TORSDO>
F 1

$$$$
=
 OpenBabel10262419593D

 27 31  0  0  1  0  0  0  0  0999 V2000
  185.6990  179.8690  142.0930 C   0  0  0  0  0  2  0  0  0  0  0  0
  186.9350  178.2840  140.6590 C   0  0  0  0  0  0  0  0  0  0  0  0
  187.5100  177.6800  142.9970 N   0  0  0  0  0  2  0  0  0  0  0  0
  190.6260  176.9320  139.4060 N   0  0  0  0  0  0  0  0  0  0  0  0
  192.6100  177.5030  140.5930 N   0  0  0  0  0  1  0  0  0  0  0  0
  187.3300  178.3210  139.2660 N   0  0  0  0  0  0  0  0  0  0  0  0
  190.2710  177.4780  141.5940 C   0  0  1  0  0  3  0  0  0  0  0  0
  185.2110  177.9910  145.9070 C   0  0  0  0  0  0  0  0  0  0  0  0
  190.5770  178.1620  142.8830 C   0  0  0  0  0  1  0  0  0  0  0  0
  185.0560  177.4180  147.1230 F   0  0  0  0  0  0  0  0  0  0  0  0
  189.0670  177.2620  141.0850 C   0  0  2  0  0  3  0  0  0  0  0  0
  185.6860  178.8820  141.0250 N   0  0  0  0  0  0  0  0  0  0  0  0
  191.2110  177.2560  140.5110 C   0  0  0  0  0  0  0  0  0  0  0  0
  189.1970  176.8060  139.6710 C   0  0  1  0  0  3  0  0  0  0  0  0
  185.5410  179.1790  143.3950 C   0  0  0  0  0  0  0  0  0  0  0  0
  187.7920  177.7940  141.5880 C   0  0  0  0  0  0  0  0  0  0  0  0
  186.2430  177.5730  145.0620 C   0  0  0  0  0  3  0  0  0  0  0  0
  188.3750  177.7000  138.7920 C   0  0  0  0  0  3  0  0  0  0  0  0
  184.3420  179.0030  145.4960 C   0  0  0  0  0  3  0  0  0  0  0  0
  184.5100  179.5970  144.2430 C   0  0  0  0  0  3  0  0  0  0  0  0
  186.4130  178.1490  143.7980 C   0  0  0  0  0  0  0  0  0  0  0  0
  182.0930  178.0260  138.9840 N   0  0  0  0  0  0  0  0  0  0  0  0
  184.4630  178.5800  140.3210 C   0  0  0  0  0  0  0  0  0  0  0  0
  183.6540  177.5030  140.7130 C   0  0  0  0  0  3  0  0  0  0  0  0
  182.4670  177.2380  140.0270 C   0  0  0  0  0  3  0  0  0  0  0  0
  182.8510  179.0820  138.5830 C   0  0  0  0  0  3  0  0  0  0  0  0
  184.0450  179.3780  139.2430 C   0  0  0  0  0  3  0  0  0  0  0  0
  1 15  1  0  0  0  0
  2 12  1  0  0  0  0
  2 16  2  0  0  0  0
  3 21  1  0  0  0  0
  4 14  1  0  0  0  0
  4 13  2  0  0  0  0
  6  2  1  0  0  0  0
  7  9  1  6  0  0  0
  8 10  1  0  0  0  0
 11 16  1  6  0  0  0
 11  7  1  0  0  0  0
 12  1  1  0  0  0  0
 13  5  1  0  0  0  0
 13  7  1  0  0  0  0
 14 18  1  6  0  0  0
 14 11  1  0  0  0  0
 15 21  2  0  0  0  0
 15 20  1  0  0  0  0
 16  3  1  0  0  0  0
 17  8  2  0  0  0  0
 18  6  2  0  0  0  0
 19  8  1  0  0  0  0
 20 19  2  0  0  0  0
 21 17  1  0  0  0  0
 22 25  1  0  0  0  0
 23 24  1  0  0  0  0
 23 12  1  0  0  0  0
 25 24  2  0  0  0  0
 26 22  2  0  0  0  0
 26 27  1  0  0  0  0
 27 23  2  0  0  0  0
M  END
>  <MODEL>
7

>  <REMARK>
 VINA RESULT:      -7.4      2.156      5.460
  Name = 
  1 active torsions:
  status: ('A' for Active; 'I' for Inactive)
    1  A    between atoms: C_9  and  N_15
                            x       y       z     vdW  Elec       q    Type
                         _______ _______ _______ _____ _____    ______ ____

>  <TORSDO>
F 1

$$$$
=
 OpenBabel10262419593D

 27 31  0  0  1  0  0  0  0  0999 V2000
  189.9620  178.4870  144.4900 C   0  0  0  0  0  2  0  0  0  0  0  0
  188.3570  178.0930  142.6560 C   0  0  0  0  0  0  0  0  0  0  0  0
  190.1990  176.4650  142.3130 N   0  0  0  0  0  2  0  0  0  0  0  0
  187.6870  178.1870  138.5860 N   0  0  0  0  0  0  0  0  0  0  0  0
  189.4980  178.3640  137.0480 N   0  0  0  0  0  1  0  0  0  0  0  0
  187.3110  178.9080  142.0710 N   0  0  0  0  0  0  0  0  0  0  0  0
  189.6840  177.4570  139.4170 C   0  0  1  0  0  3  0  0  0  0  0  0
  192.1580  174.8570  145.0370 C   0  0  0  0  0  0  0  0  0  0  0  0
  191.1710  177.4130  139.5180 C   0  0  0  0  0  1  0  0  0  0  0  0
  192.8700  173.7200  145.2190 F   0  0  0  0  0  0  0  0  0  0  0  0
  188.8240  177.3500  140.4200 C   0  0  2  0  0  3  0  0  0  0  0  0
  188.6000  178.2090  144.0620 N   0  0  0  0  0  0  0  0  0  0  0  0
  188.9280  177.9790  138.2940 C   0  0  0  0  0  0  0  0  0  0  0  0
  187.4590  177.7190  139.9480 C   0  0  1  0  0  3  0  0  0  0  0  0
  190.6910  177.2080  144.6550 C   0  0  0  0  0  0  0  0  0  0  0  0
  189.1450  177.3350  141.8550 C   0  0  0  0  0  0  0  0  0  0  0  0
  191.5370  175.1050  143.8100 C   0  0  0  0  0  3  0  0  0  0  0  0
  186.9110  178.7960  140.8350 C   0  0  0  0  0  3  0  0  0  0  0  0
  192.0450  175.7830  146.0750 C   0  0  0  0  0  3  0  0  0  0  0  0
  191.3160  176.9580  145.8820 C   0  0  0  0  0  3  0  0  0  0  0  0
  190.7890  176.2710  143.6080 C   0  0  0  0  0  0  0  0  0  0  0  0
  185.4710  178.0080  146.8870 N   0  0  0  0  0  0  0  0  0  0  0  0
  187.5310  178.1280  145.0280 C   0  0  0  0  0  0  0  0  0  0  0  0
  187.8060  177.9440  146.3920 C   0  0  0  0  0  3  0  0  0  0  0  0
  186.7570  177.8840  147.3110 C   0  0  0  0  0  3  0  0  0  0  0  0
  185.1710  178.1930  145.5740 C   0  0  0  0  0  3  0  0  0  0  0  0
  186.1920  178.2580  144.6240 C   0  0  0  0  0  3  0  0  0  0  0  0
  1 15  1  0  0  0  0
  2 12  1  0  0  0  0
  3 21  1  0  0  0  0
  4 14  1  0  0  0  0
  5 13  1  0  0  0  0
  6  2  1  0  0  0  0
  7  9  1  1  0  0  0
  7 11  1  0  0  0  0
  8 10  1  0  0  0  0
  8 19  1  0  0  0  0
 11 16  1  1  0  0  0
 12  1  1  0  0  0  0
 12 23  1  0  0  0  0
 13  4  2  0  0  0  0
 13  7  1  0  0  0  0
 14 11  1  0  0  0  0
 14 18  1  1  0  0  0
 15 20  1  0  0  0  0
 16  3  1  0  0  0  0
 16  2  2  0  0  0  0
 17  8  2  0  0  0  0
 18  6  2  0  0  0  0
 20 19  2  0  0  0  0
 21 17  1  0  0  0  0
 21 15  2  0  0  0  0
 22 25  1  0  0  0  0
 23 24  1  0  0  0  0
 24 25  2  0  0  0  0
 26 22  2  0  0  0  0
 27 23  2  0  0  0  0
 27 26  1  0  0  0  0
M  END
>  <MODEL>
8

>  <REMARK>
 VINA RESULT:      -7.4      2.829      5.130
  Name = 
  1 active torsions:
  status: ('A' for Active; 'I' for Inactive)
    1  A    between atoms: C_9  and  N_15
                            x       y       z     vdW  Elec       q    Type
                         _______ _______ _______ _____ _____    ______ ____

>  <TORSDO>
F 1

$$$$
=
 OpenBabel10262419593D

 27 31  0  0  1  0  0  0  0  0999 V2000
  184.0210  179.7650  139.1030 C   0  0  0  0  0  2  0  0  0  0  0  0
  185.4450  178.5200  140.6900 C   0  0  0  0  0  0  0  0  0  0  0  0
  183.1060  178.1450  141.4320 N   0  0  0  0  0  2  0  0  0  0  0  0
  186.7380  178.1410  144.5900 N   0  0  0  0  0  0  0  0  0  0  0  0
  185.6000  179.2370  146.3720 N   0  0  0  0  0  1  0  0  0  0  0  0
  186.8460  178.6230  141.0450 N   0  0  0  0  0  0  0  0  0  0  0  0
  184.5560  178.6310  144.1330 C   0  0  1  0  0  3  0  0  0  0  0  0
  180.1610  177.9220  139.1680 C   0  0  0  0  0  0  0  0  0  0  0  0
  183.2880  179.4040  144.2670 C   0  0  0  0  0  1  0  0  0  0  0  0
  178.9310  177.3580  139.1830 F   0  0  0  0  0  0  0  0  0  0  0  0
  185.0380  178.0980  143.0200 C   0  0  2  0  0  3  0  0  0  0  0  0
  185.0680  178.7820  139.3340 N   0  0  0  0  0  0  0  0  0  0  0  0
  185.6520  178.6330  145.0850 C   0  0  0  0  0  0  0  0  0  0  0  0
  186.4440  177.6560  143.2460 C   0  0  1  0  0  3  0  0  0  0  0  0
  182.7030  179.0910  139.1460 C   0  0  0  0  0  0  0  0  0  0  0  0
  184.5220  178.2930  141.6570 C   0  0  0  0  0  0  0  0  0  0  0  0
  181.0160  177.7650  140.2630 C   0  0  0  0  0  3  0  0  0  0  0  0
  187.3260  178.2830  142.2090 C   0  0  0  0  0  3  0  0  0  0  0  0
  180.5770  178.6620  138.0610 C   0  0  0  0  0  3  0  0  0  0  0  0
  181.8440  179.2480  138.0520 C   0  0  0  0  0  3  0  0  0  0  0  0
  182.2950  178.3330  140.2610 C   0  0  0  0  0  0  0  0  0  0  0  0
  187.0550  176.9260  136.1060 N   0  0  0  0  0  0  0  0  0  0  0  0
  185.7430  178.1560  138.2220 C   0  0  0  0  0  0  0  0  0  0  0  0
  186.9870  178.6300  137.7770 C   0  0  0  0  0  3  0  0  0  0  0  0
  187.6300  178.0000  136.7100 C   0  0  0  0  0  3  0  0  0  0  0  0
  185.8540  176.4380  136.5180 C   0  0  0  0  0  3  0  0  0  0  0  0
  185.1800  177.0410  137.5810 C   0  0  0  0  0  3  0  0  0  0  0  0
  1 15  1  0  0  0  0
  1 12  1  0  0  0  0
  2  6  1  0  0  0  0
  2 16  2  0  0  0  0
  3 16  1  0  0  0  0
  4 13  2  0  0  0  0
  6 18  2  0  0  0  0
  7  9  1  6  0  0  0
  7 13  1  0  0  0  0
  8 10  1  0  0  0  0
  8 17  1  0  0  0  0
 11 16  1  6  0  0  0
 11 14  1  0  0  0  0
 11  7  1  0  0  0  0
 12  2  1  0  0  0  0
 13  5  1  0  0  0  0
 14 18  1  6  0  0  0
 14  4  1  0  0  0  0
 15 21  1  0  0  0  0
 19  8  2  0  0  0  0
 20 19  1  0  0  0  0
 20 15  2  0  0  0  0
 21 17  2  0  0  0  0
 21  3  1  0  0  0  0
 22 26  2  0  0  0  0
 22 25  1  0  0  0  0
 23 12  1  0  0  0  0
 24 23  1  0  0  0  0
 25 24  2  0  0  0  0
 26 27  1  0  0  0  0
 27 23  2  0  0  0  0
M  END
>  <MODEL>
9

>  <REMARK>
 VINA RESULT:      -7.3      3.221      6.990
  Name = 
  1 active torsions:
  status: ('A' for Active; 'I' for Inactive)
    1  A    between atoms: C_9  and  N_15
                            x       y       z     vdW  Elec       q    Type
                         _______ _______ _______ _____ _____    ______ ____

>  <TORSDO>
F 1

$$$$
