=
 OpenBabel10262419253D

 31 34  0  0  1  0  0  0  0  0999 V2000
  193.2760  175.5760  135.9160 C   0  0  0  0  0  0  0  0  0  0  0  0
  190.2620  177.1050  137.6510 C   0  0  2  0  0  3  0  0  0  0  0  0
  189.1130  176.1330  137.4440 C   0  0  0  0  0  0  0  0  0  0  0  0
  188.7790  174.2250  135.9030 C   0  0  0  0  0  3  0  0  0  0  0  0
  191.6340  176.5110  137.4400 C   0  0  0  0  0  0  0  0  0  0  0  0
  194.1270  175.3110  136.9900 C   0  0  0  0  0  3  0  0  0  0  0  0
  189.3750  174.6780  137.1920 C   0  0  0  0  0  2  0  0  0  0  0  0
  190.6930  176.9950  140.1370 C   0  0  2  0  0  3  0  0  0  0  0  0
  193.6710  175.2340  134.5940 N   0  0  0  0  0  1  0  0  0  0  0  0
  187.6920  177.9960  138.1560 C   0  0  0  0  0  2  0  0  0  0  0  0
  187.4680  174.2440  135.6710 C   0  0  0  0  0  3  0  0  0  0  0  0
  192.1760  176.6920  139.9210 C   0  0  0  0  0  2  0  0  0  0  0  0
  190.1270  177.8550  138.9960 C   0  0  2  0  0  3  0  0  0  0  0  0
  192.0340  176.1750  136.1400 C   0  0  0  0  0  3  0  0  0  0  0  0
  186.4580  174.7830  136.6000 C   0  0  0  0  0  3  0  0  0  0  0  0
  192.4940  176.2410  138.5250 C   0  0  0  0  0  0  0  0  0  0  0  0
  193.7410  175.6510  138.2890 C   0  0  0  0  0  3  0  0  0  0  0  0
  188.6700  178.2750  139.3020 C   0  0  0  0  0  2  0  0  0  0  0  0
  187.8640  176.5920  137.6570 C   0  0  0  0  0  0  0  0  0  0  0  0
  186.6340  175.7920  137.4610 C   0  0  0  0  0  3  0  0  0  0  0  0
  190.3870  178.9630  143.9550 C   0  0  0  0  0  1  0  0  0  0  0  0
  187.5360  176.7260  144.4200 O   0  0  0  0  0  0  0  0  0  0  0  0
  188.7980  176.2050  142.1730 O   0  0  0  0  0  0  0  0  0  0  0  0
  189.5410  177.1940  142.4210 C   0  0  0  0  0  0  0  0  0  0  0  0
  188.4550  177.5480  144.6770 C   0  0  0  0  0  0  0  0  0  0  0  0
  189.4460  177.8830  143.6820 N   0  0  0  0  0  0  0  0  0  0  0  0
  190.4970  177.6270  141.4410 N   0  0  0  0  0  2  0  0  0  0  0  0
  188.5000  178.1640  146.0420 C   0  0  0  0  0  2  0  0  0  0  0  0
  188.7450  177.1060  147.1080 C   0  0  0  0  0  3  0  0  0  0  0  0
  188.2470  177.6190  148.4430 C   0  0  0  0  0  1  0  0  0  0  0  0
  190.2260  176.7970  147.2160 C   0  0  0  0  0  1  0  0  0  0  0  0
  1 14  2  0  0  0  0
  1  6  1  0  0  0  0
  2  5  1  1  0  0  0
  2 13  1  0  0  0  0
  3  2  1  0  0  0  0
  3 19  2  0  0  0  0
  4  7  1  0  0  0  0
  5 16  2  0  0  0  0
  6 17  2  0  0  0  0
  7  3  1  0  0  0  0
  8 27  1  1  0  0  0
  9  1  1  0  0  0  0
 10 18  1  0  0  0  0
 11  4  2  0  0  0  0
 11 15  1  0  0  0  0
 12  8  1  0  0  0  0
 13 18  1  1  0  0  0
 13  8  1  0  0  0  0
 14  5  1  0  0  0  0
 15 20  2  0  0  0  0
 16 12  1  0  0  0  0
 17 16  1  0  0  0  0
 19 10  1  0  0  0  0
 20 19  1  0  0  0  0
 22 25  2  0  0  0  0
 23 24  2  0  0  0  0
 24 26  1  0  0  0  0
 25 28  1  0  0  0  0
 26 21  1  0  0  0  0
 26 25  1  0  0  0  0
 27 24  1  0  0  0  0
 28 29  1  0  0  0  0
 29 31  1  0  0  0  0
 29 30  1  0  0  0  0
M  END
>  <MODEL>
1

>  <REMARK>
 VINA RESULT:      -7.6      0.000      0.000
  Name = 
  3 active torsions:
  status: ('A' for Active; 'I' for Inactive)
    1  A    between atoms: C_1  and  C_24
    2  A    between atoms: C_15  and  N_23
    3  A    between atoms: C_19  and  C_24
                            x       y       z     vdW  Elec       q    Type
                         _______ _______ _______ _____ _____    ______ ____

>  <TORSDO>
F 3

$$$$
=
 OpenBabel10262419253D

 31 34  0  0  1  0  0  0  0  0999 V2000
  185.7770  178.8820  146.1010 C   0  0  0  0  0  0  0  0  0  0  0  0
  189.1070  178.3750  144.3450 C   0  0  2  0  0  3  0  0  0  0  0  0
  189.8740  177.3580  145.1720 C   0  0  0  0  0  0  0  0  0  0  0  0
  189.5770  176.4900  147.4720 C   0  0  0  0  0  3  0  0  0  0  0  0
  187.6190  178.3960  144.5960 C   0  0  0  0  0  0  0  0  0  0  0  0
  184.8740  178.3700  145.1670 C   0  0  0  0  0  3  0  0  0  0  0  0
  189.1500  176.3780  146.0480 C   0  0  0  0  0  2  0  0  0  0  0  0
  188.6370  177.1530  142.1860 C   0  0  2  0  0  3  0  0  0  0  0  0
  185.3050  179.3870  147.3430 N   0  0  0  0  0  1  0  0  0  0  0  0
  191.8210  178.0990  143.8870 C   0  0  0  0  0  2  0  0  0  0  0  0
  190.8240  176.2430  147.8700 C   0  0  0  0  0  3  0  0  0  0  0  0
  187.1390  177.4440  142.2830 C   0  0  0  0  0  2  0  0  0  0  0  0
  189.4680  178.2650  142.8450 C   0  0  2  0  0  3  0  0  0  0  0  0
  187.1440  178.8970  145.8160 C   0  0  0  0  0  3  0  0  0  0  0  0
  191.9450  175.9190  146.9680 C   0  0  0  0  0  3  0  0  0  0  0  0
  186.7050  177.8770  143.6540 C   0  0  0  0  0  0  0  0  0  0  0  0
  185.3370  177.8770  143.9450 C   0  0  0  0  0  3  0  0  0  0  0  0
  190.9780  178.0300  142.6100 C   0  0  0  0  0  2  0  0  0  0  0  0
  191.2020  177.2610  144.9660 C   0  0  0  0  0  0  0  0  0  0  0  0
  192.1010  176.3540  145.7120 C   0  0  0  0  0  3  0  0  0  0  0  0
  189.9960  176.4260  138.1650 C   0  0  0  0  0  1  0  0  0  0  0  0
  187.4330  178.8790  137.2910 O   0  0  0  0  0  0  0  0  0  0  0  0
  187.6630  178.6290  139.8990 O   0  0  0  0  0  0  0  0  0  0  0  0
  188.5030  177.7130  139.6860 C   0  0  0  0  0  0  0  0  0  0  0  0
  188.4280  178.1120  137.1900 C   0  0  0  0  0  0  0  0  0  0  0  0
  188.9600  177.4350  138.3480 N   0  0  0  0  0  0  0  0  0  0  0  0
  189.0160  176.9490  140.7880 N   0  0  0  0  0  2  0  0  0  0  0  0
  189.0500  177.9260  135.8390 C   0  0  0  0  0  2  0  0  0  0  0  0
  188.1180  177.1570  134.9130 C   0  0  0  0  0  3  0  0  0  0  0  0
  186.9130  178.0170  134.5940 C   0  0  0  0  0  1  0  0  0  0  0  0
  187.6510  175.8760  135.5770 C   0  0  0  0  0  1  0  0  0  0  0  0
  1  9  1  0  0  0  0
  2  5  1  6  0  0  0
  2  3  1  0  0  0  0
  3  7  1  0  0  0  0
  4 11  2  0  0  0  0
  5 14  2  0  0  0  0
  6  1  2  0  0  0  0
  7  4  1  0  0  0  0
  8 27  1  6  0  0  0
  8 12  1  0  0  0  0
  8 13  1  0  0  0  0
 10 19  1  0  0  0  0
 12 16  1  0  0  0  0
 13 18  1  1  0  0  0
 13  2  1  0  0  0  0
 14  1  1  0  0  0  0
 15 11  1  0  0  0  0
 16 17  2  0  0  0  0
 16  5  1  0  0  0  0
 17  6  1  0  0  0  0
 18 10  1  0  0  0  0
 19  3  2  0  0  0  0
 19 20  1  0  0  0  0
 20 15  2  0  0  0  0
 21 26  1  0  0  0  0
 24 23  2  0  0  0  0
 24 27  1  0  0  0  0
 25 22  2  0  0  0  0
 25 26  1  0  0  0  0
 26 24  1  0  0  0  0
 28 25  1  0  0  0  0
 29 31  1  0  0  0  0
 29 28  1  0  0  0  0
 30 29  1  0  0  0  0
M  END
>  <MODEL>
2

>  <REMARK>
 VINA RESULT:      -6.8      2.622      9.267
  Name = 
  3 active torsions:
  status: ('A' for Active; 'I' for Inactive)
    1  A    between atoms: C_1  and  C_24
    2  A    between atoms: C_15  and  N_23
    3  A    between atoms: C_19  and  C_24
                            x       y       z     vdW  Elec       q    Type
                         _______ _______ _______ _____ _____    ______ ____

>  <TORSDO>
F 3

$$$$
=
 OpenBabel10262419253D

 31 34  0  0  1  0  0  0  0  0999 V2000
  180.6050  179.2540  142.5050 C   0  0  0  0  0  0  0  0  0  0  0  0
  181.3380  178.5420  138.8470 C   0  0  2  0  0  3  0  0  0  0  0  0
  181.1620  179.8600  138.1130 C   0  0  0  0  0  0  0  0  0  0  0  0
  180.0900  182.0030  138.7340 C   0  0  0  0  0  3  0  0  0  0  0  0
  181.5310  178.6730  140.3380 C   0  0  0  0  0  0  0  0  0  0  0  0
  181.8500  179.0350  143.1000 C   0  0  0  0  0  3  0  0  0  0  0  0
  181.3200  181.1670  138.8330 C   0  0  0  0  0  2  0  0  0  0  0  0
  183.8130  178.0790  138.6540 C   0  0  2  0  0  3  0  0  0  0  0  0
  179.5000  179.6650  143.3000 N   0  0  0  0  0  1  0  0  0  0  0  0
  181.1330  178.4830  136.0890 C   0  0  0  0  0  2  0  0  0  0  0  0
  179.6240  182.4610  137.5730 C   0  0  0  0  0  3  0  0  0  0  0  0
  183.9530  177.9050  140.1670 C   0  0  0  0  0  2  0  0  0  0  0  0
  182.4160  177.6630  138.1700 C   0  0  2  0  0  3  0  0  0  0  0  0
  180.4470  179.0730  141.1290 C   0  0  0  0  0  3  0  0  0  0  0  0
  180.1940  182.1380  136.2520 C   0  0  0  0  0  3  0  0  0  0  0  0
  182.7890  178.4540  140.9390 C   0  0  0  0  0  0  0  0  0  0  0  0
  182.9350  178.6280  142.3200 C   0  0  0  0  0  3  0  0  0  0  0  0
  182.3380  177.7050  136.6260 C   0  0  0  0  0  2  0  0  0  0  0  0
  181.0260  179.8140  136.7730 C   0  0  0  0  0  0  0  0  0  0  0  0
  180.8060  180.9970  135.9120 C   0  0  0  0  0  3  0  0  0  0  0  0
  186.7810  175.6490  136.6990 C   0  0  0  0  0  1  0  0  0  0  0  0
  188.7850  178.7000  136.8430 O   0  0  0  0  0  0  0  0  0  0  0  0
  186.4970  179.0030  138.1030 O   0  0  0  0  0  0  0  0  0  0  0  0
  186.1900  177.8420  137.7180 C   0  0  0  0  0  0  0  0  0  0  0  0
  188.4760  177.4880  136.6950 C   0  0  0  0  0  0  0  0  0  0  0  0
  187.1580  177.0140  137.0440 N   0  0  0  0  0  0  0  0  0  0  0  0
  184.8690  177.3370  137.9660 N   0  0  0  0  0  2  0  0  0  0  0  0
  189.5110  176.5480  136.1570 C   0  0  0  0  0  2  0  0  0  0  0  0
  190.7700  176.5790  137.0110 C   0  0  0  0  0  3  0  0  0  0  0  0
  191.8490  175.7570  136.3380 C   0  0  0  0  0  1  0  0  0  0  0  0
  190.4910  176.0010  138.3860 C   0  0  0  0  0  1  0  0  0  0  0  0
  1  6  1  0  0  0  0
  1  9  1  0  0  0  0
  2  3  1  6  0  0  0
  2  5  1  0  0  0  0
  3  7  1  0  0  0  0
  4  7  1  0  0  0  0
  5 16  2  0  0  0  0
  5 14  1  0  0  0  0
  8 27  1  6  0  0  0
  8 12  1  0  0  0  0
 10 18  1  0  0  0  0
 10 19  1  0  0  0  0
 11  4  2  0  0  0  0
 12 16  1  0  0  0  0
 13 18  1  6  0  0  0
 13  8  1  0  0  0  0
 13  2  1  0  0  0  0
 14  1  2  0  0  0  0
 15 11  1  0  0  0  0
 16 17  1  0  0  0  0
 17  6  2  0  0  0  0
 19  3  2  0  0  0  0
 20 15  2  0  0  0  0
 20 19  1  0  0  0  0
 21 26  1  0  0  0  0
 24 27  1  0  0  0  0
 24 23  2  0  0  0  0
 25 22  2  0  0  0  0
 25 26  1  0  0  0  0
 26 24  1  0  0  0  0
 28 25  1  0  0  0  0
 28 29  1  0  0  0  0
 29 31  1  0  0  0  0
 30 29  1  0  0  0  0
M  END
>  <MODEL>
3

>  <REMARK>
 VINA RESULT:      -6.6      6.066      9.987
  Name = 
  3 active torsions:
  status: ('A' for Active; 'I' for Inactive)
    1  A    between atoms: C_1  and  C_24
    2  A    between atoms: C_15  and  N_23
    3  A    between atoms: C_19  and  C_24
                            x       y       z     vdW  Elec       q    Type
                         _______ _______ _______ _____ _____    ______ ____

>  <TORSDO>
F 3

$$$$
=
 OpenBabel10262419253D

 31 34  0  0  1  0  0  0  0  0999 V2000
  190.4790  177.1390  139.6490 C   0  0  0  0  0  0  0  0  0  0  0  0
  188.2520  176.9570  142.7210 C   0  0  2  0  0  3  0  0  0  0  0  0
  189.0660  177.5230  143.8710 C   0  0  0  0  0  0  0  0  0  0  0  0
  191.4810  177.9870  144.1570 C   0  0  0  0  0  3  0  0  0  0  0  0
  188.7570  177.3310  141.3490 C   0  0  0  0  0  0  0  0  0  0  0  0
  189.8020  178.0640  138.8520 C   0  0  0  0  0  3  0  0  0  0  0  0
  190.1850  178.4890  143.6160 C   0  0  0  0  0  2  0  0  0  0  0  0
  186.4050  178.6500  142.4090 C   0  0  2  0  0  3  0  0  0  0  0  0
  191.7010  176.5710  139.1960 N   0  0  0  0  0  1  0  0  0  0  0  0
  187.3650  176.4940  145.3000 C   0  0  0  0  0  2  0  0  0  0  0  0
  191.6830  177.7720  145.4550 C   0  0  0  0  0  3  0  0  0  0  0  0
  186.7230  178.8040  140.9210 C   0  0  0  0  0  2  0  0  0  0  0  0
  186.7430  177.2370  142.9100 C   0  0  2  0  0  3  0  0  0  0  0  0
  189.9570  176.7730  140.8920 C   0  0  0  0  0  3  0  0  0  0  0  0
  190.6530  177.9120  146.5010 C   0  0  0  0  0  3  0  0  0  0  0  0
  188.0740  178.2680  140.5430 C   0  0  0  0  0  0  0  0  0  0  0  0
  188.5990  178.6190  139.2950 C   0  0  0  0  0  3  0  0  0  0  0  0
  186.2800  177.0530  144.3740 C   0  0  0  0  0  2  0  0  0  0  0  0
  188.6440  177.2580  145.1230 C   0  0  0  0  0  0  0  0  0  0  0  0
  189.3400  177.6970  146.3520 C   0  0  0  0  0  3  0  0  0  0  0  0
  182.3620  179.7440  143.4090 C   0  0  0  0  0  1  0  0  0  0  0  0
  181.5270  177.7490  140.4640 O   0  0  0  0  0  0  0  0  0  0  0  0
  184.0960  177.6180  141.0060 O   0  0  0  0  0  0  0  0  0  0  0  0
  183.8920  178.4490  141.9320 C   0  0  0  0  0  0  0  0  0  0  0  0
  181.3950  178.4000  141.5350 C   0  0  0  0  0  0  0  0  0  0  0  0
  182.5500  178.8490  142.2740 N   0  0  0  0  0  0  0  0  0  0  0  0
  185.0050  178.9930  142.6580 N   0  0  0  0  0  2  0  0  0  0  0  0
  180.0090  178.6920  142.0260 C   0  0  0  0  0  2  0  0  0  0  0  0
  179.3630  179.7970  141.2040 C   0  0  0  0  0  3  0  0  0  0  0  0
  180.3620  180.3130  140.1890 C   0  0  0  0  0  1  0  0  0  0  0  0
  178.9310  180.9410  142.1010 C   0  0  0  0  0  1  0  0  0  0  0  0
  1 14  1  0  0  0  0
  2  5  1  6  0  0  0
  2 13  1  0  0  0  0
  2  3  1  0  0  0  0
  3 19  2  0  0  0  0
  4 11  2  0  0  0  0
  6 17  1  0  0  0  0
  6  1  2  0  0  0  0
  7  3  1  0  0  0  0
  7  4  1  0  0  0  0
  8 27  1  6  0  0  0
  8 13  1  0  0  0  0
  9  1  1  0  0  0  0
 11 15  1  0  0  0  0
 12  8  1  0  0  0  0
 13 18  1  1  0  0  0
 14  5  2  0  0  0  0
 16 12  1  0  0  0  0
 16  5  1  0  0  0  0
 17 16  2  0  0  0  0
 18 10  1  0  0  0  0
 19 10  1  0  0  0  0
 19 20  1  0  0  0  0
 20 15  2  0  0  0  0
 22 25  2  0  0  0  0
 23 24  2  0  0  0  0
 24 26  1  0  0  0  0
 24 27  1  0  0  0  0
 25 28  1  0  0  0  0
 25 26  1  0  0  0  0
 26 21  1  0  0  0  0
 29 28  1  0  0  0  0
 29 31  1  0  0  0  0
 30 29  1  0  0  0  0
M  END
>  <MODEL>
4

>  <REMARK>
 VINA RESULT:      -6.5      4.580      7.698
  Name = 
  3 active torsions:
  status: ('A' for Active; 'I' for Inactive)
    1  A    between atoms: C_1  and  C_24
    2  A    between atoms: C_15  and  N_23
    3  A    between atoms: C_19  and  C_24
                            x       y       z     vdW  Elec       q    Type
                         _______ _______ _______ _____ _____    ______ ____

>  <TORSDO>
F 3

$$$$
=
 OpenBabel10262419253D

 31 34  0  0  1  0  0  0  0  0999 V2000
  185.1320  179.2960  145.9720 C   0  0  0  0  0  0  0  0  0  0  0  0
  186.4990  178.9040  142.4500 C   0  0  2  0  0  3  0  0  0  0  0  0
  187.5360  177.7970  142.5160 C   0  0  0  0  0  0  0  0  0  0  0  0
  188.7220  176.7110  144.3990 C   0  0  0  0  0  3  0  0  0  0  0  0
  185.5290  178.9280  143.6060 C   0  0  0  0  0  0  0  0  0  0  0  0
  183.8040  178.8940  145.8160 C   0  0  0  0  0  3  0  0  0  0  0  0
  187.4720  176.7480  143.5870 C   0  0  0  0  0  2  0  0  0  0  0  0
  184.6570  177.9110  141.0370 C   0  0  2  0  0  3  0  0  0  0  0  0
  185.6110  179.6830  147.2530 N   0  0  0  0  0  1  0  0  0  0  0  0
  188.2500  178.6270  140.3270 C   0  0  0  0  0  2  0  0  0  0  0  0
  189.9080  176.4030  143.8770 C   0  0  0  0  0  3  0  0  0  0  0  0
  183.6020  178.2180  142.1000 C   0  0  0  0  0  2  0  0  0  0  0  0
  185.8010  178.9370  141.0710 C   0  0  2  0  0  3  0  0  0  0  0  0
  185.9910  179.3130  144.8710 C   0  0  0  0  0  3  0  0  0  0  0  0
  190.1570  176.1500  142.4460 C   0  0  0  0  0  3  0  0  0  0  0  0
  184.1870  178.5210  143.4490 C   0  0  0  0  0  0  0  0  0  0  0  0
  183.3320  178.5170  144.5560 C   0  0  0  0  0  3  0  0  0  0  0  0
  186.7810  178.6990  139.8990 C   0  0  0  0  0  2  0  0  0  0  0  0
  188.4070  177.6970  141.4930 C   0  0  0  0  0  0  0  0  0  0  0  0
  189.5020  176.7050  141.4190 C   0  0  0  0  0  3  0  0  0  0  0  0
  183.0430  177.5490  137.0620 C   0  0  0  0  0  1  0  0  0  0  0  0
  180.8390  180.2520  138.1510 O   0  0  0  0  0  0  0  0  0  0  0  0
  182.6430  179.6970  139.9820 O   0  0  0  0  0  0  0  0  0  0  0  0
  183.0330  178.7550  139.2390 C   0  0  0  0  0  0  0  0  0  0  0  0
  181.4360  179.4350  137.4000 C   0  0  0  0  0  0  0  0  0  0  0  0
  182.4950  178.5990  137.9120 N   0  0  0  0  0  0  0  0  0  0  0  0
  184.0300  177.8400  139.7170 N   0  0  0  0  0  2  0  0  0  0  0  0
  181.0270  179.3600  135.9610 C   0  0  0  0  0  2  0  0  0  0  0  0
  179.5340  179.0940  135.8330 C   0  0  0  0  0  3  0  0  0  0  0  0
  179.3150  177.6370  135.4840 C   0  0  0  0  0  1  0  0  0  0  0  0
  178.9330  179.9610  134.7430 C   0  0  0  0  0  1  0  0  0  0  0  0
  1  9  1  0  0  0  0
  2  3  1  6  0  0  0
  2  5  1  0  0  0  0
  3  7  1  0  0  0  0
  5 14  1  0  0  0  0
  6  1  1  0  0  0  0
  7  4  1  0  0  0  0
  8 27  1  6  0  0  0
  8 13  1  0  0  0  0
  8 12  1  0  0  0  0
 10 19  1  0  0  0  0
 11  4  2  0  0  0  0
 12 16  1  0  0  0  0
 13 18  1  6  0  0  0
 13  2  1  0  0  0  0
 14  1  2  0  0  0  0
 15 11  1  0  0  0  0
 16  5  2  0  0  0  0
 16 17  1  0  0  0  0
 17  6  2  0  0  0  0
 18 10  1  0  0  0  0
 19  3  2  0  0  0  0
 20 19  1  0  0  0  0
 20 15  2  0  0  0  0
 21 26  1  0  0  0  0
 24 27  1  0  0  0  0
 24 23  2  0  0  0  0
 25 26  1  0  0  0  0
 25 22  2  0  0  0  0
 26 24  1  0  0  0  0
 28 25  1  0  0  0  0
 29 28  1  0  0  0  0
 30 29  1  0  0  0  0
 31 29  1  0  0  0  0
M  END
>  <MODEL>
5

>  <REMARK>
 VINA RESULT:      -6.4      5.180      9.934
  Name = 
  3 active torsions:
  status: ('A' for Active; 'I' for Inactive)
    1  A    between atoms: C_1  and  C_24
    2  A    between atoms: C_15  and  N_23
    3  A    between atoms: C_19  and  C_24
                            x       y       z     vdW  Elec       q    Type
                         _______ _______ _______ _____ _____    ______ ____

>  <TORSDO>
F 3

$$$$
=
 OpenBabel10262419253D

 31 34  0  0  1  0  0  0  0  0999 V2000
  185.5440  178.6110  146.0570 C   0  0  0  0  0  0  0  0  0  0  0  0
  188.9400  178.6190  144.3570 C   0  0  2  0  0  3  0  0  0  0  0  0
  189.7660  177.5480  145.0490 C   0  0  0  0  0  0  0  0  0  0  0  0
  189.4870  176.3260  147.1830 C   0  0  0  0  0  3  0  0  0  0  0  0
  187.4500  178.4930  144.5590 C   0  0  0  0  0  0  0  0  0  0  0  0
  184.7040  178.1790  145.0290 C   0  0  0  0  0  3  0  0  0  0  0  0
  189.1010  176.3970  145.7450 C   0  0  0  0  0  2  0  0  0  0  0  0
  188.6140  177.7030  142.0260 C   0  0  2  0  0  3  0  0  0  0  0  0
  185.0070  178.8870  147.3440 N   0  0  0  0  0  1  0  0  0  0  0  0
  191.6770  178.6160  143.9520 C   0  0  0  0  0  2  0  0  0  0  0  0
  190.7410  176.1140  147.5810 C   0  0  0  0  0  3  0  0  0  0  0  0
  187.0960  177.8660  142.1160 C   0  0  0  0  0  2  0  0  0  0  0  0
  189.3410  178.7620  142.8700 C   0  0  2  0  0  3  0  0  0  0  0  0
  186.9120  178.7680  145.8230 C   0  0  0  0  0  3  0  0  0  0  0  0
  191.9030  176.0130  146.6800 C   0  0  0  0  0  3  0  0  0  0  0  0
  186.6000  178.0550  143.5200 C   0  0  0  0  0  0  0  0  0  0  0  0
  185.2300  177.9110  143.7630 C   0  0  0  0  0  3  0  0  0  0  0  0
  190.8690  178.6760  142.6520 C   0  0  0  0  0  2  0  0  0  0  0  0
  191.1010  177.5810  144.8740 C   0  0  0  0  0  0  0  0  0  0  0  0
  192.0520  176.6420  145.5080 C   0  0  0  0  0  3  0  0  0  0  0  0
  189.6090  177.9470  137.8440 C   0  0  0  0  0  1  0  0  0  0  0  0
  192.1140  175.4340  138.7120 O   0  0  0  0  0  0  0  0  0  0  0  0
  190.5630  175.9810  140.7640 O   0  0  0  0  0  0  0  0  0  0  0  0
  190.0110  176.8590  140.0460 C   0  0  0  0  0  0  0  0  0  0  0  0
  191.3640  176.1750  138.0230 C   0  0  0  0  0  0  0  0  0  0  0  0
  190.3400  176.9760  138.6490 N   0  0  0  0  0  0  0  0  0  0  0  0
  189.0370  177.7400  140.6260 N   0  0  0  0  0  2  0  0  0  0  0  0
  191.5550  176.1980  136.5370 C   0  0  0  0  0  2  0  0  0  0  0  0
  192.7300  175.3220  136.1260 C   0  0  0  0  0  3  0  0  0  0  0  0
  193.9180  176.2030  135.8010 C   0  0  0  0  0  1  0  0  0  0  0  0
  192.3740  174.4980  134.9030 C   0  0  0  0  0  1  0  0  0  0  0  0
  1  9  1  0  0  0  0
  2  5  1  6  0  0  0
  2  3  1  0  0  0  0
  3  7  1  0  0  0  0
  4 11  2  0  0  0  0
  5 14  2  0  0  0  0
  6  1  2  0  0  0  0
  7  4  1  0  0  0  0
  8 27  1  6  0  0  0
  8 12  1  0  0  0  0
  8 13  1  0  0  0  0
 10 19  1  0  0  0  0
 12 16  1  0  0  0  0
 13 18  1  1  0  0  0
 13  2  1  0  0  0  0
 14  1  1  0  0  0  0
 15 11  1  0  0  0  0
 16 17  2  0  0  0  0
 16  5  1  0  0  0  0
 17  6  1  0  0  0  0
 18 10  1  0  0  0  0
 19  3  2  0  0  0  0
 19 20  1  0  0  0  0
 20 15  2  0  0  0  0
 21 26  1  0  0  0  0
 24 27  1  0  0  0  0
 24 23  2  0  0  0  0
 25 26  1  0  0  0  0
 25 22  2  0  0  0  0
 26 24  1  0  0  0  0
 28 25  1  0  0  0  0
 29 28  1  0  0  0  0
 30 29  1  0  0  0  0
 31 29  1  0  0  0  0
M  END
>  <MODEL>
6

>  <REMARK>
 VINA RESULT:      -6.4      2.507      9.211
  Name = 
  3 active torsions:
  status: ('A' for Active; 'I' for Inactive)
    1  A    between atoms: C_1  and  C_24
    2  A    between atoms: C_15  and  N_23
    3  A    between atoms: C_19  and  C_24
                            x       y       z     vdW  Elec       q    Type
                         _______ _______ _______ _____ _____    ______ ____

>  <TORSDO>
F 3

$$$$
=
 OpenBabel10262419253D

 31 34  0  0  1  0  0  0  0  0999 V2000
  179.9690  180.6090  139.1720 C   0  0  0  0  0  0  0  0  0  0  0  0
  183.5370  179.3800  139.6010 C   0  0  2  0  0  3  0  0  0  0  0  0
  183.6310  178.8310  141.0140 C   0  0  0  0  0  0  0  0  0  0  0  0
  182.1860  179.0640  143.0110 C   0  0  0  0  0  3  0  0  0  0  0  0
  182.1310  179.5100  139.0690 C   0  0  0  0  0  0  0  0  0  0  0  0
  179.4760  179.7380  138.1980 C   0  0  0  0  0  3  0  0  0  0  0  0
  182.4080  178.3360  141.7280 C   0  0  0  0  0  2  0  0  0  0  0  0
  183.8050  177.3330  138.1480 C   0  0  2  0  0  3  0  0  0  0  0  0
  179.1230  181.6090  139.7250 N   0  0  0  0  0  1  0  0  0  0  0  0
  186.0520  178.9310  140.6630 C   0  0  0  0  0  2  0  0  0  0  0  0
  183.0510  179.0170  144.0220 C   0  0  0  0  0  3  0  0  0  0  0  0
  182.5140  177.6380  137.3860 C   0  0  0  0  0  2  0  0  0  0  0  0
  184.4820  178.6220  138.6400 C   0  0  2  0  0  3  0  0  0  0  0  0
  181.2920  180.4960  139.6050 C   0  0  0  0  0  3  0  0  0  0  0  0
  184.3550  178.3290  143.9820 C   0  0  0  0  0  3  0  0  0  0  0  0
  181.6310  178.6300  138.0860 C   0  0  0  0  0  0  0  0  0  0  0  0
  180.3070  178.7580  137.6520 C   0  0  0  0  0  3  0  0  0  0  0  0
  185.8550  178.3070  139.2770 C   0  0  0  0  0  2  0  0  0  0  0  0
  184.8620  178.6530  141.5320 C   0  0  0  0  0  0  0  0  0  0  0  0
  185.1310  178.1670  142.9040 C   0  0  0  0  0  3  0  0  0  0  0  0
  186.4870  175.2220  135.5230 C   0  0  0  0  0  1  0  0  0  0  0  0
  185.0170  172.2570  137.0720 O   0  0  0  0  0  0  0  0  0  0  0  0
  183.8270  174.4530  137.8970 O   0  0  0  0  0  0  0  0  0  0  0  0
  184.6700  175.1030  137.2200 C   0  0  0  0  0  0  0  0  0  0  0  0
  185.6660  172.9810  136.2700 C   0  0  0  0  0  0  0  0  0  0  0  0
  185.5920  174.4200  136.3490 N   0  0  0  0  0  0  0  0  0  0  0  0
  184.7010  176.5350  137.3110 N   0  0  0  0  0  2  0  0  0  0  0  0
  186.5090  172.3120  135.2280 C   0  0  0  0  0  2  0  0  0  0  0  0
  187.7130  171.6290  135.8590 C   0  0  0  0  0  3  0  0  0  0  0  0
  188.9660  172.4050  135.5100 C   0  0  0  0  0  1  0  0  0  0  0  0
  187.8480  170.2100  135.3420 C   0  0  0  0  0  1  0  0  0  0  0  0
  1 14  1  0  0  0  0
  1  9  1  0  0  0  0
  2  5  1  6  0  0  0
  2  3  1  0  0  0  0
  3 19  2  0  0  0  0
  3  7  1  0  0  0  0
  4 11  2  0  0  0  0
  5 14  2  0  0  0  0
  6  1  2  0  0  0  0
  7  4  1  0  0  0  0
  8 27  1  6  0  0  0
  8 13  1  0  0  0  0
 10 19  1  0  0  0  0
 12 16  1  0  0  0  0
 12  8  1  0  0  0  0
 13 18  1  1  0  0  0
 13  2  1  0  0  0  0
 15 11  1  0  0  0  0
 16  5  1  0  0  0  0
 17 16  2  0  0  0  0
 17  6  1  0  0  0  0
 18 10  1  0  0  0  0
 19 20  1  0  0  0  0
 20 15  2  0  0  0  0
 21 26  1  0  0  0  0
 24 27  1  0  0  0  0
 24 23  2  0  0  0  0
 25 26  1  0  0  0  0
 25 22  2  0  0  0  0
 26 24  1  0  0  0  0
 28 29  1  0  0  0  0
 28 25  1  0  0  0  0
 30 29  1  0  0  0  0
 31 29  1  0  0  0  0
M  END
>  <MODEL>
7

>  <REMARK>
 VINA RESULT:      -6.3      5.575     10.250
  Name = 
  3 active torsions:
  status: ('A' for Active; 'I' for Inactive)
    1  A    between atoms: C_1  and  C_24
    2  A    between atoms: C_15  and  N_23
    3  A    between atoms: C_19  and  C_24
                            x       y       z     vdW  Elec       q    Type
                         _______ _______ _______ _____ _____    ______ ____

>  <TORSDO>
F 3

$$$$
=
 OpenBabel10262419253D

 31 34  0  0  1  0  0  0  0  0999 V2000
  185.1700  179.3620  145.9650 C   0  0  0  0  0  0  0  0  0  0  0  0
  186.4550  178.9360  142.4170 C   0  0  2  0  0  3  0  0  0  0  0  0
  187.4830  177.8180  142.4670 C   0  0  0  0  0  0  0  0  0  0  0  0
  188.6980  176.7320  144.3300 C   0  0  0  0  0  3  0  0  0  0  0  0
  185.5110  178.9760  143.5930 C   0  0  0  0  0  0  0  0  0  0  0  0
  183.8350  178.9740  145.8400 C   0  0  0  0  0  3  0  0  0  0  0  0
  187.4310  176.7770  143.5460 C   0  0  0  0  0  2  0  0  0  0  0  0
  184.5730  177.9530  141.0500 C   0  0  2  0  0  3  0  0  0  0  0  0
  185.6810  179.7530  147.2330 N   0  0  0  0  0  1  0  0  0  0  0  0
  188.1570  178.6280  140.2570 C   0  0  0  0  0  2  0  0  0  0  0  0
  189.8690  176.4090  143.7850 C   0  0  0  0  0  3  0  0  0  0  0  0
  183.5440  178.2780  142.1340 C   0  0  0  0  0  2  0  0  0  0  0  0
  185.7270  178.9680  141.0530 C   0  0  2  0  0  3  0  0  0  0  0  0
  186.0050  179.3650  144.8450 C   0  0  0  0  0  3  0  0  0  0  0  0
  190.0850  176.1450  142.3500 C   0  0  0  0  0  3  0  0  0  0  0  0
  184.1620  178.5820  143.4680 C   0  0  0  0  0  0  0  0  0  0  0  0
  183.3310  178.5940  144.5940 C   0  0  0  0  0  3  0  0  0  0  0  0
  186.6790  178.7130  139.8610 C   0  0  0  0  0  2  0  0  0  0  0  0
  188.3300  177.7030  141.4250 C   0  0  0  0  0  0  0  0  0  0  0  0
  189.4130  176.7000  141.3340 C   0  0  0  0  0  3  0  0  0  0  0  0
  182.6940  178.0250  137.1770 C   0  0  0  0  0  1  0  0  0  0  0  0
  181.3180  174.8110  138.2370 O   0  0  0  0  0  0  0  0  0  0  0  0
  182.6810  175.9490  140.1760 O   0  0  0  0  0  0  0  0  0  0  0  0
  182.9800  176.8630  139.3600 C   0  0  0  0  0  0  0  0  0  0  0  0
  181.4940  175.8670  137.5730 C   0  0  0  0  0  0  0  0  0  0  0  0
  182.3820  176.9000  138.0500 N   0  0  0  0  0  0  0  0  0  0  0  0
  183.9170  177.8810  139.7450 N   0  0  0  0  0  2  0  0  0  0  0  0
  180.7540  176.0280  136.2800 C   0  0  0  0  0  2  0  0  0  0  0  0
  181.2590  175.0410  135.2380 C   0  0  0  0  0  3  0  0  0  0  0  0
  180.5660  173.7090  135.4360 C   0  0  0  0  0  1  0  0  0  0  0  0
  182.7570  174.8470  135.3750 C   0  0  0  0  0  1  0  0  0  0  0  0
  1  9  1  0  0  0  0
  2  3  1  6  0  0  0
  2  5  1  0  0  0  0
  3  7  1  0  0  0  0
  5 14  1  0  0  0  0
  6  1  1  0  0  0  0
  7  4  1  0  0  0  0
  8 27  1  6  0  0  0
  8 13  1  0  0  0  0
  8 12  1  0  0  0  0
 10 19  1  0  0  0  0
 11  4  2  0  0  0  0
 12 16  1  0  0  0  0
 13 18  1  6  0  0  0
 13  2  1  0  0  0  0
 14  1  2  0  0  0  0
 15 11  1  0  0  0  0
 16  5  2  0  0  0  0
 16 17  1  0  0  0  0
 17  6  2  0  0  0  0
 18 10  1  0  0  0  0
 19  3  2  0  0  0  0
 20 19  1  0  0  0  0
 20 15  2  0  0  0  0
 21 26  1  0  0  0  0
 24 27  1  0  0  0  0
 24 23  2  0  0  0  0
 25 26  1  0  0  0  0
 25 22  2  0  0  0  0
 26 24  1  0  0  0  0
 28 25  1  0  0  0  0
 29 31  1  0  0  0  0
 29 30  1  0  0  0  0
 29 28  1  0  0  0  0
M  END
>  <MODEL>
8

>  <REMARK>
 VINA RESULT:      -6.3      4.760      9.696
  Name = 
  3 active torsions:
  status: ('A' for Active; 'I' for Inactive)
    1  A    between atoms: C_1  and  C_24
    2  A    between atoms: C_15  and  N_23
    3  A    between atoms: C_19  and  C_24
                            x       y       z     vdW  Elec       q    Type
                         _______ _______ _______ _____ _____    ______ ____

>  <TORSDO>
F 3

$$$$
=
 OpenBabel10262419253D

 31 34  0  0  1  0  0  0  0  0999 V2000
  181.6460  178.7070  143.4370 C   0  0  0  0  0  0  0  0  0  0  0  0
  182.4560  178.2680  139.7520 C   0  0  2  0  0  3  0  0  0  0  0  0
  181.7060  179.3650  139.0180 C   0  0  0  0  0  0  0  0  0  0  0  0
  179.8530  180.8690  139.6750 C   0  0  0  0  0  3  0  0  0  0  0  0
  182.6380  178.5110  141.2310 C   0  0  0  0  0  0  0  0  0  0  0  0
  182.8890  179.0530  143.9700 C   0  0  0  0  0  3  0  0  0  0  0  0
  181.3250  180.6360  139.7190 C   0  0  0  0  0  2  0  0  0  0  0  0
  184.8820  178.8920  139.4390 C   0  0  2  0  0  3  0  0  0  0  0  0
  180.5060  178.6330  144.2840 N   0  0  0  0  0  1  0  0  0  0  0  0
  182.1780  178.0490  137.0090 C   0  0  0  0  0  2  0  0  0  0  0  0
  179.1870  181.0520  138.5360 C   0  0  0  0  0  3  0  0  0  0  0  0
  185.1470  178.8370  140.9440 C   0  0  0  0  0  2  0  0  0  0  0  0
  183.7750  177.9090  139.0290 C   0  0  2  0  0  3  0  0  0  0  0  0
  181.5210  178.4360  142.0730 C   0  0  0  0  0  3  0  0  0  0  0  0
  179.7840  180.9630  137.1910 C   0  0  0  0  0  3  0  0  0  0  0  0
  183.8940  178.8630  141.7700 C   0  0  0  0  0  0  0  0  0  0  0  0
  184.0100  179.1210  143.1400 C   0  0  0  0  0  3  0  0  0  0  0  0
  183.6220  177.8700  137.4910 C   0  0  0  0  0  2  0  0  0  0  0  0
  181.5450  179.2270  137.6870 C   0  0  0  0  0  0  0  0  0  0  0  0
  180.8070  180.1800  136.8290 C   0  0  0  0  0  3  0  0  0  0  0  0
  188.3770  178.1540  137.0330 C   0  0  0  0  0  1  0  0  0  0  0  0
  189.9490  177.4630  140.2580 O   0  0  0  0  0  0  0  0  0  0  0  0
  187.3720  177.9080  140.5310 O   0  0  0  0  0  0  0  0  0  0  0  0
  187.3360  178.1550  139.2950 C   0  0  0  0  0  0  0  0  0  0  0  0
  189.7660  177.5180  139.0130 C   0  0  0  0  0  0  0  0  0  0  0  0
  188.4960  177.9360  138.4700 N   0  0  0  0  0  0  0  0  0  0  0  0
  186.1230  178.6480  138.7040 N   0  0  0  0  0  2  0  0  0  0  0  0
  190.8970  177.1300  138.1080 C   0  0  0  0  0  2  0  0  0  0  0  0
  191.1600  175.6330  138.1800 C   0  0  0  0  0  3  0  0  0  0  0  0
  192.5290  175.3400  137.6000 C   0  0  0  0  0  1  0  0  0  0  0  0
  190.1130  174.8720  137.3890 C   0  0  0  0  0  1  0  0  0  0  0  0
  1  6  1  0  0  0  0
  1  9  1  0  0  0  0
  2  3  1  6  0  0  0
  2  5  1  0  0  0  0
  3  7  1  0  0  0  0
  4  7  1  0  0  0  0
  5 16  2  0  0  0  0
  5 14  1  0  0  0  0
  8 27  1  6  0  0  0
  8 12  1  0  0  0  0
 10 18  1  0  0  0  0
 10 19  1  0  0  0  0
 11  4  2  0  0  0  0
 12 16  1  0  0  0  0
 13 18  1  6  0  0  0
 13  8  1  0  0  0  0
 13  2  1  0  0  0  0
 14  1  2  0  0  0  0
 15 11  1  0  0  0  0
 16 17  1  0  0  0  0
 17  6  2  0  0  0  0
 19  3  2  0  0  0  0
 20 15  2  0  0  0  0
 20 19  1  0  0  0  0
 21 26  1  0  0  0  0
 24 23  2  0  0  0  0
 25 22  2  0  0  0  0
 26 25  1  0  0  0  0
 26 24  1  0  0  0  0
 27 24  1  0  0  0  0
 28 29  1  0  0  0  0
 28 25  1  0  0  0  0
 30 29  1  0  0  0  0
 31 29  1  0  0  0  0
M  END
>  <MODEL>
9

>  <REMARK>
 VINA RESULT:      -6.1      5.334      9.174
  Name = 
  3 active torsions:
  status: ('A' for Active; 'I' for Inactive)
    1  A    between atoms: C_1  and  C_24
    2  A    between atoms: C_15  and  N_23
    3  A    between atoms: C_19  and  C_24
                            x       y       z     vdW  Elec       q    Type
                         _______ _______ _______ _____ _____    ______ ____

>  <TORSDO>
F 3

$$$$
