=
 OpenBabel10262419483D

 25 29  0  0  1  0  0  0  0  0999 V2000
  185.9610  178.3930  143.0980 C   0  0  0  0  0  0  0  0  0  0  0  0
  187.0000  178.2730  142.1460 C   0  0  0  0  0  0  0  0  0  0  0  0
  184.3600  178.7340  141.3050 C   0  0  0  0  0  3  0  0  0  0  0  0
  185.3830  178.6240  140.3640 C   0  0  0  0  0  3  0  0  0  0  0  0
  184.6480  178.6170  142.6650 C   0  0  0  0  0  3  0  0  0  0  0  0
  186.6990  178.3930  140.7740 C   0  0  0  0  0  0  0  0  0  0  0  0
  186.2140  178.2750  144.5480 C   0  0  0  0  0  0  0  0  0  0  0  0
  186.7800  178.0360  147.2860 C   0  0  0  0  0  3  0  0  0  0  0  0
  185.2260  178.5850  145.5080 C   0  0  0  0  0  0  0  0  0  0  0  0
  185.5170  178.4630  146.8690 C   0  0  0  0  0  3  0  0  0  0  0  0
  187.7570  177.7180  146.3410 C   0  0  0  0  0  3  0  0  0  0  0  0
  183.8510  179.0110  145.1100 C   0  0  0  0  0  1  0  0  0  0  0  0
  187.4730  177.8340  144.9780 C   0  0  0  0  0  3  0  0  0  0  0  0
  187.7190  178.2720  139.7840 N   0  0  0  0  0  0  0  0  0  0  0  0
  188.3690  177.5700  138.6390 C   0  0  0  0  0  2  0  0  0  0  0  0
  188.9540  178.7350  139.0860 C   0  0  0  0  0  2  0  0  0  0  0  0
  188.4000  177.9530  142.5760 C   0  0  0  0  0  2  0  0  0  0  0  0
  190.0780  176.3070  141.7120 C   0  0  2  0  0  3  0  0  0  0  0  0
  189.8710  176.0130  143.1530 C   0  0  1  0  0  3  0  0  0  0  0  0
  191.1710  176.5080  142.6760 N   0  0  0  0  0  0  0  0  0  0  0  0
  188.7040  176.4860  142.3160 C   0  0  1  0  0  3  0  0  0  0  0  0
  191.6750  179.8120  144.5190 C   0  0  0  0  0  1  0  0  0  0  0  0
  191.5590  178.3510  144.2700 C   0  0  0  0  0  0  0  0  0  0  0  0
  191.7420  177.5190  145.2430 N   0  0  0  0  0  2  0  0  0  0  0  0
  191.2480  177.8810  142.9590 N   0  0  0  0  0  2  0  0  0  0  0  0
  1  7  1  0  0  0  0
  2 17  1  0  0  0  0
  2  1  2  0  0  0  0
  3  5  2  0  0  0  0
  4  6  2  0  0  0  0
  4  3  1  0  0  0  0
  5  1  1  0  0  0  0
  6  2  1  0  0  0  0
  7 13  2  0  0  0  0
  7  9  1  0  0  0  0
  9 10  2  0  0  0  0
 10  8  1  0  0  0  0
 11  8  2  0  0  0  0
 12  9  1  0  0  0  0
 13 11  1  0  0  0  0
 14  6  1  0  0  0  0
 15 16  1  0  0  0  0
 15 14  1  0  0  0  0
 16 14  1  0  0  0  0
 18 21  1  0  0  0  0
 18 20  1  1  0  0  0
 18 19  1  0  0  0  0
 19 20  1  1  0  0  0
 20 25  1  0  0  0  0
 21 17  1  1  0  0  0
 21 19  1  0  0  0  0
 23 22  1  0  0  0  0
 23 24  2  0  0  0  0
 25 23  1  0  0  0  0
M  END
>  <MODEL>
1

>  <REMARK>
 VINA RESULT:      -8.7      0.000      0.000
  Name = 
  5 active torsions:
  status: ('A' for Active; 'I' for Inactive)
    1  A    between atoms: C_1  and  C_5
    2  A    between atoms: C_3  and  C_16
    3  A    between atoms: N_13  and  C_24
    4  A    between atoms: N_15  and  N_25
    5  A    between atoms: C_16  and  C_23
                            x       y       z     vdW  Elec       q    Type
                         _______ _______ _______ _____ _____    ______ ____

>  <TORSDO>
F 5

$$$$
=
 OpenBabel10262419483D

 25 29  0  0  1  0  0  0  0  0999 V2000
  185.5450  178.2950  144.8560 C   0  0  0  0  0  0  0  0  0  0  0  0
  185.4420  178.2370  143.4470 C   0  0  0  0  0  0  0  0  0  0  0  0
  183.1920  178.8740  145.0010 C   0  0  0  0  0  3  0  0  0  0  0  0
  183.0890  178.8260  143.6120 C   0  0  0  0  0  3  0  0  0  0  0  0
  184.4130  178.6070  145.6200 C   0  0  0  0  0  3  0  0  0  0  0  0
  184.2040  178.5070  142.8310 C   0  0  0  0  0  0  0  0  0  0  0  0
  186.8140  178.0190  145.5580 C   0  0  0  0  0  0  0  0  0  0  0  0
  189.2620  177.4700  146.8160 C   0  0  0  0  0  3  0  0  0  0  0  0
  187.0220  178.3940  146.9040 C   0  0  0  0  0  0  0  0  0  0  0  0
  188.2450  178.1160  147.5210 C   0  0  0  0  0  3  0  0  0  0  0  0
  189.0580  177.0890  145.4880 C   0  0  0  0  0  3  0  0  0  0  0  0
  185.9520  179.0530  147.7090 C   0  0  0  0  0  1  0  0  0  0  0  0
  187.8380  177.3590  144.8640 C   0  0  0  0  0  3  0  0  0  0  0  0
  184.0600  178.4540  141.4130 N   0  0  0  0  0  0  0  0  0  0  0  0
  184.0610  179.0880  140.0630 C   0  0  0  0  0  2  0  0  0  0  0  0
  183.7980  177.7370  140.1300 C   0  0  0  0  0  2  0  0  0  0  0  0
  186.6160  177.8260  142.6100 C   0  0  0  0  0  2  0  0  0  0  0  0
  188.4030  179.0910  141.3940 C   0  0  2  0  0  3  0  0  0  0  0  0
  187.6480  178.3090  140.3820 C   0  0  1  0  0  3  0  0  0  0  0  0
  189.0570  177.9940  140.6630 N   0  0  0  0  0  0  0  0  0  0  0  0
  186.9150  178.8930  141.5690 C   0  0  1  0  0  3  0  0  0  0  0  0
  190.2950  175.3030  143.0680 C   0  0  0  0  0  1  0  0  0  0  0  0
  190.3060  176.4660  142.1440 C   0  0  0  0  0  0  0  0  0  0  0  0
  191.4120  177.0980  141.9240 N   0  0  0  0  0  2  0  0  0  0  0  0
  189.0950  176.8750  141.5090 N   0  0  0  0  0  2  0  0  0  0  0  0
  1  7  1  0  0  0  0
  1  5  1  0  0  0  0
  2  1  2  0  0  0  0
  3  5  2  0  0  0  0
  4  3  1  0  0  0  0
  6  2  1  0  0  0  0
  6  4  2  0  0  0  0
  7  9  1  0  0  0  0
  8 10  1  0  0  0  0
  9 10  2  0  0  0  0
  9 12  1  0  0  0  0
 11  8  2  0  0  0  0
 13 11  1  0  0  0  0
 13  7  2  0  0  0  0
 14  6  1  0  0  0  0
 15 16  1  0  0  0  0
 15 14  1  0  0  0  0
 16 14  1  0  0  0  0
 17  2  1  0  0  0  0
 18 20  1  1  0  0  0
 18 21  1  0  0  0  0
 19 20  1  1  0  0  0
 19 18  1  0  0  0  0
 19 21  1  0  0  0  0
 20 25  1  0  0  0  0
 21 17  1  1  0  0  0
 23 22  1  0  0  0  0
 24 23  2  0  0  0  0
 25 23  1  0  0  0  0
M  END
>  <MODEL>
2

>  <REMARK>
 VINA RESULT:      -8.7      1.624      3.262
  Name = 
  5 active torsions:
  status: ('A' for Active; 'I' for Inactive)
    1  A    between atoms: C_1  and  C_5
    2  A    between atoms: C_3  and  C_16
    3  A    between atoms: N_13  and  C_24
    4  A    between atoms: N_15  and  N_25
    5  A    between atoms: C_16  and  C_23
                            x       y       z     vdW  Elec       q    Type
                         _______ _______ _______ _____ _____    ______ ____

>  <TORSDO>
F 5

$$$$
=
 OpenBabel10262419483D

 25 29  0  0  1  0  0  0  0  0999 V2000
  185.8910  178.3030  145.5030 C   0  0  0  0  0  0  0  0  0  0  0  0
  186.0890  178.3890  144.1050 C   0  0  0  0  0  0  0  0  0  0  0  0
  183.5080  178.6330  145.1830 C   0  0  0  0  0  3  0  0  0  0  0  0
  183.7000  178.7260  143.8060 C   0  0  0  0  0  3  0  0  0  0  0  0
  184.5980  178.4210  146.0270 C   0  0  0  0  0  3  0  0  0  0  0  0
  184.9810  178.6030  143.2610 C   0  0  0  0  0  0  0  0  0  0  0  0
  187.0120  178.0770  146.4380 C   0  0  0  0  0  0  0  0  0  0  0  0
  189.1760  177.5910  148.1560 C   0  0  0  0  0  3  0  0  0  0  0  0
  187.1890  178.8620  147.5980 C   0  0  0  0  0  0  0  0  0  0  0  0
  188.2700  178.6130  148.4480 C   0  0  0  0  0  3  0  0  0  0  0  0
  189.0000  176.8050  147.0150 C   0  0  0  0  0  3  0  0  0  0  0  0
  186.2270  179.9410  147.9700 C   0  0  0  0  0  1  0  0  0  0  0  0
  187.9200  177.0460  146.1630 C   0  0  0  0  0  3  0  0  0  0  0  0
  185.1410  178.6900  141.8460 N   0  0  0  0  0  0  0  0  0  0  0  0
  184.6240  178.5750  140.4510 C   0  0  0  0  0  2  0  0  0  0  0  0
  185.9380  178.9610  140.6130 C   0  0  0  0  0  2  0  0  0  0  0  0
  187.4510  178.1860  143.5110 C   0  0  0  0  0  2  0  0  0  0  0  0
  188.6160  176.7260  141.8420 C   0  0  2  0  0  3  0  0  0  0  0  0
  188.9230  176.1870  143.1920 C   0  0  1  0  0  3  0  0  0  0  0  0
  189.9910  176.7680  142.3640 N   0  0  0  0  0  0  0  0  0  0  0  0
  187.5610  176.7870  142.9240 C   0  0  1  0  0  3  0  0  0  0  0  0
  191.3840  179.7180  144.3450 C   0  0  0  0  0  1  0  0  0  0  0  0
  191.1130  178.3200  143.9210 C   0  0  0  0  0  0  0  0  0  0  0  0
  191.6700  177.3400  144.5530 N   0  0  0  0  0  2  0  0  0  0  0  0
  190.2390  178.0730  142.8200 N   0  0  0  0  0  2  0  0  0  0  0  0
  1  5  1  0  0  0  0
  1  7  1  0  0  0  0
  2  1  2  0  0  0  0
  3  5  2  0  0  0  0
  4  3  1  0  0  0  0
  6  4  2  0  0  0  0
  6  2  1  0  0  0  0
  7  9  1  0  0  0  0
  8 10  1  0  0  0  0
  9 12  1  0  0  0  0
  9 10  2  0  0  0  0
 11  8  2  0  0  0  0
 13  7  2  0  0  0  0
 13 11  1  0  0  0  0
 14  6  1  0  0  0  0
 15 16  1  0  0  0  0
 15 14  1  0  0  0  0
 16 14  1  0  0  0  0
 17  2  1  0  0  0  0
 18 20  1  1  0  0  0
 18 21  1  0  0  0  0
 18 19  1  0  0  0  0
 19 20  1  1  0  0  0
 20 25  1  0  0  0  0
 21 19  1  0  0  0  0
 21 17  1  1  0  0  0
 23 22  1  0  0  0  0
 23 24  2  0  0  0  0
 25 23  1  0  0  0  0
M  END
>  <MODEL>
3

>  <REMARK>
 VINA RESULT:      -8.6      1.476      2.544
  Name = 
  5 active torsions:
  status: ('A' for Active; 'I' for Inactive)
    1  A    between atoms: C_1  and  C_5
    2  A    between atoms: C_3  and  C_16
    3  A    between atoms: N_13  and  C_24
    4  A    between atoms: N_15  and  N_25
    5  A    between atoms: C_16  and  C_23
                            x       y       z     vdW  Elec       q    Type
                         _______ _______ _______ _____ _____    ______ ____

>  <TORSDO>
F 5

$$$$
=
 OpenBabel10262419483D

 25 29  0  0  1  0  0  0  0  0999 V2000
  185.3160  178.5120  144.1320 C   0  0  0  0  0  0  0  0  0  0  0  0
  186.5590  178.1580  144.7050 C   0  0  0  0  0  0  0  0  0  0  0  0
  184.3450  178.6910  146.3490 C   0  0  0  0  0  3  0  0  0  0  0  0
  185.5670  178.3330  146.9180 C   0  0  0  0  0  3  0  0  0  0  0  0
  184.2220  178.7820  144.9630 C   0  0  0  0  0  3  0  0  0  0  0  0
  186.6740  178.0680  146.1070 C   0  0  0  0  0  0  0  0  0  0  0  0
  185.1350  178.6240  142.6700 C   0  0  0  0  0  0  0  0  0  0  0  0
  184.8770  178.8280  139.8840 C   0  0  0  0  0  3  0  0  0  0  0  0
  183.8550  178.6220  142.0730 C   0  0  0  0  0  0  0  0  0  0  0  0
  183.7370  178.7230  140.6840 C   0  0  0  0  0  3  0  0  0  0  0  0
  186.1440  178.8410  140.4700 C   0  0  0  0  0  3  0  0  0  0  0  0
  182.6080  178.5490  142.8890 C   0  0  0  0  0  1  0  0  0  0  0  0
  186.2710  178.7430  141.8580 C   0  0  0  0  0  3  0  0  0  0  0  0
  187.9120  177.7180  146.7230 N   0  0  0  0  0  0  0  0  0  0  0  0
  188.9500  176.7250  147.1260 C   0  0  0  0  0  2  0  0  0  0  0  0
  189.1710  178.0450  147.4570 C   0  0  0  0  0  2  0  0  0  0  0  0
  187.7670  177.9430  143.8440 C   0  0  0  0  0  2  0  0  0  0  0  0
  188.8350  176.2790  142.3060 C   0  0  2  0  0  3  0  0  0  0  0  0
  189.2930  175.9660  143.6840 C   0  0  1  0  0  3  0  0  0  0  0  0
  190.2500  176.4450  142.6740 N   0  0  0  0  0  0  0  0  0  0  0  0
  187.8860  176.4750  143.4670 C   0  0  1  0  0  3  0  0  0  0  0  0
  191.5080  179.7110  144.1940 C   0  0  0  0  0  1  0  0  0  0  0  0
  191.2500  178.2590  144.0150 C   0  0  0  0  0  0  0  0  0  0  0  0
  191.7250  177.4140  144.8700 N   0  0  0  0  0  2  0  0  0  0  0  0
  190.4790  177.8110  142.9010 N   0  0  0  0  0  2  0  0  0  0  0  0
  1  2  2  0  0  0  0
  1  5  1  0  0  0  0
  2  6  1  0  0  0  0
  3  4  1  0  0  0  0
  5  3  2  0  0  0  0
  6 14  1  0  0  0  0
  6  4  2  0  0  0  0
  7  1  1  0  0  0  0
  8 11  2  0  0  0  0
  8 10  1  0  0  0  0
  9  7  1  0  0  0  0
  9 12  1  0  0  0  0
 10  9  2  0  0  0  0
 11 13  1  0  0  0  0
 13  7  2  0  0  0  0
 14 15  1  0  0  0  0
 14 16  1  0  0  0  0
 15 16  1  0  0  0  0
 17  2  1  0  0  0  0
 18 20  1  1  0  0  0
 18 21  1  0  0  0  0
 18 19  1  0  0  0  0
 19 20  1  1  0  0  0
 20 25  1  0  0  0  0
 21 19  1  0  0  0  0
 21 17  1  1  0  0  0
 23 22  1  0  0  0  0
 23 24  2  0  0  0  0
 25 23  1  0  0  0  0
M  END
>  <MODEL>
4

>  <REMARK>
 VINA RESULT:      -8.4      1.458      4.416
  Name = 
  5 active torsions:
  status: ('A' for Active; 'I' for Inactive)
    1  A    between atoms: C_1  and  C_5
    2  A    between atoms: C_3  and  C_16
    3  A    between atoms: N_13  and  C_24
    4  A    between atoms: N_15  and  N_25
    5  A    between atoms: C_16  and  C_23
                            x       y       z     vdW  Elec       q    Type
                         _______ _______ _______ _____ _____    ______ ____

>  <TORSDO>
F 5

$$$$
=
 OpenBabel10262419483D

 25 29  0  0  1  0  0  0  0  0999 V2000
  188.4090  177.6460  145.2310 C   0  0  0  0  0  0  0  0  0  0  0  0
  187.1600  177.9680  144.6510 C   0  0  0  0  0  0  0  0  0  0  0  0
  187.5470  178.2530  147.4170 C   0  0  0  0  0  3  0  0  0  0  0  0
  186.3180  178.5790  146.8470 C   0  0  0  0  0  3  0  0  0  0  0  0
  188.5870  177.7860  146.6130 C   0  0  0  0  0  3  0  0  0  0  0  0
  186.1160  178.4380  145.4720 C   0  0  0  0  0  0  0  0  0  0  0  0
  189.5400  177.1460  144.4230 C   0  0  0  0  0  0  0  0  0  0  0  0
  191.6420  176.1240  142.8710 C   0  0  0  0  0  3  0  0  0  0  0  0
  190.6380  177.9670  144.0850 C   0  0  0  0  0  0  0  0  0  0  0  0
  191.6800  177.4490  143.3110 C   0  0  0  0  0  3  0  0  0  0  0  0
  190.5630  175.3050  143.2100 C   0  0  0  0  0  3  0  0  0  0  0  0
  190.7410  179.3770  144.5630 C   0  0  0  0  0  1  0  0  0  0  0  0
  189.5190  175.8150  143.9860 C   0  0  0  0  0  3  0  0  0  0  0  0
  184.8410  178.7680  144.9230 N   0  0  0  0  0  0  0  0  0  0  0  0
  183.9670  179.5330  143.9870 C   0  0  0  0  0  2  0  0  0  0  0  0
  183.3580  178.6280  144.8300 C   0  0  0  0  0  2  0  0  0  0  0  0
  186.9170  177.7500  143.1870 C   0  0  0  0  0  2  0  0  0  0  0  0
  187.9750  177.8820  140.9210 C   0  0  2  0  0  3  0  0  0  0  0  0
  187.6590  179.2710  141.3430 C   0  0  1  0  0  3  0  0  0  0  0  0
  186.9610  178.6670  140.1980 N   0  0  0  0  0  0  0  0  0  0  0  0
  188.1000  178.2610  142.3790 C   0  0  1  0  0  3  0  0  0  0  0  0
  183.1800  178.3330  140.5900 C   0  0  0  0  0  1  0  0  0  0  0  0
  184.5010  178.8450  140.1410 C   0  0  0  0  0  0  0  0  0  0  0  0
  184.5550  179.8340  139.3100 N   0  0  0  0  0  2  0  0  0  0  0  0
  185.6960  178.2390  140.6310 N   0  0  0  0  0  2  0  0  0  0  0  0
  1  5  1  0  0  0  0
  2  1  2  0  0  0  0
  2  6  1  0  0  0  0
  4  3  1  0  0  0  0
  5  3  2  0  0  0  0
  6  4  2  0  0  0  0
  7  1  1  0  0  0  0
  8 11  2  0  0  0  0
  8 10  1  0  0  0  0
  9  7  1  0  0  0  0
  9 12  1  0  0  0  0
 10  9  2  0  0  0  0
 11 13  1  0  0  0  0
 13  7  2  0  0  0  0
 14  6  1  0  0  0  0
 15 16  1  0  0  0  0
 15 14  1  0  0  0  0
 16 14  1  0  0  0  0
 17  2  1  0  0  0  0
 18 20  1  1  0  0  0
 18 19  1  0  0  0  0
 18 21  1  0  0  0  0
 19 20  1  1  0  0  0
 19 21  1  0  0  0  0
 20 25  1  0  0  0  0
 21 17  1  1  0  0  0
 23 22  1  0  0  0  0
 23 25  1  0  0  0  0
 24 23  2  0  0  0  0
M  END
>  <MODEL>
5

>  <REMARK>
 VINA RESULT:      -8.2      2.369      5.943
  Name = 
  5 active torsions:
  status: ('A' for Active; 'I' for Inactive)
    1  A    between atoms: C_1  and  C_5
    2  A    between atoms: C_3  and  C_16
    3  A    between atoms: N_13  and  C_24
    4  A    between atoms: N_15  and  N_25
    5  A    between atoms: C_16  and  C_23
                            x       y       z     vdW  Elec       q    Type
                         _______ _______ _______ _____ _____    ______ ____

>  <TORSDO>
F 5

$$$$
=
 OpenBabel10262419483D

 25 29  0  0  1  0  0  0  0  0999 V2000
  186.1510  178.2990  144.1820 C   0  0  0  0  0  0  0  0  0  0  0  0
  187.3030  177.9030  144.9000 C   0  0  0  0  0  0  0  0  0  0  0  0
  184.9360  178.5410  146.2700 C   0  0  0  0  0  3  0  0  0  0  0  0
  186.0680  178.1420  146.9800 C   0  0  0  0  0  3  0  0  0  0  0  0
  184.9800  178.6210  144.8780 C   0  0  0  0  0  3  0  0  0  0  0  0
  187.2500  177.8250  146.3070 C   0  0  0  0  0  0  0  0  0  0  0  0
  186.1470  178.4020  142.7090 C   0  0  0  0  0  0  0  0  0  0  0  0
  186.2240  178.5750  139.9100 C   0  0  0  0  0  3  0  0  0  0  0  0
  184.9510  178.5520  141.9730 C   0  0  0  0  0  0  0  0  0  0  0  0
  184.9990  178.6370  140.5790 C   0  0  0  0  0  3  0  0  0  0  0  0
  187.4100  178.4370  140.6330 C   0  0  0  0  0  3  0  0  0  0  0  0
  183.6230  178.6580  142.6460 C   0  0  0  0  0  1  0  0  0  0  0  0
  187.3710  178.3550  142.0270 C   0  0  0  0  0  3  0  0  0  0  0  0
  188.3930  177.4340  147.0650 N   0  0  0  0  0  0  0  0  0  0  0  0
  189.3990  176.4250  147.5080 C   0  0  0  0  0  2  0  0  0  0  0  0
  189.5070  177.6990  148.0230 C   0  0  0  0  0  2  0  0  0  0  0  0
  188.5950  177.6310  144.1880 C   0  0  0  0  0  2  0  0  0  0  0  0
  191.0780  177.7590  144.4800 C   0  0  2  0  0  3  0  0  0  0  0  0
  190.6300  179.0620  143.9240 C   0  0  1  0  0  3  0  0  0  0  0  0
  191.4860  178.1690  143.1270 N   0  0  0  0  0  0  0  0  0  0  0  0
  189.7420  178.3270  144.9020 C   0  0  1  0  0  3  0  0  0  0  0  0
  190.2500  176.4490  139.9530 C   0  0  0  0  0  1  0  0  0  0  0  0
  191.1230  177.2120  140.8820 C   0  0  0  0  0  0  0  0  0  0  0  0
  192.2830  177.6180  140.4810 N   0  0  0  0  0  2  0  0  0  0  0  0
  190.6730  177.4880  142.2070 N   0  0  0  0  0  2  0  0  0  0  0  0
  1  5  2  0  0  0  0
  1  2  1  0  0  0  0
  2  6  2  0  0  0  0
  3  4  2  0  0  0  0
  5  3  1  0  0  0  0
  6  4  1  0  0  0  0
  6 14  1  0  0  0  0
  7  1  1  0  0  0  0
  8 10  2  0  0  0  0
  8 11  1  0  0  0  0
  9 12  1  0  0  0  0
  9  7  2  0  0  0  0
 10  9  1  0  0  0  0
 11 13  2  0  0  0  0
 13  7  1  0  0  0  0
 14 15  1  0  0  0  0
 14 16  1  0  0  0  0
 15 16  1  0  0  0  0
 17  2  1  0  0  0  0
 18 20  1  6  0  0  0
 18 21  1  0  0  0  0
 19 20  1  6  0  0  0
 19 18  1  0  0  0  0
 19 21  1  0  0  0  0
 21 17  1  6  0  0  0
 22 23  1  0  0  0  0
 23 25  1  0  0  0  0
 24 23  2  0  0  0  0
 25 20  1  0  0  0  0
M  END
>  <MODEL>
6

>  <REMARK>
 VINA RESULT:      -8.1      1.484      4.899
  Name = 
  5 active torsions:
  status: ('A' for Active; 'I' for Inactive)
    1  A    between atoms: C_1  and  C_5
    2  A    between atoms: C_3  and  C_16
    3  A    between atoms: N_13  and  C_24
    4  A    between atoms: N_15  and  N_25
    5  A    between atoms: C_16  and  C_23
                            x       y       z     vdW  Elec       q    Type
                         _______ _______ _______ _____ _____    ______ ____

>  <TORSDO>
F 5

$$$$
=
 OpenBabel10262419483D

 25 29  0  0  1  0  0  0  0  0999 V2000
  187.8360  177.6100  143.5160 C   0  0  0  0  0  0  0  0  0  0  0  0
  187.1260  177.8780  142.3230 C   0  0  0  0  0  0  0  0  0  0  0  0
  185.9370  178.3810  144.8170 C   0  0  0  0  0  3  0  0  0  0  0  0
  185.2380  178.6540  143.6420 C   0  0  0  0  0  3  0  0  0  0  0  0
  187.2290  177.8590  144.7530 C   0  0  0  0  0  3  0  0  0  0  0  0
  185.8210  178.4040  142.3970 C   0  0  0  0  0  0  0  0  0  0  0  0
  189.2050  177.0560  143.5020 C   0  0  0  0  0  0  0  0  0  0  0  0
  191.7730  175.9270  143.4440 C   0  0  0  0  0  3  0  0  0  0  0  0
  190.3410  177.8620  143.7320 C   0  0  0  0  0  0  0  0  0  0  0  0
  191.6160  177.2910  143.7000 C   0  0  0  0  0  3  0  0  0  0  0  0
  190.6530  175.1230  143.2270 C   0  0  0  0  0  3  0  0  0  0  0  0
  190.2210  179.3160  144.0450 C   0  0  0  0  0  1  0  0  0  0  0  0
  189.3740  175.6850  143.2590 C   0  0  0  0  0  3  0  0  0  0  0  0
  185.0720  178.6820  141.2160 N   0  0  0  0  0  0  0  0  0  0  0  0
  183.8080  178.6730  140.4230 C   0  0  0  0  0  2  0  0  0  0  0  0
  184.9310  179.2010  139.8230 C   0  0  0  0  0  2  0  0  0  0  0  0
  187.7200  177.5440  140.9870 C   0  0  0  0  0  2  0  0  0  0  0  0
  189.9190  177.8560  139.8300 C   0  0  2  0  0  3  0  0  0  0  0  0
  188.9380  178.7520  139.1640 C   0  0  1  0  0  3  0  0  0  0  0  0
  189.5230  177.6170  138.4330 N   0  0  0  0  0  0  0  0  0  0  0  0
  188.8390  178.5190  140.6560 C   0  0  1  0  0  3  0  0  0  0  0  0
  186.9200  175.0850  137.2600 C   0  0  0  0  0  1  0  0  0  0  0  0
  187.8700  176.2270  137.2390 C   0  0  0  0  0  0  0  0  0  0  0  0
  188.0390  176.8990  136.1480 N   0  0  0  0  0  2  0  0  0  0  0  0
  188.5860  176.5710  138.4250 N   0  0  0  0  0  2  0  0  0  0  0  0
  1  5  1  0  0  0  0
  2  6  1  0  0  0  0
  2  1  2  0  0  0  0
  4  3  1  0  0  0  0
  5  3  2  0  0  0  0
  6  4  2  0  0  0  0
  7  1  1  0  0  0  0
  7  9  1  0  0  0  0
  8 10  1  0  0  0  0
  9 12  1  0  0  0  0
 10  9  2  0  0  0  0
 11 13  1  0  0  0  0
 11  8  2  0  0  0  0
 13  7  2  0  0  0  0
 14  6  1  0  0  0  0
 15 14  1  0  0  0  0
 16 15  1  0  0  0  0
 16 14  1  0  0  0  0
 17  2  1  0  0  0  0
 18 20  1  6  0  0  0
 18 21  1  0  0  0  0
 19 20  1  6  0  0  0
 19 18  1  0  0  0  0
 19 21  1  0  0  0  0
 21 17  1  6  0  0  0
 23 22  1  0  0  0  0
 23 25  1  0  0  0  0
 24 23  2  0  0  0  0
 25 20  1  0  0  0  0
M  END
>  <MODEL>
7

>  <REMARK>
 VINA RESULT:      -8.1      2.369      5.146
  Name = 
  5 active torsions:
  status: ('A' for Active; 'I' for Inactive)
    1  A    between atoms: C_1  and  C_5
    2  A    between atoms: C_3  and  C_16
    3  A    between atoms: N_13  and  C_24
    4  A    between atoms: N_15  and  N_25
    5  A    between atoms: C_16  and  C_23
                            x       y       z     vdW  Elec       q    Type
                         _______ _______ _______ _____ _____    ______ ____

>  <TORSDO>
F 5

$$$$
=
 OpenBabel10262419483D

 25 29  0  0  1  0  0  0  0  0999 V2000
  187.1620  177.8750  145.5550 C   0  0  0  0  0  0  0  0  0  0  0  0
  188.4920  177.4200  145.7160 C   0  0  0  0  0  0  0  0  0  0  0  0
  186.8330  177.7520  147.9570 C   0  0  0  0  0  3  0  0  0  0  0  0
  188.1400  177.2950  148.1180 C   0  0  0  0  0  3  0  0  0  0  0  0
  186.3480  178.0420  146.6820 C   0  0  0  0  0  3  0  0  0  0  0  0
  188.9730  177.1290  147.0080 C   0  0  0  0  0  0  0  0  0  0  0  0
  186.6030  178.1980  144.2270 C   0  0  0  0  0  0  0  0  0  0  0  0
  185.6100  178.7730  141.6660 C   0  0  0  0  0  3  0  0  0  0  0  0
  185.2980  178.7140  144.0700 C   0  0  0  0  0  0  0  0  0  0  0  0
  184.8120  178.9970  142.7900 C   0  0  0  0  0  3  0  0  0  0  0  0
  186.9050  178.2720  141.8160 C   0  0  0  0  0  3  0  0  0  0  0  0
  184.4220  179.0040  145.2430 C   0  0  0  0  0  1  0  0  0  0  0  0
  187.3990  177.9900  143.0920 C   0  0  0  0  0  3  0  0  0  0  0  0
  190.3090  176.6730  147.2100 N   0  0  0  0  0  0  0  0  0  0  0  0
  191.7000  176.8490  147.7210 C   0  0  0  0  0  2  0  0  0  0  0  0
  191.4030  175.6640  147.0820 C   0  0  0  0  0  2  0  0  0  0  0  0
  189.4110  177.3090  144.5360 C   0  0  0  0  0  2  0  0  0  0  0  0
  191.7900  177.6620  143.8390 C   0  0  2  0  0  3  0  0  0  0  0  0
  191.0750  178.9490  143.6370 C   0  0  1  0  0  3  0  0  0  0  0  0
  191.5950  178.2000  142.4830 N   0  0  0  0  0  0  0  0  0  0  0  0
  190.7020  178.0660  144.8080 C   0  0  1  0  0  3  0  0  0  0  0  0
  189.4130  176.3780  139.9370 C   0  0  0  0  0  1  0  0  0  0  0  0
  190.5420  177.1540  140.5110 C   0  0  0  0  0  0  0  0  0  0  0  0
  191.5290  177.5040  139.7540 N   0  0  0  0  0  2  0  0  0  0  0  0
  190.5270  177.5050  141.8940 N   0  0  0  0  0  2  0  0  0  0  0  0
  1  2  2  0  0  0  0
  1  5  1  0  0  0  0
  2  6  1  0  0  0  0
  3  4  1  0  0  0  0
  5  3  2  0  0  0  0
  6 14  1  0  0  0  0
  6  4  2  0  0  0  0
  7  1  1  0  0  0  0
  8 11  2  0  0  0  0
  8 10  1  0  0  0  0
  9  7  1  0  0  0  0
  9 12  1  0  0  0  0
 10  9  2  0  0  0  0
 11 13  1  0  0  0  0
 13  7  2  0  0  0  0
 14 15  1  0  0  0  0
 16 14  1  0  0  0  0
 16 15  1  0  0  0  0
 17  2  1  0  0  0  0
 18 20  1  6  0  0  0
 18 21  1  0  0  0  0
 19 20  1  6  0  0  0
 19 18  1  0  0  0  0
 19 21  1  0  0  0  0
 21 17  1  6  0  0  0
 22 23  1  0  0  0  0
 23 25  1  0  0  0  0
 24 23  2  0  0  0  0
 25 20  1  0  0  0  0
M  END
>  <MODEL>
8

>  <REMARK>
 VINA RESULT:      -8.1      1.713      5.111
  Name = 
  5 active torsions:
  status: ('A' for Active; 'I' for Inactive)
    1  A    between atoms: C_1  and  C_5
    2  A    between atoms: C_3  and  C_16
    3  A    between atoms: N_13  and  C_24
    4  A    between atoms: N_15  and  N_25
    5  A    between atoms: C_16  and  C_23
                            x       y       z     vdW  Elec       q    Type
                         _______ _______ _______ _____ _____    ______ ____

>  <TORSDO>
F 5

$$$$
=
 OpenBabel10262419483D

 25 29  0  0  1  0  0  0  0  0999 V2000
  189.0310  177.8490  141.8810 C   0  0  0  0  0  0  0  0  0  0  0  0
  189.4810  177.3280  140.6450 C   0  0  0  0  0  0  0  0  0  0  0  0
  191.3200  177.9110  142.6860 C   0  0  0  0  0  3  0  0  0  0  0  0
  191.7660  177.3900  141.4720 C   0  0  0  0  0  3  0  0  0  0  0  0
  189.9600  178.1420  142.8870 C   0  0  0  0  0  3  0  0  0  0  0  0
  190.8580  177.0990  140.4510 C   0  0  0  0  0  0  0  0  0  0  0  0
  187.6020  178.1130  142.1430 C   0  0  0  0  0  0  0  0  0  0  0  0
  184.8810  178.6540  142.5620 C   0  0  0  0  0  3  0  0  0  0  0  0
  186.9210  177.5310  143.2340 C   0  0  0  0  0  0  0  0  0  0  0  0
  185.5660  177.8060  143.4350 C   0  0  0  0  0  3  0  0  0  0  0  0
  185.5510  179.2410  141.4870 C   0  0  0  0  0  3  0  0  0  0  0  0
  187.6200  176.6470  144.2140 C   0  0  0  0  0  1  0  0  0  0  0  0
  186.9060  178.9730  141.2810 C   0  0  0  0  0  3  0  0  0  0  0  0
  191.3490  176.5790  139.2170 N   0  0  0  0  0  0  0  0  0  0  0  0
  192.2090  176.6610  138.0010 C   0  0  0  0  0  2  0  0  0  0  0  0
  191.4120  175.5460  138.1410 C   0  0  0  0  0  2  0  0  0  0  0  0
  188.5180  177.0820  139.5220 C   0  0  0  0  0  2  0  0  0  0  0  0
  188.6530  177.7120  137.1020 C   0  0  2  0  0  3  0  0  0  0  0  0
  187.3630  178.2330  137.6240 C   0  0  1  0  0  3  0  0  0  0  0  0
  187.3780  177.1650  136.6120 N   0  0  0  0  0  0  0  0  0  0  0  0
  188.5800  178.2260  138.5220 C   0  0  1  0  0  3  0  0  0  0  0  0
  186.2120  173.6080  137.3560 C   0  0  0  0  0  1  0  0  0  0  0  0
  186.3860  174.9060  136.6530 C   0  0  0  0  0  0  0  0  0  0  0  0
  185.8390  175.0850  135.4960 N   0  0  0  0  0  2  0  0  0  0  0  0
  187.1560  175.9410  137.2630 N   0  0  0  0  0  2  0  0  0  0  0  0
  1  7  1  0  0  0  0
  1  5  1  0  0  0  0
  2  1  2  0  0  0  0
  3  5  2  0  0  0  0
  4  3  1  0  0  0  0
  6  2  1  0  0  0  0
  6  4  2  0  0  0  0
  7  9  1  0  0  0  0
  8 10  1  0  0  0  0
  9 10  2  0  0  0  0
  9 12  1  0  0  0  0
 11  8  2  0  0  0  0
 13 11  1  0  0  0  0
 13  7  2  0  0  0  0
 14  6  1  0  0  0  0
 15 16  1  0  0  0  0
 15 14  1  0  0  0  0
 16 14  1  0  0  0  0
 17  2  1  0  0  0  0
 18 20  1  1  0  0  0
 18 19  1  0  0  0  0
 18 21  1  0  0  0  0
 19 20  1  1  0  0  0
 19 21  1  0  0  0  0
 20 25  1  0  0  0  0
 21 17  1  1  0  0  0
 23 25  1  0  0  0  0
 23 22  1  0  0  0  0
 24 23  2  0  0  0  0
M  END
>  <MODEL>
9

>  <REMARK>
 VINA RESULT:      -8.1      2.556      5.951
  Name = 
  5 active torsions:
  status: ('A' for Active; 'I' for Inactive)
    1  A    between atoms: C_1  and  C_5
    2  A    between atoms: C_3  and  C_16
    3  A    between atoms: N_13  and  C_24
    4  A    between atoms: N_15  and  N_25
    5  A    between atoms: C_16  and  C_23
                            x       y       z     vdW  Elec       q    Type
                         _______ _______ _______ _____ _____    ______ ____

>  <TORSDO>
F 5

$$$$
