=
 OpenBabel10262422413D

 43 47  0  0  1  0  0  0  0  0999 V2000
  183.0490  175.9360  138.6740 C   0  0  0  0  0  2  0  0  0  0  0  0
  183.0480  176.9400  137.5100 C   0  0  1  0  0  3  0  0  0  0  0  0
  182.6160  176.5980  139.9770 C   0  0  0  0  0  2  0  0  0  0  0  0
  183.3290  178.3900  137.9360 C   0  0  0  0  0  2  0  0  0  0  0  0
  184.2210  178.4550  139.1750 C   0  0  0  0  0  2  0  0  0  0  0  0
  183.5910  177.7170  140.3740 C   0  0  1  0  0  3  0  0  0  0  0  0
  184.9090  175.4340  136.6720 N   0  0  0  0  0  2  0  0  0  0  0  0
  183.9970  176.5130  136.4400 C   0  0  0  0  0  0  0  0  0  0  0  0
  184.0070  177.1340  135.3440 O   0  0  0  0  0  0  0  0  0  0  0  0
  185.8780  174.9830  135.6810 C   0  0  0  0  0  2  0  0  0  0  0  0
  188.1620  174.4520  136.6250 N   0  0  0  0  0  2  0  0  0  0  0  0
  187.6020  176.6040  135.8700 O   0  0  0  0  0  0  0  0  0  0  0  0
  187.2560  175.4090  136.0610 C   0  0  0  0  0  0  0  0  0  0  0  0
  189.5150  174.6980  137.0260 C   0  0  0  0  0  0  0  0  0  0  0  0
  190.2120  173.7400  137.4550 O   0  0  0  0  0  0  0  0  0  0  0  0
  190.1220  176.0630  136.9640 C   0  0  0  0  0  2  0  0  0  0  0  0
  190.2310  176.6570  138.3310 C   0  0  0  0  0  0  0  0  0  0  0  0
  189.1120  177.6980  140.3080 C   0  0  0  0  0  2  0  0  0  0  0  0
  191.5700  177.3990  140.3570 C   0  0  0  0  0  2  0  0  0  0  0  0
  190.2820  177.1800  141.1380 C   0  0  0  0  0  2  0  0  0  0  0  0
  191.5490  176.5730  139.0690 C   0  0  0  0  0  2  0  0  0  0  0  0
  189.1110  177.0970  138.9280 C   0  0  0  0  0  3  0  0  0  0  0  0
  182.9640  178.6580  141.4120 C   0  0  2  0  0  3  0  0  0  0  0  0
  186.7540  178.1350  146.6970 C   0  0  0  0  0  0  0  0  0  0  0  0
  183.6340  178.6130  142.7590 C   0  0  0  0  0  0  0  0  0  0  0  0
  184.8330  178.5880  145.2960 C   0  0  0  0  0  0  0  0  0  0  0  0
  187.4730  177.7030  145.5780 C   0  0  0  0  0  3  0  0  0  0  0  0
  187.3370  178.1260  147.9190 F   0  0  0  0  0  0  0  0  0  0  0  0
  185.5590  178.1520  144.1650 C   0  0  0  0  0  0  0  0  0  0  0  0
  185.4340  178.5780  146.5560 C   0  0  0  0  0  3  0  0  0  0  0  0
  186.8770  177.7110  144.3120 C   0  0  0  0  0  3  0  0  0  0  0  0
  184.9580  178.1680  142.9040 C   0  0  0  0  0  3  0  0  0  0  0  0
  182.9200  179.0420  143.8830 C   0  0  0  0  0  3  0  0  0  0  0  0
  183.5140  179.0300  145.1480 C   0  0  0  0  0  3  0  0  0  0  0  0
  181.4500  178.4680  141.4950 C   0  0  0  0  0  2  0  0  0  0  0  0
  179.0200  179.9020  139.0440 C   0  0  0  0  0  2  0  0  0  0  0  0
  179.1240  181.3310  139.5920 C   0  0  1  0  0  3  0  0  0  0  0  0
  179.8060  180.1180  141.7340 C   0  0  0  0  0  2  0  0  0  0  0  0
  180.0290  178.9330  139.6900 C   0  0  0  0  0  2  0  0  0  0  0  0
  180.7680  179.5460  140.7970 N   0  0  0  0  0  0  0  0  0  0  0  0
  179.1300  181.3500  141.1260 C   0  0  0  0  0  2  0  0  0  0  0  0
  180.0400  182.1150  137.7330 C   0  0  0  0  0  1  0  0  0  0  0  0
  180.2770  181.9480  139.1000 O   0  0  0  0  0  0  0  0  0  0  0  0
  1  3  1  0  0  0  0
  2  8  1  6  0  0  0
  2  4  1  0  0  0  0
  2  1  1  0  0  0  0
  3  6  1  0  0  0  0
  4  5  1  0  0  0  0
  5  6  1  0  0  0  0
  6 23  1  1  0  0  0
  8  7  1  0  0  0  0
  9  8  2  0  0  0  0
 10 13  1  0  0  0  0
 10  7  1  0  0  0  0
 11 14  1  0  0  0  0
 12 13  2  0  0  0  0
 13 11  1  0  0  0  0
 14 15  2  0  0  0  0
 16 14  1  0  0  0  0
 16 17  1  0  0  0  0
 17 22  2  0  0  0  0
 17 21  1  0  0  0  0
 18 20  1  0  0  0  0
 19 20  1  0  0  0  0
 21 19  1  0  0  0  0
 22 18  1  0  0  0  0
 23 35  1  1  0  0  0
 23 25  1  0  0  0  0
 24 28  1  0  0  0  0
 25 32  2  0  0  0  0
 25 33  1  0  0  0  0
 26 30  2  0  0  0  0
 27 24  2  0  0  0  0
 29 31  2  0  0  0  0
 29 26  1  0  0  0  0
 30 24  1  0  0  0  0
 31 27  1  0  0  0  0
 32 29  1  0  0  0  0
 33 34  2  0  0  0  0
 34 26  1  0  0  0  0
 36 37  1  0  0  0  0
 36 39  1  0  0  0  0
 37 43  1  6  0  0  0
 37 41  1  0  0  0  0
 39 40  1  0  0  0  0
 40 35  1  0  0  0  0
 40 38  1  0  0  0  0
 41 38  1  0  0  0  0
 42 43  1  0  0  0  0
M  END
>  <MODEL>
1

>  <REMARK>
 VINA RESULT:      -9.2      0.000      0.000
  Name = 
  10 active torsions:
  status: ('A' for Active; 'I' for Inactive)
    1  A    between atoms: C_1  and  C_34
    2  A    between atoms: C_1  and  N_35
    3  A    between atoms: N_3  and  C_42
    4  A    between atoms: C_6  and  C_12
    5  A    between atoms: C_8  and  C_34
    6  A    between atoms: C_11  and  C_14
    7  A    between atoms: C_14  and  C_22
    8  A    between atoms: C_15  and  C_42
    9  A    between atoms: C_19  and  O_37
   10  A    between atoms: C_34  and  C_38
                            x       y       z     vdW  Elec       q    Type
                         _______ _______ _______ _____ _____    ______ ____

>  <TORSDO>
F 10

$$$$
=
 OpenBabel10262422413D

 43 47  0  0  1  0  0  0  0  0999 V2000
  188.2410  178.6960  136.9150 C   0  0  0  0  0  2  0  0  0  0  0  0
  187.7250  177.4010  136.2680 C   0  0  1  0  0  3  0  0  0  0  0  0
  189.4490  178.4270  137.8060 C   0  0  0  0  0  2  0  0  0  0  0  0
  187.9780  176.1390  137.1070 C   0  0  0  0  0  2  0  0  0  0  0  0
  187.9970  176.4470  138.6040 C   0  0  0  0  0  2  0  0  0  0  0  0
  189.0800  177.4850  138.9630 C   0  0  1  0  0  3  0  0  0  0  0  0
  185.2860  177.5120  136.9550 N   0  0  0  0  0  2  0  0  0  0  0  0
  186.2780  177.5210  135.9230 C   0  0  0  0  0  0  0  0  0  0  0  0
  185.9400  177.5970  134.7120 O   0  0  0  0  0  0  0  0  0  0  0  0
  183.8560  177.6000  136.6860 C   0  0  0  0  0  2  0  0  0  0  0  0
  182.5190  178.9660  138.3410 N   0  0  0  0  0  2  0  0  0  0  0  0
  182.9430  176.6800  138.6750 O   0  0  0  0  0  0  0  0  0  0  0  0
  183.0870  177.7060  137.9590 C   0  0  0  0  0  0  0  0  0  0  0  0
  181.7460  179.2270  139.5180 C   0  0  0  0  0  0  0  0  0  0  0  0
  181.2620  180.3770  139.6910 O   0  0  0  0  0  0  0  0  0  0  0  0
  181.5070  178.1770  140.5560 C   0  0  0  0  0  2  0  0  0  0  0  0
  182.3950  178.3920  141.7390 C   0  0  0  0  0  0  0  0  0  0  0  0
  184.6940  178.3920  142.7190 C   0  0  0  0  0  2  0  0  0  0  0  0
  182.7820  178.9700  144.1820 C   0  0  0  0  0  2  0  0  0  0  0  0
  184.1710  179.4010  143.7350 C   0  0  0  0  0  2  0  0  0  0  0  0
  181.8160  179.0040  142.9950 C   0  0  0  0  0  2  0  0  0  0  0  0
  183.7160  178.1890  141.5930 C   0  0  0  0  0  3  0  0  0  0  0  0
  190.3330  176.8700  139.5990 C   0  0  2  0  0  3  0  0  0  0  0  0
  189.4900  177.4380  146.0450 C   0  0  0  0  0  0  0  0  0  0  0  0
  190.3900  177.0170  141.0970 C   0  0  0  0  0  0  0  0  0  0  0  0
  190.5710  177.2570  143.8860 C   0  0  0  0  0  0  0  0  0  0  0  0
  188.2370  177.3870  145.4260 C   0  0  0  0  0  3  0  0  0  0  0  0
  189.5740  177.5490  147.3920 F   0  0  0  0  0  0  0  0  0  0  0  0
  189.3050  177.2060  143.2600 C   0  0  0  0  0  0  0  0  0  0  0  0
  190.6570  177.3730  145.2760 C   0  0  0  0  0  3  0  0  0  0  0  0
  188.1430  177.2710  144.0340 C   0  0  0  0  0  3  0  0  0  0  0  0
  189.2210  177.0840  141.8710 C   0  0  0  0  0  3  0  0  0  0  0  0
  191.6410  177.0710  141.7230 C   0  0  0  0  0  3  0  0  0  0  0  0
  191.7330  177.1910  143.1120 C   0  0  0  0  0  3  0  0  0  0  0  0
  191.6060  177.3510  138.9070 C   0  0  0  0  0  2  0  0  0  0  0  0
  191.9720  174.0830  137.1310 C   0  0  0  0  0  2  0  0  0  0  0  0
  193.4970  174.1820  137.0070 C   0  0  1  0  0  3  0  0  0  0  0  0
  193.0270  176.6880  137.1680 C   0  0  0  0  0  2  0  0  0  0  0  0
  191.3610  175.2090  137.9870 C   0  0  0  0  0  2  0  0  0  0  0  0
  192.3480  176.2210  138.3730 N   0  0  0  0  0  0  0  0  0  0  0  0
  193.9420  175.5950  136.6080 C   0  0  0  0  0  2  0  0  0  0  0  0
  195.4380  174.1880  138.0760 C   0  0  0  0  0  1  0  0  0  0  0  0
  194.0990  173.8120  138.2130 O   0  0  0  0  0  0  0  0  0  0  0  0
  1  3  1  0  0  0  0
  2  8  1  1  0  0  0
  2  1  1  0  0  0  0
  2  4  1  0  0  0  0
  3  6  1  0  0  0  0
  4  5  1  0  0  0  0
  5  6  1  0  0  0  0
  6 23  1  6  0  0  0
  8  7  1  0  0  0  0
  9  8  2  0  0  0  0
 10  7  1  0  0  0  0
 10 13  1  0  0  0  0
 11 14  1  0  0  0  0
 13 11  1  0  0  0  0
 13 12  2  0  0  0  0
 14 15  2  0  0  0  0
 14 16  1  0  0  0  0
 16 17  1  0  0  0  0
 17 21  1  0  0  0  0
 18 20  1  0  0  0  0
 20 19  1  0  0  0  0
 21 19  1  0  0  0  0
 22 17  2  0  0  0  0
 22 18  1  0  0  0  0
 23 35  1  6  0  0  0
 23 25  1  0  0  0  0
 24 28  1  0  0  0  0
 25 33  2  0  0  0  0
 25 32  1  0  0  0  0
 26 30  1  0  0  0  0
 27 24  1  0  0  0  0
 29 26  1  0  0  0  0
 29 31  1  0  0  0  0
 30 24  2  0  0  0  0
 31 27  2  0  0  0  0
 32 29  2  0  0  0  0
 33 34  1  0  0  0  0
 34 26  2  0  0  0  0
 36 39  1  0  0  0  0
 37 36  1  0  0  0  0
 37 43  1  1  0  0  0
 38 40  1  0  0  0  0
 39 40  1  0  0  0  0
 40 35  1  0  0  0  0
 41 37  1  0  0  0  0
 41 38  1  0  0  0  0
 42 43  1  0  0  0  0
M  END
>  <MODEL>
2

>  <REMARK>
 VINA RESULT:      -8.1      2.267      8.821
  Name = 
  10 active torsions:
  status: ('A' for Active; 'I' for Inactive)
    1  A    between atoms: C_1  and  C_34
    2  A    between atoms: C_1  and  N_35
    3  A    between atoms: N_3  and  C_42
    4  A    between atoms: C_6  and  C_12
    5  A    between atoms: C_8  and  C_34
    6  A    between atoms: C_11  and  C_14
    7  A    between atoms: C_14  and  C_22
    8  A    between atoms: C_15  and  C_42
    9  A    between atoms: C_19  and  O_37
   10  A    between atoms: C_34  and  C_38
                            x       y       z     vdW  Elec       q    Type
                         _______ _______ _______ _____ _____    ______ ____

>  <TORSDO>
F 10

$$$$
=
 OpenBabel10262422413D

 43 47  0  0  1  0  0  0  0  0999 V2000
  184.2240  179.3730  139.8370 C   0  0  0  0  0  2  0  0  0  0  0  0
  182.7700  178.9780  140.1400 C   0  0  1  0  0  3  0  0  0  0  0  0
  184.6360  178.9350  138.4360 C   0  0  0  0  0  2  0  0  0  0  0  0
  182.2990  177.7140  139.4020 C   0  0  0  0  0  2  0  0  0  0  0  0
  183.4530  176.7490  139.1350 C   0  0  0  0  0  2  0  0  0  0  0  0
  184.5680  177.4060  138.2960 C   0  0  1  0  0  3  0  0  0  0  0  0
  183.6510  178.9840  142.5190 N   0  0  0  0  0  2  0  0  0  0  0  0
  182.5540  178.8380  141.6100 C   0  0  0  0  0  0  0  0  0  0  0  0
  181.4020  178.5600  142.0380 O   0  0  0  0  0  0  0  0  0  0  0  0
  183.5150  178.8360  143.9630 C   0  0  0  0  0  2  0  0  0  0  0  0
  185.7310  177.6210  144.0380 N   0  0  0  0  0  2  0  0  0  0  0  0
  185.1720  179.2810  145.6040 O   0  0  0  0  0  0  0  0  0  0  0  0
  184.8450  178.6030  144.5950 C   0  0  0  0  0  0  0  0  0  0  0  0
  187.0400  177.2910  144.5170 C   0  0  0  0  0  0  0  0  0  0  0  0
  187.7270  176.4440  143.8870 O   0  0  0  0  0  0  0  0  0  0  0  0
  187.6120  177.9150  145.7500 C   0  0  0  0  0  2  0  0  0  0  0  0
  189.0730  177.6240  145.8600 C   0  0  0  0  0  0  0  0  0  0  0  0
  190.9550  176.5500  147.1070 C   0  0  0  0  0  2  0  0  0  0  0  0
  191.4700  177.8140  145.0410 C   0  0  0  0  0  2  0  0  0  0  0  0
  191.6980  176.5020  145.7770 C   0  0  0  0  0  2  0  0  0  0  0  0
  189.9850  177.9750  144.7050 C   0  0  0  0  0  2  0  0  0  0  0  0
  189.5050  176.9080  146.9120 C   0  0  0  0  0  3  0  0  0  0  0  0
  184.5550  176.9840  136.8210 C   0  0  2  0  0  3  0  0  0  0  0  0
  181.7120  171.1640  136.0310 C   0  0  0  0  0  0  0  0  0  0  0  0
  183.7060  175.7720  136.5430 C   0  0  0  0  0  0  0  0  0  0  0  0
  182.0560  173.5610  136.0340 C   0  0  0  0  0  0  0  0  0  0  0  0
  183.0060  170.9740  136.5250 C   0  0  0  0  0  3  0  0  0  0  0  0
  180.9160  170.0950  135.7900 F   0  0  0  0  0  0  0  0  0  0  0  0
  183.3640  173.3680  136.5330 C   0  0  0  0  0  0  0  0  0  0  0  0
  181.2360  172.4570  135.7860 C   0  0  0  0  0  3  0  0  0  0  0  0
  183.8330  172.0740  136.7760 C   0  0  0  0  0  3  0  0  0  0  0  0
  184.1810  174.4730  136.7860 C   0  0  0  0  0  3  0  0  0  0  0  0
  182.4100  175.9550  136.0470 C   0  0  0  0  0  3  0  0  0  0  0  0
  181.5870  174.8550  135.7920 C   0  0  0  0  0  3  0  0  0  0  0  0
  185.9710  176.8570  136.2630 C   0  0  0  0  0  2  0  0  0  0  0  0
  189.0440  176.8100  138.3920 C   0  0  0  0  0  2  0  0  0  0  0  0
  189.0330  178.3220  138.6520 C   0  0  1  0  0  3  0  0  0  0  0  0
  187.7480  178.3710  136.4450 C   0  0  0  0  0  2  0  0  0  0  0  0
  187.7930  176.3190  137.6380 C   0  0  0  0  0  2  0  0  0  0  0  0
  186.9330  177.4210  137.1960 N   0  0  0  0  0  0  0  0  0  0  0  0
  188.7080  179.1140  137.3790 C   0  0  0  0  0  2  0  0  0  0  0  0
  188.6020  177.9930  140.8000 C   0  0  0  0  0  1  0  0  0  0  0  0
  188.1110  178.6270  139.6570 O   0  0  0  0  0  0  0  0  0  0  0  0
  1  2  1  0  0  0  0
  2  8  1  1  0  0  0
  3  1  1  0  0  0  0
  4  2  1  0  0  0  0
  5  4  1  0  0  0  0
  6 23  1  6  0  0  0
  6  3  1  0  0  0  0
  6  5  1  0  0  0  0
  7 10  1  0  0  0  0
  8  9  2  0  0  0  0
  8  7  1  0  0  0  0
 10 13  1  0  0  0  0
 11 14  1  0  0  0  0
 11 13  1  0  0  0  0
 13 12  2  0  0  0  0
 14 16  1  0  0  0  0
 15 14  2  0  0  0  0
 16 17  1  0  0  0  0
 17 22  2  0  0  0  0
 19 20  1  0  0  0  0
 20 18  1  0  0  0  0
 21 19  1  0  0  0  0
 21 17  1  0  0  0  0
 22 18  1  0  0  0  0
 23 35  1  1  0  0  0
 24 27  1  0  0  0  0
 25 32  1  0  0  0  0
 25 23  1  0  0  0  0
 26 29  1  0  0  0  0
 27 31  2  0  0  0  0
 28 24  1  0  0  0  0
 29 31  1  0  0  0  0
 29 32  2  0  0  0  0
 30 24  2  0  0  0  0
 30 26  1  0  0  0  0
 33 25  2  0  0  0  0
 34 26  2  0  0  0  0
 34 33  1  0  0  0  0
 35 40  1  0  0  0  0
 36 37  1  0  0  0  0
 37 43  1  1  0  0  0
 38 40  1  0  0  0  0
 38 41  1  0  0  0  0
 39 36  1  0  0  0  0
 40 39  1  0  0  0  0
 41 37  1  0  0  0  0
 43 42  1  0  0  0  0
M  END
>  <MODEL>
3

>  <REMARK>
 VINA RESULT:      -8.0      4.085      8.558
  Name = 
  10 active torsions:
  status: ('A' for Active; 'I' for Inactive)
    1  A    between atoms: C_1  and  C_34
    2  A    between atoms: C_1  and  N_35
    3  A    between atoms: N_3  and  C_42
    4  A    between atoms: C_6  and  C_12
    5  A    between atoms: C_8  and  C_34
    6  A    between atoms: C_11  and  C_14
    7  A    between atoms: C_14  and  C_22
    8  A    between atoms: C_15  and  C_42
    9  A    between atoms: C_19  and  O_37
   10  A    between atoms: C_34  and  C_38
                            x       y       z     vdW  Elec       q    Type
                         _______ _______ _______ _____ _____    ______ ____

>  <TORSDO>
F 10

$$$$
=
 OpenBabel10262422413D

 43 47  0  0  1  0  0  0  0  0999 V2000
  187.0140  175.9430  137.4200 C   0  0  0  0  0  2  0  0  0  0  0  0
  187.8530  177.2090  137.1840 C   0  0  1  0  0  3  0  0  0  0  0  0
  185.5530  176.1690  137.0460 C   0  0  0  0  0  2  0  0  0  0  0  0
  187.0630  178.5190  137.3370 C   0  0  0  0  0  2  0  0  0  0  0  0
  185.9150  178.3770  138.3350 C   0  0  0  0  0  2  0  0  0  0  0  0
  184.9270  177.2680  137.9200 C   0  0  1  0  0  3  0  0  0  0  0  0
  188.9280  176.9910  139.4710 N   0  0  0  0  0  2  0  0  0  0  0  0
  189.0590  177.2180  138.0630 C   0  0  0  0  0  0  0  0  0  0  0  0
  190.1870  177.4580  137.5570 O   0  0  0  0  0  0  0  0  0  0  0  0
  190.0600  177.0110  140.3890 C   0  0  0  0  0  2  0  0  0  0  0  0
  190.0860  177.9210  142.7480 N   0  0  0  0  0  2  0  0  0  0  0  0
  188.7560  176.0820  142.1420 O   0  0  0  0  0  0  0  0  0  0  0  0
  189.5900  176.9620  141.8040 C   0  0  0  0  0  0  0  0  0  0  0  0
  189.7240  178.0160  144.1300 C   0  0  0  0  0  0  0  0  0  0  0  0
  190.2010  178.9510  144.8260 O   0  0  0  0  0  0  0  0  0  0  0  0
  188.8040  177.0300  144.7770 C   0  0  0  0  0  2  0  0  0  0  0  0
  187.5290  177.6890  145.1920 C   0  0  0  0  0  0  0  0  0  0  0  0
  185.2730  178.5680  144.5730 C   0  0  0  0  0  2  0  0  0  0  0  0
  186.0190  178.7680  146.9260 C   0  0  0  0  0  2  0  0  0  0  0  0
  184.8730  178.3290  146.0250 C   0  0  0  0  0  2  0  0  0  0  0  0
  187.2530  177.9020  146.6640 C   0  0  0  0  0  2  0  0  0  0  0  0
  186.5950  177.9220  144.2540 C   0  0  0  0  0  3  0  0  0  0  0  0
  183.6320  177.8030  137.2950 C   0  0  2  0  0  3  0  0  0  0  0  0
  180.1500  180.0050  142.3550 C   0  0  0  0  0  0  0  0  0  0  0  0
  182.6920  178.4320  138.2890 C   0  0  0  0  0  0  0  0  0  0  0  0
  180.9290  179.6680  140.0880 C   0  0  0  0  0  0  0  0  0  0  0  0
  181.1180  179.1110  142.8250 C   0  0  0  0  0  3  0  0  0  0  0  0
  179.3030  180.6030  143.2260 F   0  0  0  0  0  0  0  0  0  0  0  0
  181.9070  178.7650  140.5620 C   0  0  0  0  0  0  0  0  0  0  0  0
  180.0550  180.2840  140.9870 C   0  0  0  0  0  3  0  0  0  0  0  0
  181.9960  178.4910  141.9290 C   0  0  0  0  0  3  0  0  0  0  0  0
  182.7830  178.1530  139.6620 C   0  0  0  0  0  3  0  0  0  0  0  0
  181.7200  179.3270  137.8260 C   0  0  0  0  0  3  0  0  0  0  0  0
  180.8400  179.9430  138.7200 C   0  0  0  0  0  3  0  0  0  0  0  0
  182.9540  176.7480  136.4230 C   0  0  0  0  0  2  0  0  0  0  0  0
  179.4280  175.5090  136.4000 C   0  0  0  0  0  2  0  0  0  0  0  0
  179.4140  175.1560  137.8920 C   0  0  1  0  0  3  0  0  0  0  0  0
  181.9370  174.9610  137.5430 C   0  0  0  0  0  2  0  0  0  0  0  0
  180.7110  176.2430  135.9650 C   0  0  0  0  0  2  0  0  0  0  0  0
  181.7110  176.3120  137.0350 N   0  0  0  0  0  0  0  0  0  0  0  0
  180.7160  174.4670  138.3230 C   0  0  0  0  0  2  0  0  0  0  0  0
  179.5200  175.9360  139.9630 C   0  0  0  0  0  1  0  0  0  0  0  0
  179.2060  176.3090  138.6540 O   0  0  0  0  0  0  0  0  0  0  0  0
  2  4  1  0  0  0  0
  2  1  1  0  0  0  0
  2  8  1  1  0  0  0
  3  1  1  0  0  0  0
  3  6  1  0  0  0  0
  4  5  1  0  0  0  0
  6 23  1  6  0  0  0
  6  5  1  0  0  0  0
  7 10  1  0  0  0  0
  8  7  1  0  0  0  0
  9  8  2  0  0  0  0
 10 13  1  0  0  0  0
 11 14  1  0  0  0  0
 13 12  2  0  0  0  0
 13 11  1  0  0  0  0
 14 16  1  0  0  0  0
 14 15  2  0  0  0  0
 16 17  1  0  0  0  0
 17 21  1  0  0  0  0
 18 20  1  0  0  0  0
 20 19  1  0  0  0  0
 21 19  1  0  0  0  0
 22 18  1  0  0  0  0
 22 17  2  0  0  0  0
 23 35  1  1  0  0  0
 23 25  1  0  0  0  0
 24 27  1  0  0  0  0
 24 28  1  0  0  0  0
 25 32  1  0  0  0  0
 26 29  1  0  0  0  0
 26 30  1  0  0  0  0
 29 31  1  0  0  0  0
 30 24  2  0  0  0  0
 31 27  2  0  0  0  0
 32 29  2  0  0  0  0
 33 25  2  0  0  0  0
 33 34  1  0  0  0  0
 34 26  2  0  0  0  0
 35 40  1  0  0  0  0
 36 37  1  0  0  0  0
 37 41  1  0  0  0  0
 37 43  1  1  0  0  0
 38 41  1  0  0  0  0
 39 36  1  0  0  0  0
 39 40  1  0  0  0  0
 40 38  1  0  0  0  0
 43 42  1  0  0  0  0
M  END
>  <MODEL>
4

>  <REMARK>
 VINA RESULT:      -7.8      3.210      6.366
  Name = 
  10 active torsions:
  status: ('A' for Active; 'I' for Inactive)
    1  A    between atoms: C_1  and  C_34
    2  A    between atoms: C_1  and  N_35
    3  A    between atoms: N_3  and  C_42
    4  A    between atoms: C_6  and  C_12
    5  A    between atoms: C_8  and  C_34
    6  A    between atoms: C_11  and  C_14
    7  A    between atoms: C_14  and  C_22
    8  A    between atoms: C_15  and  C_42
    9  A    between atoms: C_19  and  O_37
   10  A    between atoms: C_34  and  C_38
                            x       y       z     vdW  Elec       q    Type
                         _______ _______ _______ _____ _____    ______ ____

>  <TORSDO>
F 10

$$$$
=
 OpenBabel10262422413D

 43 47  0  0  1  0  0  0  0  0999 V2000
  188.3240  176.0730  136.8310 C   0  0  0  0  0  2  0  0  0  0  0  0
  189.1290  177.3690  137.0170 C   0  0  1  0  0  3  0  0  0  0  0  0
  186.8620  176.3710  136.5180 C   0  0  0  0  0  2  0  0  0  0  0  0
  188.3020  178.5480  137.5520 C   0  0  0  0  0  2  0  0  0  0  0  0
  187.1460  178.0760  138.4340 C   0  0  0  0  0  2  0  0  0  0  0  0
  186.1950  177.1290  137.6760 C   0  0  1  0  0  3  0  0  0  0  0  0
  190.2730  177.4200  139.2810 N   0  0  0  0  0  2  0  0  0  0  0  0
  190.3240  177.1310  137.8790 C   0  0  0  0  0  0  0  0  0  0  0  0
  191.3870  176.7050  137.3530 O   0  0  0  0  0  0  0  0  0  0  0  0
  191.4090  177.2350  140.1750 C   0  0  0  0  0  2  0  0  0  0  0  0
  191.1110  178.1800  142.5000 N   0  0  0  0  0  2  0  0  0  0  0  0
  190.4170  176.0060  141.9470 O   0  0  0  0  0  0  0  0  0  0  0  0
  190.9490  177.0880  141.5860 C   0  0  0  0  0  0  0  0  0  0  0  0
  190.7100  178.2020  143.8750 C   0  0  0  0  0  0  0  0  0  0  0  0
  190.8660  179.2590  144.5430 O   0  0  0  0  0  0  0  0  0  0  0  0
  190.1230  177.0020  144.5480 C   0  0  0  0  0  2  0  0  0  0  0  0
  188.7510  177.3010  145.0580 C   0  0  0  0  0  0  0  0  0  0  0  0
  187.2590  177.8710  146.9800 C   0  0  0  0  0  2  0  0  0  0  0  0
  186.2480  177.5890  144.7370 C   0  0  0  0  0  2  0  0  0  0  0  0
  186.3180  178.4980  145.9560 C   0  0  0  0  0  2  0  0  0  0  0  0
  187.6230  177.5000  144.0700 C   0  0  0  0  0  2  0  0  0  0  0  0
  188.5970  177.5470  146.3700 C   0  0  0  0  0  3  0  0  0  0  0  0
  184.8920  177.8020  137.2220 C   0  0  2  0  0  3  0  0  0  0  0  0
  181.6640  179.0200  142.7600 C   0  0  0  0  0  0  0  0  0  0  0  0
  183.9490  178.1230  138.3510 C   0  0  0  0  0  0  0  0  0  0  0  0
  182.1460  178.7700  140.4010 C   0  0  0  0  0  0  0  0  0  0  0  0
  182.9680  178.6230  143.0730 C   0  0  0  0  0  3  0  0  0  0  0  0
  180.7980  179.3360  143.7520 F   0  0  0  0  0  0  0  0  0  0  0  0
  183.4630  178.3670  140.7170 C   0  0  0  0  0  0  0  0  0  0  0  0
  181.2530  179.0940  141.4250 C   0  0  0  0  0  3  0  0  0  0  0  0
  183.8680  178.2960  142.0530 C   0  0  0  0  0  3  0  0  0  0  0  0
  184.3570  178.0480  139.6920 C   0  0  0  0  0  3  0  0  0  0  0  0
  182.6420  178.5200  138.0450 C   0  0  0  0  0  3  0  0  0  0  0  0
  181.7420  178.8420  139.0650 C   0  0  0  0  0  3  0  0  0  0  0  0
  184.2240  177.0210  136.0930 C   0  0  0  0  0  2  0  0  0  0  0  0
  181.0750  175.0090  136.0140 C   0  0  0  0  0  2  0  0  0  0  0  0
  181.4370  174.1690  137.2460 C   0  0  1  0  0  3  0  0  0  0  0  0
  183.8230  174.7600  136.5500 C   0  0  0  0  0  2  0  0  0  0  0  0
  182.0750  176.1490  135.7460 C   0  0  0  0  0  2  0  0  0  0  0  0
  183.2410  176.0960  136.6330 N   0  0  0  0  0  0  0  0  0  0  0  0
  182.9070  173.7310  137.2200 C   0  0  0  0  0  2  0  0  0  0  0  0
  179.9870  174.3460  138.9110 C   0  0  0  0  0  1  0  0  0  0  0  0
  181.1720  174.8920  138.4120 O   0  0  0  0  0  0  0  0  0  0  0  0
  1  2  1  0  0  0  0
  2  4  1  0  0  0  0
  2  8  1  1  0  0  0
  3  1  1  0  0  0  0
  3  6  1  0  0  0  0
  4  5  1  0  0  0  0
  6 23  1  6  0  0  0
  6  5  1  0  0  0  0
  7 10  1  0  0  0  0
  8  7  1  0  0  0  0
  9  8  2  0  0  0  0
 10 13  1  0  0  0  0
 11 14  1  0  0  0  0
 13 12  2  0  0  0  0
 13 11  1  0  0  0  0
 14 15  2  0  0  0  0
 14 16  1  0  0  0  0
 16 17  1  0  0  0  0
 17 22  2  0  0  0  0
 19 20  1  0  0  0  0
 20 18  1  0  0  0  0
 21 19  1  0  0  0  0
 21 17  1  0  0  0  0
 22 18  1  0  0  0  0
 23 35  1  6  0  0  0
 23 25  1  0  0  0  0
 24 27  1  0  0  0  0
 24 28  1  0  0  0  0
 25 32  1  0  0  0  0
 26 29  1  0  0  0  0
 26 30  1  0  0  0  0
 29 31  1  0  0  0  0
 30 24  2  0  0  0  0
 31 27  2  0  0  0  0
 32 29  2  0  0  0  0
 33 25  2  0  0  0  0
 33 34  1  0  0  0  0
 34 26  2  0  0  0  0
 35 40  1  0  0  0  0
 36 37  1  0  0  0  0
 37 43  1  1  0  0  0
 38 40  1  0  0  0  0
 38 41  1  0  0  0  0
 39 36  1  0  0  0  0
 39 40  1  0  0  0  0
 41 37  1  0  0  0  0
 43 42  1  0  0  0  0
M  END
>  <MODEL>
5

>  <REMARK>
 VINA RESULT:      -7.7      3.001      6.492
  Name = 
  10 active torsions:
  status: ('A' for Active; 'I' for Inactive)
    1  A    between atoms: C_1  and  C_34
    2  A    between atoms: C_1  and  N_35
    3  A    between atoms: N_3  and  C_42
    4  A    between atoms: C_6  and  C_12
    5  A    between atoms: C_8  and  C_34
    6  A    between atoms: C_11  and  C_14
    7  A    between atoms: C_14  and  C_22
    8  A    between atoms: C_15  and  C_42
    9  A    between atoms: C_19  and  O_37
   10  A    between atoms: C_34  and  C_38
                            x       y       z     vdW  Elec       q    Type
                         _______ _______ _______ _____ _____    ______ ____

>  <TORSDO>
F 10

$$$$
=
 OpenBabel10262422413D

 43 47  0  0  1  0  0  0  0  0999 V2000
  185.6620  177.9770  145.0700 C   0  0  0  0  0  2  0  0  0  0  0  0
  185.1800  179.1030  144.1410 C   0  0  1  0  0  3  0  0  0  0  0  0
  187.0540  177.4940  144.6790 C   0  0  0  0  0  2  0  0  0  0  0  0
  185.7550  179.0280  142.7170 C   0  0  0  0  0  2  0  0  0  0  0  0
  186.0530  177.5880  142.3010 C   0  0  0  0  0  2  0  0  0  0  0  0
  187.0540  176.9090  143.2580 C   0  0  1  0  0  3  0  0  0  0  0  0
  182.9920  179.0000  142.8620 N   0  0  0  0  0  2  0  0  0  0  0  0
  183.6900  179.1580  144.1030 C   0  0  0  0  0  0  0  0  0  0  0  0
  183.0550  179.3780  145.1690 O   0  0  0  0  0  0  0  0  0  0  0  0
  181.5400  179.0680  142.7500 C   0  0  0  0  0  2  0  0  0  0  0  0
  182.0800  178.9190  140.2850 N   0  0  0  0  0  2  0  0  0  0  0  0
  179.9460  179.5290  141.0520 O   0  0  0  0  0  0  0  0  0  0  0  0
  181.1290  179.1930  141.3220 C   0  0  0  0  0  0  0  0  0  0  0  0
  181.8390  178.9790  138.8740 C   0  0  0  0  0  0  0  0  0  0  0  0
  182.7610  178.6540  138.0800 O   0  0  0  0  0  0  0  0  0  0  0  0
  180.5270  179.4290  138.3150 C   0  0  0  0  0  2  0  0  0  0  0  0
  180.6830  180.7160  137.5720 C   0  0  0  0  0  0  0  0  0  0  0  0
  180.6000  181.9620  135.4070 C   0  0  0  0  0  2  0  0  0  0  0  0
  181.2270  183.1940  137.4620 C   0  0  0  0  0  2  0  0  0  0  0  0
  180.3270  183.2140  136.2340 C   0  0  0  0  0  2  0  0  0  0  0  0
  180.8750  181.9990  138.3500 C   0  0  0  0  0  2  0  0  0  0  0  0
  180.4810  180.7150  136.2430 C   0  0  0  0  0  3  0  0  0  0  0  0
  188.4780  176.8200  142.6940 C   0  0  2  0  0  3  0  0  0  0  0  0
  192.3840  176.2200  147.8860 C   0  0  0  0  0  0  0  0  0  0  0  0
  189.5300  176.5520  143.7370 C   0  0  0  0  0  0  0  0  0  0  0  0
  191.5110  175.9830  145.6400 C   0  0  0  0  0  0  0  0  0  0  0  0
  191.2930  177.0250  148.2290 C   0  0  0  0  0  3  0  0  0  0  0  0
  193.3360  175.9440  148.8080 F   0  0  0  0  0  0  0  0  0  0  0  0
  190.4090  176.7960  145.9870 C   0  0  0  0  0  0  0  0  0  0  0  0
  192.4930  175.6990  146.5920 C   0  0  0  0  0  3  0  0  0  0  0  0
  190.3050  177.3140  147.2810 C   0  0  0  0  0  3  0  0  0  0  0  0
  189.4240  177.0750  145.0360 C   0  0  0  0  0  3  0  0  0  0  0  0
  190.6260  175.7490  143.4000 C   0  0  0  0  0  3  0  0  0  0  0  0
  191.6140  175.4650  144.3460 C   0  0  0  0  0  3  0  0  0  0  0  0
  188.8070  178.0250  141.8150 C   0  0  0  0  0  2  0  0  0  0  0  0
  189.1380  178.4680  138.1180 C   0  0  0  0  0  2  0  0  0  0  0  0
  189.9180  177.1640  137.9090 C   0  0  1  0  0  3  0  0  0  0  0  0
  190.5690  177.5360  140.3510 C   0  0  0  0  0  2  0  0  0  0  0  0
  188.6210  178.6380  139.5590 C   0  0  0  0  0  2  0  0  0  0  0  0
  189.1140  177.5930  140.4610 N   0  0  0  0  0  0  0  0  0  0  0  0
  190.9840  176.9610  138.9940 C   0  0  0  0  0  2  0  0  0  0  0  0
  189.8070  174.9990  137.4500 C   0  0  0  0  0  1  0  0  0  0  0  0
  189.0380  176.0780  137.8930 O   0  0  0  0  0  0  0  0  0  0  0  0
  2  8  1  6  0  0  0
  2  1  1  0  0  0  0
  3  1  1  0  0  0  0
  4  2  1  0  0  0  0
  5  4  1  0  0  0  0
  5  6  1  0  0  0  0
  6 23  1  6  0  0  0
  6  3  1  0  0  0  0
  7  8  1  0  0  0  0
  8  9  2  0  0  0  0
 10  7  1  0  0  0  0
 11 13  1  0  0  0  0
 12 13  2  0  0  0  0
 13 10  1  0  0  0  0
 14 11  1  0  0  0  0
 15 14  2  0  0  0  0
 16 14  1  0  0  0  0
 17 16  1  0  0  0  0
 17 21  1  0  0  0  0
 18 20  1  0  0  0  0
 18 22  1  0  0  0  0
 19 21  1  0  0  0  0
 20 19  1  0  0  0  0
 22 17  2  0  0  0  0
 23 35  1  1  0  0  0
 23 25  1  0  0  0  0
 24 27  1  0  0  0  0
 24 28  1  0  0  0  0
 25 32  1  0  0  0  0
 26 29  1  0  0  0  0
 26 30  1  0  0  0  0
 29 31  1  0  0  0  0
 30 24  2  0  0  0  0
 31 27  2  0  0  0  0
 32 29  2  0  0  0  0
 33 25  2  0  0  0  0
 33 34  1  0  0  0  0
 34 26  2  0  0  0  0
 36 39  1  0  0  0  0
 37 43  1  1  0  0  0
 37 36  1  0  0  0  0
 37 41  1  0  0  0  0
 38 40  1  0  0  0  0
 39 40  1  0  0  0  0
 40 35  1  0  0  0  0
 41 38  1  0  0  0  0
 42 43  1  0  0  0  0
M  END
>  <MODEL>
6

>  <REMARK>
 VINA RESULT:      -7.6      2.921      8.762
  Name = 
  10 active torsions:
  status: ('A' for Active; 'I' for Inactive)
    1  A    between atoms: C_1  and  C_34
    2  A    between atoms: C_1  and  N_35
    3  A    between atoms: N_3  and  C_42
    4  A    between atoms: C_6  and  C_12
    5  A    between atoms: C_8  and  C_34
    6  A    between atoms: C_11  and  C_14
    7  A    between atoms: C_14  and  C_22
    8  A    between atoms: C_15  and  C_42
    9  A    between atoms: C_19  and  O_37
   10  A    between atoms: C_34  and  C_38
                            x       y       z     vdW  Elec       q    Type
                         _______ _______ _______ _____ _____    ______ ____

>  <TORSDO>
F 10

$$$$
=
 OpenBabel10262422413D

 43 47  0  0  1  0  0  0  0  0999 V2000
  183.5620  176.4120  138.6120 C   0  0  0  0  0  2  0  0  0  0  0  0
  183.7730  177.5870  137.6440 C   0  0  1  0  0  3  0  0  0  0  0  0
  182.9510  176.8830  139.9270 C   0  0  0  0  0  2  0  0  0  0  0  0
  184.0280  178.9330  138.3390 C   0  0  0  0  0  2  0  0  0  0  0  0
  184.7160  178.7520  139.6920 C   0  0  0  0  0  2  0  0  0  0  0  0
  183.8850  177.8690  140.6450 C   0  0  1  0  0  3  0  0  0  0  0  0
  185.2970  175.9330  136.4690 N   0  0  0  0  0  2  0  0  0  0  0  0
  184.8650  177.2830  136.6720 C   0  0  0  0  0  0  0  0  0  0  0  0
  185.4220  178.2310  136.0570 O   0  0  0  0  0  0  0  0  0  0  0  0
  186.3730  175.5700  135.5550 C   0  0  0  0  0  2  0  0  0  0  0  0
  188.3920  174.4640  136.6010 N   0  0  0  0  0  2  0  0  0  0  0  0
  188.1840  176.8000  136.4740 O   0  0  0  0  0  0  0  0  0  0  0  0
  187.6960  175.6640  136.2370 C   0  0  0  0  0  0  0  0  0  0  0  0
  189.6690  174.3860  137.2440 C   0  0  0  0  0  0  0  0  0  0  0  0
  190.1840  173.2550  137.4510 O   0  0  0  0  0  0  0  0  0  0  0  0
  190.4070  175.6080  137.6900 C   0  0  0  0  0  2  0  0  0  0  0  0
  191.6180  175.8330  136.8450 C   0  0  0  0  0  0  0  0  0  0  0  0
  194.0400  176.4280  136.6890 C   0  0  0  0  0  2  0  0  0  0  0  0
  192.8010  175.9460  134.6000 C   0  0  0  0  0  2  0  0  0  0  0  0
  194.0660  175.6350  135.3870 C   0  0  0  0  0  2  0  0  0  0  0  0
  191.5710  175.4710  135.3770 C   0  0  0  0  0  2  0  0  0  0  0  0
  192.7630  176.1920  137.4500 C   0  0  0  0  0  3  0  0  0  0  0  0
  183.1310  178.6670  141.7180 C   0  0  2  0  0  3  0  0  0  0  0  0
  186.8140  178.1300  147.0770 C   0  0  0  0  0  0  0  0  0  0  0  0
  183.7740  178.6150  143.0790 C   0  0  0  0  0  0  0  0  0  0  0  0
  184.9180  178.5770  145.6400 C   0  0  0  0  0  0  0  0  0  0  0  0
  187.5610  177.7160  145.9700 C   0  0  0  0  0  3  0  0  0  0  0  0
  187.3700  178.1140  148.3120 F   0  0  0  0  0  0  0  0  0  0  0  0
  185.6720  178.1590  144.5210 C   0  0  0  0  0  0  0  0  0  0  0  0
  185.4930  178.5600  146.9130 C   0  0  0  0  0  3  0  0  0  0  0  0
  186.9920  177.7310  144.6910 C   0  0  0  0  0  3  0  0  0  0  0  0
  185.0980  178.1820  143.2470 C   0  0  0  0  0  3  0  0  0  0  0  0
  183.0310  179.0260  144.1920 C   0  0  0  0  0  3  0  0  0  0  0  0
  183.5990  179.0070  145.4690 C   0  0  0  0  0  3  0  0  0  0  0  0
  181.6480  178.3020  141.7470 C   0  0  0  0  0  2  0  0  0  0  0  0
  178.9360  179.6090  139.5320 C   0  0  0  0  0  2  0  0  0  0  0  0
  179.0390  181.0490  140.0500 C   0  0  1  0  0  3  0  0  0  0  0  0
  179.9740  179.8940  142.1290 C   0  0  0  0  0  2  0  0  0  0  0  0
  180.0390  178.6870  140.0860 C   0  0  0  0  0  2  0  0  0  0  0  0
  180.8600  179.3430  141.1080 N   0  0  0  0  0  0  0  0  0  0  0  0
  179.1950  181.0910  141.5760 C   0  0  0  0  0  2  0  0  0  0  0  0
  179.6240  182.1190  138.2010 C   0  0  0  0  0  1  0  0  0  0  0  0
  180.1140  181.7000  139.4400 O   0  0  0  0  0  0  0  0  0  0  0  0
  1  3  1  0  0  0  0
  2  8  1  6  0  0  0
  2  4  1  0  0  0  0
  2  1  1  0  0  0  0
  3  6  1  0  0  0  0
  4  5  1  0  0  0  0
  5  6  1  0  0  0  0
  6 23  1  1  0  0  0
  7  8  1  0  0  0  0
  9  8  2  0  0  0  0
 10 13  1  0  0  0  0
 10  7  1  0  0  0  0
 11 14  1  0  0  0  0
 13 12  2  0  0  0  0
 13 11  1  0  0  0  0
 14 15  2  0  0  0  0
 14 16  1  0  0  0  0
 17 22  2  0  0  0  0
 17 16  1  0  0  0  0
 18 22  1  0  0  0  0
 19 21  1  0  0  0  0
 19 20  1  0  0  0  0
 20 18  1  0  0  0  0
 21 17  1  0  0  0  0
 23 35  1  1  0  0  0
 23 25  1  0  0  0  0
 24 28  1  0  0  0  0
 25 32  2  0  0  0  0
 25 33  1  0  0  0  0
 26 30  2  0  0  0  0
 27 24  2  0  0  0  0
 29 31  2  0  0  0  0
 29 26  1  0  0  0  0
 30 24  1  0  0  0  0
 31 27  1  0  0  0  0
 32 29  1  0  0  0  0
 33 34  2  0  0  0  0
 34 26  1  0  0  0  0
 36 37  1  0  0  0  0
 36 39  1  0  0  0  0
 37 43  1  6  0  0  0
 37 41  1  0  0  0  0
 39 40  1  0  0  0  0
 40 35  1  0  0  0  0
 40 38  1  0  0  0  0
 41 38  1  0  0  0  0
 42 43  1  0  0  0  0
M  END
>  <MODEL>
7

>  <REMARK>
 VINA RESULT:      -7.6      1.276      2.030
  Name = 
  10 active torsions:
  status: ('A' for Active; 'I' for Inactive)
    1  A    between atoms: C_1  and  C_34
    2  A    between atoms: C_1  and  N_35
    3  A    between atoms: N_3  and  C_42
    4  A    between atoms: C_6  and  C_12
    5  A    between atoms: C_8  and  C_34
    6  A    between atoms: C_11  and  C_14
    7  A    between atoms: C_14  and  C_22
    8  A    between atoms: C_15  and  C_42
    9  A    between atoms: C_19  and  O_37
   10  A    between atoms: C_34  and  C_38
                            x       y       z     vdW  Elec       q    Type
                         _______ _______ _______ _____ _____    ______ ____

>  <TORSDO>
F 10

$$$$
=
 OpenBabel10262422413D

 43 47  0  0  1  0  0  0  0  0999 V2000
  182.1210  179.1000  142.7070 C   0  0  0  0  0  2  0  0  0  0  0  0
  183.4220  178.3200  142.9560 C   0  0  1  0  0  3  0  0  0  0  0  0
  181.6560  178.9530  141.2620 C   0  0  0  0  0  2  0  0  0  0  0  0
  184.3200  178.1900  141.7150 C   0  0  0  0  0  2  0  0  0  0  0  0
  184.1540  179.3770  140.7670 C   0  0  0  0  0  2  0  0  0  0  0  0
  182.6960  179.5300  140.2890 C   0  0  1  0  0  3  0  0  0  0  0  0
  184.2020  178.2540  145.3690 N   0  0  0  0  0  2  0  0  0  0  0  0
  184.1840  178.9100  144.0960 C   0  0  0  0  0  0  0  0  0  0  0  0
  184.7820  180.0070  143.9340 O   0  0  0  0  0  0  0  0  0  0  0  0
  184.9040  178.7870  146.5290 C   0  0  0  0  0  2  0  0  0  0  0  0
  187.1670  178.6070  147.6430 N   0  0  0  0  0  2  0  0  0  0  0  0
  186.3970  176.9850  146.1290 O   0  0  0  0  0  0  0  0  0  0  0  0
  186.1920  178.0650  146.7410 C   0  0  0  0  0  0  0  0  0  0  0  0
  188.4380  178.0310  147.9640 C   0  0  0  0  0  0  0  0  0  0  0  0
  189.1680  178.5940  148.8230 O   0  0  0  0  0  0  0  0  0  0  0  0
  188.9320  176.7840  147.3010 C   0  0  0  0  0  2  0  0  0  0  0  0
  189.8330  177.1160  146.1570 C   0  0  0  0  0  0  0  0  0  0  0  0
  190.1810  178.2780  143.9710 C   0  0  0  0  0  2  0  0  0  0  0  0
  192.0480  176.9590  144.9230 C   0  0  0  0  0  2  0  0  0  0  0  0
  191.6660  178.3010  144.3140 C   0  0  0  0  0  2  0  0  0  0  0  0
  191.2990  176.7490  146.2410 C   0  0  0  0  0  2  0  0  0  0  0  0
  189.3490  177.8770  145.1610 C   0  0  0  0  0  3  0  0  0  0  0  0
  182.4630  179.0190  138.8600 C   0  0  2  0  0  3  0  0  0  0  0  0
  179.8170  184.0430  135.6460 C   0  0  0  0  0  0  0  0  0  0  0  0
  181.7470  180.0020  137.9720 C   0  0  0  0  0  0  0  0  0  0  0  0
  180.4190  181.7790  136.2540 C   0  0  0  0  0  0  0  0  0  0  0  0
  180.5300  184.5320  136.7450 C   0  0  0  0  0  3  0  0  0  0  0  0
  179.1810  184.9040  134.8160 F   0  0  0  0  0  0  0  0  0  0  0  0
  181.1390  182.2730  137.3660 C   0  0  0  0  0  0  0  0  0  0  0  0
  179.7620  182.6670  135.4000 C   0  0  0  0  0  3  0  0  0  0  0  0
  181.1910  183.6480  137.6060 C   0  0  0  0  0  3  0  0  0  0  0  0
  181.8000  181.3840  138.2170 C   0  0  0  0  0  3  0  0  0  0  0  0
  181.0310  179.5190  136.8710 C   0  0  0  0  0  3  0  0  0  0  0  0
  180.3680  180.4030  136.0140 C   0  0  0  0  0  3  0  0  0  0  0  0
  181.8130  177.6370  138.8600 C   0  0  0  0  0  2  0  0  0  0  0  0
  182.9440  175.1700  136.2890 C   0  0  0  0  0  2  0  0  0  0  0  0
  184.3660  175.0520  136.8520 C   0  0  1  0  0  3  0  0  0  0  0  0
  183.8600  177.3900  137.7510 C   0  0  0  0  0  2  0  0  0  0  0  0
  182.0110  176.0160  137.1780 C   0  0  0  0  0  2  0  0  0  0  0  0
  182.7200  176.6540  138.2900 N   0  0  0  0  0  0  0  0  0  0  0  0
  184.9340  176.4220  137.2450 C   0  0  0  0  0  2  0  0  0  0  0  0
  184.1470  172.9230  137.4230 C   0  0  0  0  0  1  0  0  0  0  0  0
  184.3740  174.1950  137.9550 O   0  0  0  0  0  0  0  0  0  0  0  0
  1  2  1  0  0  0  0
  2  8  1  1  0  0  0
  3  1  1  0  0  0  0
  4  2  1  0  0  0  0
  5  4  1  0  0  0  0
  6 23  1  6  0  0  0
  6  5  1  0  0  0  0
  6  3  1  0  0  0  0
  7 10  1  0  0  0  0
  8  7  1  0  0  0  0
  9  8  2  0  0  0  0
 10 13  1  0  0  0  0
 11 14  1  0  0  0  0
 12 13  2  0  0  0  0
 13 11  1  0  0  0  0
 14 15  2  0  0  0  0
 16 14  1  0  0  0  0
 17 21  1  0  0  0  0
 17 16  1  0  0  0  0
 18 20  1  0  0  0  0
 18 22  1  0  0  0  0
 19 21  1  0  0  0  0
 20 19  1  0  0  0  0
 22 17  2  0  0  0  0
 23 35  1  1  0  0  0
 24 27  1  0  0  0  0
 25 32  1  0  0  0  0
 25 23  1  0  0  0  0
 26 29  1  0  0  0  0
 27 31  2  0  0  0  0
 28 24  1  0  0  0  0
 29 31  1  0  0  0  0
 29 32  2  0  0  0  0
 30 24  2  0  0  0  0
 30 26  1  0  0  0  0
 33 25  2  0  0  0  0
 34 26  2  0  0  0  0
 34 33  1  0  0  0  0
 36 37  1  0  0  0  0
 36 39  1  0  0  0  0
 37 41  1  0  0  0  0
 37 43  1  1  0  0  0
 38 40  1  0  0  0  0
 39 40  1  0  0  0  0
 40 35  1  0  0  0  0
 41 38  1  0  0  0  0
 42 43  1  0  0  0  0
M  END
>  <MODEL>
8

>  <REMARK>
 VINA RESULT:      -7.6      4.567      8.687
  Name = 
  10 active torsions:
  status: ('A' for Active; 'I' for Inactive)
    1  A    between atoms: C_1  and  C_34
    2  A    between atoms: C_1  and  N_35
    3  A    between atoms: N_3  and  C_42
    4  A    between atoms: C_6  and  C_12
    5  A    between atoms: C_8  and  C_34
    6  A    between atoms: C_11  and  C_14
    7  A    between atoms: C_14  and  C_22
    8  A    between atoms: C_15  and  C_42
    9  A    between atoms: C_19  and  O_37
   10  A    between atoms: C_34  and  C_38
                            x       y       z     vdW  Elec       q    Type
                         _______ _______ _______ _____ _____    ______ ____

>  <TORSDO>
F 10

$$$$
=
 OpenBabel10262422413D

 43 47  0  0  1  0  0  0  0  0999 V2000
  181.5010  178.9490  142.2450 C   0  0  0  0  0  2  0  0  0  0  0  0
  181.4360  179.0980  140.7170 C   0  0  1  0  0  3  0  0  0  0  0  0
  182.9390  179.0180  142.7470 C   0  0  0  0  0  2  0  0  0  0  0  0
  182.6850  178.5830  139.9840 C   0  0  0  0  0  2  0  0  0  0  0  0
  183.3590  177.4420  140.7450 C   0  0  0  0  0  2  0  0  0  0  0  0
  183.7790  177.8690  142.1670 C   0  0  1  0  0  3  0  0  0  0  0  0
  180.2500  177.1090  139.6810 N   0  0  0  0  0  2  0  0  0  0  0  0
  180.2050  178.4530  140.1730 C   0  0  0  0  0  0  0  0  0  0  0  0
  179.1350  179.1160  140.1230 O   0  0  0  0  0  0  0  0  0  0  0  0
  179.0920  176.4280  139.1150 C   0  0  0  0  0  2  0  0  0  0  0  0
  179.5380  174.9970  137.0790 N   0  0  0  0  0  2  0  0  0  0  0  0
  179.7960  174.1650  139.2610 O   0  0  0  0  0  0  0  0  0  0  0  0
  179.4930  175.1270  138.5070 C   0  0  0  0  0  0  0  0  0  0  0  0
  179.9150  173.8260  136.3450 C   0  0  0  0  0  0  0  0  0  0  0  0
  179.9620  173.8790  135.0870 O   0  0  0  0  0  0  0  0  0  0  0  0
  180.2430  172.5360  137.0280 C   0  0  0  0  0  2  0  0  0  0  0  0
  181.6770  172.1750  136.8150 C   0  0  0  0  0  0  0  0  0  0  0  0
  183.3720  170.6210  135.8350 C   0  0  0  0  0  2  0  0  0  0  0  0
  184.1650  172.5720  137.1390 C   0  0  0  0  0  2  0  0  0  0  0  0
  184.3340  171.8040  135.8360 C   0  0  0  0  0  2  0  0  0  0  0  0
  182.7530  173.1580  137.2220 C   0  0  0  0  0  2  0  0  0  0  0  0
  181.9600  171.0630  136.1160 C   0  0  0  0  0  3  0  0  0  0  0  0
  185.2810  178.1570  142.3010 C   0  0  2  0  0  3  0  0  0  0  0  0
  188.2650  177.9340  148.0990 C   0  0  0  0  0  0  0  0  0  0  0  0
  185.7630  178.2200  143.7260 C   0  0  0  0  0  0  0  0  0  0  0  0
  186.6140  178.4060  146.3930 C   0  0  0  0  0  0  0  0  0  0  0  0
  189.0590  177.2750  147.1550 C   0  0  0  0  0  3  0  0  0  0  0  0
  188.6810  178.0260  149.3850 F   0  0  0  0  0  0  0  0  0  0  0  0
  187.4150  177.7400  145.4390 C   0  0  0  0  0  0  0  0  0  0  0  0
  187.0440  178.5000  147.7190 C   0  0  0  0  0  3  0  0  0  0  0  0
  188.6350  177.1780  145.8250 C   0  0  0  0  0  3  0  0  0  0  0  0
  186.9880  177.6520  144.1120 C   0  0  0  0  0  3  0  0  0  0  0  0
  184.9730  178.8760  144.6770 C   0  0  0  0  0  3  0  0  0  0  0  0
  185.3940  178.9690  146.0070 C   0  0  0  0  0  3  0  0  0  0  0  0
  185.6930  179.3770  141.4810 C   0  0  0  0  0  2  0  0  0  0  0  0
  188.7020  177.5040  140.2930 C   0  0  0  0  0  2  0  0  0  0  0  0
  188.5310  177.9180  138.8260 C   0  0  1  0  0  3  0  0  0  0  0  0
  186.0830  178.1670  139.5140 C   0  0  0  0  0  2  0  0  0  0  0  0
  187.7130  178.2120  141.2390 C   0  0  0  0  0  2  0  0  0  0  0  0
  186.7200  179.0140  140.5190 N   0  0  0  0  0  0  0  0  0  0  0  0
  187.0640  177.8420  138.3840 C   0  0  0  0  0  2  0  0  0  0  0  0
  189.0560  179.3820  137.2490 C   0  0  0  0  0  1  0  0  0  0  0  0
  189.0240  179.2110  138.6350 O   0  0  0  0  0  0  0  0  0  0  0  0
  1  3  1  0  0  0  0
  2  8  1  6  0  0  0
  2  1  1  0  0  0  0
  4  2  1  0  0  0  0
  4  5  1  0  0  0  0
  5  6  1  0  0  0  0
  6 23  1  6  0  0  0
  6  3  1  0  0  0  0
  7  8  1  0  0  0  0
  9  8  2  0  0  0  0
 10  7  1  0  0  0  0
 11 13  1  0  0  0  0
 13 10  1  0  0  0  0
 13 12  2  0  0  0  0
 14 16  1  0  0  0  0
 14 11  1  0  0  0  0
 15 14  2  0  0  0  0
 17 16  1  0  0  0  0
 17 21  1  0  0  0  0
 18 20  1  0  0  0  0
 18 22  1  0  0  0  0
 19 21  1  0  0  0  0
 20 19  1  0  0  0  0
 22 17  2  0  0  0  0
 23 35  1  1  0  0  0
 23 25  1  0  0  0  0
 24 28  1  0  0  0  0
 25 32  2  0  0  0  0
 25 33  1  0  0  0  0
 26 30  2  0  0  0  0
 27 24  2  0  0  0  0
 29 31  2  0  0  0  0
 29 26  1  0  0  0  0
 30 24  1  0  0  0  0
 31 27  1  0  0  0  0
 32 29  1  0  0  0  0
 33 34  2  0  0  0  0
 34 26  1  0  0  0  0
 36 39  1  0  0  0  0
 37 43  1  1  0  0  0
 37 36  1  0  0  0  0
 38 40  1  0  0  0  0
 40 39  1  0  0  0  0
 40 35  1  0  0  0  0
 41 37  1  0  0  0  0
 41 38  1  0  0  0  0
 42 43  1  0  0  0  0
M  END
>  <MODEL>
9

>  <REMARK>
 VINA RESULT:      -7.4      2.989      6.866
  Name = 
  10 active torsions:
  status: ('A' for Active; 'I' for Inactive)
    1  A    between atoms: C_1  and  C_34
    2  A    between atoms: C_1  and  N_35
    3  A    between atoms: N_3  and  C_42
    4  A    between atoms: C_6  and  C_12
    5  A    between atoms: C_8  and  C_34
    6  A    between atoms: C_11  and  C_14
    7  A    between atoms: C_14  and  C_22
    8  A    between atoms: C_15  and  C_42
    9  A    between atoms: C_19  and  O_37
   10  A    between atoms: C_34  and  C_38
                            x       y       z     vdW  Elec       q    Type
                         _______ _______ _______ _____ _____    ______ ____

>  <TORSDO>
F 10

$$$$
