=
 OpenBabel10262421073D

 32 36  0  0  1  0  0  0  0  0999 V2000
  188.7580  178.8950  139.7140 C   0  0  0  0  0  2  0  0  0  0  0  0
  189.9140  176.5870  140.8650 C   0  0  0  0  0  2  0  0  0  0  0  0
  188.3550  178.4780  141.1320 C   0  0  2  0  0  3  0  0  0  0  0  0
  188.4100  176.7470  142.8800 C   0  0  0  0  0  2  0  0  0  0  0  0
  189.9790  176.6990  139.3970 N   0  0  1  0  0  0  0  0  0  0  0  0
  187.1310  177.3350  143.4300 C   0  0  0  0  0  0  0  0  0  0  0  0
  188.5480  176.9960  141.3870 C   0  0  2  0  0  3  0  0  0  0  0  0
  186.9090  178.8350  141.4380 C   0  0  0  0  0  2  0  0  0  0  0  0
  189.0720  177.7040  138.7810 C   0  0  1  0  0  3  0  0  0  0  0  0
  186.6780  176.8280  144.6410 O   0  0  0  0  0  1  0  0  0  0  0  0
  186.4750  178.3480  142.8030 C   0  0  0  0  0  0  0  0  0  0  0  0
  187.0360  176.0380  135.9520 C   0  0  1  0  0  0  0  0  0  0  0  0
  185.4800  177.7390  138.2950 O   0  0  0  0  0  1  0  0  0  0  0  0
  186.2360  174.8980  135.8370 O   0  0  0  0  0  1  0  0  0  0  0  0
  187.3550  176.7020  134.6180 C   0  0  1  0  0  3  0  0  0  0  0  0
  186.7560  178.1380  137.8950 C   0  0  2  0  0  3  0  0  0  0  0  0
  186.3010  177.3150  135.5640 C   0  0  2  0  0  3  0  0  0  0  0  0
  186.7680  178.5030  136.4120 C   0  0  0  0  0  2  0  0  0  0  0  0
  188.0960  176.0810  137.0770 C   0  0  2  0  0  3  0  0  0  0  0  0
  188.4050  174.6880  137.6040 C   0  0  0  0  0  1  0  0  0  0  0  0
  187.7860  177.0490  138.2430 C   0  0  1  0  0  3  0  0  0  0  0  0
  189.8290  176.4520  134.6000 C   0  0  0  0  0  1  0  0  0  0  0  0
  188.6890  177.4500  134.5940 C   0  0  0  0  0  2  0  0  0  0  0  0
  193.7510  177.0640  139.8780 C   0  0  0  0  0  2  0  0  0  0  0  0
  193.4680  175.8080  138.0450 C   0  0  0  0  0  2  0  0  0  0  0  0
  191.9340  175.7770  138.1050 C   0  0  0  0  0  2  0  0  0  0  0  0
  191.3740  176.9080  138.9910 C   0  0  0  0  0  3  0  0  0  0  0  0
  193.9710  177.0420  138.4900 O   0  0  0  0  0  0  0  0  0  0  0  0
  192.2600  177.2300  140.2020 C   0  0  0  0  0  2  0  0  0  0  0  0
  185.2840  178.9490  143.3350 N   0  0  0  0  0  2  0  0  0  0  0  0
  183.9200  178.6850  142.9050 C   0  0  0  0  0  2  0  0  0  0  0  0
  182.7830  178.9870  144.2840 S   0  0  0  0  0  1  0  0  0  0  0  0
  3  1  1  6  0  0  0
  3  7  1  0  0  0  0
  3  8  1  0  0  0  0
  4  6  1  0  0  0  0
  5 27  1  1  0  0  0
  5  2  1  0  0  0  0
  6 10  1  0  0  0  0
  7  2  1  1  0  0  0
  7  4  1  0  0  0  0
  8 11  1  0  0  0  0
  9  5  1  0  0  0  0
  9  1  1  1  0  0  0
 11 30  1  0  0  0  0
 11  6  2  0  0  0  0
 12 14  1  6  0  0  0
 12 19  1  0  0  0  0
 15 23  1  1  0  0  0
 15 17  1  0  0  0  0
 15 12  1  0  0  0  0
 16 21  1  0  0  0  0
 16 13  1  6  0  0  0
 17 12  1  0  0  0  0
 17 18  1  1  0  0  0
 18 16  1  0  0  0  0
 19 20  1  1  0  0  0
 19 21  1  0  0  0  0
 21  9  1  6  0  0  0
 23 22  1  0  0  0  0
 24 29  1  0  0  0  0
 25 26  1  0  0  0  0
 25 28  1  0  0  0  0
 26 27  1  0  0  0  0
 27 29  1  0  0  0  0
 28 24  1  0  0  0  0
 31 30  1  0  0  0  0
 31 32  1  0  0  0  0
M  END
>  <MODEL>
1

>  <REMARK>
 VINA RESULT:      -5.9      0.000      0.000
  Name = 
  5 active torsions:
  status: ('A' for Active; 'I' for Inactive)
    1  A    between atoms: N_10  and  C_28
    2  A    between atoms: N_14  and  C_21
    3  A    between atoms: N_14  and  C_29
    4  A    between atoms: C_15  and  C_26
    5  A    between atoms: C_24  and  C_27
                            x       y       z     vdW  Elec       q    Type
                         _______ _______ _______ _____ _____    ______ ____

>  <TORSDO>
F 5

$$$$
=
 OpenBabel10262421073D

 32 36  0  0  1  0  0  0  0  0999 V2000
  190.4080  174.6270  137.9830 C   0  0  0  0  0  2  0  0  0  0  0  0
  191.5940  177.0380  138.8580 C   0  0  0  0  0  2  0  0  0  0  0  0
  191.8550  174.9410  137.5900 C   0  0  2  0  0  3  0  0  0  0  0  0
  193.6610  176.6100  137.4830 C   0  0  0  0  0  2  0  0  0  0  0  0
  190.1200  176.9810  138.8720 N   0  0  1  0  0  0  0  0  0  0  0  0
  194.2400  175.8320  136.3250 C   0  0  0  0  0  0  0  0  0  0  0  0
  192.1550  176.4270  137.5880 C   0  0  2  0  0  3  0  0  0  0  0  0
  192.2070  174.3770  136.2230 C   0  0  0  0  0  2  0  0  0  0  0  0
  189.5070  175.8780  138.0860 C   0  0  1  0  0  3  0  0  0  0  0  0
  195.4860  176.2350  135.8610 O   0  0  0  0  0  1  0  0  0  0  0  0
  193.6050  174.7570  135.7880 C   0  0  0  0  0  0  0  0  0  0  0  0
  187.0000  177.7130  135.7890 C   0  0  1  0  0  0  0  0  0  0  0  0
  188.7780  175.2180  134.5960 O   0  0  0  0  0  1  0  0  0  0  0  0
  187.0940  178.6570  134.7630 O   0  0  0  0  0  1  0  0  0  0  0  0
  185.5750  177.4670  136.2690 C   0  0  1  0  0  3  0  0  0  0  0  0
  188.3870  175.1990  135.9370 C   0  0  2  0  0  3  0  0  0  0  0  0
  186.2800  176.4420  135.3560 C   0  0  2  0  0  3  0  0  0  0  0  0
  186.8640  175.2080  136.0540 C   0  0  0  0  0  2  0  0  0  0  0  0
  188.1560  177.6220  136.8130 C   0  0  2  0  0  3  0  0  0  0  0  0
  189.0080  178.8830  136.8020 C   0  0  0  0  0  1  0  0  0  0  0  0
  189.0440  176.3620  136.6980 C   0  0  1  0  0  3  0  0  0  0  0  0
  184.9760  178.2010  138.5690 C   0  0  0  0  0  1  0  0  0  0  0  0
  185.4730  177.0380  137.7340 C   0  0  0  0  0  2  0  0  0  0  0  0
  190.3430  177.5370  142.6450 C   0  0  0  0  0  2  0  0  0  0  0  0
  188.3110  178.2460  142.0210 C   0  0  0  0  0  2  0  0  0  0  0  0
  188.4950  177.9680  140.5220 C   0  0  0  0  0  2  0  0  0  0  0  0
  189.6520  176.9810  140.2620 C   0  0  0  0  0  3  0  0  0  0  0  0
  188.9690  177.2830  142.8040 O   0  0  0  0  0  0  0  0  0  0  0  0
  190.8230  177.1420  141.2420 C   0  0  0  0  0  2  0  0  0  0  0  0
  194.1630  173.9800  134.7160 N   0  0  0  0  0  2  0  0  0  0  0  0
  194.4490  172.5540  134.7450 C   0  0  0  0  0  2  0  0  0  0  0  0
  195.8270  172.2380  135.8790 S   0  0  0  0  0  1  0  0  0  0  0  0
  2  5  1  0  0  0  0
  3  8  1  6  0  0  0
  3  1  1  0  0  0  0
  5 27  1  1  0  0  0
  6  4  1  0  0  0  0
  7  4  1  1  0  0  0
  7  3  1  0  0  0  0
  7  2  1  0  0  0  0
  9  1  1  6  0  0  0
  9  5  1  0  0  0  0
 10  6  1  0  0  0  0
 11  8  1  0  0  0  0
 11  6  2  0  0  0  0
 12 14  1  6  0  0  0
 12 15  1  0  0  0  0
 12 19  1  0  0  0  0
 15 23  1  1  0  0  0
 16 13  1  6  0  0  0
 16 18  1  0  0  0  0
 16 21  1  0  0  0  0
 17 12  1  0  0  0  0
 17 18  1  1  0  0  0
 17 15  1  0  0  0  0
 19 20  1  6  0  0  0
 21 19  1  0  0  0  0
 21  9  1  1  0  0  0
 23 22  1  0  0  0  0
 24 28  1  0  0  0  0
 25 28  1  0  0  0  0
 26 25  1  0  0  0  0
 27 26  1  0  0  0  0
 27 29  1  0  0  0  0
 29 24  1  0  0  0  0
 30 31  1  0  0  0  0
 30 11  1  0  0  0  0
 31 32  1  0  0  0  0
M  END
>  <MODEL>
2

>  <REMARK>
 VINA RESULT:      -5.7      3.758      7.062
  Name = 
  5 active torsions:
  status: ('A' for Active; 'I' for Inactive)
    1  A    between atoms: N_10  and  C_28
    2  A    between atoms: N_14  and  C_21
    3  A    between atoms: N_14  and  C_29
    4  A    between atoms: C_15  and  C_26
    5  A    between atoms: C_24  and  C_27
                            x       y       z     vdW  Elec       q    Type
                         _______ _______ _______ _____ _____    ______ ____

>  <TORSDO>
F 5

$$$$
=
 OpenBabel10262421073D

 32 36  0  0  1  0  0  0  0  0999 V2000
  183.0930  176.8370  138.7160 C   0  0  0  0  0  2  0  0  0  0  0  0
  184.8120  178.6760  140.0010 C   0  0  0  0  0  2  0  0  0  0  0  0
  184.5370  176.9880  138.2260 C   0  0  2  0  0  3  0  0  0  0  0  0
  186.6280  178.2830  138.3000 C   0  0  0  0  0  2  0  0  0  0  0  0
  183.3640  178.8750  140.1960 N   0  0  1  0  0  0  0  0  0  0  0  0
  186.9400  177.7590  136.9180 C   0  0  0  0  0  0  0  0  0  0  0  0
  185.1310  178.3440  138.5550 C   0  0  2  0  0  3  0  0  0  0  0  0
  184.6520  176.7630  136.7270 C   0  0  0  0  0  2  0  0  0  0  0  0
  182.4760  178.1500  139.2480 C   0  0  1  0  0  3  0  0  0  0  0  0
  188.1990  178.0490  136.4080 O   0  0  0  0  0  1  0  0  0  0  0  0
  186.0570  176.9970  136.2190 C   0  0  0  0  0  0  0  0  0  0  0  0
  180.3460  181.0700  137.8810 C   0  0  1  0  0  0  0  0  0  0  0  0
  181.1750  178.5870  135.8930 O   0  0  0  0  0  1  0  0  0  0  0  0
  180.5830  182.1840  137.0730 O   0  0  0  0  0  1  0  0  0  0  0  0
  178.9780  181.0780  138.5540 C   0  0  1  0  0  3  0  0  0  0  0  0
  180.9580  178.3330  137.2480 C   0  0  2  0  0  3  0  0  0  0  0  0
  179.2450  180.1700  137.3350 C   0  0  2  0  0  3  0  0  0  0  0  0
  179.5280  178.6950  137.6440 C   0  0  0  0  0  2  0  0  0  0  0  0
  181.5410  180.4390  138.6330 C   0  0  2  0  0  3  0  0  0  0  0  0
  182.7120  181.4060  138.7260 C   0  0  0  0  0  1  0  0  0  0  0  0
  182.0090  179.0650  138.1000 C   0  0  1  0  0  3  0  0  0  0  0  0
  178.9780  181.3400  141.0280 C   0  0  0  0  0  1  0  0  0  0  0  0
  178.9350  180.3380  139.8920 C   0  0  0  0  0  2  0  0  0  0  0  0
  183.6310  179.1300  143.9990 C   0  0  0  0  0  2  0  0  0  0  0  0
  181.4420  179.1130  143.5180 C   0  0  0  0  0  2  0  0  0  0  0  0
  181.6110  179.0570  141.9940 C   0  0  0  0  0  2  0  0  0  0  0  0
  183.0210  178.5810  141.5920 C   0  0  0  0  0  3  0  0  0  0  0  0
  182.4510  178.3850  144.1710 O   0  0  0  0  0  0  0  0  0  0  0  0
  184.1230  179.0630  142.5460 C   0  0  0  0  0  2  0  0  0  0  0  0
  186.3560  176.4540  134.9230 N   0  0  0  0  0  2  0  0  0  0  0  0
  186.5750  175.0520  134.6060 C   0  0  0  0  0  2  0  0  0  0  0  0
  188.0640  174.4660  135.4580 S   0  0  0  0  0  1  0  0  0  0  0  0
  2  5  1  0  0  0  0
  3  8  1  6  0  0  0
  3  7  1  0  0  0  0
  3  1  1  0  0  0  0
  5 27  1  1  0  0  0
  6  4  1  0  0  0  0
  7  4  1  1  0  0  0
  7  2  1  0  0  0  0
  9  1  1  6  0  0  0
  9  5  1  0  0  0  0
 10  6  1  0  0  0  0
 11  8  1  0  0  0  0
 11  6  2  0  0  0  0
 12 14  1  6  0  0  0
 12 15  1  0  0  0  0
 12 19  1  0  0  0  0
 15 23  1  1  0  0  0
 16 13  1  6  0  0  0
 16 18  1  0  0  0  0
 16 21  1  0  0  0  0
 17 18  1  1  0  0  0
 17 12  1  0  0  0  0
 17 15  1  0  0  0  0
 19 20  1  6  0  0  0
 21 19  1  0  0  0  0
 21  9  1  1  0  0  0
 23 22  1  0  0  0  0
 24 28  1  0  0  0  0
 25 28  1  0  0  0  0
 26 25  1  0  0  0  0
 27 26  1  0  0  0  0
 27 29  1  0  0  0  0
 29 24  1  0  0  0  0
 30 11  1  0  0  0  0
 31 30  1  0  0  0  0
 31 32  1  0  0  0  0
M  END
>  <MODEL>
3

>  <REMARK>
 VINA RESULT:      -5.1      4.758      8.690
  Name = 
  5 active torsions:
  status: ('A' for Active; 'I' for Inactive)
    1  A    between atoms: N_10  and  C_28
    2  A    between atoms: N_14  and  C_21
    3  A    between atoms: N_14  and  C_29
    4  A    between atoms: C_15  and  C_26
    5  A    between atoms: C_24  and  C_27
                            x       y       z     vdW  Elec       q    Type
                         _______ _______ _______ _____ _____    ______ ____

>  <TORSDO>
F 5

$$$$
=
 OpenBabel10262421073D

 32 36  0  0  1  0  0  0  0  0999 V2000
  183.3670  179.2110  138.2660 C   0  0  0  0  0  2  0  0  0  0  0  0
  182.0140  179.4600  140.7340 C   0  0  0  0  0  2  0  0  0  0  0  0
  182.3370  180.3300  138.4510 C   0  0  2  0  0  3  0  0  0  0  0  0
  180.5260  181.2770  139.8220 C   0  0  0  0  0  2  0  0  0  0  0  0
  182.6380  178.1550  140.4490 N   0  0  1  0  0  0  0  0  0  0  0  0
  179.9860  181.9250  138.5690 C   0  0  0  0  0  0  0  0  0  0  0  0
  181.3010  180.0070  139.5110 C   0  0  2  0  0  3  0  0  0  0  0  0
  181.6120  180.6540  137.1530 C   0  0  0  0  0  2  0  0  0  0  0  0
  183.0220  177.9150  139.0330 C   0  0  1  0  0  3  0  0  0  0  0  0
  178.9310  182.8140  138.7280 O   0  0  0  0  0  1  0  0  0  0  0  0
  180.5310  181.6940  137.3450 C   0  0  0  0  0  0  0  0  0  0  0  0
  181.6760  174.5590  137.6730 C   0  0  1  0  0  0  0  0  0  0  0  0
  180.8870  177.3660  136.1540 O   0  0  0  0  0  1  0  0  0  0  0  0
  180.4500  173.8890  137.7060 O   0  0  0  0  0  1  0  0  0  0  0  0
  182.8270  173.7090  137.1470 C   0  0  1  0  0  3  0  0  0  0  0  0
  182.1340  177.2500  136.7730 C   0  0  2  0  0  3  0  0  0  0  0  0
  182.1820  174.7910  136.2550 C   0  0  2  0  0  3  0  0  0  0  0  0
  182.9440  176.1170  136.1480 C   0  0  0  0  0  2  0  0  0  0  0  0
  181.9680  175.6110  138.7680 C   0  0  2  0  0  3  0  0  0  0  0  0
  181.0550  175.4300  139.9710 C   0  0  0  0  0  1  0  0  0  0  0  0
  181.9580  177.0820  138.2920 C   0  0  1  0  0  3  0  0  0  0  0  0
  185.1040  172.8790  137.7060 C   0  0  0  0  0  1  0  0  0  0  0  0
  184.1960  174.0920  137.7100 C   0  0  0  0  0  2  0  0  0  0  0  0
  186.1340  178.7390  141.8730 C   0  0  0  0  0  2  0  0  0  0  0  0
  184.7610  178.5370  143.6330 C   0  0  0  0  0  2  0  0  0  0  0  0
  183.4730  178.3680  142.8150 C   0  0  0  0  0  2  0  0  0  0  0  0
  183.7710  177.9540  141.3590 C   0  0  0  0  0  3  0  0  0  0  0  0
  185.8570  177.9340  142.9920 O   0  0  0  0  0  0  0  0  0  0  0  0
  185.0520  178.5860  140.7960 C   0  0  0  0  0  2  0  0  0  0  0  0
  180.0590  182.3360  136.1500 N   0  0  0  0  0  2  0  0  0  0  0  0
  180.7250  183.4090  135.4270 C   0  0  0  0  0  2  0  0  0  0  0  0
  181.1700  184.7310  136.5850 S   0  0  0  0  0  1  0  0  0  0  0  0
  1  3  1  0  0  0  0
  3  8  1  6  0  0  0
  3  7  1  0  0  0  0
  5  2  1  0  0  0  0
  5 27  1  1  0  0  0
  6 10  1  0  0  0  0
  6  4  1  0  0  0  0
  7  4  1  1  0  0  0
  7  2  1  0  0  0  0
  8 11  1  0  0  0  0
  9  1  1  6  0  0  0
  9  5  1  0  0  0  0
 11  6  2  0  0  0  0
 12 14  1  1  0  0  0
 12 19  1  0  0  0  0
 15 12  1  0  0  0  0
 15 23  1  1  0  0  0
 16 13  1  6  0  0  0
 16 21  1  0  0  0  0
 17 18  1  1  0  0  0
 17 15  1  0  0  0  0
 17 12  1  0  0  0  0
 18 16  1  0  0  0  0
 19 20  1  1  0  0  0
 21 19  1  0  0  0  0
 21  9  1  1  0  0  0
 22 23  1  0  0  0  0
 24 28  1  0  0  0  0
 26 25  1  0  0  0  0
 27 26  1  0  0  0  0
 28 25  1  0  0  0  0
 29 27  1  0  0  0  0
 29 24  1  0  0  0  0
 30 11  1  0  0  0  0
 31 30  1  0  0  0  0
 31 32  1  0  0  0  0
M  END
>  <MODEL>
4

>  <REMARK>
 VINA RESULT:      -4.8      5.267      7.773
  Name = 
  5 active torsions:
  status: ('A' for Active; 'I' for Inactive)
    1  A    between atoms: N_10  and  C_28
    2  A    between atoms: N_14  and  C_21
    3  A    between atoms: N_14  and  C_29
    4  A    between atoms: C_15  and  C_26
    5  A    between atoms: C_24  and  C_27
                            x       y       z     vdW  Elec       q    Type
                         _______ _______ _______ _____ _____    ______ ____

>  <TORSDO>
F 5

$$$$
=
 OpenBabel10262421073D

 32 36  0  0  1  0  0  0  0  0999 V2000
  184.2260  176.0360  137.8190 C   0  0  0  0  0  2  0  0  0  0  0  0
  184.4320  175.9610  135.0020 C   0  0  0  0  0  2  0  0  0  0  0  0
  183.1140  176.6550  136.9660 C   0  0  2  0  0  3  0  0  0  0  0  0
  182.3780  177.3960  134.7370 C   0  0  0  0  0  2  0  0  0  0  0  0
  185.6800  175.7700  135.7620 N   0  0  1  0  0  0  0  0  0  0  0  0
  181.4460  178.3660  135.4260 C   0  0  0  0  0  0  0  0  0  0  0  0
  183.5940  177.0810  135.5920 C   0  0  2  0  0  3  0  0  0  0  0  0
  182.4780  177.8560  137.6470 C   0  0  0  0  0  2  0  0  0  0  0  0
  185.6330  176.1650  137.1950 C   0  0  1  0  0  3  0  0  0  0  0  0
  180.5500  179.0540  134.6170 O   0  0  0  0  0  1  0  0  0  0  0  0
  181.4410  178.5280  136.7760 C   0  0  0  0  0  0  0  0  0  0  0  0
  188.6250  178.5430  137.7660 C   0  0  1  0  0  0  0  0  0  0  0  0
  185.6630  179.3380  138.9500 O   0  0  0  0  0  1  0  0  0  0  0  0
  189.0560  179.7530  137.2170 O   0  0  0  0  0  1  0  0  0  0  0  0
  189.6530  177.8800  138.6760 C   0  0  1  0  0  3  0  0  0  0  0  0
  186.0320  177.9930  138.8800 C   0  0  2  0  0  3  0  0  0  0  0  0
  188.4350  178.6150  139.2760 C   0  0  2  0  0  3  0  0  0  0  0  0
  187.2710  177.7280  139.7330 C   0  0  0  0  0  2  0  0  0  0  0  0
  187.6890  177.6450  136.9230 C   0  0  2  0  0  3  0  0  0  0  0  0
  187.7450  178.0140  135.4490 C   0  0  0  0  0  1  0  0  0  0  0  0
  186.2240  177.5720  137.4130 C   0  0  1  0  0  3  0  0  0  0  0  0
  190.7240  175.7450  137.9830 C   0  0  0  0  0  1  0  0  0  0  0  0
  189.5530  176.3540  138.7260 C   0  0  0  0  0  2  0  0  0  0  0  0
  187.2830  172.4620  136.8010 C   0  0  0  0  0  2  0  0  0  0  0  0
  185.4470  171.9340  135.6300 C   0  0  0  0  0  2  0  0  0  0  0  0
  184.9890  173.3780  135.3880 C   0  0  0  0  0  2  0  0  0  0  0  0
  186.1370  174.3860  135.5970 C   0  0  0  0  0  3  0  0  0  0  0  0
  186.8490  171.8340  135.6200 O   0  0  0  0  0  0  0  0  0  0  0  0
  187.1030  173.9840  136.7200 C   0  0  0  0  0  2  0  0  0  0  0  0
  180.5310  179.4120  137.4490 N   0  0  0  0  0  2  0  0  0  0  0  0
  180.7800  180.1170  138.6970 C   0  0  0  0  0  2  0  0  0  0  0  0
  181.6510  181.6690  138.3500 S   0  0  0  0  0  1  0  0  0  0  0  0
  2  7  1  0  0  0  0
  2  5  1  0  0  0  0
  3  8  1  1  0  0  0
  3  1  1  0  0  0  0
  4  6  1  0  0  0  0
  5 27  1  1  0  0  0
  5  9  1  0  0  0  0
  6 11  2  0  0  0  0
  7  4  1  6  0  0  0
  7  3  1  0  0  0  0
  9  1  1  6  0  0  0
 10  6  1  0  0  0  0
 11 30  1  0  0  0  0
 11  8  1  0  0  0  0
 12 14  1  6  0  0  0
 12 15  1  0  0  0  0
 12 17  1  0  0  0  0
 15 23  1  6  0  0  0
 15 17  1  0  0  0  0
 16 13  1  6  0  0  0
 16 18  1  0  0  0  0
 17 18  1  6  0  0  0
 19 20  1  6  0  0  0
 19 21  1  0  0  0  0
 19 12  1  0  0  0  0
 21  9  1  1  0  0  0
 21 16  1  0  0  0  0
 22 23  1  0  0  0  0
 26 27  1  0  0  0  0
 26 25  1  0  0  0  0
 27 29  1  0  0  0  0
 28 25  1  0  0  0  0
 28 24  1  0  0  0  0
 29 24  1  0  0  0  0
 30 31  1  0  0  0  0
 32 31  1  0  0  0  0
M  END
>  <MODEL>
5

>  <REMARK>
 VINA RESULT:      -4.7      3.620      6.573
  Name = 
  5 active torsions:
  status: ('A' for Active; 'I' for Inactive)
    1  A    between atoms: N_10  and  C_28
    2  A    between atoms: N_14  and  C_21
    3  A    between atoms: N_14  and  C_29
    4  A    between atoms: C_15  and  C_26
    5  A    between atoms: C_24  and  C_27
                            x       y       z     vdW  Elec       q    Type
                         _______ _______ _______ _____ _____    ______ ____

>  <TORSDO>
F 5

$$$$
=
 OpenBabel10262421073D

 32 36  0  0  1  0  0  0  0  0999 V2000
  183.3150  176.7370  138.8630 C   0  0  0  0  0  2  0  0  0  0  0  0
  181.9550  175.8390  136.5540 C   0  0  0  0  0  2  0  0  0  0  0  0
  182.0920  177.5110  138.3600 C   0  0  2  0  0  3  0  0  0  0  0  0
  180.4660  177.8710  136.5490 C   0  0  0  0  0  2  0  0  0  0  0  0
  183.3350  175.3560  136.7400 N   0  0  1  0  0  0  0  0  0  0  0  0
  180.2950  179.2850  137.0540 C   0  0  0  0  0  0  0  0  0  0  0  0
  181.8430  177.3180  136.8770 C   0  0  2  0  0  3  0  0  0  0  0  0
  182.2110  179.0020  138.6380 C   0  0  0  0  0  2  0  0  0  0  0  0
  184.1550  176.0990  137.7340 C   0  0  1  0  0  3  0  0  0  0  0  0
  179.2880  180.0420  136.4680 O   0  0  0  0  0  1  0  0  0  0  0  0
  181.0520  179.7860  138.0670 C   0  0  0  0  0  0  0  0  0  0  0  0
  187.3060  177.0340  135.7030 C   0  0  1  0  0  0  0  0  0  0  0  0
  186.0410  179.1940  137.8340 O   0  0  0  0  0  1  0  0  0  0  0  0
  187.5740  177.8390  134.5940 O   0  0  0  0  0  1  0  0  0  0  0  0
  188.4770  176.1530  136.1210 C   0  0  1  0  0  3  0  0  0  0  0  0
  185.9460  177.8280  138.1080 C   0  0  2  0  0  3  0  0  0  0  0  0
  188.1270  177.4220  136.9260 C   0  0  2  0  0  3  0  0  0  0  0  0
  187.3350  177.2020  138.2190 C   0  0  0  0  0  2  0  0  0  0  0  0
  185.8670  176.4970  135.8910 C   0  0  2  0  0  3  0  0  0  0  0  0
  185.0750  176.5640  134.5940 C   0  0  0  0  0  1  0  0  0  0  0  0
  185.0690  177.1350  137.0520 C   0  0  1  0  0  3  0  0  0  0  0  0
  188.3290  173.6830  135.8630 C   0  0  0  0  0  1  0  0  0  0  0  0
  188.0660  174.8450  136.7990 C   0  0  0  0  0  2  0  0  0  0  0  0
  181.8800  171.8240  136.8130 C   0  0  0  0  0  2  0  0  0  0  0  0
  184.0360  171.6070  136.2410 C   0  0  0  0  0  2  0  0  0  0  0  0
  184.3540  173.1090  136.2380 C   0  0  0  0  0  2  0  0  0  0  0  0
  183.3070  173.9180  137.0290 C   0  0  0  0  0  3  0  0  0  0  0  0
  183.1050  171.2850  137.2430 O   0  0  0  0  0  0  0  0  0  0  0  0
  181.8830  173.3560  136.9070 C   0  0  0  0  0  2  0  0  0  0  0  0
  180.8720  181.1120  138.5890 N   0  0  0  0  0  2  0  0  0  0  0  0
  181.6790  182.2790  138.2710 C   0  0  0  0  0  2  0  0  0  0  0  0
  180.7140  183.4200  137.2450 S   0  0  0  0  0  1  0  0  0  0  0  0
  2  5  1  0  0  0  0
  2  7  1  0  0  0  0
  3  8  1  6  0  0  0
  3  1  1  0  0  0  0
  4  6  1  0  0  0  0
  5 27  1  1  0  0  0
  5  9  1  0  0  0  0
  6 11  2  0  0  0  0
  7  4  1  1  0  0  0
  7  3  1  0  0  0  0
  9  1  1  1  0  0  0
 10  6  1  0  0  0  0
 11 30  1  0  0  0  0
 11  8  1  0  0  0  0
 12 14  1  6  0  0  0
 12 19  1  0  0  0  0
 12 15  1  0  0  0  0
 12 17  1  0  0  0  0
 15 23  1  1  0  0  0
 15 17  1  0  0  0  0
 16 13  1  6  0  0  0
 16 18  1  0  0  0  0
 17 18  1  1  0  0  0
 19 20  1  6  0  0  0
 19 21  1  0  0  0  0
 21  9  1  1  0  0  0
 21 16  1  0  0  0  0
 22 23  1  0  0  0  0
 24 29  1  0  0  0  0
 24 28  1  0  0  0  0
 25 28  1  0  0  0  0
 26 25  1  0  0  0  0
 26 27  1  0  0  0  0
 29 27  1  0  0  0  0
 31 30  1  0  0  0  0
 32 31  1  0  0  0  0
M  END
>  <MODEL>
6

>  <REMARK>
 VINA RESULT:      -4.7      4.622      7.280
  Name = 
  5 active torsions:
  status: ('A' for Active; 'I' for Inactive)
    1  A    between atoms: N_10  and  C_28
    2  A    between atoms: N_14  and  C_21
    3  A    between atoms: N_14  and  C_29
    4  A    between atoms: C_15  and  C_26
    5  A    between atoms: C_24  and  C_27
                            x       y       z     vdW  Elec       q    Type
                         _______ _______ _______ _____ _____    ______ ____

>  <TORSDO>
F 5

$$$$
=
 OpenBabel10262421073D

 32 36  0  0  1  0  0  0  0  0999 V2000
  183.7730  176.7550  139.0440 C   0  0  0  0  0  2  0  0  0  0  0  0
  185.8890  178.6270  139.0860 C   0  0  0  0  0  2  0  0  0  0  0  0
  184.9300  176.6060  138.0510 C   0  0  2  0  0  3  0  0  0  0  0  0
  186.9270  177.6150  137.0250 C   0  0  0  0  0  2  0  0  0  0  0  0
  184.6240  179.0420  139.7200 N   0  0  1  0  0  0  0  0  0  0  0  0
  186.6860  176.7380  135.8190 C   0  0  0  0  0  0  0  0  0  0  0  0
  185.6360  177.9180  137.7680 C   0  0  2  0  0  3  0  0  0  0  0  0
  184.4710  176.0110  136.7290 C   0  0  0  0  0  2  0  0  0  0  0  0
  183.4300  178.2230  139.3830 C   0  0  1  0  0  3  0  0  0  0  0  0
  187.6680  176.7400  134.8370 O   0  0  0  0  0  1  0  0  0  0  0  0
  185.5880  175.9430  135.7130 C   0  0  0  0  0  0  0  0  0  0  0  0
  180.4310  180.3570  138.2080 C   0  0  1  0  0  0  0  0  0  0  0  0
  181.6330  178.0120  136.2420 O   0  0  0  0  0  1  0  0  0  0  0  0
  180.2510  181.4200  137.3200 O   0  0  0  0  0  1  0  0  0  0  0  0
  179.2120  180.0680  139.0760 C   0  0  1  0  0  3  0  0  0  0  0  0
  181.6710  177.8290  137.6250 C   0  0  2  0  0  3  0  0  0  0  0  0
  179.5520  179.1580  137.8770 C   0  0  2  0  0  3  0  0  0  0  0  0
  180.2610  177.8400  138.2110 C   0  0  0  0  0  2  0  0  0  0  0  0
  181.8400  180.1270  138.8030 C   0  0  2  0  0  3  0  0  0  0  0  0
  182.7080  181.3690  138.6740 C   0  0  0  0  0  1  0  0  0  0  0  0
  182.5880  178.8810  138.2740 C   0  0  1  0  0  3  0  0  0  0  0  0
  179.4640  180.5340  141.5060 C   0  0  0  0  0  1  0  0  0  0  0  0
  179.5450  179.4610  140.4400 C   0  0  0  0  0  2  0  0  0  0  0  0
  183.8930  178.3710  143.4100 C   0  0  0  0  0  2  0  0  0  0  0  0
  186.1180  178.2430  143.1730 C   0  0  0  0  0  2  0  0  0  0  0  0
  186.1340  178.4910  141.6580 C   0  0  0  0  0  2  0  0  0  0  0  0
  184.8220  179.1390  141.1710 C   0  0  0  0  0  3  0  0  0  0  0  0
  185.0990  178.9790  143.8000 O   0  0  0  0  0  0  0  0  0  0  0  0
  183.5820  178.6520  141.9330 C   0  0  0  0  0  2  0  0  0  0  0  0
  185.3670  175.0690  134.5940 N   0  0  0  0  0  2  0  0  0  0  0  0
  185.0670  173.6470  134.6570 C   0  0  0  0  0  2  0  0  0  0  0  0
  186.5760  172.7290  135.0620 S   0  0  0  0  0  1  0  0  0  0  0  0
  2  5  1  0  0  0  0
  3  8  1  6  0  0  0
  3  1  1  0  0  0  0
  5 27  1  1  0  0  0
  6  4  1  0  0  0  0
  7  4  1  1  0  0  0
  7  3  1  0  0  0  0
  7  2  1  0  0  0  0
  9  1  1  6  0  0  0
  9  5  1  0  0  0  0
 10  6  1  0  0  0  0
 11  6  2  0  0  0  0
 11  8  1  0  0  0  0
 12 14  1  6  0  0  0
 12 19  1  0  0  0  0
 12 15  1  0  0  0  0
 15 23  1  1  0  0  0
 16 13  1  6  0  0  0
 16 18  1  0  0  0  0
 16 21  1  0  0  0  0
 17 12  1  0  0  0  0
 17 18  1  1  0  0  0
 17 15  1  0  0  0  0
 19 20  1  6  0  0  0
 21 19  1  0  0  0  0
 21  9  1  1  0  0  0
 23 22  1  0  0  0  0
 24 28  1  0  0  0  0
 25 28  1  0  0  0  0
 26 25  1  0  0  0  0
 27 26  1  0  0  0  0
 27 29  1  0  0  0  0
 29 24  1  0  0  0  0
 30 31  1  0  0  0  0
 30 11  1  0  0  0  0
 31 32  1  0  0  0  0
M  END
>  <MODEL>
7

>  <REMARK>
 VINA RESULT:      -4.5      4.465      8.148
  Name = 
  5 active torsions:
  status: ('A' for Active; 'I' for Inactive)
    1  A    between atoms: N_10  and  C_28
    2  A    between atoms: N_14  and  C_21
    3  A    between atoms: N_14  and  C_29
    4  A    between atoms: C_15  and  C_26
    5  A    between atoms: C_24  and  C_27
                            x       y       z     vdW  Elec       q    Type
                         _______ _______ _______ _____ _____    ______ ____

>  <TORSDO>
F 5

$$$$
=
 OpenBabel10262421073D

 32 36  0  0  1  0  0  0  0  0999 V2000
  183.9240  177.1230  136.0370 C   0  0  0  0  0  2  0  0  0  0  0  0
  184.1580  174.4220  136.8330 C   0  0  0  0  0  2  0  0  0  0  0  0
  185.3130  176.4830  136.1320 C   0  0  2  0  0  3  0  0  0  0  0  0
  186.6710  174.5770  136.8920 C   0  0  0  0  0  2  0  0  0  0  0  0
  182.8980  175.1070  137.1760 N   0  0  1  0  0  0  0  0  0  0  0  0
  187.8540  175.5140  136.9590 C   0  0  0  0  0  0  0  0  0  0  0  0
  185.3570  175.3130  137.0960 C   0  0  2  0  0  3  0  0  0  0  0  0
  186.3740  177.4900  136.5470 C   0  0  0  0  0  2  0  0  0  0  0  0
  182.9210  176.5910  137.0860 C   0  0  1  0  0  3  0  0  0  0  0  0
  189.0930  174.9420  137.2170 O   0  0  0  0  0  1  0  0  0  0  0  0
  187.7320  176.8490  136.7300 C   0  0  0  0  0  0  0  0  0  0  0  0
  181.6220  178.4120  140.2360 C   0  0  1  0  0  0  0  0  0  0  0  0
  184.7180  178.8880  139.2390 O   0  0  0  0  0  1  0  0  0  0  0  0
  181.7790  178.2540  141.6150 O   0  0  0  0  0  1  0  0  0  0  0  0
  180.5390  179.4140  139.8510 C   0  0  1  0  0  3  0  0  0  0  0  0
  183.7240  178.6520  138.2880 C   0  0  2  0  0  3  0  0  0  0  0  0
  182.0300  179.7970  139.7510 C   0  0  2  0  0  3  0  0  0  0  0  0
  182.6490  179.7360  138.3500 C   0  0  0  0  0  2  0  0  0  0  0  0
  181.8600  177.1860  139.3240 C   0  0  2  0  0  3  0  0  0  0  0  0
  181.7910  175.8860  140.1110 C   0  0  0  0  0  1  0  0  0  0  0  0
  183.1460  177.2380  138.4660 C   0  0  1  0  0  3  0  0  0  0  0  0
  178.9320  180.2620  138.1530 C   0  0  0  0  0  1  0  0  0  0  0  0
  179.8720  179.1280  138.5050 C   0  0  0  0  0  2  0  0  0  0  0  0
  180.0900  172.6580  136.3310 C   0  0  0  0  0  2  0  0  0  0  0  0
  179.3330  174.6970  135.7940 C   0  0  0  0  0  2  0  0  0  0  0  0
  180.5800  175.4610  136.2580 C   0  0  0  0  0  2  0  0  0  0  0  0
  181.8060  174.5330  136.3810 C   0  0  0  0  0  3  0  0  0  0  0  0
  179.6730  173.4480  135.2460 O   0  0  0  0  0  0  0  0  0  0  0  0
  181.4540  173.1190  136.8630 C   0  0  0  0  0  2  0  0  0  0  0  0
  188.8530  177.7460  136.7450 N   0  0  0  0  0  2  0  0  0  0  0  0
  189.0570  178.8550  137.6640 C   0  0  0  0  0  2  0  0  0  0  0  0
  188.9800  178.2470  139.3700 S   0  0  0  0  0  1  0  0  0  0  0  0
  2  5  1  0  0  0  0
  3  1  1  1  0  0  0
  3  8  1  0  0  0  0
  3  7  1  0  0  0  0
  4  6  1  0  0  0  0
  4  7  1  0  0  0  0
  5 27  1  6  0  0  0
  6 10  1  0  0  0  0
  7  2  1  6  0  0  0
  8 11  1  0  0  0  0
  9  1  1  6  0  0  0
  9  5  1  0  0  0  0
 11 30  1  0  0  0  0
 11  6  2  0  0  0  0
 12 14  1  1  0  0  0
 15 23  1  6  0  0  0
 15 12  1  0  0  0  0
 16 18  1  0  0  0  0
 16 21  1  0  0  0  0
 16 13  1  1  0  0  0
 17 18  1  6  0  0  0
 17 15  1  0  0  0  0
 17 12  1  0  0  0  0
 19 20  1  1  0  0  0
 19 12  1  0  0  0  0
 21  9  1  6  0  0  0
 21 19  1  0  0  0  0
 22 23  1  0  0  0  0
 24 29  1  0  0  0  0
 25 26  1  0  0  0  0
 26 27  1  0  0  0  0
 27 29  1  0  0  0  0
 28 25  1  0  0  0  0
 28 24  1  0  0  0  0
 30 31  1  0  0  0  0
 31 32  1  0  0  0  0
M  END
>  <MODEL>
8

>  <REMARK>
 VINA RESULT:      -4.4      4.671      8.529
  Name = 
  5 active torsions:
  status: ('A' for Active; 'I' for Inactive)
    1  A    between atoms: N_10  and  C_28
    2  A    between atoms: N_14  and  C_21
    3  A    between atoms: N_14  and  C_29
    4  A    between atoms: C_15  and  C_26
    5  A    between atoms: C_24  and  C_27
                            x       y       z     vdW  Elec       q    Type
                         _______ _______ _______ _____ _____    ______ ____

>  <TORSDO>
F 5

$$$$
=
 OpenBabel10262421073D

 32 36  0  0  1  0  0  0  0  0999 V2000
  186.2390  179.5740  141.5940 C   0  0  0  0  0  2  0  0  0  0  0  0
  184.5470  177.8180  143.0220 C   0  0  0  0  0  2  0  0  0  0  0  0
  184.9880  179.0120  140.9110 C   0  0  2  0  0  3  0  0  0  0  0  0
  183.1450  177.3820  140.9750 C   0  0  0  0  0  2  0  0  0  0  0  0
  185.9210  177.9750  143.5320 N   0  0  1  0  0  0  0  0  0  0  0  0
  183.0960  177.4570  139.4670 C   0  0  0  0  0  0  0  0  0  0  0  0
  184.5330  177.6940  141.5090 C   0  0  2  0  0  3  0  0  0  0  0  0
  185.1980  178.8150  139.4180 C   0  0  0  0  0  2  0  0  0  0  0  0
  186.8940  178.5960  142.5950 C   0  0  1  0  0  3  0  0  0  0  0  0
  182.0470  176.7960  138.8400 O   0  0  0  0  0  1  0  0  0  0  0  0
  184.0000  178.1770  138.7500 C   0  0  0  0  0  0  0  0  0  0  0  0
  190.1710  176.5990  142.1460 C   0  0  1  0  0  0  0  0  0  0  0  0
  188.2390  177.1640  139.5470 O   0  0  0  0  0  1  0  0  0  0  0  0
  190.5030  175.2530  141.9770 O   0  0  0  0  0  1  0  0  0  0  0  0
  191.3720  177.5000  142.4090 C   0  0  1  0  0  3  0  0  0  0  0  0
  188.3070  178.1150  140.5680 C   0  0  2  0  0  3  0  0  0  0  0  0
  190.6970  177.4810  141.0210 C   0  0  2  0  0  3  0  0  0  0  0  0
  189.7340  178.6370  140.7250 C   0  0  0  0  0  2  0  0  0  0  0  0
  188.8210  176.9450  142.8170 C   0  0  2  0  0  3  0  0  0  0  0  0
  188.2670  175.7600  143.5940 C   0  0  0  0  0  1  0  0  0  0  0  0
  187.7450  177.5320  141.8750 C   0  0  1  0  0  3  0  0  0  0  0  0
  191.5650  178.5430  144.6580 C   0  0  0  0  0  1  0  0  0  0  0  0
  191.0540  178.7400  143.2460 C   0  0  0  0  0  2  0  0  0  0  0  0
  184.4910  179.0010  146.9230 C   0  0  0  0  0  2  0  0  0  0  0  0
  186.6880  178.6860  147.2330 C   0  0  0  0  0  2  0  0  0  0  0  0
  186.9950  178.2530  145.7930 C   0  0  0  0  0  2  0  0  0  0  0  0
  185.8800  178.6820  144.8170 C   0  0  0  0  0  3  0  0  0  0  0  0
  185.6810  179.6650  147.2680 O   0  0  0  0  0  0  0  0  0  0  0  0
  184.4750  178.6280  145.4340 C   0  0  0  0  0  2  0  0  0  0  0  0
  183.9410  178.2960  137.3200 N   0  0  0  0  0  2  0  0  0  0  0  0
  184.2680  177.2580  136.3550 C   0  0  0  0  0  2  0  0  0  0  0  0
  186.0690  177.0930  136.2320 S   0  0  0  0  0  1  0  0  0  0  0  0
  2  5  1  0  0  0  0
  3  8  1  6  0  0  0
  3  7  1  0  0  0  0
  3  1  1  0  0  0  0
  5 27  1  1  0  0  0
  6  4  1  0  0  0  0
  7  4  1  6  0  0  0
  7  2  1  0  0  0  0
  9  1  1  6  0  0  0
  9  5  1  0  0  0  0
 10  6  1  0  0  0  0
 11  8  1  0  0  0  0
 11  6  2  0  0  0  0
 12 14  1  6  0  0  0
 12 15  1  0  0  0  0
 12 19  1  0  0  0  0
 15 23  1  1  0  0  0
 16 13  1  6  0  0  0
 16 18  1  0  0  0  0
 16 21  1  0  0  0  0
 17 18  1  1  0  0  0
 17 12  1  0  0  0  0
 17 15  1  0  0  0  0
 19 20  1  6  0  0  0
 21  9  1  1  0  0  0
 21 19  1  0  0  0  0
 23 22  1  0  0  0  0
 24 28  1  0  0  0  0
 25 28  1  0  0  0  0
 26 25  1  0  0  0  0
 27 29  1  0  0  0  0
 27 26  1  0  0  0  0
 29 24  1  0  0  0  0
 30 11  1  0  0  0  0
 31 30  1  0  0  0  0
 32 31  1  0  0  0  0
M  END
>  <MODEL>
9

>  <REMARK>
 VINA RESULT:      -4.4      3.524      7.225
  Name = 
  5 active torsions:
  status: ('A' for Active; 'I' for Inactive)
    1  A    between atoms: N_10  and  C_28
    2  A    between atoms: N_14  and  C_21
    3  A    between atoms: N_14  and  C_29
    4  A    between atoms: C_15  and  C_26
    5  A    between atoms: C_24  and  C_27
                            x       y       z     vdW  Elec       q    Type
                         _______ _______ _______ _____ _____    ______ ____

>  <TORSDO>
F 5

$$$$
