=
 OpenBabel10262421033D

 32 36  0  0  1  0  0  0  0  0999 V2000
  183.6290  178.9690  138.0350 O   0  0  0  0  0  0  0  0  0  0  0  0
  182.4080  178.2780  137.8920 C   0  0  1  0  0  0  0  0  0  0  0  0
  179.7480  178.6240  140.7640 C   0  0  0  0  0  2  0  0  0  0  0  0
  180.7250  182.3980  137.4310 C   0  0  0  0  0  3  0  0  0  0  0  0
  181.2070  178.7990  138.7010 C   0  0  1  0  0  3  0  0  0  0  0  0
  179.1300  181.9930  139.2580 C   0  0  0  0  0  2  0  0  0  0  0  0
  179.9500  180.7770  139.7220 C   0  0  1  0  0  3  0  0  0  0  0  0
  181.0750  178.1980  140.1120 C   0  0  1  0  0  3  0  0  0  0  0  0
  184.5020  178.1820  138.8030 C   0  0  2  0  0  3  0  0  0  0  0  0
  179.0390  179.6700  140.0160 N   0  0  0  0  0  2  0  0  0  0  0  0
  184.4060  178.5390  140.2730 C   0  0  0  0  0  2  0  0  0  0  0  0
  185.9210  178.4130  138.3300 C   0  0  0  0  0  1  0  0  0  0  0  0
  182.0520  178.2860  136.5240 O   0  0  0  0  0  0  0  0  0  0  0  0
  182.2040  178.6400  141.0350 C   0  0  0  0  0  2  0  0  0  0  0  0
  182.3150  177.0210  137.0700 C   0  0  1  0  0  0  0  0  0  0  0  0
  181.0660  180.3300  138.7250 C   0  0  2  0  0  3  0  0  0  0  0  0
  183.3480  177.7600  140.8900 N   0  0  0  0  0  2  0  0  0  0  0  0
  179.9150  182.9120  138.3620 C   0  0  0  0  0  3  0  0  0  0  0  0
  180.8600  180.9090  137.3220 C   0  0  0  0  0  2  0  0  0  0  0  0
  185.3660  174.7370  136.6340 C   0  0  0  0  0  3  0  0  0  0  0  0
  185.3460  176.3990  134.8810 C   0  0  0  0  0  3  0  0  0  0  0  0
  183.5680  176.3720  136.5370 C   0  0  0  0  0  0  0  0  0  0  0  0
  185.9530  175.2880  135.4850 C   0  0  0  0  0  0  0  0  0  0  0  0
  184.1700  176.9380  135.4060 C   0  0  0  0  0  3  0  0  0  0  0  0
  184.1890  175.2730  137.1660 C   0  0  0  0  0  0  0  0  0  0  0  0
  183.6600  174.7080  138.3200 O   0  0  0  0  0  1  0  0  0  0  0  0
  187.3040  173.2980  134.7240 C   0  0  0  0  0  1  0  0  0  0  0  0
  188.2950  175.5760  134.5940 C   0  0  0  0  0  1  0  0  0  0  0  0
  187.1640  174.7290  134.9410 N   0  0  0  0  0  0  0  0  0  0  0  0
  180.8020  176.0070  137.2290 S   0  0  0  0  0  0  0  0  0  0  0  0
  180.9210  175.3170  135.5510 C   0  0  0  0  0  2  0  0  0  0  0  0
  181.0530  173.8730  135.6260 N   0  0  0  0  0  1  0  0  0  0  0  0
  1  9  1  0  0  0  0
  2 13  1  6  0  0  0
  2  1  1  0  0  0  0
  2  5  1  0  0  0  0
  4 18  2  0  0  0  0
  5 16  1  0  0  0  0
  5  8  1  0  0  0  0
  6  7  1  0  0  0  0
  7 10  1  0  0  0  0
  8  3  1  0  0  0  0
  8 14  1  0  0  0  0
  9 11  1  0  0  0  0
 10  3  1  0  0  0  0
 11 17  1  0  0  0  0
 12  9  1  0  0  0  0
 13 15  1  0  0  0  0
 15 30  1  0  0  0  0
 15  2  1  0  0  0  0
 16  7  1  0  0  0  0
 17 14  1  0  0  0  0
 18  6  1  0  0  0  0
 19  4  1  0  0  0  0
 19 16  1  0  0  0  0
 20 25  1  0  0  0  0
 21 24  2  0  0  0  0
 21 23  1  0  0  0  0
 22 15  1  0  0  0  0
 22 25  2  0  0  0  0
 23 20  2  0  0  0  0
 24 22  1  0  0  0  0
 25 26  1  0  0  0  0
 27 29  1  0  0  0  0
 28 29  1  0  0  0  0
 29 23  1  0  0  0  0
 31 32  1  0  0  0  0
 31 30  1  0  0  0  0
M  END
>  <MODEL>
1

>  <REMARK>
 VINA RESULT:      -4.4      0.000      0.000
  Name = 
  4 active torsions:
  status: ('A' for Active; 'I' for Inactive)
    1  A    between atoms: S_1  and  C_4
    2  A    between atoms: S_1  and  C_27
    3  A    between atoms: C_16  and  C_27
    4  A    between atoms: C_19  and  N_26
                            x       y       z     vdW  Elec       q    Type
                         _______ _______ _______ _____ _____    ______ ____

>  <TORSDO>
F 4

$$$$
=
 OpenBabel10262421033D

 32 36  0  0  1  0  0  0  0  0999 V2000
  181.2400  175.9230  137.9060 O   0  0  0  0  0  0  0  0  0  0  0  0
  182.2390  176.9170  137.9750 C   0  0  1  0  0  0  0  0  0  0  0  0
  181.1540  180.6570  137.4440 C   0  0  0  0  0  2  0  0  0  0  0  0
  180.1130  178.0610  141.7430 C   0  0  0  0  0  3  0  0  0  0  0  0
  181.7800  178.3520  138.2880 C   0  0  1  0  0  3  0  0  0  0  0  0
  179.8410  180.3680  140.9350 C   0  0  0  0  0  2  0  0  0  0  0  0
  180.1610  179.9160  139.4990 C   0  0  1  0  0  3  0  0  0  0  0  0
  181.4060  179.1910  137.0520 C   0  0  1  0  0  3  0  0  0  0  0  0
  181.0490  175.5730  136.5610 C   0  0  2  0  0  3  0  0  0  0  0  0
  181.0900  180.8710  138.8940 N   0  0  0  0  0  2  0  0  0  0  0  0
  179.9360  176.3910  135.9370 C   0  0  0  0  0  2  0  0  0  0  0  0
  180.6880  174.1040  136.4790 C   0  0  0  0  0  1  0  0  0  0  0  0
  183.1790  176.5330  138.9580 O   0  0  0  0  0  0  0  0  0  0  0  0
  180.1480  178.6740  136.3650 C   0  0  0  0  0  2  0  0  0  0  0  0
  183.6740  176.6060  137.6470 C   0  0  1  0  0  0  0  0  0  0  0  0
  180.7080  178.4580  139.3850 C   0  0  2  0  0  3  0  0  0  0  0  0
  180.4840  177.6300  135.4160 N   0  0  0  0  0  2  0  0  0  0  0  0
  179.4540  179.2210  141.8280 C   0  0  0  0  0  3  0  0  0  0  0  0
  181.2070  177.9160  140.7290 C   0  0  0  0  0  2  0  0  0  0  0  0
  184.4820  173.7770  135.1850 C   0  0  0  0  0  3  0  0  0  0  0  0
  184.5020  172.9130  137.4400 C   0  0  0  0  0  3  0  0  0  0  0  0
  184.0400  175.2670  137.0550 C   0  0  0  0  0  0  0  0  0  0  0  0
  184.6590  172.6970  136.0630 C   0  0  0  0  0  0  0  0  0  0  0  0
  184.1900  174.1830  137.9290 C   0  0  0  0  0  3  0  0  0  0  0  0
  184.1680  175.0510  135.6680 C   0  0  0  0  0  0  0  0  0  0  0  0
  183.9770  176.0830  134.7570 O   0  0  0  0  0  1  0  0  0  0  0  0
  186.2690  171.1210  134.9290 C   0  0  0  0  0  1  0  0  0  0  0  0
  184.0410  170.2870  135.6560 C   0  0  0  0  0  1  0  0  0  0  0  0
  184.9860  171.3890  135.5590 N   0  0  0  0  0  0  0  0  0  0  0  0
  184.8210  178.0100  137.4160 S   0  0  0  0  0  0  0  0  0  0  0  0
  185.1160  178.2410  139.1950 C   0  0  0  0  0  2  0  0  0  0  0  0
  184.7960  179.6070  139.5690 N   0  0  0  0  0  1  0  0  0  0  0  0
  2  1  1  6  0  0  0
  2  5  1  0  0  0  0
  2 13  1  0  0  0  0
  3 10  1  0  0  0  0
  4 18  2  0  0  0  0
  5 16  1  0  0  0  0
  6 18  1  0  0  0  0
  7  6  1  0  0  0  0
  8  3  1  0  0  0  0
  8  5  1  0  0  0  0
  9  1  1  0  0  0  0
 10  7  1  0  0  0  0
 11  9  1  0  0  0  0
 12  9  1  0  0  0  0
 14  8  1  0  0  0  0
 15  2  1  0  0  0  0
 15 13  1  0  0  0  0
 16  7  1  0  0  0  0
 16 19  1  0  0  0  0
 17 11  1  0  0  0  0
 17 14  1  0  0  0  0
 19  4  1  0  0  0  0
 20 25  2  0  0  0  0
 20 23  1  0  0  0  0
 21 24  1  0  0  0  0
 22 15  1  0  0  0  0
 22 24  2  0  0  0  0
 23 21  2  0  0  0  0
 25 22  1  0  0  0  0
 26 25  1  0  0  0  0
 27 29  1  0  0  0  0
 29 28  1  0  0  0  0
 29 23  1  0  0  0  0
 30 15  1  0  0  0  0
 30 31  1  0  0  0  0
 31 32  1  0  0  0  0
M  END
>  <MODEL>
2

>  <REMARK>
 VINA RESULT:      -4.3      2.216      4.318
  Name = 
  4 active torsions:
  status: ('A' for Active; 'I' for Inactive)
    1  A    between atoms: S_1  and  C_4
    2  A    between atoms: S_1  and  C_27
    3  A    between atoms: C_16  and  C_27
    4  A    between atoms: C_19  and  N_26
                            x       y       z     vdW  Elec       q    Type
                         _______ _______ _______ _____ _____    ______ ____

>  <TORSDO>
F 4

$$$$
=
 OpenBabel10262421033D

 32 36  0  0  1  0  0  0  0  0999 V2000
  184.0400  176.9830  138.8030 O   0  0  0  0  0  0  0  0  0  0  0  0
  183.6570  176.9970  137.4460 C   0  0  1  0  0  0  0  0  0  0  0  0
  186.4790  176.6680  134.7300 C   0  0  0  0  0  2  0  0  0  0  0  0
  184.9090  172.7040  137.5810 C   0  0  0  0  0  3  0  0  0  0  0  0
  184.6290  176.3660  136.4340 C   0  0  1  0  0  3  0  0  0  0  0  0
  186.4530  173.0540  135.6990 C   0  0  0  0  0  2  0  0  0  0  0  0
  186.3780  174.5780  135.9050 C   0  0  1  0  0  3  0  0  0  0  0  0
  185.6860  177.3320  135.8700 C   0  0  1  0  0  3  0  0  0  0  0  0
  184.4140  178.2830  139.1770 C   0  0  2  0  0  3  0  0  0  0  0  0
  186.2230  175.2280  134.6030 N   0  0  0  0  0  2  0  0  0  0  0  0
  185.9060  178.4910  139.0080 C   0  0  0  0  0  2  0  0  0  0  0  0
  184.0450  178.5050  140.6280 C   0  0  0  0  0  1  0  0  0  0  0  0
  182.4120  176.3360  137.3300 O   0  0  0  0  0  0  0  0  0  0  0  0
  186.6870  177.7750  136.9300 C   0  0  0  0  0  2  0  0  0  0  0  0
  182.4030  177.6990  136.9970 C   0  0  1  0  0  0  0  0  0  0  0  0
  185.2650  175.0430  136.8960 C   0  0  2  0  0  3  0  0  0  0  0  0
  186.1810  178.9270  137.6510 N   0  0  0  0  0  2  0  0  0  0  0  0
  185.9830  172.2850  136.9030 C   0  0  0  0  0  3  0  0  0  0  0  0
  184.2130  173.9570  137.1430 C   0  0  0  0  0  2  0  0  0  0  0  0
  179.9440  178.9110  139.6790 C   0  0  0  0  0  3  0  0  0  0  0  0
  181.1760  180.7960  138.8060 C   0  0  0  0  0  3  0  0  0  0  0  0
  181.6330  178.5620  137.9650 C   0  0  0  0  0  0  0  0  0  0  0  0
  180.2070  180.2890  139.6850 C   0  0  0  0  0  0  0  0  0  0  0  0
  181.8760  179.9420  137.9520 C   0  0  0  0  0  3  0  0  0  0  0  0
  180.6390  178.0500  138.8260 C   0  0  0  0  0  0  0  0  0  0  0  0
  180.3250  176.6970  138.8390 O   0  0  0  0  0  1  0  0  0  0  0  0
  178.9310  182.4260  140.0940 C   0  0  0  0  0  1  0  0  0  0  0  0
  179.2990  180.8380  141.9730 C   0  0  0  0  0  1  0  0  0  0  0  0
  179.4890  181.1690  140.5690 N   0  0  0  0  0  0  0  0  0  0  0  0
  182.1740  177.9730  135.2040 S   0  0  0  0  0  0  0  0  0  0  0  0
  180.5280  177.2030  135.1560 C   0  0  0  0  0  2  0  0  0  0  0  0
  179.5090  178.2340  135.0730 N   0  0  0  0  0  1  0  0  0  0  0  0
  1  9  1  0  0  0  0
  2 13  1  1  0  0  0
  2  1  1  0  0  0  0
  3  8  1  0  0  0  0
  5 16  1  0  0  0  0
  5  2  1  0  0  0  0
  6  7  1  0  0  0  0
  6 18  1  0  0  0  0
  7 16  1  0  0  0  0
  8  5  1  0  0  0  0
  8 14  1  0  0  0  0
  9 12  1  0  0  0  0
 10  3  1  0  0  0  0
 10  7  1  0  0  0  0
 11  9  1  0  0  0  0
 14 17  1  0  0  0  0
 15 13  1  0  0  0  0
 15  2  1  0  0  0  0
 15 22  1  0  0  0  0
 16 19  1  0  0  0  0
 17 11  1  0  0  0  0
 18  4  2  0  0  0  0
 19  4  1  0  0  0  0
 20 23  1  0  0  0  0
 21 23  2  0  0  0  0
 22 25  1  0  0  0  0
 23 29  1  0  0  0  0
 24 22  2  0  0  0  0
 24 21  1  0  0  0  0
 25 26  1  0  0  0  0
 25 20  2  0  0  0  0
 27 29  1  0  0  0  0
 29 28  1  0  0  0  0
 30 15  1  0  0  0  0
 31 30  1  0  0  0  0
 32 31  1  0  0  0  0
M  END
>  <MODEL>
3

>  <REMARK>
 VINA RESULT:      -4.3      1.911      7.313
  Name = 
  4 active torsions:
  status: ('A' for Active; 'I' for Inactive)
    1  A    between atoms: S_1  and  C_4
    2  A    between atoms: S_1  and  C_27
    3  A    between atoms: C_16  and  C_27
    4  A    between atoms: C_19  and  N_26
                            x       y       z     vdW  Elec       q    Type
                         _______ _______ _______ _____ _____    ______ ____

>  <TORSDO>
F 4

$$$$
=
 OpenBabel10262421033D

 32 36  0  0  1  0  0  0  0  0999 V2000
  186.1170  174.6460  137.4640 O   0  0  0  0  0  0  0  0  0  0  0  0
  186.1170  175.9240  136.8660 C   0  0  1  0  0  0  0  0  0  0  0  0
  183.0210  176.9300  134.6650 C   0  0  0  0  0  2  0  0  0  0  0  0
  182.8210  176.7220  139.7860 C   0  0  0  0  0  3  0  0  0  0  0  0
  184.7530  176.5130  136.4650 C   0  0  1  0  0  3  0  0  0  0  0  0
  181.3210  177.4100  137.9630 C   0  0  0  0  0  2  0  0  0  0  0  0
  182.2510  176.7490  136.9310 C   0  0  1  0  0  3  0  0  0  0  0  0
  184.2860  176.1420  135.0460 C   0  0  1  0  0  3  0  0  0  0  0  0
  186.6020  173.7160  136.5320 C   0  0  2  0  0  3  0  0  0  0  0  0
  182.4220  177.6530  135.7930 N   0  0  0  0  0  2  0  0  0  0  0  0
  185.4680  173.0850  135.7500 C   0  0  0  0  0  2  0  0  0  0  0  0
  187.3600  172.6310  137.2660 C   0  0  0  0  0  1  0  0  0  0  0  0
  186.7410  176.8290  137.7560 O   0  0  0  0  0  0  0  0  0  0  0  0
  183.9640  174.6590  134.9140 C   0  0  0  0  0  2  0  0  0  0  0  0
  187.4050  176.6310  136.5360 C   0  0  1  0  0  0  0  0  0  0  0  0
  183.6340  176.3000  137.4990 C   0  0  2  0  0  3  0  0  0  0  0  0
  185.1630  173.9090  134.5940 N   0  0  0  0  0  2  0  0  0  0  0  0
  181.5680  176.9170  139.3630 C   0  0  0  0  0  3  0  0  0  0  0  0
  183.9580  176.9670  138.8400 C   0  0  0  0  0  2  0  0  0  0  0  0
  190.7040  175.2230  137.8950 C   0  0  0  0  0  3  0  0  0  0  0  0
  190.4570  174.5980  135.5760 C   0  0  0  0  0  3  0  0  0  0  0  0
  188.7200  175.9030  136.6650 C   0  0  0  0  0  0  0  0  0  0  0  0
  191.2030  174.5630  136.7630 C   0  0  0  0  0  0  0  0  0  0  0  0
  189.2310  175.2660  135.5270 C   0  0  0  0  0  3  0  0  0  0  0  0
  189.4790  175.8960  137.8530 C   0  0  0  0  0  0  0  0  0  0  0  0
  189.0390  176.5570  138.9940 O   0  0  0  0  0  1  0  0  0  0  0  0
  193.5790  174.3880  137.5910 C   0  0  0  0  0  1  0  0  0  0  0  0
  192.6720  172.6280  136.0850 C   0  0  0  0  0  1  0  0  0  0  0  0
  192.4640  173.8700  136.8140 N   0  0  0  0  0  0  0  0  0  0  0  0
  187.3180  178.1000  135.4530 S   0  0  0  0  0  0  0  0  0  0  0  0
  187.4630  179.2880  136.8210 C   0  0  0  0  0  2  0  0  0  0  0  0
  188.8550  179.4080  137.2180 N   0  0  0  0  0  1  0  0  0  0  0  0
  2  1  1  1  0  0  0
  2 13  1  0  0  0  0
  3  8  1  0  0  0  0
  3 10  1  0  0  0  0
  5  2  1  0  0  0  0
  5 16  1  0  0  0  0
  6 18  1  0  0  0  0
  7 16  1  0  0  0  0
  7  6  1  0  0  0  0
  8  5  1  0  0  0  0
  9 12  1  0  0  0  0
  9  1  1  0  0  0  0
 10  7  1  0  0  0  0
 11  9  1  0  0  0  0
 14  8  1  0  0  0  0
 15 22  1  0  0  0  0
 15  2  1  0  0  0  0
 15 13  1  0  0  0  0
 16 19  1  0  0  0  0
 17 14  1  0  0  0  0
 17 11  1  0  0  0  0
 18  4  2  0  0  0  0
 19  4  1  0  0  0  0
 21 23  1  0  0  0  0
 22 25  2  0  0  0  0
 23 29  1  0  0  0  0
 23 20  2  0  0  0  0
 24 21  2  0  0  0  0
 24 22  1  0  0  0  0
 25 20  1  0  0  0  0
 25 26  1  0  0  0  0
 28 29  1  0  0  0  0
 29 27  1  0  0  0  0
 30 15  1  0  0  0  0
 30 31  1  0  0  0  0
 31 32  1  0  0  0  0
M  END
>  <MODEL>
4

>  <REMARK>
 VINA RESULT:      -4.2      3.347      6.095
  Name = 
  4 active torsions:
  status: ('A' for Active; 'I' for Inactive)
    1  A    between atoms: S_1  and  C_4
    2  A    between atoms: S_1  and  C_27
    3  A    between atoms: C_16  and  C_27
    4  A    between atoms: C_19  and  N_26
                            x       y       z     vdW  Elec       q    Type
                         _______ _______ _______ _____ _____    ______ ____

>  <TORSDO>
F 4

$$$$
=
 OpenBabel10262421033D

 32 36  0  0  1  0  0  0  0  0999 V2000
  184.3370  174.9560  137.8940 O   0  0  0  0  0  0  0  0  0  0  0  0
  184.5470  176.1500  137.1730 C   0  0  1  0  0  0  0  0  0  0  0  0
  181.3960  178.2600  136.1420 C   0  0  0  0  0  2  0  0  0  0  0  0
  183.1460  178.0770  140.9600 C   0  0  0  0  0  3  0  0  0  0  0  0
  183.4310  177.2070  137.2230 C   0  0  1  0  0  3  0  0  0  0  0  0
  181.3930  179.2940  139.7380 C   0  0  0  0  0  2  0  0  0  0  0  0
  181.5570  178.3480  138.5350 C   0  0  1  0  0  3  0  0  0  0  0  0
  182.3520  177.0540  136.1360 C   0  0  1  0  0  3  0  0  0  0  0  0
  184.0670  173.9240  136.9820 C   0  0  2  0  0  3  0  0  0  0  0  0
  181.5730  179.1390  137.3040 N   0  0  0  0  0  2  0  0  0  0  0  0
  182.5760  173.7690  136.7610 C   0  0  0  0  0  2  0  0  0  0  0  0
  184.6240  172.6260  137.5260 C   0  0  0  0  0  1  0  0  0  0  0  0
  185.7390  176.7480  137.6440 O   0  0  0  0  0  0  0  0  0  0  0  0
  181.5110  175.7990  136.3300 C   0  0  0  0  0  2  0  0  0  0  0  0
  185.7620  176.3330  136.3030 C   0  0  1  0  0  0  0  0  0  0  0  0
  182.8040  177.4120  138.6130 C   0  0  2  0  0  3  0  0  0  0  0  0
  182.1510  174.6610  135.6970 N   0  0  0  0  0  2  0  0  0  0  0  0
  181.9790  178.7280  141.0020 C   0  0  0  0  0  3  0  0  0  0  0  0
  183.8320  177.8950  139.6410 C   0  0  0  0  0  2  0  0  0  0  0  0
  188.6430  173.8080  136.5140 C   0  0  0  0  0  3  0  0  0  0  0  0
  187.2630  173.2980  134.5990 C   0  0  0  0  0  3  0  0  0  0  0  0
  186.6840  175.1680  136.0390 C   0  0  0  0  0  0  0  0  0  0  0  0
  188.3740  172.9980  135.4010 C   0  0  0  0  0  0  0  0  0  0  0  0
  186.4310  174.3740  134.9120 C   0  0  0  0  0  3  0  0  0  0  0  0
  187.8160  174.8890  136.8320 C   0  0  0  0  0  0  0  0  0  0  0  0
  188.1380  175.6780  137.9300 O   0  0  0  0  0  1  0  0  0  0  0  0
  190.6520  172.0690  134.8450 C   0  0  0  0  0  1  0  0  0  0  0  0
  188.6990  170.5340  134.9730 C   0  0  0  0  0  1  0  0  0  0  0  0
  189.2290  171.8850  135.0800 N   0  0  0  0  0  0  0  0  0  0  0  0
  185.7760  177.7430  135.1410 S   0  0  0  0  0  0  0  0  0  0  0  0
  187.4680  178.2540  135.5640 C   0  0  0  0  0  2  0  0  0  0  0  0
  187.4370  179.1450  136.7110 N   0  0  0  0  0  1  0  0  0  0  0  0
  2  5  1  0  0  0  0
  2 13  1  1  0  0  0
  2  1  1  0  0  0  0
  3 10  1  0  0  0  0
  4 18  2  0  0  0  0
  5 16  1  0  0  0  0
  6 18  1  0  0  0  0
  7 16  1  0  0  0  0
  7  6  1  0  0  0  0
  8  3  1  0  0  0  0
  8 14  1  0  0  0  0
  8  5  1  0  0  0  0
  9 12  1  0  0  0  0
  9  1  1  0  0  0  0
 10  7  1  0  0  0  0
 11  9  1  0  0  0  0
 15  2  1  0  0  0  0
 15 13  1  0  0  0  0
 16 19  1  0  0  0  0
 17 14  1  0  0  0  0
 17 11  1  0  0  0  0
 19  4  1  0  0  0  0
 20 25  1  0  0  0  0
 21 24  2  0  0  0  0
 21 23  1  0  0  0  0
 22 15  1  0  0  0  0
 22 25  2  0  0  0  0
 23 20  2  0  0  0  0
 24 22  1  0  0  0  0
 25 26  1  0  0  0  0
 27 29  1  0  0  0  0
 28 29  1  0  0  0  0
 29 23  1  0  0  0  0
 30 31  1  0  0  0  0
 30 15  1  0  0  0  0
 31 32  1  0  0  0  0
M  END
>  <MODEL>
5

>  <REMARK>
 VINA RESULT:      -3.8      2.500      4.707
  Name = 
  4 active torsions:
  status: ('A' for Active; 'I' for Inactive)
    1  A    between atoms: S_1  and  C_4
    2  A    between atoms: S_1  and  C_27
    3  A    between atoms: C_16  and  C_27
    4  A    between atoms: C_19  and  N_26
                            x       y       z     vdW  Elec       q    Type
                         _______ _______ _______ _____ _____    ______ ____

>  <TORSDO>
F 4

$$$$
=
 OpenBabel10262421033D

 32 36  0  0  1  0  0  0  0  0999 V2000
  184.1950  177.6280  136.7620 O   0  0  0  0  0  0  0  0  0  0  0  0
  183.0760  176.9430  137.2810 C   0  0  1  0  0  0  0  0  0  0  0  0
  180.9640  178.7180  140.0800 C   0  0  0  0  0  2  0  0  0  0  0  0
  180.7790  180.1390  135.1550 C   0  0  0  0  0  3  0  0  0  0  0  0
  181.9830  177.7910  137.9540 C   0  0  1  0  0  3  0  0  0  0  0  0
  179.6170  180.7430  137.2360 C   0  0  0  0  0  2  0  0  0  0  0  0
  180.6700  179.9810  138.0600 C   0  0  1  0  0  3  0  0  0  0  0  0
  182.1960  178.0370  139.4590 C   0  0  1  0  0  3  0  0  0  0  0  0
  185.2940  177.3930  137.6020 C   0  0  2  0  0  3  0  0  0  0  0  0
  179.9920  179.1860  139.0840 N   0  0  0  0  0  2  0  0  0  0  0  0
  185.4200  178.4790  138.6520 C   0  0  0  0  0  2  0  0  0  0  0  0
  186.5570  177.3640  136.7670 C   0  0  0  0  0  1  0  0  0  0  0  0
  182.4790  176.2090  136.2300 O   0  0  0  0  0  0  0  0  0  0  0  0
  183.4020  178.9270  139.7320 C   0  0  0  0  0  2  0  0  0  0  0  0
  183.0110  175.4390  137.2750 C   0  0  1  0  0  0  0  0  0  0  0  0
  181.6360  179.0930  137.2140 C   0  0  2  0  0  3  0  0  0  0  0  0
  184.6110  178.1300  139.8060 N   0  0  0  0  0  2  0  0  0  0  0  0
  180.0890  181.0550  135.8420 C   0  0  0  0  0  3  0  0  0  0  0  0
  181.0990  178.8270  135.8040 C   0  0  0  0  0  2  0  0  0  0  0  0
  185.8930  173.8700  135.2890 C   0  0  0  0  0  3  0  0  0  0  0  0
  185.8770  172.9710  137.5310 C   0  0  0  0  0  3  0  0  0  0  0  0
  184.2250  174.6320  136.8850 C   0  0  0  0  0  0  0  0  0  0  0  0
  186.4560  173.0210  136.2540 C   0  0  0  0  0  0  0  0  0  0  0  0
  184.7700  173.7640  137.8400 C   0  0  0  0  0  3  0  0  0  0  0  0
  184.7840  174.6650  135.5910 C   0  0  0  0  0  0  0  0  0  0  0  0
  184.2470  175.4700  134.5940 O   0  0  0  0  0  1  0  0  0  0  0  0
  188.8510  172.8020  135.4940 C   0  0  0  0  0  1  0  0  0  0  0  0
  187.5460  170.7570  136.0420 C   0  0  0  0  0  1  0  0  0  0  0  0
  187.6000  172.2070  135.9370 N   0  0  0  0  0  0  0  0  0  0  0  0
  181.7100  174.6370  138.2770 S   0  0  0  0  0  0  0  0  0  0  0  0
  181.1520  173.5480  136.9330 C   0  0  0  0  0  2  0  0  0  0  0  0
  180.9450  172.2060  137.4470 N   0  0  0  0  0  1  0  0  0  0  0  0
  1  2  1  0  0  0  0
  1  9  1  0  0  0  0
  2 13  1  6  0  0  0
  2  5  1  0  0  0  0
  4 19  1  0  0  0  0
  4 18  2  0  0  0  0
  5  8  1  0  0  0  0
  6  7  1  0  0  0  0
  7 10  1  0  0  0  0
  8 14  1  0  0  0  0
  8  3  1  0  0  0  0
  9 11  1  0  0  0  0
 10  3  1  0  0  0  0
 11 17  1  0  0  0  0
 12  9  1  0  0  0  0
 13 15  1  0  0  0  0
 14 17  1  0  0  0  0
 15  2  1  0  0  0  0
 15 30  1  0  0  0  0
 16  5  1  0  0  0  0
 16  7  1  0  0  0  0
 18  6  1  0  0  0  0
 19 16  1  0  0  0  0
 20 25  2  0  0  0  0
 20 23  1  0  0  0  0
 21 24  1  0  0  0  0
 22 15  1  0  0  0  0
 22 24  2  0  0  0  0
 23 21  2  0  0  0  0
 25 22  1  0  0  0  0
 26 25  1  0  0  0  0
 27 29  1  0  0  0  0
 29 28  1  0  0  0  0
 29 23  1  0  0  0  0
 31 32  1  0  0  0  0
 31 30  1  0  0  0  0
M  END
>  <MODEL>
6

>  <REMARK>
 VINA RESULT:      -3.2      1.827      2.478
  Name = 
  4 active torsions:
  status: ('A' for Active; 'I' for Inactive)
    1  A    between atoms: S_1  and  C_4
    2  A    between atoms: S_1  and  C_27
    3  A    between atoms: C_16  and  C_27
    4  A    between atoms: C_19  and  N_26
                            x       y       z     vdW  Elec       q    Type
                         _______ _______ _______ _____ _____    ______ ____

>  <TORSDO>
F 4

$$$$
=
 OpenBabel10262421033D

 32 36  0  0  1  0  0  0  0  0999 V2000
  184.4670  174.0240  137.5510 O   0  0  0  0  0  0  0  0  0  0  0  0
  183.7720  174.8890  136.6790 C   0  0  1  0  0  0  0  0  0  0  0  0
  180.5360  173.5210  134.9180 C   0  0  0  0  0  2  0  0  0  0  0  0
  180.6560  174.7830  139.8880 C   0  0  0  0  0  3  0  0  0  0  0  0
  182.2900  174.5750  136.4120 C   0  0  1  0  0  3  0  0  0  0  0  0
  178.9560  174.0570  138.2670 C   0  0  0  0  0  2  0  0  0  0  0  0
  180.0580  173.6690  137.2650 C   0  0  1  0  0  3  0  0  0  0  0  0
  182.0400  173.6180  135.2320 C   0  0  1  0  0  3  0  0  0  0  0  0
  185.3370  173.2270  136.7910 C   0  0  2  0  0  3  0  0  0  0  0  0
  179.6860  174.1520  135.9350 N   0  0  0  0  0  2  0  0  0  0  0  0
  184.6790  171.9170  136.4060 C   0  0  0  0  0  2  0  0  0  0  0  0
  186.5780  172.9350  137.6080 C   0  0  0  0  0  1  0  0  0  0  0  0
  183.8560  176.2010  137.1980 O   0  0  0  0  0  0  0  0  0  0  0  0
  182.5430  172.2080  135.5160 C   0  0  0  0  0  2  0  0  0  0  0  0
  184.4820  176.0030  135.9580 C   0  0  1  0  0  0  0  0  0  0  0  0
  181.4880  174.1570  137.6550 C   0  0  2  0  0  3  0  0  0  0  0  0
  183.9450  172.0930  135.1660 N   0  0  0  0  0  2  0  0  0  0  0  0
  179.4740  174.1960  139.6720 C   0  0  0  0  0  3  0  0  0  0  0  0
  181.4590  175.2620  138.7170 C   0  0  0  0  0  2  0  0  0  0  0  0
  188.0700  176.9470  136.9300 C   0  0  0  0  0  3  0  0  0  0  0  0
  188.1140  175.4980  134.9990 C   0  0  0  0  0  3  0  0  0  0  0  0
  185.9870  176.0980  136.0080 C   0  0  0  0  0  0  0  0  0  0  0  0
  188.8050  176.2530  135.9580 C   0  0  0  0  0  0  0  0  0  0  0  0
  186.7200  175.4270  135.0210 C   0  0  0  0  0  3  0  0  0  0  0  0
  186.6740  176.8820  136.9570 C   0  0  0  0  0  0  0  0  0  0  0  0
  185.9900  177.6080  137.9250 O   0  0  0  0  0  1  0  0  0  0  0  0
  190.9910  176.1360  134.7030 C   0  0  0  0  0  1  0  0  0  0  0  0
  191.0030  176.5720  137.1520 C   0  0  0  0  0  1  0  0  0  0  0  0
  190.2430  176.3210  135.9370 N   0  0  0  0  0  0  0  0  0  0  0  0
  183.5950  176.8370  134.5940 S   0  0  0  0  0  0  0  0  0  0  0  0
  182.5310  177.8140  135.6980 C   0  0  0  0  0  2  0  0  0  0  0  0
  181.2050  177.9300  135.1200 N   0  0  0  0  0  1  0  0  0  0  0  0
  2 13  1  1  0  0  0
  2  1  1  0  0  0  0
  3  8  1  0  0  0  0
  3 10  1  0  0  0  0
  5  2  1  0  0  0  0
  5 16  1  0  0  0  0
  6 18  1  0  0  0  0
  7 16  1  0  0  0  0
  7  6  1  0  0  0  0
  8 14  1  0  0  0  0
  8  5  1  0  0  0  0
  9  1  1  0  0  0  0
  9 12  1  0  0  0  0
 10  7  1  0  0  0  0
 11  9  1  0  0  0  0
 15 22  1  0  0  0  0
 15  2  1  0  0  0  0
 15 13  1  0  0  0  0
 16 19  1  0  0  0  0
 17 14  1  0  0  0  0
 17 11  1  0  0  0  0
 18  4  2  0  0  0  0
 19  4  1  0  0  0  0
 20 25  1  0  0  0  0
 21 24  2  0  0  0  0
 21 23  1  0  0  0  0
 22 25  2  0  0  0  0
 23 20  2  0  0  0  0
 24 22  1  0  0  0  0
 25 26  1  0  0  0  0
 27 29  1  0  0  0  0
 29 23  1  0  0  0  0
 29 28  1  0  0  0  0
 30 31  1  0  0  0  0
 30 15  1  0  0  0  0
 32 31  1  0  0  0  0
M  END
>  <MODEL>
7

>  <REMARK>
 VINA RESULT:      -3.2      3.554      5.547
  Name = 
  4 active torsions:
  status: ('A' for Active; 'I' for Inactive)
    1  A    between atoms: S_1  and  C_4
    2  A    between atoms: S_1  and  C_27
    3  A    between atoms: C_16  and  C_27
    4  A    between atoms: C_19  and  N_26
                            x       y       z     vdW  Elec       q    Type
                         _______ _______ _______ _____ _____    ______ ____

>  <TORSDO>
F 4

$$$$
=
 OpenBabel10262421033D

 32 36  0  0  1  0  0  0  0  0999 V2000
  183.2830  175.7110  136.7070 O   0  0  0  0  0  0  0  0  0  0  0  0
  183.5050  176.8580  137.4970 C   0  0  1  0  0  0  0  0  0  0  0  0
  180.6660  179.5720  137.6470 C   0  0  0  0  0  2  0  0  0  0  0  0
  180.3170  175.0680  140.0770 C   0  0  0  0  0  3  0  0  0  0  0  0
  182.2650  177.6340  137.9740 C   0  0  1  0  0  3  0  0  0  0  0  0
  178.9920  177.1350  139.9390 C   0  0  0  0  0  2  0  0  0  0  0  0
  179.8250  177.6040  138.7340 C   0  0  1  0  0  3  0  0  0  0  0  0
  181.7780  178.7240  137.0020 C   0  0  1  0  0  3  0  0  0  0  0  0
  183.6310  176.0060  135.3800 C   0  0  2  0  0  3  0  0  0  0  0  0
  180.1670  179.0160  138.9100 N   0  0  0  0  0  2  0  0  0  0  0  0
  182.4270  176.4850  134.5940 C   0  0  0  0  0  2  0  0  0  0  0  0
  184.1850  174.7580  134.7250 C   0  0  0  0  0  1  0  0  0  0  0  0
  184.2470  176.4730  138.6370 O   0  0  0  0  0  0  0  0  0  0  0  0
  181.2200  178.1380  135.7110 C   0  0  0  0  0  2  0  0  0  0  0  0
  184.8980  177.3610  137.7670 C   0  0  1  0  0  0  0  0  0  0  0  0
  181.1030  176.7510  138.4580 C   0  0  2  0  0  3  0  0  0  0  0  0
  182.2880  177.9210  134.7540 N   0  0  0  0  0  2  0  0  0  0  0  0
  179.1230  175.6580  140.1920 C   0  0  0  0  0  3  0  0  0  0  0  0
  181.5000  175.8900  139.6620 C   0  0  0  0  0  2  0  0  0  0  0  0
  187.7120  176.7020  135.2440 C   0  0  0  0  0  3  0  0  0  0  0  0
  187.6410  174.9070  136.8590 C   0  0  0  0  0  3  0  0  0  0  0  0
  186.0740  176.7550  137.0400 C   0  0  0  0  0  0  0  0  0  0  0  0
  188.2280  175.4900  135.7260 C   0  0  0  0  0  0  0  0  0  0  0  0
  186.5720  175.5310  137.5050 C   0  0  0  0  0  3  0  0  0  0  0  0
  186.6400  177.3310  135.8840 C   0  0  0  0  0  0  0  0  0  0  0  0
  186.1480  178.5170  135.3540 O   0  0  0  0  0  1  0  0  0  0  0  0
  190.4790  175.6130  134.5940 C   0  0  0  0  0  1  0  0  0  0  0  0
  189.3440  173.4120  134.8320 C   0  0  0  0  0  1  0  0  0  0  0  0
  189.3340  174.8480  135.0630 N   0  0  0  0  0  0  0  0  0  0  0  0
  185.0770  179.0310  138.4870 S   0  0  0  0  0  0  0  0  0  0  0  0
  185.8450  178.4360  140.0240 C   0  0  0  0  0  2  0  0  0  0  0  0
  187.2900  178.5290  139.9150 N   0  0  0  0  0  1  0  0  0  0  0  0
  2  1  1  6  0  0  0
  2 15  1  0  0  0  0
  2  5  1  0  0  0  0
  2 13  1  0  0  0  0
  3 10  1  0  0  0  0
  4 18  2  0  0  0  0
  5 16  1  0  0  0  0
  6 18  1  0  0  0  0
  7 10  1  0  0  0  0
  7  6  1  0  0  0  0
  8  3  1  0  0  0  0
  8  5  1  0  0  0  0
  9  1  1  0  0  0  0
 11 17  1  0  0  0  0
 11  9  1  0  0  0  0
 12  9  1  0  0  0  0
 14  8  1  0  0  0  0
 15 30  1  0  0  0  0
 15 13  1  0  0  0  0
 16  7  1  0  0  0  0
 16 19  1  0  0  0  0
 17 14  1  0  0  0  0
 19  4  1  0  0  0  0
 20 23  2  0  0  0  0
 20 25  1  0  0  0  0
 21 24  2  0  0  0  0
 22 24  1  0  0  0  0
 22 15  1  0  0  0  0
 23 21  1  0  0  0  0
 25 22  2  0  0  0  0
 26 25  1  0  0  0  0
 27 29  1  0  0  0  0
 28 29  1  0  0  0  0
 29 23  1  0  0  0  0
 30 31  1  0  0  0  0
 32 31  1  0  0  0  0
M  END
>  <MODEL>
8

>  <REMARK>
 VINA RESULT:      -3.2      2.397      4.649
  Name = 
  4 active torsions:
  status: ('A' for Active; 'I' for Inactive)
    1  A    between atoms: S_1  and  C_4
    2  A    between atoms: S_1  and  C_27
    3  A    between atoms: C_16  and  C_27
    4  A    between atoms: C_19  and  N_26
                            x       y       z     vdW  Elec       q    Type
                         _______ _______ _______ _____ _____    ______ ____

>  <TORSDO>
F 4

$$$$
=
 OpenBabel10262421033D

 32 36  0  0  1  0  0  0  0  0999 V2000
  187.3040  176.7410  138.8360 O   0  0  0  0  0  0  0  0  0  0  0  0
  186.9600  176.7920  137.4680 C   0  0  1  0  0  0  0  0  0  0  0  0
  189.7880  177.6820  134.8890 C   0  0  0  0  0  2  0  0  0  0  0  0
  189.5060  173.1210  137.2180 C   0  0  0  0  0  3  0  0  0  0  0  0
  188.1000  176.6190  136.4500 C   0  0  1  0  0  3  0  0  0  0  0  0
  190.8920  174.1550  135.4700 C   0  0  0  0  0  2  0  0  0  0  0  0
  190.3340  175.5430  135.8300 C   0  0  1  0  0  3  0  0  0  0  0  0
  188.8060  177.9270  136.0480 C   0  0  1  0  0  3  0  0  0  0  0  0
  187.2400  178.0390  139.3630 C   0  0  2  0  0  3  0  0  0  0  0  0
  190.0040  176.2600  134.5970 N   0  0  0  0  0  2  0  0  0  0  0  0
  188.5920  178.7220  139.2970 C   0  0  0  0  0  2  0  0  0  0  0  0
  186.7940  177.9640  140.8080 C   0  0  0  0  0  1  0  0  0  0  0  0
  185.9910  175.7930  137.2180 O   0  0  0  0  0  0  0  0  0  0  0  0
  189.5950  178.5340  137.2010 C   0  0  0  0  0  2  0  0  0  0  0  0
  185.5560  177.1140  137.0290 C   0  0  1  0  0  0  0  0  0  0  0  0
  189.1130  175.5180  136.8030 C   0  0  2  0  0  3  0  0  0  0  0  0
  188.7380  179.3770  138.0110 N   0  0  0  0  0  2  0  0  0  0  0  0
  190.6690  173.1420  136.5590 C   0  0  0  0  0  3  0  0  0  0  0  0
  188.4560  174.1360  136.8790 C   0  0  0  0  0  2  0  0  0  0  0  0
  182.6680  177.1980  139.5510 C   0  0  0  0  0  3  0  0  0  0  0  0
  183.5320  179.4310  139.2430 C   0  0  0  0  0  3  0  0  0  0  0  0
  184.5350  177.5730  138.0410 C   0  0  0  0  0  0  0  0  0  0  0  0
  182.6240  178.5640  139.8670 C   0  0  0  0  0  0  0  0  0  0  0  0
  184.4740  178.9410  138.3360 C   0  0  0  0  0  3  0  0  0  0  0  0
  183.6050  176.7000  138.6420 C   0  0  0  0  0  0  0  0  0  0  0  0
  183.5920  175.3430  138.3420 O   0  0  0  0  0  1  0  0  0  0  0  0
  180.5480  179.9040  140.3730 C   0  0  0  0  0  1  0  0  0  0  0  0
  181.7570  178.7670  142.2260 C   0  0  0  0  0  1  0  0  0  0  0  0
  181.6570  179.0690  140.8070 N   0  0  0  0  0  0  0  0  0  0  0  0
  185.2840  177.5090  135.2660 S   0  0  0  0  0  0  0  0  0  0  0  0
  184.3290  175.9990  134.9320 C   0  0  0  0  0  2  0  0  0  0  0  0
  182.9100  176.3090  134.9320 N   0  0  0  0  0  1  0  0  0  0  0  0
  1  9  1  0  0  0  0
  2 13  1  6  0  0  0
  2  1  1  0  0  0  0
  3  8  1  0  0  0  0
  5 16  1  0  0  0  0
  5  2  1  0  0  0  0
  6  7  1  0  0  0  0
  6 18  1  0  0  0  0
  7 16  1  0  0  0  0
  8  5  1  0  0  0  0
  8 14  1  0  0  0  0
  9 12  1  0  0  0  0
 10  3  1  0  0  0  0
 10  7  1  0  0  0  0
 11  9  1  0  0  0  0
 14 17  1  0  0  0  0
 15 13  1  0  0  0  0
 15  2  1  0  0  0  0
 15 22  1  0  0  0  0
 16 19  1  0  0  0  0
 17 11  1  0  0  0  0
 18  4  2  0  0  0  0
 19  4  1  0  0  0  0
 20 23  1  0  0  0  0
 21 23  2  0  0  0  0
 22 24  2  0  0  0  0
 22 25  1  0  0  0  0
 23 29  1  0  0  0  0
 24 21  1  0  0  0  0
 25 20  2  0  0  0  0
 26 25  1  0  0  0  0
 27 29  1  0  0  0  0
 29 28  1  0  0  0  0
 30 15  1  0  0  0  0
 31 30  1  0  0  0  0
 32 31  1  0  0  0  0
M  END
>  <MODEL>
9

>  <REMARK>
 VINA RESULT:      -3.2      2.741      8.038
  Name = 
  4 active torsions:
  status: ('A' for Active; 'I' for Inactive)
    1  A    between atoms: S_1  and  C_4
    2  A    between atoms: S_1  and  C_27
    3  A    between atoms: C_16  and  C_27
    4  A    between atoms: C_19  and  N_26
                            x       y       z     vdW  Elec       q    Type
                         _______ _______ _______ _____ _____    ______ ____

>  <TORSDO>
F 4

$$$$
