=
 OpenBabel10262421263D

 32 38  0  0  1  0  0  0  0  0999 V2000
  192.1960  175.3040  137.2980 C   0  0  0  0  0  0  0  0  0  0  0  0
  189.8060  177.7980  137.5050 C   0  0  0  0  0  2  0  0  0  0  0  0
  188.4170  177.6360  142.5060 C   0  0  0  0  0  0  0  0  0  0  0  0
  183.7670  179.0030  142.4800 N   0  0  0  0  0  0  0  0  0  0  0  0
  183.7180  178.9270  143.8360 C   0  0  0  0  0  3  0  0  0  0  0  0
  189.2980  177.2770  144.9020 C   0  0  0  0  0  0  0  0  0  0  0  0
  190.6800  176.9660  144.9070 C   0  0  0  0  0  0  0  0  0  0  0  0
  189.7660  177.9250  140.4330 C   0  0  2  0  0  3  0  0  0  0  0  0
  187.3120  178.0710  140.3020 C   0  0  0  0  0  3  0  0  0  0  0  0
  190.1530  175.4420  138.3920 C   0  0  0  0  0  3  0  0  0  0  0  0
  189.2170  177.0920  147.3330 C   0  0  0  0  0  0  0  0  0  0  0  0
  188.4240  177.9040  138.1470 C   0  0  0  0  0  2  0  0  0  0  0  0
  184.9030  178.7200  141.7890 C   0  0  0  0  0  3  0  0  0  0  0  0
  186.0690  178.3390  142.4680 C   0  0  0  0  0  0  0  0  0  0  0  0
  187.2610  178.0270  141.7830 C   0  0  0  0  0  0  0  0  0  0  0  0
  187.1700  177.8870  144.5370 N   0  0  0  0  0  0  0  0  0  0  0  0
  193.1820  174.7810  136.7170 O   0  0  0  0  0  0  0  0  0  0  0  0
  190.5740  176.7530  147.3430 C   0  0  0  0  0  3  0  0  0  0  0  0
  192.0600  176.7530  137.5290 C   0  0  0  0  0  2  0  0  0  0  0  0
  191.1180  174.5430  137.7900 N   0  0  0  0  0  0  0  0  0  0  0  0
  188.4700  177.9800  139.6440 C   0  0  0  0  0  0  0  0  0  0  0  0
  191.2980  176.6990  146.1410 C   0  0  0  0  0  3  0  0  0  0  0  0
  191.0080  177.4510  139.6660 C   0  0  0  0  0  2  0  0  0  0  0  0
  190.7340  176.8670  138.2810 C   0  0  1  0  0  0  0  0  0  0  0  0
  184.8510  178.5520  144.5590 C   0  0  0  0  0  3  0  0  0  0  0  0
  186.0380  178.2550  143.8750 C   0  0  0  0  0  0  0  0  0  0  0  0
  187.3090  177.7360  145.8700 C   0  0  0  0  0  3  0  0  0  0  0  0
  189.5930  177.1270  141.7230 C   0  0  0  0  0  2  0  0  0  0  0  0
  191.5560  176.9740  143.7090 C   0  0  0  0  0  1  0  0  0  0  0  0
  188.5000  177.1640  148.5210 O   0  0  0  0  0  1  0  0  0  0  0  0
  188.3450  177.6000  143.9170 C   0  0  0  0  0  0  0  0  0  0  0  0
  188.6100  177.3560  146.1060 C   0  0  0  0  0  0  0  0  0  0  0  0
  1 19  1  0  0  0  0
  1 20  1  0  0  0  0
  2 12  1  0  0  0  0
  3 31  1  0  0  0  0
  4  5  1  0  0  0  0
  5 25  2  0  0  0  0
  6  7  1  0  0  0  0
  6 32  1  0  0  0  0
  7 22  2  0  0  0  0
  8 23  1  6  0  0  0
  8 28  1  0  0  0  0
  9 15  1  0  0  0  0
 11 18  2  0  0  0  0
 11 30  1  0  0  0  0
 12 21  1  0  0  0  0
 13 14  1  0  0  0  0
 13  4  2  0  0  0  0
 14 26  2  0  0  0  0
 15 14  1  0  0  0  0
 15  3  2  0  0  0  0
 16 27  1  0  0  0  0
 17  1  2  0  0  0  0
 19 24  1  0  0  0  0
 20 10  2  0  0  0  0
 21  9  2  0  0  0  0
 21  8  1  0  0  0  0
 22 18  1  0  0  0  0
 24  2  1  6  0  0  0
 24 10  1  0  0  0  0
 24 23  1  0  0  0  0
 26 16  1  0  0  0  0
 26 25  1  0  0  0  0
 27 32  2  0  0  0  0
 28  3  1  0  0  0  0
 29  7  1  0  0  0  0
 31 16  1  0  0  0  0
 31  6  2  0  0  0  0
 32 11  1  0  0  0  0
M  END
>  <MODEL>
1

>  <REMARK>
 VINA RESULT:     -12.1      0.000      0.000
  Name = 
  0 active torsions:
  status: ('A' for Active; 'I' for Inactive)
                            x       y       z     vdW  Elec       q    Type
                         _______ _______ _______ _____ _____    ______ ____

>  <TORSDO>
F 0

$$$$
=
 OpenBabel10262421263D

 32 38  0  0  1  0  0  0  0  0999 V2000
  190.3190  175.8540  136.4900 C   0  0  0  0  0  0  0  0  0  0  0  0
  187.9840  178.2770  137.3010 C   0  0  0  0  0  2  0  0  0  0  0  0
  187.6780  177.8820  142.4700 C   0  0  0  0  0  0  0  0  0  0  0  0
  183.1050  179.1320  143.4760 N   0  0  0  0  0  0  0  0  0  0  0  0
  183.3430  179.0010  144.8080 C   0  0  0  0  0  3  0  0  0  0  0  0
  189.0480  177.4510  144.6110 C   0  0  0  0  0  0  0  0  0  0  0  0
  190.4050  177.1750  144.3130 C   0  0  0  0  0  0  0  0  0  0  0  0
  188.5580  178.2870  140.1760 C   0  0  2  0  0  3  0  0  0  0  0  0
  186.1290  178.3770  140.5670 C   0  0  0  0  0  3  0  0  0  0  0  0
  188.5480  175.8980  137.9920 C   0  0  0  0  0  3  0  0  0  0  0  0
  189.4820  177.1670  146.9940 C   0  0  0  0  0  0  0  0  0  0  0  0
  186.7670  178.3240  138.2220 C   0  0  0  0  0  2  0  0  0  0  0  0
  184.0750  178.9050  142.5510 C   0  0  0  0  0  3  0  0  0  0  0  0
  185.3630  178.5270  142.9540 C   0  0  0  0  0  0  0  0  0  0  0  0
  186.3900  178.2730  142.0230 C   0  0  0  0  0  0  0  0  0  0  0  0
  186.8810  178.0210  144.7260 N   0  0  0  0  0  0  0  0  0  0  0  0
  191.1690  175.3800  135.6930 O   0  0  0  0  0  0  0  0  0  0  0  0
  190.8160  176.8630  146.7060 C   0  0  0  0  0  3  0  0  0  0  0  0
  190.2110  177.2890  136.8080 C   0  0  0  0  0  2  0  0  0  0  0  0
  189.3800  175.0480  137.1620 N   0  0  0  0  0  0  0  0  0  0  0  0
  187.1240  178.3410  139.6780 C   0  0  0  0  0  0  0  0  0  0  0  0
  191.2720  176.8750  145.3780 C   0  0  0  0  0  3  0  0  0  0  0  0
  189.6190  177.8750  139.1460 C   0  0  0  0  0  2  0  0  0  0  0  0
  189.0700  177.3410  137.8240 C   0  0  1  0  0  0  0  0  0  0  0  0
  184.6080  178.6260  145.2610 C   0  0  0  0  0  3  0  0  0  0  0  0
  185.6300  178.3860  144.3320 C   0  0  0  0  0  0  0  0  0  0  0  0
  187.2990  177.8210  145.9930 C   0  0  0  0  0  3  0  0  0  0  0  0
  188.6720  177.4340  141.4370 C   0  0  0  0  0  2  0  0  0  0  0  0
  191.0100  177.2520  142.9610 C   0  0  0  0  0  1  0  0  0  0  0  0
  189.0290  177.1740  148.3080 O   0  0  0  0  0  1  0  0  0  0  0  0
  187.9050  177.7880  143.8620 C   0  0  0  0  0  0  0  0  0  0  0  0
  188.6270  177.4640  145.9340 C   0  0  0  0  0  0  0  0  0  0  0  0
  1 19  1  0  0  0  0
  1 20  1  0  0  0  0
  2 24  1  0  0  0  0
  2 12  1  0  0  0  0
  3 31  1  0  0  0  0
  4  5  1  0  0  0  0
  5 25  2  0  0  0  0
  6 32  1  0  0  0  0
  7  6  1  0  0  0  0
  7 22  2  0  0  0  0
  8 23  1  6  0  0  0
  8 28  1  0  0  0  0
  9 15  1  0  0  0  0
 11 30  1  0  0  0  0
 12 21  1  0  0  0  0
 13 14  1  0  0  0  0
 13  4  2  0  0  0  0
 14 26  2  0  0  0  0
 15  3  2  0  0  0  0
 15 14  1  0  0  0  0
 16 27  1  0  0  0  0
 17  1  2  0  0  0  0
 18 11  2  0  0  0  0
 20 10  2  0  0  0  0
 21  8  1  0  0  0  0
 21  9  2  0  0  0  0
 22 18  1  0  0  0  0
 24 19  1  6  0  0  0
 24 10  1  0  0  0  0
 24 23  1  0  0  0  0
 26 16  1  0  0  0  0
 26 25  1  0  0  0  0
 28  3  1  0  0  0  0
 29  7  1  0  0  0  0
 31  6  2  0  0  0  0
 31 16  1  0  0  0  0
 32 27  2  0  0  0  0
 32 11  1  0  0  0  0
M  END
>  <MODEL>
2

>  <REMARK>
 VINA RESULT:     -11.8      1.132      1.247
  Name = 
  0 active torsions:
  status: ('A' for Active; 'I' for Inactive)
                            x       y       z     vdW  Elec       q    Type
                         _______ _______ _______ _____ _____    ______ ____

>  <TORSDO>
F 0

$$$$
=
 OpenBabel10262421263D

 32 38  0  0  1  0  0  0  0  0999 V2000
  180.7630  177.7120  138.6280 C   0  0  0  0  0  0  0  0  0  0  0  0
  181.2540  179.3780  141.6220 C   0  0  0  0  0  2  0  0  0  0  0  0
  186.1580  178.1580  142.8150 C   0  0  0  0  0  0  0  0  0  0  0  0
  186.2220  178.1470  147.6610 N   0  0  0  0  0  0  0  0  0  0  0  0
  187.5540  177.8780  147.6620 C   0  0  0  0  0  3  0  0  0  0  0  0
  188.5030  177.7420  141.8250 C   0  0  0  0  0  0  0  0  0  0  0  0
  188.4940  177.8360  140.4110 C   0  0  0  0  0  0  0  0  0  0  0  0
  184.1720  179.0930  141.6410 C   0  0  2  0  0  3  0  0  0  0  0  0
  184.0120  178.5570  144.0390 C   0  0  0  0  0  3  0  0  0  0  0  0
  181.8240  177.1190  140.6070 C   0  0  0  0  0  3  0  0  0  0  0  0
  190.8840  177.2150  141.8040 C   0  0  0  0  0  0  0  0  0  0  0  0
  181.8760  179.0030  142.9650 C   0  0  0  0  0  2  0  0  0  0  0  0
  185.5230  178.2920  146.5050 C   0  0  0  0  0  3  0  0  0  0  0  0
  186.1680  178.1670  145.2660 C   0  0  0  0  0  0  0  0  0  0  0  0
  185.4720  178.3000  144.0480 C   0  0  0  0  0  0  0  0  0  0  0  0
  188.1790  177.7700  144.0450 N   0  0  0  0  0  0  0  0  0  0  0  0
  180.1360  177.5730  137.5460 O   0  0  0  0  0  0  0  0  0  0  0  0
  190.8760  177.2750  140.4070 C   0  0  0  0  0  3  0  0  0  0  0  0
  181.1840  179.0190  139.1640 C   0  0  0  0  0  2  0  0  0  0  0  0
  181.1250  176.6190  139.4390 N   0  0  0  0  0  0  0  0  0  0  0  0
  183.3710  178.8860  142.9140 C   0  0  0  0  0  0  0  0  0  0  0  0
  189.6920  177.5910  139.7200 C   0  0  0  0  0  3  0  0  0  0  0  0
  183.3730  179.0960  140.3300 C   0  0  0  0  0  2  0  0  0  0  0  0
  181.9170  178.6520  140.4540 C   0  0  1  0  0  0  0  0  0  0  0  0
  188.2440  177.7440  146.4550 C   0  0  0  0  0  3  0  0  0  0  0  0
  187.5500  177.8890  145.2460 C   0  0  0  0  0  0  0  0  0  0  0  0
  189.4830  177.4860  143.8440 C   0  0  0  0  0  3  0  0  0  0  0  0
  185.3380  178.1110  141.5580 C   0  0  0  0  0  2  0  0  0  0  0  0
  187.3260  178.2530  139.5950 C   0  0  0  0  0  1  0  0  0  0  0  0
  192.0560  176.9210  142.4900 O   0  0  0  0  0  1  0  0  0  0  0  0
  187.5510  177.9120  142.8480 C   0  0  0  0  0  0  0  0  0  0  0  0
  189.6910  177.4600  142.4840 C   0  0  0  0  0  0  0  0  0  0  0  0
  1 19  1  0  0  0  0
  1 20  1  0  0  0  0
  2 12  1  0  0  0  0
  3 31  1  0  0  0  0
  3 15  2  0  0  0  0
  4  5  1  0  0  0  0
  6 32  1  0  0  0  0
  6 31  2  0  0  0  0
  7  6  1  0  0  0  0
  8 23  1  6  0  0  0
  8 21  1  0  0  0  0
  9 15  1  0  0  0  0
 11 32  1  0  0  0  0
 11 30  1  0  0  0  0
 13  4  2  0  0  0  0
 14 13  1  0  0  0  0
 15 14  1  0  0  0  0
 16 26  1  0  0  0  0
 17  1  2  0  0  0  0
 18 11  2  0  0  0  0
 20 10  2  0  0  0  0
 21 12  1  0  0  0  0
 21  9  2  0  0  0  0
 22 18  1  0  0  0  0
 22  7  2  0  0  0  0
 23 24  1  0  0  0  0
 24 19  1  6  0  0  0
 24 10  1  0  0  0  0
 24  2  1  0  0  0  0
 25  5  2  0  0  0  0
 26 14  2  0  0  0  0
 26 25  1  0  0  0  0
 27 16  1  0  0  0  0
 28  8  1  0  0  0  0
 28  3  1  0  0  0  0
 29  7  1  0  0  0  0
 31 16  1  0  0  0  0
 32 27  2  0  0  0  0
M  END
>  <MODEL>
3

>  <REMARK>
 VINA RESULT:     -10.8      3.378      6.738
  Name = 
  0 active torsions:
  status: ('A' for Active; 'I' for Inactive)
                            x       y       z     vdW  Elec       q    Type
                         _______ _______ _______ _____ _____    ______ ____

>  <TORSDO>
F 0

$$$$
=
 OpenBabel10262421263D

 32 38  0  0  1  0  0  0  0  0999 V2000
  188.4340  178.7010  136.3790 C   0  0  0  0  0  0  0  0  0  0  0  0
  190.2160  176.4860  138.3540 C   0  0  0  0  0  2  0  0  0  0  0  0
  188.3580  177.4450  143.1070 C   0  0  0  0  0  0  0  0  0  0  0  0
  192.1010  176.5160  146.0420 N   0  0  0  0  0  0  0  0  0  0  0  0
  191.3340  176.7780  147.1330 C   0  0  0  0  0  3  0  0  0  0  0  0
  186.2270  178.0420  144.4300 C   0  0  0  0  0  0  0  0  0  0  0  0
  185.1150  178.2230  143.5700 C   0  0  0  0  0  0  0  0  0  0  0  0
  188.5040  176.7580  140.7180 C   0  0  2  0  0  3  0  0  0  0  0  0
  190.5540  176.8200  142.0810 C   0  0  0  0  0  3  0  0  0  0  0  0
  189.4250  178.8980  138.4700 C   0  0  0  0  0  3  0  0  0  0  0  0
  184.8470  178.5590  146.3730 C   0  0  0  0  0  0  0  0  0  0  0  0
  190.9430  176.5930  139.6920 C   0  0  0  0  0  2  0  0  0  0  0  0
  191.6010  176.5990  144.7810 C   0  0  0  0  0  3  0  0  0  0  0  0
  190.2620  176.9610  144.5710 C   0  0  0  0  0  0  0  0  0  0  0  0
  189.7140  177.0670  143.2770 C   0  0  0  0  0  0  0  0  0  0  0  0
  188.1500  177.5840  145.4910 N   0  0  0  0  0  0  0  0  0  0  0  0
  187.9920  179.0490  135.2540 O   0  0  0  0  0  0  0  0  0  0  0  0
  183.7530  178.7710  145.5280 C   0  0  0  0  0  3  0  0  0  0  0  0
  188.3960  177.3150  136.8770 C   0  0  0  0  0  2  0  0  0  0  0  0
  189.0140  179.6160  137.2790 N   0  0  0  0  0  0  0  0  0  0  0  0
  190.0150  176.7150  140.8630 C   0  0  0  0  0  0  0  0  0  0  0  0
  183.8870  178.5970  144.1410 C   0  0  0  0  0  3  0  0  0  0  0  0
  187.9660  177.0100  139.3020 C   0  0  0  0  0  2  0  0  0  0  0  0
  189.0140  177.4240  138.2710 C   0  0  1  0  0  0  0  0  0  0  0  0
  189.9950  177.1430  146.9790 C   0  0  0  0  0  3  0  0  0  0  0  0
  189.4510  177.2360  145.6910 C   0  0  0  0  0  0  0  0  0  0  0  0
  187.2460  177.9010  146.4400 C   0  0  0  0  0  3  0  0  0  0  0  0
  187.8820  177.7350  141.7120 C   0  0  0  0  0  2  0  0  0  0  0  0
  185.1240  177.9750  142.1070 C   0  0  0  0  0  1  0  0  0  0  0  0
  184.7160  178.7130  147.7470 O   0  0  0  0  0  1  0  0  0  0  0  0
  187.5760  177.6770  144.2610 C   0  0  0  0  0  0  0  0  0  0  0  0
  186.0630  178.1890  145.8000 C   0  0  0  0  0  0  0  0  0  0  0  0
  1 19  1  0  0  0  0
  1 20  1  0  0  0  0
  2 12  1  0  0  0  0
  3 15  2  0  0  0  0
  3 31  1  0  0  0  0
  4  5  1  0  0  0  0
  6 32  1  0  0  0  0
  7 22  2  0  0  0  0
  7  6  1  0  0  0  0
  8 23  1  6  0  0  0
  8 21  1  0  0  0  0
  8 28  1  0  0  0  0
  9 15  1  0  0  0  0
 11 30  1  0  0  0  0
 12 21  1  0  0  0  0
 13  4  2  0  0  0  0
 14 13  1  0  0  0  0
 14 26  2  0  0  0  0
 15 14  1  0  0  0  0
 16 26  1  0  0  0  0
 16 27  1  0  0  0  0
 17  1  2  0  0  0  0
 18 11  2  0  0  0  0
 20 10  2  0  0  0  0
 21  9  2  0  0  0  0
 22 18  1  0  0  0  0
 24 19  1  6  0  0  0
 24  2  1  0  0  0  0
 24 10  1  0  0  0  0
 24 23  1  0  0  0  0
 25  5  2  0  0  0  0
 26 25  1  0  0  0  0
 28  3  1  0  0  0  0
 29  7  1  0  0  0  0
 31  6  2  0  0  0  0
 31 16  1  0  0  0  0
 32 11  1  0  0  0  0
 32 27  2  0  0  0  0
M  END
>  <MODEL>
4

>  <REMARK>
 VINA RESULT:     -10.2      2.233      4.820
  Name = 
  0 active torsions:
  status: ('A' for Active; 'I' for Inactive)
                            x       y       z     vdW  Elec       q    Type
                         _______ _______ _______ _____ _____    ______ ____

>  <TORSDO>
F 0

$$$$
=
 OpenBabel10262421263D

 32 38  0  0  1  0  0  0  0  0999 V2000
  180.3730  180.9940  138.5600 C   0  0  0  0  0  0  0  0  0  0  0  0
  182.7240  178.6730  137.5270 C   0  0  0  0  0  2  0  0  0  0  0  0
  185.8820  178.3430  141.6350 C   0  0  0  0  0  0  0  0  0  0  0  0
  190.2130  177.3300  139.7110 N   0  0  0  0  0  0  0  0  0  0  0  0
  190.7660  177.2480  140.9500 C   0  0  0  0  0  3  0  0  0  0  0  0
  185.9560  178.3510  144.2130 C   0  0  0  0  0  0  0  0  0  0  0  0
  184.6700  178.5570  144.7690 C   0  0  0  0  0  0  0  0  0  0  0  0
  183.8610  178.2040  140.1880 C   0  0  2  0  0  3  0  0  0  0  0  0
  186.0900  178.2530  139.1430 C   0  0  0  0  0  3  0  0  0  0  0  0
  182.6800  180.8760  138.7940 C   0  0  0  0  0  3  0  0  0  0  0  0
  186.9380  178.2530  146.4430 C   0  0  0  0  0  0  0  0  0  0  0  0
  184.2470  178.5920  137.5940 C   0  0  0  0  0  2  0  0  0  0  0  0
  188.8950  177.6100  139.5330 C   0  0  0  0  0  3  0  0  0  0  0  0
  188.0600  177.8220  140.6390 C   0  0  0  0  0  0  0  0  0  0  0  0
  186.6920  178.1250  140.4910 C   0  0  0  0  0  0  0  0  0  0  0  0
  187.8060  177.9440  143.0090 N   0  0  0  0  0  0  0  0  0  0  0  0
  179.2290  181.5080  138.4600 O   0  0  0  0  0  0  0  0  0  0  0  0
  185.6770  178.4880  146.9990 C   0  0  0  0  0  3  0  0  0  0  0  0
  180.6190  179.5410  138.5240 C   0  0  0  0  0  2  0  0  0  0  0  0
  181.5390  181.7670  138.7180 N   0  0  0  0  0  0  0  0  0  0  0  0
  184.7680  178.3360  138.9770 C   0  0  0  0  0  0  0  0  0  0  0  0
  184.5540  178.6310  146.1680 C   0  0  0  0  0  3  0  0  0  0  0  0
  182.4110  178.6740  140.0050 C   0  0  0  0  0  2  0  0  0  0  0  0
  182.1320  179.4350  138.7100 C   0  0  1  0  0  0  0  0  0  0  0  0
  189.9780  177.4520  142.0840 C   0  0  0  0  0  3  0  0  0  0  0  0
  188.6150  177.7410  141.9330 C   0  0  0  0  0  0  0  0  0  0  0  0
  188.1730  177.9260  144.3070 C   0  0  0  0  0  3  0  0  0  0  0  0
  184.4870  178.8550  141.4190 C   0  0  0  0  0  2  0  0  0  0  0  0
  183.4090  178.6280  143.9900 C   0  0  0  0  0  1  0  0  0  0  0  0
  188.0500  178.0930  147.2610 O   0  0  0  0  0  1  0  0  0  0  0  0
  186.4770  178.2170  142.9120 C   0  0  0  0  0  0  0  0  0  0  0  0
  187.0470  178.1800  145.0550 C   0  0  0  0  0  0  0  0  0  0  0  0
  1 20  1  0  0  0  0
  2 12  1  0  0  0  0
  3 31  1  0  0  0  0
  4  5  1  0  0  0  0
  5 25  2  0  0  0  0
  6  7  1  0  0  0  0
  6 32  1  0  0  0  0
  7 22  2  0  0  0  0
  8 23  1  6  0  0  0
  8 28  1  0  0  0  0
  9 15  1  0  0  0  0
 11 18  2  0  0  0  0
 11 30  1  0  0  0  0
 12 21  1  0  0  0  0
 13  4  2  0  0  0  0
 13 14  1  0  0  0  0
 14 26  2  0  0  0  0
 15 14  1  0  0  0  0
 15  3  2  0  0  0  0
 16 27  1  0  0  0  0
 17  1  2  0  0  0  0
 19  1  1  0  0  0  0
 19 24  1  0  0  0  0
 20 10  2  0  0  0  0
 21  9  2  0  0  0  0
 21  8  1  0  0  0  0
 22 18  1  0  0  0  0
 24  2  1  6  0  0  0
 24 10  1  0  0  0  0
 24 23  1  0  0  0  0
 26 25  1  0  0  0  0
 26 16  1  0  0  0  0
 27 32  2  0  0  0  0
 28  3  1  0  0  0  0
 29  7  1  0  0  0  0
 31 16  1  0  0  0  0
 31  6  2  0  0  0  0
 32 11  1  0  0  0  0
M  END
>  <MODEL>
5

>  <REMARK>
 VINA RESULT:      -9.5      3.673      6.874
  Name = 
  0 active torsions:
  status: ('A' for Active; 'I' for Inactive)
                            x       y       z     vdW  Elec       q    Type
                         _______ _______ _______ _____ _____    ______ ____

>  <TORSDO>
F 0

$$$$
