=
 OpenBabel10262421463D

 30 32  0  0  1  0  0  0  0  0999 V2000
  182.6440  178.3520  140.4680 C   0  0  2  0  0  0  0  0  0  0  0  0
  182.9380  177.5330  139.1890 C   0  0  1  0  0  3  0  0  0  0  0  0
  181.0370  177.1590  137.3690 C   0  0  1  0  0  3  0  0  0  0  0  0
  181.4390  177.7820  141.2730 C   0  0  2  0  0  3  0  0  0  0  0  0
  182.3730  179.6840  140.1320 O   0  0  0  0  0  1  0  0  0  0  0  0
  183.9210  178.2850  141.3490 C   0  0  2  0  0  3  0  0  0  0  0  0
  179.7600  177.0970  138.2120 C   0  0  2  0  0  3  0  0  0  0  0  0
  183.7080  178.4800  142.8550 C   0  0  0  0  0  2  0  0  0  0  0  0
  183.3040  175.1900  138.2400 C   0  0  0  0  0  2  0  0  0  0  0  0
  182.9630  176.0140  139.4620 C   0  0  0  0  0  2  0  0  0  0  0  0
  181.2480  175.6550  135.5720 O   0  0  0  0  0  0  0  0  0  0  0  0
  182.0200  174.7370  137.5840 C   0  0  0  0  0  2  0  0  0  0  0  0
  182.1890  178.0230  137.9190 C   0  0  2  0  0  3  0  0  0  0  0  0
  180.1240  177.8000  140.5060 C   0  0  0  0  0  2  0  0  0  0  0  0
  179.0670  178.3170  138.1500 O   0  0  0  0  0  1  0  0  0  0  0  0
  180.0470  176.6660  139.5890 N   0  0  0  0  0  0  0  0  0  0  0  0
  181.2140  178.4700  142.6300 C   0  0  0  0  0  2  0  0  0  0  0  0
  181.4350  175.8400  136.7620 C   0  0  0  0  0  0  0  0  0  0  0  0
  183.1200  178.2910  136.9030 O   0  0  0  0  0  1  0  0  0  0  0  0
  182.4270  179.2490  143.1370 C   0  0  0  0  0  2  0  0  0  0  0  0
  178.9490  175.8120  140.0220 C   0  0  0  0  0  2  0  0  0  0  0  0
  179.4460  174.3880  140.2220 C   0  0  2  0  0  3  0  0  0  0  0  0
  178.9350  173.5280  139.0790 C   0  0  0  0  0  1  0  0  0  0  0  0
  178.9310  173.8590  141.5170 C   0  0  0  0  0  3  0  0  0  0  0  0
  179.6370  173.1820  142.2490 O   0  0  0  0  0  0  0  0  0  0  0  0
  185.0900  179.1200  140.8190 C   0  0  0  0  0  2  0  0  0  0  0  0
  187.6620  178.5940  139.7080 O   0  0  0  0  0  0  0  0  0  0  0  0
  186.3020  178.8720  141.5890 N   0  0  0  0  0  2  0  0  0  0  0  0
  188.7340  178.2370  141.7990 C   0  0  0  0  0  1  0  0  0  0  0  0
  187.5490  178.5630  140.9620 C   0  0  0  0  0  0  0  0  0  0  0  0
  1  5  1  6  0  0  0
  1  4  1  0  0  0  0
  1  6  1  0  0  0  0
  2 10  1  1  0  0  0
  2  1  1  0  0  0  0
  3 18  1  1  0  0  0
  3 13  1  0  0  0  0
  3  7  1  0  0  0  0
  4 14  1  6  0  0  0
  4 17  1  0  0  0  0
  6 26  1  6  0  0  0
  6  8  1  0  0  0  0
  7 15  1  1  0  0  0
  7 16  1  0  0  0  0
  8 20  1  0  0  0  0
  9 10  1  0  0  0  0
 11 18  2  0  0  0  0
 12  9  1  0  0  0  0
 13 19  1  6  0  0  0
 13  2  1  0  0  0  0
 16 21  1  0  0  0  0
 16 14  1  0  0  0  0
 17 20  1  0  0  0  0
 18 12  1  0  0  0  0
 21 22  1  0  0  0  0
 22 23  1  6  0  0  0
 22 24  1  0  0  0  0
 24 25  2  0  0  0  0
 26 28  1  0  0  0  0
 27 30  2  0  0  0  0
 30 28  1  0  0  0  0
 30 29  1  0  0  0  0
M  END
>  <MODEL>
1

>  <REMARK>
 VINA RESULT:      -5.3      0.000      0.000
  Name = 
  5 active torsions:
  status: ('A' for Active; 'I' for Inactive)
    1  A    between atoms: C_7  and  C_10
    2  A    between atoms: C_7  and  C_15
    3  A    between atoms: C_8  and  C_12
    4  A    between atoms: N_9  and  C_12
    5  A    between atoms: C_10  and  N_25
                            x       y       z     vdW  Elec       q    Type
                         _______ _______ _______ _____ _____    ______ ____

>  <TORSDO>
F 5

$$$$
=
 OpenBabel10262421463D

 30 32  0  0  1  0  0  0  0  0999 V2000
  189.4220  177.2950  140.8250 C   0  0  2  0  0  0  0  0  0  0  0  0
  190.2940  177.3150  142.1030 C   0  0  1  0  0  3  0  0  0  0  0  0
  189.2660  176.5790  144.4410 C   0  0  1  0  0  3  0  0  0  0  0  0
  188.1320  178.1550  140.9740 C   0  0  2  0  0  3  0  0  0  0  0  0
  189.0530  175.9800  140.5180 O   0  0  0  0  0  1  0  0  0  0  0  0
  190.2910  177.8760  139.6770 C   0  0  2  0  0  3  0  0  0  0  0  0
  187.8060  177.0290  144.3330 C   0  0  2  0  0  3  0  0  0  0  0  0
  189.5240  178.5070  138.5090 C   0  0  0  0  0  2  0  0  0  0  0  0
  191.3890  178.8020  143.8680 C   0  0  0  0  0  2  0  0  0  0  0  0
  190.4930  178.7440  142.6500 C   0  0  0  0  0  2  0  0  0  0  0  0
  190.3710  176.8970  146.4940 O   0  0  0  0  0  0  0  0  0  0  0  0
  190.5270  178.7790  145.1090 C   0  0  0  0  0  2  0  0  0  0  0  0
  189.9720  176.1910  143.1260 C   0  0  2  0  0  3  0  0  0  0  0  0
  187.1960  177.6760  142.0750 C   0  0  0  0  0  2  0  0  0  0  0  0
  186.9740  175.9360  144.0390 O   0  0  0  0  0  1  0  0  0  0  0  0
  187.6570  178.1400  143.3820 N   0  0  0  0  0  0  0  0  0  0  0  0
  187.3200  178.2900  139.6760 C   0  0  0  0  0  2  0  0  0  0  0  0
  190.0850  177.3850  145.4140 C   0  0  0  0  0  0  0  0  0  0  0  0
  191.1380  175.4610  143.4000 O   0  0  0  0  0  1  0  0  0  0  0  0
  188.1110  177.9550  138.4130 C   0  0  0  0  0  2  0  0  0  0  0  0
  186.6490  179.0460  143.9160 C   0  0  0  0  0  2  0  0  0  0  0  0
  185.4100  178.2620  144.3230 C   0  0  2  0  0  3  0  0  0  0  0  0
  184.2770  178.6120  143.3730 C   0  0  0  0  0  1  0  0  0  0  0  0
  185.0270  178.6270  145.7170 C   0  0  0  0  0  3  0  0  0  0  0  0
  183.8960  179.0070  145.9830 O   0  0  0  0  0  0  0  0  0  0  0  0
  191.4010  176.9360  139.1980 C   0  0  0  0  0  2  0  0  0  0  0  0
  190.6880  174.4610  137.9760 O   0  0  0  0  0  0  0  0  0  0  0  0
  191.3070  176.7050  137.7620 N   0  0  0  0  0  2  0  0  0  0  0  0
  190.9930  175.2230  135.7460 C   0  0  0  0  0  1  0  0  0  0  0  0
  190.9930  175.4200  137.2200 C   0  0  0  0  0  0  0  0  0  0  0  0
  1  5  1  6  0  0  0
  1  4  1  0  0  0  0
  1  2  1  0  0  0  0
  2 10  1  1  0  0  0
  2 13  1  0  0  0  0
  3 18  1  6  0  0  0
  4 17  1  6  0  0  0
  4 14  1  0  0  0  0
  6 26  1  6  0  0  0
  6  1  1  0  0  0  0
  7 15  1  6  0  0  0
  7  3  1  0  0  0  0
  8  6  1  0  0  0  0
  9 12  1  0  0  0  0
 10  9  1  0  0  0  0
 12 18  1  0  0  0  0
 13 19  1  1  0  0  0
 13  3  1  0  0  0  0
 14 16  1  0  0  0  0
 16 21  1  0  0  0  0
 16  7  1  0  0  0  0
 18 11  2  0  0  0  0
 20  8  1  0  0  0  0
 20 17  1  0  0  0  0
 21 22  1  0  0  0  0
 22 23  1  6  0  0  0
 22 24  1  0  0  0  0
 24 25  2  0  0  0  0
 28 26  1  0  0  0  0
 29 30  1  0  0  0  0
 30 28  1  0  0  0  0
 30 27  2  0  0  0  0
M  END
>  <MODEL>
2

>  <REMARK>
 VINA RESULT:      -5.2      5.802      8.812
  Name = 
  5 active torsions:
  status: ('A' for Active; 'I' for Inactive)
    1  A    between atoms: C_7  and  C_10
    2  A    between atoms: C_7  and  C_15
    3  A    between atoms: C_8  and  C_12
    4  A    between atoms: N_9  and  C_12
    5  A    between atoms: C_10  and  N_25
                            x       y       z     vdW  Elec       q    Type
                         _______ _______ _______ _____ _____    ______ ____

>  <TORSDO>
F 5

$$$$
=
 OpenBabel10262421463D

 30 32  0  0  1  0  0  0  0  0999 V2000
  181.2360  178.9970  141.6990 C   0  0  2  0  0  0  0  0  0  0  0  0
  182.3050  178.6670  140.6300 C   0  0  1  0  0  3  0  0  0  0  0  0
  181.7090  178.8290  138.0440 C   0  0  1  0  0  3  0  0  0  0  0  0
  179.9500  178.1330  141.5380 C   0  0  2  0  0  3  0  0  0  0  0  0
  180.8830  180.3500  141.6210 O   0  0  0  0  0  1  0  0  0  0  0  0
  181.8770  178.7030  143.0820 C   0  0  2  0  0  3  0  0  0  0  0  0
  180.2320  178.4260  138.0040 C   0  0  2  0  0  3  0  0  0  0  0  0
  180.9010  178.3730  144.2180 C   0  0  0  0  0  2  0  0  0  0  0  0
  183.6050  176.7960  139.4760 C   0  0  0  0  0  2  0  0  0  0  0  0
  182.5250  177.1470  140.4750 C   0  0  0  0  0  2  0  0  0  0  0  0
  183.1200  178.0230  136.3420 O   0  0  0  0  0  0  0  0  0  0  0  0
  182.9600  176.5260  138.1360 C   0  0  0  0  0  2  0  0  0  0  0  0
  182.2060  179.5160  139.3320 C   0  0  2  0  0  3  0  0  0  0  0  0
  179.2310  178.3410  140.2130 C   0  0  0  0  0  2  0  0  0  0  0  0
  179.4140  179.5620  137.8870 O   0  0  0  0  0  1  0  0  0  0  0  0
  179.8780  177.5750  139.1500 N   0  0  0  0  0  0  0  0  0  0  0  0
  178.9310  178.3170  142.6740 C   0  0  0  0  0  2  0  0  0  0  0  0
  182.6390  177.8090  137.4410 C   0  0  0  0  0  0  0  0  0  0  0  0
  183.4340  180.1530  139.0970 O   0  0  0  0  0  1  0  0  0  0  0  0
  179.5180  178.9400  143.9390 C   0  0  0  0  0  2  0  0  0  0  0  0
  178.9310  176.5730  138.6800 C   0  0  0  0  0  2  0  0  0  0  0  0
  179.6370  175.2370  138.4980 C   0  0  2  0  0  3  0  0  0  0  0  0
  179.4930  174.8020  137.0500 C   0  0  0  0  0  1  0  0  0  0  0  0
  179.0130  174.2200  139.3920 C   0  0  0  0  0  3  0  0  0  0  0  0
  179.2180  174.2270  140.5970 O   0  0  0  0  0  0  0  0  0  0  0  0
  182.9360  179.7240  143.5090 C   0  0  0  0  0  2  0  0  0  0  0  0
  183.9540  178.9310  146.0520 O   0  0  0  0  0  0  0  0  0  0  0  0
  184.2240  179.0800  143.7340 N   0  0  0  0  0  2  0  0  0  0  0  0
  186.0490  178.1770  145.2220 C   0  0  0  0  0  1  0  0  0  0  0  0
  184.6910  178.7570  145.0460 C   0  0  0  0  0  0  0  0  0  0  0  0
  1  5  1  6  0  0  0
  1  6  1  0  0  0  0
  2 10  1  6  0  0  0
  2  1  1  0  0  0  0
  3 18  1  1  0  0  0
  3 13  1  0  0  0  0
  4 14  1  6  0  0  0
  4  1  1  0  0  0  0
  4 17  1  0  0  0  0
  6 26  1  1  0  0  0
  6  8  1  0  0  0  0
  7 15  1  1  0  0  0
  7  3  1  0  0  0  0
  7 16  1  0  0  0  0
  9 10  1  0  0  0  0
 11 18  2  0  0  0  0
 12  9  1  0  0  0  0
 13 19  1  6  0  0  0
 13  2  1  0  0  0  0
 16 14  1  0  0  0  0
 17 20  1  0  0  0  0
 18 12  1  0  0  0  0
 20  8  1  0  0  0  0
 21 16  1  0  0  0  0
 22 23  1  6  0  0  0
 22 21  1  0  0  0  0
 22 24  1  0  0  0  0
 24 25  2  0  0  0  0
 26 28  1  0  0  0  0
 28 30  1  0  0  0  0
 30 29  1  0  0  0  0
 30 27  2  0  0  0  0
M  END
>  <MODEL>
3

>  <REMARK>
 VINA RESULT:      -5.0      2.102      2.801
  Name = 
  5 active torsions:
  status: ('A' for Active; 'I' for Inactive)
    1  A    between atoms: C_7  and  C_10
    2  A    between atoms: C_7  and  C_15
    3  A    between atoms: C_8  and  C_12
    4  A    between atoms: N_9  and  C_12
    5  A    between atoms: C_10  and  N_25
                            x       y       z     vdW  Elec       q    Type
                         _______ _______ _______ _____ _____    ______ ____

>  <TORSDO>
F 5

$$$$
=
 OpenBabel10262421463D

 30 32  0  0  1  0  0  0  0  0999 V2000
  189.4150  177.2460  140.5830 C   0  0  2  0  0  0  0  0  0  0  0  0
  188.7910  177.4540  139.1820 C   0  0  1  0  0  3  0  0  0  0  0  0
  189.5290  175.9170  137.1430 C   0  0  1  0  0  3  0  0  0  0  0  0
  190.9690  177.3460  140.5600 C   0  0  2  0  0  3  0  0  0  0  0  0
  189.0510  175.9920  141.0880 O   0  0  0  0  0  1  0  0  0  0  0  0
  188.8480  178.3630  141.4990 C   0  0  2  0  0  3  0  0  0  0  0  0
  191.0020  175.6270  137.4450 C   0  0  2  0  0  3  0  0  0  0  0  0
  189.7140  178.7480  142.7050 C   0  0  0  0  0  2  0  0  0  0  0  0
  188.7490  178.9450  137.1090 C   0  0  0  0  0  2  0  0  0  0  0  0
  189.3800  178.6830  138.4580 C   0  0  0  0  0  2  0  0  0  0  0  0
  188.9240  176.3560  134.9110 O   0  0  0  0  0  0  0  0  0  0  0  0
  189.5960  178.2950  136.0400 C   0  0  0  0  0  2  0  0  0  0  0  0
  188.6050  176.1520  138.3550 C   0  0  2  0  0  3  0  0  0  0  0  0
  191.6400  176.2920  139.6900 C   0  0  0  0  0  2  0  0  0  0  0  0
  191.1500  174.3410  137.9910 O   0  0  0  0  0  1  0  0  0  0  0  0
  191.5950  176.6810  138.2820 N   0  0  0  0  0  0  0  0  0  0  0  0
  191.6170  177.3030  141.9540 C   0  0  0  0  0  2  0  0  0  0  0  0
  189.3130  176.8300  135.9650 C   0  0  0  0  0  0  0  0  0  0  0  0
  187.2610  176.0320  137.9700 O   0  0  0  0  0  1  0  0  0  0  0  0
  190.6500  177.6150  143.0950 C   0  0  0  0  0  2  0  0  0  0  0  0
  192.9640  176.8860  137.8300 C   0  0  0  0  0  2  0  0  0  0  0  0
  193.3840  175.7460  136.9130 C   0  0  2  0  0  3  0  0  0  0  0  0
  194.4160  174.8960  137.6330 C   0  0  0  0  0  1  0  0  0  0  0  0
  193.9770  176.3060  135.6640 C   0  0  0  0  0  3  0  0  0  0  0  0
  194.9500  177.0450  135.7040 O   0  0  0  0  0  0  0  0  0  0  0  0
  187.3780  178.1680  141.8850 C   0  0  0  0  0  2  0  0  0  0  0  0
  184.9180  178.2390  143.3250 O   0  0  0  0  0  0  0  0  0  0  0  0
  187.2380  177.9470  143.3190 N   0  0  0  0  0  2  0  0  0  0  0  0
  185.9060  177.8960  145.4590 C   0  0  0  0  0  1  0  0  0  0  0  0
  185.9760  178.0500  143.9820 C   0  0  0  0  0  0  0  0  0  0  0  0
  1  5  1  1  0  0  0
  1  6  1  0  0  0  0
  2 10  1  6  0  0  0
  2  1  1  0  0  0  0
  3 18  1  6  0  0  0
  3  7  1  0  0  0  0
  3 13  1  0  0  0  0
  4 14  1  6  0  0  0
  4  1  1  0  0  0  0
  4 17  1  0  0  0  0
  6 26  1  1  0  0  0
  6  8  1  0  0  0  0
  7 15  1  1  0  0  0
  7 16  1  0  0  0  0
  8 20  1  0  0  0  0
  9 10  1  0  0  0  0
 11 18  2  0  0  0  0
 12  9  1  0  0  0  0
 13 19  1  6  0  0  0
 13  2  1  0  0  0  0
 16 14  1  0  0  0  0
 17 20  1  0  0  0  0
 18 12  1  0  0  0  0
 21 16  1  0  0  0  0
 22 23  1  1  0  0  0
 22 21  1  0  0  0  0
 24 25  2  0  0  0  0
 24 22  1  0  0  0  0
 26 28  1  0  0  0  0
 27 30  2  0  0  0  0
 28 30  1  0  0  0  0
 30 29  1  0  0  0  0
M  END
>  <MODEL>
4

>  <REMARK>
 VINA RESULT:      -4.9      6.093      9.565
  Name = 
  5 active torsions:
  status: ('A' for Active; 'I' for Inactive)
    1  A    between atoms: C_7  and  C_10
    2  A    between atoms: C_7  and  C_15
    3  A    between atoms: C_8  and  C_12
    4  A    between atoms: N_9  and  C_12
    5  A    between atoms: C_10  and  N_25
                            x       y       z     vdW  Elec       q    Type
                         _______ _______ _______ _____ _____    ______ ____

>  <TORSDO>
F 5

$$$$
=
 OpenBabel10262421463D

 30 32  0  0  1  0  0  0  0  0999 V2000
  184.0410  176.7210  137.1740 C   0  0  2  0  0  0  0  0  0  0  0  0
  182.6160  176.4610  137.7180 C   0  0  1  0  0  3  0  0  0  0  0  0
  181.1160  178.4830  138.5730 C   0  0  1  0  0  3  0  0  0  0  0  0
  184.9400  177.4680  138.2040 C   0  0  2  0  0  3  0  0  0  0  0  0
  183.9740  177.4810  136.0000 O   0  0  0  0  0  1  0  0  0  0  0  0
  184.6650  175.3340  136.8660 C   0  0  2  0  0  3  0  0  0  0  0  0
  182.1470  179.4530  139.1580 C   0  0  2  0  0  3  0  0  0  0  0  0
  186.1970  175.2660  136.8950 C   0  0  0  0  0  2  0  0  0  0  0  0
  181.2550  175.5640  139.6840 C   0  0  0  0  0  2  0  0  0  0  0  0
  182.6340  175.8810  139.1480 C   0  0  0  0  0  2  0  0  0  0  0  0
  179.0920  178.1870  139.7360 O   0  0  0  0  0  0  0  0  0  0  0  0
  180.7670  176.7390  140.5000 C   0  0  0  0  0  2  0  0  0  0  0  0
  181.5890  177.5870  137.4100 C   0  0  2  0  0  3  0  0  0  0  0  0
  184.4250  178.8500  138.5820 C   0  0  0  0  0  2  0  0  0  0  0  0
  182.4010  180.5030  138.2600 O   0  0  0  0  0  1  0  0  0  0  0  0
  183.3660  178.7490  139.5830 N   0  0  0  0  0  0  0  0  0  0  0  0
  186.4080  177.6040  137.7650 C   0  0  0  0  0  2  0  0  0  0  0  0
  180.2460  177.8160  139.6050 C   0  0  0  0  0  0  0  0  0  0  0  0
  180.4840  177.0400  136.7400 O   0  0  0  0  0  1  0  0  0  0  0  0
  186.8160  176.6340  136.6580 C   0  0  0  0  0  2  0  0  0  0  0  0
  183.8400  179.3840  140.8040 C   0  0  0  0  0  2  0  0  0  0  0  0
  184.0220  178.3390  141.8960 C   0  0  2  0  0  3  0  0  0  0  0  0
  183.1040  178.6820  143.0570 C   0  0  0  0  0  1  0  0  0  0  0  0
  185.4400  178.3450  142.3580 C   0  0  0  0  0  3  0  0  0  0  0  0
  186.3520  178.6190  141.5920 O   0  0  0  0  0  0  0  0  0  0  0  0
  184.0820  174.6480  135.6270 C   0  0  0  0  0  2  0  0  0  0  0  0
  182.1160  173.0600  136.9470 O   0  0  0  0  0  0  0  0  0  0  0  0
  184.1270  173.1980  135.7610 N   0  0  0  0  0  2  0  0  0  0  0  0
  183.2700  171.0020  136.6590 C   0  0  0  0  0  1  0  0  0  0  0  0
  183.1290  172.4720  136.4840 C   0  0  0  0  0  0  0  0  0  0  0  0
  1  5  1  6  0  0  0
  1  2  1  0  0  0  0
  1  4  1  0  0  0  0
  2 10  1  1  0  0  0
  3  7  1  0  0  0  0
  3 18  1  1  0  0  0
  4 17  1  6  0  0  0
  4 14  1  0  0  0  0
  6 26  1  6  0  0  0
  6  8  1  0  0  0  0
  6  1  1  0  0  0  0
  7 15  1  6  0  0  0
  7 16  1  0  0  0  0
  9 12  1  0  0  0  0
 10  9  1  0  0  0  0
 13 19  1  1  0  0  0
 13  2  1  0  0  0  0
 13  3  1  0  0  0  0
 14 16  1  0  0  0  0
 16 21  1  0  0  0  0
 18 11  2  0  0  0  0
 18 12  1  0  0  0  0
 20  8  1  0  0  0  0
 20 17  1  0  0  0  0
 21 22  1  0  0  0  0
 22 24  1  0  0  0  0
 22 23  1  1  0  0  0
 25 24  2  0  0  0  0
 26 28  1  0  0  0  0
 28 30  1  0  0  0  0
 30 29  1  0  0  0  0
 30 27  2  0  0  0  0
M  END
>  <MODEL>
5

>  <REMARK>
 VINA RESULT:      -4.8      2.521      5.932
  Name = 
  5 active torsions:
  status: ('A' for Active; 'I' for Inactive)
    1  A    between atoms: C_7  and  C_10
    2  A    between atoms: C_7  and  C_15
    3  A    between atoms: C_8  and  C_12
    4  A    between atoms: N_9  and  C_12
    5  A    between atoms: C_10  and  N_25
                            x       y       z     vdW  Elec       q    Type
                         _______ _______ _______ _____ _____    ______ ____

>  <TORSDO>
F 5

$$$$
=
 OpenBabel10262421463D

 30 32  0  0  1  0  0  0  0  0999 V2000
  184.6290  178.8200  141.7290 C   0  0  2  0  0  0  0  0  0  0  0  0
  184.4240  178.6160  140.2100 C   0  0  1  0  0  3  0  0  0  0  0  0
  182.2460  179.5570  139.0110 C   0  0  1  0  0  3  0  0  0  0  0  0
  183.4450  178.2540  142.5680 C   0  0  2  0  0  3  0  0  0  0  0  0
  184.7720  180.1840  142.0150 O   0  0  0  0  0  1  0  0  0  0  0  0
  185.9310  178.0670  142.1140 C   0  0  2  0  0  3  0  0  0  0  0  0
  181.1720  179.4280  140.0960 C   0  0  2  0  0  3  0  0  0  0  0  0
  186.0370  177.6120  143.5740 C   0  0  0  0  0  2  0  0  0  0  0  0
  183.8260  176.9330  138.3840 C   0  0  0  0  0  2  0  0  0  0  0  0
  183.9800  177.1780  139.8690 C   0  0  0  0  0  2  0  0  0  0  0  0
  181.6530  179.0140  136.8000 O   0  0  0  0  0  0  0  0  0  0  0  0
  182.3780  177.1400  138.0030 C   0  0  0  0  0  2  0  0  0  0  0  0
  183.6940  179.7850  139.4920 C   0  0  2  0  0  3  0  0  0  0  0  0
  182.1100  178.9230  142.2770 C   0  0  0  0  0  2  0  0  0  0  0  0
  180.9300  180.6720  140.7010 O   0  0  0  0  0  1  0  0  0  0  0  0
  181.5120  178.3730  141.0630 N   0  0  0  0  0  0  0  0  0  0  0  0
  183.6830  178.2940  144.0870 C   0  0  0  0  0  2  0  0  0  0  0  0
  182.0770  178.5970  137.8640 C   0  0  0  0  0  0  0  0  0  0  0  0
  184.4870  180.2500  138.4320 O   0  0  0  0  0  1  0  0  0  0  0  0
  185.1510  178.4510  144.4800 C   0  0  0  0  0  2  0  0  0  0  0  0
  180.2740  177.7020  141.4370 C   0  0  0  0  0  2  0  0  0  0  0  0
  179.9360  176.6280  140.4130 C   0  0  2  0  0  3  0  0  0  0  0  0
  178.9310  177.1950  139.4250 C   0  0  0  0  0  1  0  0  0  0  0  0
  179.3460  175.4480  141.1080 C   0  0  0  0  0  3  0  0  0  0  0  0
  179.7130  174.3120  140.8450 O   0  0  0  0  0  0  0  0  0  0  0  0
  187.2130  178.7480  141.6280 C   0  0  0  0  0  2  0  0  0  0  0  0
  188.6820  178.9680  139.1940 O   0  0  0  0  0  0  0  0  0  0  0  0
  188.1730  177.7680  141.1350 N   0  0  0  0  0  2  0  0  0  0  0  0
  189.7400  176.8490  139.3860 C   0  0  0  0  0  1  0  0  0  0  0  0
  188.8340  177.9210  139.8770 C   0  0  0  0  0  0  0  0  0  0  0  0
  1  5  1  1  0  0  0
  1  6  1  0  0  0  0
  1  4  1  0  0  0  0
  2 10  1  1  0  0  0
  2  1  1  0  0  0  0
  3 18  1  1  0  0  0
  3 13  1  0  0  0  0
  3  7  1  0  0  0  0
  4 14  1  1  0  0  0
  4 17  1  0  0  0  0
  6 26  1  1  0  0  0
  6  8  1  0  0  0  0
  7 15  1  1  0  0  0
  7 16  1  0  0  0  0
  8 20  1  0  0  0  0
  9 10  1  0  0  0  0
 11 18  2  0  0  0  0
 12  9  1  0  0  0  0
 13 19  1  6  0  0  0
 13  2  1  0  0  0  0
 16 21  1  0  0  0  0
 16 14  1  0  0  0  0
 17 20  1  0  0  0  0
 18 12  1  0  0  0  0
 22 23  1  6  0  0  0
 22 24  1  0  0  0  0
 22 21  1  0  0  0  0
 25 24  2  0  0  0  0
 27 30  2  0  0  0  0
 28 26  1  0  0  0  0
 29 30  1  0  0  0  0
 30 28  1  0  0  0  0
M  END
>  <MODEL>
6

>  <REMARK>
 VINA RESULT:      -4.7      1.776      2.665
  Name = 
  5 active torsions:
  status: ('A' for Active; 'I' for Inactive)
    1  A    between atoms: C_7  and  C_10
    2  A    between atoms: C_7  and  C_15
    3  A    between atoms: C_8  and  C_12
    4  A    between atoms: N_9  and  C_12
    5  A    between atoms: C_10  and  N_25
                            x       y       z     vdW  Elec       q    Type
                         _______ _______ _______ _____ _____    ______ ____

>  <TORSDO>
F 5

$$$$
=
 OpenBabel10262421463D

 30 32  0  0  1  0  0  0  0  0999 V2000
  182.5050  177.9350  138.8560 C   0  0  2  0  0  0  0  0  0  0  0  0
  183.4460  176.8820  138.2240 C   0  0  1  0  0  3  0  0  0  0  0  0
  183.3550  176.3980  135.6110 C   0  0  1  0  0  3  0  0  0  0  0  0
  181.0040  177.6390  138.5650 C   0  0  2  0  0  3  0  0  0  0  0  0
  182.8160  179.2100  138.3670 O   0  0  0  0  0  1  0  0  0  0  0  0
  182.7440  177.8900  140.3890 C   0  0  2  0  0  3  0  0  0  0  0  0
  181.8770  176.6130  135.2720 C   0  0  2  0  0  3  0  0  0  0  0  0
  181.5770  178.3630  141.2650 C   0  0  0  0  0  2  0  0  0  0  0  0
  183.9060  174.3860  137.9410 C   0  0  0  0  0  2  0  0  0  0  0  0
  182.9740  175.4390  138.4990 C   0  0  0  0  0  2  0  0  0  0  0  0
  184.4710  174.5930  134.5940 O   0  0  0  0  0  0  0  0  0  0  0  0
  183.4030  173.9610  136.5810 C   0  0  0  0  0  2  0  0  0  0  0  0
  183.9240  177.2210  136.7850 C   0  0  2  0  0  3  0  0  0  0  0  0
  180.6490  177.6600  137.0840 C   0  0  0  0  0  2  0  0  0  0  0  0
  181.6860  177.8690  134.6730 O   0  0  0  0  0  1  0  0  0  0  0  0
  181.0200  176.3980  136.4480 N   0  0  0  0  0  0  0  0  0  0  0  0
  180.0300  178.5700  139.3060 C   0  0  0  0  0  2  0  0  0  0  0  0
  183.7970  174.9600  135.5410 C   0  0  0  0  0  0  0  0  0  0  0  0
  185.3270  177.2130  136.7450 O   0  0  0  0  0  1  0  0  0  0  0  0
  180.6540  179.2960  140.4980 C   0  0  0  0  0  2  0  0  0  0  0  0
  179.7990  175.7490  135.9920 C   0  0  0  0  0  2  0  0  0  0  0  0
  179.7430  174.3210  136.5150 C   0  0  2  0  0  3  0  0  0  0  0  0
  178.9310  173.4780  135.5470 C   0  0  0  0  0  1  0  0  0  0  0  0
  179.0940  174.3100  137.8580 C   0  0  0  0  0  3  0  0  0  0  0  0
  179.2470  173.3710  138.6250 O   0  0  0  0  0  0  0  0  0  0  0  0
  184.0790  178.4980  140.8310 C   0  0  0  0  0  2  0  0  0  0  0  0
  186.6040  178.4470  142.1530 O   0  0  0  0  0  0  0  0  0  0  0  0
  184.2710  178.3480  142.2680 N   0  0  0  0  0  2  0  0  0  0  0  0
  185.7090  178.0430  144.3170 C   0  0  0  0  0  1  0  0  0  0  0  0
  185.5730  178.2790  142.8550 C   0  0  0  0  0  0  0  0  0  0  0  0
  1  5  1  6  0  0  0
  1  6  1  0  0  0  0
  2 10  1  6  0  0  0
  2  1  1  0  0  0  0
  3 18  1  1  0  0  0
  3 13  1  0  0  0  0
  4 14  1  6  0  0  0
  4  1  1  0  0  0  0
  4 17  1  0  0  0  0
  6 26  1  6  0  0  0
  6  8  1  0  0  0  0
  7 15  1  1  0  0  0
  7  3  1  0  0  0  0
  7 16  1  0  0  0  0
  9 10  1  0  0  0  0
 11 18  2  0  0  0  0
 12  9  1  0  0  0  0
 13 19  1  1  0  0  0
 13  2  1  0  0  0  0
 16 14  1  0  0  0  0
 17 20  1  0  0  0  0
 18 12  1  0  0  0  0
 20  8  1  0  0  0  0
 21 16  1  0  0  0  0
 21 22  1  0  0  0  0
 22 23  1  6  0  0  0
 22 24  1  0  0  0  0
 24 25  2  0  0  0  0
 26 28  1  0  0  0  0
 27 30  2  0  0  0  0
 28 30  1  0  0  0  0
 30 29  1  0  0  0  0
M  END
>  <MODEL>
7

>  <REMARK>
 VINA RESULT:      -4.3      2.131      2.921
  Name = 
  5 active torsions:
  status: ('A' for Active; 'I' for Inactive)
    1  A    between atoms: C_7  and  C_10
    2  A    between atoms: C_7  and  C_15
    3  A    between atoms: C_8  and  C_12
    4  A    between atoms: N_9  and  C_12
    5  A    between atoms: C_10  and  N_25
                            x       y       z     vdW  Elec       q    Type
                         _______ _______ _______ _____ _____    ______ ____

>  <TORSDO>
F 5

$$$$
=
 OpenBabel10262421463D

 30 32  0  0  1  0  0  0  0  0999 V2000
  189.3300  177.3360  140.5120 C   0  0  2  0  0  0  0  0  0  0  0  0
  189.8880  176.6200  139.2600 C   0  0  1  0  0  3  0  0  0  0  0  0
  189.8180  177.8160  136.8870 C   0  0  1  0  0  3  0  0  0  0  0  0
  187.8440  177.7680  140.3360 C   0  0  2  0  0  3  0  0  0  0  0  0
  190.0980  178.4720  140.7970 O   0  0  0  0  0  1  0  0  0  0  0  0
  189.4300  176.3290  141.6900 C   0  0  2  0  0  3  0  0  0  0  0  0
  188.5340  178.6490  136.9590 C   0  0  2  0  0  3  0  0  0  0  0  0
  188.4420  176.5430  142.8420 C   0  0  0  0  0  2  0  0  0  0  0  0
  189.4700  174.7790  137.5400 C   0  0  0  0  0  2  0  0  0  0  0  0
  188.9260  175.5350  138.7320 C   0  0  0  0  0  2  0  0  0  0  0  0
  190.3050  176.7090  134.8680 O   0  0  0  0  0  0  0  0  0  0  0  0
  188.9470  175.4190  136.2750 C   0  0  0  0  0  2  0  0  0  0  0  0
  190.5540  177.5610  138.2180 C   0  0  2  0  0  3  0  0  0  0  0  0
  187.6230  178.7630  139.2050 C   0  0  0  0  0  2  0  0  0  0  0  0
  188.8340  179.9970  137.2190 O   0  0  0  0  0  1  0  0  0  0  0  0
  187.5760  178.0760  137.9160 N   0  0  0  0  0  0  0  0  0  0  0  0
  187.2050  178.3400  141.6120 C   0  0  0  0  0  2  0  0  0  0  0  0
  189.7360  176.6450  135.9450 C   0  0  0  0  0  0  0  0  0  0  0  0
  191.8650  177.1280  137.9700 O   0  0  0  0  0  1  0  0  0  0  0  0
  187.9560  177.9830  142.8940 C   0  0  0  0  0  2  0  0  0  0  0  0
  186.2400  178.2520  137.3620 C   0  0  0  0  0  2  0  0  0  0  0  0
  185.6150  176.8940  137.0750 C   0  0  2  0  0  3  0  0  0  0  0  0
  185.5730  176.6850  135.5710 C   0  0  0  0  0  1  0  0  0  0  0  0
  184.2300  176.8600  137.6260 C   0  0  0  0  0  3  0  0  0  0  0  0
  183.6350  177.8900  137.9050 O   0  0  0  0  0  0  0  0  0  0  0  0
  190.8580  176.0950  142.1910 C   0  0  0  0  0  2  0  0  0  0  0  0
  191.6790  178.1130  144.0310 O   0  0  0  0  0  0  0  0  0  0  0  0
  190.8860  175.9480  143.6410 N   0  0  0  0  0  2  0  0  0  0  0  0
  191.4440  176.7530  145.9650 C   0  0  0  0  0  1  0  0  0  0  0  0
  191.3600  176.9890  144.4990 C   0  0  0  0  0  0  0  0  0  0  0  0
  1  5  1  1  0  0  0
  1  6  1  0  0  0  0
  2 10  1  6  0  0  0
  2  1  1  0  0  0  0
  3 18  1  1  0  0  0
  3  7  1  0  0  0  0
  3 13  1  0  0  0  0
  4 14  1  6  0  0  0
  4  1  1  0  0  0  0
  4 17  1  0  0  0  0
  6 26  1  1  0  0  0
  6  8  1  0  0  0  0
  7 15  1  1  0  0  0
  7 16  1  0  0  0  0
  8 20  1  0  0  0  0
  9 10  1  0  0  0  0
 11 18  2  0  0  0  0
 12  9  1  0  0  0  0
 13 19  1  6  0  0  0
 13  2  1  0  0  0  0
 16 14  1  0  0  0  0
 17 20  1  0  0  0  0
 18 12  1  0  0  0  0
 21 16  1  0  0  0  0
 22 23  1  6  0  0  0
 22 21  1  0  0  0  0
 22 24  1  0  0  0  0
 24 25  2  0  0  0  0
 26 28  1  0  0  0  0
 27 30  2  0  0  0  0
 28 30  1  0  0  0  0
 30 29  1  0  0  0  0
M  END
>  <MODEL>
8

>  <REMARK>
 VINA RESULT:      -4.2      4.396      7.303
  Name = 
  5 active torsions:
  status: ('A' for Active; 'I' for Inactive)
    1  A    between atoms: C_7  and  C_10
    2  A    between atoms: C_7  and  C_15
    3  A    between atoms: C_8  and  C_12
    4  A    between atoms: N_9  and  C_12
    5  A    between atoms: C_10  and  N_25
                            x       y       z     vdW  Elec       q    Type
                         _______ _______ _______ _____ _____    ______ ____

>  <TORSDO>
F 5

$$$$
=
 OpenBabel10262421463D

 30 32  0  0  1  0  0  0  0  0999 V2000
  183.8300  177.3280  137.3120 C   0  0  2  0  0  0  0  0  0  0  0  0
  184.3120  175.9250  136.8720 C   0  0  1  0  0  3  0  0  0  0  0  0
  182.8620  174.4790  135.1770 C   0  0  1  0  0  3  0  0  0  0  0  0
  182.4070  177.2950  137.9440 C   0  0  2  0  0  3  0  0  0  0  0  0
  183.8150  178.1960  136.2130 O   0  0  0  0  0  1  0  0  0  0  0  0
  184.8440  177.8420  138.3690 C   0  0  2  0  0  3  0  0  0  0  0  0
  181.4240  174.8760  135.5280 C   0  0  2  0  0  3  0  0  0  0  0  0
  184.3090  178.8780  139.3650 C   0  0  0  0  0  2  0  0  0  0  0  0
  184.5930  173.4890  137.5850 C   0  0  0  0  0  2  0  0  0  0  0  0
  184.0810  174.8610  137.9650 C   0  0  0  0  0  2  0  0  0  0  0  0
  183.3000  172.2150  134.7100 O   0  0  0  0  0  0  0  0  0  0  0  0
  183.4540  172.6880  136.9990 C   0  0  0  0  0  2  0  0  0  0  0  0
  183.9510  175.5450  135.4090 C   0  0  2  0  0  3  0  0  0  0  0  0
  181.3230  176.8080  136.9930 C   0  0  0  0  0  2  0  0  0  0  0  0
  180.9250  175.7980  134.5940 O   0  0  0  0  0  1  0  0  0  0  0  0
  181.3220  175.3490  136.9170 N   0  0  0  0  0  0  0  0  0  0  0  0
  181.9570  178.6410  138.5370 C   0  0  0  0  0  2  0  0  0  0  0  0
  183.2230  173.0720  135.5730 C   0  0  0  0  0  0  0  0  0  0  0  0
  185.1210  175.2000  134.7150 O   0  0  0  0  0  1  0  0  0  0  0  0
  183.1040  179.6150  138.8020 C   0  0  0  0  0  2  0  0  0  0  0  0
  180.0550  174.8720  137.4530 C   0  0  0  0  0  2  0  0  0  0  0  0
  180.3080  173.8280  138.5320 C   0  0  2  0  0  3  0  0  0  0  0  0
  179.9800  172.4560  137.9690 C   0  0  0  0  0  1  0  0  0  0  0  0
  179.4360  174.1100  139.7090 C   0  0  0  0  0  3  0  0  0  0  0  0
  179.6710  173.6150  140.8010 O   0  0  0  0  0  0  0  0  0  0  0  0
  186.2000  178.2500  137.7870 C   0  0  0  0  0  2  0  0  0  0  0  0
  189.0010  178.0590  137.2870 O   0  0  0  0  0  0  0  0  0  0  0  0
  187.2370  178.2330  138.8120 N   0  0  0  0  0  2  0  0  0  0  0  0
  189.6260  177.9870  139.5790 C   0  0  0  0  0  1  0  0  0  0  0  0
  188.6210  178.0820  138.4880 C   0  0  0  0  0  0  0  0  0  0  0  0
  1  5  1  6  0  0  0
  1  4  1  0  0  0  0
  1  6  1  0  0  0  0
  2  1  1  0  0  0  0
  2 10  1  1  0  0  0
  3 13  1  0  0  0  0
  3  7  1  0  0  0  0
  3 18  1  1  0  0  0
  4 14  1  6  0  0  0
  4 17  1  0  0  0  0
  6 26  1  6  0  0  0
  6  8  1  0  0  0  0
  7 15  1  6  0  0  0
  7 16  1  0  0  0  0
  9 10  1  0  0  0  0
 11 18  2  0  0  0  0
 12  9  1  0  0  0  0
 13 19  1  1  0  0  0
 13  2  1  0  0  0  0
 16 14  1  0  0  0  0
 16 21  1  0  0  0  0
 17 20  1  0  0  0  0
 18 12  1  0  0  0  0
 20  8  1  0  0  0  0
 21 22  1  0  0  0  0
 22 23  1  6  0  0  0
 22 24  1  0  0  0  0
 24 25  2  0  0  0  0
 26 28  1  0  0  0  0
 27 30  2  0  0  0  0
 30 28  1  0  0  0  0
 30 29  1  0  0  0  0
M  END
>  <MODEL>
9

>  <REMARK>
 VINA RESULT:      -4.1      2.497      3.338
  Name = 
  5 active torsions:
  status: ('A' for Active; 'I' for Inactive)
    1  A    between atoms: C_7  and  C_10
    2  A    between atoms: C_7  and  C_15
    3  A    between atoms: C_8  and  C_12
    4  A    between atoms: N_9  and  C_12
    5  A    between atoms: C_10  and  N_25
                            x       y       z     vdW  Elec       q    Type
                         _______ _______ _______ _____ _____    ______ ____

>  <TORSDO>
F 5

$$$$
