=
 OpenBabel10262420203D

 55 61  0  0  1  0  0  0  0  0999 V2000
  184.4830  178.5520  141.2520 O   0  0  0  0  0  0  0  0  0  0  0  0
  186.7380  177.0910  135.3750 C   0  0  0  0  0  2  0  0  0  0  0  0
  183.7430  174.7380  134.6390 C   0  0  0  0  0  2  0  0  0  0  0  0
  180.9040  175.2710  134.6780 C   0  0  0  0  0  3  0  0  0  0  0  0
  179.5690  175.6740  134.6370 C   0  0  0  0  0  3  0  0  0  0  0  0
  180.9940  175.7690  137.0520 C   0  0  0  0  0  0  0  0  0  0  0  0
  179.6470  176.1500  137.0050 C   0  0  0  0  0  3  0  0  0  0  0  0
  183.4430  173.9690  136.9960 C   0  0  0  0  0  1  0  0  0  0  0  0
  178.9380  176.1040  135.8030 C   0  0  0  0  0  3  0  0  0  0  0  0
  186.8210  178.6320  141.8710 C   0  0  0  0  0  3  0  0  0  0  0  0
  181.6330  175.2930  135.8800 C   0  0  0  0  0  0  0  0  0  0  0  0
  187.5650  178.4570  139.1790 C   0  0  0  0  0  0  0  0  0  0  0  0
  183.4210  178.5660  140.3030 C   0  0  0  0  0  2  0  0  0  0  0  0
  186.2190  178.4670  139.5380 C   0  0  0  0  0  3  0  0  0  0  0  0
  182.9420  177.1510  139.9730 C   0  0  2  0  0  3  0  0  0  0  0  0
  187.1510  175.8760  137.6120 C   0  0  0  0  0  2  0  0  0  0  0  0
  181.6760  175.9050  138.2660 O   0  0  0  0  0  0  0  0  0  0  0  0
  185.2970  176.5820  135.3190 C   0  0  0  0  0  2  0  0  0  0  0  0
  185.2030  175.1560  134.8090 C   0  0  0  0  0  2  0  0  0  0  0  0
  188.1760  178.6300  141.5160 C   0  0  0  0  0  3  0  0  0  0  0  0
  187.6640  176.2100  136.2280 C   0  0  2  0  0  0  0  0  0  0  0  0
  185.8340  178.5490  140.8830 C   0  0  0  0  0  0  0  0  0  0  0  0
  182.9910  174.8050  135.8920 N   0  0  0  0  0  0  0  0  0  0  0  0
  183.9360  176.4220  139.0790 C   0  0  0  0  0  2  0  0  0  0  0  0
  188.3410  176.8270  137.4570 C   0  0  1  0  0  3  0  0  0  0  0  0
  182.6420  176.9310  138.4870 C   0  0  2  0  0  0  0  0  0  0  0  0
  187.9260  178.2730  137.7390 C   0  0  0  0  0  2  0  0  0  0  0  0
  188.5490  178.5370  140.1690 C   0  0  0  0  0  3  0  0  0  0  0  0
  180.5130  180.6170  135.8890 C   0  0  0  0  0  0  0  0  0  0  0  0
  182.6860  178.1080  137.4820 C   0  0  1  0  0  3  0  0  0  0  0  0
  179.9300  181.5440  136.8970 C   0  0  0  0  0  1  0  0  0  0  0  0
  181.2880  179.4830  136.2970 N   0  0  0  0  0  0  0  0  0  0  0  0
  182.6990  177.6530  136.1450 O   0  0  0  0  0  0  0  0  0  0  0  0
  181.9950  178.6140  135.3850 C   0  0  0  0  0  2  0  0  0  0  0  0
  180.3330  180.8500  134.6650 O   0  0  0  0  0  0  0  0  0  0  0  0
  181.6160  179.1580  137.6530 C   0  0  0  0  0  2  0  0  0  0  0  0
  188.4750  175.1380  135.4860 C   0  0  0  0  0  2  0  0  0  0  0  0
  192.7200  174.9120  137.8980 O   0  0  0  0  0  0  0  0  0  0  0  0
  192.0710  176.3900  135.0000 C   0  0  0  0  0  2  0  0  0  0  0  0
  189.7820  175.6110  134.9210 C   0  0  0  0  0  3  0  0  0  0  0  0
  191.8090  175.9830  137.9670 C   0  0  1  0  0  3  0  0  0  0  0  0
  190.8200  175.9130  135.6880 C   0  0  0  0  0  0  0  0  0  0  0  0
  194.5740  176.2090  134.8630 C   0  0  0  0  0  1  0  0  0  0  0  0
  190.7210  175.7720  137.0730 O   0  0  0  0  0  0  0  0  0  0  0  0
  193.3880  174.8410  136.6410 C   0  0  2  0  0  3  0  0  0  0  0  0
  193.3740  176.1270  135.7790 C   0  0  2  0  0  3  0  0  0  0  0  0
  192.7720  173.6810  134.5950 O   0  0  0  0  0  1  0  0  0  0  0  0
  193.1300  173.4870  135.9280 C   0  0  0  0  0  0  0  0  0  0  0  0
  192.0940  172.7980  136.5670 O   0  0  0  0  0  1  0  0  0  0  0  0
  194.3980  172.6330  135.9470 C   0  0  0  0  0  2  0  0  0  0  0  0
  195.9480  171.3310  137.3120 N   0  0  0  0  0  1  0  0  0  0  0  0
  194.6100  171.8810  137.2570 C   0  0  0  0  0  2  0  0  0  0  0  0
  191.2750  176.0960  139.3880 C   0  0  0  0  0  2  0  0  0  0  0  0
  193.3110  177.3630  139.9470 C   0  0  0  0  0  2  0  0  0  0  0  0
  192.0200  177.1340  140.1620 C   0  0  0  0  0  3  0  0  0  0  0  0
  2 21  1  0  0  0  0
  3 19  1  0  0  0  0
  3 23  1  0  0  0  0
  4 11  1  0  0  0  0
  5  4  2  0  0  0  0
  5  9  1  0  0  0  0
  6 17  1  0  0  0  0
  7  6  1  0  0  0  0
  9  7  2  0  0  0  0
 11 23  1  0  0  0  0
 11  6  2  0  0  0  0
 12 14  2  0  0  0  0
 12 28  1  0  0  0  0
 13  1  1  0  0  0  0
 14 22  1  0  0  0  0
 15 24  1  6  0  0  0
 15 13  1  0  0  0  0
 17 26  1  0  0  0  0
 18  2  1  0  0  0  0
 19 18  1  0  0  0  0
 20 10  1  0  0  0  0
 21 37  1  6  0  0  0
 21 25  1  0  0  0  0
 21 16  1  0  0  0  0
 22  1  1  0  0  0  0
 22 10  2  0  0  0  0
 23  8  1  0  0  0  0
 25 16  1  1  0  0  0
 25 27  1  0  0  0  0
 26 24  1  6  0  0  0
 26 15  1  0  0  0  0
 27 12  1  0  0  0  0
 28 20  2  0  0  0  0
 29 32  1  0  0  0  0
 29 31  1  0  0  0  0
 30 36  1  6  0  0  0
 30 26  1  0  0  0  0
 32 36  1  0  0  0  0
 33 30  1  0  0  0  0
 34 33  1  0  0  0  0
 34 32  1  0  0  0  0
 35 29  2  0  0  0  0
 38 41  1  0  0  0  0
 39 42  1  0  0  0  0
 39 46  1  0  0  0  0
 40 37  1  0  0  0  0
 40 42  2  0  0  0  0
 41 53  1  1  0  0  0
 42 44  1  0  0  0  0
 44 41  1  0  0  0  0
 45 48  1  6  0  0  0
 45 38  1  0  0  0  0
 46 43  1  6  0  0  0
 46 45  1  0  0  0  0
 47 48  1  0  0  0  0
 48 50  1  0  0  0  0
 48 49  1  0  0  0  0
 50 52  1  0  0  0  0
 52 51  1  0  0  0  0
 53 55  1  0  0  0  0
 54 55  2  0  0  0  0
M  END
>  <MODEL>
1

>  <REMARK>
 VINA RESULT:      -3.4      0.000      0.000
  Name = 
  8 active torsions:
  status: ('A' for Active; 'I' for Inactive)
    1  A    between atoms: C_6  and  C_25
    2  A    between atoms: C_6  and  C_46
    3  A    between atoms: C_8  and  C_22
    4  A    between atoms: C_12  and  C_30
    5  A    between atoms: C_13  and  C_52
    6  A    between atoms: C_22  and  C_43
    7  A    between atoms: C_25  and  C_38
    8  A    between atoms: C_30  and  C_50
                            x       y       z     vdW  Elec       q    Type
                         _______ _______ _______ _____ _____    ______ ____

>  <TORSDO>
F 8

$$$$
=
 OpenBabel10262420203D

 55 61  0  0  1  0  0  0  0  0999 V2000
  180.7230  178.8750  143.3640 O   0  0  0  0  0  0  0  0  0  0  0  0
  186.1240  179.4410  139.8600 C   0  0  0  0  0  2  0  0  0  0  0  0
  184.5900  177.4720  136.8890 C   0  0  0  0  0  2  0  0  0  0  0  0
  182.1810  177.9700  135.3730 C   0  0  0  0  0  3  0  0  0  0  0  0
  181.0520  178.3670  134.6560 C   0  0  0  0  0  3  0  0  0  0  0  0
  180.8230  177.6520  137.3590 C   0  0  0  0  0  0  0  0  0  0  0  0
  179.6920  178.0310  136.6240 C   0  0  0  0  0  3  0  0  0  0  0  0
  183.1740  175.9660  138.2910 C   0  0  0  0  0  1  0  0  0  0  0  0
  179.8060  178.3880  135.2790 C   0  0  0  0  0  3  0  0  0  0  0  0
  182.2390  178.7390  145.2440 C   0  0  0  0  0  3  0  0  0  0  0  0
  182.0880  177.5900  136.7240 C   0  0  0  0  0  0  0  0  0  0  0  0
  184.3840  179.4650  143.6000 C   0  0  0  0  0  0  0  0  0  0  0  0
  180.3990  179.2060  142.0160 C   0  0  0  0  0  2  0  0  0  0  0  0
  183.0980  179.3590  143.0750 C   0  0  0  0  0  3  0  0  0  0  0  0
  180.4770  177.9820  141.1020 C   0  0  2  0  0  3  0  0  0  0  0  0
  185.4360  177.5510  141.4750 C   0  0  0  0  0  2  0  0  0  0  0  0
  180.6620  177.3760  138.7210 O   0  0  0  0  0  0  0  0  0  0  0  0
  185.0960  178.9830  138.8230 C   0  0  0  0  0  2  0  0  0  0  0  0
  185.5860  177.8070  137.9990 C   0  0  0  0  0  2  0  0  0  0  0  0
  183.5280  178.8510  145.7810 C   0  0  0  0  0  3  0  0  0  0  0  0
  186.5610  178.3250  140.8210 C   0  0  2  0  0  0  0  0  0  0  0  0
  182.0170  178.9910  143.8860 C   0  0  0  0  0  0  0  0  0  0  0  0
  183.2670  177.1220  137.4100 N   0  0  0  0  0  0  0  0  0  0  0  0
  181.9200  177.5870  140.8200 C   0  0  0  0  0  2  0  0  0  0  0  0
  186.2940  178.4960  142.3210 C   0  0  1  0  0  3  0  0  0  0  0  0
  181.1140  178.2680  139.7380 C   0  0  2  0  0  0  0  0  0  0  0  0
  185.5190  179.7680  142.6750 C   0  0  0  0  0  2  0  0  0  0  0  0
  184.6020  179.2100  144.9570 C   0  0  0  0  0  3  0  0  0  0  0  0
  180.1670  182.5910  137.4410 C   0  0  0  0  0  0  0  0  0  0  0  0
  181.4830  179.7110  139.3190 C   0  0  1  0  0  3  0  0  0  0  0  0
  178.9310  183.1290  138.0740 C   0  0  0  0  0  1  0  0  0  0  0  0
  180.7790  181.3910  137.9300 N   0  0  0  0  0  0  0  0  0  0  0  0
  182.3610  179.7250  138.2120 O   0  0  0  0  0  0  0  0  0  0  0  0
  182.0440  180.8780  137.4600 C   0  0  0  0  0  2  0  0  0  0  0  0
  180.6830  183.2150  136.4770 O   0  0  0  0  0  0  0  0  0  0  0  0
  180.3220  180.6380  139.0590 C   0  0  0  0  0  2  0  0  0  0  0  0
  187.8390  177.5570  140.4530 C   0  0  0  0  0  2  0  0  0  0  0  0
  192.4410  177.9430  142.0560 O   0  0  0  0  0  0  0  0  0  0  0  0
  190.1630  175.6680  142.8550 C   0  0  0  0  0  2  0  0  0  0  0  0
  188.4120  176.7180  141.5570 C   0  0  0  0  0  3  0  0  0  0  0  0
  192.0230  177.1200  140.9930 C   0  0  1  0  0  3  0  0  0  0  0  0
  189.7160  176.5440  141.7150 C   0  0  0  0  0  0  0  0  0  0  0  0
  191.7640  175.3950  144.7730 C   0  0  0  0  0  1  0  0  0  0  0  0
  190.6080  177.1730  140.8450 O   0  0  0  0  0  0  0  0  0  0  0  0
  191.9990  177.4650  143.3240 C   0  0  2  0  0  3  0  0  0  0  0  0
  191.5740  175.9780  143.3900 C   0  0  2  0  0  3  0  0  0  0  0  0
  189.9880  178.8300  143.2960 O   0  0  0  0  0  1  0  0  0  0  0  0
  191.1130  178.5080  144.0540 C   0  0  0  0  0  0  0  0  0  0  0  0
  191.8400  179.6800  144.2840 O   0  0  0  0  0  1  0  0  0  0  0  0
  190.6250  177.9410  145.3880 C   0  0  0  0  0  2  0  0  0  0  0  0
  188.7030  177.8950  146.8930 N   0  0  0  0  0  1  0  0  0  0  0  0
  189.1070  177.8670  145.5020 C   0  0  0  0  0  2  0  0  0  0  0  0
  192.6790  177.5940  139.7040 C   0  0  0  0  0  2  0  0  0  0  0  0
  192.8890  175.6490  138.2100 C   0  0  0  0  0  2  0  0  0  0  0  0
  192.2460  176.7630  138.5410 C   0  0  0  0  0  3  0  0  0  0  0  0
  1 22  1  0  0  0  0
  2 21  1  0  0  0  0
  3 23  1  0  0  0  0
  3 19  1  0  0  0  0
  4 11  1  0  0  0  0
  5  9  1  0  0  0  0
  5  4  2  0  0  0  0
  6 17  1  0  0  0  0
  7  6  1  0  0  0  0
  9  7  2  0  0  0  0
 10 20  1  0  0  0  0
 11  6  2  0  0  0  0
 11 23  1  0  0  0  0
 12 28  1  0  0  0  0
 13  1  1  0  0  0  0
 14 12  2  0  0  0  0
 14 22  1  0  0  0  0
 15 24  1  1  0  0  0
 15 13  1  0  0  0  0
 17 26  1  0  0  0  0
 18  2  1  0  0  0  0
 19 18  1  0  0  0  0
 21 37  1  6  0  0  0
 21 16  1  0  0  0  0
 21 25  1  0  0  0  0
 22 10  2  0  0  0  0
 23  8  1  0  0  0  0
 25 16  1  6  0  0  0
 25 27  1  0  0  0  0
 26 24  1  1  0  0  0
 26 15  1  0  0  0  0
 27 12  1  0  0  0  0
 28 20  2  0  0  0  0
 29 32  1  0  0  0  0
 29 31  1  0  0  0  0
 30 36  1  6  0  0  0
 30 26  1  0  0  0  0
 32 36  1  0  0  0  0
 33 30  1  0  0  0  0
 34 32  1  0  0  0  0
 34 33  1  0  0  0  0
 35 29  2  0  0  0  0
 37 40  1  0  0  0  0
 38 45  1  0  0  0  0
 39 46  1  0  0  0  0
 40 42  2  0  0  0  0
 41 53  1  6  0  0  0
 41 38  1  0  0  0  0
 42 39  1  0  0  0  0
 44 41  1  0  0  0  0
 44 42  1  0  0  0  0
 45 46  1  0  0  0  0
 45 48  1  6  0  0  0
 46 43  1  1  0  0  0
 47 48  1  0  0  0  0
 48 49  1  0  0  0  0
 48 50  1  0  0  0  0
 50 52  1  0  0  0  0
 52 51  1  0  0  0  0
 54 55  2  0  0  0  0
 55 53  1  0  0  0  0
M  END
>  <MODEL>
2

>  <REMARK>
 VINA RESULT:      -2.4      3.477      5.683
  Name = 
  8 active torsions:
  status: ('A' for Active; 'I' for Inactive)
    1  A    between atoms: C_6  and  C_25
    2  A    between atoms: C_6  and  C_46
    3  A    between atoms: C_8  and  C_22
    4  A    between atoms: C_12  and  C_30
    5  A    between atoms: C_13  and  C_52
    6  A    between atoms: C_22  and  C_43
    7  A    between atoms: C_25  and  C_38
    8  A    between atoms: C_30  and  C_50
                            x       y       z     vdW  Elec       q    Type
                         _______ _______ _______ _____ _____    ______ ____

>  <TORSDO>
F 8

$$$$
=
 OpenBabel10262420203D

 55 61  0  0  1  0  0  0  0  0999 V2000
  180.0490  177.9030  142.7100 O   0  0  0  0  0  0  0  0  0  0  0  0
  184.9950  178.7160  138.6310 C   0  0  0  0  0  2  0  0  0  0  0  0
  184.0360  175.5580  136.5920 C   0  0  0  0  0  2  0  0  0  0  0  0
  181.5580  174.8780  135.2700 C   0  0  0  0  0  3  0  0  0  0  0  0
  180.3500  174.7060  134.5940 C   0  0  0  0  0  3  0  0  0  0  0  0
  180.3850  174.8730  137.3940 C   0  0  0  0  0  0  0  0  0  0  0  0
  179.1800  174.6770  136.7070 C   0  0  0  0  0  3  0  0  0  0  0  0
  183.1380  174.2690  138.5330 C   0  0  0  0  0  1  0  0  0  0  0  0
  179.1620  174.5960  135.3130 C   0  0  0  0  0  3  0  0  0  0  0  0
  181.5740  178.7930  144.3640 C   0  0  0  0  0  3  0  0  0  0  0  0
  181.6030  174.9460  136.6730 C   0  0  0  0  0  0  0  0  0  0  0  0
  183.3890  179.4890  142.3520 C   0  0  0  0  0  0  0  0  0  0  0  0
  179.6190  177.6810  141.3700 C   0  0  0  0  0  2  0  0  0  0  0  0
  182.1790  178.8800  142.0280 C   0  0  0  0  0  3  0  0  0  0  0  0
  180.0280  176.2930  140.8710 C   0  0  2  0  0  3  0  0  0  0  0  0
  184.9080  177.3420  140.8120 C   0  0  0  0  0  2  0  0  0  0  0  0
  180.3360  175.0210  138.7840 O   0  0  0  0  0  0  0  0  0  0  0  0
  184.1230  177.6910  137.9030 C   0  0  0  0  0  2  0  0  0  0  0  0
  184.9140  176.4860  137.4290 C   0  0  0  0  0  2  0  0  0  0  0  0
  182.7860  179.4110  144.6960 C   0  0  0  0  0  3  0  0  0  0  0  0
  185.7510  178.1310  139.8330 C   0  0  2  0  0  0  0  0  0  0  0  0
  181.2640  178.5220  143.0270 C   0  0  0  0  0  0  0  0  0  0  0  0
  182.8790  175.0570  137.3360 N   0  0  0  0  0  0  0  0  0  0  0  0
  181.5180  176.2280  140.5670 C   0  0  0  0  0  2  0  0  0  0  0  0
  185.4740  178.7020  141.2280 C   0  0  1  0  0  3  0  0  0  0  0  0
  180.5310  176.2800  139.4240 C   0  0  2  0  0  0  0  0  0  0  0  0
  184.3730  179.7660  141.2600 C   0  0  0  0  0  2  0  0  0  0  0  0
  183.6970  179.7550  143.6900 C   0  0  0  0  0  3  0  0  0  0  0  0
  181.0670  181.1820  138.6790 C   0  0  0  0  0  0  0  0  0  0  0  0
  180.4630  177.5530  138.5450 C   0  0  1  0  0  3  0  0  0  0  0  0
  182.5020  181.4810  138.9390 C   0  0  0  0  0  1  0  0  0  0  0  0
  180.5800  179.8350  138.7130 N   0  0  0  0  0  0  0  0  0  0  0  0
  179.1420  178.0420  138.4360 O   0  0  0  0  0  0  0  0  0  0  0  0
  179.2390  179.4490  138.3450 C   0  0  0  0  0  2  0  0  0  0  0  0
  180.2830  182.1290  138.4090 O   0  0  0  0  0  0  0  0  0  0  0  0
  181.3910  178.6750  138.9390 C   0  0  0  0  0  2  0  0  0  0  0  0
  187.1890  177.6540  139.5800 C   0  0  0  0  0  2  0  0  0  0  0  0
  188.5740  176.8900  144.2050 O   0  0  0  0  0  0  0  0  0  0  0  0
  189.4460  179.3620  142.1730 C   0  0  0  0  0  2  0  0  0  0  0  0
  188.2510  178.4530  140.2760 C   0  0  0  0  0  3  0  0  0  0  0  0
  187.5200  177.7340  143.8070 C   0  0  1  0  0  3  0  0  0  0  0  0
  188.3430  178.5150  141.5970 C   0  0  0  0  0  0  0  0  0  0  0  0
  191.2810  179.5170  143.8840 C   0  0  0  0  0  1  0  0  0  0  0  0
  187.4420  177.8010  142.3870 O   0  0  0  0  0  0  0  0  0  0  0  0
  189.8540  177.4180  143.8690 C   0  0  2  0  0  3  0  0  0  0  0  0
  189.9180  178.9370  143.5760 C   0  0  2  0  0  3  0  0  0  0  0  0
  191.4080  177.1810  142.0140 O   0  0  0  0  0  1  0  0  0  0  0  0
  190.6420  176.4640  142.9340 C   0  0  0  0  0  0  0  0  0  0  0  0
  189.7570  175.6450  142.2270 O   0  0  0  0  0  1  0  0  0  0  0  0
  191.5980  175.5950  143.7530 C   0  0  0  0  0  2  0  0  0  0  0  0
  192.0600  175.2360  146.1230 N   0  0  0  0  0  1  0  0  0  0  0  0
  192.0240  176.2310  145.0710 C   0  0  0  0  0  2  0  0  0  0  0  0
  186.2080  177.1900  144.3560 C   0  0  0  0  0  2  0  0  0  0  0  0
  185.9470  178.4460  146.4570 C   0  0  0  0  0  2  0  0  0  0  0  0
  186.1660  177.2870  145.8460 C   0  0  0  0  0  3  0  0  0  0  0  0
  1 22  1  0  0  0  0
  2 21  1  0  0  0  0
  3 23  1  0  0  0  0
  3 19  1  0  0  0  0
  4 11  1  0  0  0  0
  5  4  2  0  0  0  0
  5  9  1  0  0  0  0
  6 17  1  0  0  0  0
  7  6  1  0  0  0  0
  9  7  2  0  0  0  0
 10 20  1  0  0  0  0
 11 23  1  0  0  0  0
 11  6  2  0  0  0  0
 12 28  1  0  0  0  0
 13  1  1  0  0  0  0
 14 12  2  0  0  0  0
 14 22  1  0  0  0  0
 15 24  1  1  0  0  0
 15 13  1  0  0  0  0
 17 26  1  0  0  0  0
 18  2  1  0  0  0  0
 19 18  1  0  0  0  0
 21 37  1  6  0  0  0
 21 16  1  0  0  0  0
 21 25  1  0  0  0  0
 22 10  2  0  0  0  0
 23  8  1  0  0  0  0
 25 16  1  1  0  0  0
 25 27  1  0  0  0  0
 26 24  1  1  0  0  0
 26 15  1  0  0  0  0
 27 12  1  0  0  0  0
 28 20  2  0  0  0  0
 29 32  1  0  0  0  0
 29 31  1  0  0  0  0
 30 36  1  1  0  0  0
 30 26  1  0  0  0  0
 32 36  1  0  0  0  0
 33 30  1  0  0  0  0
 34 33  1  0  0  0  0
 34 32  1  0  0  0  0
 35 29  2  0  0  0  0
 37 40  1  0  0  0  0
 39 46  1  0  0  0  0
 40 42  2  0  0  0  0
 41 38  1  0  0  0  0
 41 53  1  6  0  0  0
 42 39  1  0  0  0  0
 42 44  1  0  0  0  0
 44 41  1  0  0  0  0
 45 48  1  6  0  0  0
 45 38  1  0  0  0  0
 46 45  1  0  0  0  0
 46 43  1  6  0  0  0
 47 48  1  0  0  0  0
 48 50  1  0  0  0  0
 49 48  1  0  0  0  0
 50 52  1  0  0  0  0
 52 51  1  0  0  0  0
 53 55  1  0  0  0  0
 55 54  2  0  0  0  0
M  END
>  <MODEL>
3

>  <REMARK>
 VINA RESULT:      -2.1      4.278      5.629
  Name = 
  8 active torsions:
  status: ('A' for Active; 'I' for Inactive)
    1  A    between atoms: C_6  and  C_25
    2  A    between atoms: C_6  and  C_46
    3  A    between atoms: C_8  and  C_22
    4  A    between atoms: C_12  and  C_30
    5  A    between atoms: C_13  and  C_52
    6  A    between atoms: C_22  and  C_43
    7  A    between atoms: C_25  and  C_38
    8  A    between atoms: C_30  and  C_50
                            x       y       z     vdW  Elec       q    Type
                         _______ _______ _______ _____ _____    ______ ____

>  <TORSDO>
F 8

$$$$
=
 OpenBabel10262420203D

 55 61  0  0  1  0  0  0  0  0999 V2000
  189.5980  176.9540  143.2660 O   0  0  0  0  0  0  0  0  0  0  0  0
  184.7640  177.7350  139.0500 C   0  0  0  0  0  2  0  0  0  0  0  0
  187.2010  178.7350  136.2020 C   0  0  0  0  0  2  0  0  0  0  0  0
  189.4630  177.3130  135.1030 C   0  0  0  0  0  3  0  0  0  0  0  0
  190.4690  176.4910  134.5940 C   0  0  0  0  0  3  0  0  0  0  0  0
  190.6090  177.4140  137.2390 C   0  0  0  0  0  0  0  0  0  0  0  0
  191.6260  176.6070  136.7110 C   0  0  0  0  0  3  0  0  0  0  0  0
  188.8660  179.8640  137.6820 C   0  0  0  0  0  1  0  0  0  0  0  0
  191.5560  176.1460  135.3950 C   0  0  0  0  0  3  0  0  0  0  0  0
  188.0080  177.7930  144.8840 C   0  0  0  0  0  3  0  0  0  0  0  0
  189.5210  177.8020  136.4200 C   0  0  0  0  0  0  0  0  0  0  0  0
  185.9490  177.6020  142.9980 C   0  0  0  0  0  0  0  0  0  0  0  0
  189.9460  176.3770  142.0110 C   0  0  0  0  0  2  0  0  0  0  0  0
  187.2480  177.2260  142.6640 C   0  0  0  0  0  3  0  0  0  0  0  0
  190.3890  177.4420  141.0060 C   0  0  2  0  0  3  0  0  0  0  0  0
  185.8510  179.4830  140.6030 C   0  0  0  0  0  2  0  0  0  0  0  0
  190.6940  177.7850  138.5850 O   0  0  0  0  0  0  0  0  0  0  0  0
  185.9980  177.7100  138.1460 C   0  0  0  0  0  2  0  0  0  0  0  0
  186.0290  178.8740  137.1720 C   0  0  0  0  0  2  0  0  0  0  0  0
  186.7020  178.1660  145.2300 C   0  0  0  0  0  3  0  0  0  0  0  0
  184.6170  179.0390  139.8480 C   0  0  2  0  0  0  0  0  0  0  0  0
  188.2880  177.3220  143.5970 C   0  0  0  0  0  0  0  0  0  0  0  0
  188.4940  178.7020  136.8850 N   0  0  0  0  0  0  0  0  0  0  0  0
  189.2030  178.2420  140.4840 C   0  0  0  0  0  2  0  0  0  0  0  0
  184.6350  178.9720  141.3790 C   0  0  1  0  0  3  0  0  0  0  0  0
  189.8550  177.2140  139.5880 C   0  0  2  0  0  0  0  0  0  0  0  0
  184.8940  177.5710  141.9400 C   0  0  0  0  0  2  0  0  0  0  0  0
  185.6730  178.0750  144.2850 C   0  0  0  0  0  3  0  0  0  0  0  0
  188.7700  173.3910  136.5750 C   0  0  0  0  0  0  0  0  0  0  0  0
  189.0760  175.9260  139.2270 C   0  0  1  0  0  3  0  0  0  0  0  0
  190.0380  172.6290  136.4080 C   0  0  0  0  0  1  0  0  0  0  0  0
  188.7000  174.5140  137.4630 N   0  0  0  0  0  0  0  0  0  0  0  0
  187.7850  176.2180  138.7350 O   0  0  0  0  0  0  0  0  0  0  0  0
  187.4820  175.2210  137.7800 C   0  0  0  0  0  2  0  0  0  0  0  0
  187.7480  173.0270  135.9370 O   0  0  0  0  0  0  0  0  0  0  0  0
  189.7760  174.9750  138.2900 C   0  0  0  0  0  2  0  0  0  0  0  0
  183.7200  180.1270  139.2380 C   0  0  0  0  0  2  0  0  0  0  0  0
  179.0820  181.5210  138.5790 O   0  0  0  0  0  0  0  0  0  0  0  0
  180.8000  179.2240  136.9150 C   0  0  0  0  0  2  0  0  0  0  0  0
  182.8660  179.6720  138.0910 C   0  0  0  0  0  3  0  0  0  0  0  0
  179.4900  180.4130  139.3450 C   0  0  1  0  0  3  0  0  0  0  0  0
  181.5430  179.7230  138.1260 C   0  0  0  0  0  0  0  0  0  0  0  0
  178.9320  179.6540  135.2900 C   0  0  0  0  0  1  0  0  0  0  0  0
  180.9000  180.2340  139.2540 O   0  0  0  0  0  0  0  0  0  0  0  0
  179.2580  181.3150  137.1800 C   0  0  2  0  0  3  0  0  0  0  0  0
  179.4060  179.8470  136.7130 C   0  0  2  0  0  3  0  0  0  0  0  0
  180.8620  181.8650  135.4380 O   0  0  0  0  0  1  0  0  0  0  0  0
  180.2060  182.3740  136.5580 C   0  0  0  0  0  0  0  0  0  0  0  0
  181.1680  182.7670  137.4930 O   0  0  0  0  0  1  0  0  0  0  0  0
  179.4040  183.5970  136.1070 C   0  0  0  0  0  2  0  0  0  0  0  0
  179.5840  185.7520  137.2390 N   0  0  0  0  0  1  0  0  0  0  0  0
  180.1730  184.9080  136.2210 C   0  0  0  0  0  2  0  0  0  0  0  0
  179.1070  180.6410  140.8000 C   0  0  0  0  0  2  0  0  0  0  0  0
  180.2970  179.8250  142.7950 C   0  0  0  0  0  2  0  0  0  0  0  0
  179.6380  179.5520  141.6740 C   0  0  0  0  0  3  0  0  0  0  0  0
  1 22  1  0  0  0  0
  2 21  1  0  0  0  0
  3 23  1  0  0  0  0
  3 19  1  0  0  0  0
  4 11  1  0  0  0  0
  5  4  2  0  0  0  0
  5  9  1  0  0  0  0
  6 17  1  0  0  0  0
  7  6  1  0  0  0  0
  9  7  2  0  0  0  0
 10 20  1  0  0  0  0
 11 23  1  0  0  0  0
 11  6  2  0  0  0  0
 12 28  1  0  0  0  0
 13  1  1  0  0  0  0
 14 12  2  0  0  0  0
 14 22  1  0  0  0  0
 15 24  1  1  0  0  0
 15 13  1  0  0  0  0
 17 26  1  0  0  0  0
 18  2  1  0  0  0  0
 19 18  1  0  0  0  0
 21 37  1  6  0  0  0
 21 16  1  0  0  0  0
 21 25  1  0  0  0  0
 22 10  2  0  0  0  0
 23  8  1  0  0  0  0
 25 16  1  6  0  0  0
 25 27  1  0  0  0  0
 26 24  1  6  0  0  0
 26 15  1  0  0  0  0
 27 12  1  0  0  0  0
 28 20  2  0  0  0  0
 29 32  1  0  0  0  0
 30 36  1  6  0  0  0
 30 26  1  0  0  0  0
 31 29  1  0  0  0  0
 32 34  1  0  0  0  0
 32 36  1  0  0  0  0
 33 30  1  0  0  0  0
 34 33  1  0  0  0  0
 35 29  2  0  0  0  0
 38 41  1  0  0  0  0
 39 42  1  0  0  0  0
 40 42  2  0  0  0  0
 40 37  1  0  0  0  0
 41 53  1  1  0  0  0
 42 44  1  0  0  0  0
 44 41  1  0  0  0  0
 45 48  1  1  0  0  0
 45 38  1  0  0  0  0
 46 43  1  6  0  0  0
 46 39  1  0  0  0  0
 46 45  1  0  0  0  0
 47 48  1  0  0  0  0
 48 49  1  0  0  0  0
 50 52  1  0  0  0  0
 50 48  1  0  0  0  0
 52 51  1  0  0  0  0
 53 55  1  0  0  0  0
 55 54  2  0  0  0  0
M  END
>  <MODEL>
4

>  <REMARK>
 VINA RESULT:      -2.1      3.224     10.531
  Name = 
  8 active torsions:
  status: ('A' for Active; 'I' for Inactive)
    1  A    between atoms: C_6  and  C_25
    2  A    between atoms: C_6  and  C_46
    3  A    between atoms: C_8  and  C_22
    4  A    between atoms: C_12  and  C_30
    5  A    between atoms: C_13  and  C_52
    6  A    between atoms: C_22  and  C_43
    7  A    between atoms: C_25  and  C_38
    8  A    between atoms: C_30  and  C_50
                            x       y       z     vdW  Elec       q    Type
                         _______ _______ _______ _____ _____    ______ ____

>  <TORSDO>
F 8

$$$$
=
 OpenBabel10262420203D

 55 61  0  0  1  0  0  0  0  0999 V2000
  179.7850  177.7350  142.8490 O   0  0  0  0  0  0  0  0  0  0  0  0
  184.7850  179.0140  138.9600 C   0  0  0  0  0  2  0  0  0  0  0  0
  184.0500  175.9200  136.7380 C   0  0  0  0  0  2  0  0  0  0  0  0
  181.6470  175.1810  135.3120 C   0  0  0  0  0  3  0  0  0  0  0  0
  180.4680  174.9820  134.5940 C   0  0  0  0  0  3  0  0  0  0  0  0
  180.4210  175.0050  137.3990 C   0  0  0  0  0  0  0  0  0  0  0  0
  179.2460  174.7830  136.6690 C   0  0  0  0  0  3  0  0  0  0  0  0
  183.1710  174.4870  138.5850 C   0  0  0  0  0  1  0  0  0  0  0  0
  179.2690  174.7730  135.2720 C   0  0  0  0  0  3  0  0  0  0  0  0
  181.2160  178.6160  144.5890 C   0  0  0  0  0  3  0  0  0  0  0  0
  181.6520  175.1790  136.7180 C   0  0  0  0  0  0  0  0  0  0  0  0
  183.0440  179.5080  142.6670 C   0  0  0  0  0  0  0  0  0  0  0  0
  179.4030  177.5600  141.4870 C   0  0  0  0  0  2  0  0  0  0  0  0
  181.8770  178.8550  142.2790 C   0  0  0  0  0  3  0  0  0  0  0  0
  179.8980  176.2230  140.9310 C   0  0  2  0  0  3  0  0  0  0  0  0
  184.7150  177.5260  141.0650 C   0  0  0  0  0  2  0  0  0  0  0  0
  180.3270  175.0780  138.7930 O   0  0  0  0  0  0  0  0  0  0  0  0
  183.9880  177.9840  138.1570 C   0  0  0  0  0  2  0  0  0  0  0  0
  184.8550  176.8480  137.6460 C   0  0  0  0  0  2  0  0  0  0  0  0
  182.3850  179.2790  144.9860 C   0  0  0  0  0  3  0  0  0  0  0  0
  185.5400  178.4070  140.1520 C   0  0  2  0  0  0  0  0  0  0  0  0
  180.9570  178.3990  143.2310 C   0  0  0  0  0  0  0  0  0  0  0  0
  182.9030  175.3220  137.4220 N   0  0  0  0  0  0  0  0  0  0  0  0
  181.3970  176.2510  140.6670 C   0  0  0  0  0  2  0  0  0  0  0  0
  185.1960  178.8900  141.5660 C   0  0  1  0  0  3  0  0  0  0  0  0
  180.4390  176.3110  139.5010 C   0  0  2  0  0  0  0  0  0  0  0  0
  184.0400  179.8920  141.6190 C   0  0  0  0  0  2  0  0  0  0  0  0
  183.3020  179.7210  144.0250 C   0  0  0  0  0  3  0  0  0  0  0  0
  181.0530  181.2250  138.9070 C   0  0  0  0  0  0  0  0  0  0  0  0
  180.3260  177.6220  138.6850 C   0  0  1  0  0  3  0  0  0  0  0  0
  182.5150  181.4730  139.0370 C   0  0  0  0  0  1  0  0  0  0  0  0
  180.5300  179.8910  138.9340 N   0  0  0  0  0  0  0  0  0  0  0  0
  179.0170  178.1520  138.7260 O   0  0  0  0  0  0  0  0  0  0  0  0
  179.1480  179.5580  138.6830 C   0  0  0  0  0  2  0  0  0  0  0  0
  180.2770  182.2030  138.7540 O   0  0  0  0  0  0  0  0  0  0  0  0
  181.3220  178.7000  139.0320 C   0  0  0  0  0  2  0  0  0  0  0  0
  187.0080  178.0200  139.9170 C   0  0  0  0  0  2  0  0  0  0  0  0
  190.7510  175.4810  138.0630 O   0  0  0  0  0  0  0  0  0  0  0  0
  189.0340  177.9470  136.6580 C   0  0  0  0  0  2  0  0  0  0  0  0
  187.4720  178.1350  138.4950 C   0  0  0  0  0  3  0  0  0  0  0  0
  190.8620  176.7270  138.7090 C   0  0  1  0  0  3  0  0  0  0  0  0
  188.6860  177.7680  138.1120 C   0  0  0  0  0  0  0  0  0  0  0  0
  190.0870  176.9140  134.6230 C   0  0  0  0  0  1  0  0  0  0  0  0
  189.5740  177.2320  139.0450 O   0  0  0  0  0  0  0  0  0  0  0  0
  190.1350  175.5810  136.7820 C   0  0  2  0  0  3  0  0  0  0  0  0
  190.1180  176.9870  136.1330 C   0  0  2  0  0  3  0  0  0  0  0  0
  187.7170  175.5330  136.5360 O   0  0  0  0  0  1  0  0  0  0  0  0
  188.8430  174.7270  136.6960 C   0  0  0  0  0  0  0  0  0  0  0  0
  188.6850  173.9750  137.8650 O   0  0  0  0  0  1  0  0  0  0  0  0
  188.9130  173.7870  135.4910 C   0  0  0  0  0  2  0  0  0  0  0  0
  188.2690  171.5230  134.8440 N   0  0  0  0  0  1  0  0  0  0  0  0
  187.8000  172.7450  135.4630 C   0  0  0  0  0  2  0  0  0  0  0  0
  191.6830  176.5610  139.9800 C   0  0  0  0  0  2  0  0  0  0  0  0
  191.1870  177.0450  142.3420 C   0  0  0  0  0  2  0  0  0  0  0  0
  191.1660  177.4380  141.0740 C   0  0  0  0  0  3  0  0  0  0  0  0
  1 22  1  0  0  0  0
  2 21  1  0  0  0  0
  3 23  1  0  0  0  0
  3 19  1  0  0  0  0
  4 11  1  0  0  0  0
  5  9  1  0  0  0  0
  5  4  2  0  0  0  0
  6 17  1  0  0  0  0
  7  6  1  0  0  0  0
  9  7  2  0  0  0  0
 10 20  1  0  0  0  0
 11  6  2  0  0  0  0
 11 23  1  0  0  0  0
 12 28  1  0  0  0  0
 13  1  1  0  0  0  0
 14 12  2  0  0  0  0
 14 22  1  0  0  0  0
 15 24  1  1  0  0  0
 15 13  1  0  0  0  0
 17 26  1  0  0  0  0
 18  2  1  0  0  0  0
 19 18  1  0  0  0  0
 21 37  1  6  0  0  0
 21 16  1  0  0  0  0
 21 25  1  0  0  0  0
 22 10  2  0  0  0  0
 23  8  1  0  0  0  0
 25 16  1  1  0  0  0
 25 27  1  0  0  0  0
 26 24  1  1  0  0  0
 26 15  1  0  0  0  0
 27 12  1  0  0  0  0
 28 20  2  0  0  0  0
 29 32  1  0  0  0  0
 29 31  1  0  0  0  0
 30 33  1  0  0  0  0
 30 36  1  1  0  0  0
 30 26  1  0  0  0  0
 32 36  1  0  0  0  0
 34 33  1  0  0  0  0
 34 32  1  0  0  0  0
 35 29  2  0  0  0  0
 38 41  1  0  0  0  0
 39 42  1  0  0  0  0
 40 37  1  0  0  0  0
 41 44  1  0  0  0  0
 41 53  1  1  0  0  0
 42 40  2  0  0  0  0
 42 44  1  0  0  0  0
 45 48  1  1  0  0  0
 45 38  1  0  0  0  0
 46 43  1  6  0  0  0
 46 39  1  0  0  0  0
 46 45  1  0  0  0  0
 47 48  1  0  0  0  0
 48 49  1  0  0  0  0
 50 48  1  0  0  0  0
 51 52  1  0  0  0  0
 52 50  1  0  0  0  0
 53 55  1  0  0  0  0
 55 54  2  0  0  0  0
M  END
>  <MODEL>
5

>  <REMARK>
 VINA RESULT:      -1.5      2.737      4.107
  Name = 
  8 active torsions:
  status: ('A' for Active; 'I' for Inactive)
    1  A    between atoms: C_6  and  C_25
    2  A    between atoms: C_6  and  C_46
    3  A    between atoms: C_8  and  C_22
    4  A    between atoms: C_12  and  C_30
    5  A    between atoms: C_13  and  C_52
    6  A    between atoms: C_22  and  C_43
    7  A    between atoms: C_25  and  C_38
    8  A    between atoms: C_30  and  C_50
                            x       y       z     vdW  Elec       q    Type
                         _______ _______ _______ _____ _____    ______ ____

>  <TORSDO>
F 8

$$$$
=
 OpenBabel10262420203D

 55 61  0  0  1  0  0  0  0  0999 V2000
  178.9830  176.6750  141.8160 O   0  0  0  0  0  0  0  0  0  0  0  0
  184.3980  179.1500  139.3050 C   0  0  0  0  0  2  0  0  0  0  0  0
  185.2480  175.8390  137.4710 C   0  0  0  0  0  2  0  0  0  0  0  0
  183.6960  174.3120  135.5710 C   0  0  0  0  0  3  0  0  0  0  0  0
  182.8950  173.7170  134.5950 C   0  0  0  0  0  3  0  0  0  0  0  0
  181.9810  173.9110  137.2410 C   0  0  0  0  0  0  0  0  0  0  0  0
  181.1950  173.2950  136.2590 C   0  0  0  0  0  3  0  0  0  0  0  0
  184.2630  174.3330  139.2030 C   0  0  0  0  0  1  0  0  0  0  0  0
  181.6490  173.1990  134.9410 C   0  0  0  0  0  3  0  0  0  0  0  0
  179.5140  178.0620  143.7240 C   0  0  0  0  0  3  0  0  0  0  0  0
  183.2670  174.4050  136.9070 C   0  0  0  0  0  0  0  0  0  0  0  0
  181.5330  179.3380  142.2670 C   0  0  0  0  0  0  0  0  0  0  0  0
  179.1010  176.3020  140.4450 C   0  0  0  0  0  2  0  0  0  0  0  0
  180.7640  178.3370  141.6770 C   0  0  0  0  0  3  0  0  0  0  0  0
  180.0850  175.1450  140.2600 C   0  0  2  0  0  3  0  0  0  0  0  0
  184.0860  177.8540  141.5120 C   0  0  0  0  0  2  0  0  0  0  0  0
  181.4460  174.0450  138.5260 O   0  0  0  0  0  0  0  0  0  0  0  0
  184.1970  177.8760  138.4820 C   0  0  0  0  0  2  0  0  0  0  0  0
  185.4520  177.0250  138.4110 C   0  0  0  0  0  2  0  0  0  0  0  0
  180.2790  179.0740  144.3210 C   0  0  0  0  0  3  0  0  0  0  0  0
  184.8830  178.8820  140.7370 C   0  0  2  0  0  0  0  0  0  0  0  0
  179.7550  177.6870  142.3990 C   0  0  0  0  0  0  0  0  0  0  0  0
  184.1520  174.9670  137.8970 N   0  0  0  0  0  0  0  0  0  0  0  0
  181.5260  175.6090  140.4180 C   0  0  0  0  0  2  0  0  0  0  0  0
  184.0030  179.3310  141.9090 C   0  0  1  0  0  3  0  0  0  0  0  0
  180.9960  175.2980  139.0380 C   0  0  2  0  0  0  0  0  0  0  0  0
  182.6610  179.9350  141.4870 C   0  0  0  0  0  2  0  0  0  0  0  0
  181.2920  179.7090  143.5930 C   0  0  0  0  0  3  0  0  0  0  0  0
  179.9410  180.0350  137.8900 C   0  0  0  0  0  0  0  0  0  0  0  0
  180.7910  176.4550  138.0310 C   0  0  1  0  0  3  0  0  0  0  0  0
  180.9710  180.8610  138.5770 C   0  0  0  0  0  1  0  0  0  0  0  0
  180.0010  178.6040  137.9320 N   0  0  0  0  0  0  0  0  0  0  0  0
  179.5180  176.3980  137.4220 O   0  0  0  0  0  0  0  0  0  0  0  0
  179.1210  177.7340  137.1870 C   0  0  0  0  0  2  0  0  0  0  0  0
  179.0190  180.6080  137.2520 O   0  0  0  0  0  0  0  0  0  0  0  0
  181.0370  177.8440  138.5660 C   0  0  0  0  0  2  0  0  0  0  0  0
  186.3990  178.9440  140.9780 C   0  0  0  0  0  2  0  0  0  0  0  0
  191.1230  177.6990  141.1090 O   0  0  0  0  0  0  0  0  0  0  0  0
  188.5440  176.1550  142.5120 C   0  0  0  0  0  2  0  0  0  0  0  0
  186.9480  177.8420  141.8350 C   0  0  0  0  0  3  0  0  0  0  0  0
  190.1770  177.1790  140.2060 C   0  0  1  0  0  3  0  0  0  0  0  0
  188.1100  177.2580  141.5830 C   0  0  0  0  0  0  0  0  0  0  0  0
  190.4360  175.1730  143.8440 C   0  0  0  0  0  1  0  0  0  0  0  0
  188.8780  177.6830  140.4980 O   0  0  0  0  0  0  0  0  0  0  0  0
  190.9240  177.2300  142.4400 C   0  0  2  0  0  3  0  0  0  0  0  0
  190.0680  175.9500  142.5990 C   0  0  2  0  0  3  0  0  0  0  0  0
  190.2100  179.5310  142.7630 O   0  0  0  0  0  1  0  0  0  0  0  0
  190.6740  178.3980  143.4300 C   0  0  0  0  0  0  0  0  0  0  0  0
  191.8600  178.7300  144.0910 O   0  0  0  0  0  1  0  0  0  0  0  0
  189.6130  177.9990  144.4570 C   0  0  0  0  0  2  0  0  0  0  0  0
  189.2430  177.0650  146.6810 N   0  0  0  0  0  1  0  0  0  0  0  0
  190.1590  177.8390  145.8710 C   0  0  0  0  0  2  0  0  0  0  0  0
  190.5630  177.5820  138.7900 C   0  0  0  0  0  2  0  0  0  0  0  0
  189.0620  176.2700  137.3450 C   0  0  0  0  0  2  0  0  0  0  0  0
  189.4040  177.4480  137.8560 C   0  0  0  0  0  3  0  0  0  0  0  0
  1 22  1  0  0  0  0
  2 21  1  0  0  0  0
  3 23  1  0  0  0  0
  3 19  1  0  0  0  0
  4 11  1  0  0  0  0
  5  9  1  0  0  0  0
  5  4  2  0  0  0  0
  6 17  1  0  0  0  0
  7  6  1  0  0  0  0
  9  7  2  0  0  0  0
 10 20  1  0  0  0  0
 11  6  2  0  0  0  0
 11 23  1  0  0  0  0
 12 28  1  0  0  0  0
 13  1  1  0  0  0  0
 14 12  2  0  0  0  0
 14 22  1  0  0  0  0
 15 24  1  1  0  0  0
 15 13  1  0  0  0  0
 16 25  1  0  0  0  0
 17 26  1  0  0  0  0
 18  2  1  0  0  0  0
 19 18  1  0  0  0  0
 21 37  1  1  0  0  0
 21 16  1  0  0  0  0
 21 25  1  0  0  0  0
 22 10  2  0  0  0  0
 23  8  1  0  0  0  0
 25 27  1  6  0  0  0
 26 15  1  0  0  0  0
 26 24  1  1  0  0  0
 27 12  1  0  0  0  0
 28 20  2  0  0  0  0
 29 32  1  0  0  0  0
 29 31  1  0  0  0  0
 30 36  1  1  0  0  0
 30 26  1  0  0  0  0
 32 36  1  0  0  0  0
 33 30  1  0  0  0  0
 34 33  1  0  0  0  0
 34 32  1  0  0  0  0
 35 29  2  0  0  0  0
 37 40  1  0  0  0  0
 38 45  1  0  0  0  0
 39 46  1  0  0  0  0
 41 53  1  6  0  0  0
 41 44  1  0  0  0  0
 41 38  1  0  0  0  0
 42 40  2  0  0  0  0
 42 39  1  0  0  0  0
 44 42  1  0  0  0  0
 45 46  1  0  0  0  0
 45 48  1  1  0  0  0
 46 43  1  1  0  0  0
 47 48  1  0  0  0  0
 48 49  1  0  0  0  0
 48 50  1  0  0  0  0
 50 52  1  0  0  0  0
 52 51  1  0  0  0  0
 54 55  2  0  0  0  0
 55 53  1  0  0  0  0
M  END
>  <MODEL>
6

>  <REMARK>
 VINA RESULT:      -0.5      3.592      5.985
  Name = 
  8 active torsions:
  status: ('A' for Active; 'I' for Inactive)
    1  A    between atoms: C_6  and  C_25
    2  A    between atoms: C_6  and  C_46
    3  A    between atoms: C_8  and  C_22
    4  A    between atoms: C_12  and  C_30
    5  A    between atoms: C_13  and  C_52
    6  A    between atoms: C_22  and  C_43
    7  A    between atoms: C_25  and  C_38
    8  A    between atoms: C_30  and  C_50
                            x       y       z     vdW  Elec       q    Type
                         _______ _______ _______ _____ _____    ______ ____

>  <TORSDO>
F 8

$$$$
=
 OpenBabel10262420203D

 55 61  0  0  1  0  0  0  0  0999 V2000
  189.8770  176.6350  143.2450 O   0  0  0  0  0  0  0  0  0  0  0  0
  185.2050  177.6850  138.9060 C   0  0  0  0  0  2  0  0  0  0  0  0
  187.7650  178.5980  136.1380 C   0  0  0  0  0  2  0  0  0  0  0  0
  189.9880  177.0810  135.0860 C   0  0  0  0  0  3  0  0  0  0  0  0
  190.9680  176.2180  134.5950 C   0  0  0  0  0  3  0  0  0  0  0  0
  191.0770  177.1070  137.2540 C   0  0  0  0  0  0  0  0  0  0  0  0
  192.0690  176.2580  136.7450 C   0  0  0  0  0  3  0  0  0  0  0  0
  189.4390  179.6320  137.6750 C   0  0  0  0  0  1  0  0  0  0  0  0
  192.0150  175.8150  135.4220 C   0  0  0  0  0  3  0  0  0  0  0  0
  188.2830  177.5320  144.8280 C   0  0  0  0  0  3  0  0  0  0  0  0
  190.0320  177.5540  136.4090 C   0  0  0  0  0  0  0  0  0  0  0  0
  186.2720  177.4580  142.8840 C   0  0  0  0  0  0  0  0  0  0  0  0
  190.2330  176.0550  141.9930 C   0  0  0  0  0  2  0  0  0  0  0  0
  187.5610  177.0240  142.5810 C   0  0  0  0  0  3  0  0  0  0  0  0
  190.7530  177.1080  141.0130 C   0  0  2  0  0  3  0  0  0  0  0  0
  186.3290  179.3650  140.5080 C   0  0  0  0  0  2  0  0  0  0  0  0
  191.1420  177.4600  138.6060 O   0  0  0  0  0  0  0  0  0  0  0  0
  186.4620  177.6120  138.0370 C   0  0  0  0  0  2  0  0  0  0  0  0
  186.5740  178.7820  137.0770 C   0  0  0  0  0  2  0  0  0  0  0  0
  186.9870  177.9630  145.1420 C   0  0  0  0  0  3  0  0  0  0  0  0
  185.0970  178.9870  139.7140 C   0  0  2  0  0  0  0  0  0  0  0  0
  188.5770  177.0620  143.5440 C   0  0  0  0  0  0  0  0  0  0  0  0
  189.0360  178.4970  136.8560 N   0  0  0  0  0  0  0  0  0  0  0  0
  189.6220  177.9680  140.4670 C   0  0  0  0  0  2  0  0  0  0  0  0
  185.0690  178.9040  141.2450 C   0  0  1  0  0  3  0  0  0  0  0  0
  190.2490  176.9200  139.5780 C   0  0  2  0  0  0  0  0  0  0  0  0
  185.2460  177.4860  141.7970 C   0  0  0  0  0  2  0  0  0  0  0  0
  185.9820  177.9300  144.1680 C   0  0  0  0  0  3  0  0  0  0  0  0
  188.9210  173.3120  136.4030 C   0  0  0  0  0  0  0  0  0  0  0  0
  189.4210  175.6740  139.1820 C   0  0  1  0  0  3  0  0  0  0  0  0
  190.1590  172.5330  136.1270 C   0  0  0  0  0  1  0  0  0  0  0  0
  188.9230  174.3790  137.3590 N   0  0  0  0  0  0  0  0  0  0  0  0
  188.1150  176.0230  138.7740 O   0  0  0  0  0  0  0  0  0  0  0  0
  187.7400  175.0930  137.7790 C   0  0  0  0  0  2  0  0  0  0  0  0
  187.8590  173.0100  135.7980 O   0  0  0  0  0  0  0  0  0  0  0  0
  190.0500  174.7660  138.1550 C   0  0  0  0  0  2  0  0  0  0  0  0
  184.2700  180.1220  139.0920 C   0  0  0  0  0  2  0  0  0  0  0  0
  182.4510  176.1020  136.9870 O   0  0  0  0  0  0  0  0  0  0  0  0
  180.8250  178.7960  138.0390 C   0  0  0  0  0  2  0  0  0  0  0  0
  182.8020  179.8370  138.9640 C   0  0  0  0  0  3  0  0  0  0  0  0
  182.7710  177.2940  136.3090 C   0  0  1  0  0  3  0  0  0  0  0  0
  182.3180  178.9830  138.0750 C   0  0  0  0  0  0  0  0  0  0  0  0
  178.9310  177.1470  137.9120 C   0  0  0  0  0  1  0  0  0  0  0  0
  183.1910  178.2950  137.2300 O   0  0  0  0  0  0  0  0  0  0  0  0
  181.2980  176.2360  137.8150 C   0  0  2  0  0  3  0  0  0  0  0  0
  180.3600  177.4280  137.5030 C   0  0  2  0  0  3  0  0  0  0  0  0
  180.9890  176.8470  140.1480 O   0  0  0  0  0  1  0  0  0  0  0  0
  181.6200  175.9360  139.3030 C   0  0  0  0  0  0  0  0  0  0  0  0
  182.9990  176.0140  139.5210 O   0  0  0  0  0  1  0  0  0  0  0  0
  181.1230  174.5380  139.6760 C   0  0  0  0  0  2  0  0  0  0  0  0
  179.5130  173.4100  141.1230 N   0  0  0  0  0  1  0  0  0  0  0  0
  179.6960  174.5200  140.2120 C   0  0  0  0  0  2  0  0  0  0  0  0
  183.8950  177.0200  135.3200 C   0  0  0  0  0  2  0  0  0  0  0  0
  184.7790  174.8260  134.6380 C   0  0  0  0  0  2  0  0  0  0  0  0
  184.5560  175.7110  135.6040 C   0  0  0  0  0  3  0  0  0  0  0  0
  1 22  1  0  0  0  0
  2 21  1  0  0  0  0
  3 23  1  0  0  0  0
  3 19  1  0  0  0  0
  4 11  1  0  0  0  0
  5  4  2  0  0  0  0
  5  9  1  0  0  0  0
  6 17  1  0  0  0  0
  7  6  1  0  0  0  0
  9  7  2  0  0  0  0
 10 20  1  0  0  0  0
 11 23  1  0  0  0  0
 11  6  2  0  0  0  0
 12 28  1  0  0  0  0
 13  1  1  0  0  0  0
 14 12  2  0  0  0  0
 14 22  1  0  0  0  0
 15 24  1  1  0  0  0
 15 13  1  0  0  0  0
 17 26  1  0  0  0  0
 18  2  1  0  0  0  0
 19 18  1  0  0  0  0
 21 37  1  6  0  0  0
 21 16  1  0  0  0  0
 21 25  1  0  0  0  0
 22 10  2  0  0  0  0
 23  8  1  0  0  0  0
 25 16  1  1  0  0  0
 25 27  1  0  0  0  0
 26 24  1  6  0  0  0
 26 15  1  0  0  0  0
 27 12  1  0  0  0  0
 28 20  2  0  0  0  0
 29 32  1  0  0  0  0
 30 36  1  6  0  0  0
 30 26  1  0  0  0  0
 31 29  1  0  0  0  0
 32 34  1  0  0  0  0
 32 36  1  0  0  0  0
 33 30  1  0  0  0  0
 34 33  1  0  0  0  0
 35 29  2  0  0  0  0
 38 45  1  0  0  0  0
 39 42  1  0  0  0  0
 40 37  1  0  0  0  0
 41 53  1  6  0  0  0
 41 38  1  0  0  0  0
 41 44  1  0  0  0  0
 42 40  2  0  0  0  0
 44 42  1  0  0  0  0
 45 48  1  1  0  0  0
 46 45  1  0  0  0  0
 46 43  1  1  0  0  0
 46 39  1  0  0  0  0
 48 49  1  0  0  0  0
 48 50  1  0  0  0  0
 48 47  1  0  0  0  0
 50 52  1  0  0  0  0
 52 51  1  0  0  0  0
 53 55  1  0  0  0  0
 54 55  2  0  0  0  0
M  END
>  <MODEL>
7

>  <REMARK>
 VINA RESULT:      -0.5      2.833      9.364
  Name = 
  8 active torsions:
  status: ('A' for Active; 'I' for Inactive)
    1  A    between atoms: C_6  and  C_25
    2  A    between atoms: C_6  and  C_46
    3  A    between atoms: C_8  and  C_22
    4  A    between atoms: C_12  and  C_30
    5  A    between atoms: C_13  and  C_52
    6  A    between atoms: C_22  and  C_43
    7  A    between atoms: C_25  and  C_38
    8  A    between atoms: C_30  and  C_50
                            x       y       z     vdW  Elec       q    Type
                         _______ _______ _______ _____ _____    ______ ____

>  <TORSDO>
F 8

$$$$
