=
 OpenBabel10262421243D

 32 37  0  0  1  0  0  0  0  0999 V2000
  183.2030  178.1160  142.2460 C   0  0  0  0  0  3  0  0  0  0  0  0
  188.2560  178.1110  142.7300 C   0  0  0  0  0  0  0  0  0  0  0  0
  189.4390  177.4300  137.9520 C   0  0  0  0  0  3  0  0  0  0  0  0
  190.6190  176.9630  138.3570 C   0  0  0  0  0  3  0  0  0  0  0  0
  189.9250  176.8110  144.1360 C   0  0  1  0  0  3  0  0  0  0  0  0
  190.2130  177.5100  145.4770 C   0  0  2  0  0  3  0  0  0  0  0  0
  186.0080  178.6290  143.3940 C   0  0  0  0  0  0  0  0  0  0  0  0
  186.6440  178.6200  140.9720 C   0  0  0  0  0  3  0  0  0  0  0  0
  192.0510  175.3530  144.5660 C   0  0  1  0  0  3  0  0  0  0  0  0
  184.3790  178.0280  141.6260 C   0  0  0  0  0  3  0  0  0  0  0  0
  188.5550  178.2210  138.8740 C   0  0  0  0  0  2  0  0  0  0  0  0
  187.8960  178.2770  141.3070 C   0  0  0  0  0  0  0  0  0  0  0  0
  188.8760  177.9880  140.2920 N   0  0  0  0  0  0  0  0  0  0  0  0
  190.6940  177.8200  142.0940 C   0  0  2  0  0  3  0  0  0  0  0  0
  191.7200  175.5870  146.0230 C   0  0  0  0  0  3  0  0  0  0  0  0
  183.7860  179.2680  144.3670 C   0  0  0  0  0  3  0  0  0  0  0  0
  185.5560  178.8740  141.9770 C   0  0  1  0  0  3  0  0  0  0  0  0
  190.8800  176.5540  146.4380 C   0  0  0  0  0  3  0  0  0  0  0  0
  185.2070  178.8750  144.4320 C   0  0  0  0  0  3  0  0  0  0  0  0
  182.8960  178.9850  143.3990 C   0  0  0  0  0  0  0  0  0  0  0  0
  191.0570  177.1340  139.7480 C   0  0  0  0  0  3  0  0  0  0  0  0
  190.2120  177.5930  140.6780 C   0  0  0  0  0  0  0  0  0  0  0  0
  191.6640  176.7800  142.5630 C   0  0  0  0  0  3  0  0  0  0  0  0
  187.3650  178.2640  143.6620 N   0  0  0  0  0  0  0  0  0  0  0  0
  188.9470  178.0370  146.1210 C   0  0  0  0  0  1  0  0  0  0  0  0
  191.8600  174.0220  144.2460 F   0  0  0  0  0  0  0  0  0  0  0  0
  189.6030  177.7530  143.0690 N   0  0  0  0  0  0  0  0  0  0  0  0
  191.2110  176.2190  143.6760 C   0  0  0  0  0  0  0  0  0  0  0  0
  180.4140  178.6120  143.9630 C   0  0  0  0  0  0  0  0  0  0  0  0
  181.5290  179.4050  143.5320 N   0  0  0  0  0  2  0  0  0  0  0  0
  180.5620  177.4170  144.3320 O   0  0  0  0  0  0  0  0  0  0  0  0
  179.0570  179.2190  143.9870 C   0  0  0  0  0  1  0  0  0  0  0  0
  1 20  1  0  0  0  0
  2 27  1  0  0  0  0
  2 24  2  0  0  0  0
  3  4  2  0  0  0  0
  3 11  1  0  0  0  0
  4 21  1  0  0  0  0
  5 28  1  6  0  0  0
  5  6  1  0  0  0  0
  6 25  1  1  0  0  0
  6 18  1  0  0  0  0
  7 24  1  0  0  0  0
  7 19  2  0  0  0  0
  8 12  2  0  0  0  0
  9 26  1  6  0  0  0
  9 15  1  0  0  0  0
 10 17  1  0  0  0  0
 10  1  2  0  0  0  0
 11 13  1  0  0  0  0
 12  2  1  0  0  0  0
 13 22  1  0  0  0  0
 13 12  1  0  0  0  0
 14 23  1  1  0  0  0
 14 27  1  0  0  0  0
 15 18  2  0  0  0  0
 16 19  1  0  0  0  0
 17  8  1  6  0  0  0
 17  7  1  0  0  0  0
 20 30  1  0  0  0  0
 20 16  2  0  0  0  0
 21 22  2  0  0  0  0
 22 14  1  0  0  0  0
 23 28  2  0  0  0  0
 27  5  1  0  0  0  0
 28  9  1  0  0  0  0
 29 32  1  0  0  0  0
 29 31  2  0  0  0  0
 30 29  1  0  0  0  0
M  END
>  <MODEL>
1

>  <REMARK>
 VINA RESULT:     -10.0      0.000      0.000
  Name = 
  1 active torsions:
  status: ('A' for Active; 'I' for Inactive)
    1  A    between atoms: N_10  and  C_24
                            x       y       z     vdW  Elec       q    Type
                         _______ _______ _______ _____ _____    ______ ____

>  <TORSDO>
F 1

$$$$
=
 OpenBabel10262421243D

 32 37  0  0  1  0  0  0  0  0999 V2000
  187.7500  177.2800  144.2060 C   0  0  0  0  0  3  0  0  0  0  0  0
  189.7290  177.4800  139.5360 C   0  0  0  0  0  0  0  0  0  0  0  0
  185.4840  177.4950  136.9530 C   0  0  0  0  0  3  0  0  0  0  0  0
  186.1720  177.0420  135.9060 C   0  0  0  0  0  3  0  0  0  0  0  0
  191.4210  176.0960  138.2420 C   0  0  1  0  0  3  0  0  0  0  0  0
  192.8540  176.6270  138.4220 C   0  0  2  0  0  3  0  0  0  0  0  0
  189.7380  177.7860  141.9180 C   0  0  0  0  0  0  0  0  0  0  0  0
  187.6340  178.1290  140.6030 C   0  0  0  0  0  3  0  0  0  0  0  0
  192.3080  174.7090  136.2120 C   0  0  1  0  0  3  0  0  0  0  0  0
  187.5070  177.3370  142.8980 C   0  0  0  0  0  3  0  0  0  0  0  0
  186.1780  178.1100  138.1350 C   0  0  0  0  0  2  0  0  0  0  0  0
  188.2900  177.8120  139.4780 C   0  0  0  0  0  0  0  0  0  0  0  0
  187.5930  177.7110  138.2230 N   0  0  0  0  0  0  0  0  0  0  0  0
  189.8280  177.4040  137.0030 C   0  0  2  0  0  3  0  0  0  0  0  0
  193.6140  174.7320  136.9730 C   0  0  0  0  0  3  0  0  0  0  0  0
  190.0610  178.1730  144.3740 C   0  0  0  0  0  3  0  0  0  0  0  0
  188.2860  178.1910  141.9550 C   0  0  0  0  0  0  0  0  0  0  0  0
  193.8610  175.5900  137.9810 C   0  0  0  0  0  3  0  0  0  0  0  0
  190.5080  177.8510  143.0050 C   0  0  0  0  0  3  0  0  0  0  0  0
  188.8450  177.9730  144.9140 C   0  0  0  0  0  0  0  0  0  0  0  0
  187.6400  177.0520  135.9110 C   0  0  0  0  0  3  0  0  0  0  0  0
  188.3170  177.3400  137.0280 C   0  0  0  0  0  0  0  0  0  0  0  0
  190.4510  176.3640  136.1230 C   0  0  0  0  0  3  0  0  0  0  0  0
  190.3610  177.4620  140.6700 N   0  0  0  0  0  2  0  0  0  0  0  0
  193.1410  176.9980  139.8620 C   0  0  0  0  0  1  0  0  0  0  0  0
  191.8020  173.4230  136.1810 F   0  0  0  0  0  0  0  0  0  0  0  0
  190.4160  177.1520  138.3210 N   0  0  0  0  0  0  0  0  0  0  0  0
  191.3080  175.6390  136.8290 C   0  0  0  0  0  0  0  0  0  0  0  0
  188.9510  177.5150  147.4430 C   0  0  0  0  0  0  0  0  0  0  0  0
  188.6060  178.2990  146.2910 N   0  0  0  0  0  2  0  0  0  0  0  0
  189.5770  176.4290  147.3340 O   0  0  0  0  0  0  0  0  0  0  0  0
  188.5700  178.0040  148.7940 C   0  0  0  0  0  1  0  0  0  0  0  0
  1 20  1  0  0  0  0
  2 24  1  0  0  0  0
  3 11  1  0  0  0  0
  4 21  1  0  0  0  0
  4  3  2  0  0  0  0
  5 28  1  6  0  0  0
  5 27  1  0  0  0  0
  5  6  1  0  0  0  0
  6 25  1  1  0  0  0
  7 17  1  0  0  0  0
  7 19  2  0  0  0  0
  8 17  2  0  0  0  0
  9 26  1  1  0  0  0
  9 28  1  0  0  0  0
  9 15  1  0  0  0  0
 10  1  2  0  0  0  0
 11 13  1  0  0  0  0
 12  2  2  0  0  0  0
 12  8  1  0  0  0  0
 13 12  1  0  0  0  0
 14 23  1  6  0  0  0
 14 22  1  0  0  0  0
 14 27  1  0  0  0  0
 15 18  2  0  0  0  0
 16 20  2  0  0  0  0
 17 10  1  0  0  0  0
 18  6  1  0  0  0  0
 19 16  1  0  0  0  0
 20 30  1  0  0  0  0
 21 22  2  0  0  0  0
 22 13  1  0  0  0  0
 23 28  2  0  0  0  0
 24  7  1  0  0  0  0
 27  2  1  0  0  0  0
 29 32  1  0  0  0  0
 30 29  1  0  0  0  0
 31 29  2  0  0  0  0
M  END
>  <MODEL>
2

>  <REMARK>
 VINA RESULT:     -10.0      3.983      6.263
  Name = 
  1 active torsions:
  status: ('A' for Active; 'I' for Inactive)
    1  A    between atoms: N_10  and  C_24
                            x       y       z     vdW  Elec       q    Type
                         _______ _______ _______ _____ _____    ______ ____

>  <TORSDO>
F 1

$$$$
=
 OpenBabel10262421243D

 32 37  0  0  1  0  0  0  0  0999 V2000
  189.4620  176.6410  144.9260 C   0  0  0  0  0  3  0  0  0  0  0  0
  188.8440  177.6540  139.9910 C   0  0  0  0  0  0  0  0  0  0  0  0
  184.0000  178.7580  140.0800 C   0  0  0  0  0  3  0  0  0  0  0  0
  183.9570  178.4750  138.7790 C   0  0  0  0  0  3  0  0  0  0  0  0
  189.3170  176.4080  137.8280 C   0  0  1  0  0  3  0  0  0  0  0  0
  190.7260  176.7100  137.2890 C   0  0  2  0  0  3  0  0  0  0  0  0
  190.1030  177.4110  142.0210 C   0  0  0  0  0  0  0  0  0  0  0  0
  187.7590  178.2900  142.0800 C   0  0  0  0  0  3  0  0  0  0  0  0
  188.7480  175.4200  135.4770 C   0  0  1  0  0  3  0  0  0  0  0  0
  188.6200  177.0210  143.9670 C   0  0  0  0  0  3  0  0  0  0  0  0
  185.3050  179.0030  140.7830 C   0  0  0  0  0  2  0  0  0  0  0  0
  187.6810  178.1600  140.7490 C   0  0  0  0  0  0  0  0  0  0  0  0
  186.4490  178.4290  140.0540 N   0  0  0  0  0  0  0  0  0  0  0  0
  187.6510  178.1420  137.8060 C   0  0  2  0  0  3  0  0  0  0  0  0
  190.2280  175.1150  135.4250 C   0  0  0  0  0  3  0  0  0  0  0  0
  191.6810  177.1910  143.9580 C   0  0  0  0  0  3  0  0  0  0  0  0
  188.9920  177.9660  142.8750 C   0  0  0  0  0  0  0  0  0  0  0  0
  191.1250  175.6870  136.2500 C   0  0  0  0  0  3  0  0  0  0  0  0
  191.3040  177.1360  142.5320 C   0  0  0  0  0  3  0  0  0  0  0  0
  190.8850  177.0210  145.0290 C   0  0  0  0  0  0  0  0  0  0  0  0
  185.1940  178.3090  138.0060 C   0  0  0  0  0  3  0  0  0  0  0  0
  186.3810  178.2540  138.6200 C   0  0  0  0  0  0  0  0  0  0  0  0
  187.5080  177.2610  136.6030 C   0  0  0  0  0  3  0  0  0  0  0  0
  189.9350  177.3050  140.6040 N   0  0  0  0  0  2  0  0  0  0  0  0
  191.7650  176.7090  138.3920 C   0  0  0  0  0  1  0  0  0  0  0  0
  188.0250  174.2450  135.5510 F   0  0  0  0  0  0  0  0  0  0  0  0
  188.7440  177.5300  138.5660 N   0  0  0  0  0  0  0  0  0  0  0  0
  188.4190  176.2990  136.6460 C   0  0  0  0  0  0  0  0  0  0  0  0
  192.1530  176.0030  147.0220 C   0  0  0  0  0  0  0  0  0  0  0  0
  191.4400  177.0530  146.3520 N   0  0  0  0  0  2  0  0  0  0  0  0
  192.4100  174.9130  146.4460 O   0  0  0  0  0  0  0  0  0  0  0  0
  192.6100  176.2120  148.4210 C   0  0  0  0  0  1  0  0  0  0  0  0
  1 20  1  0  0  0  0
  2 24  1  0  0  0  0
  2 12  2  0  0  0  0
  3 11  1  0  0  0  0
  4  3  2  0  0  0  0
  5 28  1  6  0  0  0
  5 27  1  0  0  0  0
  6  5  1  0  0  0  0
  6 25  1  1  0  0  0
  7 19  2  0  0  0  0
  7 17  1  0  0  0  0
  8 17  2  0  0  0  0
  9 26  1  1  0  0  0
  9 28  1  0  0  0  0
 10  1  2  0  0  0  0
 12  8  1  0  0  0  0
 13 12  1  0  0  0  0
 13 11  1  0  0  0  0
 14 23  1  6  0  0  0
 14 27  1  0  0  0  0
 14 22  1  0  0  0  0
 15  9  1  0  0  0  0
 15 18  2  0  0  0  0
 16 20  2  0  0  0  0
 17 10  1  0  0  0  0
 18  6  1  0  0  0  0
 19 16  1  0  0  0  0
 20 30  1  0  0  0  0
 21 22  2  0  0  0  0
 21  4  1  0  0  0  0
 22 13  1  0  0  0  0
 23 28  2  0  0  0  0
 24  7  1  0  0  0  0
 27  2  1  0  0  0  0
 29 32  1  0  0  0  0
 30 29  1  0  0  0  0
 31 29  2  0  0  0  0
M  END
>  <MODEL>
3

>  <REMARK>
 VINA RESULT:      -9.5      3.744      7.596
  Name = 
  1 active torsions:
  status: ('A' for Active; 'I' for Inactive)
    1  A    between atoms: N_10  and  C_24
                            x       y       z     vdW  Elec       q    Type
                         _______ _______ _______ _____ _____    ______ ____

>  <TORSDO>
F 1

$$$$
=
 OpenBabel10262421243D

 32 37  0  0  1  0  0  0  0  0999 V2000
  189.1540  178.6530  138.8560 C   0  0  0  0  0  3  0  0  0  0  0  0
  188.2990  177.1980  143.6430 C   0  0  0  0  0  0  0  0  0  0  0  0
  183.7120  179.0410  144.1500 C   0  0  0  0  0  3  0  0  0  0  0  0
  183.9020  179.0330  145.4690 C   0  0  0  0  0  3  0  0  0  0  0  0
  189.5070  177.5030  145.8560 C   0  0  1  0  0  3  0  0  0  0  0  0
  190.5050  176.3630  146.1270 C   0  0  2  0  0  3  0  0  0  0  0  0
  189.3680  177.0940  141.4960 C   0  0  2  0  0  3  0  0  0  0  0  0
  186.9480  177.7120  141.6780 C   0  0  0  0  0  3  0  0  0  0  0  0
  189.7270  178.1460  148.3800 C   0  0  1  0  0  3  0  0  0  0  0  0
  188.2940  178.6280  139.8730 C   0  0  0  0  0  3  0  0  0  0  0  0
  184.6000  178.2530  143.2280 C   0  0  0  0  0  2  0  0  0  0  0  0
  187.0230  177.5950  143.0110 C   0  0  0  0  0  0  0  0  0  0  0  0
  185.8970  177.9290  143.8440 N   0  0  0  0  0  0  0  0  0  0  0  0
  187.1480  177.0370  145.8980 C   0  0  2  0  0  3  0  0  0  0  0  0
  191.1110  177.5520  148.2450 C   0  0  0  0  0  3  0  0  0  0  0  0
  190.6880  176.7750  139.3870 C   0  0  0  0  0  3  0  0  0  0  0  0
  188.1020  177.4400  140.7550 C   0  0  0  0  0  0  0  0  0  0  0  0
  191.4710  176.7550  147.2210 C   0  0  0  0  0  3  0  0  0  0  0  0
  190.4810  176.7450  140.8480 C   0  0  0  0  0  3  0  0  0  0  0  0
  190.0880  177.5720  138.4850 C   0  0  0  0  0  0  0  0  0  0  0  0
  185.0420  178.3190  146.0570 C   0  0  0  0  0  3  0  0  0  0  0  0
  186.0110  177.8210  145.2810 C   0  0  0  0  0  0  0  0  0  0  0  0
  187.5990  177.5850  147.2170 C   0  0  0  0  0  3  0  0  0  0  0  0
  189.3590  176.9900  142.9230 N   0  0  0  0  0  0  0  0  0  0  0  0
  191.2990  176.0030  144.8880 C   0  0  0  0  0  1  0  0  0  0  0  0
  189.8160  179.5110  148.5780 F   0  0  0  0  0  0  0  0  0  0  0  0
  188.3560  177.0690  145.0700 N   0  0  0  0  0  0  0  0  0  0  0  0
  188.8960  177.8570  147.1670 C   0  0  0  0  0  0  0  0  0  0  0  0
  189.8060  176.7530  136.0630 C   0  0  0  0  0  0  0  0  0  0  0  0
  190.4590  177.4990  137.1000 N   0  0  0  0  0  2  0  0  0  0  0  0
  188.7560  176.0970  136.2880 O   0  0  0  0  0  0  0  0  0  0  0  0
  190.3770  176.7660  134.6900 C   0  0  0  0  0  1  0  0  0  0  0  0
  1 10  1  0  0  0  0
  2 27  1  0  0  0  0
  3  4  2  0  0  0  0
  4 21  1  0  0  0  0
  5  6  1  0  0  0  0
  5 28  1  1  0  0  0
  6 25  1  6  0  0  0
  6 18  1  0  0  0  0
  7 19  1  6  0  0  0
  7 24  1  0  0  0  0
  8 12  2  0  0  0  0
  9 26  1  6  0  0  0
 10 17  2  0  0  0  0
 11 13  1  0  0  0  0
 11  3  1  0  0  0  0
 12  2  1  0  0  0  0
 12 13  1  0  0  0  0
 13 22  1  0  0  0  0
 14 23  1  1  0  0  0
 15  9  1  0  0  0  0
 16 19  2  0  0  0  0
 17  7  1  0  0  0  0
 17  8  1  0  0  0  0
 18 15  2  0  0  0  0
 20  1  2  0  0  0  0
 20 16  1  0  0  0  0
 22 14  1  0  0  0  0
 22 21  2  0  0  0  0
 24  2  2  0  0  0  0
 27  5  1  0  0  0  0
 27 14  1  0  0  0  0
 28 23  2  0  0  0  0
 28  9  1  0  0  0  0
 29 31  2  0  0  0  0
 29 30  1  0  0  0  0
 30 20  1  0  0  0  0
 32 29  1  0  0  0  0
M  END
>  <MODEL>
4

>  <REMARK>
 VINA RESULT:      -9.4      3.007      6.819
  Name = 
  1 active torsions:
  status: ('A' for Active; 'I' for Inactive)
    1  A    between atoms: N_10  and  C_24
                            x       y       z     vdW  Elec       q    Type
                         _______ _______ _______ _____ _____    ______ ____

>  <TORSDO>
F 1

$$$$
=
 OpenBabel10262421243D

 32 37  0  0  1  0  0  0  0  0999 V2000
  188.3510  176.7430  145.6470 C   0  0  0  0  0  3  0  0  0  0  0  0
  186.3470  178.5590  141.3520 C   0  0  0  0  0  0  0  0  0  0  0  0
  181.5820  178.6480  142.7580 C   0  0  0  0  0  3  0  0  0  0  0  0
  181.2480  178.6210  141.4680 C   0  0  0  0  0  3  0  0  0  0  0  0
  186.4230  177.8780  138.9050 C   0  0  1  0  0  3  0  0  0  0  0  0
  187.5870  178.5510  138.1580 C   0  0  2  0  0  3  0  0  0  0  0  0
  188.1070  178.1770  142.9400 C   0  0  0  0  0  0  0  0  0  0  0  0
  185.7560  178.5480  143.7170 C   0  0  0  0  0  3  0  0  0  0  0  0
  185.4170  177.2760  136.5700 C   0  0  1  0  0  3  0  0  0  0  0  0
  187.2450  177.1290  145.0130 C   0  0  0  0  0  3  0  0  0  0  0  0
  182.9750  179.0030  143.1950 C   0  0  0  0  0  2  0  0  0  0  0  0
  185.3580  178.6670  142.4430 C   0  0  0  0  0  0  0  0  0  0  0  0
  183.9630  178.8190  142.1190 N   0  0  0  0  0  0  0  0  0  0  0  0
  184.5760  179.2200  139.6610 C   0  0  2  0  0  3  0  0  0  0  0  0
  186.8610  177.2840  136.1240 C   0  0  0  0  0  3  0  0  0  0  0  0
  190.1440  177.8980  144.3760 C   0  0  0  0  0  3  0  0  0  0  0  0
  187.1850  178.3250  144.1230 C   0  0  0  0  0  0  0  0  0  0  0  0
  187.8490  177.8500  136.8450 C   0  0  0  0  0  3  0  0  0  0  0  0
  189.4260  178.0490  143.0960 C   0  0  0  0  0  3  0  0  0  0  0  0
  189.6830  177.3680  145.5230 C   0  0  0  0  0  0  0  0  0  0  0  0
  182.2550  178.8570  140.4270 C   0  0  0  0  0  3  0  0  0  0  0  0
  183.5550  178.9180  140.7360 C   0  0  0  0  0  0  0  0  0  0  0  0
  184.2570  178.5800  138.3440 C   0  0  0  0  0  3  0  0  0  0  0  0
  187.5970  178.3190  141.6100 N   0  0  0  0  0  2  0  0  0  0  0  0
  188.8630  178.5390  138.9750 C   0  0  0  0  0  1  0  0  0  0  0  0
  184.9140  175.9890  136.5190 F   0  0  0  0  0  0  0  0  0  0  0  0
  185.9040  178.6990  139.9950 N   0  0  0  0  0  0  0  0  0  0  0  0
  185.2760  177.8270  137.9570 C   0  0  0  0  0  0  0  0  0  0  0  0
  191.6780  176.3760  146.8080 C   0  0  0  0  0  0  0  0  0  0  0  0
  190.5490  177.2500  146.6610 N   0  0  0  0  0  2  0  0  0  0  0  0
  192.0560  175.6280  145.8690 O   0  0  0  0  0  0  0  0  0  0  0  0
  192.4250  176.3640  148.0930 C   0  0  0  0  0  1  0  0  0  0  0  0
  2 24  1  0  0  0  0
  2 12  2  0  0  0  0
  3 11  1  0  0  0  0
  4  3  2  0  0  0  0
  5 28  1  6  0  0  0
  5 27  1  0  0  0  0
  6  5  1  0  0  0  0
  6 25  1  1  0  0  0
  7 19  2  0  0  0  0
  7 17  1  0  0  0  0
  8 17  2  0  0  0  0
  9 26  1  1  0  0  0
  9 28  1  0  0  0  0
 10  1  2  0  0  0  0
 12  8  1  0  0  0  0
 13 12  1  0  0  0  0
 13 11  1  0  0  0  0
 14 23  1  6  0  0  0
 14 27  1  0  0  0  0
 14 22  1  0  0  0  0
 15  9  1  0  0  0  0
 15 18  2  0  0  0  0
 16 20  2  0  0  0  0
 17 10  1  0  0  0  0
 18  6  1  0  0  0  0
 19 16  1  0  0  0  0
 20  1  1  0  0  0  0
 20 30  1  0  0  0  0
 21 22  2  0  0  0  0
 21  4  1  0  0  0  0
 22 13  1  0  0  0  0
 24  7  1  0  0  0  0
 27  2  1  0  0  0  0
 28 23  2  0  0  0  0
 29 32  1  0  0  0  0
 30 29  1  0  0  0  0
 31 29  2  0  0  0  0
M  END
>  <MODEL>
5

>  <REMARK>
 VINA RESULT:      -9.0      3.456      7.914
  Name = 
  1 active torsions:
  status: ('A' for Active; 'I' for Inactive)
    1  A    between atoms: N_10  and  C_24
                            x       y       z     vdW  Elec       q    Type
                         _______ _______ _______ _____ _____    ______ ____

>  <TORSDO>
F 1

$$$$
=
 OpenBabel10262421243D

 32 37  0  0  1  0  0  0  0  0999 V2000
  190.2040  176.3780  140.3860 C   0  0  0  0  0  3  0  0  0  0  0  0
  185.8760  178.6900  141.6850 C   0  0  0  0  0  0  0  0  0  0  0  0
  186.0780  177.9030  146.5870 C   0  0  0  0  0  3  0  0  0  0  0  0
  184.7570  178.0750  146.6240 C   0  0  0  0  0  3  0  0  0  0  0  0
  183.4480  178.4920  140.9650 C   0  0  1  0  0  3  0  0  0  0  0  0
  183.1160  179.4370  139.7970 C   0  0  2  0  0  3  0  0  0  0  0  0
  187.7670  178.2480  140.2730 C   0  0  2  0  0  3  0  0  0  0  0  0
  187.9970  178.1630  142.7660 C   0  0  0  0  0  3  0  0  0  0  0  0
  180.8740  178.2120  141.3240 C   0  0  1  0  0  3  0  0  0  0  0  0
  189.3860  176.7300  141.3770 C   0  0  0  0  0  3  0  0  0  0  0  0
  186.8900  178.3460  145.4020 C   0  0  0  0  0  2  0  0  0  0  0  0
  186.6980  178.4650  142.8920 C   0  0  0  0  0  0  0  0  0  0  0  0
  186.0710  178.4950  144.1870 N   0  0  0  0  0  0  0  0  0  0  0  0
  183.9250  179.4220  143.1320 C   0  0  2  0  0  3  0  0  0  0  0  0
  180.8000  178.4890  139.8390 C   0  0  0  0  0  3  0  0  0  0  0  0
  189.5970  177.9700  138.5810 C   0  0  0  0  0  3  0  0  0  0  0  0
  188.7000  178.0530  141.4420 C   0  0  0  0  0  0  0  0  0  0  0  0
  181.8160  179.0320  139.1420 C   0  0  0  0  0  3  0  0  0  0  0  0
  188.2180  178.2640  139.0180 C   0  0  0  0  0  3  0  0  0  0  0  0
  190.5030  177.1810  139.1840 C   0  0  0  0  0  0  0  0  0  0  0  0
  184.0400  178.6280  145.4680 C   0  0  0  0  0  3  0  0  0  0  0  0
  184.6610  178.7960  144.2960 C   0  0  0  0  0  0  0  0  0  0  0  0
  182.4890  179.0030  143.0440 C   0  0  0  0  0  3  0  0  0  0  0  0
  186.3910  178.5690  140.4990 N   0  0  0  0  0  0  0  0  0  0  0  0
  184.2070  179.4360  138.7450 C   0  0  0  0  0  1  0  0  0  0  0  0
  180.5090  176.9040  141.5790 F   0  0  0  0  0  0  0  0  0  0  0  0
  184.4890  179.0220  141.8400 N   0  0  0  0  0  0  0  0  0  0  0  0
  182.2520  178.4720  141.8530 C   0  0  0  0  0  0  0  0  0  0  0  0
  192.2850  175.7460  138.0070 C   0  0  0  0  0  0  0  0  0  0  0  0
  191.7870  176.9650  138.5790 N   0  0  0  0  0  2  0  0  0  0  0  0
  191.5700  174.7120  137.9410 O   0  0  0  0  0  0  0  0  0  0  0  0
  193.6710  175.7090  137.4700 C   0  0  0  0  0  1  0  0  0  0  0  0
  1 10  1  0  0  0  0
  2 27  1  0  0  0  0
  2 12  1  0  0  0  0
  3  4  2  0  0  0  0
  5 27  1  0  0  0  0
  5 28  1  1  0  0  0
  6 25  1  6  0  0  0
  6  5  1  0  0  0  0
  7 19  1  6  0  0  0
  7 24  1  0  0  0  0
  7 17  1  0  0  0  0
  8 12  2  0  0  0  0
  9 26  1  6  0  0  0
  9 28  1  0  0  0  0
 10 17  2  0  0  0  0
 11  3  1  0  0  0  0
 12 13  1  0  0  0  0
 13 22  1  0  0  0  0
 13 11  1  0  0  0  0
 14 23  1  6  0  0  0
 14 22  1  0  0  0  0
 15  9  1  0  0  0  0
 16 19  2  0  0  0  0
 16 20  1  0  0  0  0
 17  8  1  0  0  0  0
 18  6  1  0  0  0  0
 18 15  2  0  0  0  0
 20  1  2  0  0  0  0
 21  4  1  0  0  0  0
 22 21  2  0  0  0  0
 24  2  2  0  0  0  0
 27 14  1  0  0  0  0
 28 23  2  0  0  0  0
 29 30  1  0  0  0  0
 30 20  1  0  0  0  0
 31 29  2  0  0  0  0
 32 29  1  0  0  0  0
M  END
>  <MODEL>
6

>  <REMARK>
 VINA RESULT:      -9.0      3.899      8.907
  Name = 
  1 active torsions:
  status: ('A' for Active; 'I' for Inactive)
    1  A    between atoms: N_10  and  C_24
                            x       y       z     vdW  Elec       q    Type
                         _______ _______ _______ _____ _____    ______ ____

>  <TORSDO>
F 1

$$$$
=
 OpenBabel10262421243D

 32 37  0  0  1  0  0  0  0  0999 V2000
  183.8830  179.9290  144.1690 C   0  0  0  0  0  3  0  0  0  0  0  0
  188.0110  177.2060  143.0250 C   0  0  0  0  0  0  0  0  0  0  0  0
  190.0990  177.1290  147.5340 C   0  0  0  0  0  3  0  0  0  0  0  0
  191.2670  176.8860  146.9400 C   0  0  0  0  0  3  0  0  0  0  0  0
  189.8750  177.4040  141.3100 C   0  0  1  0  0  3  0  0  0  0  0  0
  189.5340  176.6640  140.0040 C   0  0  2  0  0  3  0  0  0  0  0  0
  185.7630  177.9860  142.7070 C   0  0  2  0  0  3  0  0  0  0  0  0
  186.6720  177.6430  145.0160 C   0  0  0  0  0  3  0  0  0  0  0  0
  192.3540  177.4850  140.4860 C   0  0  1  0  0  3  0  0  0  0  0  0
  185.0030  179.3670  144.6200 C   0  0  0  0  0  3  0  0  0  0  0  0
  188.7990  176.9430  146.8040 C   0  0  0  0  0  2  0  0  0  0  0  0
  187.8440  177.2580  144.4920 C   0  0  0  0  0  0  0  0  0  0  0  0
  188.9700  176.9690  145.3410 N   0  0  0  0  0  0  0  0  0  0  0  0
  190.2930  176.1340  143.3090 C   0  0  2  0  0  3  0  0  0  0  0  0
  191.7280  177.4700  139.1100 C   0  0  0  0  0  3  0  0  0  0  0  0
  183.4240  178.6500  142.0920 C   0  0  0  0  0  3  0  0  0  0  0  0
  185.4770  178.0200  144.1870 C   0  0  0  0  0  0  0  0  0  0  0  0
  190.4500  177.1100  138.8890 C   0  0  0  0  0  3  0  0  0  0  0  0
  184.8060  178.2140  141.8070 C   0  0  0  0  0  3  0  0  0  0  0  0
  182.9850  179.3660  143.1420 C   0  0  0  0  0  0  0  0  0  0  0  0
  191.3240  176.5090  145.5220 C   0  0  0  0  0  3  0  0  0  0  0  0
  190.2320  176.5810  144.7520 C   0  0  0  0  0  0  0  0  0  0  0  0
  191.5820  176.4870  142.6320 C   0  0  0  0  0  3  0  0  0  0  0  0
  187.0450  177.5610  142.2340 N   0  0  0  0  0  0  0  0  0  0  0  0
  188.1000  176.9040  139.5780 C   0  0  0  0  0  1  0  0  0  0  0  0
  192.9550  178.7070  140.7190 F   0  0  0  0  0  0  0  0  0  0  0  0
  189.2700  176.7820  142.4840 N   0  0  0  0  0  0  0  0  0  0  0  0
  191.3320  177.2060  141.5460 C   0  0  0  0  0  0  0  0  0  0  0  0
  180.5140  178.9710  143.7350 C   0  0  0  0  0  0  0  0  0  0  0  0
  181.6040  179.7510  143.2240 N   0  0  0  0  0  2  0  0  0  0  0  0
  180.6990  177.8280  144.2310 O   0  0  0  0  0  0  0  0  0  0  0  0
  179.1370  179.5300  143.6890 C   0  0  0  0  0  1  0  0  0  0  0  0
  1 10  1  0  0  0  0
  2 12  1  0  0  0  0
  4  3  2  0  0  0  0
  5 28  1  1  0  0  0
  5 27  1  0  0  0  0
  6 25  1  6  0  0  0
  6  5  1  0  0  0  0
  7 19  1  6  0  0  0
  7 17  1  0  0  0  0
  9 26  1  1  0  0  0
  9 28  1  0  0  0  0
 11  3  1  0  0  0  0
 12  8  2  0  0  0  0
 12 13  1  0  0  0  0
 13 11  1  0  0  0  0
 14 23  1  6  0  0  0
 14 22  1  0  0  0  0
 15  9  1  0  0  0  0
 16 20  1  0  0  0  0
 17 10  2  0  0  0  0
 17  8  1  0  0  0  0
 18 15  2  0  0  0  0
 18  6  1  0  0  0  0
 19 16  2  0  0  0  0
 20 30  1  0  0  0  0
 20  1  2  0  0  0  0
 21  4  1  0  0  0  0
 22 13  1  0  0  0  0
 22 21  2  0  0  0  0
 24  7  1  0  0  0  0
 24  2  2  0  0  0  0
 27  2  1  0  0  0  0
 27 14  1  0  0  0  0
 28 23  2  0  0  0  0
 29 31  2  0  0  0  0
 30 29  1  0  0  0  0
 32 29  1  0  0  0  0
M  END
>  <MODEL>
7

>  <REMARK>
 VINA RESULT:      -8.8      1.544      4.479
  Name = 
  1 active torsions:
  status: ('A' for Active; 'I' for Inactive)
    1  A    between atoms: N_10  and  C_24
                            x       y       z     vdW  Elec       q    Type
                         _______ _______ _______ _____ _____    ______ ____

>  <TORSDO>
F 1

$$$$
=
 OpenBabel10262421243D

 32 37  0  0  1  0  0  0  0  0999 V2000
  187.6650  176.9130  145.1560 C   0  0  0  0  0  3  0  0  0  0  0  0
  184.6380  178.4500  141.3820 C   0  0  0  0  0  0  0  0  0  0  0  0
  180.3640  178.6280  143.9100 C   0  0  0  0  0  3  0  0  0  0  0  0
  179.7230  178.5190  142.7470 C   0  0  0  0  0  3  0  0  0  0  0  0
  184.1210  177.6140  139.0400 C   0  0  1  0  0  3  0  0  0  0  0  0
  185.0550  178.2380  137.9880 C   0  0  2  0  0  3  0  0  0  0  0  0
  186.7400  178.1700  142.5080 C   0  0  2  0  0  3  0  0  0  0  0  0
  184.6460  178.5900  143.8170 C   0  0  0  0  0  3  0  0  0  0  0  0
  182.5810  176.8630  137.0660 C   0  0  1  0  0  3  0  0  0  0  0  0
  186.4310  177.2580  144.7910 C   0  0  0  0  0  3  0  0  0  0  0  0
  181.8160  179.0100  143.9680 C   0  0  0  0  0  2  0  0  0  0  0  0
  183.9450  178.6280  142.6750 C   0  0  0  0  0  0  0  0  0  0  0  0
  182.5120  178.7580  142.6950 N   0  0  0  0  0  0  0  0  0  0  0  0
  182.4950  179.0010  140.1420 C   0  0  2  0  0  3  0  0  0  0  0  0
  183.8720  176.8440  136.2790 C   0  0  0  0  0  3  0  0  0  0  0  0
  189.0710  177.9840  143.4140 C   0  0  0  0  0  3  0  0  0  0  0  0
  186.1350  178.3940  143.8710 C   0  0  0  0  0  0  0  0  0  0  0  0
  184.9970  177.4540  136.6980 C   0  0  0  0  0  3  0  0  0  0  0  0
  188.0580  178.0530  142.3420 C   0  0  0  0  0  3  0  0  0  0  0  0
  188.9150  177.5290  144.6690 C   0  0  0  0  0  0  0  0  0  0  0  0
  180.4400  178.6880  141.4770 C   0  0  0  0  0  3  0  0  0  0  0  0
  181.7750  178.7680  141.4520 C   0  0  0  0  0  0  0  0  0  0  0  0
  181.8720  178.2780  138.9870 C   0  0  0  0  0  3  0  0  0  0  0  0
  185.9170  178.2270  141.3390 N   0  0  0  0  0  0  0  0  0  0  0  0
  186.4930  178.2780  138.4650 C   0  0  0  0  0  1  0  0  0  0  0  0
  182.1020  175.5760  137.2200 F   0  0  0  0  0  0  0  0  0  0  0  0
  183.8720  178.5030  140.1710 N   0  0  0  0  0  0  0  0  0  0  0  0
  182.7780  177.5020  138.4070 C   0  0  0  0  0  0  0  0  0  0  0  0
  190.0400  177.0520  146.9320 C   0  0  0  0  0  0  0  0  0  0  0  0
  190.0360  177.4840  145.5640 N   0  0  0  0  0  2  0  0  0  0  0  0
  189.0010  176.6000  147.4810 O   0  0  0  0  0  0  0  0  0  0  0  0
  191.3020  177.1280  147.7150 C   0  0  0  0  0  1  0  0  0  0  0  0
  2 12  1  0  0  0  0
  3 11  1  0  0  0  0
  4  3  2  0  0  0  0
  5 28  1  6  0  0  0
  5 27  1  0  0  0  0
  6 25  1  1  0  0  0
  6  5  1  0  0  0  0
  7 19  1  6  0  0  0
  7 17  1  0  0  0  0
  8 17  1  0  0  0  0
  9 26  1  1  0  0  0
  9 28  1  0  0  0  0
 10  1  1  0  0  0  0
 12 13  1  0  0  0  0
 12  8  2  0  0  0  0
 13 11  1  0  0  0  0
 14 23  1  6  0  0  0
 14 27  1  0  0  0  0
 14 22  1  0  0  0  0
 15 18  2  0  0  0  0
 15  9  1  0  0  0  0
 16 20  1  0  0  0  0
 17 10  2  0  0  0  0
 18  6  1  0  0  0  0
 19 16  2  0  0  0  0
 20  1  2  0  0  0  0
 20 30  1  0  0  0  0
 21  4  1  0  0  0  0
 22 21  2  0  0  0  0
 22 13  1  0  0  0  0
 24  2  2  0  0  0  0
 24  7  1  0  0  0  0
 27  2  1  0  0  0  0
 28 23  2  0  0  0  0
 29 31  2  0  0  0  0
 29 32  1  0  0  0  0
 30 29  1  0  0  0  0
M  END
>  <MODEL>
8

>  <REMARK>
 VINA RESULT:      -8.6      3.629      8.492
  Name = 
  1 active torsions:
  status: ('A' for Active; 'I' for Inactive)
    1  A    between atoms: N_10  and  C_24
                            x       y       z     vdW  Elec       q    Type
                         _______ _______ _______ _____ _____    ______ ____

>  <TORSDO>
F 1

$$$$
=
 OpenBabel10262421243D

 32 37  0  0  1  0  0  0  0  0999 V2000
  187.6360  177.1600  144.8040 C   0  0  0  0  0  3  0  0  0  0  0  0
  187.6740  177.9250  139.7860 C   0  0  0  0  0  0  0  0  0  0  0  0
  182.7960  178.6010  139.1210 C   0  0  0  0  0  3  0  0  0  0  0  0
  182.9690  178.2660  137.8430 C   0  0  0  0  0  3  0  0  0  0  0  0
  188.5610  176.6430  137.7800 C   0  0  1  0  0  3  0  0  0  0  0  0
  190.0050  177.0470  137.4340 C   0  0  2  0  0  3  0  0  0  0  0  0
  188.6350  177.8710  141.9860 C   0  0  0  0  0  0  0  0  0  0  0  0
  186.2440  178.5430  141.6620 C   0  0  0  0  0  3  0  0  0  0  0  0
  188.4280  175.5190  135.4240 C   0  0  1  0  0  3  0  0  0  0  0  0
  186.9170  177.4270  143.7150 C   0  0  0  0  0  3  0  0  0  0  0  0
  183.9590  178.9870  139.9910 C   0  0  0  0  0  2  0  0  0  0  0  0
  186.3740  178.3550  140.3420 C   0  0  0  0  0  0  0  0  0  0  0  0
  185.2410  178.4880  139.4640 N   0  0  0  0  0  0  0  0  0  0  0  0
  186.7810  178.2220  137.4300 C   0  0  2  0  0  3  0  0  0  0  0  0
  189.9190  175.3440  135.6020 C   0  0  0  0  0  3  0  0  0  0  0  0
  189.9210  177.8660  144.1390 C   0  0  0  0  0  3  0  0  0  0  0  0
  187.3680  178.3590  142.6420 C   0  0  0  0  0  0  0  0  0  0  0  0
  190.6350  176.0240  136.5170 C   0  0  0  0  0  3  0  0  0  0  0  0
  189.7650  177.7230  142.6780 C   0  0  0  0  0  3  0  0  0  0  0  0
  188.9930  177.6670  145.0910 C   0  0  0  0  0  0  0  0  0  0  0  0
  184.3160  178.1800  137.2660 C   0  0  0  0  0  3  0  0  0  0  0  0
  185.4000  178.2530  138.0470 C   0  0  0  0  0  0  0  0  0  0  0  0
  186.8900  177.2860  136.2660 C   0  0  0  0  0  3  0  0  0  0  0  0
  188.6870  177.6970  140.5660 N   0  0  0  0  0  2  0  0  0  0  0  0
  190.8660  177.1790  138.6740 C   0  0  0  0  0  1  0  0  0  0  0  0
  187.8000  174.2880  135.4540 F   0  0  0  0  0  0  0  0  0  0  0  0
  187.7960  177.7380  138.3690 N   0  0  0  0  0  0  0  0  0  0  0  0
  187.8600  176.4100  136.4880 C   0  0  0  0  0  0  0  0  0  0  0  0
  188.4660  178.1100  147.5690 C   0  0  0  0  0  0  0  0  0  0  0  0
  189.3420  177.7990  146.4770 N   0  0  0  0  0  2  0  0  0  0  0  0
  187.2270  178.2530  147.3960 O   0  0  0  0  0  0  0  0  0  0  0  0
  189.0310  178.2530  148.9360 C   0  0  0  0  0  1  0  0  0  0  0  0
  1 20  1  0  0  0  0
  2 12  2  0  0  0  0
  2 24  1  0  0  0  0
  3 11  1  0  0  0  0
  4  3  2  0  0  0  0
  5 28  1  6  0  0  0
  5 27  1  0  0  0  0
  6  5  1  0  0  0  0
  6 25  1  1  0  0  0
  7 17  1  0  0  0  0
  7 19  2  0  0  0  0
  8 17  2  0  0  0  0
  9 26  1  1  0  0  0
  9 15  1  0  0  0  0
  9 28  1  0  0  0  0
 10  1  2  0  0  0  0
 12  8  1  0  0  0  0
 13 11  1  0  0  0  0
 13 12  1  0  0  0  0
 14 23  1  6  0  0  0
 14 22  1  0  0  0  0
 14 27  1  0  0  0  0
 15 18  2  0  0  0  0
 16 20  2  0  0  0  0
 17 10  1  0  0  0  0
 18  6  1  0  0  0  0
 19 16  1  0  0  0  0
 20 30  1  0  0  0  0
 21  4  1  0  0  0  0
 21 22  2  0  0  0  0
 22 13  1  0  0  0  0
 23 28  2  0  0  0  0
 24  7  1  0  0  0  0
 27  2  1  0  0  0  0
 29 32  1  0  0  0  0
 30 29  1  0  0  0  0
 31 29  2  0  0  0  0
M  END
>  <MODEL>
9

>  <REMARK>
 VINA RESULT:      -8.5      3.375      6.840
  Name = 
  1 active torsions:
  status: ('A' for Active; 'I' for Inactive)
    1  A    between atoms: N_10  and  C_24
                            x       y       z     vdW  Elec       q    Type
                         _______ _______ _______ _____ _____    ______ ____

>  <TORSDO>
F 1

$$$$
