=
 OpenBabel10262423223D

 34 39  0  0  1  0  0  0  0  0999 V2000
  187.0960  177.8540  144.4650 C   0  0  0  0  0  0  0  0  0  0  0  0
  183.4610  178.9410  145.0900 C   0  0  0  0  0  3  0  0  0  0  0  0
  185.3500  178.6050  146.5050 N   0  0  0  0  0  0  0  0  0  0  0  0
  189.3930  177.1460  143.9400 C   0  0  0  0  0  0  0  0  0  0  0  0
  188.0760  177.4580  143.5230 C   0  0  0  0  0  3  0  0  0  0  0  0
  188.7660  177.6200  146.2040 C   0  0  0  0  0  0  0  0  0  0  0  0
  188.8210  177.8210  147.8710 S   0  0  0  0  0  0  0  0  0  0  0  0
  189.7500  177.2260  145.3020 C   0  0  0  0  0  3  0  0  0  0  0  0
  186.6320  178.2890  146.7990 C   0  0  0  0  0  0  0  0  0  0  0  0
  187.4950  177.9190  145.7920 C   0  0  0  0  0  0  0  0  0  0  0  0
  187.1960  178.2990  148.0760 C   0  0  0  0  0  3  0  0  0  0  0  0
  182.6690  179.0180  144.0290 C   0  0  0  0  0  3  0  0  0  0  0  0
  182.9580  178.7510  142.6160 C   0  0  0  0  0  0  0  0  0  0  0  0
  184.1420  178.3620  142.1510 C   0  0  0  0  0  3  0  0  0  0  0  0
  184.8760  178.5670  145.2190 C   0  0  0  0  0  0  0  0  0  0  0  0
  185.4030  178.1080  142.8540 C   0  0  0  0  0  3  0  0  0  0  0  0
  185.7510  178.1830  144.1450 C   0  0  0  0  0  0  0  0  0  0  0  0
  181.8850  178.9210  141.6760 N   0  0  0  0  0  0  0  0  0  0  0  0
  182.0810  178.6640  140.3600 O   0  0  0  0  0  0  0  0  0  0  0  0
  180.6640  179.3400  142.0870 O   0  0  0  0  0  0  0  0  0  0  0  0
  190.4090  176.7100  142.9310 C   0  0  0  0  0  2  0  0  0  0  0  0
  190.7010  176.3610  139.1560 C   0  0  0  0  0  3  0  0  0  0  0  0
  189.5180  178.1710  141.0620 C   0  0  0  0  0  2  0  0  0  0  0  0
  188.3470  178.1980  136.9260 C   0  0  2  0  0  3  0  0  0  0  0  0
  189.5830  177.3340  137.2090 C   0  0  0  0  0  2  0  0  0  0  0  0
  189.8860  177.3020  138.6770 C   0  0  0  0  0  0  0  0  0  0  0  0
  187.6000  178.0210  139.3860 C   0  0  0  0  0  2  0  0  0  0  0  0
  189.1040  178.2210  139.5880 C   0  0  1  0  0  3  0  0  0  0  0  0
  187.2020  177.8800  137.9020 C   0  0  0  0  0  2  0  0  0  0  0  0
  189.8830  176.7540  141.4960 C   0  0  1  0  0  3  0  0  0  0  0  0
  190.8460  176.1710  140.5660 N   0  0  0  0  0  2  0  0  0  0  0  0
  187.9080  178.0130  135.5520 N   0  0  0  0  0  0  0  0  0  0  0  0
  186.7450  178.3270  135.2290 O   0  0  0  0  0  0  0  0  0  0  0  0
  188.7840  177.5590  134.5940 O   0  0  0  0  0  0  0  0  0  0  0  0
  1 10  1  0  0  0  0
  2 15  1  0  0  0  0
  3  9  1  0  0  0  0
  4  8  2  0  0  0  0
  5  4  1  0  0  0  0
  5  1  2  0  0  0  0
  6  7  1  0  0  0  0
  7 11  1  0  0  0  0
  8  6  1  0  0  0  0
  9 11  2  0  0  0  0
 10  6  2  0  0  0  0
 10  9  1  0  0  0  0
 12  2  2  0  0  0  0
 13 12  1  0  0  0  0
 14 13  2  0  0  0  0
 14 16  1  0  0  0  0
 15  3  2  0  0  0  0
 16 17  2  0  0  0  0
 17  1  1  0  0  0  0
 17 15  1  0  0  0  0
 18 20  2  0  0  0  0
 18 13  1  0  0  0  0
 19 18  2  0  0  0  0
 21  4  1  0  0  0  0
 22 31  1  0  0  0  0
 23 30  1  0  0  0  0
 24 32  1  6  0  0  0
 24 25  1  0  0  0  0
 24 29  1  0  0  0  0
 25 26  1  0  0  0  0
 26 22  2  0  0  0  0
 26 28  1  0  0  0  0
 28 27  1  1  0  0  0
 28 23  1  0  0  0  0
 29 27  1  0  0  0  0
 30 21  1  1  0  0  0
 31 30  1  0  0  0  0
 33 32  2  0  0  0  0
 34 32  2  0  0  0  0
M  END
>  <MODEL>
1

>  <REMARK>
 VINA RESULT:     -10.9      0.000      0.000
  Name = 
  4 active torsions:
  status: ('A' for Active; 'I' for Inactive)
    1  A    between atoms: N_3  and  C_25
    2  A    between atoms: C_7  and  N_11
    3  A    between atoms: C_8  and  C_18
    4  A    between atoms: C_18  and  C_30
                            x       y       z     vdW  Elec       q    Type
                         _______ _______ _______ _____ _____    ______ ____

>  <TORSDO>
F 4

$$$$
=
 OpenBabel10262423223D

 34 39  0  0  1  0  0  0  0  0999 V2000
  187.4900  177.8630  144.7210 C   0  0  0  0  0  0  0  0  0  0  0  0
  190.8240  176.8030  143.1260 C   0  0  0  0  0  3  0  0  0  0  0  0
  190.0890  177.0940  145.3750 N   0  0  0  0  0  0  0  0  0  0  0  0
  185.3080  178.5560  145.6220 C   0  0  0  0  0  0  0  0  0  0  0  0
  186.1470  178.2660  144.5200 C   0  0  0  0  0  3  0  0  0  0  0  0
  187.1190  178.0480  147.1080 C   0  0  0  0  0  0  0  0  0  0  0  0
  188.0300  177.8150  148.5000 S   0  0  0  0  0  0  0  0  0  0  0  0
  185.7960  178.4480  146.9420 C   0  0  0  0  0  3  0  0  0  0  0  0
  189.2070  177.3900  146.3570 C   0  0  0  0  0  0  0  0  0  0  0  0
  187.9240  177.7700  146.0350 C   0  0  0  0  0  0  0  0  0  0  0  0
  189.4780  177.3510  147.7260 C   0  0  0  0  0  3  0  0  0  0  0  0
  190.8640  176.7540  141.8010 C   0  0  0  0  0  3  0  0  0  0  0  0
  189.8180  177.0450  140.8150 C   0  0  0  0  0  0  0  0  0  0  0  0
  188.5820  177.4300  141.1220 C   0  0  0  0  0  3  0  0  0  0  0  0
  189.7400  177.1600  144.0500 C   0  0  0  0  0  0  0  0  0  0  0  0
  187.9530  177.6570  142.4250 C   0  0  0  0  0  3  0  0  0  0  0  0
  188.4080  177.5550  143.6810 C   0  0  0  0  0  0  0  0  0  0  0  0
  190.1580  176.9030  139.4270 N   0  0  0  0  0  0  0  0  0  0  0  0
  190.8050  175.7960  138.9900 O   0  0  0  0  0  0  0  0  0  0  0  0
  189.8380  177.8700  138.5330 O   0  0  0  0  0  0  0  0  0  0  0  0
  183.8980  178.9990  145.3880 C   0  0  0  0  0  2  0  0  0  0  0  0
  181.5690  178.9660  142.3830 C   0  0  0  0  0  3  0  0  0  0  0  0
  184.2240  178.0670  143.0550 C   0  0  0  0  0  2  0  0  0  0  0  0
  182.9430  178.4030  138.9640 C   0  0  2  0  0  3  0  0  0  0  0  0
  181.8040  178.5650  139.9800 C   0  0  0  0  0  2  0  0  0  0  0  0
  182.3320  178.5200  141.3830 C   0  0  0  0  0  0  0  0  0  0  0  0
  184.6900  179.0500  140.7460 C   0  0  0  0  0  2  0  0  0  0  0  0
  183.7830  178.1500  141.5890 C   0  0  1  0  0  3  0  0  0  0  0  0
  184.1470  179.2920  139.3220 C   0  0  0  0  0  2  0  0  0  0  0  0
  183.5560  179.1450  143.9040 C   0  0  1  0  0  3  0  0  0  0  0  0
  182.1110  179.1330  143.6950 N   0  0  0  0  0  2  0  0  0  0  0  0
  182.4690  178.7080  137.6250 N   0  0  0  0  0  0  0  0  0  0  0  0
  182.8030  177.9770  136.6710 O   0  0  0  0  0  0  0  0  0  0  0  0
  181.6000  179.7540  137.4120 O   0  0  0  0  0  0  0  0  0  0  0  0
  1 10  1  0  0  0  0
  2 15  1  0  0  0  0
  3  9  1  0  0  0  0
  4  8  2  0  0  0  0
  5  1  2  0  0  0  0
  5  4  1  0  0  0  0
  6  7  1  0  0  0  0
  8  6  1  0  0  0  0
  9 11  2  0  0  0  0
 10  9  1  0  0  0  0
 10  6  2  0  0  0  0
 11  7  1  0  0  0  0
 12  2  2  0  0  0  0
 13 14  2  0  0  0  0
 13 12  1  0  0  0  0
 14 16  1  0  0  0  0
 15  3  2  0  0  0  0
 16 17  2  0  0  0  0
 17 15  1  0  0  0  0
 17  1  1  0  0  0  0
 18 13  1  0  0  0  0
 19 18  2  0  0  0  0
 20 18  2  0  0  0  0
 21  4  1  0  0  0  0
 22 31  1  0  0  0  0
 23 30  1  0  0  0  0
 24 32  1  6  0  0  0
 24 29  1  0  0  0  0
 24 25  1  0  0  0  0
 25 26  1  0  0  0  0
 26 28  1  0  0  0  0
 26 22  2  0  0  0  0
 28 27  1  6  0  0  0
 28 23  1  0  0  0  0
 29 27  1  0  0  0  0
 30 21  1  1  0  0  0
 31 30  1  0  0  0  0
 33 32  2  0  0  0  0
 34 32  2  0  0  0  0
M  END
>  <MODEL>
2

>  <REMARK>
 VINA RESULT:     -10.9      2.343      6.150
  Name = 
  4 active torsions:
  status: ('A' for Active; 'I' for Inactive)
    1  A    between atoms: N_3  and  C_25
    2  A    between atoms: C_7  and  N_11
    3  A    between atoms: C_8  and  C_18
    4  A    between atoms: C_18  and  C_30
                            x       y       z     vdW  Elec       q    Type
                         _______ _______ _______ _____ _____    ______ ____

>  <TORSDO>
F 4

$$$$
=
 OpenBabel10262423223D

 34 39  0  0  1  0  0  0  0  0999 V2000
  188.9070  177.7100  143.9580 C   0  0  0  0  0  0  0  0  0  0  0  0
  191.4660  177.1430  141.1440 C   0  0  0  0  0  3  0  0  0  0  0  0
  191.5240  176.8600  143.5100 N   0  0  0  0  0  0  0  0  0  0  0  0
  187.1870  178.1160  145.6690 C   0  0  0  0  0  0  0  0  0  0  0  0
  187.6000  178.1220  144.3160 C   0  0  0  0  0  3  0  0  0  0  0  0
  189.3490  177.2980  146.3040 C   0  0  0  0  0  0  0  0  0  0  0  0
  190.6480  176.7520  147.2180 S   0  0  0  0  0  0  0  0  0  0  0  0
  188.0720  177.6990  146.6860 C   0  0  0  0  0  3  0  0  0  0  0  0
  191.0320  176.8880  144.7700 C   0  0  0  0  0  0  0  0  0  0  0  0
  189.7400  177.3080  144.9920 C   0  0  0  0  0  0  0  0  0  0  0  0
  191.7320  176.5220  145.9210 C   0  0  0  0  0  3  0  0  0  0  0  0
  191.0670  177.4190  139.9090 C   0  0  0  0  0  3  0  0  0  0  0  0
  189.7770  177.9200  139.4250 C   0  0  0  0  0  0  0  0  0  0  0  0
  188.7350  178.1920  140.2070 C   0  0  0  0  0  3  0  0  0  0  0  0
  190.7670  177.2400  142.4330 C   0  0  0  0  0  0  0  0  0  0  0  0
  188.5820  178.0810  141.6600 C   0  0  0  0  0  3  0  0  0  0  0  0
  189.4140  177.6840  142.6310 C   0  0  0  0  0  0  0  0  0  0  0  0
  189.6350  178.1290  138.0110 N   0  0  0  0  0  0  0  0  0  0  0  0
  189.0390  179.2510  137.5410 O   0  0  0  0  0  0  0  0  0  0  0  0
  190.0920  177.2110  137.1260 O   0  0  0  0  0  0  0  0  0  0  0  0
  185.8080  178.5730  146.0280 C   0  0  0  0  0  2  0  0  0  0  0  0
  182.5300  179.1170  144.1800 C   0  0  0  0  0  3  0  0  0  0  0  0
  185.0730  177.8410  143.7170 C   0  0  0  0  0  2  0  0  0  0  0  0
  182.3920  178.7300  140.4760 C   0  0  2  0  0  3  0  0  0  0  0  0
  181.7660  178.9290  141.8630 C   0  0  0  0  0  2  0  0  0  0  0  0
  182.7770  178.6830  142.9430 C   0  0  0  0  0  0  0  0  0  0  0  0
  184.7620  178.9810  141.4550 C   0  0  0  0  0  2  0  0  0  0  0  0
  184.1230  178.1200  142.5470 C   0  0  1  0  0  3  0  0  0  0  0  0
  183.7600  179.4260  140.3700 C   0  0  0  0  0  2  0  0  0  0  0  0
  184.9510  178.9040  144.8050 C   0  0  1  0  0  3  0  0  0  0  0  0
  183.5510  179.0880  145.1790 N   0  0  0  0  0  2  0  0  0  0  0  0
  181.4920  179.2200  139.4440 N   0  0  0  0  0  0  0  0  0  0  0  0
  180.4520  178.5840  139.1790 O   0  0  0  0  0  0  0  0  0  0  0  0
  181.7430  180.4130  138.8070 O   0  0  0  0  0  0  0  0  0  0  0  0
  1  5  2  0  0  0  0
  1 10  1  0  0  0  0
  2 15  1  0  0  0  0
  3  9  1  0  0  0  0
  4 21  1  0  0  0  0
  4  8  2  0  0  0  0
  5  4  1  0  0  0  0
  6  8  1  0  0  0  0
  6  7  1  0  0  0  0
  9 10  1  0  0  0  0
  9 11  2  0  0  0  0
 10  6  2  0  0  0  0
 11  7  1  0  0  0  0
 12  2  2  0  0  0  0
 13 12  1  0  0  0  0
 13 14  2  0  0  0  0
 14 16  1  0  0  0  0
 15 17  1  0  0  0  0
 15  3  2  0  0  0  0
 16 17  2  0  0  0  0
 17  1  1  0  0  0  0
 18 13  1  0  0  0  0
 19 18  2  0  0  0  0
 20 18  2  0  0  0  0
 22 31  1  0  0  0  0
 23 30  1  0  0  0  0
 24 32  1  6  0  0  0
 24 25  1  0  0  0  0
 25 26  1  0  0  0  0
 26 22  2  0  0  0  0
 28 27  1  6  0  0  0
 28 26  1  0  0  0  0
 28 23  1  0  0  0  0
 29 24  1  0  0  0  0
 29 27  1  0  0  0  0
 30 31  1  0  0  0  0
 30 21  1  1  0  0  0
 33 32  2  0  0  0  0
 34 32  2  0  0  0  0
M  END
>  <MODEL>
3

>  <REMARK>
 VINA RESULT:     -10.7      1.786      6.538
  Name = 
  4 active torsions:
  status: ('A' for Active; 'I' for Inactive)
    1  A    between atoms: N_3  and  C_25
    2  A    between atoms: C_7  and  N_11
    3  A    between atoms: C_8  and  C_18
    4  A    between atoms: C_18  and  C_30
                            x       y       z     vdW  Elec       q    Type
                         _______ _______ _______ _____ _____    ______ ____

>  <TORSDO>
F 4

$$$$
=
 OpenBabel10262423223D

 34 39  0  0  1  0  0  0  0  0999 V2000
  186.9920  178.0500  143.7720 C   0  0  0  0  0  0  0  0  0  0  0  0
  188.0600  177.4250  147.4130 C   0  0  0  0  0  3  0  0  0  0  0  0
  186.0220  178.1090  146.3850 N   0  0  0  0  0  0  0  0  0  0  0  0
  186.4290  178.4220  141.4070 C   0  0  0  0  0  0  0  0  0  0  0  0
  187.3640  178.0600  142.4060 C   0  0  0  0  0  3  0  0  0  0  0  0
  184.7730  178.7570  143.1060 C   0  0  0  0  0  0  0  0  0  0  0  0
  183.3280  179.1150  143.8830 S   0  0  0  0  0  0  0  0  0  0  0  0
  185.1100  178.7780  141.7560 C   0  0  0  0  0  3  0  0  0  0  0  0
  185.2060  178.4360  145.3570 C   0  0  0  0  0  0  0  0  0  0  0  0
  185.6840  178.4070  144.0660 C   0  0  0  0  0  0  0  0  0  0  0  0
  183.8680  178.8190  145.4740 C   0  0  0  0  0  3  0  0  0  0  0  0
  189.3150  177.0430  147.6100 C   0  0  0  0  0  3  0  0  0  0  0  0
  190.3940  176.8130  146.6440 C   0  0  0  0  0  0  0  0  0  0  0  0
  190.2690  176.9630  145.3280 C   0  0  0  0  0  3  0  0  0  0  0  0
  187.3280  177.7450  146.1810 C   0  0  0  0  0  0  0  0  0  0  0  0
  189.1130  177.3680  144.5230 C   0  0  0  0  0  3  0  0  0  0  0  0
  187.8580  177.7060  144.8450 C   0  0  0  0  0  0  0  0  0  0  0  0
  191.6690  176.3990  147.1590 N   0  0  0  0  0  0  0  0  0  0  0  0
  192.3440  175.3790  146.5760 O   0  0  0  0  0  0  0  0  0  0  0  0
  192.2170  177.0180  148.2320 O   0  0  0  0  0  0  0  0  0  0  0  0
  186.8480  178.4450  139.9700 C   0  0  0  0  0  2  0  0  0  0  0  0
  190.5530  177.6560  140.2960 C   0  0  0  0  0  3  0  0  0  0  0  0
  188.5360  177.6920  138.2370 C   0  0  0  0  0  2  0  0  0  0  0  0
  192.2640  175.6230  137.6820 C   0  0  2  0  0  3  0  0  0  0  0  0
  192.2320  176.5070  138.9360 C   0  0  0  0  0  2  0  0  0  0  0  0
  190.8810  177.1310  139.1140 C   0  0  0  0  0  0  0  0  0  0  0  0
  189.6900  175.4920  137.6510 C   0  0  0  0  0  2  0  0  0  0  0  0
  189.8680  176.9710  138.0030 C   0  0  1  0  0  3  0  0  0  0  0  0
  191.0230  174.7170  137.6000 C   0  0  0  0  0  2  0  0  0  0  0  0
  188.1150  177.6310  139.7030 C   0  0  1  0  0  3  0  0  0  0  0  0
  189.2110  178.0680  140.5640 N   0  0  0  0  0  2  0  0  0  0  0  0
  193.4770  174.8230  137.6620 N   0  0  0  0  0  0  0  0  0  0  0  0
  193.4590  173.6870  137.1460 O   0  0  0  0  0  0  0  0  0  0  0  0
  194.6600  175.3340  138.1440 O   0  0  0  0  0  0  0  0  0  0  0  0
  1 10  1  0  0  0  0
  1 17  1  0  0  0  0
  2 12  2  0  0  0  0
  4  8  2  0  0  0  0
  4  5  1  0  0  0  0
  5  1  2  0  0  0  0
  6  7  1  0  0  0  0
  6 10  2  0  0  0  0
  7 11  1  0  0  0  0
  8  6  1  0  0  0  0
  9 11  2  0  0  0  0
  9  3  1  0  0  0  0
 10  9  1  0  0  0  0
 13 18  1  0  0  0  0
 13 12  1  0  0  0  0
 14 13  2  0  0  0  0
 15  3  2  0  0  0  0
 15  2  1  0  0  0  0
 16 17  2  0  0  0  0
 16 14  1  0  0  0  0
 17 15  1  0  0  0  0
 18 20  2  0  0  0  0
 19 18  2  0  0  0  0
 21  4  1  0  0  0  0
 22 31  1  0  0  0  0
 23 30  1  0  0  0  0
 24 32  1  1  0  0  0
 24 25  1  0  0  0  0
 25 26  1  0  0  0  0
 26 22  2  0  0  0  0
 28 27  1  1  0  0  0
 28 23  1  0  0  0  0
 28 26  1  0  0  0  0
 29 27  1  0  0  0  0
 29 24  1  0  0  0  0
 30 21  1  6  0  0  0
 30 31  1  0  0  0  0
 32 34  2  0  0  0  0
 33 32  2  0  0  0  0
M  END
>  <MODEL>
4

>  <REMARK>
 VINA RESULT:     -10.2      4.191      5.850
  Name = 
  4 active torsions:
  status: ('A' for Active; 'I' for Inactive)
    1  A    between atoms: N_3  and  C_25
    2  A    between atoms: C_7  and  N_11
    3  A    between atoms: C_8  and  C_18
    4  A    between atoms: C_18  and  C_30
                            x       y       z     vdW  Elec       q    Type
                         _______ _______ _______ _____ _____    ______ ____

>  <TORSDO>
F 4

$$$$
=
 OpenBabel10262423223D

 34 39  0  0  1  0  0  0  0  0999 V2000
  188.0390  177.9240  143.1850 C   0  0  0  0  0  0  0  0  0  0  0  0
  188.3340  177.0860  146.9260 C   0  0  0  0  0  3  0  0  0  0  0  0
  186.5140  177.6800  145.5060 N   0  0  0  0  0  0  0  0  0  0  0  0
  187.9790  178.4460  140.7820 C   0  0  0  0  0  0  0  0  0  0  0  0
  188.7010  178.0820  141.9440 C   0  0  0  0  0  3  0  0  0  0  0  0
  185.9620  178.4960  142.0770 C   0  0  0  0  0  0  0  0  0  0  0  0
  184.3530  178.6640  142.5250 S   0  0  0  0  0  0  0  0  0  0  0  0
  186.5860  178.6590  140.8430 C   0  0  0  0  0  3  0  0  0  0  0  0
  185.9170  178.0230  144.3420 C   0  0  0  0  0  0  0  0  0  0  0  0
  186.6700  178.1430  143.1950 C   0  0  0  0  0  0  0  0  0  0  0  0
  184.5550  178.2810  144.1750 C   0  0  0  0  0  3  0  0  0  0  0  0
  189.5460  176.7960  147.3800 C   0  0  0  0  0  3  0  0  0  0  0  0
  190.8290  176.7400  146.6730 C   0  0  0  0  0  0  0  0  0  0  0  0
  190.9840  176.9900  145.3750 C   0  0  0  0  0  3  0  0  0  0  0  0
  187.8630  177.4460  145.5820 C   0  0  0  0  0  0  0  0  0  0  0  0
  190.0000  177.3630  144.3550 C   0  0  0  0  0  3  0  0  0  0  0  0
  188.6770  177.5650  144.4040 C   0  0  0  0  0  0  0  0  0  0  0  0
  191.9940  176.3930  147.4380 N   0  0  0  0  0  0  0  0  0  0  0  0
  192.7360  175.3110  147.1010 O   0  0  0  0  0  0  0  0  0  0  0  0
  192.3700  177.1380  148.5050 O   0  0  0  0  0  0  0  0  0  0  0  0
  188.7000  178.6260  139.4840 C   0  0  0  0  0  2  0  0  0  0  0  0
  191.8320  176.5160  139.0400 C   0  0  0  0  0  3  0  0  0  0  0  0
  189.4680  177.1970  137.5380 C   0  0  0  0  0  2  0  0  0  0  0  0
  191.9280  173.8460  136.4410 C   0  0  2  0  0  3  0  0  0  0  0  0
  192.5570  174.7440  137.5150 C   0  0  0  0  0  2  0  0  0  0  0  0
  191.6140  175.8420  137.9090 C   0  0  0  0  0  0  0  0  0  0  0  0
  189.5700  174.6960  137.0400 C   0  0  0  0  0  2  0  0  0  0  0  0
  190.3440  176.0150  137.1080 C   0  0  1  0  0  3  0  0  0  0  0  0
  190.4790  173.4730  136.7960 C   0  0  0  0  0  2  0  0  0  0  0  0
  189.4760  177.3810  139.0530 C   0  0  1  0  0  3  0  0  0  0  0  0
  190.8480  177.4180  139.5510 N   0  0  0  0  0  2  0  0  0  0  0  0
  192.7300  172.6470  136.2570 N   0  0  0  0  0  0  0  0  0  0  0  0
  192.3030  171.7250  135.5330 O   0  0  0  0  0  0  0  0  0  0  0  0
  193.9820  172.5510  136.8180 O   0  0  0  0  0  0  0  0  0  0  0  0
  1 10  1  0  0  0  0
  1 17  1  0  0  0  0
  2 12  2  0  0  0  0
  3 15  2  0  0  0  0
  4  8  2  0  0  0  0
  4  5  1  0  0  0  0
  5  1  2  0  0  0  0
  6  7  1  0  0  0  0
  6 10  2  0  0  0  0
  7 11  1  0  0  0  0
  8  6  1  0  0  0  0
  9  3  1  0  0  0  0
 10  9  1  0  0  0  0
 11  9  2  0  0  0  0
 13 12  1  0  0  0  0
 13 18  1  0  0  0  0
 14 13  2  0  0  0  0
 15  2  1  0  0  0  0
 16 17  2  0  0  0  0
 16 14  1  0  0  0  0
 17 15  1  0  0  0  0
 18 20  2  0  0  0  0
 19 18  2  0  0  0  0
 21  4  1  0  0  0  0
 22 31  1  0  0  0  0
 23 30  1  0  0  0  0
 24 32  1  1  0  0  0
 24 29  1  0  0  0  0
 24 25  1  0  0  0  0
 25 26  1  0  0  0  0
 26 22  2  0  0  0  0
 28 27  1  1  0  0  0
 28 23  1  0  0  0  0
 28 26  1  0  0  0  0
 29 27  1  0  0  0  0
 30 21  1  6  0  0  0
 30 31  1  0  0  0  0
 32 34  2  0  0  0  0
 33 32  2  0  0  0  0
M  END
>  <MODEL>
5

>  <REMARK>
 VINA RESULT:     -10.2      4.411      6.145
  Name = 
  4 active torsions:
  status: ('A' for Active; 'I' for Inactive)
    1  A    between atoms: N_3  and  C_25
    2  A    between atoms: C_7  and  N_11
    3  A    between atoms: C_8  and  C_18
    4  A    between atoms: C_18  and  C_30
                            x       y       z     vdW  Elec       q    Type
                         _______ _______ _______ _____ _____    ______ ____

>  <TORSDO>
F 4

$$$$
=
 OpenBabel10262423223D

 34 39  0  0  1  0  0  0  0  0999 V2000
  184.4990  178.6350  141.9760 C   0  0  0  0  0  0  0  0  0  0  0  0
  185.7250  178.3820  138.3400 C   0  0  0  0  0  3  0  0  0  0  0  0
  183.5770  178.6190  139.3450 N   0  0  0  0  0  0  0  0  0  0  0  0
  183.8370  178.7820  144.3400 C   0  0  0  0  0  0  0  0  0  0  0  0
  184.8400  178.6540  143.3500 C   0  0  0  0  0  3  0  0  0  0  0  0
  182.1740  178.8720  142.6160 C   0  0  0  0  0  0  0  0  0  0  0  0
  180.7000  178.9760  141.8190 S   0  0  0  0  0  0  0  0  0  0  0  0
  182.4790  178.8930  143.9740 C   0  0  0  0  0  3  0  0  0  0  0  0
  182.6970  178.7390  140.3650 C   0  0  0  0  0  0  0  0  0  0  0  0
  183.1520  178.7470  141.6650 C   0  0  0  0  0  0  0  0  0  0  0  0
  181.3130  178.8600  140.2310 C   0  0  0  0  0  3  0  0  0  0  0  0
  187.0320  178.2520  138.1580 C   0  0  0  0  0  3  0  0  0  0  0  0
  188.1190  178.1870  139.1400 C   0  0  0  0  0  0  0  0  0  0  0  0
  187.9470  178.2530  140.4580 C   0  0  0  0  0  3  0  0  0  0  0  0
  184.9250  178.5030  139.5660 C   0  0  0  0  0  0  0  0  0  0  0  0
  186.7220  178.3980  141.2500 C   0  0  0  0  0  3  0  0  0  0  0  0
  185.4310  178.5060  140.9110 C   0  0  0  0  0  0  0  0  0  0  0  0
  189.4580  178.0420  138.6400 N   0  0  0  0  0  0  0  0  0  0  0  0
  190.4660  177.6910  139.4740 O   0  0  0  0  0  0  0  0  0  0  0  0
  189.7350  178.2510  137.3300 O   0  0  0  0  0  0  0  0  0  0  0  0
  184.2170  178.7810  145.7880 C   0  0  0  0  0  2  0  0  0  0  0  0
  187.2120  177.8320  147.9290 C   0  0  0  0  0  3  0  0  0  0  0  0
  186.6970  178.8310  145.2750 C   0  0  0  0  0  2  0  0  0  0  0  0
  190.5020  177.1270  146.3250 C   0  0  2  0  0  3  0  0  0  0  0  0
  189.5800  177.3620  147.5300 C   0  0  0  0  0  2  0  0  0  0  0  0
  188.2450  177.8780  147.0850 C   0  0  0  0  0  0  0  0  0  0  0  0
  188.4820  177.0920  144.7250 C   0  0  0  0  0  2  0  0  0  0  0  0
  188.0720  178.2550  145.6310 C   0  0  1  0  0  3  0  0  0  0  0  0
  189.7710  176.3850  145.1930 C   0  0  0  0  0  2  0  0  0  0  0  0
  185.5790  178.1370  146.0480 C   0  0  1  0  0  3  0  0  0  0  0  0
  185.8870  178.1170  147.4750 N   0  0  0  0  0  2  0  0  0  0  0  0
  191.6850  176.3870  146.7350 N   0  0  0  0  0  0  0  0  0  0  0  0
  192.1700  175.5290  145.9710 O   0  0  0  0  0  0  0  0  0  0  0  0
  192.3120  176.6750  147.9250 O   0  0  0  0  0  0  0  0  0  0  0  0
  1  5  1  0  0  0  0
  2 15  1  0  0  0  0
  3 15  2  0  0  0  0
  3  9  1  0  0  0  0
  4 21  1  0  0  0  0
  5  4  2  0  0  0  0
  6  8  2  0  0  0  0
  7  6  1  0  0  0  0
  8  4  1  0  0  0  0
  9 10  1  0  0  0  0
 10  1  2  0  0  0  0
 10  6  1  0  0  0  0
 11  9  2  0  0  0  0
 11  7  1  0  0  0  0
 12  2  2  0  0  0  0
 12 13  1  0  0  0  0
 13 14  2  0  0  0  0
 14 16  1  0  0  0  0
 15 17  1  0  0  0  0
 17 16  2  0  0  0  0
 17  1  1  0  0  0  0
 18 13  1  0  0  0  0
 18 19  2  0  0  0  0
 20 18  2  0  0  0  0
 23 28  1  0  0  0  0
 23 30  1  0  0  0  0
 24 32  1  1  0  0  0
 24 25  1  0  0  0  0
 26 25  1  0  0  0  0
 26 22  2  0  0  0  0
 27 29  1  0  0  0  0
 28 27  1  6  0  0  0
 28 26  1  0  0  0  0
 29 24  1  0  0  0  0
 30 21  1  1  0  0  0
 30 31  1  0  0  0  0
 31 22  1  0  0  0  0
 32 34  2  0  0  0  0
 33 32  2  0  0  0  0
M  END
>  <MODEL>
6

>  <REMARK>
 VINA RESULT:      -9.9      4.039      7.956
  Name = 
  4 active torsions:
  status: ('A' for Active; 'I' for Inactive)
    1  A    between atoms: N_3  and  C_25
    2  A    between atoms: C_7  and  N_11
    3  A    between atoms: C_8  and  C_18
    4  A    between atoms: C_18  and  C_30
                            x       y       z     vdW  Elec       q    Type
                         _______ _______ _______ _____ _____    ______ ____

>  <TORSDO>
F 4

$$$$
=
 OpenBabel10262423223D

 34 39  0  0  1  0  0  0  0  0999 V2000
  186.3660  178.2450  143.2170 C   0  0  0  0  0  0  0  0  0  0  0  0
  187.6490  177.6160  146.7870 C   0  0  0  0  0  3  0  0  0  0  0  0
  185.5370  178.2450  145.8790 N   0  0  0  0  0  0  0  0  0  0  0  0
  185.6650  178.6250  140.8900 C   0  0  0  0  0  0  0  0  0  0  0  0
  186.6630  178.2830  141.8330 C   0  0  0  0  0  3  0  0  0  0  0  0
  184.0930  178.8870  142.6800 C   0  0  0  0  0  0  0  0  0  0  0  0
  182.6810  179.1890  143.5380 S   0  0  0  0  0  0  0  0  0  0  0  0
  184.3550  178.9340  141.3140 C   0  0  0  0  0  3  0  0  0  0  0  0
  184.6570  178.5550  144.9000 C   0  0  0  0  0  0  0  0  0  0  0  0
  185.0650  178.5560  143.5850 C   0  0  0  0  0  0  0  0  0  0  0  0
  183.3160  178.8930  145.0940 C   0  0  0  0  0  3  0  0  0  0  0  0
  188.9250  177.2730  146.9120 C   0  0  0  0  0  3  0  0  0  0  0  0
  189.9570  177.0890  145.8860 C   0  0  0  0  0  0  0  0  0  0  0  0
  189.7550  177.2500  144.5800 C   0  0  0  0  0  3  0  0  0  0  0  0
  186.8410  177.9260  145.6000 C   0  0  0  0  0  0  0  0  0  0  0  0
  188.5460  177.6250  143.8440 C   0  0  0  0  0  3  0  0  0  0  0  0
  187.2990  177.9180  144.2380 C   0  0  0  0  0  0  0  0  0  0  0  0
  191.2700  176.7110  146.3260 N   0  0  0  0  0  0  0  0  0  0  0  0
  192.0560  175.9310  145.5460 O   0  0  0  0  0  0  0  0  0  0  0  0
  191.7450  177.1280  147.5250 O   0  0  0  0  0  0  0  0  0  0  0  0
  186.0040  178.6770  139.4330 C   0  0  0  0  0  2  0  0  0  0  0  0
  189.7460  178.1970  138.9550 C   0  0  0  0  0  3  0  0  0  0  0  0
  187.2980  177.4900  137.6070 C   0  0  0  0  0  2  0  0  0  0  0  0
  191.0080  175.5200  136.6900 C   0  0  2  0  0  3  0  0  0  0  0  0
  191.1730  176.7530  137.5890 C   0  0  0  0  0  2  0  0  0  0  0  0
  189.8380  177.3400  137.9370 C   0  0  0  0  0  0  0  0  0  0  0  0
  188.5420  175.2720  137.4000 C   0  0  0  0  0  2  0  0  0  0  0  0
  188.6130  176.7930  137.2410 C   0  0  1  0  0  3  0  0  0  0  0  0
  189.9100  174.5800  137.2180 C   0  0  0  0  0  2  0  0  0  0  0  0
  187.2600  177.8780  139.0820 C   0  0  1  0  0  3  0  0  0  0  0  0
  188.4690  178.6120  139.4450 N   0  0  0  0  0  2  0  0  0  0  0  0
  192.2710  174.8090  136.5760 N   0  0  0  0  0  0  0  0  0  0  0  0
  192.7920  174.3090  137.5940 O   0  0  0  0  0  0  0  0  0  0  0  0
  192.8600  174.6240  135.3470 O   0  0  0  0  0  0  0  0  0  0  0  0
  1 10  1  0  0  0  0
  1 17  1  0  0  0  0
  2 12  2  0  0  0  0
  4  8  2  0  0  0  0
  4  5  1  0  0  0  0
  5  1  2  0  0  0  0
  6  7  1  0  0  0  0
  6 10  2  0  0  0  0
  7 11  1  0  0  0  0
  8  6  1  0  0  0  0
  9 11  2  0  0  0  0
  9  3  1  0  0  0  0
 10  9  1  0  0  0  0
 13 18  1  0  0  0  0
 13 12  1  0  0  0  0
 14 13  2  0  0  0  0
 15  3  2  0  0  0  0
 15  2  1  0  0  0  0
 16 17  2  0  0  0  0
 16 14  1  0  0  0  0
 17 15  1  0  0  0  0
 18 20  2  0  0  0  0
 19 18  2  0  0  0  0
 21  4  1  0  0  0  0
 22 31  1  0  0  0  0
 23 30  1  0  0  0  0
 24 32  1  1  0  0  0
 24 29  1  0  0  0  0
 24 25  1  0  0  0  0
 25 26  1  0  0  0  0
 26 22  2  0  0  0  0
 28 27  1  1  0  0  0
 28 23  1  0  0  0  0
 28 26  1  0  0  0  0
 29 27  1  0  0  0  0
 30 21  1  6  0  0  0
 30 31  1  0  0  0  0
 32 33  2  0  0  0  0
 34 32  2  0  0  0  0
M  END
>  <MODEL>
7

>  <REMARK>
 VINA RESULT:      -9.7      3.904      5.614
  Name = 
  4 active torsions:
  status: ('A' for Active; 'I' for Inactive)
    1  A    between atoms: N_3  and  C_25
    2  A    between atoms: C_7  and  N_11
    3  A    between atoms: C_8  and  C_18
    4  A    between atoms: C_18  and  C_30
                            x       y       z     vdW  Elec       q    Type
                         _______ _______ _______ _____ _____    ______ ____

>  <TORSDO>
F 4

$$$$
=
 OpenBabel10262423223D

 34 39  0  0  1  0  0  0  0  0999 V2000
  186.3730  178.3430  141.1150 C   0  0  0  0  0  0  0  0  0  0  0  0
  188.4020  178.0640  137.8610 C   0  0  0  0  0  3  0  0  0  0  0  0
  186.1270  178.5830  138.3480 N   0  0  0  0  0  0  0  0  0  0  0  0
  185.1810  178.4880  143.2620 C   0  0  0  0  0  0  0  0  0  0  0  0
  186.3680  178.2510  142.5280 C   0  0  0  0  0  3  0  0  0  0  0  0
  184.0180  178.9070  141.2080 C   0  0  0  0  0  0  0  0  0  0  0  0
  182.8120  179.2700  140.0980 S   0  0  0  0  0  0  0  0  0  0  0  0
  183.9820  178.8220  142.5970 C   0  0  0  0  0  3  0  0  0  0  0  0
  185.0510  178.7930  139.1400 C   0  0  0  0  0  0  0  0  0  0  0  0
  185.1710  178.6750  140.5070 C   0  0  0  0  0  0  0  0  0  0  0  0
  183.7710  179.1300  138.6950 C   0  0  0  0  0  3  0  0  0  0  0  0
  189.6830  177.7430  137.9810 C   0  0  0  0  0  3  0  0  0  0  0  0
  190.4780  177.4690  139.1830 C   0  0  0  0  0  0  0  0  0  0  0  0
  190.0000  177.5030  140.4240 C   0  0  0  0  0  3  0  0  0  0  0  0
  187.3510  178.2520  138.8700 C   0  0  0  0  0  0  0  0  0  0  0  0
  188.6520  177.8010  140.9160 C   0  0  0  0  0  3  0  0  0  0  0  0
  187.5100  178.1200  140.2920 C   0  0  0  0  0  0  0  0  0  0  0  0
  191.8640  177.1420  139.0010 N   0  0  0  0  0  0  0  0  0  0  0  0
  192.3000  176.6390  137.8210 O   0  0  0  0  0  0  0  0  0  0  0  0
  192.7580  177.3300  140.0020 O   0  0  0  0  0  0  0  0  0  0  0  0
  185.1920  178.3660  144.7540 C   0  0  0  0  0  2  0  0  0  0  0  0
  187.6550  177.3820  147.4780 C   0  0  0  0  0  3  0  0  0  0  0  0
  187.7240  178.4530  144.8040 C   0  0  0  0  0  2  0  0  0  0  0  0
  191.2280  176.7530  146.6240 C   0  0  2  0  0  3  0  0  0  0  0  0
  190.0590  176.9450  147.6010 C   0  0  0  0  0  2  0  0  0  0  0  0
  188.8470  177.4610  146.8850 C   0  0  0  0  0  0  0  0  0  0  0  0
  189.6120  176.7470  144.6160 C   0  0  0  0  0  2  0  0  0  0  0  0
  188.9940  177.8790  145.4400 C   0  0  1  0  0  3  0  0  0  0  0  0
  190.7760  176.0370  145.3390 C   0  0  0  0  0  2  0  0  0  0  0  0
  186.4730  177.7270  145.2920 C   0  0  1  0  0  3  0  0  0  0  0  0
  186.4580  177.6680  146.7510 N   0  0  0  0  0  2  0  0  0  0  0  0
  192.3020  176.0120  147.2650 N   0  0  0  0  0  0  0  0  0  0  0  0
  192.8050  175.0290  146.6850 O   0  0  0  0  0  0  0  0  0  0  0  0
  192.8130  176.4270  148.4730 O   0  0  0  0  0  0  0  0  0  0  0  0
  1  5  1  0  0  0  0
  2 12  2  0  0  0  0
  2 15  1  0  0  0  0
  3 15  2  0  0  0  0
  3  9  1  0  0  0  0
  4 21  1  0  0  0  0
  5  4  2  0  0  0  0
  6  8  2  0  0  0  0
  7  6  1  0  0  0  0
  8  4  1  0  0  0  0
  9 10  1  0  0  0  0
 10  1  2  0  0  0  0
 10  6  1  0  0  0  0
 11  9  2  0  0  0  0
 11  7  1  0  0  0  0
 12 13  1  0  0  0  0
 13 14  2  0  0  0  0
 14 16  1  0  0  0  0
 15 17  1  0  0  0  0
 17 16  2  0  0  0  0
 17  1  1  0  0  0  0
 18 13  1  0  0  0  0
 18 20  2  0  0  0  0
 19 18  2  0  0  0  0
 23 30  1  0  0  0  0
 23 28  1  0  0  0  0
 24 32  1  1  0  0  0
 24 25  1  0  0  0  0
 26 22  2  0  0  0  0
 26 25  1  0  0  0  0
 27 29  1  0  0  0  0
 28 27  1  6  0  0  0
 28 26  1  0  0  0  0
 29 24  1  0  0  0  0
 30 21  1  1  0  0  0
 30 31  1  0  0  0  0
 31 22  1  0  0  0  0
 32 34  2  0  0  0  0
 33 32  2  0  0  0  0
M  END
>  <MODEL>
8

>  <REMARK>
 VINA RESULT:      -9.5      4.335      8.416
  Name = 
  4 active torsions:
  status: ('A' for Active; 'I' for Inactive)
    1  A    between atoms: N_3  and  C_25
    2  A    between atoms: C_7  and  N_11
    3  A    between atoms: C_8  and  C_18
    4  A    between atoms: C_18  and  C_30
                            x       y       z     vdW  Elec       q    Type
                         _______ _______ _______ _____ _____    ______ ____

>  <TORSDO>
F 4

$$$$
=
 OpenBabel10262423223D

 34 39  0  0  1  0  0  0  0  0999 V2000
  187.4770  177.9890  139.2800 C   0  0  0  0  0  0  0  0  0  0  0  0
  183.7340  178.7530  138.8470 C   0  0  0  0  0  3  0  0  0  0  0  0
  185.5310  178.3890  137.3240 N   0  0  0  0  0  0  0  0  0  0  0  0
  189.8550  177.5080  139.6860 C   0  0  0  0  0  0  0  0  0  0  0  0
  188.5530  177.7700  140.1740 C   0  0  0  0  0  3  0  0  0  0  0  0
  189.0260  177.6770  137.4430 C   0  0  0  0  0  0  0  0  0  0  0  0
  188.9410  177.6980  135.7660 S   0  0  0  0  0  0  0  0  0  0  0  0
  190.1030  177.4590  138.2980 C   0  0  0  0  0  3  0  0  0  0  0  0
  186.8080  178.1280  136.9600 C   0  0  0  0  0  0  0  0  0  0  0  0
  187.7690  177.9310  137.9260 C   0  0  0  0  0  0  0  0  0  0  0  0
  187.2730  178.0370  135.6470 C   0  0  0  0  0  3  0  0  0  0  0  0
  183.0210  178.8990  139.9560 C   0  0  0  0  0  3  0  0  0  0  0  0
  183.4350  178.8160  141.3600 C   0  0  0  0  0  0  0  0  0  0  0  0
  184.6770  178.5620  141.7640 C   0  0  0  0  0  3  0  0  0  0  0  0
  185.1590  178.4630  138.6420 C   0  0  0  0  0  0  0  0  0  0  0  0
  185.8960  178.3120  140.9900 C   0  0  0  0  0  3  0  0  0  0  0  0
  186.1390  178.2630  139.6740 C   0  0  0  0  0  0  0  0  0  0  0  0
  182.4270  179.0230  142.3620 N   0  0  0  0  0  0  0  0  0  0  0  0
  181.1430  179.2640  142.0030 O   0  0  0  0  0  0  0  0  0  0  0  0
  182.7400  178.9800  143.6790 O   0  0  0  0  0  0  0  0  0  0  0  0
  190.9820  177.2980  140.6470 C   0  0  0  0  0  2  0  0  0  0  0  0
  191.6560  177.7620  144.3610 C   0  0  0  0  0  3  0  0  0  0  0  0
  189.7390  176.4240  142.6750 C   0  0  0  0  0  2  0  0  0  0  0  0
  188.9460  177.1310  146.8400 C   0  0  2  0  0  3  0  0  0  0  0  0
  190.3950  177.4300  146.4310 C   0  0  0  0  0  2  0  0  0  0  0  0
  190.5800  177.2430  144.9550 C   0  0  0  0  0  0  0  0  0  0  0  0
  188.1490  177.4160  144.4060 C   0  0  0  0  0  2  0  0  0  0  0  0
  189.4440  176.6380  144.1630 C   0  0  1  0  0  3  0  0  0  0  0  0
  187.9420  177.8010  145.8860 C   0  0  0  0  0  2  0  0  0  0  0  0
  190.5840  177.5580  142.1010 C   0  0  1  0  0  3  0  0  0  0  0  0
  191.7610  177.7850  142.9350 N   0  0  0  0  0  2  0  0  0  0  0  0
  188.7120  177.5640  148.2080 N   0  0  0  0  0  0  0  0  0  0  0  0
  189.5420  178.3050  148.7720 O   0  0  0  0  0  0  0  0  0  0  0  0
  187.5500  177.2210  148.8610 O   0  0  0  0  0  0  0  0  0  0  0  0
  1 17  1  0  0  0  0
  1  5  1  0  0  0  0
  2 12  2  0  0  0  0
  3 15  2  0  0  0  0
  4  5  2  0  0  0  0
  4 21  1  0  0  0  0
  6 10  1  0  0  0  0
  6  8  2  0  0  0  0
  7  6  1  0  0  0  0
  8  4  1  0  0  0  0
  9  3  1  0  0  0  0
  9 10  1  0  0  0  0
 10  1  2  0  0  0  0
 11  7  1  0  0  0  0
 11  9  2  0  0  0  0
 12 13  1  0  0  0  0
 13 14  2  0  0  0  0
 13 18  1  0  0  0  0
 15  2  1  0  0  0  0
 15 17  1  0  0  0  0
 16 14  1  0  0  0  0
 17 16  2  0  0  0  0
 18 20  2  0  0  0  0
 19 18  2  0  0  0  0
 22 26  2  0  0  0  0
 24 32  1  1  0  0  0
 25 24  1  0  0  0  0
 26 25  1  0  0  0  0
 27 29  1  0  0  0  0
 28 23  1  6  0  0  0
 28 27  1  0  0  0  0
 28 26  1  0  0  0  0
 29 24  1  0  0  0  0
 30 21  1  6  0  0  0
 30 23  1  0  0  0  0
 30 31  1  0  0  0  0
 31 22  1  0  0  0  0
 32 33  2  0  0  0  0
 32 34  2  0  0  0  0
M  END
>  <MODEL>
9

>  <REMARK>
 VINA RESULT:      -9.3      3.683      7.303
  Name = 
  4 active torsions:
  status: ('A' for Active; 'I' for Inactive)
    1  A    between atoms: N_3  and  C_25
    2  A    between atoms: C_7  and  N_11
    3  A    between atoms: C_8  and  C_18
    4  A    between atoms: C_18  and  C_30
                            x       y       z     vdW  Elec       q    Type
                         _______ _______ _______ _____ _____    ______ ____

>  <TORSDO>
F 4

$$$$
