=
 OpenBabel10262422033D

 30 30  0  0  1  0  0  0  0  0999 V2000
  187.2190  177.9950  145.3200 C   0  0  2  0  0  3  0  0  0  0  0  0
  186.6650  177.8940  146.7150 C   0  0  0  0  0  0  0  0  0  0  0  0
  185.0940  178.2870  147.0220 S   0  0  0  0  0  0  0  0  0  0  0  0
  187.5090  177.3810  147.7510 N   0  0  0  0  0  2  0  0  0  0  0  0
  188.0500  178.1990  148.8240 C   0  0  0  0  0  2  0  0  0  0  0  0
  189.4130  178.4030  148.6120 O   0  0  0  0  0  1  0  0  0  0  0  0
  187.0220  176.2570  143.4820 C   0  0  0  0  0  1  0  0  0  0  0  0
  186.2970  177.3420  144.2770 C   0  0  2  0  0  3  0  0  0  0  0  0
  185.6090  178.3650  143.3520 C   0  0  1  0  0  3  0  0  0  0  0  0
  185.0290  179.5580  144.1020 C   0  0  0  0  0  2  0  0  0  0  0  0
  183.5150  179.4750  144.1250 C   0  0  0  0  0  1  0  0  0  0  0  0
  186.5660  178.8530  142.2760 C   0  0  0  0  0  2  0  0  0  0  0  0
  185.8630  179.5720  141.3080 O   0  0  0  0  0  0  0  0  0  0  0  0
  184.9710  178.6480  140.7590 C   0  0  0  0  0  2  0  0  0  0  0  0
  184.3430  180.2730  139.1180 O   0  0  0  0  0  1  0  0  0  0  0  0
  184.7420  178.9460  139.2840 C   0  0  0  0  0  3  0  0  0  0  0  0
  185.9110  178.7110  138.5590 O   0  0  0  0  0  1  0  0  0  0  0  0
  188.6100  177.3670  145.2790 C   0  0  0  0  0  2  0  0  0  0  0  0
  189.6840  178.4110  144.9960 C   0  0  0  0  0  2  0  0  0  0  0  0
  190.9500  177.7820  144.4130 C   0  0  2  0  0  0  0  0  0  0  0  0
  191.9800  176.7730  142.3460 O   0  0  0  0  0  1  0  0  0  0  0  0
  191.7850  178.7980  143.6470 C   0  0  0  0  0  2  0  0  0  0  0  0
  191.0760  177.6840  142.9020 C   0  0  2  0  0  0  0  0  0  0  0  0
  191.8100  176.8430  145.2550 C   0  0  0  0  0  2  0  0  0  0  0  0
  191.7600  177.2190  146.5990 O   0  0  0  0  0  0  0  0  0  0  0  0
  192.7280  175.6990  148.1480 C   0  0  0  0  0  1  0  0  0  0  0  0
  191.5260  176.0290  147.2870 C   0  0  0  0  0  2  0  0  0  0  0  0
  190.0550  178.1760  142.0770 O   0  0  0  0  0  0  0  0  0  0  0  0
  189.7080  177.1270  141.2200 C   0  0  0  0  0  2  0  0  0  0  0  0
  189.7800  177.7040  139.5010 S   0  0  0  0  0  1  0  0  0  0  0  0
  1 18  1  1  0  0  0
  1  2  1  0  0  0  0
  2  3  2  0  0  0  0
  2  4  1  0  0  0  0
  4  5  1  0  0  0  0
  6  5  1  0  0  0  0
  8  7  1  6  0  0  0
  8  1  1  0  0  0  0
  9 12  1  6  0  0  0
  9 10  1  0  0  0  0
  9  8  1  0  0  0  0
 10 11  1  0  0  0  0
 13 12  1  0  0  0  0
 14 13  1  0  0  0  0
 15 16  1  0  0  0  0
 16 14  1  0  0  0  0
 17 16  1  0  0  0  0
 19 18  1  0  0  0  0
 20 19  1  1  0  0  0
 20 24  1  0  0  0  0
 22 20  1  0  0  0  0
 23 21  1  6  0  0  0
 23 22  1  0  0  0  0
 23 20  1  0  0  0  0
 24 25  1  0  0  0  0
 25 27  1  0  0  0  0
 27 26  1  0  0  0  0
 28 23  1  0  0  0  0
 29 28  1  0  0  0  0
 30 29  1  0  0  0  0
M  END
>  <MODEL>
1

>  <REMARK>
 VINA RESULT:      -6.3      0.000      0.000
  Name = 
  18 active torsions:
  status: ('A' for Active; 'I' for Inactive)
    1  A    between atoms: C_1  and  C_4
    2  A    between atoms: C_1  and  C_22
    3  A    between atoms: C_2  and  N_14
    4  A    between atoms: C_2  and  C_29
    5  A    between atoms: C_3  and  C_11
    6  A    between atoms: C_4  and  C_5
    7  A    between atoms: C_5  and  O_21
    8  A    between atoms: C_11  and  C_23
    9  A    between atoms: C_11  and  C_24
   10  A    between atoms: C_12  and  O_27
   11  A    between atoms: C_13  and  O_27
   12  A    between atoms: N_14  and  C_20
   13  A    between atoms: O_15  and  C_24
   14  A    between atoms: O_15  and  C_25
   15  A    between atoms: C_16  and  C_25
   16  A    between atoms: C_17  and  O_21
   17  A    between atoms: C_22  and  C_29
   18  A    between atoms: C_23  and  C_29
                            x       y       z     vdW  Elec       q    Type
                         _______ _______ _______ _____ _____    ______ ____

>  <TORSDO>
F 18

$$$$
=
 OpenBabel10262422033D

 30 30  0  0  1  0  0  0  0  0999 V2000
  187.2870  178.1030  145.2800 C   0  0  2  0  0  3  0  0  0  0  0  0
  186.7120  177.9600  146.6620 C   0  0  0  0  0  0  0  0  0  0  0  0
  185.1520  178.3930  146.9680 S   0  0  0  0  0  0  0  0  0  0  0  0
  187.5240  177.3720  147.6830 N   0  0  0  0  0  2  0  0  0  0  0  0
  188.1000  178.1260  148.7850 C   0  0  0  0  0  2  0  0  0  0  0  0
  189.4730  178.2630  148.5880 O   0  0  0  0  0  1  0  0  0  0  0  0
  187.0060  176.7430  143.1570 C   0  0  0  0  0  1  0  0  0  0  0  0
  186.3120  177.6280  144.1890 C   0  0  2  0  0  3  0  0  0  0  0  0
  185.5390  178.7850  143.5240 C   0  0  1  0  0  3  0  0  0  0  0  0
  186.0970  179.1740  142.1610 C   0  0  0  0  0  2  0  0  0  0  0  0
  185.0240  179.0360  141.0990 C   0  0  0  0  0  1  0  0  0  0  0  0
  184.0620  178.4480  143.3960 C   0  0  0  0  0  2  0  0  0  0  0  0
  183.3080  179.3140  144.1910 O   0  0  0  0  0  0  0  0  0  0  0  0
  181.9940  178.8590  144.0620 C   0  0  0  0  0  2  0  0  0  0  0  0
  180.7950  178.2180  142.0920 O   0  0  0  0  0  1  0  0  0  0  0  0
  181.4110  179.2980  142.7270 C   0  0  0  0  0  3  0  0  0  0  0  0
  180.4820  180.3220  142.9210 O   0  0  0  0  0  1  0  0  0  0  0  0
  188.6040  177.3370  145.1950 C   0  0  0  0  0  2  0  0  0  0  0  0
  189.7870  178.2800  145.0110 C   0  0  0  0  0  2  0  0  0  0  0  0
  190.9660  177.5900  144.3240 C   0  0  2  0  0  0  0  0  0  0  0  0
  191.7840  176.5890  142.1600 O   0  0  0  0  0  1  0  0  0  0  0  0
  191.8160  178.5740  143.5340 C   0  0  0  0  0  2  0  0  0  0  0  0
  190.9840  177.5380  142.8050 C   0  0  2  0  0  0  0  0  0  0  0  0
  191.8120  176.5660  145.0750 C   0  0  0  0  0  2  0  0  0  0  0  0
  191.8640  176.8870  146.4320 O   0  0  0  0  0  0  0  0  0  0  0  0
  192.7300  175.9500  148.4380 C   0  0  0  0  0  1  0  0  0  0  0  0
  192.1450  175.6780  147.0680 C   0  0  0  0  0  2  0  0  0  0  0  0
  189.9470  178.1270  142.0670 O   0  0  0  0  0  0  0  0  0  0  0  0
  190.1060  177.6820  140.7510 C   0  0  0  0  0  2  0  0  0  0  0  0
  188.5500  177.9140  139.8450 S   0  0  0  0  0  1  0  0  0  0  0  0
  1 18  1  1  0  0  0
  1  2  1  0  0  0  0
  2  3  2  0  0  0  0
  2  4  1  0  0  0  0
  4  5  1  0  0  0  0
  6  5  1  0  0  0  0
  8  7  1  6  0  0  0
  8  1  1  0  0  0  0
  9 10  1  6  0  0  0
  9  8  1  0  0  0  0
 11 10  1  0  0  0  0
 12  9  1  0  0  0  0
 12 13  1  0  0  0  0
 14 13  1  0  0  0  0
 15 16  1  0  0  0  0
 16 17  1  0  0  0  0
 16 14  1  0  0  0  0
 19 18  1  0  0  0  0
 20 19  1  1  0  0  0
 20 24  1  0  0  0  0
 22 20  1  0  0  0  0
 23 21  1  6  0  0  0
 23 22  1  0  0  0  0
 23 20  1  0  0  0  0
 24 25  1  0  0  0  0
 25 27  1  0  0  0  0
 27 26  1  0  0  0  0
 28 23  1  0  0  0  0
 29 28  1  0  0  0  0
 30 29  1  0  0  0  0
M  END
>  <MODEL>
2

>  <REMARK>
 VINA RESULT:      -6.2      1.692      2.333
  Name = 
  18 active torsions:
  status: ('A' for Active; 'I' for Inactive)
    1  A    between atoms: C_1  and  C_4
    2  A    between atoms: C_1  and  C_22
    3  A    between atoms: C_2  and  N_14
    4  A    between atoms: C_2  and  C_29
    5  A    between atoms: C_3  and  C_11
    6  A    between atoms: C_4  and  C_5
    7  A    between atoms: C_5  and  O_21
    8  A    between atoms: C_11  and  C_23
    9  A    between atoms: C_11  and  C_24
   10  A    between atoms: C_12  and  O_27
   11  A    between atoms: C_13  and  O_27
   12  A    between atoms: N_14  and  C_20
   13  A    between atoms: O_15  and  C_24
   14  A    between atoms: O_15  and  C_25
   15  A    between atoms: C_16  and  C_25
   16  A    between atoms: C_17  and  O_21
   17  A    between atoms: C_22  and  C_29
   18  A    between atoms: C_23  and  C_29
                            x       y       z     vdW  Elec       q    Type
                         _______ _______ _______ _____ _____    ______ ____

>  <TORSDO>
F 18

$$$$
=
 OpenBabel10262422033D

 30 30  0  0  1  0  0  0  0  0999 V2000
  188.4120  177.3920  142.5350 C   0  0  2  0  0  3  0  0  0  0  0  0
  189.7810  177.3530  143.1570 C   0  0  0  0  0  0  0  0  0  0  0  0
  190.4640  178.7240  143.7650 S   0  0  0  0  0  0  0  0  0  0  0  0
  190.4440  176.0900  143.2730 N   0  0  0  0  0  2  0  0  0  0  0  0
  191.7910  175.9350  143.7960 C   0  0  0  0  0  2  0  0  0  0  0  0
  192.0190  174.5950  144.1070 O   0  0  0  0  0  1  0  0  0  0  0  0
  187.0170  178.7140  140.8780 C   0  0  0  0  0  1  0  0  0  0  0  0
  188.4000  178.1480  141.1950 C   0  0  2  0  0  3  0  0  0  0  0  0
  188.9590  177.3140  140.0260 C   0  0  1  0  0  3  0  0  0  0  0  0
  188.1160  177.4120  138.7610 C   0  0  0  0  0  2  0  0  0  0  0  0
  188.7740  178.3480  137.7650 C   0  0  0  0  0  1  0  0  0  0  0  0
  190.3950  177.7080  139.7160 C   0  0  0  0  0  2  0  0  0  0  0  0
  191.2410  176.6180  139.9300 O   0  0  0  0  0  0  0  0  0  0  0  0
  191.7310  176.2960  138.6610 C   0  0  0  0  0  2  0  0  0  0  0  0
  193.6820  177.1570  139.7460 O   0  0  0  0  0  1  0  0  0  0  0  0
  193.1600  176.7930  138.5040 C   0  0  0  0  0  3  0  0  0  0  0  0
  193.9550  175.7990  137.9310 O   0  0  0  0  0  1  0  0  0  0  0  0
  187.4260  178.0200  143.5160 C   0  0  0  0  0  2  0  0  0  0  0  0
  187.0400  177.0420  144.6200 C   0  0  0  0  0  2  0  0  0  0  0  0
  186.8160  177.7510  145.9570 C   0  0  2  0  0  0  0  0  0  0  0  0
  185.8350  179.7930  147.0610 O   0  0  0  0  0  1  0  0  0  0  0  0
  185.4290  177.4750  146.5170 C   0  0  0  0  0  2  0  0  0  0  0  0
  185.7820  178.8630  146.0180 C   0  0  2  0  0  0  0  0  0  0  0  0
  187.8930  177.7280  147.0380 C   0  0  0  0  0  2  0  0  0  0  0  0
  188.9710  176.9420  146.6280 O   0  0  0  0  0  0  0  0  0  0  0  0
  191.1780  176.3430  147.2750 C   0  0  0  0  0  1  0  0  0  0  0  0
  189.9910  177.2490  147.5270 C   0  0  0  0  0  2  0  0  0  0  0  0
  185.0490  179.2070  144.8730 O   0  0  0  0  0  0  0  0  0  0  0  0
  183.7100  178.9430  145.1750 C   0  0  0  0  0  2  0  0  0  0  0  0
  182.7260  179.0030  143.6520 S   0  0  0  0  0  1  0  0  0  0  0  0
  1  2  1  0  0  0  0
  1 18  1  1  0  0  0
  2  4  1  0  0  0  0
  2  3  2  0  0  0  0
  4  5  1  0  0  0  0
  5  6  1  0  0  0  0
  8  7  1  6  0  0  0
  8  1  1  0  0  0  0
  9 10  1  6  0  0  0
  9  8  1  0  0  0  0
 11 10  1  0  0  0  0
 12 13  1  0  0  0  0
 12  9  1  0  0  0  0
 14 13  1  0  0  0  0
 16 14  1  0  0  0  0
 16 15  1  0  0  0  0
 17 16  1  0  0  0  0
 18 19  1  0  0  0  0
 20 19  1  6  0  0  0
 20 23  1  0  0  0  0
 20 22  1  0  0  0  0
 20 24  1  0  0  0  0
 23 22  1  0  0  0  0
 23 21  1  1  0  0  0
 25 24  1  0  0  0  0
 25 27  1  0  0  0  0
 26 27  1  0  0  0  0
 28 29  1  0  0  0  0
 28 23  1  0  0  0  0
 30 29  1  0  0  0  0
M  END
>  <MODEL>
3

>  <REMARK>
 VINA RESULT:      -5.9      2.826      6.055
  Name = 
  18 active torsions:
  status: ('A' for Active; 'I' for Inactive)
    1  A    between atoms: C_1  and  C_4
    2  A    between atoms: C_1  and  C_22
    3  A    between atoms: C_2  and  N_14
    4  A    between atoms: C_2  and  C_29
    5  A    between atoms: C_3  and  C_11
    6  A    between atoms: C_4  and  C_5
    7  A    between atoms: C_5  and  O_21
    8  A    between atoms: C_11  and  C_23
    9  A    between atoms: C_11  and  C_24
   10  A    between atoms: C_12  and  O_27
   11  A    between atoms: C_13  and  O_27
   12  A    between atoms: N_14  and  C_20
   13  A    between atoms: O_15  and  C_24
   14  A    between atoms: O_15  and  C_25
   15  A    between atoms: C_16  and  C_25
   16  A    between atoms: C_17  and  O_21
   17  A    between atoms: C_22  and  C_29
   18  A    between atoms: C_23  and  C_29
                            x       y       z     vdW  Elec       q    Type
                         _______ _______ _______ _____ _____    ______ ____

>  <TORSDO>
F 18

$$$$
=
 OpenBabel10262422033D

 30 30  0  0  1  0  0  0  0  0999 V2000
  188.5800  177.1990  142.5500 C   0  0  2  0  0  3  0  0  0  0  0  0
  190.0060  177.1690  143.0280 C   0  0  0  0  0  0  0  0  0  0  0  0
  190.7940  178.5680  143.3980 S   0  0  0  0  0  0  0  0  0  0  0  0
  190.6350  175.8980  143.2220 N   0  0  0  0  0  2  0  0  0  0  0  0
  191.8810  175.7220  143.9520 C   0  0  0  0  0  2  0  0  0  0  0  0
  192.0950  174.3650  144.1860 O   0  0  0  0  0  1  0  0  0  0  0  0
  187.0060  178.7600  141.3160 C   0  0  0  0  0  1  0  0  0  0  0  0
  188.3920  178.1170  141.3300 C   0  0  2  0  0  3  0  0  0  0  0  0
  188.7120  177.4190  139.9940 C   0  0  1  0  0  3  0  0  0  0  0  0
  187.9770  178.0270  138.8060 C   0  0  0  0  0  2  0  0  0  0  0  0
  188.9390  178.8260  137.9490 C   0  0  0  0  0  1  0  0  0  0  0  0
  190.2090  177.4210  139.7260 C   0  0  0  0  0  2  0  0  0  0  0  0
  190.6510  176.1180  139.4930 O   0  0  0  0  0  0  0  0  0  0  0  0
  191.4530  176.2140  138.3530 C   0  0  0  0  0  2  0  0  0  0  0  0
  191.1880  173.9350  137.6710 O   0  0  0  0  0  1  0  0  0  0  0  0
  190.9620  175.2560  137.2780 C   0  0  0  0  0  3  0  0  0  0  0  0
  189.5990  175.4510  137.0460 O   0  0  0  0  0  1  0  0  0  0  0  0
  187.6690  177.6320  143.6960 C   0  0  0  0  0  2  0  0  0  0  0  0
  187.9500  176.8340  144.9640 C   0  0  0  0  0  2  0  0  0  0  0  0
  187.7800  177.6860  146.2220 C   0  0  2  0  0  0  0  0  0  0  0  0
  188.2300  177.8040  148.7000 O   0  0  0  0  0  1  0  0  0  0  0  0
  189.0300  178.4970  146.5290 C   0  0  0  0  0  2  0  0  0  0  0  0
  188.6290  177.3520  147.4380 C   0  0  2  0  0  0  0  0  0  0  0  0
  186.5000  178.4840  146.4540 C   0  0  0  0  0  2  0  0  0  0  0  0
  185.3850  177.7160  146.1110 O   0  0  0  0  0  0  0  0  0  0  0  0
  184.2300  178.7650  144.3190 C   0  0  0  0  0  1  0  0  0  0  0  0
  184.3920  178.6510  145.8200 C   0  0  0  0  0  2  0  0  0  0  0  0
  189.5510  176.2970  147.3850 O   0  0  0  0  0  0  0  0  0  0  0  0
  190.8170  176.8880  147.3480 C   0  0  0  0  0  2  0  0  0  0  0  0
  192.0840  175.6180  147.6240 S   0  0  0  0  0  1  0  0  0  0  0  0
  1  2  1  0  0  0  0
  1 18  1  1  0  0  0
  2  4  1  0  0  0  0
  2  3  2  0  0  0  0
  4  5  1  0  0  0  0
  5  6  1  0  0  0  0
  8  7  1  6  0  0  0
  8  1  1  0  0  0  0
  9 10  1  6  0  0  0
  9  8  1  0  0  0  0
 11 10  1  0  0  0  0
 12  9  1  0  0  0  0
 13 12  1  0  0  0  0
 14 13  1  0  0  0  0
 16 15  1  0  0  0  0
 16 14  1  0  0  0  0
 17 16  1  0  0  0  0
 18 19  1  0  0  0  0
 20 19  1  6  0  0  0
 20 24  1  0  0  0  0
 20 22  1  0  0  0  0
 20 23  1  0  0  0  0
 22 23  1  0  0  0  0
 23 21  1  1  0  0  0
 25 24  1  0  0  0  0
 26 27  1  0  0  0  0
 27 25  1  0  0  0  0
 28 23  1  0  0  0  0
 29 28  1  0  0  0  0
 29 30  1  0  0  0  0
M  END
>  <MODEL>
4

>  <REMARK>
 VINA RESULT:      -5.9      3.178      6.156
  Name = 
  18 active torsions:
  status: ('A' for Active; 'I' for Inactive)
    1  A    between atoms: C_1  and  C_4
    2  A    between atoms: C_1  and  C_22
    3  A    between atoms: C_2  and  N_14
    4  A    between atoms: C_2  and  C_29
    5  A    between atoms: C_3  and  C_11
    6  A    between atoms: C_4  and  C_5
    7  A    between atoms: C_5  and  O_21
    8  A    between atoms: C_11  and  C_23
    9  A    between atoms: C_11  and  C_24
   10  A    between atoms: C_12  and  O_27
   11  A    between atoms: C_13  and  O_27
   12  A    between atoms: N_14  and  C_20
   13  A    between atoms: O_15  and  C_24
   14  A    between atoms: O_15  and  C_25
   15  A    between atoms: C_16  and  C_25
   16  A    between atoms: C_17  and  O_21
   17  A    between atoms: C_22  and  C_29
   18  A    between atoms: C_23  and  C_29
                            x       y       z     vdW  Elec       q    Type
                         _______ _______ _______ _____ _____    ______ ____

>  <TORSDO>
F 18

$$$$
=
 OpenBabel10262422033D

 30 30  0  0  1  0  0  0  0  0999 V2000
  188.6520  178.1870  142.2590 C   0  0  2  0  0  3  0  0  0  0  0  0
  187.6610  178.4050  141.1490 C   0  0  0  0  0  0  0  0  0  0  0  0
  188.0320  177.9850  139.6000 S   0  0  0  0  0  0  0  0  0  0  0  0
  186.3650  178.9160  141.4810 N   0  0  0  0  0  2  0  0  0  0  0  0
  185.1770  178.6690  140.6800 C   0  0  0  0  0  2  0  0  0  0  0  0
  184.8430  179.8250  139.9750 O   0  0  0  0  0  1  0  0  0  0  0  0
  189.6940  175.9040  142.6300 C   0  0  0  0  0  1  0  0  0  0  0  0
  189.7770  177.2180  141.8550 C   0  0  2  0  0  3  0  0  0  0  0  0
  191.1800  177.8480  141.9470 C   0  0  1  0  0  3  0  0  0  0  0  0
  191.8690  177.5910  143.2810 C   0  0  0  0  0  2  0  0  0  0  0  0
  191.8060  178.8310  144.1500 C   0  0  0  0  0  1  0  0  0  0  0  0
  192.0670  177.3640  140.8100 C   0  0  0  0  0  2  0  0  0  0  0  0
  191.2770  176.9360  139.7420 O   0  0  0  0  0  0  0  0  0  0  0  0
  192.1830  176.6980  138.7050 C   0  0  0  0  0  2  0  0  0  0  0  0
  192.4840  175.4970  136.6570 O   0  0  0  0  0  1  0  0  0  0  0  0
  191.5410  175.8330  137.6310 C   0  0  0  0  0  3  0  0  0  0  0  0
  191.0170  174.6700  138.1990 O   0  0  0  0  0  1  0  0  0  0  0  0
  187.9240  177.6800  143.5010 C   0  0  0  0  0  2  0  0  0  0  0  0
  188.3600  178.4360  144.7510 C   0  0  0  0  0  2  0  0  0  0  0  0
  187.8520  177.7650  146.0280 C   0  0  2  0  0  0  0  0  0  0  0  0
  188.3340  175.9840  147.7460 O   0  0  0  0  0  1  0  0  0  0  0  0
  188.5100  178.3460  147.2710 C   0  0  0  0  0  2  0  0  0  0  0  0
  188.8280  176.9280  146.8390 C   0  0  2  0  0  0  0  0  0  0  0  0
  186.3620  177.5040  146.2290 C   0  0  0  0  0  2  0  0  0  0  0  0
  185.7200  178.6740  146.6400 O   0  0  0  0  0  0  0  0  0  0  0  0
  184.5230  178.7880  144.5890 C   0  0  0  0  0  1  0  0  0  0  0  0
  184.4420  178.5840  146.0880 C   0  0  0  0  0  2  0  0  0  0  0  0
  190.1600  176.7960  146.4210 O   0  0  0  0  0  0  0  0  0  0  0  0
  190.9420  176.9130  147.5730 C   0  0  0  0  0  2  0  0  0  0  0  0
  192.3130  175.7270  147.4940 S   0  0  0  0  0  1  0  0  0  0  0  0
  1 18  1  1  0  0  0
  2  4  1  0  0  0  0
  2  1  1  0  0  0  0
  3  2  2  0  0  0  0
  5  4  1  0  0  0  0
  6  5  1  0  0  0  0
  8  9  1  0  0  0  0
  8  1  1  0  0  0  0
  8  7  1  1  0  0  0
  9 12  1  6  0  0  0
  9 10  1  0  0  0  0
 10 11  1  0  0  0  0
 13 12  1  0  0  0  0
 14 13  1  0  0  0  0
 15 16  1  0  0  0  0
 16 17  1  0  0  0  0
 16 14  1  0  0  0  0
 18 19  1  0  0  0  0
 20 19  1  6  0  0  0
 20 24  1  0  0  0  0
 20 23  1  0  0  0  0
 20 22  1  0  0  0  0
 23 22  1  0  0  0  0
 23 21  1  1  0  0  0
 24 25  1  0  0  0  0
 26 27  1  0  0  0  0
 27 25  1  0  0  0  0
 28 23  1  0  0  0  0
 28 29  1  0  0  0  0
 30 29  1  0  0  0  0
M  END
>  <MODEL>
5

>  <REMARK>
 VINA RESULT:      -5.9      2.972      6.564
  Name = 
  18 active torsions:
  status: ('A' for Active; 'I' for Inactive)
    1  A    between atoms: C_1  and  C_4
    2  A    between atoms: C_1  and  C_22
    3  A    between atoms: C_2  and  N_14
    4  A    between atoms: C_2  and  C_29
    5  A    between atoms: C_3  and  C_11
    6  A    between atoms: C_4  and  C_5
    7  A    between atoms: C_5  and  O_21
    8  A    between atoms: C_11  and  C_23
    9  A    between atoms: C_11  and  C_24
   10  A    between atoms: C_12  and  O_27
   11  A    between atoms: C_13  and  O_27
   12  A    between atoms: N_14  and  C_20
   13  A    between atoms: O_15  and  C_24
   14  A    between atoms: O_15  and  C_25
   15  A    between atoms: C_16  and  C_25
   16  A    between atoms: C_17  and  O_21
   17  A    between atoms: C_22  and  C_29
   18  A    between atoms: C_23  and  C_29
                            x       y       z     vdW  Elec       q    Type
                         _______ _______ _______ _____ _____    ______ ____

>  <TORSDO>
F 18

$$$$
=
 OpenBabel10262422033D

 30 30  0  0  1  0  0  0  0  0999 V2000
  189.3060  178.0570  142.6590 C   0  0  2  0  0  3  0  0  0  0  0  0
  190.7240  178.0920  143.1580 C   0  0  0  0  0  0  0  0  0  0  0  0
  191.2670  179.3660  144.0510 S   0  0  0  0  0  0  0  0  0  0  0  0
  191.5660  176.9630  142.9040 N   0  0  0  0  0  2  0  0  0  0  0  0
  191.6760  175.8250  143.8020 C   0  0  0  0  0  2  0  0  0  0  0  0
  191.6060  176.2660  145.1230 O   0  0  0  0  0  1  0  0  0  0  0  0
  188.0490  175.9940  143.4330 C   0  0  0  0  0  1  0  0  0  0  0  0
  188.3350  177.4700  143.6990 C   0  0  2  0  0  3  0  0  0  0  0  0
  187.0370  178.2880  143.8440 C   0  0  1  0  0  3  0  0  0  0  0  0
  185.9780  177.9230  142.8110 C   0  0  0  0  0  2  0  0  0  0  0  0
  184.6140  178.3990  143.2700 C   0  0  0  0  0  1  0  0  0  0  0  0
  186.4590  178.1450  145.2430 C   0  0  0  0  0  2  0  0  0  0  0  0
  187.4330  178.4600  146.1920 O   0  0  0  0  0  0  0  0  0  0  0  0
  187.1130  177.6720  147.3010 C   0  0  0  0  0  2  0  0  0  0  0  0
  189.2130  176.5230  147.3320 O   0  0  0  0  0  1  0  0  0  0  0  0
  188.3700  177.3370  148.0910 C   0  0  0  0  0  3  0  0  0  0  0  0
  189.0410  178.5090  148.4470 O   0  0  0  0  0  1  0  0  0  0  0  0
  189.2440  177.2650  141.3570 C   0  0  0  0  0  2  0  0  0  0  0  0
  188.6610  178.1010  140.2230 C   0  0  0  0  0  2  0  0  0  0  0  0
  189.2610  177.7210  138.8680 C   0  0  2  0  0  0  0  0  0  0  0  0
  188.7410  176.8380  136.5650 O   0  0  0  0  0  1  0  0  0  0  0  0
  189.1210  178.8450  137.8530 C   0  0  0  0  0  2  0  0  0  0  0  0
  188.3220  177.5680  137.6830 C   0  0  2  0  0  0  0  0  0  0  0  0
  190.6200  177.0310  138.7860 C   0  0  0  0  0  2  0  0  0  0  0  0
  190.4530  175.6500  138.6710 O   0  0  0  0  0  0  0  0  0  0  0  0
  192.3360  176.4200  137.4430 C   0  0  0  0  0  1  0  0  0  0  0  0
  191.5750  175.2190  137.9650 C   0  0  0  0  0  2  0  0  0  0  0  0
  186.9470  177.7880  137.8400 O   0  0  0  0  0  0  0  0  0  0  0  0
  186.3060  176.7880  137.1030 C   0  0  0  0  0  2  0  0  0  0  0  0
  184.5090  176.9730  137.2690 S   0  0  0  0  0  1  0  0  0  0  0  0
  1 18  1  6  0  0  0
  1  2  1  0  0  0  0
  1  8  1  0  0  0  0
  2  3  2  0  0  0  0
  4  2  1  0  0  0  0
  4  5  1  0  0  0  0
  5  6  1  0  0  0  0
  8  7  1  6  0  0  0
  8  9  1  0  0  0  0
  9 10  1  6  0  0  0
  9 12  1  0  0  0  0
 10 11  1  0  0  0  0
 12 13  1  0  0  0  0
 13 14  1  0  0  0  0
 14 16  1  0  0  0  0
 15 16  1  0  0  0  0
 16 17  1  0  0  0  0
 19 18  1  0  0  0  0
 20 24  1  6  0  0  0
 20 19  1  0  0  0  0
 22 20  1  0  0  0  0
 23 21  1  6  0  0  0
 23 28  1  0  0  0  0
 23 22  1  0  0  0  0
 23 20  1  0  0  0  0
 25 24  1  0  0  0  0
 26 27  1  0  0  0  0
 27 25  1  0  0  0  0
 29 30  1  0  0  0  0
 29 28  1  0  0  0  0
M  END
>  <MODEL>
6

>  <REMARK>
 VINA RESULT:      -5.7      2.973      6.318
  Name = 
  18 active torsions:
  status: ('A' for Active; 'I' for Inactive)
    1  A    between atoms: C_1  and  C_4
    2  A    between atoms: C_1  and  C_22
    3  A    between atoms: C_2  and  N_14
    4  A    between atoms: C_2  and  C_29
    5  A    between atoms: C_3  and  C_11
    6  A    between atoms: C_4  and  C_5
    7  A    between atoms: C_5  and  O_21
    8  A    between atoms: C_11  and  C_23
    9  A    between atoms: C_11  and  C_24
   10  A    between atoms: C_12  and  O_27
   11  A    between atoms: C_13  and  O_27
   12  A    between atoms: N_14  and  C_20
   13  A    between atoms: O_15  and  C_24
   14  A    between atoms: O_15  and  C_25
   15  A    between atoms: C_16  and  C_25
   16  A    between atoms: C_17  and  O_21
   17  A    between atoms: C_22  and  C_29
   18  A    between atoms: C_23  and  C_29
                            x       y       z     vdW  Elec       q    Type
                         _______ _______ _______ _____ _____    ______ ____

>  <TORSDO>
F 18

$$$$
=
 OpenBabel10262422033D

 30 30  0  0  1  0  0  0  0  0999 V2000
  188.3500  178.0140  141.7910 C   0  0  2  0  0  3  0  0  0  0  0  0
  188.7830  177.8260  140.3630 C   0  0  0  0  0  0  0  0  0  0  0  0
  190.2030  177.0680  140.0110 S   0  0  0  0  0  0  0  0  0  0  0  0
  187.9020  178.2550  139.3190 N   0  0  0  0  0  2  0  0  0  0  0  0
  188.3000  178.3580  137.9240 C   0  0  0  0  0  2  0  0  0  0  0  0
  188.9550  179.5710  137.7160 O   0  0  0  0  0  1  0  0  0  0  0  0
  187.9590  176.1920  143.5130 C   0  0  0  0  0  1  0  0  0  0  0  0
  189.0040  176.9920  142.7380 C   0  0  2  0  0  3  0  0  0  0  0  0
  190.0530  177.6220  143.6750 C   0  0  1  0  0  3  0  0  0  0  0  0
  190.3520  179.0800  143.3490 C   0  0  0  0  0  2  0  0  0  0  0  0
  191.5910  179.5390  144.0920 C   0  0  0  0  0  1  0  0  0  0  0  0
  189.6260  177.4990  145.1290 C   0  0  0  0  0  2  0  0  0  0  0  0
  190.1970  176.3580  145.6950 O   0  0  0  0  0  0  0  0  0  0  0  0
  191.4800  176.7570  146.0790 C   0  0  0  0  0  2  0  0  0  0  0  0
  192.8710  175.2850  147.3540 O   0  0  0  0  0  1  0  0  0  0  0  0
  191.8190  176.1970  147.4530 C   0  0  0  0  0  3  0  0  0  0  0  0
  192.1720  177.2320  148.3210 O   0  0  0  0  0  1  0  0  0  0  0  0
  186.8290  177.9300  141.8760 C   0  0  0  0  0  2  0  0  0  0  0  0
  186.2230  179.2520  142.3330 C   0  0  0  0  0  2  0  0  0  0  0  0
  184.8820  179.0510  143.0400 C   0  0  2  0  0  0  0  0  0  0  0  0
  183.7680  178.1800  145.1270 O   0  0  0  0  0  1  0  0  0  0  0  0
  184.5910  180.1680  144.0300 C   0  0  0  0  0  2  0  0  0  0  0  0
  184.8890  178.7700  144.5330 C   0  0  2  0  0  0  0  0  0  0  0  0
  183.6420  178.6380  142.2500 C   0  0  0  0  0  2  0  0  0  0  0  0
  183.8050  178.9530  140.9000 O   0  0  0  0  0  0  0  0  0  0  0  0
  181.9740  178.0760  139.6630 C   0  0  0  0  0  1  0  0  0  0  0  0
  183.3590  177.8200  140.2200 C   0  0  0  0  0  2  0  0  0  0  0  0
  186.1030  178.7150  145.2340 O   0  0  0  0  0  0  0  0  0  0  0  0
  185.7720  178.7930  146.5900 C   0  0  0  0  0  2  0  0  0  0  0  0
  187.1460  178.1460  147.5830 S   0  0  0  0  0  1  0  0  0  0  0  0
  1 18  1  6  0  0  0
  1  8  1  0  0  0  0
  2  1  1  0  0  0  0
  3  2  2  0  0  0  0
  4  2  1  0  0  0  0
  5  4  1  0  0  0  0
  6  5  1  0  0  0  0
  8  7  1  1  0  0  0
  8  9  1  0  0  0  0
  9 10  1  6  0  0  0
  9 12  1  0  0  0  0
 10 11  1  0  0  0  0
 12 13  1  0  0  0  0
 13 14  1  0  0  0  0
 14 16  1  0  0  0  0
 15 16  1  0  0  0  0
 16 17  1  0  0  0  0
 18 19  1  0  0  0  0
 19 20  1  0  0  0  0
 20 24  1  6  0  0  0
 20 22  1  0  0  0  0
 20 23  1  0  0  0  0
 22 23  1  0  0  0  0
 23 21  1  1  0  0  0
 23 28  1  0  0  0  0
 25 24  1  0  0  0  0
 26 27  1  0  0  0  0
 27 25  1  0  0  0  0
 28 29  1  0  0  0  0
 29 30  1  0  0  0  0
M  END
>  <MODEL>
7

>  <REMARK>
 VINA RESULT:      -5.5      2.540      8.216
  Name = 
  18 active torsions:
  status: ('A' for Active; 'I' for Inactive)
    1  A    between atoms: C_1  and  C_4
    2  A    between atoms: C_1  and  C_22
    3  A    between atoms: C_2  and  N_14
    4  A    between atoms: C_2  and  C_29
    5  A    between atoms: C_3  and  C_11
    6  A    between atoms: C_4  and  C_5
    7  A    between atoms: C_5  and  O_21
    8  A    between atoms: C_11  and  C_23
    9  A    between atoms: C_11  and  C_24
   10  A    between atoms: C_12  and  O_27
   11  A    between atoms: C_13  and  O_27
   12  A    between atoms: N_14  and  C_20
   13  A    between atoms: O_15  and  C_24
   14  A    between atoms: O_15  and  C_25
   15  A    between atoms: C_16  and  C_25
   16  A    between atoms: C_17  and  O_21
   17  A    between atoms: C_22  and  C_29
   18  A    between atoms: C_23  and  C_29
                            x       y       z     vdW  Elec       q    Type
                         _______ _______ _______ _____ _____    ______ ____

>  <TORSDO>
F 18

$$$$
=
 OpenBabel10262422033D

 30 30  0  0  1  0  0  0  0  0999 V2000
  189.1570  177.7520  142.9200 C   0  0  2  0  0  3  0  0  0  0  0  0
  190.5470  178.0520  143.4110 C   0  0  0  0  0  0  0  0  0  0  0  0
  190.9310  179.5530  143.9700 S   0  0  0  0  0  0  0  0  0  0  0  0
  191.5030  176.9870  143.4510 N   0  0  0  0  0  2  0  0  0  0  0  0
  191.7800  176.2010  144.6430 C   0  0  0  0  0  2  0  0  0  0  0  0
  192.0540  174.8840  144.2780 O   0  0  0  0  0  1  0  0  0  0  0  0
  188.3050  175.3800  143.2180 C   0  0  0  0  0  1  0  0  0  0  0  0
  188.4120  176.7710  143.8420 C   0  0  2  0  0  3  0  0  0  0  0  0
  187.0380  177.2980  144.3010 C   0  0  1  0  0  3  0  0  0  0  0  0
  187.1140  178.1550  145.5590 C   0  0  0  0  0  2  0  0  0  0  0  0
  188.0900  177.5470  146.5470 C   0  0  0  0  0  1  0  0  0  0  0  0
  186.3570  178.0800  143.1890 C   0  0  0  0  0  2  0  0  0  0  0  0
  185.5220  179.0550  143.7380 O   0  0  0  0  0  0  0  0  0  0  0  0
  184.2280  178.5900  143.4940 C   0  0  0  0  0  2  0  0  0  0  0  0
  181.9870  178.6270  144.3340 O   0  0  0  0  0  1  0  0  0  0  0  0
  183.2500  179.2020  144.4860 C   0  0  0  0  0  3  0  0  0  0  0  0
  183.7030  179.0040  145.7920 O   0  0  0  0  0  1  0  0  0  0  0  0
  189.2270  177.2060  141.4970 C   0  0  0  0  0  2  0  0  0  0  0  0
  188.9910  178.3040  140.4670 C   0  0  0  0  0  2  0  0  0  0  0  0
  189.3610  177.8510  139.0540 C   0  0  2  0  0  0  0  0  0  0  0  0
  188.4720  176.8540  136.9160 O   0  0  0  0  0  1  0  0  0  0  0  0
  189.0570  178.9220  138.0180 C   0  0  0  0  0  2  0  0  0  0  0  0
  188.2420  177.6440  138.0470 C   0  0  2  0  0  0  0  0  0  0  0  0
  190.6890  177.1470  138.7870 C   0  0  0  0  0  2  0  0  0  0  0  0
  190.5180  175.7620  138.8300 O   0  0  0  0  0  0  0  0  0  0  0  0
  192.6500  176.1940  137.8730 C   0  0  0  0  0  1  0  0  0  0  0  0
  191.4550  175.2650  137.9250 C   0  0  0  0  0  2  0  0  0  0  0  0
  186.9100  177.8830  138.4160 O   0  0  0  0  0  0  0  0  0  0  0  0
  186.1220  177.3460  137.3930 C   0  0  0  0  0  2  0  0  0  0  0  0
  184.3690  177.5030  137.8370 S   0  0  0  0  0  1  0  0  0  0  0  0
  1 18  1  6  0  0  0
  1  2  1  0  0  0  0
  1  8  1  0  0  0  0
  2  4  1  0  0  0  0
  2  3  2  0  0  0  0
  4  5  1  0  0  0  0
  6  5  1  0  0  0  0
  8  7  1  6  0  0  0
  8  9  1  0  0  0  0
  9 12  1  6  0  0  0
  9 10  1  0  0  0  0
 10 11  1  0  0  0  0
 12 13  1  0  0  0  0
 14 13  1  0  0  0  0
 14 16  1  0  0  0  0
 15 16  1  0  0  0  0
 16 17  1  0  0  0  0
 19 18  1  0  0  0  0
 20 24  1  6  0  0  0
 20 19  1  0  0  0  0
 22 23  1  0  0  0  0
 22 20  1  0  0  0  0
 23 21  1  6  0  0  0
 23 28  1  0  0  0  0
 23 20  1  0  0  0  0
 24 25  1  0  0  0  0
 26 27  1  0  0  0  0
 27 25  1  0  0  0  0
 29 30  1  0  0  0  0
 29 28  1  0  0  0  0
M  END
>  <MODEL>
8

>  <REMARK>
 VINA RESULT:      -5.4      3.097      5.600
  Name = 
  18 active torsions:
  status: ('A' for Active; 'I' for Inactive)
    1  A    between atoms: C_1  and  C_4
    2  A    between atoms: C_1  and  C_22
    3  A    between atoms: C_2  and  N_14
    4  A    between atoms: C_2  and  C_29
    5  A    between atoms: C_3  and  C_11
    6  A    between atoms: C_4  and  C_5
    7  A    between atoms: C_5  and  O_21
    8  A    between atoms: C_11  and  C_23
    9  A    between atoms: C_11  and  C_24
   10  A    between atoms: C_12  and  O_27
   11  A    between atoms: C_13  and  O_27
   12  A    between atoms: N_14  and  C_20
   13  A    between atoms: O_15  and  C_24
   14  A    between atoms: O_15  and  C_25
   15  A    between atoms: C_16  and  C_25
   16  A    between atoms: C_17  and  O_21
   17  A    between atoms: C_22  and  C_29
   18  A    between atoms: C_23  and  C_29
                            x       y       z     vdW  Elec       q    Type
                         _______ _______ _______ _____ _____    ______ ____

>  <TORSDO>
F 18

$$$$
=
 OpenBabel10262422033D

 30 30  0  0  1  0  0  0  0  0999 V2000
  189.6980  177.6550  141.5900 C   0  0  2  0  0  3  0  0  0  0  0  0
  190.6640  177.3230  140.4850 C   0  0  0  0  0  0  0  0  0  0  0  0
  192.2890  177.4290  140.7350 S   0  0  0  0  0  0  0  0  0  0  0  0
  190.1420  176.8440  139.2420 N   0  0  0  0  0  2  0  0  0  0  0  0
  190.9760  176.3430  138.1610 C   0  0  0  0  0  2  0  0  0  0  0  0
  191.1780  174.9730  138.3270 O   0  0  0  0  0  1  0  0  0  0  0  0
  188.6180  175.9780  143.1590 C   0  0  0  0  0  1  0  0  0  0  0  0
  189.8900  176.7550  142.8230 C   0  0  2  0  0  3  0  0  0  0  0  0
  190.4360  177.5150  144.0470 C   0  0  1  0  0  3  0  0  0  0  0  0
  190.7140  178.9870  143.7660 C   0  0  0  0  0  2  0  0  0  0  0  0
  192.0560  179.3860  144.3460 C   0  0  0  0  0  1  0  0  0  0  0  0
  189.4900  177.3900  145.2310 C   0  0  0  0  0  2  0  0  0  0  0  0
  190.2170  177.1240  146.3930 O   0  0  0  0  0  0  0  0  0  0  0  0
  189.2540  176.7620  147.3380 C   0  0  0  0  0  2  0  0  0  0  0  0
  187.7600  177.6370  148.9900 O   0  0  0  0  0  1  0  0  0  0  0  0
  188.7880  177.9860  148.1130 C   0  0  0  0  0  3  0  0  0  0  0  0
  189.8530  178.5360  148.8300 O   0  0  0  0  0  1  0  0  0  0  0  0
  188.2690  177.5510  141.0650 C   0  0  0  0  0  2  0  0  0  0  0  0
  187.5480  178.8920  141.1400 C   0  0  0  0  0  2  0  0  0  0  0  0
  186.0360  178.7360  140.9810 C   0  0  2  0  0  0  0  0  0  0  0  0
  183.9590  177.7100  141.9750 O   0  0  0  0  0  1  0  0  0  0  0  0
  185.2710  179.7330  141.8380 C   0  0  0  0  0  2  0  0  0  0  0  0
  185.2310  178.2560  142.1770 C   0  0  2  0  0  0  0  0  0  0  0  0
  185.4140  178.5640  139.5970 C   0  0  0  0  0  2  0  0  0  0  0  0
  186.3000  179.0050  138.6130 O   0  0  0  0  0  0  0  0  0  0  0  0
  186.9650  176.9290  137.6660 C   0  0  0  0  0  1  0  0  0  0  0  0
  186.0790  178.1500  137.5340 C   0  0  0  0  0  2  0  0  0  0  0  0
  185.8720  177.9820  143.3940 O   0  0  0  0  0  0  0  0  0  0  0  0
  184.9440  178.2780  144.3970 C   0  0  0  0  0  2  0  0  0  0  0  0
  185.8230  178.6510  145.9400 S   0  0  0  0  0  1  0  0  0  0  0  0
  1 18  1  6  0  0  0
  1  8  1  0  0  0  0
  2  3  2  0  0  0  0
  2  1  1  0  0  0  0
  4  2  1  0  0  0  0
  5  6  1  0  0  0  0
  5  4  1  0  0  0  0
  8  7  1  1  0  0  0
  8  9  1  0  0  0  0
  9 10  1  6  0  0  0
  9 12  1  0  0  0  0
 10 11  1  0  0  0  0
 12 13  1  0  0  0  0
 13 14  1  0  0  0  0
 14 16  1  0  0  0  0
 16 17  1  0  0  0  0
 16 15  1  0  0  0  0
 18 19  1  0  0  0  0
 20 24  1  6  0  0  0
 20 19  1  0  0  0  0
 20 22  1  0  0  0  0
 20 23  1  0  0  0  0
 22 23  1  0  0  0  0
 23 21  1  6  0  0  0
 23 28  1  0  0  0  0
 25 24  1  0  0  0  0
 27 26  1  0  0  0  0
 27 25  1  0  0  0  0
 28 29  1  0  0  0  0
 29 30  1  0  0  0  0
M  END
>  <MODEL>
9

>  <REMARK>
 VINA RESULT:      -5.3      2.593      7.935
  Name = 
  18 active torsions:
  status: ('A' for Active; 'I' for Inactive)
    1  A    between atoms: C_1  and  C_4
    2  A    between atoms: C_1  and  C_22
    3  A    between atoms: C_2  and  N_14
    4  A    between atoms: C_2  and  C_29
    5  A    between atoms: C_3  and  C_11
    6  A    between atoms: C_4  and  C_5
    7  A    between atoms: C_5  and  O_21
    8  A    between atoms: C_11  and  C_23
    9  A    between atoms: C_11  and  C_24
   10  A    between atoms: C_12  and  O_27
   11  A    between atoms: C_13  and  O_27
   12  A    between atoms: N_14  and  C_20
   13  A    between atoms: O_15  and  C_24
   14  A    between atoms: O_15  and  C_25
   15  A    between atoms: C_16  and  C_25
   16  A    between atoms: C_17  and  O_21
   17  A    between atoms: C_22  and  C_29
   18  A    between atoms: C_23  and  C_29
                            x       y       z     vdW  Elec       q    Type
                         _______ _______ _______ _____ _____    ______ ____

>  <TORSDO>
F 18

$$$$
