=
 OpenBabel10262420423D

 28 31  0  0  1  0  0  0  0  0999 V2000
  189.8430  177.5270  141.8290 C   0  0  2  0  0  3  0  0  0  0  0  0
  190.1430  178.0770  144.2660 C   0  0  2  0  0  3  0  0  0  0  0  0
  191.6990  176.7280  142.8180 C   0  0  0  0  0  2  0  0  0  0  0  0
  191.2090  176.9730  144.2480 C   0  0  0  0  0  2  0  0  0  0  0  0
  190.6180  176.3660  141.9970 O   0  0  0  0  0  0  0  0  0  0  0  0
  189.1200  177.8890  143.1380 C   0  0  2  0  0  3  0  0  0  0  0  0
  192.1540  179.3630  144.3950 O   0  0  0  0  0  1  0  0  0  0  0  0
  190.7820  179.4550  144.1660 C   0  0  0  0  0  2  0  0  0  0  0  0
  188.9200  177.3440  140.7810 O   0  0  0  0  0  0  0  0  0  0  0  0
  189.5600  177.5510  139.5350 C   0  0  2  0  0  3  0  0  0  0  0  0
  189.3280  176.8420  137.2410 N   0  0  0  0  0  0  0  0  0  0  0  0
  189.0080  178.7130  138.7490 C   0  0  0  0  0  2  0  0  0  0  0  0
  190.6860  175.6250  138.6990 O   0  0  0  0  0  1  0  0  0  0  0  0
  189.5000  176.3520  138.6060 C   0  0  1  0  0  3  0  0  0  0  0  0
  188.0640  176.3120  136.7570 C   0  0  0  0  0  1  0  0  0  0  0  0
  189.1870  178.2960  137.3050 C   0  0  0  0  0  2  0  0  0  0  0  0
  188.0900  176.8250  143.5150 C   0  0  0  0  0  2  0  0  0  0  0  0
  185.4700  177.9260  142.9830 C   0  0  0  0  0  3  0  0  0  0  0  0
  185.0810  178.2440  145.5170 C   0  0  0  0  0  0  0  0  0  0  0  0
  187.2050  177.3200  144.6190 C   0  0  1  0  0  3  0  0  0  0  0  0
  183.4860  179.0990  143.7990 C   0  0  0  0  0  0  0  0  0  0  0  0
  185.9850  177.8390  144.3660 C   0  0  0  0  0  0  0  0  0  0  0  0
  187.2190  177.9280  147.0070 C   0  0  0  0  0  3  0  0  0  0  0  0
  183.8580  179.0060  145.0780 C   0  0  0  0  0  3  0  0  0  0  0  0
  186.0140  179.2320  146.7250 S   0  0  0  0  0  0  0  0  0  0  0  0
  182.3570  179.7750  143.4810 F   0  0  0  0  0  0  0  0  0  0  0  0
  184.3010  178.5100  142.7230 C   0  0  0  0  0  3  0  0  0  0  0  0
  187.7160  177.2070  146.0000 C   0  0  0  0  0  3  0  0  0  0  0  0
  1  9  1  6  0  0  0
  1  5  1  0  0  0  0
  1  6  1  0  0  0  0
  2  8  1  6  0  0  0
  3  4  1  0  0  0  0
  4  2  1  0  0  0  0
  5  3  1  0  0  0  0
  6 17  1  1  0  0  0
  6  2  1  0  0  0  0
  8  7  1  0  0  0  0
 10  9  1  1  0  0  0
 11 16  1  0  0  0  0
 11 14  1  0  0  0  0
 12 10  1  0  0  0  0
 14 13  1  6  0  0  0
 14 10  1  0  0  0  0
 15 11  1  0  0  0  0
 16 12  1  0  0  0  0
 18 22  1  0  0  0  0
 19 25  1  0  0  0  0
 20 17  1  1  0  0  0
 20 28  1  0  0  0  0
 21 24  2  0  0  0  0
 22 20  1  0  0  0  0
 22 19  2  0  0  0  0
 24 19  1  0  0  0  0
 25 23  1  0  0  0  0
 26 21  1  0  0  0  0
 27 18  2  0  0  0  0
 27 21  1  0  0  0  0
 28 23  2  0  0  0  0
M  END
>  <MODEL>
1

>  <REMARK>
 VINA RESULT:      -9.2      0.000      0.000
  Name = 
  5 active torsions:
  status: ('A' for Active; 'I' for Inactive)
    1  A    between atoms: C_1  and  O_2
    2  A    between atoms: O_2  and  C_3
    3  A    between atoms: C_10  and  C_17
    4  A    between atoms: C_16  and  C_20
    5  A    between atoms: C_17  and  C_27
                            x       y       z     vdW  Elec       q    Type
                         _______ _______ _______ _____ _____    ______ ____

>  <TORSDO>
F 5

$$$$
=
 OpenBabel10262420423D

 28 31  0  0  1  0  0  0  0  0999 V2000
  190.6790  176.6810  142.0790 C   0  0  2  0  0  3  0  0  0  0  0  0
  189.9750  178.1820  143.9700 C   0  0  2  0  0  3  0  0  0  0  0  0
  191.6500  176.3070  144.0720 C   0  0  0  0  0  2  0  0  0  0  0  0
  190.6440  177.1370  144.8740 C   0  0  0  0  0  2  0  0  0  0  0  0
  191.0010  175.6710  143.0010 O   0  0  0  0  0  0  0  0  0  0  0  0
  189.5530  177.5750  142.6260 C   0  0  2  0  0  3  0  0  0  0  0  0
  192.1040  179.1790  144.4050 O   0  0  0  0  0  1  0  0  0  0  0  0
  190.8940  179.3740  143.7400 C   0  0  0  0  0  2  0  0  0  0  0  0
  190.3100  176.1090  140.8460 O   0  0  0  0  0  0  0  0  0  0  0  0
  190.5750  177.0200  139.7940 C   0  0  2  0  0  3  0  0  0  0  0  0
  190.9350  176.9750  137.4090 N   0  0  0  0  0  0  0  0  0  0  0  0
  189.3360  177.5680  139.1320 C   0  0  0  0  0  2  0  0  0  0  0  0
  192.7560  176.8030  138.8610 O   0  0  0  0  0  1  0  0  0  0  0  0
  191.4230  176.4380  138.6770 C   0  0  1  0  0  3  0  0  0  0  0  0
  190.4850  175.8440  136.6160 C   0  0  0  0  0  1  0  0  0  0  0  0
  189.7580  177.7940  137.6960 C   0  0  0  0  0  2  0  0  0  0  0  0
  188.2470  176.7970  142.7700 C   0  0  0  0  0  2  0  0  0  0  0  0
  186.9110  177.3010  145.2830 C   0  0  0  0  0  3  0  0  0  0  0  0
  185.3450  178.9940  144.1200 C   0  0  0  0  0  0  0  0  0  0  0  0
  187.0840  177.7370  142.8680 C   0  0  1  0  0  3  0  0  0  0  0  0
  185.0360  178.2980  146.4950 C   0  0  0  0  0  0  0  0  0  0  0  0
  186.4590  177.9660  144.0420 C   0  0  0  0  0  0  0  0  0  0  0  0
  185.4440  178.9620  141.4960 C   0  0  0  0  0  3  0  0  0  0  0  0
  184.6020  178.9750  145.4300 C   0  0  0  0  0  3  0  0  0  0  0  0
  184.1730  178.7490  142.7500 S   0  0  0  0  0  0  0  0  0  0  0  0
  184.3310  178.3510  147.6510 F   0  0  0  0  0  0  0  0  0  0  0  0
  186.2470  177.4630  146.4270 C   0  0  0  0  0  3  0  0  0  0  0  0
  186.6530  178.4170  141.6290 C   0  0  0  0  0  3  0  0  0  0  0  0
  1  9  1  6  0  0  0
  1  6  1  0  0  0  0
  1  5  1  0  0  0  0
  2  8  1  6  0  0  0
  2  4  1  0  0  0  0
  3  4  1  0  0  0  0
  5  3  1  0  0  0  0
  6 17  1  1  0  0  0
  6  2  1  0  0  0  0
  8  7  1  0  0  0  0
 10  9  1  1  0  0  0
 11 16  1  0  0  0  0
 11 14  1  0  0  0  0
 12 10  1  0  0  0  0
 14 13  1  1  0  0  0
 14 10  1  0  0  0  0
 15 11  1  0  0  0  0
 16 12  1  0  0  0  0
 18 27  1  0  0  0  0
 19 24  2  0  0  0  0
 20 17  1  1  0  0  0
 20 22  1  0  0  0  0
 21 26  1  0  0  0  0
 22 19  1  0  0  0  0
 22 18  2  0  0  0  0
 23 28  2  0  0  0  0
 23 25  1  0  0  0  0
 24 21  1  0  0  0  0
 25 19  1  0  0  0  0
 27 21  2  0  0  0  0
 28 20  1  0  0  0  0
M  END
>  <MODEL>
2

>  <REMARK>
 VINA RESULT:      -9.1      1.736      2.500
  Name = 
  5 active torsions:
  status: ('A' for Active; 'I' for Inactive)
    1  A    between atoms: C_1  and  O_2
    2  A    between atoms: O_2  and  C_3
    3  A    between atoms: C_10  and  C_17
    4  A    between atoms: C_16  and  C_20
    5  A    between atoms: C_17  and  C_27
                            x       y       z     vdW  Elec       q    Type
                         _______ _______ _______ _____ _____    ______ ____

>  <TORSDO>
F 5

$$$$
=
 OpenBabel10262420423D

 28 31  0  0  1  0  0  0  0  0999 V2000
  189.8510  177.3420  141.4790 C   0  0  2  0  0  3  0  0  0  0  0  0
  190.2640  178.0230  143.8650 C   0  0  2  0  0  3  0  0  0  0  0  0
  191.6320  176.4160  142.4930 C   0  0  0  0  0  2  0  0  0  0  0  0
  191.2040  176.8100  143.9100 C   0  0  0  0  0  2  0  0  0  0  0  0
  190.5000  176.1180  141.7160 O   0  0  0  0  0  0  0  0  0  0  0  0
  189.2010  177.8690  142.7700 C   0  0  2  0  0  3  0  0  0  0  0  0
  192.2120  179.2920  144.4210 O   0  0  0  0  0  1  0  0  0  0  0  0
  191.0450  179.3130  143.6580 C   0  0  0  0  0  2  0  0  0  0  0  0
  188.8890  177.1880  140.4610 O   0  0  0  0  0  0  0  0  0  0  0  0
  189.4940  177.3820  139.1950 C   0  0  2  0  0  3  0  0  0  0  0  0
  189.0750  176.8280  136.8850 N   0  0  0  0  0  0  0  0  0  0  0  0
  189.0540  178.6420  138.4930 C   0  0  0  0  0  2  0  0  0  0  0  0
  190.3380  175.3820  138.2140 O   0  0  0  0  0  1  0  0  0  0  0  0
  189.2470  176.2500  138.2150 C   0  0  1  0  0  3  0  0  0  0  0  0
  187.7360  176.4800  136.4410 C   0  0  0  0  0  1  0  0  0  0  0  0
  189.1170  178.2840  137.0240 C   0  0  0  0  0  2  0  0  0  0  0  0
  188.0710  176.9530  143.2370 C   0  0  0  0  0  2  0  0  0  0  0  0
  188.4830  177.3200  146.0740 C   0  0  0  0  0  3  0  0  0  0  0  0
  186.3240  178.7320  146.2120 C   0  0  0  0  0  0  0  0  0  0  0  0
  187.0940  177.7130  144.0810 C   0  0  1  0  0  3  0  0  0  0  0  0
  187.6160  178.0600  148.2370 C   0  0  0  0  0  0  0  0  0  0  0  0
  187.2870  177.8780  145.4070 C   0  0  0  0  0  0  0  0  0  0  0  0
  184.8130  178.6460  144.0660 C   0  0  0  0  0  3  0  0  0  0  0  0
  186.5390  178.6370  147.7000 C   0  0  0  0  0  3  0  0  0  0  0  0
  184.6070  178.2810  145.8150 S   0  0  0  0  0  0  0  0  0  0  0  0
  187.7590  178.0390  149.5850 F   0  0  0  0  0  0  0  0  0  0  0  0
  188.6350  177.4130  147.3950 C   0  0  0  0  0  3  0  0  0  0  0  0
  185.9140  178.2890  143.4040 C   0  0  0  0  0  3  0  0  0  0  0  0
  1  9  1  6  0  0  0
  1  5  1  0  0  0  0
  1  6  1  0  0  0  0
  2  8  1  6  0  0  0
  2  4  1  0  0  0  0
  3  4  1  0  0  0  0
  5  3  1  0  0  0  0
  6 17  1  1  0  0  0
  6  2  1  0  0  0  0
  8  7  1  0  0  0  0
 10  9  1  1  0  0  0
 11 16  1  0  0  0  0
 11 14  1  0  0  0  0
 12 10  1  0  0  0  0
 14 13  1  6  0  0  0
 14 10  1  0  0  0  0
 15 11  1  0  0  0  0
 16 12  1  0  0  0  0
 18 27  1  0  0  0  0
 19 24  2  0  0  0  0
 20 17  1  6  0  0  0
 20 22  1  0  0  0  0
 21 26  1  0  0  0  0
 22 18  2  0  0  0  0
 22 19  1  0  0  0  0
 23 25  1  0  0  0  0
 24 21  1  0  0  0  0
 25 19  1  0  0  0  0
 27 21  2  0  0  0  0
 28 23  2  0  0  0  0
 28 20  1  0  0  0  0
M  END
>  <MODEL>
3

>  <REMARK>
 VINA RESULT:      -8.6      1.780      2.807
  Name = 
  5 active torsions:
  status: ('A' for Active; 'I' for Inactive)
    1  A    between atoms: C_1  and  O_2
    2  A    between atoms: O_2  and  C_3
    3  A    between atoms: C_10  and  C_17
    4  A    between atoms: C_16  and  C_20
    5  A    between atoms: C_17  and  C_27
                            x       y       z     vdW  Elec       q    Type
                         _______ _______ _______ _____ _____    ______ ____

>  <TORSDO>
F 5

$$$$
=
 OpenBabel10262420423D

 28 31  0  0  1  0  0  0  0  0999 V2000
  189.2190  177.7580  141.9040 C   0  0  2  0  0  3  0  0  0  0  0  0
  190.9030  178.1140  143.7390 C   0  0  2  0  0  3  0  0  0  0  0  0
  191.3440  177.1810  141.4430 C   0  0  0  0  0  2  0  0  0  0  0  0
  191.8120  177.2040  142.9000 C   0  0  0  0  0  2  0  0  0  0  0  0
  190.0150  176.7290  141.3740 O   0  0  0  0  0  0  0  0  0  0  0  0
  189.4210  177.8700  143.4250 C   0  0  2  0  0  3  0  0  0  0  0  0
  192.1180  180.0180  144.5210 O   0  0  0  0  0  1  0  0  0  0  0  0
  191.2490  179.5810  143.5230 C   0  0  0  0  0  2  0  0  0  0  0  0
  187.8650  177.5290  141.5940 O   0  0  0  0  0  0  0  0  0  0  0  0
  187.4170  178.4890  140.6540 C   0  0  2  0  0  3  0  0  0  0  0  0
  186.7440  178.5780  138.3390 N   0  0  0  0  0  0  0  0  0  0  0  0
  185.9190  178.6570  140.6180 C   0  0  0  0  0  2  0  0  0  0  0  0
  188.9800  178.9320  138.9120 O   0  0  0  0  0  1  0  0  0  0  0  0
  187.8390  178.1940  139.2260 C   0  0  1  0  0  3  0  0  0  0  0  0
  186.3160  177.3740  137.6480 C   0  0  0  0  0  1  0  0  0  0  0  0
  185.6250  179.0130  139.1760 C   0  0  0  0  0  2  0  0  0  0  0  0
  188.9140  176.6230  144.1450 C   0  0  0  0  0  2  0  0  0  0  0  0
  186.2140  177.6440  144.3070 C   0  0  0  0  0  3  0  0  0  0  0  0
  186.4010  177.7490  146.8820 C   0  0  0  0  0  0  0  0  0  0  0  0
  188.2900  176.9920  145.4570 C   0  0  1  0  0  3  0  0  0  0  0  0
  184.4370  178.6610  145.6430 C   0  0  0  0  0  0  0  0  0  0  0  0
  187.0310  177.4740  145.5280 C   0  0  0  0  0  0  0  0  0  0  0  0
  188.8290  177.4150  147.8240 C   0  0  0  0  0  3  0  0  0  0  0  0
  185.0910  178.4880  146.7930 C   0  0  0  0  0  3  0  0  0  0  0  0
  187.5570  178.6820  147.9300 S   0  0  0  0  0  0  0  0  0  0  0  0
  183.2470  179.3100  145.6440 F   0  0  0  0  0  0  0  0  0  0  0  0
  185.0020  178.1930  144.3660 C   0  0  0  0  0  3  0  0  0  0  0  0
  189.1020  176.7960  146.6750 C   0  0  0  0  0  3  0  0  0  0  0  0
  1  9  1  1  0  0  0
  1  6  1  0  0  0  0
  2  8  1  6  0  0  0
  3  4  1  0  0  0  0
  4  2  1  0  0  0  0
  5  3  1  0  0  0  0
  5  1  1  0  0  0  0
  6  2  1  0  0  0  0
  6 17  1  1  0  0  0
  8  7  1  0  0  0  0
 10  9  1  1  0  0  0
 11 16  1  0  0  0  0
 11 14  1  0  0  0  0
 12 10  1  0  0  0  0
 14 13  1  6  0  0  0
 14 10  1  0  0  0  0
 15 11  1  0  0  0  0
 16 12  1  0  0  0  0
 18 27  2  0  0  0  0
 18 22  1  0  0  0  0
 19 25  1  0  0  0  0
 20 17  1  1  0  0  0
 20 22  1  0  0  0  0
 20 28  1  0  0  0  0
 21 26  1  0  0  0  0
 21 24  2  0  0  0  0
 22 19  2  0  0  0  0
 23 25  1  0  0  0  0
 24 19  1  0  0  0  0
 27 21  1  0  0  0  0
 28 23  2  0  0  0  0
M  END
>  <MODEL>
4

>  <REMARK>
 VINA RESULT:      -8.4      1.673      2.094
  Name = 
  5 active torsions:
  status: ('A' for Active; 'I' for Inactive)
    1  A    between atoms: C_1  and  O_2
    2  A    between atoms: O_2  and  C_3
    3  A    between atoms: C_10  and  C_17
    4  A    between atoms: C_16  and  C_20
    5  A    between atoms: C_17  and  C_27
                            x       y       z     vdW  Elec       q    Type
                         _______ _______ _______ _____ _____    ______ ____

>  <TORSDO>
F 5

$$$$
=
 OpenBabel10262420423D

 28 31  0  0  1  0  0  0  0  0999 V2000
  190.5770  177.8880  145.1000 C   0  0  2  0  0  3  0  0  0  0  0  0
  189.3440  177.1980  147.1820 C   0  0  2  0  0  3  0  0  0  0  0  0
  191.6050  176.3900  146.4260 C   0  0  0  0  0  2  0  0  0  0  0  0
  190.3540  176.0430  147.2380 C   0  0  0  0  0  2  0  0  0  0  0  0
  191.2520  176.6550  145.0920 O   0  0  0  0  0  0  0  0  0  0  0  0
  189.1920  177.7430  145.7560 C   0  0  2  0  0  3  0  0  0  0  0  0
  188.7650  178.4900  149.1080 O   0  0  0  0  0  1  0  0  0  0  0  0
  189.7440  178.3200  148.1300 C   0  0  0  0  0  2  0  0  0  0  0  0
  190.4590  178.3820  143.7860 O   0  0  0  0  0  0  0  0  0  0  0  0
  191.1350  177.5220  142.8860 C   0  0  2  0  0  3  0  0  0  0  0  0
  190.8730  176.6900  140.6380 N   0  0  0  0  0  0  0  0  0  0  0  0
  192.1500  178.2210  142.0180 C   0  0  0  0  0  2  0  0  0  0  0  0
  189.9660  175.4980  142.4290 O   0  0  0  0  0  1  0  0  0  0  0  0
  190.2120  176.7790  141.9370 C   0  0  1  0  0  3  0  0  0  0  0  0
  190.0300  177.3920  139.6850 C   0  0  0  0  0  1  0  0  0  0  0  0
  192.1310  177.4320  140.7260 C   0  0  0  0  0  2  0  0  0  0  0  0
  188.2780  176.8420  144.9270 C   0  0  0  0  0  2  0  0  0  0  0  0
  187.1520  177.8120  142.4480 C   0  0  0  0  0  3  0  0  0  0  0  0
  184.9380  178.3620  143.6600 C   0  0  0  0  0  0  0  0  0  0  0  0
  186.8950  177.4160  144.8630 C   0  0  1  0  0  3  0  0  0  0  0  0
  185.3600  179.0010  141.2860 C   0  0  0  0  0  0  0  0  0  0  0  0
  186.3750  177.8730  143.7040 C   0  0  0  0  0  0  0  0  0  0  0  0
  185.0610  178.2510  146.2800 C   0  0  0  0  0  3  0  0  0  0  0  0
  184.5770  179.0430  142.3660 C   0  0  0  0  0  3  0  0  0  0  0  0
  184.6190  179.4880  145.0520 S   0  0  0  0  0  0  0  0  0  0  0  0
  184.9560  179.6120  140.1460 F   0  0  0  0  0  0  0  0  0  0  0  0
  186.6720  178.3340  141.3200 C   0  0  0  0  0  3  0  0  0  0  0  0
  186.1150  177.4510  146.1160 C   0  0  0  0  0  3  0  0  0  0  0  0
  1  9  1  6  0  0  0
  1  6  1  0  0  0  0
  2  4  1  0  0  0  0
  2  8  1  1  0  0  0
  3  4  1  0  0  0  0
  5  1  1  0  0  0  0
  5  3  1  0  0  0  0
  6 17  1  6  0  0  0
  6  2  1  0  0  0  0
  8  7  1  0  0  0  0
 10  9  1  6  0  0  0
 11 16  1  0  0  0  0
 11 14  1  0  0  0  0
 12 10  1  0  0  0  0
 14 13  1  1  0  0  0
 14 10  1  0  0  0  0
 15 11  1  0  0  0  0
 16 12  1  0  0  0  0
 18 22  1  0  0  0  0
 19 22  2  0  0  0  0
 19 25  1  0  0  0  0
 20 17  1  6  0  0  0
 20 28  1  0  0  0  0
 21 27  1  0  0  0  0
 21 24  2  0  0  0  0
 22 20  1  0  0  0  0
 24 19  1  0  0  0  0
 25 23  1  0  0  0  0
 26 21  1  0  0  0  0
 27 18  2  0  0  0  0
 28 23  2  0  0  0  0
M  END
>  <MODEL>
5

>  <REMARK>
 VINA RESULT:      -8.4      2.259      3.282
  Name = 
  5 active torsions:
  status: ('A' for Active; 'I' for Inactive)
    1  A    between atoms: C_1  and  O_2
    2  A    between atoms: O_2  and  C_3
    3  A    between atoms: C_10  and  C_17
    4  A    between atoms: C_16  and  C_20
    5  A    between atoms: C_17  and  C_27
                            x       y       z     vdW  Elec       q    Type
                         _______ _______ _______ _____ _____    ______ ____

>  <TORSDO>
F 5

$$$$
=
 OpenBabel10262420423D

 28 31  0  0  1  0  0  0  0  0999 V2000
  189.9560  177.3720  140.9970 C   0  0  2  0  0  3  0  0  0  0  0  0
  190.1820  178.0610  143.4060 C   0  0  2  0  0  3  0  0  0  0  0  0
  191.6050  176.3920  142.1700 C   0  0  0  0  0  2  0  0  0  0  0  0
  191.0690  176.8150  143.5410 C   0  0  0  0  0  2  0  0  0  0  0  0
  190.5350  176.1280  141.2980 O   0  0  0  0  0  0  0  0  0  0  0  0
  189.2150  177.9360  142.2220 C   0  0  2  0  0  3  0  0  0  0  0  0
  191.1250  179.9730  144.4880 O   0  0  0  0  0  1  0  0  0  0  0  0
  191.0270  179.3190  143.2600 C   0  0  0  0  0  2  0  0  0  0  0  0
  189.0840  177.2450  139.8980 O   0  0  0  0  0  0  0  0  0  0  0  0
  189.8260  177.2280  138.6930 C   0  0  2  0  0  3  0  0  0  0  0  0
  189.7450  176.1590  136.5320 N   0  0  0  0  0  0  0  0  0  0  0  0
  189.3840  178.2600  137.6870 C   0  0  0  0  0  2  0  0  0  0  0  0
  190.9360  175.1610  138.2760 O   0  0  0  0  0  1  0  0  0  0  0  0
  189.7900  175.8950  137.9680 C   0  0  1  0  0  3  0  0  0  0  0  0
  188.5030  175.5910  136.0360 C   0  0  0  0  0  1  0  0  0  0  0  0
  189.6590  177.6080  136.3490 C   0  0  0  0  0  2  0  0  0  0  0  0
  188.0150  177.0670  142.5930 C   0  0  0  0  0  2  0  0  0  0  0  0
  186.8300  177.4430  145.2020 C   0  0  0  0  0  3  0  0  0  0  0  0
  185.0590  179.0200  144.1790 C   0  0  0  0  0  0  0  0  0  0  0  0
  186.7940  177.9130  142.7870 C   0  0  1  0  0  3  0  0  0  0  0  0
  184.9770  178.2800  146.5600 C   0  0  0  0  0  0  0  0  0  0  0  0
  186.2400  178.0820  144.0070 C   0  0  0  0  0  0  0  0  0  0  0  0
  184.9700  179.0200  141.5550 C   0  0  0  0  0  3  0  0  0  0  0  0
  184.4170  178.9310  145.5380 C   0  0  0  0  0  3  0  0  0  0  0  0
  183.8130  178.6980  142.8930 S   0  0  0  0  0  0  0  0  0  0  0  0
  184.3560  178.2680  147.7640 F   0  0  0  0  0  0  0  0  0  0  0  0
  186.2410  177.5420  146.3930 C   0  0  0  0  0  3  0  0  0  0  0  0
  186.2240  178.5690  141.5930 C   0  0  0  0  0  3  0  0  0  0  0  0
  1  9  1  6  0  0  0
  1  5  1  0  0  0  0
  1  6  1  0  0  0  0
  2  8  1  6  0  0  0
  2  4  1  0  0  0  0
  3  4  1  0  0  0  0
  5  3  1  0  0  0  0
  6 17  1  1  0  0  0
  6  2  1  0  0  0  0
  8  7  1  0  0  0  0
 10  9  1  1  0  0  0
 11 14  1  0  0  0  0
 12 10  1  0  0  0  0
 14 13  1  6  0  0  0
 14 10  1  0  0  0  0
 15 11  1  0  0  0  0
 16 11  1  0  0  0  0
 16 12  1  0  0  0  0
 18 27  1  0  0  0  0
 19 24  2  0  0  0  0
 20 17  1  1  0  0  0
 20 22  1  0  0  0  0
 21 26  1  0  0  0  0
 22 19  1  0  0  0  0
 22 18  2  0  0  0  0
 23 28  2  0  0  0  0
 23 25  1  0  0  0  0
 24 21  1  0  0  0  0
 25 19  1  0  0  0  0
 27 21  2  0  0  0  0
 28 20  1  0  0  0  0
M  END
>  <MODEL>
6

>  <REMARK>
 VINA RESULT:      -8.1      1.597      2.407
  Name = 
  5 active torsions:
  status: ('A' for Active; 'I' for Inactive)
    1  A    between atoms: C_1  and  O_2
    2  A    between atoms: O_2  and  C_3
    3  A    between atoms: C_10  and  C_17
    4  A    between atoms: C_16  and  C_20
    5  A    between atoms: C_17  and  C_27
                            x       y       z     vdW  Elec       q    Type
                         _______ _______ _______ _____ _____    ______ ____

>  <TORSDO>
F 5

$$$$
=
 OpenBabel10262420423D

 28 31  0  0  1  0  0  0  0  0999 V2000
  185.1360  178.6270  138.9860 C   0  0  2  0  0  3  0  0  0  0  0  0
  183.3810  178.1810  140.7330 C   0  0  2  0  0  3  0  0  0  0  0  0
  183.1650  179.6760  138.7190 C   0  0  0  0  0  2  0  0  0  0  0  0
  182.6730  179.4100  140.1450 C   0  0  0  0  0  2  0  0  0  0  0  0
  184.5550  179.8790  138.7230 O   0  0  0  0  0  0  0  0  0  0  0  0
  184.8880  178.2110  140.4470 C   0  0  2  0  0  3  0  0  0  0  0  0
  181.3820  176.9750  140.2190 O   0  0  0  0  0  1  0  0  0  0  0  0
  182.7740  176.8920  140.1980 C   0  0  0  0  0  2  0  0  0  0  0  0
  186.5160  178.6660  138.7040 O   0  0  0  0  0  0  0  0  0  0  0  0
  186.7490  178.2180  137.3800 C   0  0  2  0  0  3  0  0  0  0  0  0
  188.0280  176.5180  136.2440 N   0  0  0  0  0  0  0  0  0  0  0  0
  185.7870  177.1550  136.9150 C   0  0  0  0  0  2  0  0  0  0  0  0
  188.9630  178.6270  136.6030 O   0  0  0  0  0  1  0  0  0  0  0  0
  188.1390  177.6500  137.1600 C   0  0  1  0  0  3  0  0  0  0  0  0
  188.4970  175.3450  136.9620 C   0  0  0  0  0  1  0  0  0  0  0  0
  186.6070  176.3100  135.9640 C   0  0  0  0  0  2  0  0  0  0  0  0
  185.6050  179.1470  141.4180 C   0  0  0  0  0  2  0  0  0  0  0  0
  184.7840  178.9100  144.1800 C   0  0  0  0  0  3  0  0  0  0  0  0
  186.8050  177.3730  144.6570 C   0  0  0  0  0  0  0  0  0  0  0  0
  186.4040  178.3590  142.4120 C   0  0  1  0  0  3  0  0  0  0  0  0
  185.2930  178.1980  146.4630 C   0  0  0  0  0  0  0  0  0  0  0  0
  186.0200  178.2560  143.7020 C   0  0  0  0  0  0  0  0  0  0  0  0
  188.5980  177.2870  142.7410 C   0  0  0  0  0  3  0  0  0  0  0  0
  186.3930  177.5360  146.0970 C   0  0  0  0  0  3  0  0  0  0  0  0
  188.5860  177.7030  144.4910 S   0  0  0  0  0  0  0  0  0  0  0  0
  184.9690  178.2770  147.7760 F   0  0  0  0  0  0  0  0  0  0  0  0
  184.4450  178.8760  145.4680 C   0  0  0  0  0  3  0  0  0  0  0  0
  187.6250  177.6870  141.9220 C   0  0  0  0  0  3  0  0  0  0  0  0
  1  9  1  1  0  0  0
  1  6  1  0  0  0  0
  2  8  1  6  0  0  0
  3  5  1  0  0  0  0
  3  4  1  0  0  0  0
  4  2  1  0  0  0  0
  5  1  1  0  0  0  0
  6  2  1  0  0  0  0
  6 17  1  1  0  0  0
  8  7  1  0  0  0  0
 10  9  1  1  0  0  0
 11 15  1  0  0  0  0
 11 14  1  0  0  0  0
 12 10  1  0  0  0  0
 14 13  1  6  0  0  0
 14 10  1  0  0  0  0
 16 11  1  0  0  0  0
 16 12  1  0  0  0  0
 18 27  1  0  0  0  0
 19 24  2  0  0  0  0
 20 17  1  6  0  0  0
 20 22  1  0  0  0  0
 21 26  1  0  0  0  0
 22 18  2  0  0  0  0
 22 19  1  0  0  0  0
 23 25  1  0  0  0  0
 24 21  1  0  0  0  0
 25 19  1  0  0  0  0
 27 21  2  0  0  0  0
 28 20  1  0  0  0  0
 28 23  2  0  0  0  0
M  END
>  <MODEL>
7

>  <REMARK>
 VINA RESULT:      -8.1      3.030      5.384
  Name = 
  5 active torsions:
  status: ('A' for Active; 'I' for Inactive)
    1  A    between atoms: C_1  and  O_2
    2  A    between atoms: O_2  and  C_3
    3  A    between atoms: C_10  and  C_17
    4  A    between atoms: C_16  and  C_20
    5  A    between atoms: C_17  and  C_27
                            x       y       z     vdW  Elec       q    Type
                         _______ _______ _______ _____ _____    ______ ____

>  <TORSDO>
F 5

$$$$
=
 OpenBabel10262420423D

 28 31  0  0  1  0  0  0  0  0999 V2000
  188.0420  177.1390  143.9670 C   0  0  2  0  0  3  0  0  0  0  0  0
  190.3430  176.9810  142.9620 C   0  0  2  0  0  3  0  0  0  0  0  0
  189.7580  177.7330  145.2920 C   0  0  0  0  0  2  0  0  0  0  0  0
  190.7790  177.8430  144.1560 C   0  0  0  0  0  2  0  0  0  0  0  0
  188.4920  178.1420  144.8410 O   0  0  0  0  0  0  0  0  0  0  0  0
  188.8500  177.1570  142.6570 C   0  0  2  0  0  3  0  0  0  0  0  0
  191.8630  175.3880  143.8930 O   0  0  0  0  0  1  0  0  0  0  0  0
  190.6560  175.5110  143.2070 C   0  0  0  0  0  2  0  0  0  0  0  0
  186.6670  177.3050  143.7090 O   0  0  0  0  0  0  0  0  0  0  0  0
  186.1270  178.2770  144.5860 C   0  0  2  0  0  3  0  0  0  0  0  0
  183.9890  179.2770  145.0840 N   0  0  0  0  0  0  0  0  0  0  0  0
  185.6560  177.7190  145.9040 C   0  0  0  0  0  2  0  0  0  0  0  0
  185.3830  180.2560  143.4870 O   0  0  0  0  0  1  0  0  0  0  0  0
  184.9470  179.0380  144.0080 C   0  0  1  0  0  3  0  0  0  0  0  0
  182.7560  178.6060  144.7090 C   0  0  0  0  0  1  0  0  0  0  0  0
  184.4930  178.6100  146.2850 C   0  0  0  0  0  2  0  0  0  0  0  0
  188.6060  178.4460  141.8740 C   0  0  0  0  0  2  0  0  0  0  0  0
  186.0870  178.6990  140.4800 C   0  0  0  0  0  3  0  0  0  0  0  0
  187.2410  178.0530  138.2610 C   0  0  0  0  0  0  0  0  0  0  0  0
  188.4850  178.1540  140.4090 C   0  0  1  0  0  3  0  0  0  0  0  0
  184.7700  178.3370  138.4520 C   0  0  0  0  0  0  0  0  0  0  0  0
  187.3060  178.2670  139.7630 C   0  0  0  0  0  0  0  0  0  0  0  0
  189.6780  177.1120  138.5210 C   0  0  0  0  0  3  0  0  0  0  0  0
  185.8350  177.9920  137.7250 C   0  0  0  0  0  3  0  0  0  0  0  0
  188.1320  176.5330  137.8090 S   0  0  0  0  0  0  0  0  0  0  0  0
  183.5370  178.2870  137.8930 F   0  0  0  0  0  0  0  0  0  0  0  0
  184.9070  178.7360  139.8630 C   0  0  0  0  0  3  0  0  0  0  0  0
  189.7120  177.7470  139.6940 C   0  0  0  0  0  3  0  0  0  0  0  0
  1  9  1  6  0  0  0
  1  5  1  0  0  0  0
  2  8  1  1  0  0  0
  2  4  1  0  0  0  0
  4  3  1  0  0  0  0
  5  3  1  0  0  0  0
  6 17  1  1  0  0  0
  6  2  1  0  0  0  0
  6  1  1  0  0  0  0
  8  7  1  0  0  0  0
 10  9  1  6  0  0  0
 10 12  1  0  0  0  0
 11 16  1  0  0  0  0
 12 16  1  0  0  0  0
 14 13  1  1  0  0  0
 14 10  1  0  0  0  0
 14 11  1  0  0  0  0
 15 11  1  0  0  0  0
 19 22  1  0  0  0  0
 20 17  1  6  0  0  0
 21 27  2  0  0  0  0
 22 20  1  0  0  0  0
 22 18  2  0  0  0  0
 23 28  2  0  0  0  0
 24 19  2  0  0  0  0
 24 21  1  0  0  0  0
 25 19  1  0  0  0  0
 25 23  1  0  0  0  0
 26 21  1  0  0  0  0
 27 18  1  0  0  0  0
 28 20  1  0  0  0  0
M  END
>  <MODEL>
8

>  <REMARK>
 VINA RESULT:      -7.7      3.555      6.189
  Name = 
  5 active torsions:
  status: ('A' for Active; 'I' for Inactive)
    1  A    between atoms: C_1  and  O_2
    2  A    between atoms: O_2  and  C_3
    3  A    between atoms: C_10  and  C_17
    4  A    between atoms: C_16  and  C_20
    5  A    between atoms: C_17  and  C_27
                            x       y       z     vdW  Elec       q    Type
                         _______ _______ _______ _____ _____    ______ ____

>  <TORSDO>
F 5

$$$$
=
 OpenBabel10262420423D

 28 31  0  0  1  0  0  0  0  0999 V2000
  189.7080  177.2150  138.0620 C   0  0  2  0  0  3  0  0  0  0  0  0
  187.2040  177.4610  138.0690 C   0  0  2  0  0  3  0  0  0  0  0  0
  188.8040  178.3370  136.3350 C   0  0  0  0  0  2  0  0  0  0  0  0
  187.4390  178.5370  136.9990 C   0  0  0  0  0  2  0  0  0  0  0  0
  189.8210  178.3930  137.3030 O   0  0  0  0  0  0  0  0  0  0  0  0
  188.4480  177.2580  138.9440 C   0  0  2  0  0  3  0  0  0  0  0  0
  185.5990  176.3020  136.7300 O   0  0  0  0  0  1  0  0  0  0  0  0
  186.7900  176.1400  137.4350 C   0  0  0  0  0  2  0  0  0  0  0  0
  190.8630  177.0350  138.8470 O   0  0  0  0  0  0  0  0  0  0  0  0
  191.6780  176.0250  138.2800 C   0  0  2  0  0  3  0  0  0  0  0  0
  191.9900  174.9350  136.1510 N   0  0  0  0  0  0  0  0  0  0  0  0
  192.9650  176.5390  137.6850 C   0  0  0  0  0  2  0  0  0  0  0  0
  190.4910  174.0420  137.7030 O   0  0  0  0  0  1  0  0  0  0  0  0
  190.9960  175.2310  137.1790 C   0  0  1  0  0  3  0  0  0  0  0  0
  191.5310  175.5660  134.9250 C   0  0  0  0  0  1  0  0  0  0  0  0
  193.2370  175.5960  136.5330 C   0  0  0  0  0  2  0  0  0  0  0  0
  188.5490  178.3540  140.0030 C   0  0  0  0  0  2  0  0  0  0  0  0
  186.2270  178.8610  141.6480 C   0  0  0  0  0  3  0  0  0  0  0  0
  187.1910  177.3320  143.4930 C   0  0  0  0  0  0  0  0  0  0  0  0
  188.4160  177.7710  141.3770 C   0  0  1  0  0  3  0  0  0  0  0  0
  185.1220  178.6870  143.8220 C   0  0  0  0  0  0  0  0  0  0  0  0
  187.3330  178.0150  142.1440 C   0  0  0  0  0  0  0  0  0  0  0  0
  189.7010  176.6410  143.1500 C   0  0  0  0  0  3  0  0  0  0  0  0
  186.0540  177.8710  144.3210 C   0  0  0  0  0  3  0  0  0  0  0  0
  188.7450  177.4690  144.4290 S   0  0  0  0  0  0  0  0  0  0  0  0
  184.1100  179.1080  144.6180 F   0  0  0  0  0  0  0  0  0  0  0  0
  185.1940  179.1680  142.4320 C   0  0  0  0  0  3  0  0  0  0  0  0
  189.5130  176.9060  141.8570 C   0  0  0  0  0  3  0  0  0  0  0  0
  1  9  1  1  0  0  0
  1  6  1  0  0  0  0
  2  8  1  6  0  0  0
  2  6  1  0  0  0  0
  3  4  1  0  0  0  0
  3  5  1  0  0  0  0
  4  2  1  0  0  0  0
  5  1  1  0  0  0  0
  6 17  1  1  0  0  0
  7  8  1  0  0  0  0
 10  9  1  6  0  0  0
 11 16  1  0  0  0  0
 11 14  1  0  0  0  0
 12 10  1  0  0  0  0
 14 13  1  1  0  0  0
 14 10  1  0  0  0  0
 15 11  1  0  0  0  0
 16 12  1  0  0  0  0
 18 22  2  0  0  0  0
 18 27  1  0  0  0  0
 19 24  2  0  0  0  0
 19 25  1  0  0  0  0
 20 17  1  6  0  0  0
 20 28  1  0  0  0  0
 20 22  1  0  0  0  0
 21 24  1  0  0  0  0
 21 26  1  0  0  0  0
 22 19  1  0  0  0  0
 23 25  1  0  0  0  0
 27 21  2  0  0  0  0
 28 23  2  0  0  0  0
M  END
>  <MODEL>
9

>  <REMARK>
 VINA RESULT:      -7.6      2.432      4.752
  Name = 
  5 active torsions:
  status: ('A' for Active; 'I' for Inactive)
    1  A    between atoms: C_1  and  O_2
    2  A    between atoms: O_2  and  C_3
    3  A    between atoms: C_10  and  C_17
    4  A    between atoms: C_16  and  C_20
    5  A    between atoms: C_17  and  C_27
                            x       y       z     vdW  Elec       q    Type
                         _______ _______ _______ _____ _____    ______ ____

>  <TORSDO>
F 5

$$$$
