=
 OpenBabel10262420073D

 27 31  0  0  0  0  0  0  0  0999 V2000
  187.4150  178.5890  141.5100 N   0  0  0  0  0  0  0  0  0  0  0  0
  187.7210  177.7590  143.8010 C   0  0  0  0  0  0  0  0  0  0  0  0
  189.5590  176.7430  142.4160 N   0  0  0  0  0  0  0  0  0  0  0  0
  190.0100  177.0380  147.1830 C   0  0  0  0  0  3  0  0  0  0  0  0
  192.1310  176.4170  148.2910 O   0  0  0  0  0  1  0  0  0  0  0  0
  187.2390  177.9170  145.1150 C   0  0  0  0  0  3  0  0  0  0  0  0
  191.2400  176.4770  144.6440 C   0  0  0  0  0  2  0  0  0  0  0  0
  190.4720  177.2740  139.0660 N   0  0  0  0  0  0  0  0  0  0  0  0
  191.9830  176.3330  145.9440 C   0  0  0  0  0  3  0  0  0  0  0  0
  191.0500  176.4680  138.0080 C   0  0  0  0  0  1  0  0  0  0  0  0
  189.8360  177.0280  144.7990 C   0  0  0  0  0  0  0  0  0  0  0  0
  186.9090  178.1290  142.7720 C   0  0  0  0  0  0  0  0  0  0  0  0
  191.4070  176.5830  147.1190 C   0  0  0  0  0  0  0  0  0  0  0  0
  189.2900  177.2480  146.0780 C   0  0  0  0  0  0  0  0  0  0  0  0
  188.4380  178.2070  140.8190 C   0  0  0  0  0  0  0  0  0  0  0  0
  189.0480  177.2660  143.6520 C   0  0  0  0  0  0  0  0  0  0  0  0
  190.0080  176.3450  140.0950 C   0  0  0  0  0  2  0  0  0  0  0  0
  188.0100  177.6660  146.1990 N   0  0  0  0  0  0  0  0  0  0  0  0
  189.3040  177.9420  138.4940 C   0  0  0  0  0  2  0  0  0  0  0  0
  188.7060  178.9040  139.5180 C   0  0  0  0  0  2  0  0  0  0  0  0
  189.3060  177.0820  141.1960 C   0  0  0  0  0  0  0  0  0  0  0  0
  182.7190  178.7340  143.3530 C   0  0  0  0  0  3  0  0  0  0  0  0
  185.4560  178.3790  142.9860 C   0  0  0  0  0  0  0  0  0  0  0  0
  184.9540  178.7340  144.2460 C   0  0  0  0  0  3  0  0  0  0  0  0
  183.5840  178.9190  144.4320 C   0  0  0  0  0  3  0  0  0  0  0  0
  183.2120  178.3720  142.1390 N   0  0  0  0  0  0  0  0  0  0  0  0
  184.5450  178.1870  141.9380 C   0  0  0  0  0  3  0  0  0  0  0  0
  1 12  1  0  0  0  0
  2  6  1  0  0  0  0
  3 16  1  0  0  0  0
  6 18  2  0  0  0  0
  7 11  1  0  0  0  0
  7  9  1  0  0  0  0
  8 17  1  0  0  0  0
  9 13  2  0  0  0  0
 10  8  1  0  0  0  0
 11 14  1  0  0  0  0
 12 23  1  0  0  0  0
 12  2  2  0  0  0  0
 13  4  1  0  0  0  0
 13  5  1  0  0  0  0
 14 18  1  0  0  0  0
 14  4  2  0  0  0  0
 15 21  1  0  0  0  0
 15  1  2  0  0  0  0
 16  2  1  0  0  0  0
 16 11  2  0  0  0  0
 17 21  1  0  0  0  0
 19  8  1  0  0  0  0
 19 20  1  0  0  0  0
 20 15  1  0  0  0  0
 21  3  2  0  0  0  0
 22 25  1  0  0  0  0
 23 24  1  0  0  0  0
 24 25  2  0  0  0  0
 26 22  2  0  0  0  0
 27 26  1  0  0  0  0
 27 23  2  0  0  0  0
M  END
>  <MODEL>
1

>  <REMARK>
 VINA RESULT:     -10.3      0.000      0.000
  Name = 
  1 active torsions:
  status: ('A' for Active; 'I' for Inactive)
    1  A    between atoms: C_9  and  C_15
                            x       y       z     vdW  Elec       q    Type
                         _______ _______ _______ _____ _____    ______ ____

>  <TORSDO>
F 1

$$$$
=
 OpenBabel10262420073D

 27 31  0  0  0  0  0  0  0  0999 V2000
  186.9130  178.7470  140.1480 N   0  0  0  0  0  0  0  0  0  0  0  0
  186.1330  178.2110  142.4140 C   0  0  0  0  0  0  0  0  0  0  0  0
  188.4090  177.1680  142.1710 N   0  0  0  0  0  0  0  0  0  0  0  0
  186.6090  178.0430  146.5310 C   0  0  0  0  0  3  0  0  0  0  0  0
  187.9830  177.7000  148.5560 O   0  0  0  0  0  1  0  0  0  0  0  0
  185.0980  178.4870  143.3290 C   0  0  0  0  0  3  0  0  0  0  0  0
  188.8750  177.2760  144.9340 C   0  0  0  0  0  2  0  0  0  0  0  0
  190.7610  177.3670  139.5690 N   0  0  0  0  0  0  0  0  0  0  0  0
  188.9350  177.3340  146.4350 C   0  0  0  0  0  3  0  0  0  0  0  0
  191.7680  176.4840  139.0110 C   0  0  0  0  0  1  0  0  0  0  0  0
  187.5540  177.7450  144.3550 C   0  0  0  0  0  0  0  0  0  0  0  0
  185.8850  178.4040  141.0890 C   0  0  0  0  0  0  0  0  0  0  0  0
  187.8800  177.6790  147.1730 C   0  0  0  0  0  0  0  0  0  0  0  0
  186.4780  178.0750  145.2020 C   0  0  0  0  0  0  0  0  0  0  0  0
  188.1420  178.3570  140.0590 C   0  0  0  0  0  0  0  0  0  0  0  0
  187.3830  177.7950  142.9550 C   0  0  0  0  0  0  0  0  0  0  0  0
  189.8810  176.5340  140.3870 C   0  0  0  0  0  2  0  0  0  0  0  0
  185.2840  178.4170  144.6680 N   0  0  0  0  0  0  0  0  0  0  0  0
  189.9850  177.8830  138.4440 C   0  0  0  0  0  2  0  0  0  0  0  0
  188.9750  178.9160  138.9430 C   0  0  0  0  0  2  0  0  0  0  0  0
  188.7460  177.3450  140.9370 C   0  0  0  0  0  0  0  0  0  0  0  0
  181.9400  178.8850  139.5190 C   0  0  0  0  0  3  0  0  0  0  0  0
  184.4960  178.5780  140.5800 C   0  0  0  0  0  0  0  0  0  0  0  0
  183.4570  177.7280  140.9860 C   0  0  0  0  0  3  0  0  0  0  0  0
  182.1740  177.8830  140.4620 C   0  0  0  0  0  3  0  0  0  0  0  0
  182.9570  179.6930  139.1180 N   0  0  0  0  0  0  0  0  0  0  0  0
  184.2140  179.5580  139.6180 C   0  0  0  0  0  3  0  0  0  0  0  0
  1 12  1  0  0  0  0
  2 16  1  0  0  0  0
  2  6  1  0  0  0  0
  3 16  1  0  0  0  0
  4 13  1  0  0  0  0
  6 18  2  0  0  0  0
  7  9  1  0  0  0  0
  8 17  1  0  0  0  0
  9 13  2  0  0  0  0
 10  8  1  0  0  0  0
 11  7  1  0  0  0  0
 11 14  1  0  0  0  0
 12  2  2  0  0  0  0
 13  5  1  0  0  0  0
 14  4  2  0  0  0  0
 15  1  2  0  0  0  0
 15 21  1  0  0  0  0
 16 11  2  0  0  0  0
 17 21  1  0  0  0  0
 18 14  1  0  0  0  0
 19 20  1  0  0  0  0
 19  8  1  0  0  0  0
 20 15  1  0  0  0  0
 21  3  2  0  0  0  0
 22 25  1  0  0  0  0
 23 24  1  0  0  0  0
 23 12  1  0  0  0  0
 25 24  2  0  0  0  0
 26 22  2  0  0  0  0
 26 27  1  0  0  0  0
 27 23  2  0  0  0  0
M  END
>  <MODEL>
2

>  <REMARK>
 VINA RESULT:     -10.2      1.851      2.646
  Name = 
  1 active torsions:
  status: ('A' for Active; 'I' for Inactive)
    1  A    between atoms: C_9  and  C_15
                            x       y       z     vdW  Elec       q    Type
                         _______ _______ _______ _____ _____    ______ ____

>  <TORSDO>
F 1

$$$$
=
 OpenBabel10262420073D

 27 31  0  0  0  0  0  0  0  0999 V2000
  188.3850  177.0260  143.9330 N   0  0  0  0  0  0  0  0  0  0  0  0
  186.2540  178.0990  144.5140 C   0  0  0  0  0  0  0  0  0  0  0  0
  186.6150  178.4990  142.0570 N   0  0  0  0  0  0  0  0  0  0  0  0
  182.2100  178.8130  143.9330 C   0  0  0  0  0  3  0  0  0  0  0  0
  180.2390  179.1350  142.4770 O   0  0  0  0  0  1  0  0  0  0  0  0
  185.3290  178.2370  145.5670 C   0  0  0  0  0  3  0  0  0  0  0  0
  183.8620  178.7320  141.5790 C   0  0  0  0  0  2  0  0  0  0  0  0
  189.0990  177.3100  139.8760 N   0  0  0  0  0  0  0  0  0  0  0  0
  182.3700  178.9060  141.5050 C   0  0  0  0  0  3  0  0  0  0  0  0
  189.7710  177.8150  138.6950 C   0  0  0  0  0  1  0  0  0  0  0  0
  184.3850  178.5120  142.9850 C   0  0  0  0  0  0  0  0  0  0  0  0
  187.5350  177.7600  144.8280 C   0  0  0  0  0  0  0  0  0  0  0  0
  181.6090  178.9550  142.5980 C   0  0  0  0  0  0  0  0  0  0  0  0
  183.5190  178.5990  144.0920 C   0  0  0  0  0  0  0  0  0  0  0  0
  188.5110  177.0840  142.6480 C   0  0  0  0  0  0  0  0  0  0  0  0
  185.7620  178.2790  143.1900 C   0  0  0  0  0  0  0  0  0  0  0  0
  188.4460  178.4540  140.5100 C   0  0  0  0  0  2  0  0  0  0  0  0
  184.0160  178.4770  145.3440 N   0  0  0  0  0  0  0  0  0  0  0  0
  190.1410  176.8230  140.7770 C   0  0  0  0  0  2  0  0  0  0  0  0
  189.5030  176.1640  141.9990 C   0  0  0  0  0  2  0  0  0  0  0  0
  187.7960  178.0460  141.7980 C   0  0  0  0  0  0  0  0  0  0  0  0
  189.0620  178.0960  148.8050 C   0  0  0  0  0  3  0  0  0  0  0  0
  188.0380  177.8500  146.2270 C   0  0  0  0  0  0  0  0  0  0  0  0
  187.2270  178.3290  147.2650 C   0  0  0  0  0  3  0  0  0  0  0  0
  187.7340  178.4470  148.5590 C   0  0  0  0  0  3  0  0  0  0  0  0
  189.8480  177.6500  147.7880 N   0  0  0  0  0  0  0  0  0  0  0  0
  189.3710  177.5270  146.5200 C   0  0  0  0  0  3  0  0  0  0  0  0
  1 12  1  0  0  0  0
  2 12  2  0  0  0  0
  2  6  1  0  0  0  0
  3 16  1  0  0  0  0
  4 14  2  0  0  0  0
  5 13  1  0  0  0  0
  7 11  1  0  0  0  0
  8 17  1  0  0  0  0
  8 19  1  0  0  0  0
  9  7  1  0  0  0  0
  9 13  2  0  0  0  0
 10  8  1  0  0  0  0
 11 16  2  0  0  0  0
 11 14  1  0  0  0  0
 12 23  1  0  0  0  0
 13  4  1  0  0  0  0
 14 18  1  0  0  0  0
 15  1  2  0  0  0  0
 16  2  1  0  0  0  0
 17 21  1  0  0  0  0
 18  6  2  0  0  0  0
 19 20  1  0  0  0  0
 20 15  1  0  0  0  0
 21  3  2  0  0  0  0
 21 15  1  0  0  0  0
 23 27  2  0  0  0  0
 23 24  1  0  0  0  0
 24 25  2  0  0  0  0
 25 22  1  0  0  0  0
 26 22  2  0  0  0  0
 27 26  1  0  0  0  0
M  END
>  <MODEL>
3

>  <REMARK>
 VINA RESULT:     -10.1      3.034      6.099
  Name = 
  1 active torsions:
  status: ('A' for Active; 'I' for Inactive)
    1  A    between atoms: C_9  and  C_15
                            x       y       z     vdW  Elec       q    Type
                         _______ _______ _______ _____ _____    ______ ____

>  <TORSDO>
F 1

$$$$
=
 OpenBabel10262420073D

 27 31  0  0  0  0  0  0  0  0999 V2000
  189.7590  178.2900  142.0230 N   0  0  0  0  0  0  0  0  0  0  0  0
  187.3750  178.1410  141.4510 C   0  0  0  0  0  0  0  0  0  0  0  0
  187.5760  177.4940  143.8730 N   0  0  0  0  0  0  0  0  0  0  0  0
  183.3680  178.9820  142.1130 C   0  0  0  0  0  2  0  0  0  0  0  0
  181.4340  179.3490  143.6070 O   0  0  0  0  0  1  0  0  0  0  0  0
  186.4590  178.4250  140.4200 C   0  0  0  0  0  3  0  0  0  0  0  0
  184.9450  178.2960  144.4190 C   0  0  0  0  0  3  0  0  0  0  0  0
  190.3420  177.5260  146.0390 N   0  0  0  0  0  0  0  0  0  0  0  0
  183.4990  178.6970  144.5270 C   0  0  0  0  0  3  0  0  0  0  0  0
  190.7810  176.7360  147.1730 C   0  0  0  0  0  1  0  0  0  0  0  0
  185.5010  178.3810  143.0100 C   0  0  0  0  0  0  0  0  0  0  0  0
  188.6870  177.9870  141.1180 C   0  0  0  0  0  0  0  0  0  0  0  0
  182.7690  179.0030  143.4550 C   0  0  0  0  0  0  0  0  0  0  0  0
  184.6590  178.6930  141.9260 C   0  0  0  0  0  0  0  0  0  0  0  0
  189.8630  178.1160  143.2990 C   0  0  0  0  0  0  0  0  0  0  0  0
  186.8620  178.0860  142.7780 C   0  0  0  0  0  0  0  0  0  0  0  0
  189.2980  176.7530  145.3680 C   0  0  0  0  0  2  0  0  0  0  0  0
  185.1550  178.6890  140.6680 N   0  0  0  0  0  0  0  0  0  0  0  0
  191.4840  177.6320  145.1330 C   0  0  0  0  0  2  0  0  0  0  0  0
  191.1350  178.5520  143.9650 C   0  0  0  0  0  2  0  0  0  0  0  0
  188.8430  177.4500  144.1200 C   0  0  0  0  0  0  0  0  0  0  0  0
  189.8050  177.3480  137.0430 C   0  0  0  0  0  3  0  0  0  0  0  0
  189.1070  177.7930  139.7020 C   0  0  0  0  0  0  0  0  0  0  0  0
  189.0550  178.8430  138.7740 C   0  0  0  0  0  3  0  0  0  0  0  0
  189.4110  178.6260  137.4430 C   0  0  0  0  0  3  0  0  0  0  0  0
  189.8350  176.3310  137.9460 N   0  0  0  0  0  0  0  0  0  0  0  0
  189.4930  176.5230  139.2480 C   0  0  0  0  0  3  0  0  0  0  0  0
  1 15  1  0  0  0  0
  2 16  1  0  0  0  0
  3 21  1  0  0  0  0
  4 13  1  0  0  0  0
  6 18  1  0  0  0  0
  6  2  2  0  0  0  0
  7  9  1  0  0  0  0
  8 10  1  0  0  0  0
 11  7  2  0  0  0  0
 12  2  1  0  0  0  0
 12  1  2  0  0  0  0
 13  5  1  0  0  0  0
 13  9  2  0  0  0  0
 14  4  1  0  0  0  0
 14 11  1  0  0  0  0
 15 20  1  0  0  0  0
 15 21  2  0  0  0  0
 16 11  1  0  0  0  0
 16  3  2  0  0  0  0
 17  8  1  0  0  0  0
 18 14  2  0  0  0  0
 19  8  1  0  0  0  0
 20 19  1  0  0  0  0
 21 17  1  0  0  0  0
 22 25  2  0  0  0  0
 22 26  1  0  0  0  0
 23 12  1  0  0  0  0
 24 23  2  0  0  0  0
 25 24  1  0  0  0  0
 26 27  2  0  0  0  0
 27 23  1  0  0  0  0
M  END
>  <MODEL>
4

>  <REMARK>
 VINA RESULT:      -9.9      2.668      6.645
  Name = 
  1 active torsions:
  status: ('A' for Active; 'I' for Inactive)
    1  A    between atoms: C_9  and  C_15
                            x       y       z     vdW  Elec       q    Type
                         _______ _______ _______ _____ _____    ______ ____

>  <TORSDO>
F 1

$$$$
=
 OpenBabel10262420073D

 27 31  0  0  0  0  0  0  0  0999 V2000
  189.3000  176.8800  142.8930 N   0  0  0  0  0  0  0  0  0  0  0  0
  187.4080  177.8370  144.1320 C   0  0  0  0  0  0  0  0  0  0  0  0
  187.1890  178.6330  141.7560 N   0  0  0  0  0  0  0  0  0  0  0  0
  183.3700  178.6220  144.6600 C   0  0  0  0  0  3  0  0  0  0  0  0
  181.1220  179.1700  143.7910 O   0  0  0  0  0  1  0  0  0  0  0  0
  186.7650  177.7990  145.3850 C   0  0  0  0  0  3  0  0  0  0  0  0
  184.4110  178.9300  141.9960 C   0  0  0  0  0  2  0  0  0  0  0  0
  189.0390  177.8210  138.8820 N   0  0  0  0  0  0  0  0  0  0  0  0
  182.9510  179.1090  142.3120 C   0  0  0  0  0  3  0  0  0  0  0  0
  189.4290  178.5150  137.6690 C   0  0  0  0  0  1  0  0  0  0  0  0
  185.2450  178.4870  143.1830 C   0  0  0  0  0  0  0  0  0  0  0  0
  188.7140  177.4550  144.0710 C   0  0  0  0  0  0  0  0  0  0  0  0
  182.4740  178.9770  143.5490 C   0  0  0  0  0  0  0  0  0  0  0  0
  184.6710  178.3890  144.4650 C   0  0  0  0  0  0  0  0  0  0  0  0
  189.1190  177.1460  141.6420 C   0  0  0  0  0  0  0  0  0  0  0  0
  186.6220  178.2280  143.0110 C   0  0  0  0  0  0  0  0  0  0  0  0
  188.5960  178.8450  139.8270 C   0  0  0  0  0  2  0  0  0  0  0  0
  185.4450  178.0680  145.5250 N   0  0  0  0  0  0  0  0  0  0  0  0
  190.2470  177.1980  139.4170 C   0  0  0  0  0  2  0  0  0  0  0  0
  189.8940  176.3480  140.6360 C   0  0  0  0  0  2  0  0  0  0  0  0
  188.2570  178.2310  141.1520 C   0  0  0  0  0  0  0  0  0  0  0  0
  191.1450  177.1550  147.5720 C   0  0  0  0  0  3  0  0  0  0  0  0
  189.5380  177.3190  145.3040 C   0  0  0  0  0  0  0  0  0  0  0  0
  188.9800  177.4960  146.5790 C   0  0  0  0  0  3  0  0  0  0  0  0
  189.7810  177.4080  147.7170 C   0  0  0  0  0  3  0  0  0  0  0  0
  191.6810  177.0030  146.3310 N   0  0  0  0  0  0  0  0  0  0  0  0
  190.9170  177.0840  145.2090 C   0  0  0  0  0  3  0  0  0  0  0  0
  1 12  1  0  0  0  0
  2  6  1  0  0  0  0
  3 16  1  0  0  0  0
  6 18  2  0  0  0  0
  7  9  1  0  0  0  0
  7 11  1  0  0  0  0
  8 19  1  0  0  0  0
  8 17  1  0  0  0  0
  9 13  2  0  0  0  0
 10  8  1  0  0  0  0
 11 14  1  0  0  0  0
 12  2  2  0  0  0  0
 12 23  1  0  0  0  0
 13  5  1  0  0  0  0
 13  4  1  0  0  0  0
 14  4  2  0  0  0  0
 14 18  1  0  0  0  0
 15  1  2  0  0  0  0
 16 11  2  0  0  0  0
 16  2  1  0  0  0  0
 17 21  1  0  0  0  0
 19 20  1  0  0  0  0
 20 15  1  0  0  0  0
 21 15  1  0  0  0  0
 21  3  2  0  0  0  0
 22 25  1  0  0  0  0
 23 24  1  0  0  0  0
 24 25  2  0  0  0  0
 26 22  2  0  0  0  0
 27 23  2  0  0  0  0
 27 26  1  0  0  0  0
M  END
>  <MODEL>
5

>  <REMARK>
 VINA RESULT:      -9.6      2.633      5.832
  Name = 
  1 active torsions:
  status: ('A' for Active; 'I' for Inactive)
    1  A    between atoms: C_9  and  C_15
                            x       y       z     vdW  Elec       q    Type
                         _______ _______ _______ _____ _____    ______ ____

>  <TORSDO>
F 1

$$$$
=
 OpenBabel10262420073D

 27 31  0  0  0  0  0  0  0  0999 V2000
  191.0030  177.8520  142.1250 N   0  0  0  0  0  0  0  0  0  0  0  0
  189.0680  177.7380  140.6160 C   0  0  0  0  0  0  0  0  0  0  0  0
  188.1870  177.3810  142.9450 N   0  0  0  0  0  0  0  0  0  0  0  0
  185.2410  178.8260  139.4450 C   0  0  0  0  0  2  0  0  0  0  0  0
  182.9040  179.4560  139.9420 O   0  0  0  0  0  1  0  0  0  0  0  0
  188.6920  177.9340  139.2730 C   0  0  0  0  0  3  0  0  0  0  0  0
  185.6510  178.3570  142.2540 C   0  0  0  0  0  3  0  0  0  0  0  0
  189.7970  177.5560  146.0630 N   0  0  0  0  0  0  0  0  0  0  0  0
  184.3330  178.8310  141.7040 C   0  0  0  0  0  3  0  0  0  0  0  0
  189.6530  176.8910  147.3430 C   0  0  0  0  0  1  0  0  0  0  0  0
  186.7460  178.2460  141.2100 C   0  0  0  0  0  0  0  0  0  0  0  0
  190.3800  177.4870  140.8840 C   0  0  0  0  0  0  0  0  0  0  0  0
  184.1440  179.0360  140.4010 C   0  0  0  0  0  0  0  0  0  0  0  0
  186.4610  178.4610  139.8480 C   0  0  0  0  0  0  0  0  0  0  0  0
  190.5520  177.8290  143.3350 C   0  0  0  0  0  0  0  0  0  0  0  0
  188.0480  177.8670  141.6020 C   0  0  0  0  0  0  0  0  0  0  0  0
  189.0600  176.7530  145.0880 C   0  0  0  0  0  2  0  0  0  0  0  0
  187.4310  178.2820  138.9230 N   0  0  0  0  0  0  0  0  0  0  0  0
  191.2170  177.5010  145.7180 C   0  0  0  0  0  2  0  0  0  0  0  0
  191.4680  178.2870  144.4330 C   0  0  0  0  0  2  0  0  0  0  0  0
  189.2280  177.3130  143.7070 C   0  0  0  0  0  0  0  0  0  0  0  0
  193.1730  176.3360  137.8610 C   0  0  0  0  0  3  0  0  0  0  0  0
  191.3290  177.1050  139.8020 C   0  0  0  0  0  0  0  0  0  0  0  0
  190.9320  176.2810  138.7390 C   0  0  0  0  0  3  0  0  0  0  0  0
  191.8510  175.8990  137.7610 C   0  0  0  0  0  3  0  0  0  0  0  0
  193.5540  177.1190  138.9050 N   0  0  0  0  0  0  0  0  0  0  0  0
  192.6720  177.5030  139.8680 C   0  0  0  0  0  3  0  0  0  0  0  0
  1 15  1  0  0  0  0
  2 12  1  0  0  0  0
  2 16  1  0  0  0  0
  3 21  1  0  0  0  0
  4 14  1  0  0  0  0
  4 13  1  0  0  0  0
  5 13  1  0  0  0  0
  6  2  2  0  0  0  0
  8 10  1  0  0  0  0
  9  7  1  0  0  0  0
 11 16  1  0  0  0  0
 11  7  2  0  0  0  0
 12  1  2  0  0  0  0
 13  9  2  0  0  0  0
 14 11  1  0  0  0  0
 15 21  2  0  0  0  0
 15 20  1  0  0  0  0
 16  3  2  0  0  0  0
 17  8  1  0  0  0  0
 18  6  1  0  0  0  0
 18 14  2  0  0  0  0
 19  8  1  0  0  0  0
 20 19  1  0  0  0  0
 21 17  1  0  0  0  0
 22 26  1  0  0  0  0
 23 27  1  0  0  0  0
 23 12  1  0  0  0  0
 24 23  2  0  0  0  0
 25 22  2  0  0  0  0
 25 24  1  0  0  0  0
 26 27  2  0  0  0  0
M  END
>  <MODEL>
6

>  <REMARK>
 VINA RESULT:      -9.1      3.064      7.539
  Name = 
  1 active torsions:
  status: ('A' for Active; 'I' for Inactive)
    1  A    between atoms: C_9  and  C_15
                            x       y       z     vdW  Elec       q    Type
                         _______ _______ _______ _____ _____    ______ ____

>  <TORSDO>
F 1

$$$$
=
 OpenBabel10262420073D

 27 31  0  0  0  0  0  0  0  0999 V2000
  187.8250  178.4910  139.8140 N   0  0  0  0  0  0  0  0  0  0  0  0
  187.8490  177.8550  142.1860 C   0  0  0  0  0  0  0  0  0  0  0  0
  189.7600  176.6370  141.0950 N   0  0  0  0  0  0  0  0  0  0  0  0
  189.7370  177.3340  145.8420 C   0  0  0  0  0  3  0  0  0  0  0  0
  191.6960  176.7180  147.2170 O   0  0  0  0  0  1  0  0  0  0  0  0
  187.2440  178.1510  143.4230 C   0  0  0  0  0  3  0  0  0  0  0  0
  191.1880  176.4930  143.5040 C   0  0  0  0  0  2  0  0  0  0  0  0
  191.0390  176.8250  137.8280 N   0  0  0  0  0  0  0  0  0  0  0  0
  191.7850  176.4320  144.8830 C   0  0  0  0  0  3  0  0  0  0  0  0
  191.6780  175.9020  136.9100 C   0  0  0  0  0  1  0  0  0  0  0  0
  189.8070  177.1200  143.4610 C   0  0  0  0  0  0  0  0  0  0  0  0
  187.1680  178.1690  141.0490 C   0  0  0  0  0  0  0  0  0  0  0  0
  191.1060  176.8110  145.9650 C   0  0  0  0  0  0  0  0  0  0  0  0
  189.1470  177.4770  144.6520 C   0  0  0  0  0  0  0  0  0  0  0  0
  188.8910  178.0020  139.2710 C   0  0  0  0  0  0  0  0  0  0  0  0
  189.1560  177.2910  142.2210 C   0  0  0  0  0  0  0  0  0  0  0  0
  190.4220  176.0130  138.8770 C   0  0  0  0  0  2  0  0  0  0  0  0
  187.8860  177.9630  144.6010 N   0  0  0  0  0  0  0  0  0  0  0  0
  189.9740  177.4910  137.0820 C   0  0  0  0  0  2  0  0  0  0  0  0
  189.3280  178.5680  137.9520 C   0  0  0  0  0  2  0  0  0  0  0  0
  189.6530  176.8770  139.8310 C   0  0  0  0  0  0  0  0  0  0  0  0
  182.9870  179.0500  141.0630 C   0  0  0  0  0  3  0  0  0  0  0  0
  185.7170  178.5030  141.0850 C   0  0  0  0  0  0  0  0  0  0  0  0
  184.9420  178.2730  142.2310 C   0  0  0  0  0  3  0  0  0  0  0  0
  183.5760  178.5520  142.2260 C   0  0  0  0  0  3  0  0  0  0  0  0
  183.7410  179.2530  139.9510 N   0  0  0  0  0  0  0  0  0  0  0  0
  185.0750  178.9880  139.9360 C   0  0  0  0  0  3  0  0  0  0  0  0
  1 12  1  0  0  0  0
  2 16  1  0  0  0  0
  2  6  1  0  0  0  0
  3 16  1  0  0  0  0
  4 13  1  0  0  0  0
  6 18  2  0  0  0  0
  7  9  1  0  0  0  0
  8 17  1  0  0  0  0
  9 13  2  0  0  0  0
 10  8  1  0  0  0  0
 11  7  1  0  0  0  0
 11 14  1  0  0  0  0
 12 23  1  0  0  0  0
 12  2  2  0  0  0  0
 13  5  1  0  0  0  0
 14  4  2  0  0  0  0
 15  1  2  0  0  0  0
 15 21  1  0  0  0  0
 16 11  2  0  0  0  0
 17 21  1  0  0  0  0
 18 14  1  0  0  0  0
 19  8  1  0  0  0  0
 19 20  1  0  0  0  0
 20 15  1  0  0  0  0
 21  3  2  0  0  0  0
 22 25  1  0  0  0  0
 23 24  1  0  0  0  0
 25 24  2  0  0  0  0
 26 22  2  0  0  0  0
 27 26  1  0  0  0  0
 27 23  2  0  0  0  0
M  END
>  <MODEL>
7

>  <REMARK>
 VINA RESULT:      -9.0      1.306      1.662
  Name = 
  1 active torsions:
  status: ('A' for Active; 'I' for Inactive)
    1  A    between atoms: C_9  and  C_15
                            x       y       z     vdW  Elec       q    Type
                         _______ _______ _______ _____ _____    ______ ____

>  <TORSDO>
F 1

$$$$
=
 OpenBabel10262420073D

 27 31  0  0  0  0  0  0  0  0999 V2000
  189.4780  176.9360  140.6210 N   0  0  0  0  0  0  0  0  0  0  0  0
  187.6560  177.9600  141.9090 C   0  0  0  0  0  0  0  0  0  0  0  0
  187.2170  178.4960  139.4910 N   0  0  0  0  0  0  0  0  0  0  0  0
  183.6460  178.6760  142.6900 C   0  0  0  0  0  3  0  0  0  0  0  0
  181.3170  179.0620  141.9600 O   0  0  0  0  0  1  0  0  0  0  0  0
  187.1180  178.0340  143.2080 C   0  0  0  0  0  3  0  0  0  0  0  0
  184.4580  178.7350  139.9310 C   0  0  0  0  0  2  0  0  0  0  0  0
  188.8610  177.4440  136.5700 N   0  0  0  0  0  0  0  0  0  0  0  0
  183.0230  178.9020  140.3470 C   0  0  0  0  0  3  0  0  0  0  0  0
  189.1270  178.0190  135.2650 C   0  0  0  0  0  1  0  0  0  0  0  0
  185.4010  178.4430  141.0830 C   0  0  0  0  0  0  0  0  0  0  0  0
  188.9670  177.6130  141.7780 C   0  0  0  0  0  0  0  0  0  0  0  0
  182.6520  178.8850  141.6270 C   0  0  0  0  0  0  0  0  0  0  0  0
  184.9350  178.4620  142.4110 C   0  0  0  0  0  0  0  0  0  0  0  0
  189.1870  177.0640  139.3680 C   0  0  0  0  0  0  0  0  0  0  0  0
  186.7690  178.2080  140.8240 C   0  0  0  0  0  0  0  0  0  0  0  0
  188.4570  178.5480  137.4400 C   0  0  0  0  0  2  0  0  0  0  0  0
  185.8040  178.2760  143.4300 N   0  0  0  0  0  0  0  0  0  0  0  0
  190.1320  176.9170  137.0630 C   0  0  0  0  0  2  0  0  0  0  0  0
  189.9100  176.1880  138.3870 C   0  0  0  0  0  2  0  0  0  0  0  0
  188.2490  178.0660  138.8440 C   0  0  0  0  0  0  0  0  0  0  0  0
  191.6880  177.5840  145.0730 C   0  0  0  0  0  3  0  0  0  0  0  0
  189.8910  177.6310  142.9460 C   0  0  0  0  0  0  0  0  0  0  0  0
  190.5570  178.8030  143.3330 C   0  0  0  0  0  3  0  0  0  0  0  0
  191.4520  178.7850  144.4020 C   0  0  0  0  0  3  0  0  0  0  0  0
  191.0520  176.4480  144.6790 N   0  0  0  0  0  0  0  0  0  0  0  0
  190.1750  176.4460  143.6400 C   0  0  0  0  0  3  0  0  0  0  0  0
  1 12  1  0  0  0  0
  2  6  1  0  0  0  0
  3 16  1  0  0  0  0
  6 18  2  0  0  0  0
  7  9  1  0  0  0  0
  7 11  1  0  0  0  0
  8 19  1  0  0  0  0
  8 17  1  0  0  0  0
  9 13  2  0  0  0  0
 10  8  1  0  0  0  0
 11 14  1  0  0  0  0
 12  2  2  0  0  0  0
 12 23  1  0  0  0  0
 13  5  1  0  0  0  0
 13  4  1  0  0  0  0
 14  4  2  0  0  0  0
 14 18  1  0  0  0  0
 15  1  2  0  0  0  0
 16 11  2  0  0  0  0
 16  2  1  0  0  0  0
 17 21  1  0  0  0  0
 19 20  1  0  0  0  0
 20 15  1  0  0  0  0
 21 15  1  0  0  0  0
 21  3  2  0  0  0  0
 23 24  2  0  0  0  0
 23 27  1  0  0  0  0
 24 25  1  0  0  0  0
 25 22  2  0  0  0  0
 26 22  1  0  0  0  0
 27 26  2  0  0  0  0
M  END
>  <MODEL>
8

>  <REMARK>
 VINA RESULT:      -8.8      3.037      6.193
  Name = 
  1 active torsions:
  status: ('A' for Active; 'I' for Inactive)
    1  A    between atoms: C_9  and  C_15
                            x       y       z     vdW  Elec       q    Type
                         _______ _______ _______ _____ _____    ______ ____

>  <TORSDO>
F 1

$$$$
=
 OpenBabel10262420073D

 27 31  0  0  0  0  0  0  0  0999 V2000
  183.5200  178.9060  142.7020 N   0  0  0  0  0  0  0  0  0  0  0  0
  185.7560  178.4090  141.8170 C   0  0  0  0  0  0  0  0  0  0  0  0
  184.1110  177.7060  140.0490 N   0  0  0  0  0  0  0  0  0  0  0  0
  188.6800  178.5870  138.8820 C   0  0  0  0  0  3  0  0  0  0  0  0
  189.4010  178.5890  136.5170 O   0  0  0  0  0  1  0  0  0  0  0  0
  187.1260  178.5850  142.0930 C   0  0  0  0  0  3  0  0  0  0  0  0
  185.9920  178.0660  138.0010 C   0  0  0  0  0  2  0  0  0  0  0  0
  180.6230  178.0860  139.8760 N   0  0  0  0  0  0  0  0  0  0  0  0
  187.1340  178.2320  137.0360 C   0  0  0  0  0  3  0  0  0  0  0  0
  179.5240  177.3300  139.3060 C   0  0  0  0  0  1  0  0  0  0  0  0
  186.3770  178.2910  139.4510 C   0  0  0  0  0  0  0  0  0  0  0  0
  184.8800  178.4740  142.8580 C   0  0  0  0  0  0  0  0  0  0  0  0
  188.3800  178.4610  137.4480 C   0  0  0  0  0  0  0  0  0  0  0  0
  187.7210  178.5100  139.8080 C   0  0  0  0  0  0  0  0  0  0  0  0
  182.6720  178.7000  141.7490 C   0  0  0  0  0  0  0  0  0  0  0  0
  185.3880  178.2220  140.4550 C   0  0  0  0  0  0  0  0  0  0  0  0
  181.7740  177.1860  139.9160 C   0  0  0  0  0  2  0  0  0  0  0  0
  188.0580  178.6320  141.1120 N   0  0  0  0  0  0  0  0  0  0  0  0
  180.2440  178.4040  141.2520 C   0  0  0  0  0  2  0  0  0  0  0  0
  181.3040  179.3030  141.8850 C   0  0  0  0  0  2  0  0  0  0  0  0
  182.9430  177.8510  140.5800 C   0  0  0  0  0  0  0  0  0  0  0  0
  186.1210  178.2290  146.9400 C   0  0  0  0  0  3  0  0  0  0  0  0
  185.3500  178.4030  144.2700 C   0  0  0  0  0  0  0  0  0  0  0  0
  186.4290  177.5870  144.6400 C   0  0  0  0  0  3  0  0  0  0  0  0
  186.8220  177.5030  145.9760 C   0  0  0  0  0  3  0  0  0  0  0  0
  185.0650  179.0030  146.5740 N   0  0  0  0  0  0  0  0  0  0  0  0
  184.6670  179.0990  145.2770 C   0  0  0  0  0  3  0  0  0  0  0  0
  1 12  1  0  0  0  0
  2  6  1  0  0  0  0
  2 12  2  0  0  0  0
  3 16  1  0  0  0  0
  3 21  2  0  0  0  0
  4 14  2  0  0  0  0
  5 13  1  0  0  0  0
  7 11  1  0  0  0  0
  8 17  1  0  0  0  0
  8 19  1  0  0  0  0
  9 13  2  0  0  0  0
  9  7  1  0  0  0  0
 10  8  1  0  0  0  0
 11 14  1  0  0  0  0
 11 16  2  0  0  0  0
 12 23  1  0  0  0  0
 13  4  1  0  0  0  0
 14 18  1  0  0  0  0
 15 20  1  0  0  0  0
 15  1  2  0  0  0  0
 16  2  1  0  0  0  0
 17 21  1  0  0  0  0
 18  6  2  0  0  0  0
 19 20  1  0  0  0  0
 21 15  1  0  0  0  0
 23 24  2  0  0  0  0
 23 27  1  0  0  0  0
 24 25  1  0  0  0  0
 25 22  2  0  0  0  0
 26 22  1  0  0  0  0
 27 26  2  0  0  0  0
M  END
>  <MODEL>
9

>  <REMARK>
 VINA RESULT:      -8.2      3.502      7.022
  Name = 
  1 active torsions:
  status: ('A' for Active; 'I' for Inactive)
    1  A    between atoms: C_9  and  C_15
                            x       y       z     vdW  Elec       q    Type
                         _______ _______ _______ _____ _____    ______ ____

>  <TORSDO>
F 1

$$$$
