=
 OpenBabel10262419263D

 31 36  0  0  1  0  0  0  0  0999 V2000
  185.2250  178.3680  145.3000 C   0  0  0  0  0  0  0  0  0  0  0  0
  188.6820  177.7410  143.9770 C   0  0  0  0  0  0  0  0  0  0  0  0
  189.5150  177.3550  145.1660 C   0  0  0  0  0  0  0  0  0  0  0  0
  189.8450  177.3560  147.7310 C   0  0  0  0  0  3  0  0  0  0  0  0
  187.3000  178.0680  144.0540 C   0  0  0  0  0  0  0  0  0  0  0  0
  184.5540  178.7010  144.1230 C   0  0  0  0  0  3  0  0  0  0  0  0
  189.1040  177.6840  146.5400 C   0  0  0  0  0  3  0  0  0  0  0  0
  188.5600  178.0810  141.5580 C   0  0  0  0  0  0  0  0  0  0  0  0
  184.5250  178.3500  146.5370 N   0  0  0  0  0  1  0  0  0  0  0  0
  191.2140  176.3230  143.5260 C   0  0  0  0  0  2  0  0  0  0  0  0
  190.9880  176.7000  147.3890 C   0  0  0  0  0  0  0  0  0  0  0  0
  187.2450  178.3960  141.6730 N   0  0  0  0  0  0  0  0  0  0  0  0
  189.3020  177.7300  142.7000 C   0  0  0  0  0  0  0  0  0  0  0  0
  186.5860  178.0530  145.2630 C   0  0  0  0  0  3  0  0  0  0  0  0
  192.1920  176.0190  147.1620 C   0  0  0  0  0  2  0  0  0  0  0  0
  186.6040  178.3980  142.8660 C   0  0  0  0  0  0  0  0  0  0  0  0
  185.2420  178.7150  142.9090 C   0  0  0  0  0  3  0  0  0  0  0  0
  190.7770  177.4220  142.5640 C   0  0  0  0  0  2  0  0  0  0  0  0
  190.7590  176.6760  144.9000 C   0  0  0  0  0  0  0  0  0  0  0  0
  191.4280  176.3750  146.0400 C   0  0  0  0  0  0  0  0  0  0  0  0
  189.1800  178.0840  140.1990 C   0  0  0  0  0  2  0  0  0  0  0  0
  190.6070  176.4070  139.0440 C   0  0  0  0  0  2  0  0  0  0  0  0
  189.2390  176.6620  139.6480 C   0  0  2  0  0  3  0  0  0  0  0  0
  189.4120  176.5640  138.1270 C   0  0  1  0  0  3  0  0  0  0  0  0
  189.4980  177.9000  137.3970 C   0  0  0  0  0  2  0  0  0  0  0  0
  188.4540  177.5390  134.9450 S   0  0  0  0  0  0  0  0  0  0  0  0
  188.3260  178.0620  136.4930 C   0  0  0  0  0  0  0  0  0  0  0  0
  187.1700  178.7630  136.9770 N   0  0  0  0  0  2  0  0  0  0  0  0
  186.0660  178.2200  137.7110 C   0  0  0  0  0  0  0  0  0  0  0  0
  185.4600  178.9400  138.7800 N   0  0  0  0  0  1  0  0  0  0  0  0
  185.3610  176.8470  137.1790 S   0  0  0  0  0  0  0  0  0  0  0  0
  1  9  1  0  0  0  0
  2  5  1  0  0  0  0
  2  3  1  0  0  0  0
  3  7  1  0  0  0  0
  5 14  2  0  0  0  0
  6  1  2  0  0  0  0
  7  4  2  0  0  0  0
  8 12  2  0  0  0  0
  8 13  1  0  0  0  0
 10 19  1  0  0  0  0
 11  4  1  0  0  0  0
 12 16  1  0  0  0  0
 13  2  2  0  0  0  0
 14  1  1  0  0  0  0
 15 11  1  0  0  0  0
 16 17  2  0  0  0  0
 16  5  1  0  0  0  0
 17  6  1  0  0  0  0
 18 13  1  0  0  0  0
 18 10  1  0  0  0  0
 19  3  2  0  0  0  0
 19 20  1  0  0  0  0
 20 15  1  0  0  0  0
 20 11  2  0  0  0  0
 21  8  1  0  0  0  0
 22 23  1  0  0  0  0
 23 21  1  6  0  0  0
 24 25  1  6  0  0  0
 24 22  1  0  0  0  0
 24 23  1  0  0  0  0
 26 27  2  0  0  0  0
 27 28  1  0  0  0  0
 27 25  1  0  0  0  0
 28 29  1  0  0  0  0
 29 30  1  0  0  0  0
 31 29  2  0  0  0  0
M  END
>  <MODEL>
1

>  <REMARK>
 VINA RESULT:     -10.1      0.000      0.000
  Name = 
  6 active torsions:
  status: ('A' for Active; 'I' for Inactive)
    1  A    between atoms: C_1  and  N_24
    2  A    between atoms: C_3  and  C_19
    3  A    between atoms: C_3  and  C_22
    4  A    between atoms: C_9  and  C_23
    5  A    between atoms: C_15  and  C_23
    6  A    between atoms: C_19  and  N_24
                            x       y       z     vdW  Elec       q    Type
                         _______ _______ _______ _____ _____    ______ ____

>  <TORSDO>
F 6

$$$$
=
 OpenBabel10262419263D

 31 36  0  0  1  0  0  0  0  0999 V2000
  185.4260  178.3300  145.4040 C   0  0  0  0  0  0  0  0  0  0  0  0
  188.8310  177.4790  144.0750 C   0  0  0  0  0  0  0  0  0  0  0  0
  189.6780  177.1720  145.2760 C   0  0  0  0  0  0  0  0  0  0  0  0
  190.0650  177.3850  147.8240 C   0  0  0  0  0  3  0  0  0  0  0  0
  187.4630  177.8560  144.1490 C   0  0  0  0  0  0  0  0  0  0  0  0
  184.7390  178.5810  144.2150 C   0  0  0  0  0  3  0  0  0  0  0  0
  189.3080  177.6310  146.6230 C   0  0  0  0  0  3  0  0  0  0  0  0
  188.6660  177.6120  141.6380 C   0  0  0  0  0  0  0  0  0  0  0  0
  184.7530  178.4410  146.6510 N   0  0  0  0  0  1  0  0  0  0  0  0
  191.3090  175.9470  143.7000 C   0  0  0  0  0  2  0  0  0  0  0  0
  191.1800  176.6650  147.5190 C   0  0  0  0  0  0  0  0  0  0  0  0
  187.3650  177.9780  141.7500 N   0  0  0  0  0  0  0  0  0  0  0  0
  189.4230  177.3370  142.7910 C   0  0  0  0  0  0  0  0  0  0  0  0
  186.7750  177.9690  145.3680 C   0  0  0  0  0  3  0  0  0  0  0  0
  192.3570  175.9290  147.3290 C   0  0  0  0  0  2  0  0  0  0  0  0
  186.7500  178.1040  142.9510 C   0  0  0  0  0  0  0  0  0  0  0  0
  185.4000  178.4670  142.9920 C   0  0  0  0  0  3  0  0  0  0  0  0
  190.8840  176.9720  142.6550 C   0  0  0  0  0  2  0  0  0  0  0  0
  190.8950  176.4320  145.0460 C   0  0  0  0  0  0  0  0  0  0  0  0
  191.5790  176.2090  146.1960 C   0  0  0  0  0  0  0  0  0  0  0  0
  189.2560  177.4770  140.2720 C   0  0  0  0  0  2  0  0  0  0  0  0
  187.7770  178.0030  138.3440 C   0  0  0  0  0  2  0  0  0  0  0  0
  188.7340  178.5880  139.3660 C   0  0  2  0  0  3  0  0  0  0  0  0
  189.1460  178.4690  137.8930 C   0  0  1  0  0  3  0  0  0  0  0  0
  190.0130  177.2600  137.5580 C   0  0  0  0  0  2  0  0  0  0  0  0
  189.4210  177.1270  134.9370 S   0  0  0  0  0  0  0  0  0  0  0  0
  189.3970  176.4850  136.4450 C   0  0  0  0  0  0  0  0  0  0  0  0
  188.7160  175.2580  136.7500 N   0  0  0  0  0  2  0  0  0  0  0  0
  189.2630  173.9340  136.7490 C   0  0  0  0  0  0  0  0  0  0  0  0
  190.5570  173.6660  137.2800 N   0  0  0  0  0  1  0  0  0  0  0  0
  188.3060  172.6830  136.3200 S   0  0  0  0  0  0  0  0  0  0  0  0
  1  9  1  0  0  0  0
  2  5  1  0  0  0  0
  2  3  1  0  0  0  0
  3  7  1  0  0  0  0
  5 14  2  0  0  0  0
  6  1  2  0  0  0  0
  7  4  2  0  0  0  0
  8 12  2  0  0  0  0
  8 13  1  0  0  0  0
 10 19  1  0  0  0  0
 11  4  1  0  0  0  0
 12 16  1  0  0  0  0
 13  2  2  0  0  0  0
 14  1  1  0  0  0  0
 15 11  1  0  0  0  0
 16 17  2  0  0  0  0
 16  5  1  0  0  0  0
 17  6  1  0  0  0  0
 18 13  1  0  0  0  0
 18 10  1  0  0  0  0
 19  3  2  0  0  0  0
 19 20  1  0  0  0  0
 20 15  1  0  0  0  0
 20 11  2  0  0  0  0
 21  8  1  0  0  0  0
 22 23  1  0  0  0  0
 23 21  1  1  0  0  0
 24 25  1  1  0  0  0
 24 22  1  0  0  0  0
 24 23  1  0  0  0  0
 26 27  2  0  0  0  0
 27 28  1  0  0  0  0
 27 25  1  0  0  0  0
 29 28  1  0  0  0  0
 29 30  1  0  0  0  0
 31 29  2  0  0  0  0
M  END
>  <MODEL>
2

>  <REMARK>
 VINA RESULT:      -9.8      1.787      2.227
  Name = 
  6 active torsions:
  status: ('A' for Active; 'I' for Inactive)
    1  A    between atoms: C_1  and  N_24
    2  A    between atoms: C_3  and  C_19
    3  A    between atoms: C_3  and  C_22
    4  A    between atoms: C_9  and  C_23
    5  A    between atoms: C_15  and  C_23
    6  A    between atoms: C_19  and  N_24
                            x       y       z     vdW  Elec       q    Type
                         _______ _______ _______ _____ _____    ______ ____

>  <TORSDO>
F 6

$$$$
=
 OpenBabel10262419263D

 31 36  0  0  1  0  0  0  0  0999 V2000
  185.2070  178.4360  145.2050 C   0  0  0  0  0  0  0  0  0  0  0  0
  188.6350  177.5910  143.9320 C   0  0  0  0  0  0  0  0  0  0  0  0
  189.4640  177.2870  145.1480 C   0  0  0  0  0  0  0  0  0  0  0  0
  189.8080  177.5050  147.7020 C   0  0  0  0  0  3  0  0  0  0  0  0
  187.2650  177.9650  143.9840 C   0  0  0  0  0  0  0  0  0  0  0  0
  184.5390  178.6840  144.0050 C   0  0  0  0  0  3  0  0  0  0  0  0
  189.0710  177.7480  146.4880 C   0  0  0  0  0  3  0  0  0  0  0  0
  188.5090  177.7190  141.4930 C   0  0  0  0  0  0  0  0  0  0  0  0
  184.5130  178.5480  146.4410 N   0  0  0  0  0  1  0  0  0  0  0  0
  191.1220  176.0640  143.6000 C   0  0  0  0  0  2  0  0  0  0  0  0
  190.9290  176.7870  147.4150 C   0  0  0  0  0  0  0  0  0  0  0  0
  187.2060  178.0830  141.5830 N   0  0  0  0  0  0  0  0  0  0  0  0
  189.2480  177.4480  142.6580 C   0  0  0  0  0  0  0  0  0  0  0  0
  186.5570  178.0780  145.1920 C   0  0  0  0  0  3  0  0  0  0  0  0
  192.1120  176.0530  147.2450 C   0  0  0  0  0  2  0  0  0  0  0  0
  186.5710  178.2100  142.7740 C   0  0  0  0  0  0  0  0  0  0  0  0
  185.2190  178.5690  142.7930 C   0  0  0  0  0  3  0  0  0  0  0  0
  190.7120  177.0860  142.5460 C   0  0  0  0  0  2  0  0  0  0  0  0
  190.6860  176.5500  144.9380 C   0  0  0  0  0  0  0  0  0  0  0  0
  191.3520  176.3300  146.0990 C   0  0  0  0  0  0  0  0  0  0  0  0
  189.1210  177.5840  140.1370 C   0  0  0  0  0  2  0  0  0  0  0  0
  187.6700  177.1060  138.1750 C   0  0  0  0  0  2  0  0  0  0  0  0
  188.2020  178.1980  139.0850 C   0  0  2  0  0  3  0  0  0  0  0  0
  188.7010  178.0780  137.6400 C   0  0  1  0  0  3  0  0  0  0  0  0
  190.0390  177.3650  137.4730 C   0  0  0  0  0  2  0  0  0  0  0  0
  189.3020  177.4860  134.8890 S   0  0  0  0  0  0  0  0  0  0  0  0
  190.1340  176.7750  136.1090 C   0  0  0  0  0  0  0  0  0  0  0  0
  190.8640  175.5510  135.9330 N   0  0  0  0  0  2  0  0  0  0  0  0
  191.1770  174.5720  136.9310 C   0  0  0  0  0  0  0  0  0  0  0  0
  190.2010  173.6440  137.3930 N   0  0  0  0  0  1  0  0  0  0  0  0
  192.7310  174.3850  137.3950 S   0  0  0  0  0  0  0  0  0  0  0  0
  1  9  1  0  0  0  0
  2  5  1  0  0  0  0
  2  3  1  0  0  0  0
  3  7  1  0  0  0  0
  5 14  2  0  0  0  0
  6  1  2  0  0  0  0
  7  4  2  0  0  0  0
  8 12  2  0  0  0  0
  8 13  1  0  0  0  0
 10 19  1  0  0  0  0
 11  4  1  0  0  0  0
 12 16  1  0  0  0  0
 13  2  2  0  0  0  0
 14  1  1  0  0  0  0
 15 11  1  0  0  0  0
 16 17  2  0  0  0  0
 16  5  1  0  0  0  0
 17  6  1  0  0  0  0
 18 13  1  0  0  0  0
 18 10  1  0  0  0  0
 19  3  2  0  0  0  0
 19 20  1  0  0  0  0
 20 15  1  0  0  0  0
 20 11  2  0  0  0  0
 21  8  1  0  0  0  0
 22 23  1  0  0  0  0
 23 21  1  1  0  0  0
 24 25  1  1  0  0  0
 24 22  1  0  0  0  0
 24 23  1  0  0  0  0
 26 27  2  0  0  0  0
 27 25  1  0  0  0  0
 28 27  1  0  0  0  0
 28 29  1  0  0  0  0
 29 30  1  0  0  0  0
 29 31  2  0  0  0  0
M  END
>  <MODEL>
3

>  <REMARK>
 VINA RESULT:      -9.8      1.926      2.553
  Name = 
  6 active torsions:
  status: ('A' for Active; 'I' for Inactive)
    1  A    between atoms: C_1  and  N_24
    2  A    between atoms: C_3  and  C_19
    3  A    between atoms: C_3  and  C_22
    4  A    between atoms: C_9  and  C_23
    5  A    between atoms: C_15  and  C_23
    6  A    between atoms: C_19  and  N_24
                            x       y       z     vdW  Elec       q    Type
                         _______ _______ _______ _____ _____    ______ ____

>  <TORSDO>
F 6

$$$$
=
 OpenBabel10262419263D

 31 36  0  0  1  0  0  0  0  0999 V2000
  190.5290  177.4670  141.9560 C   0  0  0  0  0  0  0  0  0  0  0  0
  187.4300  177.8880  144.0320 C   0  0  0  0  0  0  0  0  0  0  0  0
  187.8700  177.7520  145.4620 C   0  0  0  0  0  0  0  0  0  0  0  0
  189.6270  176.9210  147.1680 C   0  0  0  0  0  3  0  0  0  0  0  0
  188.3120  177.7850  142.9220 C   0  0  0  0  0  0  0  0  0  0  0  0
  190.0030  177.6220  140.6730 C   0  0  0  0  0  3  0  0  0  0  0  0
  189.1350  177.0960  145.8250 C   0  0  0  0  0  3  0  0  0  0  0  0
  185.6070  178.3210  142.4590 C   0  0  0  0  0  0  0  0  0  0  0  0
  191.9190  177.2260  142.1310 N   0  0  0  0  0  1  0  0  0  0  0  0
  185.6870  178.9380  146.1500 C   0  0  0  0  0  2  0  0  0  0  0  0
  188.7360  177.4520  148.0500 C   0  0  0  0  0  0  0  0  0  0  0  0
  186.4780  178.2070  141.4250 N   0  0  0  0  0  0  0  0  0  0  0  0
  186.0630  178.1830  143.7830 C   0  0  0  0  0  0  0  0  0  0  0  0
  189.6890  177.5510  143.0690 C   0  0  0  0  0  3  0  0  0  0  0  0
  187.8980  177.9610  149.0520 C   0  0  0  0  0  2  0  0  0  0  0  0
  187.7950  177.9490  141.6140 C   0  0  0  0  0  0  0  0  0  0  0  0
  188.6400  177.8630  140.5020 C   0  0  0  0  0  3  0  0  0  0  0  0
  185.0750  178.2700  144.9240 C   0  0  0  0  0  2  0  0  0  0  0  0
  186.9770  178.2660  146.4720 C   0  0  0  0  0  0  0  0  0  0  0  0
  187.4710  178.0930  147.7230 C   0  0  0  0  0  0  0  0  0  0  0  0
  184.1760  178.6270  142.1590 C   0  0  0  0  0  2  0  0  0  0  0  0
  183.1470  179.1670  139.9610 C   0  0  0  0  0  2  0  0  0  0  0  0
  183.8010  178.0750  140.7870 C   0  0  2  0  0  3  0  0  0  0  0  0
  182.2960  178.0340  140.4950 C   0  0  1  0  0  3  0  0  0  0  0  0
  181.4030  178.5500  141.6200 C   0  0  0  0  0  2  0  0  0  0  0  0
  179.2760  179.7460  140.4880 S   0  0  0  0  0  0  0  0  0  0  0  0
  179.9730  178.4540  141.2180 C   0  0  0  0  0  0  0  0  0  0  0  0
  179.2300  177.2780  141.5770 N   0  0  0  0  0  2  0  0  0  0  0  0
  179.2240  176.0130  140.9060 C   0  0  0  0  0  0  0  0  0  0  0  0
  179.0350  174.7950  141.6200 N   0  0  0  0  0  1  0  0  0  0  0  0
  179.2270  175.9830  139.2740 S   0  0  0  0  0  0  0  0  0  0  0  0
  1  9  1  0  0  0  0
  1 14  1  0  0  0  0
  2  3  1  0  0  0  0
  3  7  2  0  0  0  0
  3 19  1  0  0  0  0
  4 11  2  0  0  0  0
  5 14  2  0  0  0  0
  5  2  1  0  0  0  0
  6  1  2  0  0  0  0
  7  4  1  0  0  0  0
  8 13  1  0  0  0  0
 10 19  1  0  0  0  0
 11 15  1  0  0  0  0
 12 16  1  0  0  0  0
 12  8  2  0  0  0  0
 13  2  2  0  0  0  0
 13 18  1  0  0  0  0
 16  5  1  0  0  0  0
 17  6  1  0  0  0  0
 17 16  2  0  0  0  0
 18 10  1  0  0  0  0
 19 20  2  0  0  0  0
 20 11  1  0  0  0  0
 20 15  1  0  0  0  0
 21  8  1  0  0  0  0
 22 24  1  0  0  0  0
 22 23  1  0  0  0  0
 23 21  1  1  0  0  0
 24 23  1  0  0  0  0
 24 25  1  1  0  0  0
 26 27  2  0  0  0  0
 27 28  1  0  0  0  0
 27 25  1  0  0  0  0
 29 28  1  0  0  0  0
 29 30  1  0  0  0  0
 31 29  2  0  0  0  0
M  END
>  <MODEL>
4

>  <REMARK>
 VINA RESULT:      -9.5      3.552      6.006
  Name = 
  6 active torsions:
  status: ('A' for Active; 'I' for Inactive)
    1  A    between atoms: C_1  and  N_24
    2  A    between atoms: C_3  and  C_19
    3  A    between atoms: C_3  and  C_22
    4  A    between atoms: C_9  and  C_23
    5  A    between atoms: C_15  and  C_23
    6  A    between atoms: C_19  and  N_24
                            x       y       z     vdW  Elec       q    Type
                         _______ _______ _______ _____ _____    ______ ____

>  <TORSDO>
F 6

$$$$
=
 OpenBabel10262419263D

 31 36  0  0  1  0  0  0  0  0999 V2000
  190.4990  177.1240  146.3160 C   0  0  0  0  0  0  0  0  0  0  0  0
  188.0650  177.7600  143.5320 C   0  0  0  0  0  0  0  0  0  0  0  0
  186.7560  178.0850  144.1930 C   0  0  0  0  0  0  0  0  0  0  0  0
  185.2500  177.9730  146.2930 C   0  0  0  0  0  3  0  0  0  0  0  0
  189.2540  177.4480  144.2450 C   0  0  0  0  0  0  0  0  0  0  0  0
  191.6580  176.8490  145.5900 C   0  0  0  0  0  3  0  0  0  0  0  0
  186.4770  177.7050  145.5870 C   0  0  0  0  0  3  0  0  0  0  0  0
  189.3290  177.5220  141.4510 C   0  0  0  0  0  0  0  0  0  0  0  0
  190.5290  177.1010  147.7380 N   0  0  0  0  0  1  0  0  0  0  0  0
  186.0050  179.1610  141.9760 C   0  0  0  0  0  2  0  0  0  0  0  0
  184.3860  178.6280  145.4700 C   0  0  0  0  0  0  0  0  0  0  0  0
  190.4410  177.2190  142.1660 N   0  0  0  0  0  0  0  0  0  0  0  0
  188.1230  177.8160  142.1130 C   0  0  0  0  0  0  0  0  0  0  0  0
  189.3100  177.4230  145.6480 C   0  0  0  0  0  3  0  0  0  0  0  0
  183.4120  179.3020  144.7180 C   0  0  0  0  0  2  0  0  0  0  0  0
  190.4400  177.1760  143.5210 C   0  0  0  0  0  0  0  0  0  0  0  0
  191.6290  176.8770  144.1950 C   0  0  0  0  0  3  0  0  0  0  0  0
  186.8800  178.1090  141.3040 C   0  0  0  0  0  2  0  0  0  0  0  0
  185.7660  178.7580  143.3890 C   0  0  0  0  0  0  0  0  0  0  0  0
  184.6280  179.0030  144.0840 C   0  0  0  0  0  0  0  0  0  0  0  0
  189.4270  177.5670  139.9610 C   0  0  0  0  0  2  0  0  0  0  0  0
  191.5330  176.8720  138.8360 C   0  0  0  0  0  2  0  0  0  0  0  0
  190.2380  176.3780  139.4550 C   0  0  2  0  0  3  0  0  0  0  0  0
  190.4410  176.3320  137.9350 C   0  0  1  0  0  3  0  0  0  0  0  0
  189.8020  177.4800  137.1610 C   0  0  0  0  0  2  0  0  0  0  0  0
  188.9330  176.9840  134.6650 S   0  0  0  0  0  0  0  0  0  0  0  0
  188.7130  176.9610  136.2890 C   0  0  0  0  0  0  0  0  0  0  0  0
  187.4730  176.5590  136.8930 N   0  0  0  0  0  2  0  0  0  0  0  0
  186.3510  177.3900  137.2140 C   0  0  0  0  0  0  0  0  0  0  0  0
  186.5160  178.6280  137.8970 N   0  0  0  0  0  1  0  0  0  0  0  0
  184.8850  177.0090  136.6040 S   0  0  0  0  0  0  0  0  0  0  0  0
  1  9  1  0  0  0  0
  2  3  1  0  0  0  0
  2  5  1  0  0  0  0
  3  7  1  0  0  0  0
  5 14  2  0  0  0  0
  6  1  2  0  0  0  0
  7  4  2  0  0  0  0
  8 13  1  0  0  0  0
  8 12  2  0  0  0  0
 10 19  1  0  0  0  0
 11  4  1  0  0  0  0
 12 16  1  0  0  0  0
 13  2  2  0  0  0  0
 14  1  1  0  0  0  0
 15 11  1  0  0  0  0
 16 17  2  0  0  0  0
 16  5  1  0  0  0  0
 17  6  1  0  0  0  0
 18 10  1  0  0  0  0
 18 13  1  0  0  0  0
 19 20  1  0  0  0  0
 19  3  2  0  0  0  0
 20 15  1  0  0  0  0
 20 11  2  0  0  0  0
 21  8  1  0  0  0  0
 22 23  1  0  0  0  0
 23 21  1  6  0  0  0
 24 25  1  6  0  0  0
 24 22  1  0  0  0  0
 24 23  1  0  0  0  0
 26 27  2  0  0  0  0
 27 28  1  0  0  0  0
 27 25  1  0  0  0  0
 28 29  1  0  0  0  0
 29 30  1  0  0  0  0
 31 29  2  0  0  0  0
M  END
>  <MODEL>
5

>  <REMARK>
 VINA RESULT:      -9.2      1.609      4.245
  Name = 
  6 active torsions:
  status: ('A' for Active; 'I' for Inactive)
    1  A    between atoms: C_1  and  N_24
    2  A    between atoms: C_3  and  C_19
    3  A    between atoms: C_3  and  C_22
    4  A    between atoms: C_9  and  C_23
    5  A    between atoms: C_15  and  C_23
    6  A    between atoms: C_19  and  N_24
                            x       y       z     vdW  Elec       q    Type
                         _______ _______ _______ _____ _____    ______ ____

>  <TORSDO>
F 6

$$$$
=
 OpenBabel10262419263D

 31 36  0  0  1  0  0  0  0  0999 V2000
  190.0180  177.6560  140.8580 C   0  0  0  0  0  0  0  0  0  0  0  0
  186.5100  178.2920  142.0320 C   0  0  0  0  0  0  0  0  0  0  0  0
  186.5460  178.1660  143.5290 C   0  0  0  0  0  0  0  0  0  0  0  0
  187.7360  177.2780  145.6460 C   0  0  0  0  0  3  0  0  0  0  0  0
  187.6470  178.1160  141.1970 C   0  0  0  0  0  0  0  0  0  0  0  0
  189.8610  177.8090  139.4800 C   0  0  0  0  0  3  0  0  0  0  0  0
  187.6290  177.4490  144.2200 C   0  0  0  0  0  3  0  0  0  0  0  0
  185.1980  178.7890  140.0290 C   0  0  0  0  0  0  0  0  0  0  0  0
  191.2950  177.3420  141.3980 N   0  0  0  0  0  1  0  0  0  0  0  0
  184.3330  179.4850  143.6030 C   0  0  0  0  0  2  0  0  0  0  0  0
  186.6770  177.8770  146.2560 C   0  0  0  0  0  0  0  0  0  0  0  0
  186.3030  178.6030  139.2640 N   0  0  0  0  0  0  0  0  0  0  0  0
  185.2780  178.6560  141.4260 C   0  0  0  0  0  0  0  0  0  0  0  0
  188.9200  177.8100  141.7070 C   0  0  0  0  0  3  0  0  0  0  0  0
  185.6350  178.4550  146.9960 C   0  0  0  0  0  2  0  0  0  0  0  0
  187.5050  178.2780  139.7980 C   0  0  0  0  0  0  0  0  0  0  0  0
  188.6080  178.1210  138.9520 C   0  0  0  0  0  3  0  0  0  0  0  0
  184.0300  178.8230  142.2640 C   0  0  0  0  0  2  0  0  0  0  0  0
  185.4490  178.7500  144.2610 C   0  0  0  0  0  0  0  0  0  0  0  0
  185.5840  178.5800  145.5990 C   0  0  0  0  0  0  0  0  0  0  0  0
  183.9190  179.1660  139.3560 C   0  0  0  0  0  2  0  0  0  0  0  0
  182.2870  178.4520  137.6210 C   0  0  0  0  0  2  0  0  0  0  0  0
  183.3690  177.9770  138.5740 C   0  0  2  0  0  3  0  0  0  0  0  0
  181.8950  177.6490  138.8450 C   0  0  1  0  0  3  0  0  0  0  0  0
  181.2030  178.5600  139.8540 C   0  0  0  0  0  2  0  0  0  0  0  0
  179.7260  176.3180  140.0040 S   0  0  0  0  0  0  0  0  0  0  0  0
  180.1000  177.8240  140.5310 C   0  0  0  0  0  0  0  0  0  0  0  0
  179.3380  178.4970  141.5450 N   0  0  0  0  0  2  0  0  0  0  0  0
  179.8390  179.2630  142.6470 C   0  0  0  0  0  0  0  0  0  0  0  0
  179.8990  180.6840  142.5970 N   0  0  0  0  0  1  0  0  0  0  0  0
  180.1540  178.5050  144.0580 S   0  0  0  0  0  0  0  0  0  0  0  0
  1  9  1  0  0  0  0
  1 14  1  0  0  0  0
  2  3  1  0  0  0  0
  3  7  2  0  0  0  0
  3 19  1  0  0  0  0
  4 11  2  0  0  0  0
  5 14  2  0  0  0  0
  5  2  1  0  0  0  0
  6  1  2  0  0  0  0
  7  4  1  0  0  0  0
  8 13  1  0  0  0  0
 10 19  1  0  0  0  0
 11 15  1  0  0  0  0
 12 16  1  0  0  0  0
 12  8  2  0  0  0  0
 13  2  2  0  0  0  0
 13 18  1  0  0  0  0
 16  5  1  0  0  0  0
 17  6  1  0  0  0  0
 17 16  2  0  0  0  0
 18 10  1  0  0  0  0
 19 20  2  0  0  0  0
 20 11  1  0  0  0  0
 20 15  1  0  0  0  0
 21  8  1  0  0  0  0
 22 23  1  0  0  0  0
 22 24  1  0  0  0  0
 23 24  1  0  0  0  0
 23 21  1  1  0  0  0
 24 25  1  1  0  0  0
 25 27  1  0  0  0  0
 26 27  2  0  0  0  0
 27 28  1  0  0  0  0
 28 29  1  0  0  0  0
 29 31  2  0  0  0  0
 30 29  1  0  0  0  0
M  END
>  <MODEL>
6

>  <REMARK>
 VINA RESULT:      -9.2      3.526      6.452
  Name = 
  6 active torsions:
  status: ('A' for Active; 'I' for Inactive)
    1  A    between atoms: C_1  and  N_24
    2  A    between atoms: C_3  and  C_19
    3  A    between atoms: C_3  and  C_22
    4  A    between atoms: C_9  and  C_23
    5  A    between atoms: C_15  and  C_23
    6  A    between atoms: C_19  and  N_24
                            x       y       z     vdW  Elec       q    Type
                         _______ _______ _______ _____ _____    ______ ____

>  <TORSDO>
F 6

$$$$
=
 OpenBabel10262419263D

 31 36  0  0  1  0  0  0  0  0999 V2000
  183.0190  178.7710  142.5470 C   0  0  0  0  0  0  0  0  0  0  0  0
  186.6980  178.3390  143.1480 C   0  0  0  0  0  0  0  0  0  0  0  0
  186.8580  178.1730  144.6320 C   0  0  0  0  0  0  0  0  0  0  0  0
  185.8960  178.4960  147.0110 C   0  0  0  0  0  3  0  0  0  0  0  0
  185.4460  178.5350  142.5050 C   0  0  0  0  0  0  0  0  0  0  0  0
  182.9960  178.9010  141.1580 C   0  0  0  0  0  3  0  0  0  0  0  0
  185.8200  178.6130  145.5770 C   0  0  0  0  0  3  0  0  0  0  0  0
  187.7610  178.3900  140.9450 C   0  0  0  0  0  0  0  0  0  0  0  0
  181.8050  178.8230  143.2860 N   0  0  0  0  0  1  0  0  0  0  0  0
  189.1720  177.1340  144.1760 C   0  0  0  0  0  2  0  0  0  0  0  0
  187.0800  177.9210  147.3570 C   0  0  0  0  0  0  0  0  0  0  0  0
  186.5480  178.5860  140.3690 N   0  0  0  0  0  0  0  0  0  0  0  0
  187.8630  178.2440  142.3400 C   0  0  0  0  0  0  0  0  0  0  0  0
  184.2330  178.5870  143.2120 C   0  0  0  0  0  3  0  0  0  0  0  0
  188.2630  177.3390  147.8360 C   0  0  0  0  0  2  0  0  0  0  0  0
  185.4070  178.6600  141.0960 C   0  0  0  0  0  0  0  0  0  0  0  0
  184.1880  178.8450  140.4340 C   0  0  0  0  0  3  0  0  0  0  0  0
  189.2250  178.0690  142.9730 C   0  0  0  0  0  2  0  0  0  0  0  0
  188.0950  177.5930  145.0960 C   0  0  0  0  0  0  0  0  0  0  0  0
  188.1310  177.4890  146.4480 C   0  0  0  0  0  0  0  0  0  0  0  0
  188.9640  178.3000  140.0640 C   0  0  0  0  0  2  0  0  0  0  0  0
  190.7640  176.7150  139.4090 C   0  0  0  0  0  2  0  0  0  0  0  0
  189.2990  176.8380  139.7850 C   0  0  2  0  0  3  0  0  0  0  0  0
  189.7080  176.5330  138.3380 C   0  0  1  0  0  3  0  0  0  0  0  0
  189.7180  177.7360  137.4000 C   0  0  0  0  0  2  0  0  0  0  0  0
  188.9560  177.3940  134.8430 S   0  0  0  0  0  0  0  0  0  0  0  0
  188.5970  177.6290  136.4250 C   0  0  0  0  0  0  0  0  0  0  0  0
  187.2540  177.8390  136.8880 N   0  0  0  0  0  2  0  0  0  0  0  0
  186.2430  176.8470  137.1070 C   0  0  0  0  0  0  0  0  0  0  0  0
  184.9020  177.2120  137.4190 N   0  0  0  0  0  1  0  0  0  0  0  0
  186.5870  175.2830  136.7920 S   0  0  0  0  0  0  0  0  0  0  0  0
  1 14  1  0  0  0  0
  1  9  1  0  0  0  0
  2  3  1  0  0  0  0
  3 19  2  0  0  0  0
  3  7  1  0  0  0  0
  4 11  1  0  0  0  0
  5  2  1  0  0  0  0
  5 14  2  0  0  0  0
  6  1  2  0  0  0  0
  7  4  2  0  0  0  0
  8 13  1  0  0  0  0
 10 19  1  0  0  0  0
 11 15  1  0  0  0  0
 12  8  2  0  0  0  0
 12 16  1  0  0  0  0
 13 18  1  0  0  0  0
 13  2  2  0  0  0  0
 16  5  1  0  0  0  0
 17 16  2  0  0  0  0
 17  6  1  0  0  0  0
 18 10  1  0  0  0  0
 19 20  1  0  0  0  0
 20 11  2  0  0  0  0
 20 15  1  0  0  0  0
 21  8  1  0  0  0  0
 22 23  1  0  0  0  0
 23 21  1  6  0  0  0
 24 25  1  6  0  0  0
 24 22  1  0  0  0  0
 24 23  1  0  0  0  0
 26 27  2  0  0  0  0
 27 28  1  0  0  0  0
 27 25  1  0  0  0  0
 28 29  1  0  0  0  0
 29 30  1  0  0  0  0
 31 29  2  0  0  0  0
M  END
>  <MODEL>
7

>  <REMARK>
 VINA RESULT:      -9.1      1.688      2.510
  Name = 
  6 active torsions:
  status: ('A' for Active; 'I' for Inactive)
    1  A    between atoms: C_1  and  N_24
    2  A    between atoms: C_3  and  C_19
    3  A    between atoms: C_3  and  C_22
    4  A    between atoms: C_9  and  C_23
    5  A    between atoms: C_15  and  C_23
    6  A    between atoms: C_19  and  N_24
                            x       y       z     vdW  Elec       q    Type
                         _______ _______ _______ _____ _____    ______ ____

>  <TORSDO>
F 6

$$$$
=
 OpenBabel10262419263D

 31 36  0  0  1  0  0  0  0  0999 V2000
  190.1530  177.2840  147.0020 C   0  0  0  0  0  0  0  0  0  0  0  0
  187.8780  177.5050  144.0250 C   0  0  0  0  0  0  0  0  0  0  0  0
  186.5520  177.9750  144.5520 C   0  0  0  0  0  0  0  0  0  0  0  0
  184.9460  178.2660  146.5580 C   0  0  0  0  0  3  0  0  0  0  0  0
  189.0200  177.2860  144.8420 C   0  0  0  0  0  0  0  0  0  0  0  0
  191.3340  176.8560  146.3940 C   0  0  0  0  0  3  0  0  0  0  0  0
  186.1940  177.8470  145.9730 C   0  0  0  0  0  3  0  0  0  0  0  0
  189.2290  176.8800  142.0840 C   0  0  0  0  0  0  0  0  0  0  0  0
  190.1140  177.5030  148.4060 N   0  0  0  0  0  1  0  0  0  0  0  0
  185.9480  178.6790  142.1470 C   0  0  0  0  0  2  0  0  0  0  0  0
  184.1460  178.7950  145.5910 C   0  0  0  0  0  0  0  0  0  0  0  0
  190.2940  176.6720  142.8980 N   0  0  0  0  0  0  0  0  0  0  0  0
  188.0050  177.3160  142.6220 C   0  0  0  0  0  0  0  0  0  0  0  0
  189.0080  177.4990  146.2300 C   0  0  0  0  0  3  0  0  0  0  0  0
  183.2350  179.3580  144.6860 C   0  0  0  0  0  2  0  0  0  0  0  0
  190.2280  176.8610  144.2380 C   0  0  0  0  0  0  0  0  0  0  0  0
  191.3710  176.6470  145.0150 C   0  0  0  0  0  3  0  0  0  0  0  0
  186.8140  177.5030  141.7100 C   0  0  0  0  0  2  0  0  0  0  0  0
  185.6260  178.5290  143.5940 C   0  0  0  0  0  0  0  0  0  0  0  0
  184.4670  178.9220  144.1770 C   0  0  0  0  0  0  0  0  0  0  0  0
  189.3990  176.6670  140.6150 C   0  0  0  0  0  2  0  0  0  0  0  0
  189.0560  178.6200  139.1150 C   0  0  0  0  0  2  0  0  0  0  0  0
  190.0620  177.8880  139.9840 C   0  0  2  0  0  3  0  0  0  0  0  0
  190.1780  177.8440  138.4550 C   0  0  1  0  0  3  0  0  0  0  0  0
  189.6140  176.5880  137.7980 C   0  0  0  0  0  2  0  0  0  0  0  0
  190.7070  175.7820  135.4760 S   0  0  0  0  0  0  0  0  0  0  0  0
  190.7040  175.8390  137.1150 C   0  0  0  0  0  0  0  0  0  0  0  0
  191.6500  175.1090  137.9130 N   0  0  0  0  0  2  0  0  0  0  0  0
  193.0730  175.0690  137.7580 C   0  0  0  0  0  0  0  0  0  0  0  0
  193.9110  176.0590  138.3450 N   0  0  0  0  0  1  0  0  0  0  0  0
  193.7580  173.7550  137.0730 S   0  0  0  0  0  0  0  0  0  0  0  0
  1  9  1  0  0  0  0
  2  3  1  0  0  0  0
  2  5  1  0  0  0  0
  3  7  1  0  0  0  0
  5 14  1  0  0  0  0
  6  1  1  0  0  0  0
  7  4  2  0  0  0  0
  8 13  1  0  0  0  0
  8 12  2  0  0  0  0
 10 19  1  0  0  0  0
 11  4  1  0  0  0  0
 12 16  1  0  0  0  0
 13  2  2  0  0  0  0
 14  1  2  0  0  0  0
 15 11  1  0  0  0  0
 16  5  2  0  0  0  0
 16 17  1  0  0  0  0
 17  6  2  0  0  0  0
 18 10  1  0  0  0  0
 18 13  1  0  0  0  0
 19 20  1  0  0  0  0
 19  3  2  0  0  0  0
 20 15  1  0  0  0  0
 20 11  2  0  0  0  0
 21  8  1  0  0  0  0
 22 23  1  0  0  0  0
 23 21  1  6  0  0  0
 24 25  1  6  0  0  0
 24 22  1  0  0  0  0
 24 23  1  0  0  0  0
 26 27  2  0  0  0  0
 27 25  1  0  0  0  0
 27 28  1  0  0  0  0
 29 28  1  0  0  0  0
 29 30  1  0  0  0  0
 31 29  2  0  0  0  0
M  END
>  <MODEL>
8

>  <REMARK>
 VINA RESULT:      -8.9      2.714      5.201
  Name = 
  6 active torsions:
  status: ('A' for Active; 'I' for Inactive)
    1  A    between atoms: C_1  and  N_24
    2  A    between atoms: C_3  and  C_19
    3  A    between atoms: C_3  and  C_22
    4  A    between atoms: C_9  and  C_23
    5  A    between atoms: C_15  and  C_23
    6  A    between atoms: C_19  and  N_24
                            x       y       z     vdW  Elec       q    Type
                         _______ _______ _______ _____ _____    ______ ____

>  <TORSDO>
F 6

$$$$
=
 OpenBabel10262419263D

 31 36  0  0  1  0  0  0  0  0999 V2000
  182.7810  178.8080  140.6950 C   0  0  0  0  0  0  0  0  0  0  0  0
  186.2500  178.3900  142.0660 C   0  0  0  0  0  0  0  0  0  0  0  0
  186.0950  178.2840  143.5560 C   0  0  0  0  0  0  0  0  0  0  0  0
  184.6620  178.7040  145.6680 C   0  0  0  0  0  3  0  0  0  0  0  0
  185.1610  178.5650  141.1690 C   0  0  0  0  0  0  0  0  0  0  0  0
  183.0500  178.8830  139.3280 C   0  0  0  0  0  3  0  0  0  0  0  0
  184.8880  178.7640  144.2460 C   0  0  0  0  0  3  0  0  0  0  0  0
  187.7480  178.3510  140.1330 C   0  0  0  0  0  0  0  0  0  0  0  0
  181.4410  178.8930  141.1620 N   0  0  0  0  0  1  0  0  0  0  0  0
  188.4420  177.2210  143.6330 C   0  0  0  0  0  2  0  0  0  0  0  0
  185.7420  178.1400  146.2760 C   0  0  0  0  0  0  0  0  0  0  0  0
  186.6850  178.5270  139.3100 N   0  0  0  0  0  0  0  0  0  0  0  0
  187.5560  178.2610  141.5230 C   0  0  0  0  0  0  0  0  0  0  0  0
  183.8280  178.6480  141.6060 C   0  0  0  0  0  3  0  0  0  0  0  0
  186.7930  177.5750  147.0130 C   0  0  0  0  0  2  0  0  0  0  0  0
  185.4180  178.6330  139.7790 C   0  0  0  0  0  0  0  0  0  0  0  0
  184.3650  178.7940  138.8710 C   0  0  0  0  0  3  0  0  0  0  0  0
  188.7550  178.1070  142.4330 C   0  0  0  0  0  2  0  0  0  0  0  0
  187.2020  177.7190  144.2900 C   0  0  0  0  0  0  0  0  0  0  0  0
  186.9550  177.6690  145.6220 C   0  0  0  0  0  0  0  0  0  0  0  0
  189.1080  178.2230  139.5270 C   0  0  0  0  0  2  0  0  0  0  0  0
  188.6870  176.5660  137.7210 C   0  0  0  0  0  2  0  0  0  0  0  0
  188.9900  178.0230  138.0190 C   0  0  2  0  0  3  0  0  0  0  0  0
  190.0620  177.1160  137.4010 C   0  0  1  0  0  3  0  0  0  0  0  0
  191.0810  176.5520  138.3860 C   0  0  0  0  0  2  0  0  0  0  0  0
  193.3410  175.9970  137.0370 S   0  0  0  0  0  0  0  0  0  0  0  0
  191.9240  175.5250  137.7140 C   0  0  0  0  0  0  0  0  0  0  0  0
  191.4190  174.1870  137.5910 N   0  0  0  0  0  2  0  0  0  0  0  0
  191.1920  173.4480  136.3840 C   0  0  0  0  0  0  0  0  0  0  0  0
  192.2080  172.6290  135.8140 N   0  0  0  0  0  1  0  0  0  0  0  0
  189.6820  173.3830  135.7690 S   0  0  0  0  0  0  0  0  0  0  0  0
  1  9  1  0  0  0  0
  1 14  1  0  0  0  0
  2  3  1  0  0  0  0
  3  7  2  0  0  0  0
  3 19  1  0  0  0  0
  4 11  2  0  0  0  0
  5 14  2  0  0  0  0
  5  2  1  0  0  0  0
  6  1  2  0  0  0  0
  7  4  1  0  0  0  0
  8 13  1  0  0  0  0
 10 19  1  0  0  0  0
 11 15  1  0  0  0  0
 12 16  1  0  0  0  0
 12  8  2  0  0  0  0
 13  2  2  0  0  0  0
 13 18  1  0  0  0  0
 16  5  1  0  0  0  0
 17  6  1  0  0  0  0
 17 16  2  0  0  0  0
 18 10  1  0  0  0  0
 19 20  2  0  0  0  0
 20 11  1  0  0  0  0
 20 15  1  0  0  0  0
 21  8  1  0  0  0  0
 22 23  1  0  0  0  0
 23 21  1  1  0  0  0
 24 22  1  0  0  0  0
 24 23  1  0  0  0  0
 24 25  1  1  0  0  0
 26 27  2  0  0  0  0
 27 25  1  0  0  0  0
 28 27  1  0  0  0  0
 29 28  1  0  0  0  0
 30 29  1  0  0  0  0
 31 29  2  0  0  0  0
M  END
>  <MODEL>
9

>  <REMARK>
 VINA RESULT:      -8.7      2.852      4.567
  Name = 
  6 active torsions:
  status: ('A' for Active; 'I' for Inactive)
    1  A    between atoms: C_1  and  N_24
    2  A    between atoms: C_3  and  C_19
    3  A    between atoms: C_3  and  C_22
    4  A    between atoms: C_9  and  C_23
    5  A    between atoms: C_15  and  C_23
    6  A    between atoms: C_19  and  N_24
                            x       y       z     vdW  Elec       q    Type
                         _______ _______ _______ _____ _____    ______ ____

>  <TORSDO>
F 6

$$$$
