=
 OpenBabel10262420083D

 27 31  0  0  0  0  0  0  0  0999 V2000
  187.2920  178.5080  141.7610 N   0  0  0  0  0  0  0  0  0  0  0  0
  187.6990  177.7240  144.0560 C   0  0  0  0  0  0  0  0  0  0  0  0
  189.5200  176.7510  142.6140 N   0  0  0  0  0  0  0  0  0  0  0  0
  190.0980  177.0340  147.3680 C   0  0  0  0  0  3  0  0  0  0  0  0
  192.2590  176.4360  148.4120 O   0  0  0  0  0  1  0  0  0  0  0  0
  187.2560  177.8790  145.3850 C   0  0  0  0  0  3  0  0  0  0  0  0
  191.2600  176.4930  144.7920 C   0  0  0  0  0  2  0  0  0  0  0  0
  189.5010  176.7070  138.9820 N   0  0  0  0  0  0  0  0  0  0  0  0
  192.0420  176.3530  146.0700 C   0  0  0  0  0  3  0  0  0  0  0  0
  190.4550  176.1760  138.0260 C   0  0  0  0  0  1  0  0  0  0  0  0
  189.8510  177.0210  144.9890 C   0  0  0  0  0  0  0  0  0  0  0  0
  186.8470  178.0800  143.0560 C   0  0  0  0  0  0  0  0  0  0  0  0
  191.4980  176.5950  147.2610 C   0  0  0  0  0  0  0  0  0  0  0  0
  189.3430  177.2350  146.2840 C   0  0  0  0  0  0  0  0  0  0  0  0
  188.3030  178.1550  141.0350 C   0  0  0  0  0  0  0  0  0  0  0  0
  189.0270  177.2490  143.8650 C   0  0  0  0  0  0  0  0  0  0  0  0
  190.0250  176.3990  140.3100 C   0  0  0  0  0  2  0  0  0  0  0  0
  188.0630  177.6390  146.4450 N   0  0  0  0  0  0  0  0  0  0  0  0
  189.5150  178.1560  138.8280 C   0  0  0  0  0  2  0  0  0  0  0  0
  188.3950  178.7690  139.6650 C   0  0  0  0  0  2  0  0  0  0  0  0
  189.2120  177.0510  141.3960 C   0  0  0  0  0  0  0  0  0  0  0  0
  182.6970  178.8890  143.8260 C   0  0  0  0  0  3  0  0  0  0  0  0
  185.4020  178.3250  143.3220 C   0  0  0  0  0  0  0  0  0  0  0  0
  184.4560  178.2690  142.2840 C   0  0  0  0  0  3  0  0  0  0  0  0
  183.1090  178.5440  142.5370 C   0  0  0  0  0  3  0  0  0  0  0  0
  183.6320  178.9650  144.8620 C   0  0  0  0  0  3  0  0  0  0  0  0
  184.9790  178.6910  144.6090 C   0  0  0  0  0  3  0  0  0  0  0  0
  1 12  1  0  0  0  0
  2  6  1  0  0  0  0
  3 16  1  0  0  0  0
  6 18  2  0  0  0  0
  7 11  1  0  0  0  0
  7  9  1  0  0  0  0
  8 17  1  0  0  0  0
  9 13  2  0  0  0  0
 10  8  1  0  0  0  0
 11 14  1  0  0  0  0
 12 23  1  0  0  0  0
 12  2  2  0  0  0  0
 13  4  1  0  0  0  0
 13  5  1  0  0  0  0
 14 18  1  0  0  0  0
 14  4  2  0  0  0  0
 15 21  1  0  0  0  0
 15  1  2  0  0  0  0
 16  2  1  0  0  0  0
 16 11  2  0  0  0  0
 17 21  1  0  0  0  0
 19  8  1  0  0  0  0
 19 20  1  0  0  0  0
 20 15  1  0  0  0  0
 21  3  2  0  0  0  0
 22 26  1  0  0  0  0
 23 27  1  0  0  0  0
 24 25  1  0  0  0  0
 24 23  2  0  0  0  0
 25 22  2  0  0  0  0
 27 26  2  0  0  0  0
M  END
>  <MODEL>
1

>  <REMARK>
 VINA RESULT:     -11.1      0.000      0.000
  Name = 
  1 active torsions:
  status: ('A' for Active; 'I' for Inactive)
    1  A    between atoms: C_9  and  C_15
                            x       y       z     vdW  Elec       q    Type
                         _______ _______ _______ _____ _____    ______ ____

>  <TORSDO>
F 1

$$$$
=
 OpenBabel10262420083D

 27 31  0  0  0  0  0  0  0  0999 V2000
  186.8600  178.6850  140.1380 N   0  0  0  0  0  0  0  0  0  0  0  0
  186.0770  178.2210  142.4230 C   0  0  0  0  0  0  0  0  0  0  0  0
  188.3590  177.1770  142.2020 N   0  0  0  0  0  0  0  0  0  0  0  0
  186.5320  178.0900  146.5430 C   0  0  0  0  0  3  0  0  0  0  0  0
  187.8940  177.7500  148.5790 O   0  0  0  0  0  1  0  0  0  0  0  0
  185.0420  178.5170  143.3320 C   0  0  0  0  0  3  0  0  0  0  0  0
  188.8020  177.2930  144.9640 C   0  0  0  0  0  2  0  0  0  0  0  0
  190.1240  176.6730  139.0680 N   0  0  0  0  0  0  0  0  0  0  0  0
  188.8540  177.3600  146.4660 C   0  0  0  0  0  3  0  0  0  0  0  0
  191.4170  176.0800  138.7820 C   0  0  0  0  0  1  0  0  0  0  0  0
  187.4850  177.7630  144.3740 C   0  0  0  0  0  0  0  0  0  0  0  0
  185.8310  178.4000  141.0960 C   0  0  0  0  0  0  0  0  0  0  0  0
  187.7980  177.7190  147.1940 C   0  0  0  0  0  0  0  0  0  0  0  0
  186.4090  178.1100  145.2130 C   0  0  0  0  0  0  0  0  0  0  0  0
  188.0920  178.3000  140.0550 C   0  0  0  0  0  0  0  0  0  0  0  0
  187.3210  177.8000  142.9720 C   0  0  0  0  0  0  0  0  0  0  0  0
  189.9240  176.5660  140.5110 C   0  0  0  0  0  2  0  0  0  0  0  0
  185.2210  178.4590  144.6720 N   0  0  0  0  0  0  0  0  0  0  0  0
  190.2310  178.0900  138.7430 C   0  0  0  0  0  2  0  0  0  0  0  0
  188.8530  178.7400  138.8340 C   0  0  0  0  0  2  0  0  0  0  0  0
  188.6920  177.3030  140.9600 C   0  0  0  0  0  0  0  0  0  0  0  0
  181.8590  178.9180  139.5400 C   0  0  0  0  0  3  0  0  0  0  0  0
  184.4450  178.5960  140.5870 C   0  0  0  0  0  0  0  0  0  0  0  0
  183.3900  177.7780  141.0270 C   0  0  0  0  0  3  0  0  0  0  0  0
  182.1020  177.9430  140.5100 C   0  0  0  0  0  3  0  0  0  0  0  0
  182.9030  179.7250  139.0820 C   0  0  0  0  0  3  0  0  0  0  0  0
  184.1920  179.5600  139.5990 C   0  0  0  0  0  3  0  0  0  0  0  0
  1 12  1  0  0  0  0
  2 16  1  0  0  0  0
  2  6  1  0  0  0  0
  3 16  1  0  0  0  0
  4 13  1  0  0  0  0
  6 18  2  0  0  0  0
  7  9  1  0  0  0  0
  8 17  1  0  0  0  0
  9 13  2  0  0  0  0
 10  8  1  0  0  0  0
 11  7  1  0  0  0  0
 11 14  1  0  0  0  0
 12  2  2  0  0  0  0
 13  5  1  0  0  0  0
 14  4  2  0  0  0  0
 15  1  2  0  0  0  0
 15 21  1  0  0  0  0
 16 11  2  0  0  0  0
 17 21  1  0  0  0  0
 18 14  1  0  0  0  0
 19 20  1  0  0  0  0
 19  8  1  0  0  0  0
 20 15  1  0  0  0  0
 21  3  2  0  0  0  0
 22 25  1  0  0  0  0
 23 24  1  0  0  0  0
 23 12  1  0  0  0  0
 25 24  2  0  0  0  0
 26 22  2  0  0  0  0
 26 27  1  0  0  0  0
 27 23  2  0  0  0  0
M  END
>  <MODEL>
2

>  <REMARK>
 VINA RESULT:     -10.3      1.910      2.904
  Name = 
  1 active torsions:
  status: ('A' for Active; 'I' for Inactive)
    1  A    between atoms: C_9  and  C_15
                            x       y       z     vdW  Elec       q    Type
                         _______ _______ _______ _____ _____    ______ ____

>  <TORSDO>
F 1

$$$$
=
 OpenBabel10262420083D

 27 31  0  0  0  0  0  0  0  0999 V2000
  188.3140  177.1710  143.7520 N   0  0  0  0  0  0  0  0  0  0  0  0
  186.2060  178.1580  144.5480 C   0  0  0  0  0  0  0  0  0  0  0  0
  186.3390  178.6050  142.0720 N   0  0  0  0  0  0  0  0  0  0  0  0
  182.1190  178.8330  144.3430 C   0  0  0  0  0  3  0  0  0  0  0  0
  180.0230  179.1720  143.0750 O   0  0  0  0  0  1  0  0  0  0  0  0
  185.3750  178.2530  145.6810 C   0  0  0  0  0  3  0  0  0  0  0  0
  183.5580  178.8310  141.8510 C   0  0  0  0  0  2  0  0  0  0  0  0
  189.3190  178.1900  140.0380 N   0  0  0  0  0  0  0  0  0  0  0  0
  182.0630  178.9920  141.9140 C   0  0  0  0  0  3  0  0  0  0  0  0
  189.5530  178.4200  138.6240 C   0  0  0  0  0  1  0  0  0  0  0  0
  184.2060  178.5860  143.2020 C   0  0  0  0  0  0  0  0  0  0  0  0
  187.5140  177.8320  144.7430 C   0  0  0  0  0  0  0  0  0  0  0  0
  181.4020  179.0030  143.0710 C   0  0  0  0  0  0  0  0  0  0  0  0
  183.4390  178.6310  144.3810 C   0  0  0  0  0  0  0  0  0  0  0  0
  188.3260  177.2470  142.4620 C   0  0  0  0  0  0  0  0  0  0  0  0
  185.5990  178.3650  143.2770 C   0  0  0  0  0  0  0  0  0  0  0  0
  187.9320  178.5680  140.2990 C   0  0  0  0  0  2  0  0  0  0  0  0
  184.0440  178.4810  145.5810 N   0  0  0  0  0  0  0  0  0  0  0  0
  189.4320  176.7530  140.2530 C   0  0  0  0  0  2  0  0  0  0  0  0
  189.3910  176.4570  141.7500 C   0  0  0  0  0  2  0  0  0  0  0  0
  187.5110  178.2110  141.6990 C   0  0  0  0  0  0  0  0  0  0  0  0
  189.2370  177.8810  148.6800 C   0  0  0  0  0  3  0  0  0  0  0  0
  188.1280  177.8790  146.0990 C   0  0  0  0  0  0  0  0  0  0  0  0
  189.4630  177.4890  146.3020 C   0  0  0  0  0  3  0  0  0  0  0  0
  190.0150  177.4970  147.5860 C   0  0  0  0  0  3  0  0  0  0  0  0
  187.9030  178.2530  148.4920 C   0  0  0  0  0  3  0  0  0  0  0  0
  187.3500  178.2450  147.2080 C   0  0  0  0  0  3  0  0  0  0  0  0
  1 12  1  0  0  0  0
  2 12  2  0  0  0  0
  2  6  1  0  0  0  0
  3 16  1  0  0  0  0
  4 14  2  0  0  0  0
  7  9  1  0  0  0  0
  7 11  1  0  0  0  0
  8 19  1  0  0  0  0
  8 17  1  0  0  0  0
  9 13  2  0  0  0  0
 10  8  1  0  0  0  0
 11 16  2  0  0  0  0
 11 14  1  0  0  0  0
 12 23  1  0  0  0  0
 13  5  1  0  0  0  0
 13  4  1  0  0  0  0
 14 18  1  0  0  0  0
 15  1  2  0  0  0  0
 16  2  1  0  0  0  0
 17 21  1  0  0  0  0
 18  6  2  0  0  0  0
 19 20  1  0  0  0  0
 20 15  1  0  0  0  0
 21  3  2  0  0  0  0
 21 15  1  0  0  0  0
 23 24  2  0  0  0  0
 23 27  1  0  0  0  0
 24 25  1  0  0  0  0
 25 22  2  0  0  0  0
 26 22  1  0  0  0  0
 27 26  2  0  0  0  0
M  END
>  <MODEL>
3

>  <REMARK>
 VINA RESULT:     -10.2      2.992      6.108
  Name = 
  1 active torsions:
  status: ('A' for Active; 'I' for Inactive)
    1  A    between atoms: C_9  and  C_15
                            x       y       z     vdW  Elec       q    Type
                         _______ _______ _______ _____ _____    ______ ____

>  <TORSDO>
F 1

$$$$
=
 OpenBabel10262420083D

 27 31  0  0  0  0  0  0  0  0999 V2000
  189.0340  176.9320  142.9650 N   0  0  0  0  0  0  0  0  0  0  0  0
  187.1160  177.8760  144.1810 C   0  0  0  0  0  0  0  0  0  0  0  0
  186.8510  178.5350  141.7650 N   0  0  0  0  0  0  0  0  0  0  0  0
  183.0730  178.6280  144.7190 C   0  0  0  0  0  3  0  0  0  0  0  0
  180.8070  179.1070  143.8520 O   0  0  0  0  0  1  0  0  0  0  0  0
  186.4860  177.8850  145.4410 C   0  0  0  0  0  3  0  0  0  0  0  0
  184.0800  178.8210  142.0310 C   0  0  0  0  0  2  0  0  0  0  0  0
  189.4410  178.2540  139.2330 N   0  0  0  0  0  0  0  0  0  0  0  0
  182.6210  178.9990  142.3560 C   0  0  0  0  0  3  0  0  0  0  0  0
  189.4450  178.6030  137.8250 C   0  0  0  0  0  1  0  0  0  0  0  0
  184.9340  178.4500  143.2280 C   0  0  0  0  0  0  0  0  0  0  0  0
  188.4280  177.5150  144.1280 C   0  0  0  0  0  0  0  0  0  0  0  0
  182.1610  178.9190  143.6030 C   0  0  0  0  0  0  0  0  0  0  0  0
  184.3750  178.4030  144.5190 C   0  0  0  0  0  0  0  0  0  0  0  0
  188.8350  177.1190  141.7020 C   0  0  0  0  0  0  0  0  0  0  0  0
  186.3140  178.2030  143.0520 C   0  0  0  0  0  0  0  0  0  0  0  0
  188.1280  178.6280  139.7530 C   0  0  0  0  0  2  0  0  0  0  0  0
  185.1640  178.1410  145.5840 N   0  0  0  0  0  0  0  0  0  0  0  0
  189.5460  176.8020  139.3070 C   0  0  0  0  0  2  0  0  0  0  0  0
  189.7440  176.3780  140.7590 C   0  0  0  0  0  2  0  0  0  0  0  0
  187.9340  178.1580  141.1690 C   0  0  0  0  0  0  0  0  0  0  0  0
  190.7690  177.2030  147.7180 C   0  0  0  0  0  3  0  0  0  0  0  0
  189.2580  177.4350  145.3610 C   0  0  0  0  0  0  0  0  0  0  0  0
  190.5420  176.8630  145.3330 C   0  0  0  0  0  3  0  0  0  0  0  0
  191.2950  176.7540  146.5050 C   0  0  0  0  0  3  0  0  0  0  0  0
  189.4870  177.7570  147.7610 C   0  0  0  0  0  3  0  0  0  0  0  0
  188.7330  177.8660  146.5880 C   0  0  0  0  0  3  0  0  0  0  0  0
  1 12  1  0  0  0  0
  2  6  1  0  0  0  0
  3 16  1  0  0  0  0
  6 18  2  0  0  0  0
  7  9  1  0  0  0  0
  7 11  1  0  0  0  0
  8 19  1  0  0  0  0
  8 17  1  0  0  0  0
  9 13  2  0  0  0  0
 10  8  1  0  0  0  0
 11 14  1  0  0  0  0
 12  2  2  0  0  0  0
 12 23  1  0  0  0  0
 13  5  1  0  0  0  0
 13  4  1  0  0  0  0
 14  4  2  0  0  0  0
 14 18  1  0  0  0  0
 15  1  2  0  0  0  0
 16 11  2  0  0  0  0
 16  2  1  0  0  0  0
 17 21  1  0  0  0  0
 19 20  1  0  0  0  0
 20 15  1  0  0  0  0
 21 15  1  0  0  0  0
 21  3  2  0  0  0  0
 22 26  1  0  0  0  0
 23 27  1  0  0  0  0
 24 23  2  0  0  0  0
 24 25  1  0  0  0  0
 25 22  2  0  0  0  0
 27 26  2  0  0  0  0
M  END
>  <MODEL>
4

>  <REMARK>
 VINA RESULT:     -10.0      2.619      5.874
  Name = 
  1 active torsions:
  status: ('A' for Active; 'I' for Inactive)
    1  A    between atoms: C_9  and  C_15
                            x       y       z     vdW  Elec       q    Type
                         _______ _______ _______ _____ _____    ______ ____

>  <TORSDO>
F 1

$$$$
=
 OpenBabel10262420083D

 27 31  0  0  0  0  0  0  0  0999 V2000
  189.9180  178.2090  141.8460 N   0  0  0  0  0  0  0  0  0  0  0  0
  187.4950  178.0950  141.4430 C   0  0  0  0  0  0  0  0  0  0  0  0
  187.8650  177.5250  143.8690 N   0  0  0  0  0  0  0  0  0  0  0  0
  183.5410  178.9510  142.3580 C   0  0  0  0  0  2  0  0  0  0  0  0
  181.7100  179.3470  143.9730 O   0  0  0  0  0  1  0  0  0  0  0  0
  186.5090  178.3580  140.4720 C   0  0  0  0  0  3  0  0  0  0  0  0
  185.2740  178.3220  144.5670 C   0  0  0  0  0  3  0  0  0  0  0  0
  191.0850  176.7370  145.3550 N   0  0  0  0  0  0  0  0  0  0  0  0
  183.8360  178.7200  144.7640 C   0  0  0  0  0  3  0  0  0  0  0  0
  191.4490  176.3780  146.7130 C   0  0  0  0  0  1  0  0  0  0  0  0
  185.7320  178.3700  143.1210 C   0  0  0  0  0  0  0  0  0  0  0  0
  188.7780  177.9290  141.0210 C   0  0  0  0  0  0  0  0  0  0  0  0
  183.0340  179.0000  143.7380 C   0  0  0  0  0  0  0  0  0  0  0  0
  184.8170  178.6580  142.0910 C   0  0  0  0  0  0  0  0  0  0  0  0
  190.1170  178.0800  143.1160 C   0  0  0  0  0  0  0  0  0  0  0  0
  187.0740  178.0700  142.8030 C   0  0  0  0  0  0  0  0  0  0  0  0
  189.6330  176.9030  145.3430 C   0  0  0  0  0  2  0  0  0  0  0  0
  185.2240  178.6280  140.8030 N   0  0  0  0  0  0  0  0  0  0  0  0
  191.6790  178.0410  145.0920 C   0  0  0  0  0  2  0  0  0  0  0  0
  191.5000  178.3950  143.6180 C   0  0  0  0  0  2  0  0  0  0  0  0
  189.1450  177.4480  144.0280 C   0  0  0  0  0  0  0  0  0  0  0  0
  189.7870  177.3680  136.8810 C   0  0  0  0  0  3  0  0  0  0  0  0
  189.0960  177.7190  139.5810 C   0  0  0  0  0  0  0  0  0  0  0  0
  189.5110  176.4620  139.1080 C   0  0  0  0  0  3  0  0  0  0  0  0
  189.8490  176.2870  137.7630 C   0  0  0  0  0  3  0  0  0  0  0  0
  189.3930  178.6260  137.3440 C   0  0  0  0  0  3  0  0  0  0  0  0
  189.0550  178.8020  138.6900 C   0  0  0  0  0  3  0  0  0  0  0  0
  1 15  1  0  0  0  0
  2 16  1  0  0  0  0
  3 21  1  0  0  0  0
  4 13  1  0  0  0  0
  6 18  1  0  0  0  0
  6  2  2  0  0  0  0
  7  9  1  0  0  0  0
  8 10  1  0  0  0  0
 11  7  2  0  0  0  0
 12  2  1  0  0  0  0
 12  1  2  0  0  0  0
 13  5  1  0  0  0  0
 13  9  2  0  0  0  0
 14  4  1  0  0  0  0
 14 11  1  0  0  0  0
 15 20  1  0  0  0  0
 15 21  2  0  0  0  0
 16 11  1  0  0  0  0
 16  3  2  0  0  0  0
 17  8  1  0  0  0  0
 18 14  2  0  0  0  0
 19  8  1  0  0  0  0
 20 19  1  0  0  0  0
 21 17  1  0  0  0  0
 22 26  2  0  0  0  0
 22 25  1  0  0  0  0
 23 12  1  0  0  0  0
 24 23  1  0  0  0  0
 25 24  2  0  0  0  0
 26 27  1  0  0  0  0
 27 23  2  0  0  0  0
M  END
>  <MODEL>
5

>  <REMARK>
 VINA RESULT:      -9.7      2.643      6.632
  Name = 
  1 active torsions:
  status: ('A' for Active; 'I' for Inactive)
    1  A    between atoms: C_9  and  C_15
                            x       y       z     vdW  Elec       q    Type
                         _______ _______ _______ _____ _____    ______ ____

>  <TORSDO>
F 1

$$$$
=
 OpenBabel10262420083D

 27 31  0  0  0  0  0  0  0  0999 V2000
  189.3230  178.4360  141.6080 N   0  0  0  0  0  0  0  0  0  0  0  0
  186.9110  178.2640  141.1560 C   0  0  0  0  0  0  0  0  0  0  0  0
  187.2490  177.6690  143.5810 N   0  0  0  0  0  0  0  0  0  0  0  0
  182.9190  179.0010  142.0040 C   0  0  0  0  0  2  0  0  0  0  0  0
  181.0470  179.3260  143.5880 O   0  0  0  0  0  1  0  0  0  0  0  0
  185.9380  178.5140  140.1690 C   0  0  0  0  0  3  0  0  0  0  0  0
  184.6250  178.3870  144.2380 C   0  0  0  0  0  3  0  0  0  0  0  0
  190.4600  176.9450  145.1190 N   0  0  0  0  0  0  0  0  0  0  0  0
  183.1730  178.7440  144.4120 C   0  0  0  0  0  3  0  0  0  0  0  0
  190.8080  176.5770  146.4780 C   0  0  0  0  0  1  0  0  0  0  0  0
  185.1090  178.4680  142.8020 C   0  0  0  0  0  0  0  0  0  0  0  0
  188.2060  178.1380  140.7570 C   0  0  0  0  0  0  0  0  0  0  0  0
  182.3840  179.0170  143.3740 C   0  0  0  0  0  0  0  0  0  0  0  0
  184.2070  178.7460  141.7580 C   0  0  0  0  0  0  0  0  0  0  0  0
  189.5000  178.2940  142.8800 C   0  0  0  0  0  0  0  0  0  0  0  0
  186.4650  178.2080  142.5070 C   0  0  0  0  0  0  0  0  0  0  0  0
  189.0040  177.0730  145.0800 C   0  0  0  0  0  2  0  0  0  0  0  0
  184.6400  178.7450  140.4780 N   0  0  0  0  0  0  0  0  0  0  0  0
  191.0240  178.2690  144.8850 C   0  0  0  0  0  2  0  0  0  0  0  0
  190.8640  178.6390  143.4130 C   0  0  0  0  0  2  0  0  0  0  0  0
  188.5280  177.6240  143.7640 C   0  0  0  0  0  0  0  0  0  0  0  0
  189.1220  177.6070  136.5920 C   0  0  0  0  0  3  0  0  0  0  0  0
  188.5580  177.9570  139.3210 C   0  0  0  0  0  0  0  0  0  0  0  0
  188.9120  179.0550  138.5180 C   0  0  0  0  0  3  0  0  0  0  0  0
  189.1980  178.8790  137.1620 C   0  0  0  0  0  3  0  0  0  0  0  0
  188.7540  176.5100  137.3750 C   0  0  0  0  0  3  0  0  0  0  0  0
  188.4670  176.6860  138.7330 C   0  0  0  0  0  3  0  0  0  0  0  0
  1 15  1  0  0  0  0
  2 16  1  0  0  0  0
  3 21  1  0  0  0  0
  4 13  1  0  0  0  0
  6 18  1  0  0  0  0
  6  2  2  0  0  0  0
  7  9  1  0  0  0  0
  8 10  1  0  0  0  0
 11  7  2  0  0  0  0
 12  2  1  0  0  0  0
 12  1  2  0  0  0  0
 13  5  1  0  0  0  0
 13  9  2  0  0  0  0
 14  4  1  0  0  0  0
 14 11  1  0  0  0  0
 15 20  1  0  0  0  0
 15 21  2  0  0  0  0
 16 11  1  0  0  0  0
 16  3  2  0  0  0  0
 17  8  1  0  0  0  0
 18 14  2  0  0  0  0
 19  8  1  0  0  0  0
 20 19  1  0  0  0  0
 21 17  1  0  0  0  0
 22 25  2  0  0  0  0
 22 26  1  0  0  0  0
 23 12  1  0  0  0  0
 24 23  2  0  0  0  0
 25 24  1  0  0  0  0
 26 27  2  0  0  0  0
 27 23  1  0  0  0  0
M  END
>  <MODEL>
6

>  <REMARK>
 VINA RESULT:      -9.6      2.875      6.777
  Name = 
  1 active torsions:
  status: ('A' for Active; 'I' for Inactive)
    1  A    between atoms: C_9  and  C_15
                            x       y       z     vdW  Elec       q    Type
                         _______ _______ _______ _____ _____    ______ ____

>  <TORSDO>
F 1

$$$$
=
 OpenBabel10262420083D

 27 31  0  0  0  0  0  0  0  0999 V2000
  183.7070  178.9600  143.2080 N   0  0  0  0  0  0  0  0  0  0  0  0
  185.8260  178.3820  142.1010 C   0  0  0  0  0  0  0  0  0  0  0  0
  183.9800  177.8960  140.4570 N   0  0  0  0  0  0  0  0  0  0  0  0
  188.4910  178.4620  138.9240 C   0  0  0  0  0  3  0  0  0  0  0  0
  189.0030  178.5010  136.5050 O   0  0  0  0  0  1  0  0  0  0  0  0
  187.2240  178.4490  142.2580 C   0  0  0  0  0  3  0  0  0  0  0  0
  185.7030  178.1800  138.2690 C   0  0  0  0  0  2  0  0  0  0  0  0
  180.4450  177.7430  141.2790 N   0  0  0  0  0  0  0  0  0  0  0  0
  186.7680  178.2950  137.2120 C   0  0  0  0  0  3  0  0  0  0  0  0
  179.2830  177.4630  140.4570 C   0  0  0  0  0  1  0  0  0  0  0  0
  186.2290  178.3140  139.6870 C   0  0  0  0  0  0  0  0  0  0  0  0
  185.0540  178.4650  143.2190 C   0  0  0  0  0  0  0  0  0  0  0  0
  188.0580  178.4140  137.5190 C   0  0  0  0  0  0  0  0  0  0  0  0
  187.6110  178.4200  139.9290 C   0  0  0  0  0  0  0  0  0  0  0  0
  182.7630  178.8720  142.3300 C   0  0  0  0  0  0  0  0  0  0  0  0
  185.3270  178.2770  140.7720 C   0  0  0  0  0  0  0  0  0  0  0  0
  181.6120  177.6270  140.4070 C   0  0  0  0  0  2  0  0  0  0  0  0
  188.0680  178.4670  141.2000 N   0  0  0  0  0  0  0  0  0  0  0  0
  180.3410  179.1380  141.6910 C   0  0  0  0  0  2  0  0  0  0  0  0
  181.4280  179.4480  142.7170 C   0  0  0  0  0  2  0  0  0  0  0  0
  182.8720  178.0670  141.1000 C   0  0  0  0  0  0  0  0  0  0  0  0
  186.8400  178.0950  147.1100 C   0  0  0  0  0  3  0  0  0  0  0  0
  185.6450  178.3180  144.5780 C   0  0  0  0  0  0  0  0  0  0  0  0
  185.2040  179.1160  145.6490 C   0  0  0  0  0  3  0  0  0  0  0  0
  185.7960  178.9990  146.9100 C   0  0  0  0  0  3  0  0  0  0  0  0
  187.2990  177.3100  146.0490 C   0  0  0  0  0  3  0  0  0  0  0  0
  186.7070  177.4260  144.7880 C   0  0  0  0  0  3  0  0  0  0  0  0
  1 12  1  0  0  0  0
  2  6  1  0  0  0  0
  2 12  2  0  0  0  0
  3 16  1  0  0  0  0
  3 21  2  0  0  0  0
  4 14  2  0  0  0  0
  5 13  1  0  0  0  0
  7 11  1  0  0  0  0
  8 19  1  0  0  0  0
  9 13  2  0  0  0  0
  9  7  1  0  0  0  0
 10  8  1  0  0  0  0
 11 14  1  0  0  0  0
 11 16  2  0  0  0  0
 12 23  1  0  0  0  0
 13  4  1  0  0  0  0
 14 18  1  0  0  0  0
 15 20  1  0  0  0  0
 15  1  2  0  0  0  0
 16  2  1  0  0  0  0
 17 21  1  0  0  0  0
 17  8  1  0  0  0  0
 18  6  2  0  0  0  0
 19 20  1  0  0  0  0
 21 15  1  0  0  0  0
 23 27  2  0  0  0  0
 23 24  1  0  0  0  0
 24 25  2  0  0  0  0
 25 22  1  0  0  0  0
 26 22  2  0  0  0  0
 27 26  1  0  0  0  0
M  END
>  <MODEL>
7

>  <REMARK>
 VINA RESULT:      -9.0      3.502      7.078
  Name = 
  1 active torsions:
  status: ('A' for Active; 'I' for Inactive)
    1  A    between atoms: C_9  and  C_15
                            x       y       z     vdW  Elec       q    Type
                         _______ _______ _______ _____ _____    ______ ____

>  <TORSDO>
F 1

$$$$
=
 OpenBabel10262420083D

 27 31  0  0  0  0  0  0  0  0999 V2000
  189.2290  177.0460  140.7180 N   0  0  0  0  0  0  0  0  0  0  0  0
  187.4640  178.0680  142.0920 C   0  0  0  0  0  0  0  0  0  0  0  0
  186.8680  178.5090  139.6850 N   0  0  0  0  0  0  0  0  0  0  0  0
  183.5090  178.8090  143.0960 C   0  0  0  0  0  3  0  0  0  0  0  0
  181.1370  179.1800  142.4990 O   0  0  0  0  0  1  0  0  0  0  0  0
  187.0040  178.1790  143.4190 C   0  0  0  0  0  3  0  0  0  0  0  0
  184.1490  178.7790  140.2910 C   0  0  0  0  0  2  0  0  0  0  0  0
  189.1110  178.0410  136.8650 N   0  0  0  0  0  0  0  0  0  0  0  0
  182.7420  178.9650  140.7900 C   0  0  0  0  0  3  0  0  0  0  0  0
  188.9210  178.2650  135.4440 C   0  0  0  0  0  1  0  0  0  0  0  0
  185.1620  178.5260  141.3920 C   0  0  0  0  0  0  0  0  0  0  0  0
  188.7650  177.7210  141.8960 C   0  0  0  0  0  0  0  0  0  0  0  0
  182.4510  178.9890  142.0890 C   0  0  0  0  0  0  0  0  0  0  0  0
  184.7780  178.5860  142.7440 C   0  0  0  0  0  0  0  0  0  0  0  0
  188.8610  177.1190  139.4800 C   0  0  0  0  0  0  0  0  0  0  0  0
  186.5120  178.2830  141.0560 C   0  0  0  0  0  0  0  0  0  0  0  0
  187.8680  178.4420  137.5210 C   0  0  0  0  0  2  0  0  0  0  0  0
  185.7060  178.4280  143.7140 N   0  0  0  0  0  0  0  0  0  0  0  0
  189.2600  176.6030  137.0480 C   0  0  0  0  0  2  0  0  0  0  0  0
  189.6570  176.3110  138.4920 C   0  0  0  0  0  2  0  0  0  0  0  0
  187.8730  178.0950  138.9850 C   0  0  0  0  0  0  0  0  0  0  0  0
  191.6810  177.7870  145.0530 C   0  0  0  0  0  3  0  0  0  0  0  0
  189.7520  177.7610  143.0110 C   0  0  0  0  0  0  0  0  0  0  0  0
  190.4560  178.9390  143.3120 C   0  0  0  0  0  3  0  0  0  0  0  0
  191.4110  178.9520  144.3320 C   0  0  0  0  0  3  0  0  0  0  0  0
  190.9990  176.6050  144.7500 C   0  0  0  0  0  3  0  0  0  0  0  0
  190.0440  176.5910  143.7290 C   0  0  0  0  0  3  0  0  0  0  0  0
  1 12  1  0  0  0  0
  2  6  1  0  0  0  0
  3 16  1  0  0  0  0
  6 18  2  0  0  0  0
  7  9  1  0  0  0  0
  7 11  1  0  0  0  0
  8 19  1  0  0  0  0
  8 17  1  0  0  0  0
  9 13  2  0  0  0  0
 10  8  1  0  0  0  0
 11 14  1  0  0  0  0
 12  2  2  0  0  0  0
 12 23  1  0  0  0  0
 13  5  1  0  0  0  0
 13  4  1  0  0  0  0
 14  4  2  0  0  0  0
 14 18  1  0  0  0  0
 15  1  2  0  0  0  0
 16 11  2  0  0  0  0
 16  2  1  0  0  0  0
 17 21  1  0  0  0  0
 19 20  1  0  0  0  0
 20 15  1  0  0  0  0
 21 15  1  0  0  0  0
 21  3  2  0  0  0  0
 23 24  2  0  0  0  0
 23 27  1  0  0  0  0
 24 25  1  0  0  0  0
 25 22  2  0  0  0  0
 26 22  1  0  0  0  0
 27 26  2  0  0  0  0
M  END
>  <MODEL>
8

>  <REMARK>
 VINA RESULT:      -8.9      2.997      6.235
  Name = 
  1 active torsions:
  status: ('A' for Active; 'I' for Inactive)
    1  A    between atoms: C_9  and  C_15
                            x       y       z     vdW  Elec       q    Type
                         _______ _______ _______ _____ _____    ______ ____

>  <TORSDO>
F 1

$$$$
=
 OpenBabel10262420083D

 27 31  0  0  0  0  0  0  0  0999 V2000
  190.3100  177.9410  142.3920 N   0  0  0  0  0  0  0  0  0  0  0  0
  188.5270  177.8620  140.7000 C   0  0  0  0  0  0  0  0  0  0  0  0
  187.4170  177.6230  142.9480 N   0  0  0  0  0  0  0  0  0  0  0  0
  184.8570  178.9810  139.1250 C   0  0  0  0  0  2  0  0  0  0  0  0
  182.4940  179.6660  139.3710 O   0  0  0  0  0  1  0  0  0  0  0  0
  188.2870  178.0220  139.3210 C   0  0  0  0  0  3  0  0  0  0  0  0
  184.9830  178.6040  141.9750 C   0  0  0  0  0  3  0  0  0  0  0  0
  189.1520  176.9320  146.0640 N   0  0  0  0  0  0  0  0  0  0  0  0
  183.7340  179.0780  141.2830 C   0  0  0  0  0  3  0  0  0  0  0  0
  188.6560  176.7530  147.4160 C   0  0  0  0  0  1  0  0  0  0  0  0
  186.1710  178.4330  141.0470 C   0  0  0  0  0  0  0  0  0  0  0  0
  189.8010  177.5910  141.0970 C   0  0  0  0  0  0  0  0  0  0  0  0
  183.6760  179.2410  139.9630 C   0  0  0  0  0  0  0  0  0  0  0  0
  186.0240  178.6080  139.6580 C   0  0  0  0  0  0  0  0  0  0  0  0
  189.7510  177.9840  143.5570 C   0  0  0  0  0  0  0  0  0  0  0  0
  187.4200  178.0420  141.5760 C   0  0  0  0  0  0  0  0  0  0  0  0
  187.9820  177.1480  145.2150 C   0  0  0  0  0  2  0  0  0  0  0  0
  187.0750  178.3830  138.8380 N   0  0  0  0  0  0  0  0  0  0  0  0
  189.9300  178.1640  146.0620 C   0  0  0  0  0  2  0  0  0  0  0  0
  190.6430  178.3150  144.7220 C   0  0  0  0  0  2  0  0  0  0  0  0
  188.3730  177.5210  143.8110 C   0  0  0  0  0  0  0  0  0  0  0  0
  192.8380  176.3050  138.3420 C   0  0  0  0  0  3  0  0  0  0  0  0
  190.8420  177.1710  140.1200 C   0  0  0  0  0  0  0  0  0  0  0  0
  190.5120  176.3780  139.0070 C   0  0  0  0  0  3  0  0  0  0  0  0
  191.5050  175.9530  138.1200 C   0  0  0  0  0  3  0  0  0  0  0  0
  193.1800  177.0780  139.4550 C   0  0  0  0  0  3  0  0  0  0  0  0
  192.1870  177.5030  140.3430 C   0  0  0  0  0  3  0  0  0  0  0  0
  1 15  1  0  0  0  0
  2 12  1  0  0  0  0
  2 16  1  0  0  0  0
  3 21  1  0  0  0  0
  4 14  1  0  0  0  0
  4 13  1  0  0  0  0
  5 13  1  0  0  0  0
  6  2  2  0  0  0  0
  8 10  1  0  0  0  0
  9  7  1  0  0  0  0
 11 16  1  0  0  0  0
 11  7  2  0  0  0  0
 12  1  2  0  0  0  0
 13  9  2  0  0  0  0
 14 11  1  0  0  0  0
 15 21  2  0  0  0  0
 15 20  1  0  0  0  0
 16  3  2  0  0  0  0
 17  8  1  0  0  0  0
 18  6  1  0  0  0  0
 18 14  2  0  0  0  0
 19  8  1  0  0  0  0
 20 19  1  0  0  0  0
 21 17  1  0  0  0  0
 22 26  1  0  0  0  0
 23 27  1  0  0  0  0
 23 12  1  0  0  0  0
 24 23  2  0  0  0  0
 25 22  2  0  0  0  0
 25 24  1  0  0  0  0
 26 27  2  0  0  0  0
M  END
>  <MODEL>
9

>  <REMARK>
 VINA RESULT:      -8.8      3.158      7.665
  Name = 
  1 active torsions:
  status: ('A' for Active; 'I' for Inactive)
    1  A    between atoms: C_9  and  C_15
                            x       y       z     vdW  Elec       q    Type
                         _______ _______ _______ _____ _____    ______ ____

>  <TORSDO>
F 1

$$$$
