=
 OpenBabel10262420423D

 28 31  0  0  1  0  0  0  0  0999 V2000
  190.1510  177.1310  141.6580 N   0  0  0  0  0  0  0  0  0  0  0  0
  190.9070  177.4650  143.8280 C   0  0  2  0  0  3  0  0  0  0  0  0
  191.6270  176.3580  143.0880 C   0  0  1  0  0  3  0  0  0  0  0  0
  191.7660  175.2510  143.9230 O   0  0  0  0  0  1  0  0  0  0  0  0
  190.8530  176.0060  141.9670 O   0  0  0  0  0  0  0  0  0  0  0  0
  189.7420  177.7340  142.9280 C   0  0  2  0  0  3  0  0  0  0  0  0
  190.9970  179.8460  143.9580 O   0  0  0  0  0  1  0  0  0  0  0  0
  191.7890  178.6990  143.9000 C   0  0  0  0  0  2  0  0  0  0  0  0
  189.0190  176.7610  140.8150 C   0  0  0  0  0  2  0  0  0  0  0  0
  189.2320  177.2480  139.4610 N   0  0  0  0  0  0  0  0  0  0  0  0
  190.0880  177.3930  137.2170 C   0  0  1  0  0  3  0  0  0  0  0  0
  188.7580  178.5260  138.9810 C   0  0  0  0  0  3  0  0  0  0  0  0
  190.5620  175.4930  138.6340 O   0  0  0  0  0  0  0  0  0  0  0  0
  190.0030  176.6090  138.4650 C   0  0  0  0  0  0  0  0  0  0  0  0
  189.4040  176.6470  136.0870 C   0  0  0  0  0  1  0  0  0  0  0  0
  189.2880  178.6600  137.5460 C   0  0  0  0  0  3  0  0  0  0  0  0
  188.5030  177.0670  143.5540 C   0  0  0  0  0  2  0  0  0  0  0  0
  188.9370  177.9660  146.3330 C   0  0  0  0  0  3  0  0  0  0  0  0
  186.5350  178.1840  146.5930 C   0  0  0  0  0  0  0  0  0  0  0  0
  187.5730  178.0810  144.2300 C   0  0  2  0  0  3  0  0  0  0  0  0
  187.9740  178.0650  148.5440 C   0  0  0  0  0  0  0  0  0  0  0  0
  187.6620  178.0320  145.7460 C   0  0  0  0  0  0  0  0  0  0  0  0
  185.1260  179.0530  144.7470 C   0  0  0  0  0  2  0  0  0  0  0  0
  186.7020  178.1760  147.9820 C   0  0  0  0  0  3  0  0  0  0  0  0
  185.1420  178.3210  146.0700 C   0  0  0  0  0  2  0  0  0  0  0  0
  188.1230  178.0620  149.8910 F   0  0  0  0  0  0  0  0  0  0  0  0
  189.0940  177.9730  147.7190 C   0  0  0  0  0  3  0  0  0  0  0  0
  185.8880  177.9770  143.5090 S   0  0  0  0  0  0  0  0  0  0  0  0
  1  5  1  0  0  0  0
  1  6  1  0  0  0  0
  2  8  1  6  0  0  0
  3  2  1  0  0  0  0
  3  4  1  1  0  0  0
  5  3  1  0  0  0  0
  6 17  1  1  0  0  0
  6  2  1  0  0  0  0
  8  7  1  0  0  0  0
  9  1  1  0  0  0  0
 10  9  1  0  0  0  0
 11 15  1  6  0  0  0
 11 16  1  0  0  0  0
 11 14  1  0  0  0  0
 12 10  1  0  0  0  0
 14 13  2  0  0  0  0
 14 10  1  0  0  0  0
 16 12  2  0  0  0  0
 18 27  1  0  0  0  0
 19 24  2  0  0  0  0
 20 17  1  6  0  0  0
 20 22  1  0  0  0  0
 21 26  1  0  0  0  0
 22 18  2  0  0  0  0
 22 19  1  0  0  0  0
 23 25  1  0  0  0  0
 24 21  1  0  0  0  0
 25 19  1  0  0  0  0
 27 21  2  0  0  0  0
 28 20  1  0  0  0  0
 28 23  1  0  0  0  0
M  END
>  <MODEL>
1

>  <REMARK>
 VINA RESULT:      -8.6      0.000      0.000
  Name = 
  5 active torsions:
  status: ('A' for Active; 'I' for Inactive)
    1  A    between atoms: N_1  and  C_2
    2  A    between atoms: C_2  and  N_3
    3  A    between atoms: C_10  and  C_17
    4  A    between atoms: C_16  and  C_20
    5  A    between atoms: C_17  and  C_27
                            x       y       z     vdW  Elec       q    Type
                         _______ _______ _______ _____ _____    ______ ____

>  <TORSDO>
F 5

$$$$
=
 OpenBabel10262420423D

 28 31  0  0  1  0  0  0  0  0999 V2000
  189.6370  176.7860  138.5660 N   0  0  0  0  0  0  0  0  0  0  0  0
  187.9250  178.3220  138.8850 C   0  0  2  0  0  3  0  0  0  0  0  0
  188.7390  178.5580  137.6300 C   0  0  1  0  0  3  0  0  0  0  0  0
  189.0310  179.9150  137.5100 O   0  0  0  0  0  1  0  0  0  0  0  0
  189.9370  177.8280  137.7430 O   0  0  0  0  0  0  0  0  0  0  0  0
  188.7590  177.3150  139.6130 C   0  0  2  0  0  3  0  0  0  0  0  0
  185.6040  178.6990  138.4820 O   0  0  0  0  0  1  0  0  0  0  0  0
  186.5840  177.7070  138.5260 C   0  0  0  0  0  2  0  0  0  0  0  0
  190.8800  176.2320  139.0930 C   0  0  0  0  0  2  0  0  0  0  0  0
  191.5870  175.5180  138.0420 N   0  0  0  0  0  0  0  0  0  0  0  0
  193.2790  174.9720  136.4220 C   0  0  1  0  0  3  0  0  0  0  0  0
  191.0180  174.4240  137.2880 C   0  0  0  0  0  3  0  0  0  0  0  0
  193.5710  176.7800  137.9990 O   0  0  0  0  0  0  0  0  0  0  0  0
  192.8670  175.8410  137.5410 C   0  0  0  0  0  0  0  0  0  0  0  0
  194.4860  174.1450  136.8250 C   0  0  0  0  0  1  0  0  0  0  0  0
  192.0710  174.0460  136.2350 C   0  0  0  0  0  3  0  0  0  0  0  0
  189.5150  178.0530  140.7320 C   0  0  0  0  0  2  0  0  0  0  0  0
  187.3140  177.6100  142.6500 C   0  0  0  0  0  3  0  0  0  0  0  0
  188.9500  177.4970  144.4370 C   0  0  0  0  0  0  0  0  0  0  0  0
  189.6960  177.1870  141.9850 C   0  0  2  0  0  3  0  0  0  0  0  0
  186.6090  177.8980  144.9410 C   0  0  0  0  0  0  0  0  0  0  0  0
  188.6540  177.4810  143.0510 C   0  0  0  0  0  0  0  0  0  0  0  0
  191.1340  176.3740  144.0980 C   0  0  0  0  0  2  0  0  0  0  0  0
  187.9270  177.7290  145.3640 C   0  0  0  0  0  3  0  0  0  0  0  0
  190.3330  177.3120  144.9730 C   0  0  0  0  0  2  0  0  0  0  0  0
  185.6280  178.1170  145.8490 F   0  0  0  0  0  0  0  0  0  0  0  0
  186.3000  177.8260  143.5840 C   0  0  0  0  0  3  0  0  0  0  0  0
  191.4490  177.2130  142.5280 S   0  0  0  0  0  0  0  0  0  0  0  0
  1  9  1  0  0  0  0
  1  6  1  0  0  0  0
  2  8  1  6  0  0  0
  2  6  1  0  0  0  0
  3  4  1  1  0  0  0
  3  5  1  0  0  0  0
  3  2  1  0  0  0  0
  5  1  1  0  0  0  0
  6 17  1  1  0  0  0
  7  8  1  0  0  0  0
 10  9  1  0  0  0  0
 11 15  1  1  0  0  0
 11 14  1  0  0  0  0
 12 10  1  0  0  0  0
 14 13  2  0  0  0  0
 14 10  1  0  0  0  0
 16 11  1  0  0  0  0
 16 12  2  0  0  0  0
 18 22  2  0  0  0  0
 18 27  1  0  0  0  0
 19 25  1  0  0  0  0
 19 24  2  0  0  0  0
 20 17  1  6  0  0  0
 20 28  1  0  0  0  0
 20 22  1  0  0  0  0
 21 24  1  0  0  0  0
 21 26  1  0  0  0  0
 22 19  1  0  0  0  0
 23 25  1  0  0  0  0
 27 21  2  0  0  0  0
 28 23  1  0  0  0  0
M  END
>  <MODEL>
2

>  <REMARK>
 VINA RESULT:      -7.8      2.944      4.943
  Name = 
  5 active torsions:
  status: ('A' for Active; 'I' for Inactive)
    1  A    between atoms: N_1  and  C_2
    2  A    between atoms: C_2  and  N_3
    3  A    between atoms: C_10  and  C_17
    4  A    between atoms: C_16  and  C_20
    5  A    between atoms: C_17  and  C_27
                            x       y       z     vdW  Elec       q    Type
                         _______ _______ _______ _____ _____    ______ ____

>  <TORSDO>
F 5

$$$$
=
 OpenBabel10262420423D

 28 31  0  0  1  0  0  0  0  0999 V2000
  190.9390  177.3360  141.5000 N   0  0  0  0  0  0  0  0  0  0  0  0
  190.7360  177.4740  143.8080 C   0  0  2  0  0  3  0  0  0  0  0  0
  191.6760  176.3860  143.3360 C   0  0  1  0  0  3  0  0  0  0  0  0
  191.4370  175.2160  144.0550 O   0  0  0  0  0  1  0  0  0  0  0  0
  191.4290  176.1560  141.9700 O   0  0  0  0  0  0  0  0  0  0  0  0
  190.0520  177.8670  142.5370 C   0  0  2  0  0  3  0  0  0  0  0  0
  190.9400  179.8480  143.9370 O   0  0  0  0  0  1  0  0  0  0  0  0
  191.5310  178.6510  144.3440 C   0  0  0  0  0  2  0  0  0  0  0  0
  190.2510  177.0870  140.2370 C   0  0  0  0  0  2  0  0  0  0  0  0
  191.2100  176.6680  139.2260 N   0  0  0  0  0  0  0  0  0  0  0  0
  192.1800  175.4410  137.3990 C   0  0  1  0  0  3  0  0  0  0  0  0
  192.5800  177.1270  139.1770 C   0  0  0  0  0  3  0  0  0  0  0  0
  189.8810  175.1100  138.0690 O   0  0  0  0  0  0  0  0  0  0  0  0
  190.9850  175.6980  138.2260 C   0  0  0  0  0  0  0  0  0  0  0  0
  191.9220  175.8690  135.9670 C   0  0  0  0  0  1  0  0  0  0  0  0
  193.2390  176.3600  138.0210 C   0  0  0  0  0  3  0  0  0  0  0  0
  188.6530  177.2230  142.5370 C   0  0  0  0  0  2  0  0  0  0  0  0
  187.3270  178.0690  145.0360 C   0  0  0  0  0  3  0  0  0  0  0  0
  185.2700  178.3840  143.7890 C   0  0  0  0  0  0  0  0  0  0  0  0
  187.5300  178.2670  142.5440 C   0  0  2  0  0  3  0  0  0  0  0  0
  185.2190  178.1800  146.2070 C   0  0  0  0  0  0  0  0  0  0  0  0
  186.6760  178.1960  143.7980 C   0  0  0  0  0  0  0  0  0  0  0  0
  185.3010  179.3350  141.4990 C   0  0  0  0  0  2  0  0  0  0  0  0
  184.5560  178.3520  144.9910 C   0  0  0  0  0  3  0  0  0  0  0  0
  184.4880  178.5860  142.5310 C   0  0  0  0  0  2  0  0  0  0  0  0
  184.5160  178.1550  147.3650 F   0  0  0  0  0  0  0  0  0  0  0  0
  186.6060  178.0520  146.2310 C   0  0  0  0  0  3  0  0  0  0  0  0
  186.6320  178.2430  140.9430 S   0  0  0  0  0  0  0  0  0  0  0  0
  1  5  1  0  0  0  0
  1  6  1  0  0  0  0
  2  8  1  6  0  0  0
  3  2  1  0  0  0  0
  3  4  1  1  0  0  0
  5  3  1  0  0  0  0
  6 17  1  1  0  0  0
  6  2  1  0  0  0  0
  7  8  1  0  0  0  0
  9  1  1  0  0  0  0
 10  9  1  0  0  0  0
 11 15  1  6  0  0  0
 11 16  1  0  0  0  0
 11 14  1  0  0  0  0
 12 10  1  0  0  0  0
 13 14  2  0  0  0  0
 14 10  1  0  0  0  0
 16 12  2  0  0  0  0
 18 27  1  0  0  0  0
 19 22  1  0  0  0  0
 19 24  2  0  0  0  0
 20 17  1  6  0  0  0
 20 22  1  0  0  0  0
 21 27  2  0  0  0  0
 21 26  1  0  0  0  0
 22 18  2  0  0  0  0
 23 25  1  0  0  0  0
 24 21  1  0  0  0  0
 25 19  1  0  0  0  0
 28 23  1  0  0  0  0
 28 20  1  0  0  0  0
M  END
>  <MODEL>
3

>  <REMARK>
 VINA RESULT:      -7.6      1.833      2.476
  Name = 
  5 active torsions:
  status: ('A' for Active; 'I' for Inactive)
    1  A    between atoms: N_1  and  C_2
    2  A    between atoms: C_2  and  N_3
    3  A    between atoms: C_10  and  C_17
    4  A    between atoms: C_16  and  C_20
    5  A    between atoms: C_17  and  C_27
                            x       y       z     vdW  Elec       q    Type
                         _______ _______ _______ _____ _____    ______ ____

>  <TORSDO>
F 5

$$$$
=
 OpenBabel10262420423D

 28 31  0  0  1  0  0  0  0  0999 V2000
  189.6100  177.9170  141.4700 N   0  0  0  0  0  0  0  0  0  0  0  0
  190.5140  177.9960  143.6070 C   0  0  2  0  0  3  0  0  0  0  0  0
  191.5050  177.6010  142.5330 C   0  0  1  0  0  3  0  0  0  0  0  0
  192.2680  176.5210  142.9740 O   0  0  0  0  0  1  0  0  0  0  0  0
  190.7810  177.2260  141.3860 O   0  0  0  0  0  0  0  0  0  0  0  0
  189.2100  177.8980  142.8790 C   0  0  2  0  0  3  0  0  0  0  0  0
  192.1000  179.6180  144.3460 O   0  0  0  0  0  1  0  0  0  0  0  0
  190.7540  179.4340  144.0310 C   0  0  0  0  0  2  0  0  0  0  0  0
  188.6290  177.2840  140.5930 C   0  0  0  0  0  2  0  0  0  0  0  0
  188.9490  177.5740  139.2040 N   0  0  0  0  0  0  0  0  0  0  0  0
  189.9080  177.3490  137.0090 C   0  0  1  0  0  3  0  0  0  0  0  0
  188.6360  178.8240  138.5490 C   0  0  0  0  0  3  0  0  0  0  0  0
  190.1150  175.6030  138.6680 O   0  0  0  0  0  0  0  0  0  0  0  0
  189.6870  176.7400  138.3350 C   0  0  0  0  0  0  0  0  0  0  0  0
  189.1940  176.5420  135.9410 C   0  0  0  0  0  1  0  0  0  0  0  0
  189.2370  178.7220  137.1390 C   0  0  0  0  0  3  0  0  0  0  0  0
  188.5300  176.5850  143.3070 C   0  0  0  0  0  2  0  0  0  0  0  0
  185.7330  177.5300  143.2780 C   0  0  0  0  0  3  0  0  0  0  0  0
  186.1120  178.5880  145.4280 C   0  0  0  0  0  0  0  0  0  0  0  0
  187.7160  176.7430  144.5970 C   0  0  2  0  0  3  0  0  0  0  0  0
  184.2280  179.2520  144.0500 C   0  0  0  0  0  0  0  0  0  0  0  0
  186.5290  177.6750  144.4260 C   0  0  0  0  0  0  0  0  0  0  0  0
  187.4940  177.4840  147.1660 C   0  0  0  0  0  2  0  0  0  0  0  0
  184.9790  179.3820  145.2180 C   0  0  0  0  0  3  0  0  0  0  0  0
  186.8540  178.7770  146.7120 C   0  0  0  0  0  2  0  0  0  0  0  0
  183.1300  180.0240  143.8610 F   0  0  0  0  0  0  0  0  0  0  0  0
  184.5970  178.3170  143.0850 C   0  0  0  0  0  3  0  0  0  0  0  0
  188.8310  177.0920  146.0130 S   0  0  0  0  0  0  0  0  0  0  0  0
  1  6  1  0  0  0  0
  2  8  1  6  0  0  0
  3  4  1  1  0  0  0
  3  2  1  0  0  0  0
  5  1  1  0  0  0  0
  5  3  1  0  0  0  0
  6 17  1  1  0  0  0
  6  2  1  0  0  0  0
  8  7  1  0  0  0  0
  9  1  1  0  0  0  0
 10  9  1  0  0  0  0
 11 15  1  6  0  0  0
 11 16  1  0  0  0  0
 11 14  1  0  0  0  0
 12 10  1  0  0  0  0
 14 13  2  0  0  0  0
 14 10  1  0  0  0  0
 16 12  2  0  0  0  0
 18 22  1  0  0  0  0
 19 25  1  0  0  0  0
 20 17  1  6  0  0  0
 20 28  1  0  0  0  0
 21 24  2  0  0  0  0
 22 20  1  0  0  0  0
 22 19  2  0  0  0  0
 24 19  1  0  0  0  0
 25 23  1  0  0  0  0
 26 21  1  0  0  0  0
 27 18  2  0  0  0  0
 27 21  1  0  0  0  0
 28 23  1  0  0  0  0
M  END
>  <MODEL>
4

>  <REMARK>
 VINA RESULT:      -7.5      1.988      2.852
  Name = 
  5 active torsions:
  status: ('A' for Active; 'I' for Inactive)
    1  A    between atoms: N_1  and  C_2
    2  A    between atoms: C_2  and  N_3
    3  A    between atoms: C_10  and  C_17
    4  A    between atoms: C_16  and  C_20
    5  A    between atoms: C_17  and  C_27
                            x       y       z     vdW  Elec       q    Type
                         _______ _______ _______ _____ _____    ______ ____

>  <TORSDO>
F 5

$$$$
=
 OpenBabel10262420423D

 28 31  0  0  1  0  0  0  0  0999 V2000
  188.5960  177.2490  143.2750 N   0  0  0  0  0  0  0  0  0  0  0  0
  190.8960  177.3100  142.9650 C   0  0  2  0  0  3  0  0  0  0  0  0
  190.4080  178.1480  144.1280 C   0  0  1  0  0  3  0  0  0  0  0  0
  191.0460  179.3870  144.1110 O   0  0  0  0  0  1  0  0  0  0  0  0
  189.0210  178.3320  143.9830 O   0  0  0  0  0  0  0  0  0  0  0  0
  189.6170  176.9820  142.2600 C   0  0  2  0  0  3  0  0  0  0  0  0
  191.6800  176.0970  144.8640 O   0  0  0  0  0  1  0  0  0  0  0  0
  191.5360  176.0330  143.4780 C   0  0  0  0  0  2  0  0  0  0  0  0
  187.2880  177.5490  142.7000 C   0  0  0  0  0  2  0  0  0  0  0  0
  186.3720  177.9690  143.7480 N   0  0  0  0  0  0  0  0  0  0  0  0
  184.6510  179.2060  144.8870 C   0  0  1  0  0  3  0  0  0  0  0  0
  186.4420  177.5010  145.1140 C   0  0  0  0  0  3  0  0  0  0  0  0
  185.1150  179.5480  142.5400 O   0  0  0  0  0  0  0  0  0  0  0  0
  185.3650  178.9510  143.6210 C   0  0  0  0  0  0  0  0  0  0  0  0
  183.1970  178.7920  144.7560 C   0  0  0  0  0  1  0  0  0  0  0  0
  185.3560  178.2720  145.8800 C   0  0  0  0  0  3  0  0  0  0  0  0
  189.5120  177.8980  141.0270 C   0  0  0  0  0  2  0  0  0  0  0  0
  191.5140  176.5050  139.3630 C   0  0  0  0  0  3  0  0  0  0  0  0
  190.1690  176.9980  137.4060 C   0  0  0  0  0  0  0  0  0  0  0  0
  189.1170  177.1290  139.7610 C   0  0  2  0  0  3  0  0  0  0  0  0
  192.5030  176.3780  137.1650 C   0  0  0  0  0  0  0  0  0  0  0  0
  190.2890  176.9210  138.8160 C   0  0  0  0  0  0  0  0  0  0  0  0
  187.6940  176.8890  137.4990 C   0  0  0  0  0  2  0  0  0  0  0  0
  191.2830  176.7470  136.5980 C   0  0  0  0  0  3  0  0  0  0  0  0
  188.8950  177.3750  136.7200 C   0  0  0  0  0  2  0  0  0  0  0  0
  193.5740  176.1330  136.3710 F   0  0  0  0  0  0  0  0  0  0  0  0
  192.6160  176.2430  138.5470 C   0  0  0  0  0  3  0  0  0  0  0  0
  187.5970  177.8510  139.0270 S   0  0  0  0  0  0  0  0  0  0  0  0
  1  5  1  0  0  0  0
  2  8  1  1  0  0  0
  2  3  1  0  0  0  0
  3  4  1  6  0  0  0
  5  3  1  0  0  0  0
  6 17  1  6  0  0  0
  6  2  1  0  0  0  0
  6  1  1  0  0  0  0
  8  7  1  0  0  0  0
  9  1  1  0  0  0  0
  9 10  1  0  0  0  0
 10 12  1  0  0  0  0
 11 15  1  6  0  0  0
 11 16  1  0  0  0  0
 12 16  2  0  0  0  0
 13 14  2  0  0  0  0
 14 10  1  0  0  0  0
 14 11  1  0  0  0  0
 19 22  2  0  0  0  0
 20 17  1  1  0  0  0
 21 27  1  0  0  0  0
 22 18  1  0  0  0  0
 22 20  1  0  0  0  0
 23 28  1  0  0  0  0
 24 21  2  0  0  0  0
 24 19  1  0  0  0  0
 25 19  1  0  0  0  0
 25 23  1  0  0  0  0
 26 21  1  0  0  0  0
 27 18  2  0  0  0  0
 28 20  1  0  0  0  0
M  END
>  <MODEL>
5

>  <REMARK>
 VINA RESULT:      -7.2      3.646      7.579
  Name = 
  5 active torsions:
  status: ('A' for Active; 'I' for Inactive)
    1  A    between atoms: N_1  and  C_2
    2  A    between atoms: C_2  and  N_3
    3  A    between atoms: C_10  and  C_17
    4  A    between atoms: C_16  and  C_20
    5  A    between atoms: C_17  and  C_27
                            x       y       z     vdW  Elec       q    Type
                         _______ _______ _______ _____ _____    ______ ____

>  <TORSDO>
F 5

$$$$
=
 OpenBabel10262420423D

 28 31  0  0  1  0  0  0  0  0999 V2000
  189.5730  177.9500  139.3280 N   0  0  0  0  0  0  0  0  0  0  0  0
  191.3290  176.7290  140.2310 C   0  0  2  0  0  3  0  0  0  0  0  0
  190.9640  176.3300  138.8180 C   0  0  1  0  0  3  0  0  0  0  0  0
  190.9300  174.9400  138.7190 O   0  0  0  0  0  1  0  0  0  0  0  0
  189.6890  176.8520  138.5310 O   0  0  0  0  0  0  0  0  0  0  0  0
  190.1750  177.6010  140.6170 C   0  0  2  0  0  3  0  0  0  0  0  0
  193.4360  177.1290  139.1850 O   0  0  0  0  0  1  0  0  0  0  0  0
  192.6070  177.5500  140.2250 C   0  0  0  0  0  2  0  0  0  0  0  0
  188.1610  178.3020  139.4390 C   0  0  0  0  0  2  0  0  0  0  0  0
  187.5000  178.0980  138.1590 N   0  0  0  0  0  0  0  0  0  0  0  0
  186.9150  178.3840  135.8430 C   0  0  1  0  0  3  0  0  0  0  0  0
  186.3380  177.2560  137.9790 C   0  0  0  0  0  3  0  0  0  0  0  0
  188.7710  179.5700  136.8380 O   0  0  0  0  0  0  0  0  0  0  0  0
  187.8190  178.7520  136.9500 C   0  0  0  0  0  0  0  0  0  0  0  0
  187.6880  177.6510  134.7630 C   0  0  0  0  0  1  0  0  0  0  0  0
  185.9290  177.4140  136.5070 C   0  0  0  0  0  3  0  0  0  0  0  0
  189.2460  176.7760  141.5260 C   0  0  0  0  0  2  0  0  0  0  0  0
  190.9130  177.1480  143.9350 C   0  0  0  0  0  3  0  0  0  0  0  0
  188.8940  177.1530  145.2790 C   0  0  0  0  0  0  0  0  0  0  0  0
  188.7510  177.5760  142.7360 C   0  0  2  0  0  3  0  0  0  0  0  0
  191.0540  176.7540  146.3120 C   0  0  0  0  0  0  0  0  0  0  0  0
  189.5130  177.2420  144.0070 C   0  0  0  0  0  0  0  0  0  0  0  0
  186.8300  178.2670  144.4760 C   0  0  0  0  0  2  0  0  0  0  0  0
  189.6690  176.8870  146.4140 C   0  0  0  0  0  3  0  0  0  0  0  0
  187.4190  177.2960  145.4740 C   0  0  0  0  0  2  0  0  0  0  0  0
  191.7930  176.5010  147.4190 F   0  0  0  0  0  0  0  0  0  0  0  0
  191.6780  176.8970  145.0750 C   0  0  0  0  0  3  0  0  0  0  0  0
  186.9200  177.5040  142.8400 S   0  0  0  0  0  0  0  0  0  0  0  0
  1  9  1  0  0  0  0
  1  6  1  0  0  0  0
  2  8  1  6  0  0  0
  2  6  1  0  0  0  0
  3  4  1  1  0  0  0
  3  2  1  0  0  0  0
  5  3  1  0  0  0  0
  5  1  1  0  0  0  0
  6 17  1  1  0  0  0
  7  8  1  0  0  0  0
 10  9  1  0  0  0  0
 11 15  1  6  0  0  0
 11 16  1  0  0  0  0
 11 14  1  0  0  0  0
 12 10  1  0  0  0  0
 13 14  2  0  0  0  0
 14 10  1  0  0  0  0
 16 12  2  0  0  0  0
 18 22  2  0  0  0  0
 18 27  1  0  0  0  0
 19 25  1  0  0  0  0
 19 24  2  0  0  0  0
 20 17  1  6  0  0  0
 20 28  1  0  0  0  0
 20 22  1  0  0  0  0
 21 24  1  0  0  0  0
 21 26  1  0  0  0  0
 22 19  1  0  0  0  0
 23 25  1  0  0  0  0
 27 21  2  0  0  0  0
 28 23  1  0  0  0  0
M  END
>  <MODEL>
6

>  <REMARK>
 VINA RESULT:      -7.1      2.417      3.465
  Name = 
  5 active torsions:
  status: ('A' for Active; 'I' for Inactive)
    1  A    between atoms: N_1  and  C_2
    2  A    between atoms: C_2  and  N_3
    3  A    between atoms: C_10  and  C_17
    4  A    between atoms: C_16  and  C_20
    5  A    between atoms: C_17  and  C_27
                            x       y       z     vdW  Elec       q    Type
                         _______ _______ _______ _____ _____    ______ ____

>  <TORSDO>
F 5

$$$$
=
 OpenBabel10262420423D

 28 31  0  0  1  0  0  0  0  0999 V2000
  185.9190  178.1140  138.6100 N   0  0  0  0  0  0  0  0  0  0  0  0
  184.1080  178.5700  139.9900 C   0  0  2  0  0  3  0  0  0  0  0  0
  184.1740  179.4390  138.7520 C   0  0  1  0  0  3  0  0  0  0  0  0
  183.9170  180.7650  139.0980 O   0  0  0  0  0  1  0  0  0  0  0  0
  185.4710  179.3380  138.2160 O   0  0  0  0  0  0  0  0  0  0  0  0
  185.4550  177.9190  139.9860 C   0  0  2  0  0  3  0  0  0  0  0  0
  181.7800  178.0580  140.1080 O   0  0  0  0  0  1  0  0  0  0  0  0
  183.0320  177.5120  139.8230 C   0  0  0  0  0  2  0  0  0  0  0  0
  187.3730  178.0860  138.4920 C   0  0  0  0  0  2  0  0  0  0  0  0
  187.7820  176.9370  137.6990 N   0  0  0  0  0  0  0  0  0  0  0  0
  189.1730  175.4590  136.4090 C   0  0  1  0  0  3  0  0  0  0  0  0
  186.8610  175.9610  137.1620 C   0  0  0  0  0  3  0  0  0  0  0  0
  190.0880  177.3790  137.5570 O   0  0  0  0  0  0  0  0  0  0  0  0
  189.0950  176.6620  137.2590 C   0  0  0  0  0  0  0  0  0  0  0  0
  189.9990  174.3890  137.0980 C   0  0  0  0  0  1  0  0  0  0  0  0
  187.7130  174.9960  136.3240 C   0  0  0  0  0  3  0  0  0  0  0  0
  186.3260  178.6370  141.0340 C   0  0  0  0  0  2  0  0  0  0  0  0
  185.0900  178.2660  143.6900 C   0  0  0  0  0  3  0  0  0  0  0  0
  187.2970  177.8690  144.6150 C   0  0  0  0  0  0  0  0  0  0  0  0
  186.9100  177.6690  142.0700 C   0  0  2  0  0  3  0  0  0  0  0  0
  185.4440  178.4530  146.0710 C   0  0  0  0  0  0  0  0  0  0  0  0
  186.4490  177.9810  143.4840 C   0  0  0  0  0  0  0  0  0  0  0  0
  188.9920  176.5710  143.3560 C   0  0  0  0  0  2  0  0  0  0  0  0
  186.7890  178.1280  145.8930 C   0  0  0  0  0  3  0  0  0  0  0  0
  188.7450  177.5150  144.5120 C   0  0  0  0  0  2  0  0  0  0  0  0
  184.9630  178.6970  147.3140 F   0  0  0  0  0  0  0  0  0  0  0  0
  184.5900  178.5090  144.9710 C   0  0  0  0  0  3  0  0  0  0  0  0
  188.7190  177.4890  141.8220 S   0  0  0  0  0  0  0  0  0  0  0  0
  1  6  1  0  0  0  0
  2  8  1  6  0  0  0
  3  4  1  1  0  0  0
  3  2  1  0  0  0  0
  5  1  1  0  0  0  0
  5  3  1  0  0  0  0
  6  2  1  0  0  0  0
  6 17  1  1  0  0  0
  8  7  1  0  0  0  0
  9  1  1  0  0  0  0
 10  9  1  0  0  0  0
 11 15  1  1  0  0  0
 11 14  1  0  0  0  0
 12 10  1  0  0  0  0
 14 13  2  0  0  0  0
 14 10  1  0  0  0  0
 16 11  1  0  0  0  0
 16 12  2  0  0  0  0
 18 27  1  0  0  0  0
 19 24  2  0  0  0  0
 20 17  1  6  0  0  0
 20 22  1  0  0  0  0
 21 26  1  0  0  0  0
 22 18  2  0  0  0  0
 22 19  1  0  0  0  0
 23 25  1  0  0  0  0
 24 21  1  0  0  0  0
 25 19  1  0  0  0  0
 27 21  2  0  0  0  0
 28 20  1  0  0  0  0
 28 23  1  0  0  0  0
M  END
>  <MODEL>
7

>  <REMARK>
 VINA RESULT:      -7.0      3.709      5.337
  Name = 
  5 active torsions:
  status: ('A' for Active; 'I' for Inactive)
    1  A    between atoms: N_1  and  C_2
    2  A    between atoms: C_2  and  N_3
    3  A    between atoms: C_10  and  C_17
    4  A    between atoms: C_16  and  C_20
    5  A    between atoms: C_17  and  C_27
                            x       y       z     vdW  Elec       q    Type
                         _______ _______ _______ _____ _____    ______ ____

>  <TORSDO>
F 5

$$$$
=
 OpenBabel10262420423D

 28 31  0  0  1  0  0  0  0  0999 V2000
  184.5650  178.1040  142.5430 N   0  0  0  0  0  0  0  0  0  0  0  0
  185.6120  178.6830  144.5330 C   0  0  2  0  0  3  0  0  0  0  0  0
  184.4120  179.5420  144.1950 C   0  0  1  0  0  3  0  0  0  0  0  0
  184.7180  180.8830  144.4210 O   0  0  0  0  0  1  0  0  0  0  0  0
  184.1080  179.3530  142.8340 O   0  0  0  0  0  0  0  0  0  0  0  0
  185.8380  177.9450  143.2510 C   0  0  2  0  0  3  0  0  0  0  0  0
  184.5770  178.3560  146.6580 O   0  0  0  0  0  1  0  0  0  0  0  0
  185.2520  177.6970  145.6300 C   0  0  0  0  0  2  0  0  0  0  0  0
  184.7020  177.9800  141.0950 C   0  0  0  0  0  2  0  0  0  0  0  0
  183.4740  178.4110  140.4450 N   0  0  0  0  0  0  0  0  0  0  0  0
  181.9620  179.7160  139.1040 C   0  0  1  0  0  3  0  0  0  0  0  0
  182.1710  177.8570  140.7350 C   0  0  0  0  0  3  0  0  0  0  0  0
  184.3380  180.1600  139.1310 O   0  0  0  0  0  0  0  0  0  0  0  0
  183.3550  179.4800  139.5300 C   0  0  0  0  0  0  0  0  0  0  0  0
  181.8180  179.4350  137.6200 C   0  0  0  0  0  1  0  0  0  0  0  0
  181.1720  178.6680  139.8980 C   0  0  0  0  0  3  0  0  0  0  0  0
  187.0270  178.6070  142.5320 C   0  0  0  0  0  2  0  0  0  0  0  0
  188.8080  177.3830  144.5440 C   0  0  0  0  0  3  0  0  0  0  0  0
  190.5700  177.3110  142.8780 C   0  0  0  0  0  0  0  0  0  0  0  0
  188.1110  177.5950  142.1430 C   0  0  2  0  0  3  0  0  0  0  0  0
  191.1050  177.1150  145.2380 C   0  0  0  0  0  0  0  0  0  0  0  0
  189.1980  177.4720  143.1970 C   0  0  0  0  0  0  0  0  0  0  0  0
  190.0690  176.7500  140.5160 C   0  0  0  0  0  2  0  0  0  0  0  0
  191.5100  177.1560  143.9040 C   0  0  0  0  0  3  0  0  0  0  0  0
  191.0840  177.3310  141.4750 C   0  0  0  0  0  2  0  0  0  0  0  0
  192.0240  176.9610  146.2210 F   0  0  0  0  0  0  0  0  0  0  0  0
  189.7520  177.2150  145.5580 C   0  0  0  0  0  3  0  0  0  0  0  0
  188.6740  177.8960  140.4220 S   0  0  0  0  0  0  0  0  0  0  0  0
  1  5  1  0  0  0  0
  1  6  1  0  0  0  0
  2  8  1  1  0  0  0
  3  4  1  6  0  0  0
  3  2  1  0  0  0  0
  5  3  1  0  0  0  0
  6 17  1  6  0  0  0
  6  2  1  0  0  0  0
  8  7  1  0  0  0  0
  9  1  1  0  0  0  0
 10 12  1  0  0  0  0
 10  9  1  0  0  0  0
 11 15  1  6  0  0  0
 11 14  1  0  0  0  0
 11 16  1  0  0  0  0
 13 14  2  0  0  0  0
 14 10  1  0  0  0  0
 16 12  2  0  0  0  0
 18 27  1  0  0  0  0
 19 22  1  0  0  0  0
 19 24  2  0  0  0  0
 20 17  1  1  0  0  0
 20 22  1  0  0  0  0
 21 27  2  0  0  0  0
 21 26  1  0  0  0  0
 22 18  2  0  0  0  0
 23 25  1  0  0  0  0
 24 21  1  0  0  0  0
 25 19  1  0  0  0  0
 28 23  1  0  0  0  0
 28 20  1  0  0  0  0
M  END
>  <MODEL>
8

>  <REMARK>
 VINA RESULT:      -7.0      4.406      6.221
  Name = 
  5 active torsions:
  status: ('A' for Active; 'I' for Inactive)
    1  A    between atoms: N_1  and  C_2
    2  A    between atoms: C_2  and  N_3
    3  A    between atoms: C_10  and  C_17
    4  A    between atoms: C_16  and  C_20
    5  A    between atoms: C_17  and  C_27
                            x       y       z     vdW  Elec       q    Type
                         _______ _______ _______ _____ _____    ______ ____

>  <TORSDO>
F 5

$$$$
=
 OpenBabel10262420423D

 28 31  0  0  1  0  0  0  0  0999 V2000
  187.1650  179.0010  140.2120 N   0  0  0  0  0  0  0  0  0  0  0  0
  188.5930  177.7020  138.9220 C   0  0  2  0  0  3  0  0  0  0  0  0
  187.2390  177.9420  138.2900 C   0  0  1  0  0  3  0  0  0  0  0  0
  186.7550  176.7500  137.7550 O   0  0  0  0  0  1  0  0  0  0  0  0
  186.3630  178.3970  139.2930 O   0  0  0  0  0  0  0  0  0  0  0  0
  188.3720  178.1780  140.3240 C   0  0  2  0  0  3  0  0  0  0  0  0
  189.0200  179.5650  137.4940 O   0  0  0  0  0  1  0  0  0  0  0  0
  189.6410  178.5700  138.2500 C   0  0  0  0  0  2  0  0  0  0  0  0
  186.4350  179.1120  141.4710 C   0  0  0  0  0  2  0  0  0  0  0  0
  185.0090  178.9630  141.2290 N   0  0  0  0  0  0  0  0  0  0  0  0
  182.7180  178.3020  141.5460 C   0  0  1  0  0  3  0  0  0  0  0  0
  184.3620  179.3150  139.9850 C   0  0  0  0  0  3  0  0  0  0  0  0
  184.3880  177.9440  143.2560 O   0  0  0  0  0  0  0  0  0  0  0  0
  184.0790  178.3720  142.1120 C   0  0  0  0  0  0  0  0  0  0  0  0
  181.7740  179.1740  142.3530 C   0  0  0  0  0  1  0  0  0  0  0  0
  182.8900  178.9040  140.1450 C   0  0  0  0  0  3  0  0  0  0  0  0
  188.1890  176.9380  141.2170 C   0  0  0  0  0  2  0  0  0  0  0  0
  187.6140  176.7860  144.1100 C   0  0  0  0  0  3  0  0  0  0  0  0
  189.7090  177.9300  144.5440 C   0  0  0  0  0  0  0  0  0  0  0  0
  189.3070  176.7980  142.2580 C   0  0  2  0  0  3  0  0  0  0  0  0
  187.9850  177.8400  146.2500 C   0  0  0  0  0  0  0  0  0  0  0  0
  188.8660  177.2250  143.6480 C   0  0  0  0  0  0  0  0  0  0  0  0
  191.7350  177.4320  143.2050 C   0  0  0  0  0  2  0  0  0  0  0  0
  189.2490  178.2490  145.8260 C   0  0  0  0  0  3  0  0  0  0  0  0
  191.0810  178.3930  144.1720 C   0  0  0  0  0  2  0  0  0  0  0  0
  187.5530  178.1510  147.4960 F   0  0  0  0  0  0  0  0  0  0  0  0
  187.1720  177.0970  145.3960 C   0  0  0  0  0  3  0  0  0  0  0  0
  190.8590  177.5480  141.6280 S   0  0  0  0  0  0  0  0  0  0  0  0
  1  6  1  0  0  0  0
  1  9  1  0  0  0  0
  2  8  1  6  0  0  0
  2  6  1  0  0  0  0
  3  4  1  1  0  0  0
  3  2  1  0  0  0  0
  3  5  1  0  0  0  0
  5  1  1  0  0  0  0
  6 17  1  1  0  0  0
  7  8  1  0  0  0  0
 10  9  1  0  0  0  0
 10 14  1  0  0  0  0
 11 14  1  0  0  0  0
 11 15  1  1  0  0  0
 12 16  2  0  0  0  0
 12 10  1  0  0  0  0
 14 13  2  0  0  0  0
 16 11  1  0  0  0  0
 18 27  1  0  0  0  0
 19 24  2  0  0  0  0
 20 17  1  6  0  0  0
 20 22  1  0  0  0  0
 21 26  1  0  0  0  0
 22 18  2  0  0  0  0
 22 19  1  0  0  0  0
 23 25  1  0  0  0  0
 24 21  1  0  0  0  0
 25 19  1  0  0  0  0
 27 21  2  0  0  0  0
 28 20  1  0  0  0  0
 28 23  1  0  0  0  0
M  END
>  <MODEL>
9

>  <REMARK>
 VINA RESULT:      -6.8      3.233      5.573
  Name = 
  5 active torsions:
  status: ('A' for Active; 'I' for Inactive)
    1  A    between atoms: N_1  and  C_2
    2  A    between atoms: C_2  and  N_3
    3  A    between atoms: C_10  and  C_17
    4  A    between atoms: C_16  and  C_20
    5  A    between atoms: C_17  and  C_27
                            x       y       z     vdW  Elec       q    Type
                         _______ _______ _______ _____ _____    ______ ____

>  <TORSDO>
F 5

$$$$
