=
 OpenBabel10262421373D

 32 37  0  0  1  0  0  0  0  0999 V2000
  186.0190  179.1120  141.2770 C   0  0  2  0  0  3  0  0  0  0  0  0
  183.7220  179.6020  144.3210 C   0  0  0  0  0  3  0  0  0  0  0  0
  182.5480  179.0450  143.7780 C   0  0  0  0  0  3  0  0  0  0  0  0
  185.8800  178.2330  138.8570 N   0  0  0  0  0  0  0  0  0  0  0  0
  185.0650  177.6610  137.9300 C   0  0  0  0  0  0  0  0  0  0  0  0
  183.2520  176.8050  137.0240 C   0  0  0  0  0  0  0  0  0  0  0  0
  184.9010  179.6610  143.5610 C   0  0  0  0  0  3  0  0  0  0  0  0
  184.8810  179.1530  142.2610 C   0  0  0  0  0  0  0  0  0  0  0  0
  183.9880  178.1880  140.3790 C   0  0  0  0  0  0  0  0  0  0  0  0
  184.2670  176.8040  136.1210 N   0  0  0  0  0  0  0  0  0  0  0  0
  185.3680  177.3230  136.6650 N   0  0  0  0  0  0  0  0  0  0  0  0
  182.5390  178.5420  142.4680 C   0  0  0  0  0  3  0  0  0  0  0  0
  183.7230  178.6100  141.7340 C   0  0  0  0  0  0  0  0  0  0  0  0
  183.1160  177.6030  139.4460 C   0  0  0  0  0  3  0  0  0  0  0  0
  187.2610  178.5680  138.5470 C   0  0  0  0  0  1  0  0  0  0  0  0
  181.8810  176.3000  136.7410 C   0  0  0  0  0  1  0  0  0  0  0  0
  185.3300  178.4850  140.0900 C   0  0  0  0  0  0  0  0  0  0  0  0
  183.6950  177.3410  138.2070 C   0  0  0  0  0  0  0  0  0  0  0  0
  190.4440  178.7290  143.5930 O   0  0  0  0  0  0  0  0  0  0  0  0
  188.2560  176.8540  143.2390 C   0  0  1  0  0  3  0  0  0  0  0  0
  188.3290  178.3390  141.3800 N   0  0  0  0  0  0  0  0  0  0  0  0
  190.5090  177.8800  142.4700 C   0  0  0  0  0  2  0  0  0  0  0  0
  187.1130  178.2260  141.7890 C   0  0  0  0  0  0  0  0  0  0  0  0
  190.0300  177.9750  144.7140 C   0  0  1  0  0  3  0  0  0  0  0  0
  189.1330  177.3480  142.0710 C   0  0  1  0  0  3  0  0  0  0  0  0
  188.5770  177.5300  144.5790 C   0  0  0  0  0  2  0  0  0  0  0  0
  186.9290  177.2910  142.8420 N   0  0  0  0  0  2  0  0  0  0  0  0
  190.9690  176.8220  145.0720 C   0  0  0  0  0  2  0  0  0  0  0  0
  191.5980  177.0760  146.3560 N   0  0  0  0  0  2  0  0  0  0  0  0
  190.6880  176.5790  147.3720 C   0  0  0  0  0  2  0  0  0  0  0  0
  190.0500  177.7400  148.1140 C   0  0  0  0  0  2  0  0  0  0  0  0
  188.5500  177.5430  148.2070 C   0  0  0  0  0  1  0  0  0  0  0  0
  1 23  1  1  0  0  0
  1  8  1  0  0  0  0
  3  2  1  0  0  0  0
  4 17  1  0  0  0  0
  5 18  1  0  0  0  0
  5  4  1  0  0  0  0
  6 18  1  0  0  0  0
  7  2  2  0  0  0  0
  8  7  1  0  0  0  0
  9 13  1  0  0  0  0
 10 11  1  0  0  0  0
 10  6  2  0  0  0  0
 11  5  2  0  0  0  0
 12  3  2  0  0  0  0
 13  8  2  0  0  0  0
 13 12  1  0  0  0  0
 14  9  1  0  0  0  0
 15  4  1  0  0  0  0
 16  6  1  0  0  0  0
 17  9  2  0  0  0  0
 17  1  1  0  0  0  0
 18 14  2  0  0  0  0
 19 24  1  0  0  0  0
 20 26  1  1  0  0  0
 21 23  2  0  0  0  0
 21 25  1  0  0  0  0
 22 19  1  0  0  0  0
 23 27  1  0  0  0  0
 24 28  1  6  0  0  0
 25 22  1  1  0  0  0
 25 20  1  0  0  0  0
 26 24  1  0  0  0  0
 27 20  1  0  0  0  0
 28 29  1  0  0  0  0
 29 30  1  0  0  0  0
 30 31  1  0  0  0  0
 31 32  1  0  0  0  0
M  END
>  <MODEL>
1

>  <REMARK>
 VINA RESULT:      -8.5      0.000      0.000
  Name = 
  5 active torsions:
  status: ('A' for Active; 'I' for Inactive)
    1  A    between atoms: C_1  and  C_20
    2  A    between atoms: C_3  and  C_14
    3  A    between atoms: N_10  and  C_20
    4  A    between atoms: N_10  and  C_24
    5  A    between atoms: C_19  and  C_24
                            x       y       z     vdW  Elec       q    Type
                         _______ _______ _______ _____ _____    ______ ____

>  <TORSDO>
F 5

$$$$
=
 OpenBabel10262421373D

 32 37  0  0  1  0  0  0  0  0999 V2000
  189.7980  177.7930  139.3300 C   0  0  2  0  0  3  0  0  0  0  0  0
  186.2840  177.6530  137.7740 C   0  0  0  0  0  3  0  0  0  0  0  0
  186.5510  176.7110  136.7620 C   0  0  0  0  0  3  0  0  0  0  0  0
  192.1410  176.7940  138.9330 N   0  0  0  0  0  0  0  0  0  0  0  0
  192.8670  175.9380  138.1650 C   0  0  0  0  0  0  0  0  0  0  0  0
  193.3430  174.4840  136.5830 C   0  0  0  0  0  0  0  0  0  0  0  0
  187.2990  178.0590  138.6550 C   0  0  0  0  0  3  0  0  0  0  0  0
  188.5730  177.5070  138.5050 C   0  0  0  0  0  0  0  0  0  0  0  0
  190.2180  176.2040  137.5740 C   0  0  0  0  0  0  0  0  0  0  0  0
  194.4600  174.7730  137.3010 N   0  0  0  0  0  0  0  0  0  0  0  0
  194.1770  175.6550  138.2600 N   0  0  0  0  0  0  0  0  0  0  0  0
  187.8360  176.1660  136.6170 C   0  0  0  0  0  3  0  0  0  0  0  0
  188.8270  176.5840  137.5060 C   0  0  0  0  0  0  0  0  0  0  0  0
  190.9360  175.3170  136.7560 C   0  0  0  0  0  3  0  0  0  0  0  0
  192.7590  177.5510  140.0110 C   0  0  0  0  0  1  0  0  0  0  0  0
  193.3090  173.5400  135.4340 C   0  0  0  0  0  1  0  0  0  0  0  0
  190.8070  176.9130  138.6340 C   0  0  0  0  0  0  0  0  0  0  0  0
  192.2840  175.1970  137.0840 C   0  0  0  0  0  0  0  0  0  0  0  0
  191.8130  176.4990  143.7290 O   0  0  0  0  0  0  0  0  0  0  0  0
  189.1900  177.5090  143.0040 C   0  0  1  0  0  3  0  0  0  0  0  0
  190.0760  176.2450  141.1920 N   0  0  0  0  0  0  0  0  0  0  0  0
  190.8180  175.5420  143.4510 C   0  0  0  0  0  2  0  0  0  0  0  0
  189.5850  177.3480  140.7430 C   0  0  0  0  0  0  0  0  0  0  0  0
  191.2540  177.5240  144.5260 C   0  0  1  0  0  3  0  0  0  0  0  0
  189.6950  176.1130  142.5860 C   0  0  1  0  0  3  0  0  0  0  0  0
  190.2420  178.3500  143.7390 C   0  0  0  0  0  2  0  0  0  0  0  0
  188.9420  178.1500  141.7240 N   0  0  0  0  0  2  0  0  0  0  0  0
  190.7050  177.0400  145.8690 C   0  0  0  0  0  2  0  0  0  0  0  0
  189.6910  177.9620  146.3490 N   0  0  0  0  0  2  0  0  0  0  0  0
  188.7390  177.1750  147.1130 C   0  0  0  0  0  2  0  0  0  0  0  0
  187.3730  177.8360  147.0810 C   0  0  0  0  0  2  0  0  0  0  0  0
  186.7030  177.5940  145.7430 C   0  0  0  0  0  1  0  0  0  0  0  0
  1 23  1  1  0  0  0
  2  7  1  0  0  0  0
  3  2  2  0  0  0  0
  4 15  1  0  0  0  0
  5 11  2  0  0  0  0
  5  4  1  0  0  0  0
  6 18  1  0  0  0  0
  6 10  2  0  0  0  0
  8  7  2  0  0  0  0
  8  1  1  0  0  0  0
  9 17  2  0  0  0  0
 10 11  1  0  0  0  0
 12  3  1  0  0  0  0
 12 13  2  0  0  0  0
 13  9  1  0  0  0  0
 13  8  1  0  0  0  0
 14 18  2  0  0  0  0
 14  9  1  0  0  0  0
 16  6  1  0  0  0  0
 17  4  1  0  0  0  0
 17  1  1  0  0  0  0
 18  5  1  0  0  0  0
 19 24  1  0  0  0  0
 20 26  1  6  0  0  0
 21 25  1  0  0  0  0
 22 19  1  0  0  0  0
 23 21  2  0  0  0  0
 23 27  1  0  0  0  0
 24 28  1  1  0  0  0
 25 20  1  0  0  0  0
 25 22  1  1  0  0  0
 26 24  1  0  0  0  0
 27 20  1  0  0  0  0
 28 29  1  0  0  0  0
 29 30  1  0  0  0  0
 31 30  1  0  0  0  0
 32 31  1  0  0  0  0
M  END
>  <MODEL>
2

>  <REMARK>
 VINA RESULT:      -8.5      3.858      6.151
  Name = 
  5 active torsions:
  status: ('A' for Active; 'I' for Inactive)
    1  A    between atoms: C_1  and  C_20
    2  A    between atoms: C_3  and  C_14
    3  A    between atoms: N_10  and  C_20
    4  A    between atoms: N_10  and  C_24
    5  A    between atoms: C_19  and  C_24
                            x       y       z     vdW  Elec       q    Type
                         _______ _______ _______ _____ _____    ______ ____

>  <TORSDO>
F 5

$$$$
=
 OpenBabel10262421373D

 32 37  0  0  1  0  0  0  0  0999 V2000
  187.6810  176.8020  143.0430 C   0  0  2  0  0  3  0  0  0  0  0  0
  184.2650  178.5000  143.5250 C   0  0  0  0  0  3  0  0  0  0  0  0
  184.4800  179.0190  144.8170 C   0  0  0  0  0  3  0  0  0  0  0  0
  189.8540  176.3940  144.3690 N   0  0  0  0  0  0  0  0  0  0  0  0
  190.5030  176.6410  145.5390 C   0  0  0  0  0  0  0  0  0  0  0  0
  190.8800  177.4070  147.5670 C   0  0  0  0  0  0  0  0  0  0  0  0
  185.2670  177.7610  142.8780 C   0  0  0  0  0  3  0  0  0  0  0  0
  186.4780  177.5560  143.5420 C   0  0  0  0  0  0  0  0  0  0  0  0
  188.0000  177.6870  145.2560 C   0  0  0  0  0  0  0  0  0  0  0  0
  191.9500  176.6910  147.1340 N   0  0  0  0  0  0  0  0  0  0  0  0
  191.7260  176.2240  145.9050 N   0  0  0  0  0  0  0  0  0  0  0  0
  185.6990  178.8030  145.4770 C   0  0  0  0  0  3  0  0  0  0  0  0
  186.6800  178.0670  144.8120 C   0  0  0  0  0  0  0  0  0  0  0  0
  188.6360  177.9570  146.4790 C   0  0  0  0  0  3  0  0  0  0  0  0
  190.4630  175.5880  143.3220 C   0  0  0  0  0  1  0  0  0  0  0  0
  190.7960  178.0620  148.8990 C   0  0  0  0  0  1  0  0  0  0  0  0
  188.5990  176.9340  144.2330 C   0  0  0  0  0  0  0  0  0  0  0  0
  189.9140  177.4150  146.5930 C   0  0  0  0  0  0  0  0  0  0  0  0
  189.3290  176.4460  138.3260 O   0  0  0  0  0  0  0  0  0  0  0  0
  188.3140  178.6800  139.8770 C   0  0  1  0  0  3  0  0  0  0  0  0
  189.3860  177.1340  141.3340 N   0  0  0  0  0  0  0  0  0  0  0  0
  190.2770  177.2220  139.0210 C   0  0  0  0  0  2  0  0  0  0  0  0
  188.2580  177.4880  141.8430 C   0  0  0  0  0  0  0  0  0  0  0  0
  188.3930  177.3100  137.7110 C   0  0  1  0  0  3  0  0  0  0  0  0
  189.6540  177.9850  140.1890 C   0  0  1  0  0  3  0  0  0  0  0  0
  187.5210  178.0120  138.7460 C   0  0  0  0  0  2  0  0  0  0  0  0
  187.5640  178.4830  141.1050 N   0  0  0  0  0  2  0  0  0  0  0  0
  189.0100  178.2810  136.7030 C   0  0  0  0  0  2  0  0  0  0  0  0
  189.1850  177.6190  135.4220 N   0  0  0  0  0  2  0  0  0  0  0  0
  187.9500  176.9050  135.1490 C   0  0  0  0  0  2  0  0  0  0  0  0
  186.9080  177.8590  134.5940 C   0  0  0  0  0  2  0  0  0  0  0  0
  185.5130  177.3560  134.9070 C   0  0  0  0  0  1  0  0  0  0  0  0
  1 23  1  6  0  0  0
  1  8  1  0  0  0  0
  1 17  1  0  0  0  0
  2  3  1  0  0  0  0
  3 12  2  0  0  0  0
  4  5  1  0  0  0  0
  5 11  2  0  0  0  0
  5 18  1  0  0  0  0
  6 16  1  0  0  0  0
  7  2  2  0  0  0  0
  7  8  1  0  0  0  0
  8 13  2  0  0  0  0
  9 14  1  0  0  0  0
 10  6  2  0  0  0  0
 11 10  1  0  0  0  0
 13  9  1  0  0  0  0
 13 12  1  0  0  0  0
 14 18  2  0  0  0  0
 15  4  1  0  0  0  0
 17  4  1  0  0  0  0
 17  9  2  0  0  0  0
 18  6  1  0  0  0  0
 19 22  1  0  0  0  0
 20 26  1  6  0  0  0
 20 25  1  0  0  0  0
 20 27  1  0  0  0  0
 21 23  2  0  0  0  0
 24 28  1  1  0  0  0
 24 19  1  0  0  0  0
 24 26  1  0  0  0  0
 25 22  1  6  0  0  0
 25 21  1  0  0  0  0
 27 23  1  0  0  0  0
 29 28  1  0  0  0  0
 30 29  1  0  0  0  0
 31 32  1  0  0  0  0
 31 30  1  0  0  0  0
M  END
>  <MODEL>
3

>  <REMARK>
 VINA RESULT:      -8.4      2.555      8.127
  Name = 
  5 active torsions:
  status: ('A' for Active; 'I' for Inactive)
    1  A    between atoms: C_1  and  C_20
    2  A    between atoms: C_3  and  C_14
    3  A    between atoms: N_10  and  C_20
    4  A    between atoms: N_10  and  C_24
    5  A    between atoms: C_19  and  C_24
                            x       y       z     vdW  Elec       q    Type
                         _______ _______ _______ _____ _____    ______ ____

>  <TORSDO>
F 5

$$$$
=
 OpenBabel10262421373D

 32 37  0  0  1  0  0  0  0  0999 V2000
  183.6520  178.9250  140.4340 C   0  0  2  0  0  3  0  0  0  0  0  0
  186.4980  178.4470  137.8920 C   0  0  0  0  0  3  0  0  0  0  0  0
  187.5400  178.1890  138.8040 C   0  0  0  0  0  3  0  0  0  0  0  0
  183.3140  178.9670  142.9890 N   0  0  0  0  0  0  0  0  0  0  0  0
  183.9290  178.8090  144.1930 C   0  0  0  0  0  0  0  0  0  0  0  0
  185.5260  178.4390  145.6610 C   0  0  0  0  0  0  0  0  0  0  0  0
  185.1950  178.6990  138.3510 C   0  0  0  0  0  3  0  0  0  0  0  0
  184.9580  178.6850  139.7270 C   0  0  0  0  0  0  0  0  0  0  0  0
  185.4630  178.5010  141.9590 C   0  0  0  0  0  0  0  0  0  0  0  0
  184.3560  178.6960  146.3020 N   0  0  0  0  0  0  0  0  0  0  0  0
  183.3850  178.9220  145.4160 N   0  0  0  0  0  0  0  0  0  0  0  0
  187.2910  178.1820  140.1850 C   0  0  0  0  0  3  0  0  0  0  0  0
  185.9890  178.4330  140.6160 C   0  0  0  0  0  0  0  0  0  0  0  0
  186.1330  178.3380  143.1830 C   0  0  0  0  0  3  0  0  0  0  0  0
  181.9020  179.3060  142.9000 C   0  0  0  0  0  1  0  0  0  0  0  0
  186.8120  178.1500  146.3510 C   0  0  0  0  0  1  0  0  0  0  0  0
  184.0940  178.8000  141.8720 C   0  0  0  0  0  0  0  0  0  0  0  0
  185.3240  178.4950  144.3050 C   0  0  0  0  0  0  0  0  0  0  0  0
  180.9600  176.6240  136.8920 O   0  0  0  0  0  0  0  0  0  0  0  0
  181.8910  175.7650  139.5040 C   0  0  1  0  0  3  0  0  0  0  0  0
  181.5380  178.1190  139.5280 N   0  0  0  0  0  0  0  0  0  0  0  0
  180.0890  176.8350  137.9780 C   0  0  0  0  0  2  0  0  0  0  0  0
  182.6700  177.8510  140.0810 C   0  0  0  0  0  0  0  0  0  0  0  0
  181.5260  175.3330  137.0020 C   0  0  1  0  0  3  0  0  0  0  0  0
  180.8310  176.8690  139.3140 C   0  0  1  0  0  3  0  0  0  0  0  0
  182.4830  175.2460  138.1870 C   0  0  0  0  0  2  0  0  0  0  0  0
  182.9510  176.4650  140.2080 N   0  0  0  0  0  2  0  0  0  0  0  0
  180.5010  174.1980  136.9870 C   0  0  0  0  0  2  0  0  0  0  0  0
  180.9960  173.0960  136.1820 N   0  0  0  0  0  2  0  0  0  0  0  0
  181.3030  172.0140  137.1000 C   0  0  0  0  0  2  0  0  0  0  0  0
  182.5270  171.2550  136.6200 C   0  0  0  0  0  2  0  0  0  0  0  0
  183.7920  171.9800  137.0360 C   0  0  0  0  0  1  0  0  0  0  0  0
  1 23  1  6  0  0  0
  1 17  1  0  0  0  0
  2  7  2  0  0  0  0
  2  3  1  0  0  0  0
  3 12  2  0  0  0  0
  4  5  1  0  0  0  0
  5 18  1  0  0  0  0
  5 11  2  0  0  0  0
  6 10  2  0  0  0  0
  6 16  1  0  0  0  0
  7  8  1  0  0  0  0
  8  1  1  0  0  0  0
  8 13  2  0  0  0  0
  9 14  1  0  0  0  0
 11 10  1  0  0  0  0
 12 13  1  0  0  0  0
 13  9  1  0  0  0  0
 14 18  2  0  0  0  0
 15  4  1  0  0  0  0
 17  9  2  0  0  0  0
 17  4  1  0  0  0  0
 18  6  1  0  0  0  0
 19 24  1  0  0  0  0
 19 22  1  0  0  0  0
 20 26  1  6  0  0  0
 20 27  1  0  0  0  0
 21 23  2  0  0  0  0
 23 27  1  0  0  0  0
 24 28  1  1  0  0  0
 24 26  1  0  0  0  0
 25 22  1  6  0  0  0
 25 20  1  0  0  0  0
 25 21  1  0  0  0  0
 29 28  1  0  0  0  0
 29 30  1  0  0  0  0
 31 32  1  0  0  0  0
 31 30  1  0  0  0  0
M  END
>  <MODEL>
4

>  <REMARK>
 VINA RESULT:      -7.7      3.630      8.864
  Name = 
  5 active torsions:
  status: ('A' for Active; 'I' for Inactive)
    1  A    between atoms: C_1  and  C_20
    2  A    between atoms: C_3  and  C_14
    3  A    between atoms: N_10  and  C_20
    4  A    between atoms: N_10  and  C_24
    5  A    between atoms: C_19  and  C_24
                            x       y       z     vdW  Elec       q    Type
                         _______ _______ _______ _____ _____    ______ ____

>  <TORSDO>
F 5

$$$$
=
 OpenBabel10262421373D

 32 37  0  0  1  0  0  0  0  0999 V2000
  190.7380  177.3220  139.0060 C   0  0  2  0  0  3  0  0  0  0  0  0
  187.0340  178.2580  138.5740 C   0  0  0  0  0  3  0  0  0  0  0  0
  186.6700  177.2300  137.6830 C   0  0  0  0  0  3  0  0  0  0  0  0
  192.4240  175.5920  138.1050 N   0  0  0  0  0  0  0  0  0  0  0  0
  192.5770  174.5070  137.2990 C   0  0  0  0  0  0  0  0  0  0  0  0
  192.0670  172.8980  135.8870 C   0  0  0  0  0  0  0  0  0  0  0  0
  188.3500  178.3550  139.0510 C   0  0  0  0  0  3  0  0  0  0  0  0
  189.2850  177.4090  138.6250 C   0  0  0  0  0  0  0  0  0  0  0  0
  190.0820  175.5940  137.4670 C   0  0  0  0  0  0  0  0  0  0  0  0
  193.3890  172.8420  136.1980 N   0  0  0  0  0  0  0  0  0  0  0  0
  193.7030  173.8160  137.0530 N   0  0  0  0  0  0  0  0  0  0  0  0
  187.6190  176.2880  137.2570 C   0  0  0  0  0  3  0  0  0  0  0  0
  188.9200  176.4040  137.7470 C   0  0  0  0  0  0  0  0  0  0  0  0
  190.2020  174.4800  136.6200 C   0  0  0  0  0  3  0  0  0  0  0  0
  193.5500  176.1600  138.8300 C   0  0  0  0  0  1  0  0  0  0  0  0
  191.3880  171.9590  134.9540 C   0  0  0  0  0  1  0  0  0  0  0  0
  191.1620  176.1250  138.1890 C   0  0  0  0  0  0  0  0  0  0  0  0
  191.4860  173.9430  136.5590 C   0  0  0  0  0  0  0  0  0  0  0  0
  190.4940  179.0530  143.6990 O   0  0  0  0  0  0  0  0  0  0  0  0
  190.2690  176.3800  142.5890 C   0  0  1  0  0  3  0  0  0  0  0  0
  191.7060  177.6850  141.2130 N   0  0  0  0  0  0  0  0  0  0  0  0
  191.6790  178.2960  143.6160 C   0  0  0  0  0  2  0  0  0  0  0  0
  190.8710  177.0440  140.4710 C   0  0  0  0  0  0  0  0  0  0  0  0
  189.4530  178.2230  144.1760 C   0  0  1  0  0  3  0  0  0  0  0  0
  191.5820  177.1860  142.5710 C   0  0  1  0  0  3  0  0  0  0  0  0
  189.0730  177.1630  143.1470 C   0  0  0  0  0  2  0  0  0  0  0  0
  190.0160  176.1560  141.1770 N   0  0  0  0  0  2  0  0  0  0  0  0
  189.7120  177.6330  145.5630 C   0  0  0  0  0  2  0  0  0  0  0  0
  188.5910  176.8010  145.9630 N   0  0  0  0  0  2  0  0  0  0  0  0
  187.5300  177.7010  146.3780 C   0  0  0  0  0  2  0  0  0  0  0  0
  187.9340  178.4340  147.6440 C   0  0  0  0  0  2  0  0  0  0  0  0
  187.9280  177.4860  148.8260 C   0  0  0  0  0  1  0  0  0  0  0  0
  1 23  1  1  0  0  0
  2  7  1  0  0  0  0
  3  2  2  0  0  0  0
  4 17  1  0  0  0  0
  4 15  1  0  0  0  0
  5  4  1  0  0  0  0
  6 10  2  0  0  0  0
  6 18  1  0  0  0  0
  8  1  1  0  0  0  0
  8  7  2  0  0  0  0
  9 13  1  0  0  0  0
  9 17  2  0  0  0  0
 10 11  1  0  0  0  0
 11  5  2  0  0  0  0
 12  3  1  0  0  0  0
 12 13  2  0  0  0  0
 13  8  1  0  0  0  0
 14  9  1  0  0  0  0
 16  6  1  0  0  0  0
 17  1  1  0  0  0  0
 18 14  2  0  0  0  0
 18  5  1  0  0  0  0
 19 24  1  0  0  0  0
 20 26  1  6  0  0  0
 21 25  1  0  0  0  0
 22 19  1  0  0  0  0
 23 27  1  0  0  0  0
 23 21  2  0  0  0  0
 24 28  1  1  0  0  0
 25 20  1  0  0  0  0
 25 22  1  1  0  0  0
 26 24  1  0  0  0  0
 27 20  1  0  0  0  0
 28 29  1  0  0  0  0
 29 30  1  0  0  0  0
 30 31  1  0  0  0  0
 31 32  1  0  0  0  0
M  END
>  <MODEL>
5

>  <REMARK>
 VINA RESULT:      -7.7      4.283      6.092
  Name = 
  5 active torsions:
  status: ('A' for Active; 'I' for Inactive)
    1  A    between atoms: C_1  and  C_20
    2  A    between atoms: C_3  and  C_14
    3  A    between atoms: N_10  and  C_20
    4  A    between atoms: N_10  and  C_24
    5  A    between atoms: C_19  and  C_24
                            x       y       z     vdW  Elec       q    Type
                         _______ _______ _______ _____ _____    ______ ____

>  <TORSDO>
F 5

$$$$
=
 OpenBabel10262421373D

 32 37  0  0  1  0  0  0  0  0999 V2000
  185.0880  179.1920  141.3490 C   0  0  2  0  0  3  0  0  0  0  0  0
  187.7990  178.0840  138.8570 C   0  0  0  0  0  3  0  0  0  0  0  0
  188.6920  177.5030  139.7780 C   0  0  0  0  0  3  0  0  0  0  0  0
  184.6690  179.1920  143.8920 N   0  0  0  0  0  0  0  0  0  0  0  0
  185.1670  178.8090  145.0990 C   0  0  0  0  0  0  0  0  0  0  0  0
  186.5400  177.9380  146.5820 C   0  0  0  0  0  0  0  0  0  0  0  0
  186.5960  178.6600  139.2960 C   0  0  0  0  0  3  0  0  0  0  0  0
  186.3080  178.6390  140.6620 C   0  0  0  0  0  0  0  0  0  0  0  0
  186.6500  178.2090  142.8910 C   0  0  0  0  0  0  0  0  0  0  0  0
  185.4590  178.4730  147.2080 N   0  0  0  0  0  0  0  0  0  0  0  0
  184.6240  179.0030  146.3130 N   0  0  0  0  0  0  0  0  0  0  0  0
  188.3940  177.4920  141.1480 C   0  0  0  0  0  3  0  0  0  0  0  0
  187.1920  178.0690  141.5600 C   0  0  0  0  0  0  0  0  0  0  0  0
  187.1980  177.8040  144.1190 C   0  0  0  0  0  3  0  0  0  0  0  0
  183.4080  179.9100  143.7880 C   0  0  0  0  0  1  0  0  0  0  0  0
  187.6680  177.2720  147.2870 C   0  0  0  0  0  1  0  0  0  0  0  0
  185.4190  178.8760  142.7870 C   0  0  0  0  0  0  0  0  0  0  0  0
  186.4170  178.1190  145.2280 C   0  0  0  0  0  0  0  0  0  0  0  0
  182.0050  177.9300  137.6090 O   0  0  0  0  0  0  0  0  0  0  0  0
  182.5740  176.6940  140.1730 C   0  0  1  0  0  3  0  0  0  0  0  0
  182.8690  179.0480  140.3520 N   0  0  0  0  0  0  0  0  0  0  0  0
  181.1840  178.3030  138.6910 C   0  0  0  0  0  2  0  0  0  0  0  0
  183.8660  178.4500  140.9050 C   0  0  0  0  0  0  0  0  0  0  0  0
  182.1970  176.5300  137.6410 C   0  0  1  0  0  3  0  0  0  0  0  0
  181.8590  178.0530  140.0390 C   0  0  1  0  0  3  0  0  0  0  0  0
  183.0510  176.1140  138.8340 C   0  0  0  0  0  2  0  0  0  0  0  0
  183.7570  177.0340  140.9420 N   0  0  0  0  0  2  0  0  0  0  0  0
  180.9040  175.7200  137.5290 C   0  0  0  0  0  2  0  0  0  0  0  0
  181.1510  174.3410  137.9090 N   0  0  0  0  0  2  0  0  0  0  0  0
  179.9170  173.8410  138.4900 C   0  0  0  0  0  2  0  0  0  0  0  0
  179.5260  174.6860  139.6890 C   0  0  0  0  0  2  0  0  0  0  0  0
  179.6810  173.8880  140.9680 C   0  0  0  0  0  1  0  0  0  0  0  0
  1 23  1  6  0  0  0
  1 17  1  0  0  0  0
  2  7  2  0  0  0  0
  2  3  1  0  0  0  0
  3 12  2  0  0  0  0
  4  5  1  0  0  0  0
  5 18  1  0  0  0  0
  5 11  2  0  0  0  0
  6 10  2  0  0  0  0
  6 16  1  0  0  0  0
  7  8  1  0  0  0  0
  8  1  1  0  0  0  0
  8 13  2  0  0  0  0
  9 14  1  0  0  0  0
 11 10  1  0  0  0  0
 12 13  1  0  0  0  0
 13  9  1  0  0  0  0
 14 18  2  0  0  0  0
 15  4  1  0  0  0  0
 17  9  2  0  0  0  0
 17  4  1  0  0  0  0
 18  6  1  0  0  0  0
 19 24  1  0  0  0  0
 19 22  1  0  0  0  0
 20 26  1  6  0  0  0
 20 27  1  0  0  0  0
 21 23  2  0  0  0  0
 23 27  1  0  0  0  0
 24 28  1  1  0  0  0
 24 26  1  0  0  0  0
 25 22  1  6  0  0  0
 25 20  1  0  0  0  0
 25 21  1  0  0  0  0
 28 29  1  0  0  0  0
 29 30  1  0  0  0  0
 30 31  1  0  0  0  0
 31 32  1  0  0  0  0
M  END
>  <MODEL>
6

>  <REMARK>
 VINA RESULT:      -7.4      3.099      8.524
  Name = 
  5 active torsions:
  status: ('A' for Active; 'I' for Inactive)
    1  A    between atoms: C_1  and  C_20
    2  A    between atoms: C_3  and  C_14
    3  A    between atoms: N_10  and  C_20
    4  A    between atoms: N_10  and  C_24
    5  A    between atoms: C_19  and  C_24
                            x       y       z     vdW  Elec       q    Type
                         _______ _______ _______ _____ _____    ______ ____

>  <TORSDO>
F 5

$$$$
=
 OpenBabel10262421373D

 32 37  0  0  1  0  0  0  0  0999 V2000
  189.4500  176.8800  136.3820 C   0  0  2  0  0  3  0  0  0  0  0  0
  193.0200  175.6160  135.7150 C   0  0  0  0  0  3  0  0  0  0  0  0
  193.5140  175.7090  137.0310 C   0  0  0  0  0  3  0  0  0  0  0  0
  188.0440  177.7900  138.3410 N   0  0  0  0  0  0  0  0  0  0  0  0
  188.0450  178.0670  139.6730 C   0  0  0  0  0  0  0  0  0  0  0  0
  188.7740  178.2560  141.7400 C   0  0  0  0  0  0  0  0  0  0  0  0
  191.6970  175.9840  135.4230 C   0  0  0  0  0  3  0  0  0  0  0  0
  190.8860  176.4380  136.4650 C   0  0  0  0  0  0  0  0  0  0  0  0
  190.3380  177.0430  138.6110 C   0  0  0  0  0  0  0  0  0  0  0  0
  187.4910  178.6940  141.6590 N   0  0  0  0  0  0  0  0  0  0  0  0
  187.0440  178.5830  140.4070 N   0  0  0  0  0  0  0  0  0  0  0  0
  192.6910  176.1710  138.0690 C   0  0  0  0  0  3  0  0  0  0  0  0
  191.3800  176.5290  137.7540 C   0  0  0  0  0  0  0  0  0  0  0  0
  190.3790  177.3230  139.9870 C   0  0  0  0  0  3  0  0  0  0  0  0
  186.8740  178.0490  137.5150 C   0  0  0  0  0  1  0  0  0  0  0  0
  189.5770  178.2490  142.9930 C   0  0  0  0  0  1  0  0  0  0  0  0
  189.2000  177.2650  137.8190 C   0  0  0  0  0  0  0  0  0  0  0  0
  189.1930  177.8400  140.5020 C   0  0  0  0  0  0  0  0  0  0  0  0
  185.5700  173.9010  137.4570 O   0  0  0  0  0  0  0  0  0  0  0  0
  186.8530  174.6080  134.9520 C   0  0  1  0  0  3  0  0  0  0  0  0
  188.4600  174.6760  136.7060 N   0  0  0  0  0  0  0  0  0  0  0  0
  186.6070  173.0570  137.0130 C   0  0  0  0  0  2  0  0  0  0  0  0
  188.5800  175.7310  135.9760 C   0  0  0  0  0  0  0  0  0  0  0  0
  184.7430  174.2270  136.3590 C   0  0  1  0  0  3  0  0  0  0  0  0
  187.5480  173.7650  136.0390 C   0  0  1  0  0  3  0  0  0  0  0  0
  185.4690  175.1270  135.3650 C   0  0  0  0  0  2  0  0  0  0  0  0
  187.7300  175.7600  134.8380 N   0  0  0  0  0  2  0  0  0  0  0  0
  184.0870  173.0180  135.6900 C   0  0  0  0  0  2  0  0  0  0  0  0
  182.8240  172.7190  136.3390 N   0  0  0  0  0  2  0  0  0  0  0  0
  182.9990  171.4530  137.0300 C   0  0  0  0  0  2  0  0  0  0  0  0
  183.6990  170.4570  136.1230 C   0  0  0  0  0  2  0  0  0  0  0  0
  182.6800  169.6280  135.3670 C   0  0  0  0  0  1  0  0  0  0  0  0
  1 23  1  1  0  0  0
  1  8  1  0  0  0  0
  1 17  1  0  0  0  0
  2  3  1  0  0  0  0
  3 12  2  0  0  0  0
  4  5  1  0  0  0  0
  5 11  2  0  0  0  0
  5 18  1  0  0  0  0
  6 16  1  0  0  0  0
  7  2  2  0  0  0  0
  7  8  1  0  0  0  0
  8 13  2  0  0  0  0
  9 14  1  0  0  0  0
 10  6  2  0  0  0  0
 11 10  1  0  0  0  0
 13 12  1  0  0  0  0
 13  9  1  0  0  0  0
 14 18  2  0  0  0  0
 15  4  1  0  0  0  0
 17  4  1  0  0  0  0
 17  9  2  0  0  0  0
 18  6  1  0  0  0  0
 20 26  1  1  0  0  0
 20 25  1  0  0  0  0
 22 19  1  0  0  0  0
 23 21  2  0  0  0  0
 24 28  1  6  0  0  0
 24 19  1  0  0  0  0
 25 21  1  0  0  0  0
 25 22  1  1  0  0  0
 26 24  1  0  0  0  0
 27 20  1  0  0  0  0
 27 23  1  0  0  0  0
 28 29  1  0  0  0  0
 29 30  1  0  0  0  0
 31 30  1  0  0  0  0
 32 31  1  0  0  0  0
M  END
>  <MODEL>
7

>  <REMARK>
 VINA RESULT:      -6.9      4.396      9.474
  Name = 
  5 active torsions:
  status: ('A' for Active; 'I' for Inactive)
    1  A    between atoms: C_1  and  C_20
    2  A    between atoms: C_3  and  C_14
    3  A    between atoms: N_10  and  C_20
    4  A    between atoms: N_10  and  C_24
    5  A    between atoms: C_19  and  C_24
                            x       y       z     vdW  Elec       q    Type
                         _______ _______ _______ _____ _____    ______ ____

>  <TORSDO>
F 5

$$$$
=
 OpenBabel10262421373D

 32 37  0  0  1  0  0  0  0  0999 V2000
  187.6890  178.2280  138.2280 C   0  0  2  0  0  3  0  0  0  0  0  0
  191.3290  177.0140  137.9730 C   0  0  0  0  0  3  0  0  0  0  0  0
  191.5490  176.7530  139.3390 C   0  0  0  0  0  3  0  0  0  0  0  0
  185.9130  178.6800  140.0410 N   0  0  0  0  0  0  0  0  0  0  0  0
  185.6460  178.6160  141.3730 C   0  0  0  0  0  0  0  0  0  0  0  0
  185.9470  178.2500  143.5220 C   0  0  0  0  0  0  0  0  0  0  0  0
  190.0890  177.5010  137.5310 C   0  0  0  0  0  3  0  0  0  0  0  0
  189.0820  177.7160  138.4750 C   0  0  0  0  0  0  0  0  0  0  0  0
  188.1120  177.7890  140.5540 C   0  0  0  0  0  0  0  0  0  0  0  0
  184.7020  178.7500  143.3060 N   0  0  0  0  0  0  0  0  0  0  0  0
  184.5150  178.9750  142.0040 N   0  0  0  0  0  0  0  0  0  0  0  0
  190.5330  176.9770  140.2800 C   0  0  0  0  0  3  0  0  0  0  0  0
  189.3080  177.4590  139.8160 C   0  0  0  0  0  0  0  0  0  0  0  0
  187.8750  177.7140  141.9370 C   0  0  0  0  0  3  0  0  0  0  0  0
  184.9300  179.1890  139.0960 C   0  0  0  0  0  1  0  0  0  0  0  0
  186.4820  177.8940  144.8630 C   0  0  0  0  0  1  0  0  0  0  0  0
  187.1540  178.2520  139.6390 C   0  0  0  0  0  0  0  0  0  0  0  0
  186.6070  178.1380  142.3250 C   0  0  0  0  0  0  0  0  0  0  0  0
  184.1750  174.6690  137.9660 O   0  0  0  0  0  0  0  0  0  0  0  0
  185.2850  176.4670  135.9770 C   0  0  1  0  0  3  0  0  0  0  0  0
  186.9410  175.9900  137.6170 N   0  0  0  0  0  0  0  0  0  0  0  0
  185.2740  174.1960  137.2240 C   0  0  0  0  0  2  0  0  0  0  0  0
  186.9250  177.2560  137.3830 C   0  0  0  0  0  0  0  0  0  0  0  0
  183.2780  175.3220  137.0900 C   0  0  1  0  0  3  0  0  0  0  0  0
  186.1010  175.3350  136.6300 C   0  0  1  0  0  3  0  0  0  0  0  0
  183.8720  176.6210  136.5550 C   0  0  0  0  0  2  0  0  0  0  0  0
  186.0350  177.6530  136.3500 N   0  0  0  0  0  2  0  0  0  0  0  0
  182.7240  174.4260  135.9810 C   0  0  0  0  0  2  0  0  0  0  0  0
  181.7000  173.5490  136.5200 N   0  0  0  0  0  2  0  0  0  0  0  0
  181.9470  172.2290  135.9670 C   0  0  0  0  0  2  0  0  0  0  0  0
  182.8730  171.4470  136.8820 C   0  0  0  0  0  2  0  0  0  0  0  0
  183.8010  170.5700  136.0660 C   0  0  0  0  0  1  0  0  0  0  0  0
  1 23  1  6  0  0  0
  1  8  1  0  0  0  0
  1 17  1  0  0  0  0
  2  3  1  0  0  0  0
  3 12  2  0  0  0  0
  4  5  1  0  0  0  0
  5 11  2  0  0  0  0
  5 18  1  0  0  0  0
  6 16  1  0  0  0  0
  7  2  2  0  0  0  0
  7  8  1  0  0  0  0
  8 13  2  0  0  0  0
  9 14  1  0  0  0  0
 10  6  2  0  0  0  0
 11 10  1  0  0  0  0
 13 12  1  0  0  0  0
 13  9  1  0  0  0  0
 14 18  2  0  0  0  0
 15  4  1  0  0  0  0
 17  4  1  0  0  0  0
 17  9  2  0  0  0  0
 18  6  1  0  0  0  0
 20 27  1  0  0  0  0
 20 26  1  1  0  0  0
 20 25  1  0  0  0  0
 22 19  1  0  0  0  0
 23 21  2  0  0  0  0
 24 28  1  6  0  0  0
 24 19  1  0  0  0  0
 25 22  1  1  0  0  0
 25 21  1  0  0  0  0
 26 24  1  0  0  0  0
 27 23  1  0  0  0  0
 28 29  1  0  0  0  0
 30 29  1  0  0  0  0
 30 31  1  0  0  0  0
 32 31  1  0  0  0  0
M  END
>  <MODEL>
8

>  <REMARK>
 VINA RESULT:      -6.9      3.270      8.527
  Name = 
  5 active torsions:
  status: ('A' for Active; 'I' for Inactive)
    1  A    between atoms: C_1  and  C_20
    2  A    between atoms: C_3  and  C_14
    3  A    between atoms: N_10  and  C_20
    4  A    between atoms: N_10  and  C_24
    5  A    between atoms: C_19  and  C_24
                            x       y       z     vdW  Elec       q    Type
                         _______ _______ _______ _____ _____    ______ ____

>  <TORSDO>
F 5

$$$$
=
 OpenBabel10262421373D

 32 37  0  0  1  0  0  0  0  0999 V2000
  182.8260  178.2480  139.9590 C   0  0  2  0  0  3  0  0  0  0  0  0
  180.7460  178.7460  143.1550 C   0  0  0  0  0  3  0  0  0  0  0  0
  181.8080  178.9750  144.0510 C   0  0  0  0  0  3  0  0  0  0  0  0
  185.3010  178.1600  139.2440 N   0  0  0  0  0  0  0  0  0  0  0  0
  186.5860  178.2890  139.6740 C   0  0  0  0  0  0  0  0  0  0  0  0
  188.2820  178.6140  141.0370 C   0  0  0  0  0  0  0  0  0  0  0  0
  181.0000  178.4980  141.7970 C   0  0  0  0  0  3  0  0  0  0  0  0
  182.3260  178.4880  141.3580 C   0  0  0  0  0  0  0  0  0  0  0  0
  184.6110  178.6240  141.5260 C   0  0  0  0  0  0  0  0  0  0  0  0
  188.7360  178.3570  139.7830 N   0  0  0  0  0  0  0  0  0  0  0  0
  187.7120  178.1580  138.9530 N   0  0  0  0  0  0  0  0  0  0  0  0
  183.1360  178.9580  143.6000 C   0  0  0  0  0  3  0  0  0  0  0  0
  183.3630  178.7120  142.2460 C   0  0  0  0  0  0  0  0  0  0  0  0
  185.9240  178.7570  142.0070 C   0  0  0  0  0  3  0  0  0  0  0  0
  184.9960  177.8380  137.8590 C   0  0  0  0  0  1  0  0  0  0  0  0
  189.1620  178.8760  142.2080 C   0  0  0  0  0  1  0  0  0  0  0  0
  184.3150  178.3410  140.1820 C   0  0  0  0  0  0  0  0  0  0  0  0
  186.9100  178.5860  141.0390 C   0  0  0  0  0  0  0  0  0  0  0  0
  178.9990  180.4470  137.5910 O   0  0  0  0  0  0  0  0  0  0  0  0
  181.6130  181.4170  138.3980 C   0  0  1  0  0  3  0  0  0  0  0  0
  181.7450  179.0850  137.9410 N   0  0  0  0  0  0  0  0  0  0  0  0
  180.0380  180.3350  136.6470 C   0  0  0  0  0  2  0  0  0  0  0  0
  182.3530  179.3380  139.0480 C   0  0  0  0  0  0  0  0  0  0  0  0
  179.0730  181.7180  138.2050 C   0  0  1  0  0  3  0  0  0  0  0  0
  181.4180  180.3480  137.3040 C   0  0  1  0  0  3  0  0  0  0  0  0
  180.3100  181.8350  139.0910 C   0  0  0  0  0  2  0  0  0  0  0  0
  182.4200  180.7170  139.3820 N   0  0  0  0  0  2  0  0  0  0  0  0
  178.9310  182.8910  137.2330 C   0  0  0  0  0  2  0  0  0  0  0  0
  179.4570  184.1010  137.8380 N   0  0  0  0  0  2  0  0  0  0  0  0
  179.3730  185.1430  136.8300 C   0  0  0  0  0  2  0  0  0  0  0  0
  179.0240  186.4690  137.4810 C   0  0  0  0  0  2  0  0  0  0  0  0
  178.9540  186.3150  138.9870 C   0  0  0  0  0  1  0  0  0  0  0  0
  1 23  1  6  0  0  0
  1 17  1  0  0  0  0
  1  8  1  0  0  0  0
  2  3  1  0  0  0  0
  4  5  1  0  0  0  0
  4 17  1  0  0  0  0
  5 18  1  0  0  0  0
  6 18  1  0  0  0  0
  6 16  1  0  0  0  0
  7  2  2  0  0  0  0
  8  7  1  0  0  0  0
  8 13  2  0  0  0  0
  9 14  1  0  0  0  0
  9 13  1  0  0  0  0
 10  6  2  0  0  0  0
 11  5  2  0  0  0  0
 11 10  1  0  0  0  0
 12  3  2  0  0  0  0
 13 12  1  0  0  0  0
 15  4  1  0  0  0  0
 17  9  2  0  0  0  0
 18 14  2  0  0  0  0
 19 24  1  0  0  0  0
 20 26  1  1  0  0  0
 20 27  1  0  0  0  0
 21 23  2  0  0  0  0
 22 19  1  0  0  0  0
 23 27  1  0  0  0  0
 24 28  1  6  0  0  0
 24 26  1  0  0  0  0
 25 22  1  1  0  0  0
 25 21  1  0  0  0  0
 25 20  1  0  0  0  0
 28 29  1  0  0  0  0
 30 31  1  0  0  0  0
 30 29  1  0  0  0  0
 31 32  1  0  0  0  0
M  END
>  <MODEL>
9

>  <REMARK>
 VINA RESULT:      -6.8      4.792      9.014
  Name = 
  5 active torsions:
  status: ('A' for Active; 'I' for Inactive)
    1  A    between atoms: C_1  and  C_20
    2  A    between atoms: C_3  and  C_14
    3  A    between atoms: N_10  and  C_20
    4  A    between atoms: N_10  and  C_24
    5  A    between atoms: C_19  and  C_24
                            x       y       z     vdW  Elec       q    Type
                         _______ _______ _______ _____ _____    ______ ____

>  <TORSDO>
F 5

$$$$
