=
 OpenBabel10262419453D

 25 28  0  0  1  0  0  0  0  0999 V2000
  189.0200  177.5060  145.4320 C   0  0  0  0  0  0  0  0  0  0  0  0
  188.2770  177.7330  144.2760 C   0  0  0  0  0  0  0  0  0  0  0  0
  187.0400  177.6420  146.7880 C   0  0  0  0  0  3  0  0  0  0  0  0
  190.4850  177.3700  145.6370 C   0  0  1  0  0  3  0  0  0  0  0  0
  188.8110  178.0620  140.6600 N   0  0  0  0  0  2  0  0  0  0  0  0
  192.3770  175.7040  146.9710 N   0  0  0  0  0  0  0  0  0  0  0  0
  186.3020  177.8470  145.6570 N   0  0  0  0  0  0  0  0  0  0  0  0
  190.5030  177.1520  147.1260 C   0  0  2  0  0  3  0  0  0  0  0  0
  191.6510  176.4770  147.7300 C   0  0  0  0  0  3  0  0  0  0  0  0
  186.1120  178.1200  143.2630 C   0  0  0  0  0  0  0  0  0  0  0  0
  184.6340  178.3010  143.3370 C   0  0  0  0  0  1  0  0  0  0  0  0
  188.2220  178.2960  139.3730 C   0  0  0  0  0  0  0  0  0  0  0  0
  188.8620  177.7940  143.0510 N   0  0  0  0  0  0  0  0  0  0  0  0
  192.0470  175.4590  145.5850 C   0  0  0  0  0  3  0  0  0  0  0  0
  188.4180  177.4880  146.6630 C   0  0  0  0  0  0  0  0  0  0  0  0
  189.3430  177.2230  147.7040 N   0  0  0  0  0  2  0  0  0  0  0  0
  186.7420  178.1760  142.0170 C   0  0  0  0  0  3  0  0  0  0  0  0
  191.1130  176.1870  144.9490 C   0  0  0  0  0  3  0  0  0  0  0  0
  188.1330  178.0120  141.9220 C   0  0  0  0  0  0  0  0  0  0  0  0
  186.8790  177.8980  144.4150 C   0  0  0  0  0  0  0  0  0  0  0  0
  186.9910  178.5440  139.2600 O   0  0  0  0  0  0  0  0  0  0  0  0
  188.5640  177.4890  137.1830 F   0  0  0  0  0  0  0  0  0  0  0  0
  189.0930  178.3150  138.1580 C   0  0  0  0  0  0  0  0  0  0  0  0
  190.3570  177.8680  138.4950 F   0  0  0  0  0  0  0  0  0  0  0  0
  189.1850  179.6010  137.6560 F   0  0  0  0  0  0  0  0  0  0  0  0
  1  4  1  0  0  0  0
  1 15  1  0  0  0  0
  2 20  1  0  0  0  0
  2  1  2  0  0  0  0
  4 18  1  6  0  0  0
  4  8  1  0  0  0  0
  5 19  1  0  0  0  0
  6  9  2  0  0  0  0
  7  3  1  0  0  0  0
  8 16  1  0  0  0  0
  8  9  1  6  0  0  0
 10 11  1  0  0  0  0
 10 20  1  0  0  0  0
 12  5  1  0  0  0  0
 13  2  1  0  0  0  0
 14  6  1  0  0  0  0
 15  3  2  0  0  0  0
 15 16  1  0  0  0  0
 17 10  2  0  0  0  0
 18 14  2  0  0  0  0
 19 17  1  0  0  0  0
 19 13  2  0  0  0  0
 20  7  2  0  0  0  0
 21 12  2  0  0  0  0
 22 23  1  0  0  0  0
 23 24  1  0  0  0  0
 23 12  1  0  0  0  0
 25 23  1  0  0  0  0
M  END
>  <MODEL>
1

>  <REMARK>
 VINA RESULT:      -9.8      0.000      0.000
  Name = 
  1 active torsions:
  status: ('A' for Active; 'I' for Inactive)
    1  A    between atoms: C_7  and  C_15
                            x       y       z     vdW  Elec       q    Type
                         _______ _______ _______ _____ _____    ______ ____

>  <TORSDO>
F 1

$$$$
=
 OpenBabel10262419453D

 25 28  0  0  1  0  0  0  0  0999 V2000
  184.1040  178.4410  142.8450 C   0  0  0  0  0  0  0  0  0  0  0  0
  185.2130  178.2560  143.6680 C   0  0  0  0  0  0  0  0  0  0  0  0
  182.7770  179.1640  144.7150 C   0  0  0  0  0  3  0  0  0  0  0  0
  183.9030  178.1510  141.4020 C   0  0  1  0  0  3  0  0  0  0  0  0
  188.7020  177.1510  143.4080 N   0  0  0  0  0  2  0  0  0  0  0  0
  182.8590  179.3560  139.0380 N   0  0  0  0  0  0  0  0  0  0  0  0
  183.8650  179.0030  145.5250 N   0  0  0  0  0  0  0  0  0  0  0  0
  182.4770  178.6090  141.2580 C   0  0  2  0  0  3  0  0  0  0  0  0
  181.9860  178.9900  139.9340 C   0  0  0  0  0  3  0  0  0  0  0  0
  186.1740  178.3870  145.8860 C   0  0  0  0  0  0  0  0  0  0  0  0
  186.0920  178.6880  147.3440 C   0  0  0  0  0  1  0  0  0  0  0  0
  189.9360  176.8890  144.0920 C   0  0  0  0  0  0  0  0  0  0  0  0
  186.3980  177.8040  143.1800 N   0  0  0  0  0  0  0  0  0  0  0  0
  184.2720  179.4440  139.3320 C   0  0  0  0  0  3  0  0  0  0  0  0
  182.9060  178.8590  143.3620 C   0  0  0  0  0  0  0  0  0  0  0  0
  181.9140  179.0030  142.3590 N   0  0  0  0  0  2  0  0  0  0  0  0
  187.3800  177.9230  145.3550 C   0  0  0  0  0  3  0  0  0  0  0  0
  184.7820  178.9410  140.4690 C   0  0  0  0  0  3  0  0  0  0  0  0
  187.4800  177.6280  143.9860 C   0  0  0  0  0  0  0  0  0  0  0  0
  185.0690  178.5590  145.0420 C   0  0  0  0  0  0  0  0  0  0  0  0
  190.0220  177.0180  145.3430 O   0  0  0  0  0  0  0  0  0  0  0  0
  192.0560  177.3920  143.1900 F   0  0  0  0  0  0  0  0  0  0  0  0
  191.1140  176.3890  143.3180 C   0  0  0  0  0  0  0  0  0  0  0  0
  190.6990  175.9910  142.0610 F   0  0  0  0  0  0  0  0  0  0  0  0
  191.6900  175.3120  143.9680 F   0  0  0  0  0  0  0  0  0  0  0  0
  1 15  2  0  0  0  0
  1  2  1  0  0  0  0
  2 20  2  0  0  0  0
  3  7  2  0  0  0  0
  4 18  1  6  0  0  0
  4  1  1  0  0  0  0
  5 19  1  0  0  0  0
  5 12  1  0  0  0  0
  6 14  1  0  0  0  0
  6  9  2  0  0  0  0
  8  9  1  6  0  0  0
  8  4  1  0  0  0  0
  8 16  1  0  0  0  0
 10 11  1  0  0  0  0
 12 21  2  0  0  0  0
 13  2  1  0  0  0  0
 13 19  2  0  0  0  0
 14 18  2  0  0  0  0
 15  3  1  0  0  0  0
 16 15  1  0  0  0  0
 17 10  2  0  0  0  0
 19 17  1  0  0  0  0
 20  7  1  0  0  0  0
 20 10  1  0  0  0  0
 22 23  1  0  0  0  0
 23 25  1  0  0  0  0
 23 12  1  0  0  0  0
 24 23  1  0  0  0  0
M  END
>  <MODEL>
2

>  <REMARK>
 VINA RESULT:      -9.8      3.422      6.861
  Name = 
  1 active torsions:
  status: ('A' for Active; 'I' for Inactive)
    1  A    between atoms: C_7  and  C_15
                            x       y       z     vdW  Elec       q    Type
                         _______ _______ _______ _____ _____    ______ ____

>  <TORSDO>
F 1

$$$$
=
 OpenBabel10262419453D

 25 28  0  0  1  0  0  0  0  0999 V2000
  188.1840  177.7130  144.6670 C   0  0  0  0  0  0  0  0  0  0  0  0
  186.9200  178.0170  144.1670 C   0  0  0  0  0  0  0  0  0  0  0  0
  187.3850  177.8800  146.9280 C   0  0  0  0  0  3  0  0  0  0  0  0
  189.4810  177.5040  143.9720 C   0  0  1  0  0  3  0  0  0  0  0  0
  185.2550  178.4670  140.9290 N   0  0  0  0  0  2  0  0  0  0  0  0
  191.6930  175.7050  143.9310 N   0  0  0  0  0  0  0  0  0  0  0  0
  186.1390  178.1620  146.4460 N   0  0  0  0  0  0  0  0  0  0  0  0
  190.3540  177.2260  145.1660 C   0  0  2  0  0  3  0  0  0  0  0  0
  191.5970  176.4780  144.9770 C   0  0  0  0  0  3  0  0  0  0  0  0
  184.5990  178.5390  144.6210 C   0  0  0  0  0  0  0  0  0  0  0  0
  183.4590  178.7820  145.5490 C   0  0  0  0  0  1  0  0  0  0  0  0
  184.0390  178.7790  140.2340 C   0  0  0  0  0  0  0  0  0  0  0  0
  186.6800  178.1020  142.8330 N   0  0  0  0  0  0  0  0  0  0  0  0
  190.6010  175.5310  143.0010 C   0  0  0  0  0  3  0  0  0  0  0  0
  188.4170  177.6710  146.0160 C   0  0  0  0  0  0  0  0  0  0  0  0
  189.7590  177.3240  146.3150 N   0  0  0  0  0  2  0  0  0  0  0  0
  184.3830  178.6170  143.2430 C   0  0  0  0  0  3  0  0  0  0  0  0
  189.5170  176.3230  143.0380 C   0  0  0  0  0  3  0  0  0  0  0  0
  185.4420  178.3960  142.3480 C   0  0  0  0  0  0  0  0  0  0  0  0
  185.8810  178.2380  145.1020 C   0  0  0  0  0  0  0  0  0  0  0  0
  182.9920  179.0840  140.8660 O   0  0  0  0  0  0  0  0  0  0  0  0
  185.3270  178.9210  138.2630 F   0  0  0  0  0  0  0  0  0  0  0  0
  184.0340  178.8080  138.7390 C   0  0  0  0  0  0  0  0  0  0  0  0
  183.2940  179.8920  138.3050 F   0  0  0  0  0  0  0  0  0  0  0  0
  183.4720  177.6460  138.2410 F   0  0  0  0  0  0  0  0  0  0  0  0
  1 15  1  0  0  0  0
  2  1  2  0  0  0  0
  2 20  1  0  0  0  0
  4 18  1  6  0  0  0
  4  1  1  0  0  0  0
  4  8  1  0  0  0  0
  5 19  1  0  0  0  0
  6  9  2  0  0  0  0
  7  3  1  0  0  0  0
  8  9  1  6  0  0  0
  8 16  1  0  0  0  0
 10 20  1  0  0  0  0
 10 11  1  0  0  0  0
 12 21  2  0  0  0  0
 12  5  1  0  0  0  0
 13  2  1  0  0  0  0
 14 18  2  0  0  0  0
 14  6  1  0  0  0  0
 15 16  1  0  0  0  0
 15  3  2  0  0  0  0
 17 10  2  0  0  0  0
 19 13  2  0  0  0  0
 19 17  1  0  0  0  0
 20  7  2  0  0  0  0
 22 23  1  0  0  0  0
 23 12  1  0  0  0  0
 24 23  1  0  0  0  0
 25 23  1  0  0  0  0
M  END
>  <MODEL>
3

>  <REMARK>
 VINA RESULT:      -9.1      2.662      3.223
  Name = 
  1 active torsions:
  status: ('A' for Active; 'I' for Inactive)
    1  A    between atoms: C_7  and  C_15
                            x       y       z     vdW  Elec       q    Type
                         _______ _______ _______ _____ _____    ______ ____

>  <TORSDO>
F 1

$$$$
=
 OpenBabel10262419453D

 25 28  0  0  1  0  0  0  0  0999 V2000
  189.9560  177.6510  143.5570 C   0  0  0  0  0  0  0  0  0  0  0  0
  188.8430  177.7270  144.3910 C   0  0  0  0  0  0  0  0  0  0  0  0
  191.3640  177.0520  145.4120 C   0  0  0  0  0  3  0  0  0  0  0  0
  190.1150  177.9630  142.1140 C   0  0  1  0  0  3  0  0  0  0  0  0
  185.2620  178.4960  144.1670 N   0  0  0  0  0  2  0  0  0  0  0  0
  191.2460  176.8690  139.7350 N   0  0  0  0  0  0  0  0  0  0  0  0
  190.2730  177.1070  146.2330 N   0  0  0  0  0  0  0  0  0  0  0  0
  191.5770  177.6430  141.9540 C   0  0  2  0  0  3  0  0  0  0  0  0
  192.0900  177.3140  140.6250 C   0  0  0  0  0  3  0  0  0  0  0  0
  187.9190  177.4990  146.6180 C   0  0  0  0  0  0  0  0  0  0  0  0
  188.0430  177.2030  148.0730 C   0  0  0  0  0  1  0  0  0  0  0  0
  184.0150  178.6380  144.8630 C   0  0  0  0  0  0  0  0  0  0  0  0
  187.6160  178.0660  143.9160 N   0  0  0  0  0  0  0  0  0  0  0  0
  189.8520  176.6460  140.0420 C   0  0  0  0  0  3  0  0  0  0  0  0
  191.1940  177.3470  144.0610 C   0  0  0  0  0  0  0  0  0  0  0  0
  192.1850  177.3000  143.0490 N   0  0  0  0  0  2  0  0  0  0  0  0
  186.6700  177.8480  146.0990 C   0  0  0  0  0  3  0  0  0  0  0  0
  189.3060  177.0950  141.1860 C   0  0  0  0  0  3  0  0  0  0  0  0
  186.5290  178.1350  144.7320 C   0  0  0  0  0  0  0  0  0  0  0  0
  189.0280  177.4360  145.7630 C   0  0  0  0  0  0  0  0  0  0  0  0
  183.9530  178.4970  146.1150 O   0  0  0  0  0  0  0  0  0  0  0  0
  182.6500  180.4010  144.0960 F   0  0  0  0  0  0  0  0  0  0  0  0
  182.7880  179.0250  144.1020 C   0  0  0  0  0  0  0  0  0  0  0  0
  181.6800  178.4600  144.7040 F   0  0  0  0  0  0  0  0  0  0  0  0
  182.8750  178.5770  142.7960 F   0  0  0  0  0  0  0  0  0  0  0  0
  1 15  2  0  0  0  0
  1  2  1  0  0  0  0
  2 20  2  0  0  0  0
  3  7  2  0  0  0  0
  4 18  1  6  0  0  0
  4  1  1  0  0  0  0
  5 19  1  0  0  0  0
  5 12  1  0  0  0  0
  6 14  1  0  0  0  0
  6  9  2  0  0  0  0
  8  9  1  6  0  0  0
  8  4  1  0  0  0  0
  8 16  1  0  0  0  0
 10 11  1  0  0  0  0
 12 21  2  0  0  0  0
 13  2  1  0  0  0  0
 13 19  2  0  0  0  0
 14 18  2  0  0  0  0
 15  3  1  0  0  0  0
 16 15  1  0  0  0  0
 17 10  2  0  0  0  0
 19 17  1  0  0  0  0
 20  7  1  0  0  0  0
 20 10  1  0  0  0  0
 22 23  1  0  0  0  0
 23 24  1  0  0  0  0
 23 12  1  0  0  0  0
 25 23  1  0  0  0  0
M  END
>  <MODEL>
4

>  <REMARK>
 VINA RESULT:      -9.1      3.986      5.842
  Name = 
  1 active torsions:
  status: ('A' for Active; 'I' for Inactive)
    1  A    between atoms: C_7  and  C_15
                            x       y       z     vdW  Elec       q    Type
                         _______ _______ _______ _____ _____    ______ ____

>  <TORSDO>
F 1

$$$$
=
 OpenBabel10262419453D

 25 28  0  0  1  0  0  0  0  0999 V2000
  189.6080  177.3810  140.1610 C   0  0  0  0  0  0  0  0  0  0  0  0
  188.7920  177.6580  141.2550 C   0  0  0  0  0  0  0  0  0  0  0  0
  187.9450  178.2240  138.6440 C   0  0  0  0  0  3  0  0  0  0  0  0
  190.9310  176.7090  140.0790 C   0  0  1  0  0  3  0  0  0  0  0  0
  188.8510  177.3360  144.9100 N   0  0  0  0  0  2  0  0  0  0  0  0
  193.4950  177.0300  138.8720 N   0  0  0  0  0  0  0  0  0  0  0  0
  187.1460  178.5160  139.7120 N   0  0  0  0  0  0  0  0  0  0  0  0
  191.1510  176.7850  138.5920 C   0  0  2  0  0  3  0  0  0  0  0  0
  192.5160  176.7090  138.0730 C   0  0  0  0  0  3  0  0  0  0  0  0
  186.6970  178.5430  142.0870 C   0  0  0  0  0  0  0  0  0  0  0  0
  185.3570  179.1660  141.8910 C   0  0  0  0  0  1  0  0  0  0  0  0
  188.1520  177.5330  146.1470 C   0  0  0  0  0  0  0  0  0  0  0  0
  189.1800  177.3780  142.5260 N   0  0  0  0  0  0  0  0  0  0  0  0
  193.2640  177.5030  140.2190 C   0  0  0  0  0  3  0  0  0  0  0  0
  189.1840  177.6340  138.8830 C   0  0  0  0  0  0  0  0  0  0  0  0
  190.1680  177.3010  137.9190 N   0  0  0  0  0  2  0  0  0  0  0  0
  187.1250  178.2450  143.3830 C   0  0  0  0  0  3  0  0  0  0  0  0
  192.0500  177.4230  140.7900 C   0  0  0  0  0  3  0  0  0  0  0  0
  188.3810  177.6540  143.5930 C   0  0  0  0  0  0  0  0  0  0  0  0
  187.5310  178.2490  141.0000 C   0  0  0  0  0  0  0  0  0  0  0  0
  186.9740  177.9820  146.1600 O   0  0  0  0  0  0  0  0  0  0  0  0
  189.1780  178.2640  148.1400 F   0  0  0  0  0  0  0  0  0  0  0  0
  188.8050  177.1370  147.4320 C   0  0  0  0  0  0  0  0  0  0  0  0
  189.9280  176.3790  147.1590 F   0  0  0  0  0  0  0  0  0  0  0  0
  187.9300  176.3910  148.2020 F   0  0  0  0  0  0  0  0  0  0  0  0
  1  2  1  0  0  0  0
  2 13  1  0  0  0  0
  3 15  1  0  0  0  0
  3  7  2  0  0  0  0
  4  1  1  0  0  0  0
  4 18  1  1  0  0  0
  5 12  1  0  0  0  0
  6 14  1  0  0  0  0
  7 20  1  0  0  0  0
  8  9  1  1  0  0  0
  8  4  1  0  0  0  0
  9  6  2  0  0  0  0
 10 17  2  0  0  0  0
 11 10  1  0  0  0  0
 12 21  2  0  0  0  0
 12 23  1  0  0  0  0
 13 19  2  0  0  0  0
 14 18  2  0  0  0  0
 15  1  2  0  0  0  0
 16  8  1  0  0  0  0
 16 15  1  0  0  0  0
 17 19  1  0  0  0  0
 19  5  1  0  0  0  0
 20  2  2  0  0  0  0
 20 10  1  0  0  0  0
 23 22  1  0  0  0  0
 23 25  1  0  0  0  0
 24 23  1  0  0  0  0
M  END
>  <MODEL>
5

>  <REMARK>
 VINA RESULT:      -9.1      4.238      6.829
  Name = 
  1 active torsions:
  status: ('A' for Active; 'I' for Inactive)
    1  A    between atoms: C_7  and  C_15
                            x       y       z     vdW  Elec       q    Type
                         _______ _______ _______ _____ _____    ______ ____

>  <TORSDO>
F 1

$$$$
=
 OpenBabel10262419453D

 25 28  0  0  1  0  0  0  0  0999 V2000
  187.5850  177.6550  144.2230 C   0  0  0  0  0  0  0  0  0  0  0  0
  188.3250  177.6620  143.0430 C   0  0  0  0  0  0  0  0  0  0  0  0
  189.5810  177.3660  145.5310 C   0  0  0  0  0  3  0  0  0  0  0  0
  186.1180  177.6950  144.4520 C   0  0  1  0  0  3  0  0  0  0  0  0
  187.7710  177.9420  139.4270 N   0  0  0  0  0  2  0  0  0  0  0  0
  184.1750  179.0280  146.0590 N   0  0  0  0  0  0  0  0  0  0  0  0
  190.3160  177.3890  144.3800 N   0  0  0  0  0  0  0  0  0  0  0  0
  186.1050  177.6510  145.9570 C   0  0  2  0  0  3  0  0  0  0  0  0
  184.9370  178.1640  146.6710 C   0  0  0  0  0  3  0  0  0  0  0  0
  190.4950  177.5430  141.9740 C   0  0  0  0  0  0  0  0  0  0  0  0
  191.9790  177.4110  142.0120 C   0  0  0  0  0  1  0  0  0  0  0  0
  188.3570  177.9570  138.1170 C   0  0  0  0  0  0  0  0  0  0  0  0
  187.7320  177.7900  141.8280 N   0  0  0  0  0  0  0  0  0  0  0  0
  184.4810  179.5220  144.7360 C   0  0  0  0  0  3  0  0  0  0  0  0
  188.1970  177.4840  145.4370 C   0  0  0  0  0  0  0  0  0  0  0  0
  187.2720  177.5280  146.5110 N   0  0  0  0  0  2  0  0  0  0  0  0
  189.8560  177.6780  140.7390 C   0  0  0  0  0  3  0  0  0  0  0  0
  185.4370  178.9530  143.9810 C   0  0  0  0  0  3  0  0  0  0  0  0
  188.4590  177.8000  140.6770 C   0  0  0  0  0  0  0  0  0  0  0  0
  189.7300  177.5310  143.1480 C   0  0  0  0  0  0  0  0  0  0  0  0
  189.5960  177.7830  137.9600 O   0  0  0  0  0  0  0  0  0  0  0  0
  186.1890  177.7100  137.2230 F   0  0  0  0  0  0  0  0  0  0  0  0
  187.4760  178.1140  136.9200 C   0  0  0  0  0  0  0  0  0  0  0  0
  187.9650  177.3370  135.8870 F   0  0  0  0  0  0  0  0  0  0  0  0
  187.4470  179.4380  136.5180 F   0  0  0  0  0  0  0  0  0  0  0  0
  1  4  1  0  0  0  0
  1 15  1  0  0  0  0
  2 20  1  0  0  0  0
  2  1  2  0  0  0  0
  4 18  1  1  0  0  0
  4  8  1  0  0  0  0
  5 19  1  0  0  0  0
  6  9  2  0  0  0  0
  7  3  1  0  0  0  0
  8 16  1  0  0  0  0
  8  9  1  1  0  0  0
 10 11  1  0  0  0  0
 10 20  1  0  0  0  0
 12  5  1  0  0  0  0
 13  2  1  0  0  0  0
 14  6  1  0  0  0  0
 15  3  2  0  0  0  0
 15 16  1  0  0  0  0
 17 10  2  0  0  0  0
 18 14  2  0  0  0  0
 19 17  1  0  0  0  0
 19 13  2  0  0  0  0
 20  7  2  0  0  0  0
 21 12  2  0  0  0  0
 23 22  1  0  0  0  0
 23 12  1  0  0  0  0
 24 23  1  0  0  0  0
 25 23  1  0  0  0  0
M  END
>  <MODEL>
6

>  <REMARK>
 VINA RESULT:      -9.1      1.982      4.325
  Name = 
  1 active torsions:
  status: ('A' for Active; 'I' for Inactive)
    1  A    between atoms: C_7  and  C_15
                            x       y       z     vdW  Elec       q    Type
                         _______ _______ _______ _____ _____    ______ ____

>  <TORSDO>
F 1

$$$$
=
 OpenBabel10262419453D

 25 28  0  0  1  0  0  0  0  0999 V2000
  187.0100  177.7410  144.5910 C   0  0  0  0  0  0  0  0  0  0  0  0
  186.0280  178.0830  143.6640 C   0  0  0  0  0  0  0  0  0  0  0  0
  188.6880  177.6930  142.8700 C   0  0  0  0  0  3  0  0  0  0  0  0
  186.9140  177.4310  146.0410 C   0  0  1  0  0  3  0  0  0  0  0  0
  182.4260  178.7770  143.5710 N   0  0  0  0  0  2  0  0  0  0  0  0
  188.1820  178.0610  148.5160 N   0  0  0  0  0  0  0  0  0  0  0  0
  187.7340  178.0450  141.9570 N   0  0  0  0  0  0  0  0  0  0  0  0
  188.3660  177.1600  146.3280 C   0  0  2  0  0  3  0  0  0  0  0  0
  188.8560  177.2990  147.6990 C   0  0  0  0  0  3  0  0  0  0  0  0
  185.4550  178.5920  141.3670 C   0  0  0  0  0  0  0  0  0  0  0  0
  185.8040  178.7770  139.9300 C   0  0  0  0  0  1  0  0  0  0  0  0
  181.2860  179.1140  142.7680 C   0  0  0  0  0  0  0  0  0  0  0  0
  184.7320  178.2620  144.0280 N   0  0  0  0  0  0  0  0  0  0  0  0
  187.0160  178.8020  148.0920 C   0  0  0  0  0  3  0  0  0  0  0  0
  188.3050  177.5250  144.1980 C   0  0  0  0  0  0  0  0  0  0  0  0
  189.1480  177.2080  145.2930 N   0  0  0  0  0  2  0  0  0  0  0  0
  184.1300  178.7720  141.7730 C   0  0  0  0  0  3  0  0  0  0  0  0
  186.4360  178.5710  146.9020 C   0  0  0  0  0  3  0  0  0  0  0  0
  183.7760  178.6000  143.1210 C   0  0  0  0  0  0  0  0  0  0  0  0
  186.4250  178.2410  142.3150 C   0  0  0  0  0  0  0  0  0  0  0  0
  181.3870  179.2340  141.5180 O   0  0  0  0  0  0  0  0  0  0  0  0
  179.5640  180.5850  143.4260 F   0  0  0  0  0  0  0  0  0  0  0  0
  179.9460  179.2560  143.4180 C   0  0  0  0  0  0  0  0  0  0  0  0
  180.0170  178.7950  144.7180 F   0  0  0  0  0  0  0  0  0  0  0  0
  179.0000  178.5210  142.7260 F   0  0  0  0  0  0  0  0  0  0  0  0
  1  4  1  0  0  0  0
  2 13  1  0  0  0  0
  2  1  2  0  0  0  0
  3 15  2  0  0  0  0
  4  8  1  0  0  0  0
  4 18  1  1  0  0  0
  7 20  2  0  0  0  0
  7  3  1  0  0  0  0
  8  9  1  1  0  0  0
  9  6  2  0  0  0  0
 10 17  2  0  0  0  0
 10 20  1  0  0  0  0
 11 10  1  0  0  0  0
 12 23  1  0  0  0  0
 12  5  1  0  0  0  0
 14  6  1  0  0  0  0
 15  1  1  0  0  0  0
 15 16  1  0  0  0  0
 16  8  1  0  0  0  0
 17 19  1  0  0  0  0
 18 14  2  0  0  0  0
 19  5  1  0  0  0  0
 19 13  2  0  0  0  0
 20  2  1  0  0  0  0
 21 12  2  0  0  0  0
 23 22  1  0  0  0  0
 23 24  1  0  0  0  0
 25 23  1  0  0  0  0
M  END
>  <MODEL>
7

>  <REMARK>
 VINA RESULT:      -8.9      4.611      6.056
  Name = 
  1 active torsions:
  status: ('A' for Active; 'I' for Inactive)
    1  A    between atoms: C_7  and  C_15
                            x       y       z     vdW  Elec       q    Type
                         _______ _______ _______ _____ _____    ______ ____

>  <TORSDO>
F 1

$$$$
=
 OpenBabel10262419453D

 25 28  0  0  1  0  0  0  0  0999 V2000
  186.9780  178.3820  141.2260 C   0  0  0  0  0  0  0  0  0  0  0  0
  187.8980  178.0270  142.2090 C   0  0  0  0  0  0  0  0  0  0  0  0
  188.5140  177.7430  139.4900 C   0  0  0  0  0  3  0  0  0  0  0  0
  185.6390  179.0170  141.3290 C   0  0  1  0  0  3  0  0  0  0  0  0
  188.1680  177.9940  145.8690 N   0  0  0  0  0  2  0  0  0  0  0  0
  182.9830  178.7310  140.3310 N   0  0  0  0  0  0  0  0  0  0  0  0
  189.4150  177.3760  140.4490 N   0  0  0  0  0  0  0  0  0  0  0  0
  185.2850  179.0770  139.8680 C   0  0  2  0  0  3  0  0  0  0  0  0
  183.8770  179.1590  139.4820 C   0  0  0  0  0  3  0  0  0  0  0  0
  190.0810  177.1340  142.7600 C   0  0  0  0  0  0  0  0  0  0  0  0
  191.4110  176.5760  142.3840 C   0  0  0  0  0  1  0  0  0  0  0  0
  188.9830  177.7010  147.0130 C   0  0  0  0  0  0  0  0  0  0  0  0
  187.6230  178.1710  143.5320 N   0  0  0  0  0  0  0  0  0  0  0  0
  183.3470  178.1390  141.5970 C   0  0  0  0  0  3  0  0  0  0  0  0
  187.2890  178.2670  139.8960 C   0  0  0  0  0  0  0  0  0  0  0  0
  186.2130  178.6600  139.0610 N   0  0  0  0  0  2  0  0  0  0  0  0
  189.7670  177.2920  144.1120 C   0  0  0  0  0  3  0  0  0  0  0  0
  184.6070  178.2020  142.0630 C   0  0  0  0  0  3  0  0  0  0  0  0
  188.5230  177.8200  144.4910 C   0  0  0  0  0  0  0  0  0  0  0  0
  189.1430  177.5040  141.7860 C   0  0  0  0  0  0  0  0  0  0  0  0
  190.1670  177.2910  146.8760 O   0  0  0  0  0  0  0  0  0  0  0  0
  189.4570  178.3630  149.2260 F   0  0  0  0  0  0  0  0  0  0  0  0
  188.4410  177.9510  148.3840 C   0  0  0  0  0  0  0  0  0  0  0  0
  187.8880  176.7840  148.8770 F   0  0  0  0  0  0  0  0  0  0  0  0
  187.4670  178.9330  148.3410 F   0  0  0  0  0  0  0  0  0  0  0  0
  1  4  1  0  0  0  0
  1  2  1  0  0  0  0
  2 13  1  0  0  0  0
  3 15  1  0  0  0  0
  3  7  2  0  0  0  0
  4 18  1  1  0  0  0
  5 12  1  0  0  0  0
  6 14  1  0  0  0  0
  7 20  1  0  0  0  0
  8  9  1  1  0  0  0
  8  4  1  0  0  0  0
  9  6  2  0  0  0  0
 10 17  2  0  0  0  0
 11 10  1  0  0  0  0
 12 23  1  0  0  0  0
 13 19  2  0  0  0  0
 14 18  2  0  0  0  0
 15  1  2  0  0  0  0
 16  8  1  0  0  0  0
 16 15  1  0  0  0  0
 17 19  1  0  0  0  0
 19  5  1  0  0  0  0
 20  2  2  0  0  0  0
 20 10  1  0  0  0  0
 21 12  2  0  0  0  0
 23 24  1  0  0  0  0
 23 22  1  0  0  0  0
 25 23  1  0  0  0  0
M  END
>  <MODEL>
8

>  <REMARK>
 VINA RESULT:      -8.9      4.524      7.889
  Name = 
  1 active torsions:
  status: ('A' for Active; 'I' for Inactive)
    1  A    between atoms: C_7  and  C_15
                            x       y       z     vdW  Elec       q    Type
                         _______ _______ _______ _____ _____    ______ ____

>  <TORSDO>
F 1

$$$$
=
 OpenBabel10262419453D

 25 28  0  0  1  0  0  0  0  0999 V2000
  185.5400  178.6270  144.3950 C   0  0  0  0  0  0  0  0  0  0  0  0
  185.3830  178.6200  143.0100 C   0  0  0  0  0  0  0  0  0  0  0  0
  183.1580  178.6910  144.7120 C   0  0  0  0  0  3  0  0  0  0  0  0
  186.7630  178.6930  145.2350 C   0  0  1  0  0  3  0  0  0  0  0  0
  187.4620  178.5640  139.9870 N   0  0  0  0  0  2  0  0  0  0  0  0
  187.9410  177.4410  147.5110 N   0  0  0  0  0  0  0  0  0  0  0  0
  182.9950  178.6660  143.3560 N   0  0  0  0  0  0  0  0  0  0  0  0
  186.1230  178.6630  146.5970 C   0  0  2  0  0  3  0  0  0  0  0  0
  186.9130  178.2100  147.7420 C   0  0  0  0  0  3  0  0  0  0  0  0
  183.8840  178.6180  141.1090 C   0  0  0  0  0  0  0  0  0  0  0  0
  182.5220  178.6290  140.5020 C   0  0  0  0  0  1  0  0  0  0  0  0
  187.5010  178.5670  138.5530 C   0  0  0  0  0  0  0  0  0  0  0  0
  186.4510  178.5990  142.1700 N   0  0  0  0  0  0  0  0  0  0  0  0
  188.2810  176.9910  146.1810 C   0  0  0  0  0  3  0  0  0  0  0  0
  184.4520  178.6880  145.2260 C   0  0  0  0  0  0  0  0  0  0  0  0
  184.8250  178.6650  146.5930 N   0  0  0  0  0  2  0  0  0  0  0  0
  185.0010  178.5950  140.2710 C   0  0  0  0  0  3  0  0  0  0  0  0
  187.6940  177.5180  145.0920 C   0  0  0  0  0  3  0  0  0  0  0  0
  186.2940  178.5880  140.8180 C   0  0  0  0  0  0  0  0  0  0  0  0
  184.0640  178.6330  142.4980 C   0  0  0  0  0  0  0  0  0  0  0  0
  186.4400  178.6500  137.8770 O   0  0  0  0  0  0  0  0  0  0  0  0
  188.8330  177.5360  136.9020 F   0  0  0  0  0  0  0  0  0  0  0  0
  188.8220  178.5400  137.8530 C   0  0  0  0  0  0  0  0  0  0  0  0
  189.8230  178.3040  138.7760 F   0  0  0  0  0  0  0  0  0  0  0  0
  189.0560  179.7530  137.2280 F   0  0  0  0  0  0  0  0  0  0  0  0
  1 15  1  0  0  0  0
  1  4  1  0  0  0  0
  2  1  2  0  0  0  0
  3 15  2  0  0  0  0
  4 18  1  1  0  0  0
  4  8  1  0  0  0  0
  5 19  1  0  0  0  0
  6  9  2  0  0  0  0
  7  3  1  0  0  0  0
  8  9  1  6  0  0  0
 10 20  1  0  0  0  0
 11 10  1  0  0  0  0
 12  5  1  0  0  0  0
 13  2  1  0  0  0  0
 14  6  1  0  0  0  0
 15 16  1  0  0  0  0
 16  8  1  0  0  0  0
 17 19  1  0  0  0  0
 17 10  2  0  0  0  0
 18 14  2  0  0  0  0
 19 13  2  0  0  0  0
 20  2  1  0  0  0  0
 20  7  2  0  0  0  0
 21 12  2  0  0  0  0
 22 23  1  0  0  0  0
 23 12  1  0  0  0  0
 23 24  1  0  0  0  0
 25 23  1  0  0  0  0
M  END
>  <MODEL>
9

>  <REMARK>
 VINA RESULT:      -8.9      2.090      3.359
  Name = 
  1 active torsions:
  status: ('A' for Active; 'I' for Inactive)
    1  A    between atoms: C_7  and  C_15
                            x       y       z     vdW  Elec       q    Type
                         _______ _______ _______ _____ _____    ______ ____

>  <TORSDO>
F 1

$$$$
