=
 OpenBabel10262421523D

 30 30  0  0  1  0  0  0  0  0999 V2000
  184.4070  178.7220  143.0260 C   0  0  0  0  0  2  0  0  0  0  0  0
  183.9550  178.3700  141.6180 C   0  0  0  0  0  2  0  0  0  0  0  0
  185.8770  179.6860  141.0800 O   0  0  0  0  0  1  0  0  0  0  0  0
  185.0840  178.6240  140.6350 C   0  0  2  0  0  3  0  0  0  0  0  0
  184.5370  178.8890  139.2210 C   0  0  2  0  0  3  0  0  0  0  0  0
  182.5200  180.3070  138.7240 C   0  0  0  0  0  1  0  0  0  0  0  0
  183.0050  178.9540  139.2170 C   0  0  0  0  0  3  0  0  0  0  0  0
  182.4160  177.8860  138.3080 C   0  0  0  0  0  1  0  0  0  0  0  0
  185.0420  177.8400  138.2250 C   0  0  0  0  0  2  0  0  0  0  0  0
  186.3550  177.8320  136.2320 O   0  0  0  0  0  1  0  0  0  0  0  0
  186.3220  178.3070  137.5440 C   0  0  2  0  0  3  0  0  0  0  0  0
  188.9520  179.6510  137.4630 O   0  0  0  0  0  0  0  0  0  0  0  0
  187.5020  177.8440  138.2720 N   0  0  0  0  0  2  0  0  0  0  0  0
  188.7740  178.4990  138.2220 C   0  0  0  0  0  0  0  0  0  0  0  0
  189.7430  178.0280  138.8740 O   0  0  0  0  0  1  0  0  0  0  0  0
  183.2120  178.8480  143.9480 C   0  0  0  0  0  2  0  0  0  0  0  0
  183.6360  178.8580  145.4070 C   0  0  0  0  0  2  0  0  0  0  0  0
  185.1160  179.1820  145.5050 C   0  0  0  0  0  2  0  0  0  0  0  0
  185.5850  178.9450  146.8640 N   0  0  0  0  0  2  0  0  0  0  0  0
  186.9660  178.4950  146.7750 C   0  0  1  0  0  3  0  0  0  0  0  0
  187.4400  178.0600  148.1460 C   0  0  0  0  0  1  0  0  0  0  0  0
  187.0650  177.3130  145.8180 C   0  0  0  0  0  2  0  0  0  0  0  0
  190.0650  177.7170  142.7700 C   0  0  1  0  0  3  0  0  0  0  0  0
  188.0900  177.4950  141.4570 F   0  0  0  0  0  0  0  0  0  0  0  0
  191.0960  177.4660  141.8630 O   0  0  0  0  0  1  0  0  0  0  0  0
  188.0380  177.6070  144.6880 C   0  0  2  0  0  3  0  0  0  0  0  0
  188.8450  176.8510  142.4190 C   0  0  2  0  0  3  0  0  0  0  0  0
  190.5530  177.4490  144.1890 C   0  0  0  0  0  2  0  0  0  0  0  0
  187.9640  176.5120  143.6290 C   0  0  0  0  0  2  0  0  0  0  0  0
  189.4690  177.7620  145.2290 C   0  0  0  0  0  2  0  0  0  0  0  0
  1 16  1  0  0  0  0
  2  1  1  0  0  0  0
  4  3  1  1  0  0  0
  4  2  1  0  0  0  0
  5  9  1  6  0  0  0
  5  4  1  0  0  0  0
  6  7  1  0  0  0  0
  7  5  1  0  0  0  0
  8  7  1  0  0  0  0
 11 10  1  6  0  0  0
 11  9  1  0  0  0  0
 11 13  1  0  0  0  0
 12 14  2  0  0  0  0
 14 13  1  0  0  0  0
 14 15  1  0  0  0  0
 16 17  1  0  0  0  0
 17 18  1  0  0  0  0
 18 19  1  0  0  0  0
 20 19  1  0  0  0  0
 20 21  1  1  0  0  0
 22 20  1  0  0  0  0
 23 25  1  6  0  0  0
 23 28  1  0  0  0  0
 26 30  1  0  0  0  0
 26 22  1  1  0  0  0
 27 24  1  6  0  0  0
 27 23  1  0  0  0  0
 27 29  1  0  0  0  0
 28 30  1  0  0  0  0
 29 26  1  0  0  0  0
M  END
>  <MODEL>
1

>  <REMARK>
 VINA RESULT:      -7.3      0.000      0.000
  Name = 
  14 active torsions:
  status: ('A' for Active; 'I' for Inactive)
    1  A    between atoms: C_3  and  C_11
    2  A    between atoms: C_3  and  C_19
    3  A    between atoms: C_4  and  C_13
    4  A    between atoms: C_7  and  C_16
    5  A    between atoms: C_7  and  C_30
    6  A    between atoms: C_8  and  C_12
    7  A    between atoms: C_8  and  C_13
    8  A    between atoms: N_9  and  C_12
    9  A    between atoms: C_10  and  C_15
   10  A    between atoms: C_10  and  N_25
   11  A    between atoms: C_11  and  N_25
   12  A    between atoms: C_13  and  C_30
   13  A    between atoms: C_15  and  C_26
   14  A    between atoms: C_16  and  C_26
                            x       y       z     vdW  Elec       q    Type
                         _______ _______ _______ _____ _____    ______ ____

>  <TORSDO>
F 14

$$$$
=
 OpenBabel10262421523D

 30 30  0  0  1  0  0  0  0  0999 V2000
  189.8320  176.9400  140.0650 C   0  0  0  0  0  2  0  0  0  0  0  0
  188.7700  177.9850  139.7630 C   0  0  0  0  0  2  0  0  0  0  0  0
  188.5410  179.2630  137.7560 O   0  0  0  0  0  1  0  0  0  0  0  0
  188.4400  177.9720  138.2810 C   0  0  2  0  0  3  0  0  0  0  0  0
  187.0440  177.3740  138.0310 C   0  0  2  0  0  3  0  0  0  0  0  0
  186.6520  177.1210  135.5590 C   0  0  0  0  0  1  0  0  0  0  0  0
  187.0540  176.4080  136.8390 C   0  0  0  0  0  3  0  0  0  0  0  0
  188.4410  175.8170  136.6310 C   0  0  0  0  0  1  0  0  0  0  0  0
  185.9960  178.4740  137.8350 C   0  0  0  0  0  2  0  0  0  0  0  0
  183.6990  178.7890  138.4030 O   0  0  0  0  0  1  0  0  0  0  0  0
  184.9380  178.4200  138.9290 C   0  0  2  0  0  3  0  0  0  0  0  0
  184.3040  177.8540  141.7600 O   0  0  0  0  0  0  0  0  0  0  0  0
  185.2900  179.3030  140.0410 N   0  0  0  0  0  2  0  0  0  0  0  0
  184.9730  179.0220  141.4090 C   0  0  0  0  0  0  0  0  0  0  0  0
  185.3060  179.8410  142.3060 O   0  0  0  0  0  1  0  0  0  0  0  0
  190.8070  177.4620  141.1010 C   0  0  0  0  0  2  0  0  0  0  0  0
  190.1260  177.6780  142.4420 C   0  0  0  0  0  2  0  0  0  0  0  0
  191.0410  178.4750  143.3550 C   0  0  0  0  0  2  0  0  0  0  0  0
  190.4570  178.5620  144.6860 N   0  0  0  0  0  2  0  0  0  0  0  0
  190.2530  177.2010  145.1610 C   0  0  1  0  0  3  0  0  0  0  0  0
  191.5930  176.5880  145.5150 C   0  0  0  0  0  1  0  0  0  0  0  0
  189.3680  177.2110  146.4010 C   0  0  0  0  0  2  0  0  0  0  0  0
  185.4750  178.8960  145.7290 C   0  0  1  0  0  3  0  0  0  0  0  0
  186.1700  180.0840  147.6730 F   0  0  0  0  0  0  0  0  0  0  0  0
  184.0950  179.1080  145.6860 O   0  0  0  0  0  1  0  0  0  0  0  0
  188.0760  177.9670  146.1430 C   0  0  2  0  0  3  0  0  0  0  0  0
  185.9400  178.8090  147.1910 C   0  0  2  0  0  3  0  0  0  0  0  0
  185.8240  177.6310  144.9530 C   0  0  0  0  0  2  0  0  0  0  0  0
  187.1930  177.9460  147.3860 C   0  0  0  0  0  2  0  0  0  0  0  0
  187.3380  177.3830  144.9270 C   0  0  0  0  0  2  0  0  0  0  0  0
  1 16  1  0  0  0  0
  2  1  1  0  0  0  0
  4  3  1  1  0  0  0
  4  2  1  0  0  0  0
  5  9  1  6  0  0  0
  5  4  1  0  0  0  0
  6  7  1  0  0  0  0
  7  5  1  0  0  0  0
  8  7  1  0  0  0  0
  9 11  1  0  0  0  0
 11 10  1  6  0  0  0
 11 13  1  0  0  0  0
 13 14  1  0  0  0  0
 14 12  2  0  0  0  0
 14 15  1  0  0  0  0
 16 17  1  0  0  0  0
 17 18  1  0  0  0  0
 18 19  1  0  0  0  0
 19 20  1  0  0  0  0
 20 21  1  1  0  0  0
 20 22  1  0  0  0  0
 23 25  1  1  0  0  0
 23 27  1  0  0  0  0
 26 22  1  1  0  0  0
 26 29  1  0  0  0  0
 27 29  1  0  0  0  0
 27 24  1  6  0  0  0
 28 23  1  0  0  0  0
 30 28  1  0  0  0  0
 30 26  1  0  0  0  0
M  END
>  <MODEL>
2

>  <REMARK>
 VINA RESULT:      -7.1      2.481      5.223
  Name = 
  14 active torsions:
  status: ('A' for Active; 'I' for Inactive)
    1  A    between atoms: C_3  and  C_11
    2  A    between atoms: C_3  and  C_19
    3  A    between atoms: C_4  and  C_13
    4  A    between atoms: C_7  and  C_16
    5  A    between atoms: C_7  and  C_30
    6  A    between atoms: C_8  and  C_12
    7  A    between atoms: C_8  and  C_13
    8  A    between atoms: N_9  and  C_12
    9  A    between atoms: C_10  and  C_15
   10  A    between atoms: C_10  and  N_25
   11  A    between atoms: C_11  and  N_25
   12  A    between atoms: C_13  and  C_30
   13  A    between atoms: C_15  and  C_26
   14  A    between atoms: C_16  and  C_26
                            x       y       z     vdW  Elec       q    Type
                         _______ _______ _______ _____ _____    ______ ____

>  <TORSDO>
F 14

$$$$
=
 OpenBabel10262421523D

 30 30  0  0  1  0  0  0  0  0999 V2000
  188.0490  178.7830  141.1150 C   0  0  0  0  0  2  0  0  0  0  0  0
  188.8710  177.5730  140.7000 C   0  0  0  0  0  2  0  0  0  0  0  0
  189.1540  179.0660  138.8540 O   0  0  0  0  0  1  0  0  0  0  0  0
  189.3670  177.7500  139.2760 C   0  0  2  0  0  3  0  0  0  0  0  0
  188.6930  176.7430  138.3260 C   0  0  2  0  0  3  0  0  0  0  0  0
  189.6530  175.8970  136.1600 C   0  0  0  0  0  1  0  0  0  0  0  0
  189.7250  175.8130  137.6750 C   0  0  0  0  0  3  0  0  0  0  0  0
  191.1380  176.1860  138.1000 C   0  0  0  0  0  1  0  0  0  0  0  0
  187.8540  177.4580  137.2630 C   0  0  0  0  0  2  0  0  0  0  0  0
  185.6460  176.9640  136.5020 O   0  0  0  0  0  1  0  0  0  0  0  0
  186.3720  177.4030  137.6100 C   0  0  2  0  0  3  0  0  0  0  0  0
  183.7960  177.8470  138.9880 O   0  0  0  0  0  0  0  0  0  0  0  0
  185.8860  178.7140  138.0370 N   0  0  0  0  0  2  0  0  0  0  0  0
  184.6320  178.9200  138.7000 C   0  0  0  0  0  0  0  0  0  0  0  0
  184.2850  180.0850  139.0260 O   0  0  0  0  0  1  0  0  0  0  0  0
  186.9180  178.3630  142.0310 C   0  0  0  0  0  2  0  0  0  0  0  0
  185.7230  179.2930  141.8980 C   0  0  0  0  0  2  0  0  0  0  0  0
  184.9270  179.2890  143.1910 C   0  0  0  0  0  2  0  0  0  0  0  0
  185.2330  178.0880  143.9560 N   0  0  0  0  0  2  0  0  0  0  0  0
  185.5540  178.5070  145.3120 C   0  0  1  0  0  3  0  0  0  0  0  0
  184.2720  178.7980  146.0640 C   0  0  0  0  0  1  0  0  0  0  0  0
  186.3110  177.3970  146.0320 C   0  0  0  0  0  2  0  0  0  0  0  0
  190.6030  177.5480  145.9450 C   0  0  1  0  0  3  0  0  0  0  0  0
  190.0640  178.2310  143.7270 F   0  0  0  0  0  0  0  0  0  0  0  0
  191.9540  177.2060  145.8680 O   0  0  0  0  0  1  0  0  0  0  0  0
  187.8110  177.6290  145.9660 C   0  0  2  0  0  3  0  0  0  0  0  0
  189.9030  177.1910  144.6230 C   0  0  2  0  0  3  0  0  0  0  0  0
  189.9600  176.8350  147.1300 C   0  0  0  0  0  2  0  0  0  0  0  0
  188.4110  176.8720  144.7860 C   0  0  0  0  0  2  0  0  0  0  0  0
  188.4830  177.2200  147.2880 C   0  0  0  0  0  2  0  0  0  0  0  0
  1 16  1  0  0  0  0
  2  1  1  0  0  0  0
  4  3  1  6  0  0  0
  4  2  1  0  0  0  0
  5  9  1  6  0  0  0
  5  4  1  0  0  0  0
  6  7  1  0  0  0  0
  7  8  1  0  0  0  0
  7  5  1  0  0  0  0
  9 11  1  0  0  0  0
 11 10  1  6  0  0  0
 11 13  1  0  0  0  0
 13 14  1  0  0  0  0
 14 12  2  0  0  0  0
 14 15  1  0  0  0  0
 17 16  1  0  0  0  0
 17 18  1  0  0  0  0
 18 19  1  0  0  0  0
 19 20  1  0  0  0  0
 20 22  1  0  0  0  0
 20 21  1  1  0  0  0
 23 25  1  6  0  0  0
 23 28  1  0  0  0  0
 26 22  1  1  0  0  0
 26 30  1  0  0  0  0
 27 24  1  6  0  0  0
 27 29  1  0  0  0  0
 27 23  1  0  0  0  0
 28 30  1  0  0  0  0
 29 26  1  0  0  0  0
M  END
>  <MODEL>
3

>  <REMARK>
 VINA RESULT:      -6.9      2.101      4.258
  Name = 
  14 active torsions:
  status: ('A' for Active; 'I' for Inactive)
    1  A    between atoms: C_3  and  C_11
    2  A    between atoms: C_3  and  C_19
    3  A    between atoms: C_4  and  C_13
    4  A    between atoms: C_7  and  C_16
    5  A    between atoms: C_7  and  C_30
    6  A    between atoms: C_8  and  C_12
    7  A    between atoms: C_8  and  C_13
    8  A    between atoms: N_9  and  C_12
    9  A    between atoms: C_10  and  C_15
   10  A    between atoms: C_10  and  N_25
   11  A    between atoms: C_11  and  N_25
   12  A    between atoms: C_13  and  C_30
   13  A    between atoms: C_15  and  C_26
   14  A    between atoms: C_16  and  C_26
                            x       y       z     vdW  Elec       q    Type
                         _______ _______ _______ _____ _____    ______ ____

>  <TORSDO>
F 14

$$$$
=
 OpenBabel10262421523D

 30 30  0  0  1  0  0  0  0  0999 V2000
  184.1570  178.0440  141.5990 C   0  0  0  0  0  2  0  0  0  0  0  0
  183.4030  178.5800  140.3930 C   0  0  0  0  0  2  0  0  0  0  0  0
  184.2720  180.4290  139.1520 O   0  0  0  0  0  1  0  0  0  0  0  0
  184.3870  179.0490  139.3360 C   0  0  2  0  0  3  0  0  0  0  0  0
  184.1800  178.2900  138.0120 C   0  0  2  0  0  3  0  0  0  0  0  0
  181.8510  178.3030  137.0600 C   0  0  0  0  0  1  0  0  0  0  0  0
  182.8190  177.5810  137.9820 C   0  0  0  0  0  3  0  0  0  0  0  0
  182.9630  176.1510  137.4830 C   0  0  0  0  0  1  0  0  0  0  0  0
  185.3190  177.2990  137.7560 C   0  0  0  0  0  2  0  0  0  0  0  0
  186.8380  177.7260  135.9650 O   0  0  0  0  0  1  0  0  0  0  0  0
  186.5800  178.0230  137.3040 C   0  0  2  0  0  3  0  0  0  0  0  0
  188.9920  179.6930  137.6580 O   0  0  0  0  0  0  0  0  0  0  0  0
  187.7260  177.6430  138.1280 N   0  0  0  0  0  2  0  0  0  0  0  0
  188.8930  178.4580  138.2900 C   0  0  0  0  0  0  0  0  0  0  0  0
  189.8410  178.0500  139.0120 O   0  0  0  0  0  1  0  0  0  0  0  0
  184.2760  179.1140  142.6650 C   0  0  0  0  0  2  0  0  0  0  0  0
  183.2590  178.9070  143.7740 C   0  0  0  0  0  2  0  0  0  0  0  0
  183.9640  178.9020  145.1190 C   0  0  0  0  0  2  0  0  0  0  0  0
  185.3000  179.4660  144.9780 N   0  0  0  0  0  2  0  0  0  0  0  0
  186.1980  178.6620  145.7940 C   0  0  1  0  0  3  0  0  0  0  0  0
  185.6260  178.5340  147.1910 C   0  0  0  0  0  1  0  0  0  0  0  0
  186.3450  177.2720  145.1880 C   0  0  0  0  0  2  0  0  0  0  0  0
  190.0850  177.3650  143.0760 C   0  0  1  0  0  3  0  0  0  0  0  0
  190.7890  176.6800  145.2460 F   0  0  0  0  0  0  0  0  0  0  0  0
  191.2660  177.7830  142.4600 O   0  0  0  0  0  1  0  0  0  0  0  0
  187.6810  177.1260  144.4760 C   0  0  2  0  0  3  0  0  0  0  0  0
  190.1370  177.6980  144.5750 C   0  0  2  0  0  3  0  0  0  0  0  0
  188.8900  178.0250  142.3960 C   0  0  0  0  0  2  0  0  0  0  0  0
  188.7550  177.9300  145.2010 C   0  0  0  0  0  2  0  0  0  0  0  0
  187.5620  177.5560  143.0050 C   0  0  0  0  0  2  0  0  0  0  0  0
  1 16  1  0  0  0  0
  2  1  1  0  0  0  0
  4  3  1  6  0  0  0
  4  2  1  0  0  0  0
  5  9  1  1  0  0  0
  5  4  1  0  0  0  0
  6  7  1  0  0  0  0
  7  5  1  0  0  0  0
  8  7  1  0  0  0  0
 11 10  1  6  0  0  0
 11  9  1  0  0  0  0
 11 13  1  0  0  0  0
 12 14  2  0  0  0  0
 13 14  1  0  0  0  0
 14 15  1  0  0  0  0
 16 17  1  0  0  0  0
 17 18  1  0  0  0  0
 19 18  1  0  0  0  0
 19 20  1  0  0  0  0
 20 21  1  1  0  0  0
 22 20  1  0  0  0  0
 23 25  1  6  0  0  0
 23 27  1  0  0  0  0
 26 22  1  1  0  0  0
 26 29  1  0  0  0  0
 27 29  1  0  0  0  0
 27 24  1  1  0  0  0
 28 30  1  0  0  0  0
 28 23  1  0  0  0  0
 30 26  1  0  0  0  0
M  END
>  <MODEL>
4

>  <REMARK>
 VINA RESULT:      -6.9      1.387      1.826
  Name = 
  14 active torsions:
  status: ('A' for Active; 'I' for Inactive)
    1  A    between atoms: C_3  and  C_11
    2  A    between atoms: C_3  and  C_19
    3  A    between atoms: C_4  and  C_13
    4  A    between atoms: C_7  and  C_16
    5  A    between atoms: C_7  and  C_30
    6  A    between atoms: C_8  and  C_12
    7  A    between atoms: C_8  and  C_13
    8  A    between atoms: N_9  and  C_12
    9  A    between atoms: C_10  and  C_15
   10  A    between atoms: C_10  and  N_25
   11  A    between atoms: C_11  and  N_25
   12  A    between atoms: C_13  and  C_30
   13  A    between atoms: C_15  and  C_26
   14  A    between atoms: C_16  and  C_26
                            x       y       z     vdW  Elec       q    Type
                         _______ _______ _______ _____ _____    ______ ____

>  <TORSDO>
F 14

$$$$
=
 OpenBabel10262421523D

 30 30  0  0  1  0  0  0  0  0999 V2000
  189.9350  176.9380  142.1670 C   0  0  0  0  0  2  0  0  0  0  0  0
  190.5500  176.8250  140.7810 C   0  0  0  0  0  2  0  0  0  0  0  0
  188.6630  178.2520  140.4330 O   0  0  0  0  0  1  0  0  0  0  0  0
  189.7760  177.6900  139.8010 C   0  0  2  0  0  3  0  0  0  0  0  0
  189.3650  176.8830  138.5570 C   0  0  2  0  0  3  0  0  0  0  0  0
  189.8660  174.7450  137.3290 C   0  0  0  0  0  1  0  0  0  0  0  0
  190.4510  175.8750  138.1600 C   0  0  0  0  0  3  0  0  0  0  0  0
  191.5420  176.5450  137.3380 C   0  0  0  0  0  1  0  0  0  0  0  0
  189.0220  177.8070  137.3840 C   0  0  0  0  0  2  0  0  0  0  0  0
  187.3440  178.0120  135.6990 O   0  0  0  0  0  1  0  0  0  0  0  0
  187.5370  177.7410  137.0550 C   0  0  2  0  0  3  0  0  0  0  0  0
  184.7530  177.3070  137.9460 O   0  0  0  0  0  0  0  0  0  0  0  0
  186.7780  178.6920  137.8660 N   0  0  0  0  0  2  0  0  0  0  0  0
  185.4270  178.4740  138.2890 C   0  0  0  0  0  0  0  0  0  0  0  0
  184.8420  179.3500  138.9790 O   0  0  0  0  0  1  0  0  0  0  0  0
  190.2730  175.7150  142.9940 C   0  0  0  0  0  2  0  0  0  0  0  0
  191.5060  175.9500  143.8510 C   0  0  0  0  0  2  0  0  0  0  0  0
  191.4600  177.3500  144.4390 C   0  0  0  0  0  2  0  0  0  0  0  0
  191.9130  177.3200  145.8220 N   0  0  0  0  0  2  0  0  0  0  0  0
  190.9760  176.4930  146.5690 C   0  0  1  0  0  3  0  0  0  0  0  0
  191.7480  175.5420  147.4590 C   0  0  0  0  0  1  0  0  0  0  0  0
  190.0840  177.3730  147.4360 C   0  0  0  0  0  2  0  0  0  0  0  0
  186.0310  177.7770  146.0740 C   0  0  1  0  0  3  0  0  0  0  0  0
  187.0230  176.6080  144.2510 F   0  0  0  0  0  0  0  0  0  0  0  0
  184.8390  178.2720  145.5410 O   0  0  0  0  0  1  0  0  0  0  0  0
  188.6440  177.3340  146.9540 C   0  0  2  0  0  3  0  0  0  0  0  0
  187.1200  177.7720  144.9900 C   0  0  2  0  0  3  0  0  0  0  0  0
  186.4420  178.6170  147.2790 C   0  0  0  0  0  2  0  0  0  0  0  0
  188.5420  177.9170  145.5480 C   0  0  0  0  0  2  0  0  0  0  0  0
  187.7220  178.0790  147.9330 C   0  0  0  0  0  2  0  0  0  0  0  0
  1 16  1  0  0  0  0
  2  1  1  0  0  0  0
  4  3  1  1  0  0  0
  4  2  1  0  0  0  0
  5  9  1  6  0  0  0
  5  4  1  0  0  0  0
  6  7  1  0  0  0  0
  7  5  1  0  0  0  0
  8  7  1  0  0  0  0
 11 10  1  6  0  0  0
 11  9  1  0  0  0  0
 11 13  1  0  0  0  0
 12 14  2  0  0  0  0
 13 14  1  0  0  0  0
 14 15  1  0  0  0  0
 16 17  1  0  0  0  0
 17 18  1  0  0  0  0
 18 19  1  0  0  0  0
 19 20  1  0  0  0  0
 20 22  1  0  0  0  0
 20 21  1  1  0  0  0
 23 25  1  6  0  0  0
 23 28  1  0  0  0  0
 26 22  1  1  0  0  0
 26 30  1  0  0  0  0
 27 24  1  1  0  0  0
 27 29  1  0  0  0  0
 27 23  1  0  0  0  0
 28 30  1  0  0  0  0
 29 26  1  0  0  0  0
M  END
>  <MODEL>
5

>  <REMARK>
 VINA RESULT:      -6.9      2.521      5.456
  Name = 
  14 active torsions:
  status: ('A' for Active; 'I' for Inactive)
    1  A    between atoms: C_3  and  C_11
    2  A    between atoms: C_3  and  C_19
    3  A    between atoms: C_4  and  C_13
    4  A    between atoms: C_7  and  C_16
    5  A    between atoms: C_7  and  C_30
    6  A    between atoms: C_8  and  C_12
    7  A    between atoms: C_8  and  C_13
    8  A    between atoms: N_9  and  C_12
    9  A    between atoms: C_10  and  C_15
   10  A    between atoms: C_10  and  N_25
   11  A    between atoms: C_11  and  N_25
   12  A    between atoms: C_13  and  C_30
   13  A    between atoms: C_15  and  C_26
   14  A    between atoms: C_16  and  C_26
                            x       y       z     vdW  Elec       q    Type
                         _______ _______ _______ _____ _____    ______ ____

>  <TORSDO>
F 14

$$$$
=
 OpenBabel10262421523D

 30 30  0  0  1  0  0  0  0  0999 V2000
  184.6900  178.1440  141.7410 C   0  0  0  0  0  2  0  0  0  0  0  0
  183.8140  178.2650  140.5040 C   0  0  0  0  0  2  0  0  0  0  0  0
  184.4550  180.1380  139.1650 O   0  0  0  0  0  1  0  0  0  0  0  0
  184.6410  178.7630  139.3330 C   0  0  2  0  0  3  0  0  0  0  0  0
  184.2990  177.9910  138.0460 C   0  0  2  0  0  3  0  0  0  0  0  0
  181.9250  177.5760  137.3240 C   0  0  0  0  0  1  0  0  0  0  0  0
  183.0520  177.1170  138.2340 C   0  0  0  0  0  3  0  0  0  0  0  0
  183.3540  175.6620  137.9080 C   0  0  0  0  0  1  0  0  0  0  0  0
  185.4880  177.1520  137.5680 C   0  0  0  0  0  2  0  0  0  0  0  0
  186.8950  178.2710  135.9970 O   0  0  0  0  0  1  0  0  0  0  0  0
  186.7200  178.0230  137.3600 C   0  0  2  0  0  3  0  0  0  0  0  0
  187.8600  178.6310  140.0180 O   0  0  0  0  0  1  0  0  0  0  0  0
  187.9140  177.3800  137.9060 N   0  0  0  0  0  2  0  0  0  0  0  0
  188.4620  177.6860  139.1940 C   0  0  0  0  0  0  0  0  0  0  0  0
  189.5010  177.0900  139.5850 O   0  0  0  0  0  0  0  0  0  0  0  0
  184.3700  179.2500  142.7250 C   0  0  0  0  0  2  0  0  0  0  0  0
  183.2840  178.8270  143.7000 C   0  0  0  0  0  2  0  0  0  0  0  0
  183.7840  178.9970  145.1240 C   0  0  0  0  0  2  0  0  0  0  0  0
  185.1780  179.4150  145.1120 N   0  0  0  0  0  2  0  0  0  0  0  0
  185.8710  178.6490  146.1380 C   0  0  1  0  0  3  0  0  0  0  0  0
  184.8660  178.1620  147.1620 C   0  0  0  0  0  1  0  0  0  0  0  0
  186.5610  177.4450  145.5090 C   0  0  0  0  0  2  0  0  0  0  0  0
  190.6490  177.9350  144.2850 C   0  0  1  0  0  3  0  0  0  0  0  0
  189.4870  178.7410  142.3690 F   0  0  0  0  0  0  0  0  0  0  0  0
  191.9450  177.7070  143.8160 O   0  0  0  0  0  1  0  0  0  0  0  0
  187.9710  177.7970  145.0640 C   0  0  2  0  0  3  0  0  0  0  0  0
  189.6350  177.6270  143.1730 C   0  0  2  0  0  3  0  0  0  0  0  0
  190.3970  177.0870  145.5270 C   0  0  0  0  0  2  0  0  0  0  0  0
  188.2640  177.1810  143.7000 C   0  0  0  0  0  2  0  0  0  0  0  0
  189.0010  177.3430  146.1120 C   0  0  0  0  0  2  0  0  0  0  0  0
  1 16  1  0  0  0  0
  2  1  1  0  0  0  0
  4  3  1  6  0  0  0
  4  2  1  0  0  0  0
  5  9  1  1  0  0  0
  5  7  1  0  0  0  0
  5  4  1  0  0  0  0
  6  7  1  0  0  0  0
  8  7  1  0  0  0  0
 11 10  1  6  0  0  0
 11  9  1  0  0  0  0
 11 13  1  0  0  0  0
 13 14  1  0  0  0  0
 14 15  2  0  0  0  0
 14 12  1  0  0  0  0
 16 17  1  0  0  0  0
 17 18  1  0  0  0  0
 19 18  1  0  0  0  0
 19 20  1  0  0  0  0
 20 21  1  1  0  0  0
 22 20  1  0  0  0  0
 23 25  1  6  0  0  0
 23 28  1  0  0  0  0
 26 22  1  1  0  0  0
 26 30  1  0  0  0  0
 27 24  1  1  0  0  0
 27 29  1  0  0  0  0
 27 23  1  0  0  0  0
 28 30  1  0  0  0  0
 29 26  1  0  0  0  0
M  END
>  <MODEL>
6

>  <REMARK>
 VINA RESULT:      -6.8      1.412      1.694
  Name = 
  14 active torsions:
  status: ('A' for Active; 'I' for Inactive)
    1  A    between atoms: C_3  and  C_11
    2  A    between atoms: C_3  and  C_19
    3  A    between atoms: C_4  and  C_13
    4  A    between atoms: C_7  and  C_16
    5  A    between atoms: C_7  and  C_30
    6  A    between atoms: C_8  and  C_12
    7  A    between atoms: C_8  and  C_13
    8  A    between atoms: N_9  and  C_12
    9  A    between atoms: C_10  and  C_15
   10  A    between atoms: C_10  and  N_25
   11  A    between atoms: C_11  and  N_25
   12  A    between atoms: C_13  and  C_30
   13  A    between atoms: C_15  and  C_26
   14  A    between atoms: C_16  and  C_26
                            x       y       z     vdW  Elec       q    Type
                         _______ _______ _______ _____ _____    ______ ____

>  <TORSDO>
F 14

$$$$
=
 OpenBabel10262421523D

 30 30  0  0  1  0  0  0  0  0999 V2000
  190.4830  177.7050  142.9780 C   0  0  0  0  0  2  0  0  0  0  0  0
  189.1680  178.1700  143.5850 C   0  0  0  0  0  2  0  0  0  0  0  0
  187.6700  176.3230  143.8300 O   0  0  0  0  0  1  0  0  0  0  0  0
  188.6170  177.0970  144.5070 C   0  0  2  0  0  3  0  0  0  0  0  0
  188.0240  177.7170  145.7840 C   0  0  2  0  0  3  0  0  0  0  0  0
  190.1760  176.9400  146.8300 C   0  0  0  0  0  1  0  0  0  0  0  0
  188.6860  177.1430  147.0440 C   0  0  0  0  0  3  0  0  0  0  0  0
  188.5060  178.0810  148.2280 C   0  0  0  0  0  1  0  0  0  0  0  0
  186.5040  177.5370  145.8350 C   0  0  0  0  0  2  0  0  0  0  0  0
  185.4590  179.4180  146.8690 O   0  0  0  0  0  1  0  0  0  0  0  0
  185.7900  178.8670  145.6300 C   0  0  2  0  0  3  0  0  0  0  0  0
  185.7690  178.7930  142.6760 O   0  0  0  0  0  0  0  0  0  0  0  0
  184.5830  178.6950  144.8230 N   0  0  0  0  0  2  0  0  0  0  0  0
  184.5830  178.6660  143.3910 C   0  0  0  0  0  0  0  0  0  0  0  0
  183.4950  178.5220  142.7720 O   0  0  0  0  0  1  0  0  0  0  0  0
  190.2260  176.8430  141.7600 C   0  0  0  0  0  2  0  0  0  0  0  0
  189.2270  177.4970  140.8190 C   0  0  0  0  0  2  0  0  0  0  0  0
  189.7670  177.4660  139.4000 C   0  0  0  0  0  2  0  0  0  0  0  0
  188.7740  176.8880  138.5060 N   0  0  0  0  0  2  0  0  0  0  0  0
  187.9490  177.9790  138.0090 C   0  0  1  0  0  3  0  0  0  0  0  0
  188.8220  178.9670  137.2630 C   0  0  0  0  0  1  0  0  0  0  0  0
  186.8890  177.4370  137.0590 C   0  0  0  0  0  2  0  0  0  0  0  0
  183.0080  178.2160  138.7280 C   0  0  1  0  0  3  0  0  0  0  0  0
  184.0440  180.3500  138.9340 F   0  0  0  0  0  0  0  0  0  0  0  0
  181.9100  178.2950  139.5860 O   0  0  0  0  0  1  0  0  0  0  0  0
  185.4940  177.8330  137.5140 C   0  0  2  0  0  3  0  0  0  0  0  0
  184.1780  179.0260  139.3070 C   0  0  2  0  0  3  0  0  0  0  0  0
  183.3890  176.7540  138.5160 C   0  0  0  0  0  2  0  0  0  0  0  0
  185.5570  178.5040  138.8830 C   0  0  0  0  0  2  0  0  0  0  0  0
  184.5610  176.6110  137.5350 C   0  0  0  0  0  2  0  0  0  0  0  0
  1  2  1  0  0  0  0
  2  4  1  0  0  0  0
  4  3  1  6  0  0  0
  4  5  1  0  0  0  0
  5  9  1  1  0  0  0
  5  7  1  0  0  0  0
  6  7  1  0  0  0  0
  7  8  1  0  0  0  0
 11  9  1  0  0  0  0
 11 10  1  1  0  0  0
 12 14  2  0  0  0  0
 13 11  1  0  0  0  0
 14 13  1  0  0  0  0
 15 14  1  0  0  0  0
 16  1  1  0  0  0  0
 17 16  1  0  0  0  0
 18 17  1  0  0  0  0
 19 18  1  0  0  0  0
 20 21  1  6  0  0  0
 20 19  1  0  0  0  0
 22 20  1  0  0  0  0
 23 27  1  0  0  0  0
 23 25  1  1  0  0  0
 26 22  1  1  0  0  0
 26 30  1  0  0  0  0
 26 29  1  0  0  0  0
 27 24  1  6  0  0  0
 28 23  1  0  0  0  0
 29 27  1  0  0  0  0
 30 28  1  0  0  0  0
M  END
>  <MODEL>
7

>  <REMARK>
 VINA RESULT:      -6.7      2.539      8.153
  Name = 
  14 active torsions:
  status: ('A' for Active; 'I' for Inactive)
    1  A    between atoms: C_3  and  C_11
    2  A    between atoms: C_3  and  C_19
    3  A    between atoms: C_4  and  C_13
    4  A    between atoms: C_7  and  C_16
    5  A    between atoms: C_7  and  C_30
    6  A    between atoms: C_8  and  C_12
    7  A    between atoms: C_8  and  C_13
    8  A    between atoms: N_9  and  C_12
    9  A    between atoms: C_10  and  C_15
   10  A    between atoms: C_10  and  N_25
   11  A    between atoms: C_11  and  N_25
   12  A    between atoms: C_13  and  C_30
   13  A    between atoms: C_15  and  C_26
   14  A    between atoms: C_16  and  C_26
                            x       y       z     vdW  Elec       q    Type
                         _______ _______ _______ _____ _____    ______ ____

>  <TORSDO>
F 14

$$$$
=
 OpenBabel10262421523D

 30 30  0  0  1  0  0  0  0  0999 V2000
  184.6630  178.1370  143.2630 C   0  0  0  0  0  2  0  0  0  0  0  0
  183.9120  179.0210  142.2790 C   0  0  0  0  0  2  0  0  0  0  0  0
  184.8040  179.6480  140.1520 O   0  0  0  0  0  1  0  0  0  0  0  0
  184.2240  178.5900  140.8570 C   0  0  2  0  0  3  0  0  0  0  0  0
  182.9610  178.0700  140.1470 C   0  0  2  0  0  3  0  0  0  0  0  0
  182.1740  175.8170  139.3520 C   0  0  0  0  0  1  0  0  0  0  0  0
  183.2770  176.8580  139.2610 C   0  0  0  0  0  3  0  0  0  0  0  0
  183.4130  177.2710  137.8030 C   0  0  0  0  0  1  0  0  0  0  0  0
  182.2840  179.1790  139.3360 C   0  0  0  0  0  2  0  0  0  0  0  0
  180.0990  179.5310  138.4410 O   0  0  0  0  0  1  0  0  0  0  0  0
  180.7870  179.2210  139.6150 C   0  0  2  0  0  3  0  0  0  0  0  0
  180.3170  178.5480  142.4540 O   0  0  0  0  0  0  0  0  0  0  0  0
  180.4740  180.2050  140.6500 N   0  0  0  0  0  2  0  0  0  0  0  0
  180.2430  179.8680  142.0230 C   0  0  0  0  0  0  0  0  0  0  0  0
  179.9700  180.7780  142.8500 O   0  0  0  0  0  1  0  0  0  0  0  0
  185.2610  178.9740  144.3750 C   0  0  0  0  0  2  0  0  0  0  0  0
  184.5220  178.7630  145.6850 C   0  0  0  0  0  2  0  0  0  0  0  0
  185.5230  178.5190  146.8020 C   0  0  0  0  0  2  0  0  0  0  0  0
  186.4870  177.5100  146.3890 N   0  0  0  0  0  2  0  0  0  0  0  0
  187.8110  178.0060  146.7350 C   0  0  1  0  0  3  0  0  0  0  0  0
  187.9480  178.0550  148.2430 C   0  0  0  0  0  1  0  0  0  0  0  0
  188.8780  177.0770  146.1690 C   0  0  0  0  0  2  0  0  0  0  0  0
  190.0280  177.6400  142.0690 C   0  0  1  0  0  3  0  0  0  0  0  0
  187.6620  177.8800  141.9290 F   0  0  0  0  0  0  0  0  0  0  0  0
  190.4190  177.4280  140.7450 O   0  0  0  0  0  1  0  0  0  0  0  0
  189.2130  177.4440  144.7330 C   0  0  2  0  0  3  0  0  0  0  0  0
  188.6540  176.9970  142.3120 C   0  0  2  0  0  3  0  0  0  0  0  0
  191.0860  177.0780  143.0120 C   0  0  0  0  0  2  0  0  0  0  0  0
  188.4290  176.5620  143.7660 C   0  0  0  0  0  2  0  0  0  0  0  0
  190.7260  177.3340  144.4830 C   0  0  0  0  0  2  0  0  0  0  0  0
  1 16  1  0  0  0  0
  2  1  1  0  0  0  0
  4  3  1  6  0  0  0
  4  2  1  0  0  0  0
  5  9  1  6  0  0  0
  5  4  1  0  0  0  0
  7  6  1  0  0  0  0
  7  5  1  0  0  0  0
  8  7  1  0  0  0  0
  9 11  1  0  0  0  0
 11 10  1  6  0  0  0
 11 13  1  0  0  0  0
 13 14  1  0  0  0  0
 14 12  2  0  0  0  0
 14 15  1  0  0  0  0
 16 17  1  0  0  0  0
 17 18  1  0  0  0  0
 19 20  1  0  0  0  0
 19 18  1  0  0  0  0
 20 21  1  1  0  0  0
 22 20  1  0  0  0  0
 23 25  1  6  0  0  0
 23 27  1  0  0  0  0
 23 28  1  0  0  0  0
 26 22  1  1  0  0  0
 27 24  1  1  0  0  0
 27 29  1  0  0  0  0
 28 30  1  0  0  0  0
 29 26  1  0  0  0  0
 30 26  1  0  0  0  0
M  END
>  <MODEL>
8

>  <REMARK>
 VINA RESULT:      -6.7      2.733      4.169
  Name = 
  14 active torsions:
  status: ('A' for Active; 'I' for Inactive)
    1  A    between atoms: C_3  and  C_11
    2  A    between atoms: C_3  and  C_19
    3  A    between atoms: C_4  and  C_13
    4  A    between atoms: C_7  and  C_16
    5  A    between atoms: C_7  and  C_30
    6  A    between atoms: C_8  and  C_12
    7  A    between atoms: C_8  and  C_13
    8  A    between atoms: N_9  and  C_12
    9  A    between atoms: C_10  and  C_15
   10  A    between atoms: C_10  and  N_25
   11  A    between atoms: C_11  and  N_25
   12  A    between atoms: C_13  and  C_30
   13  A    between atoms: C_15  and  C_26
   14  A    between atoms: C_16  and  C_26
                            x       y       z     vdW  Elec       q    Type
                         _______ _______ _______ _____ _____    ______ ____

>  <TORSDO>
F 14

$$$$
=
 OpenBabel10262421523D

 30 30  0  0  1  0  0  0  0  0999 V2000
  188.3550  178.6200  140.8510 C   0  0  0  0  0  2  0  0  0  0  0  0
  188.1780  178.0000  139.4740 C   0  0  0  0  0  2  0  0  0  0  0  0
  188.8110  179.5390  137.7580 O   0  0  0  0  0  1  0  0  0  0  0  0
  189.2780  178.4840  138.5460 C   0  0  2  0  0  3  0  0  0  0  0  0
  189.8150  177.3320  137.6770 C   0  0  2  0  0  3  0  0  0  0  0  0
  189.2560  177.0800  135.2370 C   0  0  0  0  0  1  0  0  0  0  0  0
  188.7670  176.8640  136.6590 C   0  0  0  0  0  3  0  0  0  0  0  0
  188.4650  175.3820  136.8320 C   0  0  0  0  0  1  0  0  0  0  0  0
  190.2990  176.1630  138.5410 C   0  0  0  0  0  2  0  0  0  0  0  0
  192.2220  177.1280  139.5760 O   0  0  0  0  0  1  0  0  0  0  0  0
  191.8180  176.1620  138.6530 C   0  0  2  0  0  3  0  0  0  0  0  0
  194.5880  175.4000  137.9620 O   0  0  0  0  0  1  0  0  0  0  0  0
  192.4400  176.4210  137.3560 N   0  0  0  0  0  2  0  0  0  0  0  0
  193.7860  176.0530  137.0320 C   0  0  0  0  0  0  0  0  0  0  0  0
  194.2470  176.3220  135.8920 O   0  0  0  0  0  0  0  0  0  0  0  0
  187.1960  178.2430  141.7510 C   0  0  0  0  0  2  0  0  0  0  0  0
  185.9990  179.1510  141.5220 C   0  0  0  0  0  2  0  0  0  0  0  0
  184.8970  178.8000  142.5050 C   0  0  0  0  0  2  0  0  0  0  0  0
  185.4120  177.8950  143.5230 N   0  0  0  0  0  2  0  0  0  0  0  0
  185.4330  178.6250  144.7830 C   0  0  1  0  0  3  0  0  0  0  0  0
  184.0170  179.0040  145.1650 C   0  0  0  0  0  1  0  0  0  0  0  0
  186.0260  177.7480  145.8800 C   0  0  0  0  0  2  0  0  0  0  0  0
  190.3120  177.5770  146.1060 C   0  0  1  0  0  3  0  0  0  0  0  0
  189.9850  178.0990  143.8060 F   0  0  0  0  0  0  0  0  0  0  0  0
  191.6340  177.1320  146.1610 O   0  0  0  0  0  1  0  0  0  0  0  0
  187.5410  177.8630  145.9090 C   0  0  2  0  0  3  0  0  0  0  0  0
  189.6800  177.1570  144.7700 C   0  0  2  0  0  3  0  0  0  0  0  0
  189.5340  177.0200  147.2940 C   0  0  0  0  0  2  0  0  0  0  0  0
  188.1600  176.9640  144.8440 C   0  0  0  0  0  2  0  0  0  0  0  0
  188.0840  177.5240  147.3070 C   0  0  0  0  0  2  0  0  0  0  0  0
  1 16  1  0  0  0  0
  2  1  1  0  0  0  0
  4  3  1  6  0  0  0
  4  2  1  0  0  0  0
  5  9  1  1  0  0  0
  5  4  1  0  0  0  0
  6  7  1  0  0  0  0
  7  8  1  0  0  0  0
  7  5  1  0  0  0  0
  9 11  1  0  0  0  0
 11 10  1  1  0  0  0
 13 11  1  0  0  0  0
 14 13  1  0  0  0  0
 14 12  1  0  0  0  0
 15 14  2  0  0  0  0
 17 16  1  0  0  0  0
 17 18  1  0  0  0  0
 18 19  1  0  0  0  0
 19 20  1  0  0  0  0
 20 21  1  1  0  0  0
 20 22  1  0  0  0  0
 23 25  1  6  0  0  0
 23 28  1  0  0  0  0
 26 22  1  1  0  0  0
 26 30  1  0  0  0  0
 27 24  1  6  0  0  0
 27 29  1  0  0  0  0
 27 23  1  0  0  0  0
 28 30  1  0  0  0  0
 29 26  1  0  0  0  0
M  END
>  <MODEL>
9

>  <REMARK>
 VINA RESULT:      -6.6      2.896      4.789
  Name = 
  14 active torsions:
  status: ('A' for Active; 'I' for Inactive)
    1  A    between atoms: C_3  and  C_11
    2  A    between atoms: C_3  and  C_19
    3  A    between atoms: C_4  and  C_13
    4  A    between atoms: C_7  and  C_16
    5  A    between atoms: C_7  and  C_30
    6  A    between atoms: C_8  and  C_12
    7  A    between atoms: C_8  and  C_13
    8  A    between atoms: N_9  and  C_12
    9  A    between atoms: C_10  and  C_15
   10  A    between atoms: C_10  and  N_25
   11  A    between atoms: C_11  and  N_25
   12  A    between atoms: C_13  and  C_30
   13  A    between atoms: C_15  and  C_26
   14  A    between atoms: C_16  and  C_26
                            x       y       z     vdW  Elec       q    Type
                         _______ _______ _______ _____ _____    ______ ____

>  <TORSDO>
F 14

$$$$
