=
 OpenBabel10262421133D

 32 37  0  0  1  0  0  0  0  0999 V2000
  187.7890  177.9280  138.7860 C   0  0  1  0  0  3  0  0  0  0  0  0
  187.3780  178.0310  141.0820 C   0  0  0  0  0  0  0  0  0  0  0  0
  188.6840  178.7740  137.9350 C   0  0  0  0  0  3  0  0  0  0  0  0
  188.3590  177.6820  140.1610 C   0  0  0  0  0  0  0  0  0  0  0  0
  188.4600  177.3090  143.3170 C   0  0  0  0  0  0  0  0  0  0  0  0
  184.3480  179.0310  144.2760 C   0  0  0  0  0  3  0  0  0  0  0  0
  187.4140  177.8810  142.4650 C   0  0  0  0  0  0  0  0  0  0  0  0
  186.0570  178.0950  145.7500 C   0  0  0  0  0  3  0  0  0  0  0  0
  186.8460  177.8780  144.6220 C   0  0  0  0  0  0  0  0  0  0  0  0
  189.6960  176.8130  142.9350 C   0  0  0  0  0  0  0  0  0  0  0  0
  189.6480  177.1280  140.3970 C   0  0  0  0  0  0  0  0  0  0  0  0
  188.0730  177.3290  144.6150 N   0  0  0  0  0  0  0  0  0  0  0  0
  190.6920  176.9450  139.3130 C   0  0  0  0  0  2  0  0  0  0  0  0
  190.2410  176.9830  137.8580 C   0  0  0  0  0  2  0  0  0  0  0  0
  186.2360  178.5800  140.4450 N   0  0  0  0  0  2  0  0  0  0  0  0
  190.1800  176.7700  141.6360 C   0  0  0  0  0  3  0  0  0  0  0  0
  186.4550  178.6280  139.0140 C   0  0  2  0  0  3  0  0  0  0  0  0
  186.4170  178.2210  143.3630 C   0  0  0  0  0  0  0  0  0  0  0  0
  190.5370  176.3270  143.9290 O   0  0  0  0  0  1  0  0  0  0  0  0
  189.8060  178.3140  137.5120 N   0  0  0  0  0  0  0  0  0  0  0  0
  184.7920  178.6800  145.5670 C   0  0  0  0  0  3  0  0  0  0  0  0
  185.1630  178.8030  143.1550 C   0  0  0  0  0  3  0  0  0  0  0  0
  183.0420  177.8060  137.5370 C   0  0  0  0  0  0  0  0  0  0  0  0
  181.6540  178.3430  137.4700 C   0  0  0  0  0  1  0  0  0  0  0  0
  185.3460  177.9300  138.2790 C   0  0  0  0  0  0  0  0  0  0  0  0
  183.3280  176.6460  136.8870 N   0  0  0  0  0  0  0  0  0  0  0  0
  185.6030  176.7350  137.5940 C   0  0  0  0  0  3  0  0  0  0  0  0
  184.0510  178.4780  138.2510 C   0  0  0  0  0  0  0  0  0  0  0  0
  183.6980  179.9900  139.0940 Cl  0  0  0  0  0  0  0  0  0  0  0  0
  184.5710  176.0980  136.9080 C   0  0  0  0  0  0  0  0  0  0  0  0
  185.4410  173.9100  137.0050 O   0  0  0  0  0  1  0  0  0  0  0  0
  184.8420  174.8420  136.1590 C   0  0  0  0  0  2  0  0  0  0  0  0
  1  3  1  6  0  0  0
  1 17  1  0  0  0  0
  1  4  1  0  0  0  0
  2  7  1  0  0  0  0
  4 11  1  0  0  0  0
  4  2  2  0  0  0  0
  5 12  1  0  0  0  0
  6 21  1  0  0  0  0
  7  5  1  0  0  0  0
  7 18  2  0  0  0  0
  9  8  1  0  0  0  0
 10  5  2  0  0  0  0
 10 19  1  0  0  0  0
 11 16  2  0  0  0  0
 12  9  2  0  0  0  0
 13 11  1  0  0  0  0
 14 13  1  0  0  0  0
 15  2  1  0  0  0  0
 16 10  1  0  0  0  0
 17 25  1  6  0  0  0
 17 15  1  0  0  0  0
 18  9  1  0  0  0  0
 20 14  1  0  0  0  0
 20  3  2  0  0  0  0
 21  8  2  0  0  0  0
 22 18  1  0  0  0  0
 22  6  2  0  0  0  0
 23 28  1  0  0  0  0
 24 23  1  0  0  0  0
 26 30  1  0  0  0  0
 26 23  2  0  0  0  0
 27 25  1  0  0  0  0
 28 25  2  0  0  0  0
 28 29  1  0  0  0  0
 30 27  2  0  0  0  0
 32 30  1  0  0  0  0
 32 31  1  0  0  0  0
M  END
>  <MODEL>
1

>  <REMARK>
 VINA RESULT:      -8.8      0.000      0.000
  Name = 
  2 active torsions:
  status: ('A' for Active; 'I' for Inactive)
    1  A    between atoms: C_15  and  CA_26
    2  A    between atoms: C_16  and  C_27
                            x       y       z     vdW  Elec       q    Type
                         _______ _______ _______ _____ _____    ______ ____

>  <TORSDO>
F 2

$$$$
=
 OpenBabel10262421133D

 32 37  0  0  1  0  0  0  0  0999 V2000
  190.0020  177.5840  142.0280 C   0  0  1  0  0  3  0  0  0  0  0  0
  187.7230  178.0810  142.1390 C   0  0  0  0  0  0  0  0  0  0  0  0
  191.1770  178.3610  142.5350 C   0  0  0  0  0  3  0  0  0  0  0  0
  188.7990  177.6960  142.9320 C   0  0  0  0  0  0  0  0  0  0  0  0
  185.7580  177.9720  143.8140 C   0  0  0  0  0  0  0  0  0  0  0  0
  184.0570  179.2650  139.7850 C   0  0  0  0  0  3  0  0  0  0  0  0
  186.3910  178.2140  142.5160 C   0  0  0  0  0  0  0  0  0  0  0  0
  182.9430  178.8830  141.9260 C   0  0  0  0  0  3  0  0  0  0  0  0
  184.1880  178.5590  142.4640 C   0  0  0  0  0  0  0  0  0  0  0  0
  186.3610  177.5860  145.0000 C   0  0  0  0  0  0  0  0  0  0  0  0
  188.8190  177.3830  144.3190 C   0  0  0  0  0  0  0  0  0  0  0  0
  184.4230  178.1940  143.7360 N   0  0  0  0  0  0  0  0  0  0  0  0
  190.0920  177.1350  145.1040 C   0  0  0  0  0  2  0  0  0  0  0  0
  191.3690  176.8220  144.3340 C   0  0  0  0  0  2  0  0  0  0  0  0
  188.1240  178.3300  140.8020 N   0  0  0  0  0  2  0  0  0  0  0  0
  187.7180  177.3540  145.1760 C   0  0  0  0  0  3  0  0  0  0  0  0
  189.5530  178.1240  140.6760 C   0  0  2  0  0  3  0  0  0  0  0  0
  185.3320  178.5840  141.7040 C   0  0  0  0  0  0  0  0  0  0  0  0
  185.5520  177.4260  146.1200 O   0  0  0  0  0  1  0  0  0  0  0  0
  191.7970  177.9860  143.5960 N   0  0  0  0  0  0  0  0  0  0  0  0
  182.8860  179.2400  140.5680 C   0  0  0  0  0  3  0  0  0  0  0  0
  185.2990  178.9340  140.3510 C   0  0  0  0  0  3  0  0  0  0  0  0
  191.4350  175.8810  138.2420 C   0  0  0  0  0  0  0  0  0  0  0  0
  192.8240  175.4850  137.8750 C   0  0  0  0  0  1  0  0  0  0  0  0
  189.8580  177.1490  139.5760 C   0  0  0  0  0  0  0  0  0  0  0  0
  190.3950  175.3200  137.5690 N   0  0  0  0  0  0  0  0  0  0  0  0
  188.8130  176.5470  138.8630 C   0  0  0  0  0  3  0  0  0  0  0  0
  191.1880  176.8120  139.2670 C   0  0  0  0  0  0  0  0  0  0  0  0
  192.5280  177.5440  140.1550 Cl  0  0  0  0  0  0  0  0  0  0  0  0
  189.1040  175.6360  137.8480 C   0  0  0  0  0  0  0  0  0  0  0  0
  186.8440  175.7510  137.1920 O   0  0  0  0  0  1  0  0  0  0  0  0
  187.9990  174.9760  137.1040 C   0  0  0  0  0  2  0  0  0  0  0  0
  1  3  1  1  0  0  0
  1  4  1  0  0  0  0
  2  7  2  0  0  0  0
  2  4  1  0  0  0  0
  3 20  2  0  0  0  0
  4 11  2  0  0  0  0
  5 10  1  0  0  0  0
  6 22  2  0  0  0  0
  6 21  1  0  0  0  0
  7  5  1  0  0  0  0
  8  9  1  0  0  0  0
  9 12  1  0  0  0  0
 10 16  2  0  0  0  0
 10 19  1  0  0  0  0
 11 13  1  0  0  0  0
 11 16  1  0  0  0  0
 12  5  2  0  0  0  0
 14 13  1  0  0  0  0
 15  2  1  0  0  0  0
 17 25  1  6  0  0  0
 17 15  1  0  0  0  0
 17  1  1  0  0  0  0
 18  9  2  0  0  0  0
 18  7  1  0  0  0  0
 20 14  1  0  0  0  0
 21  8  2  0  0  0  0
 22 18  1  0  0  0  0
 23 28  1  0  0  0  0
 24 23  1  0  0  0  0
 26 30  1  0  0  0  0
 26 23  2  0  0  0  0
 27 25  1  0  0  0  0
 28 25  2  0  0  0  0
 28 29  1  0  0  0  0
 30 27  2  0  0  0  0
 32 31  1  0  0  0  0
 32 30  1  0  0  0  0
M  END
>  <MODEL>
2

>  <REMARK>
 VINA RESULT:      -8.7      2.982      5.194
  Name = 
  2 active torsions:
  status: ('A' for Active; 'I' for Inactive)
    1  A    between atoms: C_15  and  CA_26
    2  A    between atoms: C_16  and  C_27
                            x       y       z     vdW  Elec       q    Type
                         _______ _______ _______ _____ _____    ______ ____

>  <TORSDO>
F 2

$$$$
=
 OpenBabel10262421133D

 32 37  0  0  1  0  0  0  0  0999 V2000
  187.4620  178.2270  140.7290 C   0  0  1  0  0  3  0  0  0  0  0  0
  188.0190  177.9180  142.9760 C   0  0  0  0  0  0  0  0  0  0  0  0
  188.0840  179.1220  139.7040 C   0  0  0  0  0  3  0  0  0  0  0  0
  188.4750  177.6530  141.6890 C   0  0  0  0  0  0  0  0  0  0  0  0
  189.7460  176.6550  144.4270 C   0  0  0  0  0  0  0  0  0  0  0  0
  186.7360  178.5930  147.2510 C   0  0  0  0  0  3  0  0  0  0  0  0
  188.5710  177.4940  144.1810 C   0  0  0  0  0  0  0  0  0  0  0  0
  188.6870  177.2020  147.7270 C   0  0  0  0  0  3  0  0  0  0  0  0
  188.9130  177.1270  146.3540 C   0  0  0  0  0  0  0  0  0  0  0  0
  190.6180  176.1120  143.4970 C   0  0  0  0  0  0  0  0  0  0  0  0
  189.6280  176.9260  141.2830 C   0  0  0  0  0  0  0  0  0  0  0  0
  189.9150  176.4600  145.7570 N   0  0  0  0  0  0  0  0  0  0  0  0
  190.1060  176.8480  139.8460 C   0  0  0  0  0  2  0  0  0  0  0  0
  189.1310  177.2220  138.7370 C   0  0  0  0  0  2  0  0  0  0  0  0
  186.8380  178.7030  142.9590 N   0  0  0  0  0  2  0  0  0  0  0  0
  190.5320  176.2740  142.1220 C   0  0  0  0  0  3  0  0  0  0  0  0
  186.4770  179.0090  141.5900 C   0  0  2  0  0  3  0  0  0  0  0  0
  188.0900  177.7570  145.4520 C   0  0  0  0  0  0  0  0  0  0  0  0
  191.6810  175.3490  143.9690 O   0  0  0  0  0  1  0  0  0  0  0  0
  188.8430  178.6350  138.7890 N   0  0  0  0  0  0  0  0  0  0  0  0
  187.5830  177.9460  148.1740 C   0  0  0  0  0  3  0  0  0  0  0  0
  186.9850  178.5020  145.8720 C   0  0  0  0  0  3  0  0  0  0  0  0
  182.7150  178.5110  141.9020 C   0  0  0  0  0  0  0  0  0  0  0  0
  181.5850  178.8070  142.8270 C   0  0  0  0  0  1  0  0  0  0  0  0
  185.0630  178.5960  141.3040 C   0  0  0  0  0  0  0  0  0  0  0  0
  182.4560  177.8580  140.7380 N   0  0  0  0  0  0  0  0  0  0  0  0
  184.7550  177.9260  140.1130 C   0  0  0  0  0  3  0  0  0  0  0  0
  184.0320  178.8970  142.2130 C   0  0  0  0  0  0  0  0  0  0  0  0
  184.3840  179.7520  143.7170 Cl  0  0  0  0  0  0  0  0  0  0  0  0
  183.4380  177.5530  139.8510 C   0  0  0  0  0  0  0  0  0  0  0  0
  183.0550  175.4850  138.7870 O   0  0  0  0  0  1  0  0  0  0  0  0
  183.1020  176.8630  138.5770 C   0  0  0  0  0  2  0  0  0  0  0  0
  1  3  1  6  0  0  0
  1 17  1  0  0  0  0
  1  4  1  0  0  0  0
  2  7  1  0  0  0  0
  4  2  2  0  0  0  0
  5 12  1  0  0  0  0
  6 21  1  0  0  0  0
  7  5  1  0  0  0  0
  7 18  2  0  0  0  0
  8 21  2  0  0  0  0
  9  8  1  0  0  0  0
 10 19  1  0  0  0  0
 10  5  2  0  0  0  0
 11  4  1  0  0  0  0
 11 16  2  0  0  0  0
 12  9  2  0  0  0  0
 13 11  1  0  0  0  0
 14 20  1  0  0  0  0
 14 13  1  0  0  0  0
 15  2  1  0  0  0  0
 16 10  1  0  0  0  0
 17 25  1  6  0  0  0
 17 15  1  0  0  0  0
 18 22  1  0  0  0  0
 18  9  1  0  0  0  0
 20  3  2  0  0  0  0
 22  6  2  0  0  0  0
 23 28  1  0  0  0  0
 23 24  1  0  0  0  0
 25 28  2  0  0  0  0
 26 23  2  0  0  0  0
 27 25  1  0  0  0  0
 28 29  1  0  0  0  0
 30 27  2  0  0  0  0
 30 26  1  0  0  0  0
 32 31  1  0  0  0  0
 32 30  1  0  0  0  0
M  END
>  <MODEL>
3

>  <REMARK>
 VINA RESULT:      -8.4      2.140      2.941
  Name = 
  2 active torsions:
  status: ('A' for Active; 'I' for Inactive)
    1  A    between atoms: C_15  and  CA_26
    2  A    between atoms: C_16  and  C_27
                            x       y       z     vdW  Elec       q    Type
                         _______ _______ _______ _____ _____    ______ ____

>  <TORSDO>
F 2

$$$$
=
 OpenBabel10262421133D

 32 37  0  0  1  0  0  0  0  0999 V2000
  187.9490  177.8930  139.2890 C   0  0  1  0  0  3  0  0  0  0  0  0
  187.0590  178.1470  141.4330 C   0  0  0  0  0  0  0  0  0  0  0  0
  189.0130  178.6840  138.5950 C   0  0  0  0  0  3  0  0  0  0  0  0
  188.2100  177.7420  140.7680 C   0  0  0  0  0  0  0  0  0  0  0  0
  187.6320  177.5810  143.8890 C   0  0  0  0  0  0  0  0  0  0  0  0
  183.4280  179.3470  143.8330 C   0  0  0  0  0  3  0  0  0  0  0  0
  186.7980  178.0900  142.7980 C   0  0  0  0  0  0  0  0  0  0  0  0
  184.7730  178.5170  145.6960 C   0  0  0  0  0  3  0  0  0  0  0  0
  185.7830  178.2290  144.7800 C   0  0  0  0  0  0  0  0  0  0  0  0
  188.9150  177.0650  143.8140 C   0  0  0  0  0  0  0  0  0  0  0  0
  189.4140  177.2100  141.3090 C   0  0  0  0  0  0  0  0  0  0  0  0
  186.9770  177.6860  145.0710 N   0  0  0  0  0  0  0  0  0  0  0  0
  190.6630  176.9590  140.4870 C   0  0  0  0  0  2  0  0  0  0  0  0
  190.5330  176.8980  138.9700 C   0  0  0  0  0  2  0  0  0  0  0  0
  186.0850  178.6480  140.5310 N   0  0  0  0  0  2  0  0  0  0  0  0
  189.6660  176.9370  142.6540 C   0  0  0  0  0  3  0  0  0  0  0  0
  186.6040  178.6010  139.1800 C   0  0  2  0  0  3  0  0  0  0  0  0
  185.6350  178.4850  143.4380 C   0  0  0  0  0  0  0  0  0  0  0  0
  189.5200  176.6500  144.9950 O   0  0  0  0  0  1  0  0  0  0  0  0
  190.1950  178.2020  138.4520 N   0  0  0  0  0  0  0  0  0  0  0  0
  183.5830  179.0840  145.2090 C   0  0  0  0  0  3  0  0  0  0  0  0
  184.4600  179.0470  142.9290 C   0  0  0  0  0  3  0  0  0  0  0  0
  185.0110  177.0880  136.0700 C   0  0  0  0  0  0  0  0  0  0  0  0
  185.2050  177.0130  134.5940 C   0  0  0  0  0  1  0  0  0  0  0  0
  185.6710  177.8520  138.2740 C   0  0  0  0  0  0  0  0  0  0  0  0
  183.9580  176.4330  136.6270 N   0  0  0  0  0  0  0  0  0  0  0  0
  184.5770  177.1600  138.8100 C   0  0  0  0  0  3  0  0  0  0  0  0
  185.8970  177.8160  136.8860 C   0  0  0  0  0  0  0  0  0  0  0  0
  187.2730  178.6670  136.1790 Cl  0  0  0  0  0  0  0  0  0  0  0  0
  183.7200  176.4600  137.9630 C   0  0  0  0  0  0  0  0  0  0  0  0
  182.2990  176.1590  139.8190 O   0  0  0  0  0  1  0  0  0  0  0  0
  182.5710  175.7040  138.5300 C   0  0  0  0  0  2  0  0  0  0  0  0
  1  3  1  1  0  0  0
  1  4  1  0  0  0  0
  2  7  1  0  0  0  0
  4 11  1  0  0  0  0
  4  2  2  0  0  0  0
  5 12  1  0  0  0  0
  6 21  1  0  0  0  0
  7 18  2  0  0  0  0
  7  5  1  0  0  0  0
  9 12  2  0  0  0  0
  9  8  1  0  0  0  0
 10  5  2  0  0  0  0
 10 19  1  0  0  0  0
 11 16  2  0  0  0  0
 13 11  1  0  0  0  0
 14 13  1  0  0  0  0
 15  2  1  0  0  0  0
 16 10  1  0  0  0  0
 17 25  1  6  0  0  0
 17  1  1  0  0  0  0
 17 15  1  0  0  0  0
 18  9  1  0  0  0  0
 20  3  2  0  0  0  0
 20 14  1  0  0  0  0
 21  8  2  0  0  0  0
 22 18  1  0  0  0  0
 22  6  2  0  0  0  0
 23 26  2  0  0  0  0
 23 28  1  0  0  0  0
 24 23  1  0  0  0  0
 25 27  1  0  0  0  0
 26 30  1  0  0  0  0
 28 25  2  0  0  0  0
 29 28  1  0  0  0  0
 30 32  1  0  0  0  0
 30 27  2  0  0  0  0
 32 31  1  0  0  0  0
M  END
>  <MODEL>
4

>  <REMARK>
 VINA RESULT:      -8.4      1.612      1.931
  Name = 
  2 active torsions:
  status: ('A' for Active; 'I' for Inactive)
    1  A    between atoms: C_15  and  CA_26
    2  A    between atoms: C_16  and  C_27
                            x       y       z     vdW  Elec       q    Type
                         _______ _______ _______ _____ _____    ______ ____

>  <TORSDO>
F 2

$$$$
=
 OpenBabel10262421133D

 32 37  0  0  1  0  0  0  0  0999 V2000
  189.7660  177.5210  141.6070 C   0  0  1  0  0  3  0  0  0  0  0  0
  187.5230  178.0740  141.9480 C   0  0  0  0  0  0  0  0  0  0  0  0
  191.0050  178.2640  142.0010 C   0  0  0  0  0  3  0  0  0  0  0  0
  188.6620  177.6550  142.6260 C   0  0  0  0  0  0  0  0  0  0  0  0
  185.7310  177.9970  143.8100 C   0  0  0  0  0  0  0  0  0  0  0  0
  183.6730  179.3730  139.9800 C   0  0  0  0  0  3  0  0  0  0  0  0
  186.2380  178.2360  142.4570 C   0  0  0  0  0  0  0  0  0  0  0  0
  182.7680  178.9970  142.2180 C   0  0  0  0  0  3  0  0  0  0  0  0
  184.0510  178.6360  142.6270 C   0  0  0  0  0  0  0  0  0  0  0  0
  186.4390  177.5830  144.9260 C   0  0  0  0  0  0  0  0  0  0  0  0
  188.8110  177.3260  144.0030 C   0  0  0  0  0  0  0  0  0  0  0  0
  184.4020  178.2530  143.8660 N   0  0  0  0  0  0  0  0  0  0  0  0
  190.1490  177.0390  144.6550 C   0  0  0  0  0  2  0  0  0  0  0  0
  191.3350  176.7020  143.7600 C   0  0  0  0  0  2  0  0  0  0  0  0
  187.7960  178.3260  140.5790 N   0  0  0  0  0  2  0  0  0  0  0  0
  187.8000  177.3160  144.9640 C   0  0  0  0  0  3  0  0  0  0  0  0
  189.1980  178.0860  140.3100 C   0  0  2  0  0  3  0  0  0  0  0  0
  185.1140  178.6400  141.7570 C   0  0  0  0  0  0  0  0  0  0  0  0
  185.7420  177.4320  146.1200 O   0  0  0  0  0  1  0  0  0  0  0  0
  191.7170  177.8620  142.9920 N   0  0  0  0  0  0  0  0  0  0  0  0
  182.5850  179.3690  140.8760 C   0  0  0  0  0  3  0  0  0  0  0  0
  184.9560  179.0060  140.4170 C   0  0  0  0  0  3  0  0  0  0  0  0
  188.5560  176.0480  137.1590 C   0  0  0  0  0  0  0  0  0  0  0  0
  187.5180  175.8400  136.1110 C   0  0  0  0  0  1  0  0  0  0  0  0
  189.3680  177.1150  139.1780 C   0  0  0  0  0  0  0  0  0  0  0  0
  189.7180  175.3470  137.0780 N   0  0  0  0  0  0  0  0  0  0  0  0
  190.5530  176.3780  139.0580 C   0  0  0  0  0  3  0  0  0  0  0  0
  188.3540  176.9540  138.2160 C   0  0  0  0  0  0  0  0  0  0  0  0
  186.8540  177.8780  138.3310 Cl  0  0  0  0  0  0  0  0  0  0  0  0
  190.7070  175.4850  137.9990 C   0  0  0  0  0  0  0  0  0  0  0  0
  193.0610  175.5800  137.9680 O   0  0  0  0  0  1  0  0  0  0  0  0
  191.9720  174.7170  137.8540 C   0  0  0  0  0  2  0  0  0  0  0  0
  1  3  1  1  0  0  0
  1  4  1  0  0  0  0
  2  7  2  0  0  0  0
  2  4  1  0  0  0  0
  3 20  2  0  0  0  0
  4 11  2  0  0  0  0
  5 12  2  0  0  0  0
  5 10  1  0  0  0  0
  6 22  2  0  0  0  0
  6 21  1  0  0  0  0
  7  5  1  0  0  0  0
  8  9  1  0  0  0  0
  9 12  1  0  0  0  0
 10 16  2  0  0  0  0
 10 19  1  0  0  0  0
 11 13  1  0  0  0  0
 11 16  1  0  0  0  0
 14 13  1  0  0  0  0
 15  2  1  0  0  0  0
 17 25  1  6  0  0  0
 17 15  1  0  0  0  0
 17  1  1  0  0  0  0
 18  7  1  0  0  0  0
 18  9  2  0  0  0  0
 20 14  1  0  0  0  0
 21  8  2  0  0  0  0
 22 18  1  0  0  0  0
 23 28  1  0  0  0  0
 24 23  1  0  0  0  0
 26 23  2  0  0  0  0
 26 30  1  0  0  0  0
 27 25  1  0  0  0  0
 28 29  1  0  0  0  0
 28 25  2  0  0  0  0
 30 27  2  0  0  0  0
 32 31  1  0  0  0  0
 32 30  1  0  0  0  0
M  END
>  <MODEL>
5

>  <REMARK>
 VINA RESULT:      -8.2      2.805      4.677
  Name = 
  2 active torsions:
  status: ('A' for Active; 'I' for Inactive)
    1  A    between atoms: C_15  and  CA_26
    2  A    between atoms: C_16  and  C_27
                            x       y       z     vdW  Elec       q    Type
                         _______ _______ _______ _____ _____    ______ ____

>  <TORSDO>
F 2

$$$$
=
 OpenBabel10262421133D

 32 37  0  0  1  0  0  0  0  0999 V2000
  180.7820  178.8440  140.7660 C   0  0  1  0  0  3  0  0  0  0  0  0
  183.0900  178.6420  141.0600 C   0  0  0  0  0  0  0  0  0  0  0  0
  179.6900  177.8630  141.0590 C   0  0  0  0  0  3  0  0  0  0  0  0
  181.9040  178.7800  141.7730 C   0  0  0  0  0  0  0  0  0  0  0  0
  184.8630  178.8010  142.9340 C   0  0  0  0  0  0  0  0  0  0  0  0
  187.0810  178.2520  138.9880 C   0  0  0  0  0  3  0  0  0  0  0  0
  184.3890  178.6400  141.5570 C   0  0  0  0  0  0  0  0  0  0  0  0
  187.9350  178.5090  141.2620 C   0  0  0  0  0  3  0  0  0  0  0  0
  186.6140  178.5980  141.7000 C   0  0  0  0  0  0  0  0  0  0  0  0
  184.1080  178.9550  144.0850 C   0  0  0  0  0  0  0  0  0  0  0  0
  181.7170  178.9150  143.1770 C   0  0  0  0  0  0  0  0  0  0  0  0
  186.2170  178.7680  142.9720 N   0  0  0  0  0  0  0  0  0  0  0  0
  180.3570  178.8930  143.8460 C   0  0  0  0  0  2  0  0  0  0  0  0
  179.1210  179.1280  142.9860 C   0  0  0  0  0  2  0  0  0  0  0  0
  182.8480  178.5100  139.6690 N   0  0  0  0  0  2  0  0  0  0  0  0
  182.7220  178.9820  144.1420 C   0  0  0  0  0  3  0  0  0  0  0  0
  181.4220  178.5400  139.4170 C   0  0  2  0  0  3  0  0  0  0  0  0
  185.5580  178.5170  140.8250 C   0  0  0  0  0  0  0  0  0  0  0  0
  184.7830  179.0790  145.2950 O   0  0  0  0  0  1  0  0  0  0  0  0
  178.9320  178.0190  142.0830 N   0  0  0  0  0  0  0  0  0  0  0  0
  188.1640  178.3340  139.8870 C   0  0  0  0  0  3  0  0  0  0  0  0
  185.7600  178.3440  139.4530 C   0  0  0  0  0  3  0  0  0  0  0  0
  180.8060  180.3250  136.1100 C   0  0  0  0  0  0  0  0  0  0  0  0
  180.8620  180.0840  134.6410 C   0  0  0  0  0  1  0  0  0  0  0  0
  181.0790  179.5950  138.4060 C   0  0  0  0  0  0  0  0  0  0  0  0
  180.4060  181.5440  136.5600 N   0  0  0  0  0  0  0  0  0  0  0  0
  180.6590  180.8620  138.8300 C   0  0  0  0  0  3  0  0  0  0  0  0
  181.1530  179.3170  137.0290 C   0  0  0  0  0  0  0  0  0  0  0  0
  181.6670  177.7250  136.4620 Cl  0  0  0  0  0  0  0  0  0  0  0  0
  180.3330  181.8340  137.8840 C   0  0  0  0  0  0  0  0  0  0  0  0
  180.3950  184.1580  137.4970 O   0  0  0  0  0  1  0  0  0  0  0  0
  179.8630  183.1730  138.3280 C   0  0  0  0  0  2  0  0  0  0  0  0
  1  3  1  1  0  0  0
  1  4  1  0  0  0  0
  2  7  2  0  0  0  0
  2  4  1  0  0  0  0
  3 20  2  0  0  0  0
  4 11  2  0  0  0  0
  5 12  2  0  0  0  0
  5 10  1  0  0  0  0
  6 22  2  0  0  0  0
  6 21  1  0  0  0  0
  7  5  1  0  0  0  0
  8  9  1  0  0  0  0
  9 12  1  0  0  0  0
 10 16  2  0  0  0  0
 10 19  1  0  0  0  0
 11 13  1  0  0  0  0
 11 16  1  0  0  0  0
 14 13  1  0  0  0  0
 15  2  1  0  0  0  0
 17 25  1  6  0  0  0
 17 15  1  0  0  0  0
 17  1  1  0  0  0  0
 18  7  1  0  0  0  0
 18  9  2  0  0  0  0
 20 14  1  0  0  0  0
 21  8  2  0  0  0  0
 22 18  1  0  0  0  0
 23 26  2  0  0  0  0
 23 28  1  0  0  0  0
 24 23  1  0  0  0  0
 25 27  1  0  0  0  0
 26 30  1  0  0  0  0
 28 25  2  0  0  0  0
 29 28  1  0  0  0  0
 30 32  1  0  0  0  0
 30 27  2  0  0  0  0
 31 32  1  0  0  0  0
M  END
>  <MODEL>
6

>  <REMARK>
 VINA RESULT:      -8.1      3.879      6.825
  Name = 
  2 active torsions:
  status: ('A' for Active; 'I' for Inactive)
    1  A    between atoms: C_15  and  CA_26
    2  A    between atoms: C_16  and  C_27
                            x       y       z     vdW  Elec       q    Type
                         _______ _______ _______ _____ _____    ______ ____

>  <TORSDO>
F 2

$$$$
=
 OpenBabel10262421133D

 32 37  0  0  1  0  0  0  0  0999 V2000
  185.4740  178.2080  139.4270 C   0  0  1  0  0  3  0  0  0  0  0  0
  185.9820  178.2710  141.7060 C   0  0  0  0  0  0  0  0  0  0  0  0
  185.7550  179.2160  138.3570 C   0  0  0  0  0  3  0  0  0  0  0  0
  186.5760  178.1340  140.4560 C   0  0  0  0  0  0  0  0  0  0  0  0
  187.9800  177.8720  143.2960 C   0  0  0  0  0  0  0  0  0  0  0  0
  184.3010  178.6280  145.8800 C   0  0  0  0  0  3  0  0  0  0  0  0
  186.5870  178.1670  142.9540 C   0  0  0  0  0  0  0  0  0  0  0  0
  186.6100  178.1450  146.5150 C   0  0  0  0  0  3  0  0  0  0  0  0
  186.9230  178.0870  145.1580 C   0  0  0  0  0  0  0  0  0  0  0  0
  189.0450  177.6630  142.4340 C   0  0  0  0  0  0  0  0  0  0  0  0
  187.9410  177.8960  140.1380 C   0  0  0  0  0  0  0  0  0  0  0  0
  188.1380  177.8340  144.6410 N   0  0  0  0  0  0  0  0  0  0  0  0
  188.4910  177.9300  138.7260 C   0  0  0  0  0  2  0  0  0  0  0  0
  187.5110  177.8280  137.5640 C   0  0  0  0  0  2  0  0  0  0  0  0
  184.5910  178.5270  141.5960 N   0  0  0  0  0  2  0  0  0  0  0  0
  188.9800  177.7000  141.0490 C   0  0  0  0  0  3  0  0  0  0  0  0
  184.2160  178.5890  140.1990 C   0  0  2  0  0  3  0  0  0  0  0  0
  185.9710  178.2910  144.1880 C   0  0  0  0  0  0  0  0  0  0  0  0
  190.2930  177.4070  142.9920 O   0  0  0  0  0  1  0  0  0  0  0  0
  186.6930  179.0150  137.5030 N   0  0  0  0  0  0  0  0  0  0  0  0
  185.2800  178.4200  146.8730 C   0  0  0  0  0  3  0  0  0  0  0  0
  184.6410  178.5650  144.5200 C   0  0  0  0  0  3  0  0  0  0  0  0
  180.8130  176.8810  140.2260 C   0  0  0  0  0  0  0  0  0  0  0  0
  179.4730  176.9880  140.8710 C   0  0  0  0  0  1  0  0  0  0  0  0
  183.0930  177.6380  139.9030 C   0  0  0  0  0  0  0  0  0  0  0  0
  181.0240  175.8960  139.3140 N   0  0  0  0  0  0  0  0  0  0  0  0
  183.2710  176.6120  138.9660 C   0  0  0  0  0  3  0  0  0  0  0  0
  181.8480  177.7800  140.5420 C   0  0  0  0  0  0  0  0  0  0  0  0
  181.5870  179.0710  141.7190 Cl  0  0  0  0  0  0  0  0  0  0  0  0
  182.2200  175.7380  138.6910 C   0  0  0  0  0  0  0  0  0  0  0  0
  183.7520  174.4950  137.4010 O   0  0  0  0  0  1  0  0  0  0  0  0
  182.3960  174.6620  137.6790 C   0  0  0  0  0  2  0  0  0  0  0  0
  1  3  1  6  0  0  0
  1 17  1  0  0  0  0
  1  4  1  0  0  0  0
  2  7  1  0  0  0  0
  4  2  2  0  0  0  0
  5 12  1  0  0  0  0
  6 21  1  0  0  0  0
  7  5  1  0  0  0  0
  7 18  2  0  0  0  0
  8 21  2  0  0  0  0
  9  8  1  0  0  0  0
 10 19  1  0  0  0  0
 10  5  2  0  0  0  0
 11  4  1  0  0  0  0
 11 16  2  0  0  0  0
 12  9  2  0  0  0  0
 13 11  1  0  0  0  0
 14 13  1  0  0  0  0
 15  2  1  0  0  0  0
 16 10  1  0  0  0  0
 17 25  1  1  0  0  0
 17 15  1  0  0  0  0
 18 22  1  0  0  0  0
 18  9  1  0  0  0  0
 20 14  1  0  0  0  0
 20  3  2  0  0  0  0
 22  6  2  0  0  0  0
 23 28  1  0  0  0  0
 23 24  1  0  0  0  0
 25 28  2  0  0  0  0
 26 23  2  0  0  0  0
 27 25  1  0  0  0  0
 28 29  1  0  0  0  0
 30 27  2  0  0  0  0
 30 26  1  0  0  0  0
 31 32  1  0  0  0  0
 32 30  1  0  0  0  0
M  END
>  <MODEL>
7

>  <REMARK>
 VINA RESULT:      -7.9      1.959      2.357
  Name = 
  2 active torsions:
  status: ('A' for Active; 'I' for Inactive)
    1  A    between atoms: C_15  and  CA_26
    2  A    between atoms: C_16  and  C_27
                            x       y       z     vdW  Elec       q    Type
                         _______ _______ _______ _____ _____    ______ ____

>  <TORSDO>
F 2

$$$$
=
 OpenBabel10262421133D

 32 37  0  0  1  0  0  0  0  0999 V2000
  183.5110  178.2650  141.0390 C   0  0  1  0  0  3  0  0  0  0  0  0
  184.9050  178.0450  139.1790 C   0  0  0  0  0  0  0  0  0  0  0  0
  182.3420  179.1750  141.2560 C   0  0  0  0  0  3  0  0  0  0  0  0
  183.6110  177.7810  139.6140 C   0  0  0  0  0  0  0  0  0  0  0  0
  184.9250  176.9290  136.8470 C   0  0  0  0  0  0  0  0  0  0  0  0
  189.0550  178.7340  137.5410 C   0  0  0  0  0  3  0  0  0  0  0  0
  185.4880  177.6850  137.9680 C   0  0  0  0  0  0  0  0  0  0  0  0
  188.1730  177.4820  135.6370 C   0  0  0  0  0  3  0  0  0  0  0  0
  186.9600  177.3910  136.3180 C   0  0  0  0  0  0  0  0  0  0  0  0
  183.6430  176.4220  136.7180 C   0  0  0  0  0  0  0  0  0  0  0  0
  182.5560  177.1190  138.9260 C   0  0  0  0  0  0  0  0  0  0  0  0
  185.8520  176.7760  135.8710 N   0  0  0  0  0  0  0  0  0  0  0  0
  181.1360  177.0390  139.4500 C   0  0  0  0  0  2  0  0  0  0  0  0
  180.8900  177.3240  140.9270 C   0  0  0  0  0  2  0  0  0  0  0  0
  185.6490  178.7520  140.1580 N   0  0  0  0  0  2  0  0  0  0  0  0
  182.6280  176.5460  137.6560 C   0  0  0  0  0  3  0  0  0  0  0  0
  184.8160  179.0030  141.3150 C   0  0  2  0  0  3  0  0  0  0  0  0
  186.7870  177.9460  137.5630 C   0  0  0  0  0  0  0  0  0  0  0  0
  183.3270  175.7400  135.5470 O   0  0  0  0  0  1  0  0  0  0  0  0
  181.1430  178.7170  141.2080 N   0  0  0  0  0  0  0  0  0  0  0  0
  189.2300  178.1640  136.2640 C   0  0  0  0  0  3  0  0  0  0  0  0
  187.8230  178.6280  138.2060 C   0  0  0  0  0  3  0  0  0  0  0  0
  185.5490  178.2670  144.9790 C   0  0  0  0  0  0  0  0  0  0  0  0
  185.0060  178.5330  146.3400 C   0  0  0  0  0  1  0  0  0  0  0  0
  185.4700  178.4930  142.5670 C   0  0  0  0  0  0  0  0  0  0  0  0
  186.6730  177.5120  144.8580 N   0  0  0  0  0  0  0  0  0  0  0  0
  186.6270  177.7080  142.4830 C   0  0  0  0  0  3  0  0  0  0  0  0
  184.9180  178.7770  143.8290 C   0  0  0  0  0  0  0  0  0  0  0  0
  183.4530  179.7530  143.9680 Cl  0  0  0  0  0  0  0  0  0  0  0  0
  187.2240  177.2320  143.6490 C   0  0  0  0  0  0  0  0  0  0  0  0
  189.3470  176.7530  144.5540 O   0  0  0  0  0  1  0  0  0  0  0  0
  188.4390  176.3780  143.5650 C   0  0  0  0  0  2  0  0  0  0  0  0
  1  3  1  6  0  0  0
  1 17  1  0  0  0  0
  2  4  1  0  0  0  0
  2 15  1  0  0  0  0
  4  1  1  0  0  0  0
  5  7  1  0  0  0  0
  6 22  1  0  0  0  0
  7  2  2  0  0  0  0
  8 21  1  0  0  0  0
  8  9  2  0  0  0  0
  9 18  1  0  0  0  0
 10  5  1  0  0  0  0
 10 16  2  0  0  0  0
 11 13  1  0  0  0  0
 11  4  2  0  0  0  0
 12  9  1  0  0  0  0
 12  5  2  0  0  0  0
 13 14  1  0  0  0  0
 14 20  1  0  0  0  0
 15 17  1  0  0  0  0
 16 11  1  0  0  0  0
 17 25  1  1  0  0  0
 18  7  1  0  0  0  0
 18 22  2  0  0  0  0
 19 10  1  0  0  0  0
 20  3  2  0  0  0  0
 21  6  2  0  0  0  0
 23 24  1  0  0  0  0
 25 28  1  0  0  0  0
 26 23  1  0  0  0  0
 27 25  2  0  0  0  0
 27 30  1  0  0  0  0
 28 29  1  0  0  0  0
 28 23  2  0  0  0  0
 30 26  2  0  0  0  0
 32 30  1  0  0  0  0
 32 31  1  0  0  0  0
M  END
>  <MODEL>
8

>  <REMARK>
 VINA RESULT:      -7.8      2.153      7.551
  Name = 
  2 active torsions:
  status: ('A' for Active; 'I' for Inactive)
    1  A    between atoms: C_15  and  CA_26
    2  A    between atoms: C_16  and  C_27
                            x       y       z     vdW  Elec       q    Type
                         _______ _______ _______ _____ _____    ______ ____

>  <TORSDO>
F 2

$$$$
=
 OpenBabel10262421133D

 32 37  0  0  1  0  0  0  0  0999 V2000
  184.5450  178.6990  139.4330 C   0  0  1  0  0  3  0  0  0  0  0  0
  186.3730  177.7280  138.3510 C   0  0  0  0  0  0  0  0  0  0  0  0
  183.7500  179.9130  139.0660 C   0  0  0  0  0  3  0  0  0  0  0  0
  185.0010  177.9180  138.2250 C   0  0  0  0  0  0  0  0  0  0  0  0
  186.8870  176.1870  136.3410 C   0  0  0  0  0  0  0  0  0  0  0  0
  190.8100  176.9200  138.5470 C   0  0  0  0  0  3  0  0  0  0  0  0
  187.2100  176.9810  137.5280 C   0  0  0  0  0  0  0  0  0  0  0  0
  190.3370  175.5830  136.5580 C   0  0  0  0  0  3  0  0  0  0  0  0
  189.0020  175.9640  136.6740 C   0  0  0  0  0  0  0  0  0  0  0  0
  185.6550  176.0270  135.7280 C   0  0  0  0  0  0  0  0  0  0  0  0
  184.1220  177.4360  137.2160 C   0  0  0  0  0  0  0  0  0  0  0  0
  188.0030  175.5900  135.8560 N   0  0  0  0  0  0  0  0  0  0  0  0
  182.6690  177.8510  137.1020 C   0  0  0  0  0  2  0  0  0  0  0  0
  182.0020  178.4940  138.3120 C   0  0  0  0  0  2  0  0  0  0  0  0
  186.8890  178.3980  139.4890 N   0  0  0  0  0  2  0  0  0  0  0  0
  184.4670  176.6120  136.1440 C   0  0  0  0  0  3  0  0  0  0  0  0
  185.8190  179.1000  140.1680 C   0  0  2  0  0  3  0  0  0  0  0  0
  188.5730  176.7930  137.6830 C   0  0  0  0  0  0  0  0  0  0  0  0
  185.5900  175.2260  134.5940 O   0  0  0  0  0  1  0  0  0  0  0  0
  182.5760  179.7940  138.5590 N   0  0  0  0  0  0  0  0  0  0  0  0
  191.2470  176.0710  137.5100 C   0  0  0  0  0  3  0  0  0  0  0  0
  189.4590  177.2900  138.6420 C   0  0  0  0  0  3  0  0  0  0  0  0
  186.7940  177.8490  143.6300 C   0  0  0  0  0  0  0  0  0  0  0  0
  187.9650  177.3000  144.3710 C   0  0  0  0  0  1  0  0  0  0  0  0
  185.7540  178.7060  141.6150 C   0  0  0  0  0  0  0  0  0  0  0  0
  185.6210  178.0230  144.2940 N   0  0  0  0  0  0  0  0  0  0  0  0
  184.5640  178.8750  142.3350 C   0  0  0  0  0  3  0  0  0  0  0  0
  186.8870  178.1890  142.2680 C   0  0  0  0  0  0  0  0  0  0  0  0
  188.4060  177.9750  141.3920 Cl  0  0  0  0  0  0  0  0  0  0  0  0
  184.5140  178.5160  143.6810 C   0  0  0  0  0  0  0  0  0  0  0  0
  183.5700  179.1030  145.7590 O   0  0  0  0  0  1  0  0  0  0  0  0
  183.2600  178.7160  144.4560 C   0  0  0  0  0  2  0  0  0  0  0  0
  1  3  1  6  0  0  0
  1 17  1  0  0  0  0
  2 15  1  0  0  0  0
  4  2  1  0  0  0  0
  4  1  1  0  0  0  0
  5  7  1  0  0  0  0
  6 22  1  0  0  0  0
  7 18  1  0  0  0  0
  7  2  2  0  0  0  0
  8  9  2  0  0  0  0
  8 21  1  0  0  0  0
  9 18  1  0  0  0  0
 10 16  2  0  0  0  0
 10  5  1  0  0  0  0
 11  4  2  0  0  0  0
 12  5  2  0  0  0  0
 12  9  1  0  0  0  0
 13 11  1  0  0  0  0
 13 14  1  0  0  0  0
 14 20  1  0  0  0  0
 15 17  1  0  0  0  0
 16 11  1  0  0  0  0
 17 25  1  1  0  0  0
 18 22  2  0  0  0  0
 19 10  1  0  0  0  0
 20  3  2  0  0  0  0
 21  6  2  0  0  0  0
 23 26  1  0  0  0  0
 23 24  1  0  0  0  0
 25 28  1  0  0  0  0
 25 27  2  0  0  0  0
 27 30  1  0  0  0  0
 28 23  2  0  0  0  0
 29 28  1  0  0  0  0
 30 26  2  0  0  0  0
 30 32  1  0  0  0  0
 32 31  1  0  0  0  0
M  END
>  <MODEL>
9

>  <REMARK>
 VINA RESULT:      -7.3      2.405      7.288
  Name = 
  2 active torsions:
  status: ('A' for Active; 'I' for Inactive)
    1  A    between atoms: C_15  and  CA_26
    2  A    between atoms: C_16  and  C_27
                            x       y       z     vdW  Elec       q    Type
                         _______ _______ _______ _____ _____    ______ ____

>  <TORSDO>
F 2

$$$$
