=
 OpenBabel10262419213D

 31 35  0  0  1  0  0  0  0  0999 V2000
  186.6960  178.9480  140.5620 C   0  0  1  0  0  3  0  0  0  0  0  0
  184.2500  178.0090  142.4120 C   0  0  1  0  0  3  0  0  0  0  0  0
  183.2560  178.3660  141.2810 C   0  0  1  0  0  3  0  0  0  0  0  0
  185.8790  177.8480  145.0710 C   0  0  1  0  0  3  0  0  0  0  0  0
  181.9140  177.2250  139.4050 C   0  0  0  0  0  2  0  0  0  0  0  0
  185.4580  178.9920  142.5020 C   0  0  2  0  0  0  0  0  0  0  0  0
  187.1730  177.8630  141.5200 C   0  0  0  0  0  2  0  0  0  0  0  0
  183.2040  177.2440  140.2340 C   0  0  0  0  0  2  0  0  0  0  0  0
  184.6810  178.7780  144.6810 C   0  0  1  0  0  0  0  0  0  0  0  0
  186.1500  178.3630  139.4200 O   0  0  0  0  0  1  0  0  0  0  0  0
  181.8440  179.4710  143.0780 C   0  0  0  0  0  2  0  0  0  0  0  0
  181.6930  178.4800  138.5530 C   0  0  0  0  0  2  0  0  0  0  0  0
  185.1280  179.8560  143.6930 C   0  0  0  0  0  2  0  0  0  0  0  0
  183.6920  177.9390  143.8590 C   0  0  1  0  0  3  0  0  0  0  0  0
  184.0840  179.3440  145.8100 O   0  0  0  0  0  1  0  0  0  0  0  0
  185.6700  179.7290  141.2620 N   0  0  0  0  0  2  0  0  0  0  0  0
  181.9140  179.8100  139.2840 C   0  0  0  0  0  2  0  0  0  0  0  0
  186.5780  177.2690  143.8140 C   0  0  0  0  0  2  0  0  0  0  0  0
  186.7260  178.3280  142.8120 N   0  0  2  0  0  0  0  0  0  0  0  0
  182.2290  178.3680  144.0390 C   0  0  0  0  0  2  0  0  0  0  0  0
  181.8590  178.8790  141.6870 C   0  0  1  0  0  3  0  0  0  0  0  0
  181.2760  179.8790  140.6780 C   0  0  0  0  0  2  0  0  0  0  0  0
  186.9200  178.4180  146.0510 C   0  0  1  0  0  3  0  0  0  0  0  0
  186.0570  180.0750  147.5570 O   0  0  0  0  0  1  0  0  0  0  0  0
  187.4420  178.4810  148.4140 O   0  0  0  0  0  1  0  0  0  0  0  0
  186.4430  178.7370  147.4730 C   0  0  0  0  0  3  0  0  0  0  0  0
  188.2850  177.7970  145.9370 C   0  0  0  0  0  0  0  0  0  0  0  0
  188.5710  176.7330  146.6840 C   0  0  0  0  0  2  0  0  0  0  0  0
  189.3680  178.4310  145.1240 C   0  0  0  0  0  2  0  0  0  0  0  0
  190.1140  177.4480  144.4720 O   0  0  0  0  0  0  0  0  0  0  0  0
  191.3900  177.9960  144.3600 C   0  0  0  0  0  1  0  0  0  0  0  0
  1 10  1  6  0  0  0
  1 16  1  0  0  0  0
  1  7  1  0  0  0  0
  2  6  1  0  0  0  0
  2 14  1  0  0  0  0
  3 21  1  0  0  0  0
  3  2  1  0  0  0  0
  4 23  1  0  0  0  0
  5  8  1  0  0  0  0
  6 19  1  0  0  0  0
  6 13  1  0  0  0  0
  7 19  1  0  0  0  0
  8  3  1  0  0  0  0
  9  4  1  0  0  0  0
  9 15  1  0  0  0  0
 11 20  1  0  0  0  0
 12 17  1  0  0  0  0
 12  5  1  0  0  0  0
 13  9  1  0  0  0  0
 14 20  1  0  0  0  0
 14  9  1  0  0  0  0
 16  6  1  0  0  0  0
 17 22  1  0  0  0  0
 18  4  1  0  0  0  0
 19 18  1  0  0  0  0
 21 11  1  0  0  0  0
 22 21  1  0  0  0  0
 23 26  1  0  0  0  0
 26 24  1  0  0  0  0
 26 25  1  0  0  0  0
 27 23  1  0  0  0  0
 27 28  2  0  0  0  0
 29 27  1  0  0  0  0
 30 29  1  0  0  0  0
 31 30  1  0  0  0  0
M  END
>  <MODEL>
1

>  <REMARK>
 VINA RESULT:      -6.7      0.000      0.000
  Name = 
  5 active torsions:
  status: ('A' for Active; 'I' for Inactive)
    1  A    between atoms: O_1  and  C_8
    2  A    between atoms: C_7  and  C_22
    3  A    between atoms: C_8  and  C_19
    4  A    between atoms: C_9  and  C_22
    5  A    between atoms: C_19  and  C_22
                            x       y       z     vdW  Elec       q    Type
                         _______ _______ _______ _____ _____    ______ ____

>  <TORSDO>
F 5

$$$$
=
 OpenBabel10262419213D

 31 35  0  0  1  0  0  0  0  0999 V2000
  191.0160  176.8140  140.0970 C   0  0  1  0  0  3  0  0  0  0  0  0
  190.9740  176.6180  136.8960 C   0  0  1  0  0  3  0  0  0  0  0  0
  189.4350  176.7790  136.9050 C   0  0  1  0  0  3  0  0  0  0  0  0
  193.9090  175.6010  136.5800 C   0  0  1  0  0  3  0  0  0  0  0  0
  187.6420  178.5890  136.5430 C   0  0  0  0  0  2  0  0  0  0  0  0
  191.5120  175.7840  138.1000 C   0  0  2  0  0  0  0  0  0  0  0  0
  192.3320  177.3430  139.5400 C   0  0  0  0  0  2  0  0  0  0  0  0
  189.0480  178.2570  137.0560 C   0  0  0  0  0  2  0  0  0  0  0  0
  192.5570  174.8950  136.2250 C   0  0  1  0  0  0  0  0  0  0  0  0
  190.0670  177.8350  140.1180 O   0  0  0  0  0  1  0  0  0  0  0  0
  189.3780  174.8740  135.2290 C   0  0  0  0  0  2  0  0  0  0  0  0
  186.5110  177.8740  137.2920 C   0  0  0  0  0  2  0  0  0  0  0  0
  191.8290  174.4420  137.4900 C   0  0  0  0  0  2  0  0  0  0  0  0
  191.6170  175.9620  135.6450 C   0  0  1  0  0  3  0  0  0  0  0  0
  192.7530  173.8280  135.3430 O   0  0  0  0  0  1  0  0  0  0  0  0
  190.5680  175.7350  139.2100 N   0  0  0  0  0  2  0  0  0  0  0  0
  186.7260  176.3730  137.5180 C   0  0  0  0  0  2  0  0  0  0  0  0
  193.6980  176.7450  137.6040 C   0  0  0  0  0  2  0  0  0  0  0  0
  192.7700  176.2970  138.6470 N   0  0  2  0  0  0  0  0  0  0  0  0
  190.6410  175.4120  134.5940 C   0  0  0  0  0  2  0  0  0  0  0  0
  188.6290  176.0520  135.8080 C   0  0  1  0  0  3  0  0  0  0  0  0
  187.2370  175.6150  136.2840 C   0  0  0  0  0  2  0  0  0  0  0  0
  195.0780  174.6990  137.0160 C   0  0  1  0  0  3  0  0  0  0  0  0
  195.3570  173.3690  138.9940 O   0  0  0  0  0  1  0  0  0  0  0  0
  195.1030  172.2780  137.0090 O   0  0  0  0  0  1  0  0  0  0  0  0
  194.7260  173.4000  137.7500 C   0  0  0  0  0  3  0  0  0  0  0  0
  196.1980  174.6080  136.0160 C   0  0  0  0  0  0  0  0  0  0  0  0
  195.9290  174.1780  134.7870 C   0  0  0  0  0  2  0  0  0  0  0  0
  197.6210  174.8460  136.4120 C   0  0  0  0  0  2  0  0  0  0  0  0
  197.6780  175.3420  137.7150 O   0  0  0  0  0  0  0  0  0  0  0  0
  198.5770  174.5020  138.3690 C   0  0  0  0  0  1  0  0  0  0  0  0
  1 10  1  6  0  0  0
  2  3  1  0  0  0  0
  2  6  1  0  0  0  0
  3  8  1  0  0  0  0
  4 23  1  0  0  0  0
  4 18  1  0  0  0  0
  5  8  1  0  0  0  0
  5 12  1  0  0  0  0
  6 19  1  0  0  0  0
  6 16  1  0  0  0  0
  7  1  1  0  0  0  0
  9  4  1  0  0  0  0
  9 13  1  0  0  0  0
 11 21  1  0  0  0  0
 12 17  1  0  0  0  0
 13  6  1  0  0  0  0
 14  9  1  0  0  0  0
 14  2  1  0  0  0  0
 15  9  1  0  0  0  0
 16  1  1  0  0  0  0
 18 19  1  0  0  0  0
 19  7  1  0  0  0  0
 20 11  1  0  0  0  0
 20 14  1  0  0  0  0
 21 22  1  0  0  0  0
 21  3  1  0  0  0  0
 22 17  1  0  0  0  0
 23 26  1  0  0  0  0
 25 26  1  0  0  0  0
 26 24  1  0  0  0  0
 27 29  1  0  0  0  0
 27 23  1  0  0  0  0
 28 27  2  0  0  0  0
 29 30  1  0  0  0  0
 30 31  1  0  0  0  0
M  END
>  <MODEL>
2

>  <REMARK>
 VINA RESULT:      -6.5      7.528     10.414
  Name = 
  5 active torsions:
  status: ('A' for Active; 'I' for Inactive)
    1  A    between atoms: O_1  and  C_8
    2  A    between atoms: C_7  and  C_22
    3  A    between atoms: C_8  and  C_19
    4  A    between atoms: C_9  and  C_22
    5  A    between atoms: C_19  and  C_22
                            x       y       z     vdW  Elec       q    Type
                         _______ _______ _______ _____ _____    ______ ____

>  <TORSDO>
F 5

$$$$
=
 OpenBabel10262419213D

 31 35  0  0  1  0  0  0  0  0999 V2000
  186.5020  177.4250  142.9430 C   0  0  1  0  0  3  0  0  0  0  0  0
  189.6160  177.8880  142.3350 C   0  0  1  0  0  3  0  0  0  0  0  0
  189.3400  177.7630  140.8180 C   0  0  1  0  0  3  0  0  0  0  0  0
  190.5950  177.5060  145.2750 C   0  0  1  0  0  3  0  0  0  0  0  0
  188.9970  179.2530  138.7490 C   0  0  0  0  0  2  0  0  0  0  0  0
  188.7350  176.9350  143.2020 C   0  0  2  0  0  0  0  0  0  0  0  0
  187.1090  178.2860  144.0440 C   0  0  0  0  0  2  0  0  0  0  0  0
  188.7920  179.0830  140.2580 C   0  0  0  0  0  2  0  0  0  0  0  0
  190.9000  176.6560  143.9960 C   0  0  1  0  0  0  0  0  0  0  0  0
  186.1000  178.2310  141.8790 O   0  0  0  0  0  1  0  0  0  0  0  0
  191.3870  176.2660  140.7230 C   0  0  0  0  0  2  0  0  0  0  0  0
  188.2750  178.2070  137.8910 C   0  0  0  0  0  2  0  0  0  0  0  0
  189.6820  175.8280  143.5890 C   0  0  0  0  0  2  0  0  0  0  0  0
  191.0680  177.6320  142.8220 C   0  0  1  0  0  3  0  0  0  0  0  0
  192.0260  175.8470  144.1750 O   0  0  0  0  0  1  0  0  0  0  0  0
  187.5390  176.4890  142.4970 N   0  0  0  0  0  2  0  0  0  0  0  0
  188.4420  176.7560  138.3570 C   0  0  0  0  0  2  0  0  0  0  0  0
  189.3130  178.3570  145.0960 C   0  0  0  0  0  2  0  0  0  0  0  0
  188.2770  177.5430  144.4520 N   0  0  2  0  0  0  0  0  0  0  0  0
  192.0600  177.1430  141.7570 C   0  0  0  0  0  2  0  0  0  0  0  0
  190.4440  177.1440  139.9350 C   0  0  1  0  0  3  0  0  0  0  0  0
  189.8810  176.3730  138.7320 C   0  0  0  0  0  2  0  0  0  0  0  0
  190.5620  176.7600  146.6220 C   0  0  1  0  0  3  0  0  0  0  0  0
  191.6790  174.8770  147.6040 O   0  0  0  0  0  1  0  0  0  0  0  0
  192.4310  176.9590  148.1480 O   0  0  0  0  0  1  0  0  0  0  0  0
  191.8840  176.1740  147.1310 C   0  0  0  0  0  3  0  0  0  0  0  0
  189.6780  177.3940  147.6610 C   0  0  0  0  0  0  0  0  0  0  0  0
  190.1790  178.3580  148.4290 C   0  0  0  0  0  2  0  0  0  0  0  0
  188.3080  176.8670  147.9490 C   0  0  0  0  0  2  0  0  0  0  0  0
  187.5330  177.8580  148.5520 O   0  0  0  0  0  0  0  0  0  0  0  0
  186.6340  178.2480  147.5620 C   0  0  0  0  0  1  0  0  0  0  0  0
  1 10  1  6  0  0  0
  1  7  1  0  0  0  0
  2 14  1  0  0  0  0
  2  6  1  0  0  0  0
  3  2  1  0  0  0  0
  4 23  1  0  0  0  0
  5  8  1  0  0  0  0
  6 13  1  0  0  0  0
  6 19  1  0  0  0  0
  7 19  1  0  0  0  0
  8  3  1  0  0  0  0
  9 15  1  0  0  0  0
  9  4  1  0  0  0  0
 11 20  1  0  0  0  0
 12 17  1  0  0  0  0
 12  5  1  0  0  0  0
 13  9  1  0  0  0  0
 14  9  1  0  0  0  0
 16  1  1  0  0  0  0
 16  6  1  0  0  0  0
 17 22  1  0  0  0  0
 18  4  1  0  0  0  0
 19 18  1  0  0  0  0
 20 14  1  0  0  0  0
 21 11  1  0  0  0  0
 21  3  1  0  0  0  0
 22 21  1  0  0  0  0
 23 26  1  0  0  0  0
 23 27  1  0  0  0  0
 26 24  1  0  0  0  0
 26 25  1  0  0  0  0
 27 29  1  0  0  0  0
 27 28  2  0  0  0  0
 29 30  1  0  0  0  0
 31 30  1  0  0  0  0
M  END
>  <MODEL>
3

>  <REMARK>
 VINA RESULT:      -6.0      3.461      6.108
  Name = 
  5 active torsions:
  status: ('A' for Active; 'I' for Inactive)
    1  A    between atoms: O_1  and  C_8
    2  A    between atoms: C_7  and  C_22
    3  A    between atoms: C_8  and  C_19
    4  A    between atoms: C_9  and  C_22
    5  A    between atoms: C_19  and  C_22
                            x       y       z     vdW  Elec       q    Type
                         _______ _______ _______ _____ _____    ______ ____

>  <TORSDO>
F 5

$$$$
=
 OpenBabel10262419213D

 31 35  0  0  1  0  0  0  0  0999 V2000
  187.7190  177.8580  137.3660 C   0  0  1  0  0  3  0  0  0  0  0  0
  188.2630  175.0890  135.8440 C   0  0  1  0  0  3  0  0  0  0  0  0
  186.8390  174.6070  136.2080 C   0  0  1  0  0  3  0  0  0  0  0  0
  191.3490  175.4630  135.5520 C   0  0  1  0  0  3  0  0  0  0  0  0
  184.4980  174.4070  135.1560 C   0  0  0  0  0  2  0  0  0  0  0  0
  188.9290  175.9420  136.9670 C   0  0  2  0  0  0  0  0  0  0  0  0
  188.7190  178.0880  136.2390 C   0  0  0  0  0  2  0  0  0  0  0  0
  185.8040  175.2060  135.2440 C   0  0  0  0  0  2  0  0  0  0  0  0
  190.5380  174.3850  136.3470 C   0  0  1  0  0  0  0  0  0  0  0  0
  186.4190  177.9570  136.8720 O   0  0  0  0  0  1  0  0  0  0  0  0
  187.9120  172.3960  136.8430 C   0  0  0  0  0  2  0  0  0  0  0  0
  183.7160  174.3280  136.4720 C   0  0  0  0  0  2  0  0  0  0  0  0
  189.9110  174.9910  137.6030 C   0  0  0  0  0  2  0  0  0  0  0  0
  189.3180  174.0040  135.4970 C   0  0  1  0  0  3  0  0  0  0  0  0
  191.3310  173.2780  136.6620 O   0  0  0  0  0  1  0  0  0  0  0  0
  187.9520  176.5080  137.8900 N   0  0  0  0  0  2  0  0  0  0  0  0
  184.5520  173.9710  137.7070 C   0  0  0  0  0  2  0  0  0  0  0  0
  190.4860  176.7160  135.2570 C   0  0  0  0  0  2  0  0  0  0  0  0
  189.7150  177.0660  136.4540 N   0  0  2  0  0  0  0  0  0  0  0  0
  188.8730  172.5460  135.6840 C   0  0  0  0  0  2  0  0  0  0  0  0
  186.6300  173.0980  136.4560 C   0  0  1  0  0  3  0  0  0  0  0  0
  185.5340  172.8110  137.4920 C   0  0  0  0  0  2  0  0  0  0  0  0
  192.7170  175.8750  136.1240 C   0  0  1  0  0  3  0  0  0  0  0  0
  193.4090  176.8700  138.1950 O   0  0  0  0  0  1  0  0  0  0  0  0
  193.8370  174.6530  137.8890 O   0  0  0  0  0  1  0  0  0  0  0  0
  192.9340  175.6870  137.6300 C   0  0  0  0  0  3  0  0  0  0  0  0
  193.8870  175.5350  135.2420 C   0  0  0  0  0  0  0  0  0  0  0  0
  193.9200  174.3430  134.6510 C   0  0  0  0  0  2  0  0  0  0  0  0
  195.0750  176.4370  135.1340 C   0  0  0  0  0  2  0  0  0  0  0  0
  196.0760  176.0150  136.0100 O   0  0  0  0  0  0  0  0  0  0  0  0
  197.2330  175.9960  135.2340 C   0  0  0  0  0  1  0  0  0  0  0  0
  1 10  1  6  0  0  0
  1 16  1  0  0  0  0
  2  3  1  0  0  0  0
  2  6  1  0  0  0  0
  3 21  1  0  0  0  0
  4 23  1  0  0  0  0
  4  9  1  0  0  0  0
  5  8  1  0  0  0  0
  5 12  1  0  0  0  0
  6 13  1  0  0  0  0
  6 16  1  0  0  0  0
  7 19  1  0  0  0  0
  7  1  1  0  0  0  0
  8  3  1  0  0  0  0
  9 15  1  0  0  0  0
  9 13  1  0  0  0  0
 12 17  1  0  0  0  0
 14 20  1  0  0  0  0
 14  2  1  0  0  0  0
 14  9  1  0  0  0  0
 18  4  1  0  0  0  0
 18 19  1  0  0  0  0
 19  6  1  0  0  0  0
 20 11  1  0  0  0  0
 21 11  1  0  0  0  0
 21 22  1  0  0  0  0
 22 17  1  0  0  0  0
 23 26  1  0  0  0  0
 26 25  1  0  0  0  0
 26 24  1  0  0  0  0
 27 23  1  0  0  0  0
 28 27  2  0  0  0  0
 29 27  1  0  0  0  0
 29 30  1  0  0  0  0
 31 30  1  0  0  0  0
M  END
>  <MODEL>
4

>  <REMARK>
 VINA RESULT:      -5.9      7.317      9.650
  Name = 
  5 active torsions:
  status: ('A' for Active; 'I' for Inactive)
    1  A    between atoms: O_1  and  C_8
    2  A    between atoms: C_7  and  C_22
    3  A    between atoms: C_8  and  C_19
    4  A    between atoms: C_9  and  C_22
    5  A    between atoms: C_19  and  C_22
                            x       y       z     vdW  Elec       q    Type
                         _______ _______ _______ _____ _____    ______ ____

>  <TORSDO>
F 5

$$$$
=
 OpenBabel10262419213D

 31 35  0  0  1  0  0  0  0  0999 V2000
  193.2850  177.3160  139.1050 C   0  0  1  0  0  3  0  0  0  0  0  0
  192.6060  174.6670  137.4310 C   0  0  1  0  0  3  0  0  0  0  0  0
  194.1170  174.3620  137.2970 C   0  0  1  0  0  3  0  0  0  0  0  0
  189.5990  175.3420  136.9330 C   0  0  1  0  0  3  0  0  0  0  0  0
  195.9320  172.8860  138.3700 C   0  0  0  0  0  2  0  0  0  0  0  0
  192.2770  176.1910  137.3690 C   0  0  2  0  0  0  0  0  0  0  0  0
  191.9280  176.7770  139.5400 C   0  0  0  0  0  2  0  0  0  0  0  0
  194.6500  173.7020  138.5760 C   0  0  0  0  0  2  0  0  0  0  0  0
  190.7750  175.1820  135.9120 C   0  0  1  0  0  0  0  0  0  0  0  0
  194.2970  176.6860  139.8280 O   0  0  0  0  0  1  0  0  0  0  0  0
  193.6450  173.8610  134.8540 C   0  0  0  0  0  2  0  0  0  0  0  0
  197.1350  173.7110  137.8980 C   0  0  0  0  0  2  0  0  0  0  0  0
  191.7230  176.3800  135.9800 C   0  0  0  0  0  2  0  0  0  0  0  0
  191.6510  174.0170  136.3940 C   0  0  1  0  0  3  0  0  0  0  0  0
  190.3020  174.9850  134.6120 O   0  0  0  0  0  1  0  0  0  0  0  0
  193.4350  177.0220  137.6760 N   0  0  0  0  0  2  0  0  0  0  0  0
  196.8500  174.6780  136.7430 C   0  0  0  0  0  2  0  0  0  0  0  0
  190.1250  175.6210  138.3640 C   0  0  0  0  0  2  0  0  0  0  0  0
  191.2180  176.5950  138.2960 N   0  0  2  0  0  0  0  0  0  0  0  0
  192.3220  173.2420  135.2510 C   0  0  0  0  0  2  0  0  0  0  0  0
  194.5980  173.6610  136.0100 C   0  0  1  0  0  3  0  0  0  0  0  0
  196.0200  174.0740  135.6030 C   0  0  0  0  0  2  0  0  0  0  0  0
  188.4830  176.3380  136.5670 C   0  0  1  0  0  3  0  0  0  0  0  0
  187.1630  174.3600  136.2470 O   0  0  0  0  0  1  0  0  0  0  0  0
  186.7380  176.1480  134.9000 O   0  0  0  0  0  1  0  0  0  0  0  0
  187.1190  175.7520  136.1840 C   0  0  0  0  0  3  0  0  0  0  0  0
  188.4520  177.5770  137.4190 C   0  0  0  0  0  0  0  0  0  0  0  0
  189.0740  178.6710  136.9850 C   0  0  0  0  0  2  0  0  0  0  0  0
  187.8730  177.5650  138.7980 C   0  0  0  0  0  2  0  0  0  0  0  0
  188.2980  178.6910  139.5040 O   0  0  0  0  0  0  0  0  0  0  0  0
  188.6810  178.1980  140.7490 C   0  0  0  0  0  1  0  0  0  0  0  0
  1  7  1  0  0  0  0
  1 10  1  1  0  0  0
  3  2  1  0  0  0  0
  3  8  1  0  0  0  0
  4 18  1  0  0  0  0
  5  8  1  0  0  0  0
  6  2  1  0  0  0  0
  6 16  1  0  0  0  0
  6 19  1  0  0  0  0
  9 13  1  0  0  0  0
  9 14  1  0  0  0  0
  9  4  1  0  0  0  0
 11 20  1  0  0  0  0
 11 21  1  0  0  0  0
 12  5  1  0  0  0  0
 13  6  1  0  0  0  0
 14  2  1  0  0  0  0
 15  9  1  0  0  0  0
 16  1  1  0  0  0  0
 17 12  1  0  0  0  0
 19 18  1  0  0  0  0
 19  7  1  0  0  0  0
 20 14  1  0  0  0  0
 21  3  1  0  0  0  0
 22 21  1  0  0  0  0
 22 17  1  0  0  0  0
 23  4  1  0  0  0  0
 23 27  1  0  0  0  0
 25 26  1  0  0  0  0
 26 24  1  0  0  0  0
 26 23  1  0  0  0  0
 27 29  1  0  0  0  0
 28 27  2  0  0  0  0
 29 30  1  0  0  0  0
 30 31  1  0  0  0  0
M  END
>  <MODEL>
5

>  <REMARK>
 VINA RESULT:      -5.7      7.083     11.312
  Name = 
  5 active torsions:
  status: ('A' for Active; 'I' for Inactive)
    1  A    between atoms: O_1  and  C_8
    2  A    between atoms: C_7  and  C_22
    3  A    between atoms: C_8  and  C_19
    4  A    between atoms: C_9  and  C_22
    5  A    between atoms: C_19  and  C_22
                            x       y       z     vdW  Elec       q    Type
                         _______ _______ _______ _____ _____    ______ ____

>  <TORSDO>
F 5

$$$$
=
 OpenBabel10262419213D

 31 35  0  0  1  0  0  0  0  0999 V2000
  186.5820  179.3380  141.4100 C   0  0  1  0  0  3  0  0  0  0  0  0
  188.5380  176.9730  142.3380 C   0  0  1  0  0  3  0  0  0  0  0  0
  188.2090  177.2790  143.8180 C   0  0  1  0  0  3  0  0  0  0  0  0
  189.9150  176.5640  139.5650 C   0  0  1  0  0  3  0  0  0  0  0  0
  186.7100  176.4140  145.7230 C   0  0  0  0  0  2  0  0  0  0  0  0
  188.6100  178.2510  141.4460 C   0  0  2  0  0  0  0  0  0  0  0  0
  186.6280  178.2660  140.3280 C   0  0  0  0  0  2  0  0  0  0  0  0
  186.8680  176.6460  144.2150 C   0  0  0  0  0  2  0  0  0  0  0  0
  190.5220  177.0370  140.9280 C   0  0  1  0  0  0  0  0  0  0  0  0
  185.6170  179.0100  142.3600 O   0  0  0  0  0  1  0  0  0  0  0  0
  190.7020  177.0860  144.2550 C   0  0  0  0  0  2  0  0  0  0  0  0
  186.7310  177.6960  146.5640 C   0  0  0  0  0  2  0  0  0  0  0  0
  190.0890  178.4670  141.2510 C   0  0  0  0  0  2  0  0  0  0  0  0
  189.8590  176.2130  142.0410 C   0  0  1  0  0  3  0  0  0  0  0  0
  191.9140  176.9160  140.9380 O   0  0  0  0  0  1  0  0  0  0  0  0
  187.9070  179.3830  142.0380 N   0  0  0  0  0  2  0  0  0  0  0  0
  187.8570  178.6790  146.2250 C   0  0  0  0  0  2  0  0  0  0  0  0
  188.3770  176.7560  139.5340 C   0  0  0  0  0  2  0  0  0  0  0  0
  188.0400  178.0610  140.1110 N   0  0  2  0  0  0  0  0  0  0  0  0
  190.7770  175.9610  143.2460 C   0  0  0  0  0  2  0  0  0  0  0  0
  189.3190  177.0490  144.8640 C   0  0  1  0  0  3  0  0  0  0  0  0
  189.2350  178.0260  146.0460 C   0  0  0  0  0  2  0  0  0  0  0  0
  190.5530  177.1230  138.2810 C   0  0  1  0  0  3  0  0  0  0  0  0
  191.5880  174.9740  138.0250 O   0  0  0  0  0  1  0  0  0  0  0  0
  192.9410  176.8070  138.0480 O   0  0  0  0  0  1  0  0  0  0  0  0
  191.6950  176.3140  137.6550 C   0  0  0  0  0  3  0  0  0  0  0  0
  189.5740  177.7350  137.3160 C   0  0  0  0  0  0  0  0  0  0  0  0
  189.2620  179.0220  137.4480 C   0  0  0  0  0  2  0  0  0  0  0  0
  188.8350  176.9020  136.3170 C   0  0  0  0  0  2  0  0  0  0  0  0
  187.5530  177.4170  136.1210 O   0  0  0  0  0  0  0  0  0  0  0  0
  186.7150  176.3080  136.2160 C   0  0  0  0  0  1  0  0  0  0  0  0
  1 16  1  0  0  0  0
  1 10  1  1  0  0  0
  2  3  1  0  0  0  0
  3  8  1  0  0  0  0
  3 21  1  0  0  0  0
  4  9  1  0  0  0  0
  5 12  1  0  0  0  0
  6 16  1  0  0  0  0
  6  2  1  0  0  0  0
  7  1  1  0  0  0  0
  8  5  1  0  0  0  0
  9 15  1  0  0  0  0
  9 13  1  0  0  0  0
  9 14  1  0  0  0  0
 11 21  1  0  0  0  0
 13  6  1  0  0  0  0
 14  2  1  0  0  0  0
 14 20  1  0  0  0  0
 17 12  1  0  0  0  0
 18  4  1  0  0  0  0
 18 19  1  0  0  0  0
 19  7  1  0  0  0  0
 19  6  1  0  0  0  0
 20 11  1  0  0  0  0
 21 22  1  0  0  0  0
 22 17  1  0  0  0  0
 23  4  1  0  0  0  0
 26 24  1  0  0  0  0
 26 25  1  0  0  0  0
 26 23  1  0  0  0  0
 27 28  2  0  0  0  0
 27 23  1  0  0  0  0
 29 27  1  0  0  0  0
 30 31  1  0  0  0  0
 30 29  1  0  0  0  0
M  END
>  <MODEL>
6

>  <REMARK>
 VINA RESULT:      -5.5      3.476      7.797
  Name = 
  5 active torsions:
  status: ('A' for Active; 'I' for Inactive)
    1  A    between atoms: O_1  and  C_8
    2  A    between atoms: C_7  and  C_22
    3  A    between atoms: C_8  and  C_19
    4  A    between atoms: C_9  and  C_22
    5  A    between atoms: C_19  and  C_22
                            x       y       z     vdW  Elec       q    Type
                         _______ _______ _______ _____ _____    ______ ____

>  <TORSDO>
F 5

$$$$
=
 OpenBabel10262419213D

 31 35  0  0  1  0  0  0  0  0999 V2000
  183.7400  176.5320  136.4890 C   0  0  1  0  0  3  0  0  0  0  0  0
  184.9230  178.6090  138.6270 C   0  0  1  0  0  3  0  0  0  0  0  0
  186.3590  178.1410  138.2890 C   0  0  1  0  0  3  0  0  0  0  0  0
  182.2000  179.2650  140.0050 C   0  0  1  0  0  3  0  0  0  0  0  0
  188.3850  178.8640  136.8770 C   0  0  0  0  0  2  0  0  0  0  0  0
  183.8760  177.4530  138.5940 C   0  0  2  0  0  0  0  0  0  0  0  0
  182.8020  177.7270  136.6060 C   0  0  0  0  0  2  0  0  0  0  0  0
  186.8580  178.8160  137.0030 C   0  0  0  0  0  2  0  0  0  0  0  0
  183.4810  178.5790  140.5870 C   0  0  1  0  0  0  0  0  0  0  0  0
  184.7430  176.8060  135.5600 O   0  0  0  0  0  1  0  0  0  0  0  0
  186.7700  178.0930  140.7930 C   0  0  0  0  0  2  0  0  0  0  0  0
  189.0570  177.4870  136.8080 C   0  0  0  0  0  2  0  0  0  0  0  0
  183.6270  177.1550  140.0510 C   0  0  0  0  0  2  0  0  0  0  0  0
  184.7010  179.3010  139.9980 C   0  0  1  0  0  3  0  0  0  0  0  0
  183.4800  178.5950  141.9850 O   0  0  0  0  0  1  0  0  0  0  0  0
  184.3330  176.3100  137.8130 N   0  0  0  0  0  2  0  0  0  0  0  0
  188.5750  176.4750  137.8540 C   0  0  0  0  0  2  0  0  0  0  0  0
  182.1730  179.1930  138.4570 C   0  0  0  0  0  2  0  0  0  0  0  0
  182.5860  177.8530  138.0280 N   0  0  2  0  0  0  0  0  0  0  0  0
  185.9110  179.3290  140.9440 C   0  0  0  0  0  2  0  0  0  0  0  0
  187.4050  178.1530  139.4230 C   0  0  1  0  0  3  0  0  0  0  0  0
  188.4550  177.0430  139.2760 C   0  0  0  0  0  2  0  0  0  0  0  0
  180.8430  178.8290  140.5870 C   0  0  1  0  0  3  0  0  0  0  0  0
  180.0840  181.1060  140.6260 O   0  0  0  0  0  1  0  0  0  0  0  0
  180.4680  180.0810  142.6250 O   0  0  0  0  0  1  0  0  0  0  0  0
  180.0180  179.8960  141.3170 C   0  0  0  0  0  3  0  0  0  0  0  0
  180.0690  177.8790  139.7140 C   0  0  0  0  0  0  0  0  0  0  0  0
  179.1520  178.3710  138.8850 C   0  0  0  0  0  2  0  0  0  0  0  0
  180.2000  176.3970  139.8640 C   0  0  0  0  0  2  0  0  0  0  0  0
  179.7830  175.7610  138.6930 O   0  0  0  0  0  0  0  0  0  0  0  0
  180.7740  174.8150  138.4400 C   0  0  0  0  0  1  0  0  0  0  0  0
  1 10  1  6  0  0  0
  1  7  1  0  0  0  0
  1 16  1  0  0  0  0
  2 14  1  0  0  0  0
  3  2  1  0  0  0  0
  3 21  1  0  0  0  0
  4  9  1  0  0  0  0
  4 23  1  0  0  0  0
  5  8  1  0  0  0  0
  6  2  1  0  0  0  0
  6 13  1  0  0  0  0
  7 19  1  0  0  0  0
  8  3  1  0  0  0  0
  9 15  1  0  0  0  0
 11 20  1  0  0  0  0
 12  5  1  0  0  0  0
 12 17  1  0  0  0  0
 13  9  1  0  0  0  0
 14  9  1  0  0  0  0
 14 20  1  0  0  0  0
 16  6  1  0  0  0  0
 17 22  1  0  0  0  0
 18  4  1  0  0  0  0
 19 18  1  0  0  0  0
 19  6  1  0  0  0  0
 21 11  1  0  0  0  0
 22 21  1  0  0  0  0
 23 26  1  0  0  0  0
 24 26  1  0  0  0  0
 26 25  1  0  0  0  0
 27 29  1  0  0  0  0
 27 23  1  0  0  0  0
 28 27  2  0  0  0  0
 30 29  1  0  0  0  0
 31 30  1  0  0  0  0
M  END
>  <MODEL>
7

>  <REMARK>
 VINA RESULT:      -5.5      4.165      7.447
  Name = 
  5 active torsions:
  status: ('A' for Active; 'I' for Inactive)
    1  A    between atoms: O_1  and  C_8
    2  A    between atoms: C_7  and  C_22
    3  A    between atoms: C_8  and  C_19
    4  A    between atoms: C_9  and  C_22
    5  A    between atoms: C_19  and  C_22
                            x       y       z     vdW  Elec       q    Type
                         _______ _______ _______ _____ _____    ______ ____

>  <TORSDO>
F 5

$$$$
=
 OpenBabel10262419213D

 31 35  0  0  1  0  0  0  0  0999 V2000
  189.4980  176.1190  142.3310 C   0  0  1  0  0  3  0  0  0  0  0  0
  187.8100  178.2010  144.0910 C   0  0  1  0  0  3  0  0  0  0  0  0
  188.5990  177.7790  145.3520 C   0  0  1  0  0  3  0  0  0  0  0  0
  185.6170  178.7640  141.9400 C   0  0  1  0  0  3  0  0  0  0  0  0
  190.5710  178.5760  146.8010 C   0  0  0  0  0  2  0  0  0  0  0  0
  187.5290  177.0170  143.1150 C   0  0  2  0  0  0  0  0  0  0  0  0
  189.0610  177.2860  141.4540 C   0  0  0  0  0  2  0  0  0  0  0  0
  189.9630  178.4830  145.3970 C   0  0  0  0  0  2  0  0  0  0  0  0
  185.4910  178.1060  143.3550 C   0  0  1  0  0  0  0  0  0  0  0  0
  190.6930  176.4340  142.9760 O   0  0  0  0  0  1  0  0  0  0  0  0
  186.3610  177.7100  146.5470 C   0  0  0  0  0  2  0  0  0  0  0  0
  190.8800  177.2200  147.4460 C   0  0  0  0  0  2  0  0  0  0  0  0
  186.0760  176.6940  143.3540 C   0  0  0  0  0  2  0  0  0  0  0  0
  186.4250  178.8700  144.3060 C   0  0  1  0  0  3  0  0  0  0  0  0
  184.1670  178.1050  143.8030 O   0  0  0  0  0  1  0  0  0  0  0  0
  188.4390  175.8970  143.3230 N   0  0  0  0  0  2  0  0  0  0  0  0
  189.7570  176.1810  147.3490 C   0  0  0  0  0  2  0  0  0  0  0  0
  187.0760  178.7100  141.4190 C   0  0  0  0  0  2  0  0  0  0  0  0
  187.6430  177.3890  141.7030 N   0  0  2  0  0  0  0  0  0  0  0  0
  185.9160  178.9190  145.7540 C   0  0  0  0  0  2  0  0  0  0  0  0
  187.8610  177.8060  146.7070 C   0  0  1  0  0  3  0  0  0  0  0  0
  188.3610  176.7270  147.6790 C   0  0  0  0  0  2  0  0  0  0  0  0
  184.6400  178.2830  140.8530 C   0  0  1  0  0  3  0  0  0  0  0  0
  182.5150  177.3060  140.3170 O   0  0  0  0  0  1  0  0  0  0  0  0
  182.5180  179.3210  141.3800 O   0  0  0  0  0  1  0  0  0  0  0  0
  183.1740  178.0950  141.2600 C   0  0  0  0  0  3  0  0  0  0  0  0
  184.8750  178.8870  139.4950 C   0  0  0  0  0  0  0  0  0  0  0  0
  184.3330  180.0700  139.2170 C   0  0  0  0  0  2  0  0  0  0  0  0
  185.5710  178.1280  138.4100 C   0  0  0  0  0  2  0  0  0  0  0  0
  186.7010  178.8280  137.9870 O   0  0  0  0  0  0  0  0  0  0  0  0
  187.6870  177.8520  137.8570 C   0  0  0  0  0  1  0  0  0  0  0  0
  1 10  1  1  0  0  0
  1 16  1  0  0  0  0
  2 14  1  0  0  0  0
  2  3  1  0  0  0  0
  3  8  1  0  0  0  0
  3 21  1  0  0  0  0
  4  9  1  0  0  0  0
  5 12  1  0  0  0  0
  6 16  1  0  0  0  0
  6 13  1  0  0  0  0
  6  2  1  0  0  0  0
  7 19  1  0  0  0  0
  7  1  1  0  0  0  0
  8  5  1  0  0  0  0
  9 15  1  0  0  0  0
  9 14  1  0  0  0  0
 11 21  1  0  0  0  0
 13  9  1  0  0  0  0
 14 20  1  0  0  0  0
 17 12  1  0  0  0  0
 17 22  1  0  0  0  0
 18 19  1  0  0  0  0
 18  4  1  0  0  0  0
 19  6  1  0  0  0  0
 20 11  1  0  0  0  0
 21 22  1  0  0  0  0
 23 26  1  0  0  0  0
 23  4  1  0  0  0  0
 24 26  1  0  0  0  0
 26 25  1  0  0  0  0
 27 23  1  0  0  0  0
 28 27  2  0  0  0  0
 29 27  1  0  0  0  0
 30 29  1  0  0  0  0
 31 30  1  0  0  0  0
M  END
>  <MODEL>
8

>  <REMARK>
 VINA RESULT:      -5.5      2.206      6.908
  Name = 
  5 active torsions:
  status: ('A' for Active; 'I' for Inactive)
    1  A    between atoms: O_1  and  C_8
    2  A    between atoms: C_7  and  C_22
    3  A    between atoms: C_8  and  C_19
    4  A    between atoms: C_9  and  C_22
    5  A    between atoms: C_19  and  C_22
                            x       y       z     vdW  Elec       q    Type
                         _______ _______ _______ _____ _____    ______ ____

>  <TORSDO>
F 5

$$$$
=
 OpenBabel10262419213D

 31 35  0  0  1  0  0  0  0  0999 V2000
  184.5560  179.1030  140.1280 C   0  0  1  0  0  3  0  0  0  0  0  0
  184.6770  176.7360  137.9680 C   0  0  1  0  0  3  0  0  0  0  0  0
  186.0230  177.2850  137.4380 C   0  0  1  0  0  3  0  0  0  0  0  0
  181.7190  175.8010  138.3240 C   0  0  1  0  0  3  0  0  0  0  0  0
  188.5500  176.8480  137.6510 C   0  0  0  0  0  2  0  0  0  0  0  0
  183.6830  177.8570  138.4020 C   0  0  2  0  0  0  0  0  0  0  0  0
  183.8240  177.8830  140.6730 C   0  0  0  0  0  2  0  0  0  0  0  0
  187.1810  176.8390  138.3420 C   0  0  0  0  0  2  0  0  0  0  0  0
  182.4360  176.4150  137.0740 C   0  0  1  0  0  0  0  0  0  0  0  0
  185.9170  179.0060  140.4160 O   0  0  0  0  0  1  0  0  0  0  0  0
  185.0760  176.9370  135.1100 C   0  0  0  0  0  2  0  0  0  0  0  0
  189.0120  178.2330  137.1830 C   0  0  0  0  0  2  0  0  0  0  0  0
  182.6880  177.9090  137.2700 C   0  0  0  0  0  2  0  0  0  0  0  0
  183.8530  175.8260  137.0180 C   0  0  1  0  0  3  0  0  0  0  0  0
  181.7160  176.1720  135.9010 O   0  0  0  0  0  1  0  0  0  0  0  0
  184.3540  179.1220  138.6750 N   0  0  0  0  0  2  0  0  0  0  0  0
  187.9570  179.0510  136.4290 C   0  0  0  0  0  2  0  0  0  0  0  0
  182.4880  176.1230  139.6310 C   0  0  0  0  0  2  0  0  0  0  0  0
  182.9200  177.5230  139.6070 N   0  0  2  0  0  0  0  0  0  0  0  0
  184.3960  175.6730  135.5900 C   0  0  0  0  0  2  0  0  0  0  0  0
  186.3290  177.1140  135.9360 C   0  0  1  0  0  3  0  0  0  0  0  0
  187.1810  178.2580  135.3680 C   0  0  0  0  0  2  0  0  0  0  0  0
  180.2200  176.1060  138.4930 C   0  0  1  0  0  3  0  0  0  0  0  0
  179.8120  173.8000  139.0190 O   0  0  0  0  0  1  0  0  0  0  0  0
  178.9310  174.6180  137.0840 O   0  0  0  0  0  1  0  0  0  0  0  0
  179.2500  174.9220  138.4090 C   0  0  0  0  0  3  0  0  0  0  0  0
  179.9100  177.1380  139.5420 C   0  0  0  0  0  0  0  0  0  0  0  0
  179.6810  176.7370  140.7900 C   0  0  0  0  0  2  0  0  0  0  0  0
  179.7080  178.5770  139.1890 C   0  0  0  0  0  2  0  0  0  0  0  0
  180.2610  179.3940  140.1760 O   0  0  0  0  0  0  0  0  0  0  0  0
  180.8110  180.4650  139.4740 C   0  0  0  0  0  1  0  0  0  0  0  0
  1 10  1  6  0  0  0
  1  7  1  0  0  0  0
  2  6  1  0  0  0  0
  3  2  1  0  0  0  0
  3  8  1  0  0  0  0
  4 23  1  0  0  0  0
  4 18  1  0  0  0  0
  5  8  1  0  0  0  0
  6 16  1  0  0  0  0
  6 19  1  0  0  0  0
  9 13  1  0  0  0  0
  9  4  1  0  0  0  0
 11 20  1  0  0  0  0
 11 21  1  0  0  0  0
 12  5  1  0  0  0  0
 13  6  1  0  0  0  0
 14  9  1  0  0  0  0
 14  2  1  0  0  0  0
 15  9  1  0  0  0  0
 16  1  1  0  0  0  0
 17 12  1  0  0  0  0
 19 18  1  0  0  0  0
 19  7  1  0  0  0  0
 20 14  1  0  0  0  0
 21  3  1  0  0  0  0
 22 21  1  0  0  0  0
 22 17  1  0  0  0  0
 23 27  1  0  0  0  0
 25 26  1  0  0  0  0
 26 23  1  0  0  0  0
 26 24  1  0  0  0  0
 27 28  2  0  0  0  0
 29 27  1  0  0  0  0
 29 30  1  0  0  0  0
 31 30  1  0  0  0  0
M  END
>  <MODEL>
9

>  <REMARK>
 VINA RESULT:      -5.5      4.665      8.418
  Name = 
  5 active torsions:
  status: ('A' for Active; 'I' for Inactive)
    1  A    between atoms: O_1  and  C_8
    2  A    between atoms: C_7  and  C_22
    3  A    between atoms: C_8  and  C_19
    4  A    between atoms: C_9  and  C_22
    5  A    between atoms: C_19  and  C_22
                            x       y       z     vdW  Elec       q    Type
                         _______ _______ _______ _____ _____    ______ ____

>  <TORSDO>
F 5

$$$$
