=
 OpenBabel10262421233D

 32 38  0  0  1  0  0  0  0  0999 V2000
  186.2030  177.6630  144.4150 C   0  0  0  0  0  2  0  0  0  0  0  0
  189.2520  177.5490  140.0890 C   0  0  0  0  0  0  0  0  0  0  0  0
  185.0590  177.1470  137.6250 C   0  0  0  0  0  3  0  0  0  0  0  0
  185.6680  176.2350  136.8680 C   0  0  0  0  0  3  0  0  0  0  0  0
  191.3830  176.8180  139.0930 C   0  0  0  0  0  0  0  0  0  0  0  0
  192.0780  176.2090  138.0420 C   0  0  0  0  0  0  0  0  0  0  0  0
  188.6200  177.5610  142.5170 C   0  0  1  0  0  3  0  0  0  0  0  0
  187.2340  178.8820  140.9200 C   0  0  0  0  0  2  0  0  0  0  0  0
  192.2290  175.1530  135.8640 C   0  0  2  0  0  3  0  0  0  0  0  0
  186.3430  178.5290  143.1720 C   0  0  0  0  0  2  0  0  0  0  0  0
  185.8460  178.1090  138.4700 C   0  0  0  0  0  2  0  0  0  0  0  0
  188.0290  178.3560  139.7170 C   0  0  2  0  0  3  0  0  0  0  0  0
  187.1990  177.6140  138.7610 N   0  0  0  0  0  0  0  0  0  0  0  0
  189.3310  176.5550  137.8880 C   0  0  0  0  0  0  0  0  0  0  0  0
  193.9180  174.9860  136.5410 S   0  0  0  0  0  0  0  0  0  0  0  0
  188.5440  176.8250  144.9550 C   0  0  0  0  0  2  0  0  0  0  0  0
  187.1820  177.8840  142.0680 C   0  0  2  0  0  3  0  0  0  0  0  0
  193.5430  175.9810  138.0270 C   0  0  0  0  0  2  0  0  0  0  0  0
  188.6130  176.3900  143.4910 C   0  0  0  0  0  2  0  0  0  0  0  0
  187.4460  177.8390  145.2800 C   0  0  2  0  0  3  0  0  0  0  0  0
  187.1280  176.0840  136.9030 C   0  0  0  0  0  3  0  0  0  0  0  0
  187.8590  176.7470  137.8080 C   0  0  0  0  0  0  0  0  0  0  0  0
  190.0230  175.9450  136.8290 C   0  0  0  0  0  3  0  0  0  0  0  0
  189.4680  177.1500  141.3500 C   0  0  0  0  0  3  0  0  0  0  0  0
  192.0200  177.2290  140.1020 O   0  0  0  0  0  0  0  0  0  0  0  0
  192.2710  176.0400  134.6330 C   0  0  0  0  0  1  0  0  0  0  0  0
  190.0170  176.9720  139.0080 N   0  0  0  0  0  0  0  0  0  0  0  0
  191.4010  175.7830  136.9220 C   0  0  0  0  0  0  0  0  0  0  0  0
  187.0890  177.7260  146.7520 C   0  0  0  0  0  2  0  0  0  0  0  0
  188.2850  177.2470  147.5540 C   0  0  0  0  0  3  0  0  0  0  0  0
  188.1860  177.7100  148.8470 O   0  0  0  0  0  0  0  0  0  0  0  0
  189.0100  178.3320  147.9900 O   0  0  0  0  0  0  0  0  0  0  0  0
  1 20  1  0  0  0  0
  2 24  2  0  0  0  0
  3 11  1  0  0  0  0
  4 21  1  0  0  0  0
  4  3  2  0  0  0  0
  5 25  2  0  0  0  0
  6  5  1  0  0  0  0
  7 24  1  6  0  0  0
  7 19  1  0  0  0  0
  9 26  1  6  0  0  0
  9 15  1  0  0  0  0
  9 28  1  0  0  0  0
 10  1  1  0  0  0  0
 11 13  1  0  0  0  0
 12  2  1  0  0  0  0
 12  8  1  1  0  0  0
 13 12  1  0  0  0  0
 14 27  1  0  0  0  0
 15 18  1  0  0  0  0
 16 20  1  0  0  0  0
 17  8  1  6  0  0  0
 17  7  1  0  0  0  0
 17 10  1  0  0  0  0
 18  6  1  0  0  0  0
 19 16  1  0  0  0  0
 20 29  1  1  0  0  0
 21 22  2  0  0  0  0
 22 14  1  0  0  0  0
 22 13  1  0  0  0  0
 23 28  1  0  0  0  0
 23 14  2  0  0  0  0
 27  5  1  0  0  0  0
 27  2  1  0  0  0  0
 28  6  2  0  0  0  0
 29 30  1  0  0  0  0
 30 32  1  0  0  0  0
 30 31  1  0  0  0  0
 32 31  1  0  0  0  0
M  END
>  <MODEL>
1

>  <REMARK>
 VINA RESULT:      -9.5      0.000      0.000
  Name = 
  2 active torsions:
  status: ('A' for Active; 'I' for Inactive)
    1  A    between atoms: C_1  and  C_10
    2  A    between atoms: C_10  and  C_24
                            x       y       z     vdW  Elec       q    Type
                         _______ _______ _______ _____ _____    ______ ____

>  <TORSDO>
F 2

$$$$
=
 OpenBabel10262421233D

 32 38  0  0  1  0  0  0  0  0999 V2000
  186.6670  177.8140  146.7110 C   0  0  0  0  0  2  0  0  0  0  0  0
  184.8680  178.6810  141.8090 C   0  0  0  0  0  0  0  0  0  0  0  0
  180.4360  178.6320  143.8510 C   0  0  0  0  0  3  0  0  0  0  0  0
  180.0340  177.9130  142.8040 C   0  0  0  0  0  3  0  0  0  0  0  0
  185.1600  178.2410  139.4030 C   0  0  0  0  0  0  0  0  0  0  0  0
  184.6120  177.8810  138.1660 C   0  0  0  0  0  0  0  0  0  0  0  0
  186.4820  178.1820  143.6640 C   0  0  1  0  0  3  0  0  0  0  0  0
  184.5940  179.7470  144.1170 C   0  0  0  0  0  2  0  0  0  0  0  0
  182.7770  177.2910  136.6950 C   0  0  2  0  0  3  0  0  0  0  0  0
  185.8640  178.9160  146.0370 C   0  0  0  0  0  2  0  0  0  0  0  0
  181.7080  179.4320  143.8050 C   0  0  0  0  0  2  0  0  0  0  0  0
  183.9910  179.5020  142.7270 C   0  0  2  0  0  3  0  0  0  0  0  0
  182.6380  178.9380  142.7800 N   0  0  0  0  0  0  0  0  0  0  0  0
  182.9820  178.1530  140.3930 C   0  0  0  0  0  0  0  0  0  0  0  0
  184.2580  177.0520  135.6520 S   0  0  0  0  0  0  0  0  0  0  0  0
  188.3090  176.9680  144.9600 C   0  0  0  0  0  2  0  0  0  0  0  0
  185.3500  178.5360  144.6480 C   0  0  2  0  0  3  0  0  0  0  0  0
  185.3960  177.7140  136.9190 C   0  0  0  0  0  2  0  0  0  0  0  0
  187.0960  176.8390  144.0380 C   0  0  0  0  0  2  0  0  0  0  0  0
  188.0980  177.8560  146.1880 C   0  0  2  0  0  3  0  0  0  0  0  0
  180.8670  177.8100  141.5990 C   0  0  0  0  0  3  0  0  0  0  0  0
  182.1110  178.3040  141.5890 C   0  0  0  0  0  0  0  0  0  0  0  0
  182.4260  177.7940  139.1550 C   0  0  0  0  0  3  0  0  0  0  0  0
  185.9550  178.0440  142.2670 C   0  0  0  0  0  3  0  0  0  0  0  0
  186.3990  178.4640  139.4910 O   0  0  0  0  0  0  0  0  0  0  0  0
  181.9310  178.4080  136.1110 C   0  0  0  0  0  1  0  0  0  0  0  0
  184.3400  178.3610  140.5030 N   0  0  0  0  0  0  0  0  0  0  0  0
  183.2580  177.6660  138.0480 C   0  0  0  0  0  0  0  0  0  0  0  0
  189.0740  177.4370  147.2740 C   0  0  0  0  0  2  0  0  0  0  0  0
  190.4060  177.0380  146.6670 C   0  0  0  0  0  3  0  0  0  0  0  0
  190.8900  175.9230  147.3140 O   0  0  0  0  0  0  0  0  0  0  0  0
  191.3920  177.1290  147.6230 O   0  0  0  0  0  0  0  0  0  0  0  0
  2 24  2  0  0  0  0
  2 12  1  0  0  0  0
  4  3  2  0  0  0  0
  5 25  2  0  0  0  0
  5 27  1  0  0  0  0
  6  5  1  0  0  0  0
  7 24  1  6  0  0  0
  7 19  1  0  0  0  0
  7 17  1  0  0  0  0
  9 26  1  6  0  0  0
  9 28  1  0  0  0  0
 10  1  1  0  0  0  0
 11  3  1  0  0  0  0
 12 13  1  0  0  0  0
 12  8  1  1  0  0  0
 13 11  1  0  0  0  0
 14 27  1  0  0  0  0
 14 22  1  0  0  0  0
 15  9  1  0  0  0  0
 15 18  1  0  0  0  0
 16 20  1  0  0  0  0
 17  8  1  6  0  0  0
 17 10  1  0  0  0  0
 18  6  1  0  0  0  0
 19 16  1  0  0  0  0
 20  1  1  0  0  0  0
 20 29  1  1  0  0  0
 21  4  1  0  0  0  0
 22 21  2  0  0  0  0
 22 13  1  0  0  0  0
 23 14  2  0  0  0  0
 27  2  1  0  0  0  0
 28  6  2  0  0  0  0
 28 23  1  0  0  0  0
 30 29  1  0  0  0  0
 30 31  1  0  0  0  0
 30 32  1  0  0  0  0
 31 32  1  0  0  0  0
M  END
>  <MODEL>
2

>  <REMARK>
 VINA RESULT:      -9.5      4.412      6.158
  Name = 
  2 active torsions:
  status: ('A' for Active; 'I' for Inactive)
    1  A    between atoms: C_1  and  C_10
    2  A    between atoms: C_10  and  C_24
                            x       y       z     vdW  Elec       q    Type
                         _______ _______ _______ _____ _____    ______ ____

>  <TORSDO>
F 2

$$$$
=
 OpenBabel10262421233D

 32 38  0  0  1  0  0  0  0  0999 V2000
  184.6180  178.2130  146.1720 C   0  0  0  0  0  2  0  0  0  0  0  0
  184.2620  178.5490  140.9010 C   0  0  0  0  0  0  0  0  0  0  0  0
  179.6420  177.1020  141.5160 C   0  0  0  0  0  3  0  0  0  0  0  0
  179.8200  176.3090  140.4600 C   0  0  0  0  0  3  0  0  0  0  0  0
  185.4060  178.2550  138.7390 C   0  0  0  0  0  0  0  0  0  0  0  0
  185.4040  177.7600  137.4300 C   0  0  0  0  0  0  0  0  0  0  0  0
  185.2900  178.5490  143.1910 C   0  0  1  0  0  3  0  0  0  0  0  0
  182.9780  179.4450  142.9230 C   0  0  0  0  0  2  0  0  0  0  0  0
  184.3830  176.6510  135.5320 C   0  0  2  0  0  3  0  0  0  0  0  0
  183.7750  179.0220  145.1980 C   0  0  0  0  0  2  0  0  0  0  0  0
  180.5650  178.2560  141.7860 C   0  0  0  0  0  2  0  0  0  0  0  0
  182.9410  179.0450  141.4420 C   0  0  2  0  0  3  0  0  0  0  0  0
  181.8710  178.0890  141.1330 N   0  0  0  0  0  0  0  0  0  0  0  0
  183.1600  177.4830  139.0350 C   0  0  0  0  0  0  0  0  0  0  0  0
  186.1160  176.8970  135.0050 S   0  0  0  0  0  0  0  0  0  0  0  0
  186.8970  177.9420  145.0720 C   0  0  0  0  0  2  0  0  0  0  0  0
  183.8570  178.5210  143.7560 C   0  0  2  0  0  3  0  0  0  0  0  0
  186.5500  177.8610  136.4950 C   0  0  0  0  0  2  0  0  0  0  0  0
  186.1280  177.4570  143.8430 C   0  0  0  0  0  2  0  0  0  0  0  0
  186.0590  178.7040  146.1010 C   0  0  2  0  0  3  0  0  0  0  0  0
  180.9780  176.4860  139.5740 C   0  0  0  0  0  3  0  0  0  0  0  0
  181.9560  177.3400  139.8960 C   0  0  0  0  0  0  0  0  0  0  0  0
  183.1500  176.9860  137.7210 C   0  0  0  0  0  3  0  0  0  0  0  0
  185.2910  178.2740  141.7160 C   0  0  0  0  0  3  0  0  0  0  0  0
  186.4300  178.8490  139.1770 O   0  0  0  0  0  0  0  0  0  0  0  0
  183.4690  177.4590  134.6290 C   0  0  0  0  0  1  0  0  0  0  0  0
  184.2880  178.0990  139.5290 N   0  0  0  0  0  0  0  0  0  0  0  0
  184.2840  177.1370  136.9300 C   0  0  0  0  0  0  0  0  0  0  0  0
  186.7270  178.5930  147.4610 C   0  0  0  0  0  2  0  0  0  0  0  0
  187.9750  177.7350  147.3730 C   0  0  0  0  0  3  0  0  0  0  0  0
  188.2490  177.1940  148.6080 O   0  0  0  0  0  0  0  0  0  0  0  0
  188.9500  178.2580  148.1910 O   0  0  0  0  0  0  0  0  0  0  0  0
  2 12  1  0  0  0  0
  2 24  2  0  0  0  0
  3 11  1  0  0  0  0
  4  3  2  0  0  0  0
  5 25  2  0  0  0  0
  5 27  1  0  0  0  0
  6  5  1  0  0  0  0
  7 24  1  6  0  0  0
  7 17  1  0  0  0  0
  7 19  1  0  0  0  0
  9 26  1  6  0  0  0
  9 28  1  0  0  0  0
 10  1  1  0  0  0  0
 12  8  1  1  0  0  0
 13 12  1  0  0  0  0
 13 11  1  0  0  0  0
 14 27  1  0  0  0  0
 14 22  1  0  0  0  0
 15  9  1  0  0  0  0
 15 18  1  0  0  0  0
 16 20  1  0  0  0  0
 17  8  1  6  0  0  0
 17 10  1  0  0  0  0
 18  6  1  0  0  0  0
 19 16  1  0  0  0  0
 20  1  1  0  0  0  0
 20 29  1  1  0  0  0
 21 22  2  0  0  0  0
 21  4  1  0  0  0  0
 22 13  1  0  0  0  0
 23 14  2  0  0  0  0
 27  2  1  0  0  0  0
 28  6  2  0  0  0  0
 28 23  1  0  0  0  0
 30 29  1  0  0  0  0
 30 32  1  0  0  0  0
 30 31  1  0  0  0  0
 32 31  1  0  0  0  0
M  END
>  <MODEL>
3

>  <REMARK>
 VINA RESULT:      -9.2      3.904      5.501
  Name = 
  2 active torsions:
  status: ('A' for Active; 'I' for Inactive)
    1  A    between atoms: C_1  and  C_10
    2  A    between atoms: C_10  and  C_24
                            x       y       z     vdW  Elec       q    Type
                         _______ _______ _______ _____ _____    ______ ____

>  <TORSDO>
F 2

$$$$
=
 OpenBabel10262421233D

 32 38  0  0  1  0  0  0  0  0999 V2000
  185.6860  177.6880  146.1580 C   0  0  0  0  0  2  0  0  0  0  0  0
  186.4260  178.5830  140.9930 C   0  0  0  0  0  0  0  0  0  0  0  0
  181.6110  177.9010  140.5880 C   0  0  0  0  0  3  0  0  0  0  0  0
  181.8710  177.1930  139.4890 C   0  0  0  0  0  3  0  0  0  0  0  0
  187.9140  178.3040  139.0500 C   0  0  0  0  0  0  0  0  0  0  0  0
  188.0950  177.9440  137.7100 C   0  0  0  0  0  0  0  0  0  0  0  0
  186.9720  178.1860  143.4110 C   0  0  1  0  0  3  0  0  0  0  0  0
  184.9210  179.4890  142.8510 C   0  0  0  0  0  2  0  0  0  0  0  0
  187.3100  177.2150  135.5350 C   0  0  2  0  0  3  0  0  0  0  0  0
  185.1820  178.7200  145.1600 C   0  0  0  0  0  2  0  0  0  0  0  0
  182.6270  178.8480  141.1620 C   0  0  0  0  0  2  0  0  0  0  0  0
  185.1150  179.2450  141.3490 C   0  0  2  0  0  3  0  0  0  0  0  0
  183.9950  178.5210  140.7360 N   0  0  0  0  0  0  0  0  0  0  0  0
  185.5630  177.9060  138.8410 C   0  0  0  0  0  0  0  0  0  0  0  0
  189.1300  177.2080  135.3600 S   0  0  0  0  0  0  0  0  0  0  0  0
  188.0690  177.1360  145.4560 C   0  0  0  0  0  2  0  0  0  0  0  0
  185.4690  178.3520  143.7030 C   0  0  2  0  0  3  0  0  0  0  0  0
  189.4040  177.9350  137.0140 C   0  0  0  0  0  2  0  0  0  0  0  0
  187.4920  176.9100  144.0580 C   0  0  0  0  0  2  0  0  0  0  0  0
  187.1700  177.9280  146.4080 C   0  0  2  0  0  3  0  0  0  0  0  0
  183.1930  177.2520  138.8530 C   0  0  0  0  0  3  0  0  0  0  0  0
  184.2070  177.8900  139.4500 C   0  0  0  0  0  0  0  0  0  0  0  0
  185.7370  177.5460  137.4940 C   0  0  0  0  0  3  0  0  0  0  0  0
  187.2210  178.0580  141.9370 C   0  0  0  0  0  3  0  0  0  0  0  0
  188.9100  178.6680  139.7340 O   0  0  0  0  0  0  0  0  0  0  0  0
  186.7240  178.2510  134.5940 C   0  0  0  0  0  1  0  0  0  0  0  0
  186.6530  178.2680  139.6020 N   0  0  0  0  0  0  0  0  0  0  0  0
  187.0130  177.5750  136.9440 C   0  0  0  0  0  0  0  0  0  0  0  0
  187.5330  177.5740  147.8390 C   0  0  0  0  0  2  0  0  0  0  0  0
  189.0400  177.5540  148.0170 C   0  0  0  0  0  3  0  0  0  0  0  0
  189.3770  178.2380  149.1630 O   0  0  0  0  0  0  0  0  0  0  0  0
  189.5250  178.8410  147.9740 O   0  0  0  0  0  0  0  0  0  0  0  0
  1 20  1  0  0  0  0
  2 12  1  0  0  0  0
  2 24  2  0  0  0  0
  3 11  1  0  0  0  0
  4  3  2  0  0  0  0
  5 27  1  0  0  0  0
  5 25  2  0  0  0  0
  6  5  1  0  0  0  0
  7 24  1  6  0  0  0
  7 17  1  0  0  0  0
  7 19  1  0  0  0  0
  9 26  1  6  0  0  0
  9 28  1  0  0  0  0
 10  1  1  0  0  0  0
 12  8  1  1  0  0  0
 13 11  1  0  0  0  0
 13 12  1  0  0  0  0
 14 22  1  0  0  0  0
 14 27  1  0  0  0  0
 15  9  1  0  0  0  0
 15 18  1  0  0  0  0
 16 20  1  0  0  0  0
 17  8  1  6  0  0  0
 17 10  1  0  0  0  0
 18  6  1  0  0  0  0
 19 16  1  0  0  0  0
 20 29  1  1  0  0  0
 21 22  2  0  0  0  0
 21  4  1  0  0  0  0
 22 13  1  0  0  0  0
 23 14  2  0  0  0  0
 27  2  1  0  0  0  0
 28 23  1  0  0  0  0
 28  6  2  0  0  0  0
 29 30  1  0  0  0  0
 30 31  1  0  0  0  0
 32 30  1  0  0  0  0
 32 31  1  0  0  0  0
M  END
>  <MODEL>
4

>  <REMARK>
 VINA RESULT:      -9.0      2.356      3.595
  Name = 
  2 active torsions:
  status: ('A' for Active; 'I' for Inactive)
    1  A    between atoms: C_1  and  C_10
    2  A    between atoms: C_10  and  C_24
                            x       y       z     vdW  Elec       q    Type
                         _______ _______ _______ _____ _____    ______ ____

>  <TORSDO>
F 2

$$$$
=
 OpenBabel10262421233D

 32 38  0  0  1  0  0  0  0  0999 V2000
  192.6150  174.9560  137.4530 C   0  0  0  0  0  2  0  0  0  0  0  0
  189.0050  177.7320  140.1520 C   0  0  0  0  0  0  0  0  0  0  0  0
  191.6120  176.5360  144.1000 C   0  0  0  0  0  3  0  0  0  0  0  0
  190.4520  176.3140  144.7170 C   0  0  0  0  0  3  0  0  0  0  0  0
  186.6380  178.3880  140.3460 C   0  0  0  0  0  0  0  0  0  0  0  0
  185.4940  178.5610  141.1340 C   0  0  0  0  0  0  0  0  0  0  0  0
  190.1230  176.5850  138.2200 C   0  0  1  0  0  3  0  0  0  0  0  0
  191.5530  177.6830  139.9430 C   0  0  0  0  0  2  0  0  0  0  0  0
  184.2850  178.5470  143.2350 C   0  0  2  0  0  3  0  0  0  0  0  0
  192.6480  176.1890  138.3440 C   0  0  0  0  0  2  0  0  0  0  0  0
  191.6800  177.3550  142.8420 C   0  0  0  0  0  2  0  0  0  0  0  0
  190.3340  178.0230  140.8110 C   0  0  2  0  0  3  0  0  0  0  0  0
  190.3880  177.4080  142.1430 N   0  0  0  0  0  0  0  0  0  0  0  0
  187.8800  177.7480  142.2900 C   0  0  0  0  0  0  0  0  0  0  0  0
  182.9840  178.8720  141.9930 S   0  0  0  0  0  0  0  0  0  0  0  0
  190.3980  175.0480  136.2070 C   0  0  0  0  0  2  0  0  0  0  0  0
  191.3550  176.4120  139.1290 C   0  0  2  0  0  3  0  0  0  0  0  0
  184.1760  178.9940  140.6130 C   0  0  0  0  0  2  0  0  0  0  0  0
  189.7550  175.2530  137.5790 C   0  0  0  0  0  2  0  0  0  0  0  0
  191.9050  175.3070  136.1510 C   0  0  2  0  0  3  0  0  0  0  0  0
  189.1900  176.7900  144.1370 C   0  0  0  0  0  3  0  0  0  0  0  0
  189.1620  177.3160  142.9070 C   0  0  0  0  0  0  0  0  0  0  0  0
  186.7370  177.9220  143.0870 C   0  0  0  0  0  3  0  0  0  0  0  0
  188.9290  177.0290  139.0130 C   0  0  0  0  0  3  0  0  0  0  0  0
  186.5810  178.6270  139.1090 O   0  0  0  0  0  0  0  0  0  0  0  0
  184.4120  179.7520  144.1500 C   0  0  0  0  0  1  0  0  0  0  0  0
  187.8130  177.9720  140.9320 N   0  0  0  0  0  0  0  0  0  0  0  0
  185.5500  178.3330  142.4900 C   0  0  0  0  0  0  0  0  0  0  0  0
  192.4980  174.5240  134.9930 C   0  0  0  0  0  2  0  0  0  0  0  0
  193.2790  173.3270  135.5050 C   0  0  0  0  0  3  0  0  0  0  0  0
  194.2810  173.0170  134.6140 O   0  0  0  0  0  0  0  0  0  0  0  0
  193.1560  172.2850  134.6150 O   0  0  0  0  0  0  0  0  0  0  0  0
  1 10  1  0  0  0  0
  2 12  1  0  0  0  0
  2 27  1  0  0  0  0
  3  4  2  0  0  0  0
  5 27  1  0  0  0  0
  5  6  1  0  0  0  0
  6 28  2  0  0  0  0
  7 19  1  1  0  0  0
  7 24  1  0  0  0  0
  7 17  1  0  0  0  0
  9 26  1  1  0  0  0
 11  3  1  0  0  0  0
 12  8  1  6  0  0  0
 12 13  1  0  0  0  0
 13 11  1  0  0  0  0
 13 22  1  0  0  0  0
 14 22  1  0  0  0  0
 14 23  2  0  0  0  0
 15  9  1  0  0  0  0
 16 19  1  0  0  0  0
 17 10  1  6  0  0  0
 17  8  1  0  0  0  0
 18  6  1  0  0  0  0
 18 15  1  0  0  0  0
 20 29  1  6  0  0  0
 20 16  1  0  0  0  0
 20  1  1  0  0  0  0
 21  4  1  0  0  0  0
 22 21  2  0  0  0  0
 24  2  2  0  0  0  0
 25  5  2  0  0  0  0
 27 14  1  0  0  0  0
 28 23  1  0  0  0  0
 28  9  1  0  0  0  0
 29 30  1  0  0  0  0
 31 32  1  0  0  0  0
 31 30  1  0  0  0  0
 32 30  1  0  0  0  0
M  END
>  <MODEL>
5

>  <REMARK>
 VINA RESULT:      -8.1      3.891      8.849
  Name = 
  2 active torsions:
  status: ('A' for Active; 'I' for Inactive)
    1  A    between atoms: C_1  and  C_10
    2  A    between atoms: C_10  and  C_24
                            x       y       z     vdW  Elec       q    Type
                         _______ _______ _______ _____ _____    ______ ____

>  <TORSDO>
F 2

$$$$
=
 OpenBabel10262421233D

 32 38  0  0  1  0  0  0  0  0999 V2000
  192.9750  176.1210  139.1860 C   0  0  0  0  0  2  0  0  0  0  0  0
  188.5930  178.2830  141.2210 C   0  0  0  0  0  0  0  0  0  0  0  0
  190.5040  177.1140  145.5560 C   0  0  0  0  0  3  0  0  0  0  0  0
  189.2820  176.7210  145.9150 C   0  0  0  0  0  3  0  0  0  0  0  0
  186.1720  178.6550  140.9620 C   0  0  0  0  0  0  0  0  0  0  0  0
  184.8830  178.6440  141.5080 C   0  0  0  0  0  0  0  0  0  0  0  0
  190.2000  177.4050  139.5050 C   0  0  1  0  0  3  0  0  0  0  0  0
  191.1190  178.5330  141.5300 C   0  0  0  0  0  2  0  0  0  0  0  0
  183.2970  178.3500  143.3180 C   0  0  2  0  0  3  0  0  0  0  0  0
  192.6820  177.2850  140.1200 C   0  0  0  0  0  2  0  0  0  0  0  0
  190.7160  178.0210  144.3770 C   0  0  0  0  0  2  0  0  0  0  0  0
  189.7210  178.6730  142.1480 C   0  0  2  0  0  3  0  0  0  0  0  0
  189.5890  177.9770  143.4340 N   0  0  0  0  0  0  0  0  0  0  0  0
  187.0780  178.0240  143.0850 C   0  0  0  0  0  0  0  0  0  0  0  0
  182.2350  178.6130  141.8540 S   0  0  0  0  0  0  0  0  0  0  0  0
  191.0510  176.0510  137.5220 C   0  0  0  0  0  2  0  0  0  0  0  0
  191.2420  177.3070  140.6360 C   0  0  2  0  0  3  0  0  0  0  0  0
  183.6490  178.9630  140.7510 C   0  0  0  0  0  2  0  0  0  0  0  0
  190.1320  176.0880  138.7430 C   0  0  0  0  0  2  0  0  0  0  0  0
  192.4960  176.4800  137.7840 C   0  0  2  0  0  3  0  0  0  0  0  0
  188.1090  177.0930  145.1140 C   0  0  0  0  0  3  0  0  0  0  0  0
  188.2580  177.6960  143.9290 C   0  0  0  0  0  0  0  0  0  0  0  0
  185.7880  178.0140  143.6410 C   0  0  0  0  0  3  0  0  0  0  0  0
  188.8290  177.6560  140.0590 C   0  0  0  0  0  3  0  0  0  0  0  0
  186.3290  178.9720  139.7500 O   0  0  0  0  0  0  0  0  0  0  0  0
  183.0930  179.4950  144.2930 C   0  0  0  0  0  1  0  0  0  0  0  0
  187.2510  178.3330  141.7540 N   0  0  0  0  0  0  0  0  0  0  0  0
  184.7000  178.3310  142.8350 C   0  0  0  0  0  0  0  0  0  0  0  0
  193.3970  175.8500  136.7360 C   0  0  0  0  0  2  0  0  0  0  0  0
  194.4720  175.0070  137.3960 C   0  0  0  0  0  3  0  0  0  0  0  0
  195.7090  175.3900  136.9280 O   0  0  0  0  0  0  0  0  0  0  0  0
  195.1390  174.2800  136.4360 O   0  0  0  0  0  0  0  0  0  0  0  0
  1 10  1  0  0  0  0
  2 27  1  0  0  0  0
  2 12  1  0  0  0  0
  3  4  2  0  0  0  0
  5  6  1  0  0  0  0
  5 27  1  0  0  0  0
  6 28  2  0  0  0  0
  7 19  1  1  0  0  0
  7 24  1  0  0  0  0
  7 17  1  0  0  0  0
  9 26  1  1  0  0  0
 11  3  1  0  0  0  0
 12  8  1  6  0  0  0
 12 13  1  0  0  0  0
 13 22  1  0  0  0  0
 13 11  1  0  0  0  0
 14 23  2  0  0  0  0
 14 22  1  0  0  0  0
 15  9  1  0  0  0  0
 16 20  1  0  0  0  0
 16 19  1  0  0  0  0
 17 10  1  6  0  0  0
 17  8  1  0  0  0  0
 18  6  1  0  0  0  0
 18 15  1  0  0  0  0
 20 29  1  6  0  0  0
 20  1  1  0  0  0  0
 21  4  1  0  0  0  0
 22 21  2  0  0  0  0
 24  2  2  0  0  0  0
 25  5  2  0  0  0  0
 27 14  1  0  0  0  0
 28  9  1  0  0  0  0
 28 23  1  0  0  0  0
 29 30  1  0  0  0  0
 31 30  1  0  0  0  0
 32 31  1  0  0  0  0
 32 30  1  0  0  0  0
M  END
>  <MODEL>
6

>  <REMARK>
 VINA RESULT:      -7.8      3.928      8.647
  Name = 
  2 active torsions:
  status: ('A' for Active; 'I' for Inactive)
    1  A    between atoms: C_1  and  C_10
    2  A    between atoms: C_10  and  C_24
                            x       y       z     vdW  Elec       q    Type
                         _______ _______ _______ _____ _____    ______ ____

>  <TORSDO>
F 2

$$$$
=
 OpenBabel10262421233D

 32 38  0  0  1  0  0  0  0  0999 V2000
  179.5590  181.9890  139.1980 C   0  0  0  0  0  2  0  0  0  0  0  0
  183.8250  178.9540  139.9770 C   0  0  0  0  0  0  0  0  0  0  0  0
  182.5140  179.0030  144.6780 C   0  0  0  0  0  3  0  0  0  0  0  0
  183.8050  179.1660  144.9670 C   0  0  0  0  0  3  0  0  0  0  0  0
  186.1440  178.4560  139.3130 C   0  0  0  0  0  0  0  0  0  0  0  0
  187.4730  178.1950  139.6690 C   0  0  0  0  0  0  0  0  0  0  0  0
  182.1740  180.4250  138.7910 C   0  0  1  0  0  3  0  0  0  0  0  0
  181.3310  178.8520  140.5330 C   0  0  0  0  0  2  0  0  0  0  0  0
  189.2560  177.8180  141.2680 C   0  0  2  0  0  3  0  0  0  0  0  0
  179.8000  180.5850  139.7330 C   0  0  0  0  0  2  0  0  0  0  0  0
  182.0770  178.4930  143.3340 C   0  0  0  0  0  2  0  0  0  0  0  0
  182.7560  178.4170  140.9010 C   0  0  2  0  0  3  0  0  0  0  0  0
  183.1000  178.7030  142.3000 N   0  0  0  0  0  0  0  0  0  0  0  0
  185.5390  178.5330  141.6280 C   0  0  0  0  0  0  0  0  0  0  0  0
  190.1260  177.8900  139.6620 S   0  0  0  0  0  0  0  0  0  0  0  0
  181.3010  182.3580  137.3800 C   0  0  0  0  0  2  0  0  0  0  0  0
  181.2700  180.2880  140.0310 C   0  0  2  0  0  3  0  0  0  0  0  0
  188.5760  177.9970  138.6990 C   0  0  0  0  0  2  0  0  0  0  0  0
  182.3260  181.8930  138.4150 C   0  0  0  0  0  2  0  0  0  0  0  0
  179.8480  182.0030  137.7020 C   0  0  2  0  0  3  0  0  0  0  0  0
  184.8380  178.9350  143.9500 C   0  0  0  0  0  3  0  0  0  0  0  0
  184.4980  178.7110  142.6750 C   0  0  0  0  0  0  0  0  0  0  0  0
  186.8690  178.2690  141.9920 C   0  0  0  0  0  3  0  0  0  0  0  0
  183.5520  179.9040  139.0710 C   0  0  0  0  0  3  0  0  0  0  0  0
  185.8290  178.5130  138.0920 O   0  0  0  0  0  0  0  0  0  0  0  0
  189.4150  176.4290  141.8580 C   0  0  0  0  0  1  0  0  0  0  0  0
  185.1970  178.6340  140.2970 N   0  0  0  0  0  0  0  0  0  0  0  0
  187.8250  178.1000  140.9960 C   0  0  0  0  0  0  0  0  0  0  0  0
  178.9310  182.9830  136.9920 C   0  0  0  0  0  2  0  0  0  0  0  0
  179.7120  184.1950  136.5170 C   0  0  0  0  0  3  0  0  0  0  0  0
  179.0020  185.3390  136.8010 O   0  0  0  0  0  0  0  0  0  0  0  0
  178.9900  184.8560  135.5500 O   0  0  0  0  0  0  0  0  0  0  0  0
  1 10  1  0  0  0  0
  2 27  1  0  0  0  0
  2 12  1  0  0  0  0
  3  4  2  0  0  0  0
  5  6  1  0  0  0  0
  5 27  1  0  0  0  0
  6 28  2  0  0  0  0
  7 19  1  1  0  0  0
  7 24  1  0  0  0  0
  7 17  1  0  0  0  0
  9 26  1  6  0  0  0
 11  3  1  0  0  0  0
 12  8  1  6  0  0  0
 12 13  1  0  0  0  0
 13 22  1  0  0  0  0
 13 11  1  0  0  0  0
 14 23  2  0  0  0  0
 14 22  1  0  0  0  0
 15  9  1  0  0  0  0
 16 20  1  0  0  0  0
 16 19  1  0  0  0  0
 17 10  1  6  0  0  0
 17  8  1  0  0  0  0
 18 15  1  0  0  0  0
 18  6  1  0  0  0  0
 20 29  1  6  0  0  0
 20  1  1  0  0  0  0
 21  4  1  0  0  0  0
 22 21  2  0  0  0  0
 24  2  2  0  0  0  0
 25  5  2  0  0  0  0
 27 14  1  0  0  0  0
 28  9  1  0  0  0  0
 28 23  1  0  0  0  0
 30 31  1  0  0  0  0
 30 29  1  0  0  0  0
 32 30  1  0  0  0  0
 32 31  1  0  0  0  0
M  END
>  <MODEL>
7

>  <REMARK>
 VINA RESULT:      -7.6      5.961      8.842
  Name = 
  2 active torsions:
  status: ('A' for Active; 'I' for Inactive)
    1  A    between atoms: C_1  and  C_10
    2  A    between atoms: C_10  and  C_24
                            x       y       z     vdW  Elec       q    Type
                         _______ _______ _______ _____ _____    ______ ____

>  <TORSDO>
F 2

$$$$
=
 OpenBabel10262421233D

 32 38  0  0  1  0  0  0  0  0999 V2000
  190.2300  176.6010  145.8030 C   0  0  0  0  0  2  0  0  0  0  0  0
  189.0490  177.9160  140.8130 C   0  0  0  0  0  0  0  0  0  0  0  0
  184.6220  178.9930  142.5620 C   0  0  0  0  0  3  0  0  0  0  0  0
  184.1220  178.4050  141.4760 C   0  0  0  0  0  3  0  0  0  0  0  0
  189.3820  177.4250  138.4220 C   0  0  0  0  0  0  0  0  0  0  0  0
  188.8460  177.2210  137.1460 C   0  0  0  0  0  0  0  0  0  0  0  0
  190.3530  177.0150  142.7590 C   0  0  1  0  0  3  0  0  0  0  0  0
  188.8980  179.0080  143.1210 C   0  0  0  0  0  2  0  0  0  0  0  0
  187.0260  177.1240  135.5470 C   0  0  2  0  0  3  0  0  0  0  0  0
  189.7820  177.8740  145.1010 C   0  0  0  0  0  2  0  0  0  0  0  0
  186.0550  179.4420  142.6150 C   0  0  0  0  0  2  0  0  0  0  0  0
  188.3500  178.9300  141.6890 C   0  0  2  0  0  3  0  0  0  0  0  0
  186.8970  178.7300  141.6420 N   0  0  0  0  0  0  0  0  0  0  0  0
  187.1920  177.8920  139.2680 C   0  0  0  0  0  0  0  0  0  0  0  0
  188.4650  176.5180  134.5970 S   0  0  0  0  0  0  0  0  0  0  0  0
  191.7180  175.3700  144.1440 C   0  0  0  0  0  2  0  0  0  0  0  0
  189.2840  177.6430  143.6740 C   0  0  2  0  0  3  0  0  0  0  0  0
  189.6450  176.8630  135.9490 C   0  0  0  0  0  2  0  0  0  0  0  0
  190.5780  175.5590  143.1430 C   0  0  0  0  0  2  0  0  0  0  0  0
  191.6570  176.2780  145.3750 C   0  0  2  0  0  3  0  0  0  0  0  0
  184.9820  178.0970  140.3260 C   0  0  0  0  0  3  0  0  0  0  0  0
  186.3090  178.2560  140.4070 C   0  0  0  0  0  0  0  0  0  0  0  0
  186.6470  177.6910  137.9890 C   0  0  0  0  0  3  0  0  0  0  0  0
  189.9050  177.0210  141.3270 C   0  0  0  0  0  3  0  0  0  0  0  0
  190.6280  177.3240  138.5950 O   0  0  0  0  0  0  0  0  0  0  0  0
  186.5340  178.4220  134.9330 C   0  0  0  0  0  1  0  0  0  0  0  0
  188.5470  177.7460  139.4690 N   0  0  0  0  0  0  0  0  0  0  0  0
  187.4930  177.3590  136.9360 C   0  0  0  0  0  0  0  0  0  0  0  0
  192.4180  175.6200  146.5130 C   0  0  0  0  0  2  0  0  0  0  0  0
  191.8620  176.0660  147.8520 C   0  0  0  0  0  3  0  0  0  0  0  0
  192.7430  176.9400  148.4480 O   0  0  0  0  0  0  0  0  0  0  0  0
  192.7110  175.6640  148.8580 O   0  0  0  0  0  0  0  0  0  0  0  0
  2 24  2  0  0  0  0
  2 12  1  0  0  0  0
  3 11  1  0  0  0  0
  4  3  2  0  0  0  0
  5 25  2  0  0  0  0
  5 27  1  0  0  0  0
  6  5  1  0  0  0  0
  7 24  1  6  0  0  0
  7 19  1  0  0  0  0
  7 17  1  0  0  0  0
  9 26  1  6  0  0  0
  9 28  1  0  0  0  0
 10  1  1  0  0  0  0
 12  8  1  1  0  0  0
 13 12  1  0  0  0  0
 13 11  1  0  0  0  0
 14 27  1  0  0  0  0
 14 22  1  0  0  0  0
 15  9  1  0  0  0  0
 15 18  1  0  0  0  0
 16 20  1  0  0  0  0
 17  8  1  6  0  0  0
 17 10  1  0  0  0  0
 18  6  1  0  0  0  0
 19 16  1  0  0  0  0
 20  1  1  0  0  0  0
 20 29  1  1  0  0  0
 21 22  2  0  0  0  0
 21  4  1  0  0  0  0
 22 13  1  0  0  0  0
 23 14  2  0  0  0  0
 27  2  1  0  0  0  0
 28  6  2  0  0  0  0
 28 23  1  0  0  0  0
 29 30  1  0  0  0  0
 30 31  1  0  0  0  0
 30 32  1  0  0  0  0
 31 32  1  0  0  0  0
M  END
>  <MODEL>
8

>  <REMARK>
 VINA RESULT:      -7.1      2.518      3.934
  Name = 
  2 active torsions:
  status: ('A' for Active; 'I' for Inactive)
    1  A    between atoms: C_1  and  C_10
    2  A    between atoms: C_10  and  C_24
                            x       y       z     vdW  Elec       q    Type
                         _______ _______ _______ _____ _____    ______ ____

>  <TORSDO>
F 2

$$$$
=
 OpenBabel10262421233D

 32 38  0  0  1  0  0  0  0  0999 V2000
  190.7360  176.1750  137.6390 C   0  0  0  0  0  2  0  0  0  0  0  0
  186.5940  178.4650  140.0100 C   0  0  0  0  0  0  0  0  0  0  0  0
  188.8090  177.2420  144.1830 C   0  0  0  0  0  3  0  0  0  0  0  0
  187.6080  176.8850  144.6380 C   0  0  0  0  0  3  0  0  0  0  0  0
  184.1720  178.9080  139.9430 C   0  0  0  0  0  0  0  0  0  0  0  0
  182.9310  178.9350  140.5900 C   0  0  0  0  0  0  0  0  0  0  0  0
  188.0340  177.5400  138.1740 C   0  0  1  0  0  3  0  0  0  0  0  0
  189.1430  178.6420  140.1170 C   0  0  0  0  0  2  0  0  0  0  0  0
  181.4850  178.6880  142.5210 C   0  0  2  0  0  3  0  0  0  0  0  0
  190.5520  177.3480  138.5900 C   0  0  0  0  0  2  0  0  0  0  0  0
  188.9520  178.1420  142.9880 C   0  0  0  0  0  2  0  0  0  0  0  0
  187.8030  178.8230  140.8440 C   0  0  2  0  0  3  0  0  0  0  0  0
  187.7540  178.1320  142.1370 N   0  0  0  0  0  0  0  0  0  0  0  0
  185.2250  178.2520  141.9890 C   0  0  0  0  0  0  0  0  0  0  0  0
  180.3190  178.9820  141.1450 S   0  0  0  0  0  0  0  0  0  0  0  0
  188.6850  176.1620  136.1330 C   0  0  0  0  0  2  0  0  0  0  0  0
  189.1590  177.4120  139.2190 C   0  0  2  0  0  3  0  0  0  0  0  0
  181.6500  179.2890  139.9320 C   0  0  0  0  0  2  0  0  0  0  0  0
  187.8670  176.2250  137.4230 C   0  0  0  0  0  2  0  0  0  0  0  0
  190.1580  176.5490  136.2790 C   0  0  2  0  0  3  0  0  0  0  0  0
  186.3860  177.2910  143.9320 C   0  0  0  0  0  3  0  0  0  0  0  0
  186.4580  177.8900  142.7370 C   0  0  0  0  0  0  0  0  0  0  0  0
  183.9840  178.2790  142.6460 C   0  0  0  0  0  3  0  0  0  0  0  0
  186.7190  177.8320  138.8350 C   0  0  0  0  0  3  0  0  0  0  0  0
  184.2410  179.2200  138.7220 O   0  0  0  0  0  0  0  0  0  0  0  0
  181.3930  179.8390  143.5060 C   0  0  0  0  0  1  0  0  0  0  0  0
  185.3010  178.5550  140.6470 N   0  0  0  0  0  0  0  0  0  0  0  0
  182.8450  178.6270  141.9280 C   0  0  0  0  0  0  0  0  0  0  0  0
  190.9540  175.8920  135.1640 C   0  0  0  0  0  2  0  0  0  0  0  0
  192.2630  175.3420  135.6980 C   0  0  0  0  0  3  0  0  0  0  0  0
  193.3120  176.0690  135.1820 O   0  0  0  0  0  0  0  0  0  0  0  0
  193.0240  174.8710  134.6520 O   0  0  0  0  0  0  0  0  0  0  0  0
  1 10  1  0  0  0  0
  2 27  1  0  0  0  0
  2 12  1  0  0  0  0
  3  4  2  0  0  0  0
  5  6  1  0  0  0  0
  5 27  1  0  0  0  0
  6 28  2  0  0  0  0
  7 19  1  1  0  0  0
  7 24  1  0  0  0  0
  7 17  1  0  0  0  0
  9 26  1  1  0  0  0
 11  3  1  0  0  0  0
 12  8  1  6  0  0  0
 12 13  1  0  0  0  0
 13 22  1  0  0  0  0
 13 11  1  0  0  0  0
 14 23  2  0  0  0  0
 14 22  1  0  0  0  0
 15  9  1  0  0  0  0
 16 20  1  0  0  0  0
 16 19  1  0  0  0  0
 17 10  1  6  0  0  0
 17  8  1  0  0  0  0
 18  6  1  0  0  0  0
 18 15  1  0  0  0  0
 20 29  1  6  0  0  0
 20  1  1  0  0  0  0
 21  4  1  0  0  0  0
 22 21  2  0  0  0  0
 24  2  2  0  0  0  0
 25  5  2  0  0  0  0
 27 14  1  0  0  0  0
 28  9  1  0  0  0  0
 28 23  1  0  0  0  0
 29 30  1  0  0  0  0
 31 30  1  0  0  0  0
 32 31  1  0  0  0  0
 32 30  1  0  0  0  0
M  END
>  <MODEL>
9

>  <REMARK>
 VINA RESULT:      -7.0      4.179      8.979
  Name = 
  2 active torsions:
  status: ('A' for Active; 'I' for Inactive)
    1  A    between atoms: C_1  and  C_10
    2  A    between atoms: C_10  and  C_24
                            x       y       z     vdW  Elec       q    Type
                         _______ _______ _______ _____ _____    ______ ____

>  <TORSDO>
F 2

$$$$
