=
 OpenBabel10262420533D

 28 31  0  0  1  0  0  0  0  0999 V2000
  190.2760  177.2340  142.3520 N   0  0  0  0  0  0  0  0  0  0  0  0
  189.9270  176.8410  141.0080 C   0  0  0  0  0  0  0  0  0  0  0  0
  188.7240  176.6090  140.7130 O   0  0  0  0  0  0  0  0  0  0  0  0
  189.6860  177.5070  144.7580 N   0  0  0  0  0  0  0  0  0  0  0  0
  188.5160  176.0450  143.3500 O   0  0  0  0  0  0  0  0  0  0  0  0
  191.3860  178.9470  143.7270 C   0  0  0  0  0  2  0  0  0  0  0  0
  190.9510  178.2080  144.9850 C   0  0  0  0  0  2  0  0  0  0  0  0
  191.5330  177.9470  142.5890 C   0  0  0  0  0  2  0  0  0  0  0  0
  189.4440  176.8900  143.4780 C   0  0  0  0  0  0  0  0  0  0  0  0
  190.9630  176.7890  139.9130 C   0  0  1  0  0  3  0  0  0  0  0  0
  190.3750  176.2320  138.6290 C   0  0  0  0  0  2  0  0  0  0  0  0
  190.6900  177.7090  138.7110 C   0  0  1  0  0  3  0  0  0  0  0  0
  189.4410  178.4530  138.8230 N   0  0  0  0  0  2  0  0  0  0  0  0
  187.7120  178.3790  137.1180 C   0  0  0  0  0  1  0  0  0  0  0  0
  189.0880  178.9010  137.4870 C   0  0  0  0  0  2  0  0  0  0  0  0
  189.2130  176.6970  146.9610 C   0  0  0  0  0  2  0  0  0  0  0  0
  188.7810  177.3170  145.8630 C   0  0  0  0  0  0  0  0  0  0  0  0
  184.6530  178.1640  142.2290 N   0  0  0  0  0  1  0  0  0  0  0  0
  184.6740  178.6990  145.7490 C   0  0  0  0  0  0  0  0  0  0  0  0
  186.7200  177.8190  144.6500 C   0  0  0  0  0  3  0  0  0  0  0  0
  183.2780  178.8990  144.1310 N   0  0  0  0  0  0  0  0  0  0  0  0
  185.3530  178.3360  144.6190 C   0  0  0  0  0  0  0  0  0  0  0  0
  186.8010  178.5480  147.0350 C   0  0  0  0  0  2  0  0  0  0  0  0
  183.4000  179.0220  145.4490 N   0  0  0  0  0  0  0  0  0  0  0  0
  185.2580  178.5180  147.1120 C   0  0  0  0  0  2  0  0  0  0  0  0
  182.0420  179.1390  143.4070 C   0  0  0  0  0  1  0  0  0  0  0  0
  184.4440  178.4780  143.6040 C   0  0  0  0  0  0  0  0  0  0  0  0
  187.3940  177.8430  145.8140 C   0  0  0  0  0  0  0  0  0  0  0  0
  1  8  1  0  0  0  0
  1  9  1  0  0  0  0
  2  1  1  0  0  0  0
  3  2  2  0  0  0  0
  4  7  1  0  0  0  0
  4 17  1  0  0  0  0
  5  9  2  0  0  0  0
  6  7  1  0  0  0  0
  8  6  1  0  0  0  0
  9  4  1  0  0  0  0
 10  2  1  1  0  0  0
 11 12  1  0  0  0  0
 11 10  1  0  0  0  0
 12 13  1  1  0  0  0
 12 10  1  0  0  0  0
 14 15  1  0  0  0  0
 15 13  1  0  0  0  0
 17 16  2  0  0  0  0
 18 27  1  0  0  0  0
 19 25  1  0  0  0  0
 20 28  2  0  0  0  0
 21 24  1  0  0  0  0
 22 20  1  0  0  0  0
 22 19  1  0  0  0  0
 23 25  1  0  0  0  0
 24 19  2  0  0  0  0
 26 21  1  0  0  0  0
 27 21  1  0  0  0  0
 27 22  2  0  0  0  0
 28 17  1  0  0  0  0
 28 23  1  0  0  0  0
M  END
>  <MODEL>
1

>  <REMARK>
 VINA RESULT:      -9.1      0.000      0.000
  Name = 
  5 active torsions:
  status: ('A' for Active; 'I' for Inactive)
    1  A    between atoms: C_2  and  C_3
    2  A    between atoms: N_6  and  C_11
    3  A    between atoms: N_6  and  C_28
    4  A    between atoms: N_16  and  C_20
    5  A    between atoms: C_20  and  C_25
                            x       y       z     vdW  Elec       q    Type
                         _______ _______ _______ _____ _____    ______ ____

>  <TORSDO>
F 5

$$$$
=
 OpenBabel10262420533D

 28 31  0  0  1  0  0  0  0  0999 V2000
  184.5560  177.7300  138.3200 N   0  0  0  0  0  0  0  0  0  0  0  0
  185.7310  178.0650  137.5540 C   0  0  0  0  0  0  0  0  0  0  0  0
  186.6780  178.6950  138.0980 O   0  0  0  0  0  0  0  0  0  0  0  0
  183.1490  177.9800  140.3620 N   0  0  0  0  0  0  0  0  0  0  0  0
  184.7200  179.5990  139.7290 O   0  0  0  0  0  0  0  0  0  0  0  0
  183.0880  175.9000  139.0620 C   0  0  0  0  0  2  0  0  0  0  0  0
  182.2900  176.8880  139.9000 C   0  0  0  0  0  2  0  0  0  0  0  0
  183.6960  176.6310  137.8740 C   0  0  0  0  0  2  0  0  0  0  0  0
  184.1730  178.4890  139.4840 C   0  0  0  0  0  0  0  0  0  0  0  0
  185.8980  177.5970  136.1300 C   0  0  1  0  0  3  0  0  0  0  0  0
  187.3580  177.6160  135.7150 C   0  0  0  0  0  2  0  0  0  0  0  0
  186.6820  176.2850  135.9610 C   0  0  1  0  0  3  0  0  0  0  0  0
  187.1670  175.7330  137.2200 N   0  0  0  0  0  2  0  0  0  0  0  0
  185.8840  173.6730  137.3300 C   0  0  0  0  0  1  0  0  0  0  0  0
  187.2410  174.2920  137.0560 C   0  0  0  0  0  2  0  0  0  0  0  0
  181.7140  179.3020  141.7500 C   0  0  0  0  0  2  0  0  0  0  0  0
  182.8530  178.6230  141.6180 C   0  0  0  0  0  0  0  0  0  0  0  0
  187.9900  176.8620  142.8290 N   0  0  0  0  0  1  0  0  0  0  0  0
  185.6000  178.4110  144.9640 C   0  0  0  0  0  0  0  0  0  0  0  0
  185.0150  178.0190  142.5830 C   0  0  0  0  0  3  0  0  0  0  0  0
  187.6060  177.6660  145.1220 N   0  0  0  0  0  0  0  0  0  0  0  0
  185.9110  177.9070  143.7320 C   0  0  0  0  0  0  0  0  0  0  0  0
  183.2580  178.7630  144.1910 C   0  0  0  0  0  2  0  0  0  0  0  0
  186.6470  178.2810  145.8040 N   0  0  0  0  0  0  0  0  0  0  0  0
  184.3460  179.1870  145.2050 C   0  0  0  0  0  2  0  0  0  0  0  0
  188.9150  177.3540  145.6680 C   0  0  0  0  0  1  0  0  0  0  0  0
  187.1900  177.4340  143.8610 C   0  0  0  0  0  0  0  0  0  0  0  0
  183.7730  178.4990  142.7750 C   0  0  0  0  0  0  0  0  0  0  0  0
  1  9  1  0  0  0  0
  2  3  2  0  0  0  0
  2  1  1  0  0  0  0
  4 17  1  0  0  0  0
  6  7  1  0  0  0  0
  7  4  1  0  0  0  0
  8  1  1  0  0  0  0
  8  6  1  0  0  0  0
  9  5  2  0  0  0  0
  9  4  1  0  0  0  0
 10  2  1  1  0  0  0
 11 12  1  0  0  0  0
 11 10  1  0  0  0  0
 12 10  1  0  0  0  0
 12 13  1  1  0  0  0
 15 13  1  0  0  0  0
 15 14  1  0  0  0  0
 17 16  2  0  0  0  0
 17 28  1  0  0  0  0
 18 27  1  0  0  0  0
 19 25  1  0  0  0  0
 19 24  2  0  0  0  0
 20 28  2  0  0  0  0
 20 22  1  0  0  0  0
 21 26  1  0  0  0  0
 21 24  1  0  0  0  0
 22 27  2  0  0  0  0
 22 19  1  0  0  0  0
 23 25  1  0  0  0  0
 27 21  1  0  0  0  0
 28 23  1  0  0  0  0
M  END
>  <MODEL>
2

>  <REMARK>
 VINA RESULT:      -8.6      3.054      5.967
  Name = 
  5 active torsions:
  status: ('A' for Active; 'I' for Inactive)
    1  A    between atoms: C_2  and  C_3
    2  A    between atoms: N_6  and  C_11
    3  A    between atoms: N_6  and  C_28
    4  A    between atoms: N_16  and  C_20
    5  A    between atoms: C_20  and  C_25
                            x       y       z     vdW  Elec       q    Type
                         _______ _______ _______ _____ _____    ______ ____

>  <TORSDO>
F 5

$$$$
=
 OpenBabel10262420533D

 28 31  0  0  1  0  0  0  0  0999 V2000
  189.1110  176.1060  137.2470 N   0  0  0  0  0  0  0  0  0  0  0  0
  188.9040  174.8770  136.5200 C   0  0  0  0  0  0  0  0  0  0  0  0
  189.0840  173.7690  137.0930 O   0  0  0  0  0  0  0  0  0  0  0  0
  189.9680  177.3330  139.2400 N   0  0  0  0  0  0  0  0  0  0  0  0
  190.7590  175.2060  138.6540 O   0  0  0  0  0  0  0  0  0  0  0  0
  188.0870  178.2320  137.9460 C   0  0  0  0  0  2  0  0  0  0  0  0
  189.3340  178.5590  138.7530 C   0  0  0  0  0  2  0  0  0  0  0  0
  188.4710  177.3370  136.7760 C   0  0  0  0  0  2  0  0  0  0  0  0
  189.9810  176.1650  138.3950 C   0  0  0  0  0  0  0  0  0  0  0  0
  188.3850  174.8840  135.1030 C   0  0  1  0  0  3  0  0  0  0  0  0
  187.6930  173.5740  134.7690 C   0  0  0  0  0  2  0  0  0  0  0  0
  186.8540  174.8160  134.9690 C   0  0  1  0  0  3  0  0  0  0  0  0
  186.1640  174.7200  136.2490 N   0  0  0  0  0  2  0  0  0  0  0  0
  185.3200  172.9080  137.6300 C   0  0  0  0  0  1  0  0  0  0  0  0
  185.3960  173.4870  136.2300 C   0  0  0  0  0  2  0  0  0  0  0  0
  192.0240  177.4880  140.4570 C   0  0  0  0  0  2  0  0  0  0  0  0
  190.6980  177.3650  140.4830 C   0  0  0  0  0  0  0  0  0  0  0  0
  191.7850  177.1340  145.9350 N   0  0  0  0  0  1  0  0  0  0  0  0
  188.6340  177.3750  144.2950 C   0  0  0  0  0  0  0  0  0  0  0  0
  190.7050  177.3030  142.9260 C   0  0  0  0  0  3  0  0  0  0  0  0
  189.3600  177.2960  146.3130 N   0  0  0  0  0  0  0  0  0  0  0  0
  189.9930  177.2550  144.2010 C   0  0  0  0  0  0  0  0  0  0  0  0
  188.4740  177.1070  141.8240 C   0  0  0  0  0  2  0  0  0  0  0  0
  188.2540  177.4210  145.5880 N   0  0  0  0  0  0  0  0  0  0  0  0
  187.7820  177.6440  143.0980 C   0  0  0  0  0  2  0  0  0  0  0  0
  189.3820  177.3150  147.7650 C   0  0  0  0  0  1  0  0  0  0  0  0
  190.4300  177.2010  145.4980 C   0  0  0  0  0  0  0  0  0  0  0  0
  189.9900  177.3120  141.7860 C   0  0  0  0  0  0  0  0  0  0  0  0
  1  9  1  0  0  0  0
  2  3  2  0  0  0  0
  2  1  1  0  0  0  0
  4 17  1  0  0  0  0
  6  7  1  0  0  0  0
  7  4  1  0  0  0  0
  8  1  1  0  0  0  0
  8  6  1  0  0  0  0
  9  5  2  0  0  0  0
  9  4  1  0  0  0  0
 10  2  1  1  0  0  0
 11 12  1  0  0  0  0
 11 10  1  0  0  0  0
 12 10  1  0  0  0  0
 12 13  1  1  0  0  0
 15 13  1  0  0  0  0
 15 14  1  0  0  0  0
 16 17  2  0  0  0  0
 17 28  1  0  0  0  0
 19 24  2  0  0  0  0
 20 22  1  0  0  0  0
 21 26  1  0  0  0  0
 22 19  1  0  0  0  0
 22 27  2  0  0  0  0
 23 25  1  0  0  0  0
 24 21  1  0  0  0  0
 25 19  1  0  0  0  0
 27 18  1  0  0  0  0
 27 21  1  0  0  0  0
 28 23  1  0  0  0  0
 28 20  2  0  0  0  0
M  END
>  <MODEL>
3

>  <REMARK>
 VINA RESULT:      -8.1      3.043      5.911
  Name = 
  5 active torsions:
  status: ('A' for Active; 'I' for Inactive)
    1  A    between atoms: C_2  and  C_3
    2  A    between atoms: N_6  and  C_11
    3  A    between atoms: N_6  and  C_28
    4  A    between atoms: N_16  and  C_20
    5  A    between atoms: C_20  and  C_25
                            x       y       z     vdW  Elec       q    Type
                         _______ _______ _______ _____ _____    ______ ____

>  <TORSDO>
F 5

$$$$
=
 OpenBabel10262420533D

 28 31  0  0  1  0  0  0  0  0999 V2000
  182.4820  178.6250  141.8630 N   0  0  0  0  0  0  0  0  0  0  0  0
  181.5870  178.2320  140.8010 C   0  0  0  0  0  0  0  0  0  0  0  0
  181.9480  177.3620  139.9640 O   0  0  0  0  0  0  0  0  0  0  0  0
  184.7490  178.6410  142.8990 N   0  0  0  0  0  0  0  0  0  0  0  0
  184.4280  178.2190  140.6160 O   0  0  0  0  0  0  0  0  0  0  0  0
  182.7440  178.8470  144.2990 C   0  0  0  0  0  2  0  0  0  0  0  0
  184.1920  179.2690  144.0980 C   0  0  0  0  0  2  0  0  0  0  0  0
  181.9350  179.2430  143.0730 C   0  0  0  0  0  2  0  0  0  0  0  0
  183.9110  178.4770  141.7370 C   0  0  0  0  0  0  0  0  0  0  0  0
  180.1820  178.7750  140.7210 C   0  0  1  0  0  3  0  0  0  0  0  0
  179.3510  177.9930  139.7190 C   0  0  0  0  0  2  0  0  0  0  0  0
  179.0810  177.8120  141.1960 C   0  0  1  0  0  3  0  0  0  0  0  0
  179.5900  176.5110  141.6140 N   0  0  0  0  0  2  0  0  0  0  0  0
  179.2960  174.1250  141.2670 C   0  0  0  0  0  1  0  0  0  0  0  0
  178.9850  175.5150  140.7470 C   0  0  0  0  0  2  0  0  0  0  0  0
  186.8190  178.4920  141.7050 C   0  0  0  0  0  2  0  0  0  0  0  0
  186.1580  178.3420  142.8520 C   0  0  0  0  0  0  0  0  0  0  0  0
  191.2920  176.9640  144.4970 N   0  0  0  0  0  1  0  0  0  0  0  0
  188.3270  177.2620  146.4460 C   0  0  0  0  0  0  0  0  0  0  0  0
  188.2190  177.7170  144.0070 C   0  0  0  0  0  3  0  0  0  0  0  0
  190.3940  176.7900  146.7810 N   0  0  0  0  0  0  0  0  0  0  0  0
  188.9260  177.3040  145.2180 C   0  0  0  0  0  0  0  0  0  0  0  0
  186.1160  177.5590  145.3410 C   0  0  0  0  0  2  0  0  0  0  0  0
  189.2330  176.9690  147.4010 N   0  0  0  0  0  0  0  0  0  0  0  0
  186.9190  177.7140  146.6530 C   0  0  0  0  0  2  0  0  0  0  0  0
  191.6370  176.4750  147.4630 C   0  0  0  0  0  1  0  0  0  0  0  0
  190.2390  176.9940  145.4570 C   0  0  0  0  0  0  0  0  0  0  0  0
  186.8900  177.9180  144.0710 C   0  0  0  0  0  0  0  0  0  0  0  0
  1  8  1  0  0  0  0
  2  1  1  0  0  0  0
  3  2  2  0  0  0  0
  4  7  1  0  0  0  0
  5  9  2  0  0  0  0
  7  6  1  0  0  0  0
  8  6  1  0  0  0  0
  9  1  1  0  0  0  0
  9  4  1  0  0  0  0
 10  2  1  1  0  0  0
 10 12  1  0  0  0  0
 11 10  1  0  0  0  0
 11 12  1  0  0  0  0
 12 13  1  1  0  0  0
 15 14  1  0  0  0  0
 15 13  1  0  0  0  0
 16 17  2  0  0  0  0
 17  4  1  0  0  0  0
 17 28  1  0  0  0  0
 18 27  1  0  0  0  0
 19 25  1  0  0  0  0
 19 24  2  0  0  0  0
 20 28  2  0  0  0  0
 20 22  1  0  0  0  0
 21 24  1  0  0  0  0
 21 26  1  0  0  0  0
 22 27  2  0  0  0  0
 22 19  1  0  0  0  0
 23 25  1  0  0  0  0
 27 21  1  0  0  0  0
 28 23  1  0  0  0  0
M  END
>  <MODEL>
4

>  <REMARK>
 VINA RESULT:      -8.1      3.158      7.620
  Name = 
  5 active torsions:
  status: ('A' for Active; 'I' for Inactive)
    1  A    between atoms: C_2  and  C_3
    2  A    between atoms: N_6  and  C_11
    3  A    between atoms: N_6  and  C_28
    4  A    between atoms: N_16  and  C_20
    5  A    between atoms: C_20  and  C_25
                            x       y       z     vdW  Elec       q    Type
                         _______ _______ _______ _____ _____    ______ ____

>  <TORSDO>
F 5

$$$$
=
 OpenBabel10262420533D

 28 31  0  0  1  0  0  0  0  0999 V2000
  184.8970  178.0710  138.9600 N   0  0  0  0  0  0  0  0  0  0  0  0
  186.0210  178.2800  138.0800 C   0  0  0  0  0  0  0  0  0  0  0  0
  187.1530  178.5580  138.5600 O   0  0  0  0  0  0  0  0  0  0  0  0
  183.8490  178.2150  141.2170 N   0  0  0  0  0  0  0  0  0  0  0  0
  185.6910  179.5320  140.6160 O   0  0  0  0  0  0  0  0  0  0  0  0
  183.1130  176.5070  139.6150 C   0  0  0  0  0  2  0  0  0  0  0  0
  182.6950  177.4610  140.7250 C   0  0  0  0  0  2  0  0  0  0  0  0
  183.7420  177.3070  138.4830 C   0  0  0  0  0  2  0  0  0  0  0  0
  184.8570  178.6470  140.2810 C   0  0  0  0  0  0  0  0  0  0  0  0
  185.8960  178.0830  136.5900 C   0  0  1  0  0  3  0  0  0  0  0  0
  187.2550  177.8600  135.9520 C   0  0  0  0  0  2  0  0  0  0  0  0
  186.3040  176.6910  136.0780 C   0  0  1  0  0  3  0  0  0  0  0  0
  186.7820  175.8040  137.1320 N   0  0  0  0  0  2  0  0  0  0  0  0
  185.1880  173.9870  137.3720 C   0  0  0  0  0  1  0  0  0  0  0  0
  186.4780  174.4450  136.7180 C   0  0  0  0  0  2  0  0  0  0  0  0
  182.8270  179.2990  143.0910 C   0  0  0  0  0  2  0  0  0  0  0  0
  183.8740  178.6420  142.5930 C   0  0  0  0  0  0  0  0  0  0  0  0
  185.7170  179.6050  147.7540 N   0  0  0  0  0  1  0  0  0  0  0  0
  187.1520  177.5630  145.2160 C   0  0  0  0  0  0  0  0  0  0  0  0
  185.0320  178.7650  144.7420 C   0  0  0  0  0  3  0  0  0  0  0  0
  187.5940  178.0990  147.2460 N   0  0  0  0  0  0  0  0  0  0  0  0
  186.1690  178.4340  145.5970 C   0  0  0  0  0  0  0  0  0  0  0  0
  186.2570  177.6220  142.8930 C   0  0  0  0  0  2  0  0  0  0  0  0
  188.0080  177.3450  146.2340 N   0  0  0  0  0  0  0  0  0  0  0  0
  187.0900  176.8220  143.9200 C   0  0  0  0  0  2  0  0  0  0  0  0
  188.2410  178.1360  148.5460 C   0  0  0  0  0  1  0  0  0  0  0  0
  186.4770  178.7650  146.8900 C   0  0  0  0  0  0  0  0  0  0  0  0
  185.0240  178.3180  143.4730 C   0  0  0  0  0  0  0  0  0  0  0  0
  1  9  1  0  0  0  0
  2  3  2  0  0  0  0
  2  1  1  0  0  0  0
  4 17  1  0  0  0  0
  6  7  1  0  0  0  0
  7  4  1  0  0  0  0
  8  1  1  0  0  0  0
  8  6  1  0  0  0  0
  9  5  2  0  0  0  0
  9  4  1  0  0  0  0
 10  2  1  1  0  0  0
 11 12  1  0  0  0  0
 11 10  1  0  0  0  0
 12 10  1  0  0  0  0
 12 13  1  1  0  0  0
 15 13  1  0  0  0  0
 15 14  1  0  0  0  0
 17 16  2  0  0  0  0
 17 28  1  0  0  0  0
 19 22  1  0  0  0  0
 19 24  2  0  0  0  0
 20 22  1  0  0  0  0
 21 26  1  0  0  0  0
 22 27  2  0  0  0  0
 23 28  1  0  0  0  0
 23 25  1  0  0  0  0
 24 21  1  0  0  0  0
 25 19  1  0  0  0  0
 27 21  1  0  0  0  0
 27 18  1  0  0  0  0
 28 20  2  0  0  0  0
M  END
>  <MODEL>
5

>  <REMARK>
 VINA RESULT:      -8.0      3.142      5.747
  Name = 
  5 active torsions:
  status: ('A' for Active; 'I' for Inactive)
    1  A    between atoms: C_2  and  C_3
    2  A    between atoms: N_6  and  C_11
    3  A    between atoms: N_6  and  C_28
    4  A    between atoms: N_16  and  C_20
    5  A    between atoms: C_20  and  C_25
                            x       y       z     vdW  Elec       q    Type
                         _______ _______ _______ _____ _____    ______ ____

>  <TORSDO>
F 5

$$$$
=
 OpenBabel10262420533D

 28 31  0  0  1  0  0  0  0  0999 V2000
  189.0120  175.9320  137.7190 N   0  0  0  0  0  0  0  0  0  0  0  0
  188.8520  174.6970  136.9920 C   0  0  0  0  0  0  0  0  0  0  0  0
  189.3400  173.6290  137.4500 O   0  0  0  0  0  0  0  0  0  0  0  0
  190.0870  177.2630  139.5320 N   0  0  0  0  0  0  0  0  0  0  0  0
  191.0660  175.3160  138.6710 O   0  0  0  0  0  0  0  0  0  0  0  0
  187.8360  177.8370  138.7420 C   0  0  0  0  0  2  0  0  0  0  0  0
  189.1630  178.3660  139.2660 C   0  0  0  0  0  2  0  0  0  0  0  0
  188.0850  177.0390  137.4700 C   0  0  0  0  0  2  0  0  0  0  0  0
  190.1000  176.1270  138.6440 C   0  0  0  0  0  0  0  0  0  0  0  0
  188.0270  174.6320  135.7310 C   0  0  1  0  0  3  0  0  0  0  0  0
  187.6110  173.2040  135.4230 C   0  0  0  0  0  2  0  0  0  0  0  0
  186.5700  174.1790  135.9260 C   0  0  1  0  0  3  0  0  0  0  0  0
  186.2440  173.8520  137.3090 N   0  0  0  0  0  2  0  0  0  0  0  0
  183.9430  174.5780  137.5920 C   0  0  0  0  0  1  0  0  0  0  0  0
  184.8640  173.4010  137.3290 C   0  0  0  0  0  2  0  0  0  0  0  0
  192.3570  177.5060  140.2560 C   0  0  0  0  0  2  0  0  0  0  0  0
  191.0680  177.4050  140.5790 C   0  0  0  0  0  0  0  0  0  0  0  0
  186.4670  177.6420  143.6990 N   0  0  0  0  0  1  0  0  0  0  0  0
  189.8670  177.4840  144.7430 C   0  0  0  0  0  0  0  0  0  0  0  0
  189.3490  177.4840  142.3150 C   0  0  0  0  0  3  0  0  0  0  0  0
  187.9340  177.5560  145.6720 N   0  0  0  0  0  0  0  0  0  0  0  0
  188.9620  177.5620  143.7210 C   0  0  0  0  0  0  0  0  0  0  0  0
  191.7080  177.7390  143.0860 C   0  0  0  0  0  2  0  0  0  0  0  0
  189.2330  177.4590  145.9330 N   0  0  0  0  0  0  0  0  0  0  0  0
  191.3180  177.2320  144.4930 C   0  0  0  0  0  2  0  0  0  0  0  0
  186.9000  177.5460  146.6930 C   0  0  0  0  0  1  0  0  0  0  0  0
  187.7400  177.6130  144.3390 C   0  0  0  0  0  0  0  0  0  0  0  0
  190.6580  177.4890  142.0020 C   0  0  0  0  0  0  0  0  0  0  0  0
  1  9  1  0  0  0  0
  2  3  2  0  0  0  0
  2  1  1  0  0  0  0
  4 17  1  0  0  0  0
  6  7  1  0  0  0  0
  7  4  1  0  0  0  0
  8  1  1  0  0  0  0
  8  6  1  0  0  0  0
  9  5  2  0  0  0  0
  9  4  1  0  0  0  0
 10 12  1  0  0  0  0
 10  2  1  1  0  0  0
 11 10  1  0  0  0  0
 11 12  1  0  0  0  0
 12 13  1  1  0  0  0
 13 15  1  0  0  0  0
 15 14  1  0  0  0  0
 16 17  2  0  0  0  0
 17 28  1  0  0  0  0
 18 27  1  0  0  0  0
 19 24  2  0  0  0  0
 20 22  1  0  0  0  0
 21 24  1  0  0  0  0
 21 26  1  0  0  0  0
 22 27  2  0  0  0  0
 22 19  1  0  0  0  0
 23 25  1  0  0  0  0
 25 19  1  0  0  0  0
 27 21  1  0  0  0  0
 28 20  2  0  0  0  0
 28 23  1  0  0  0  0
M  END
>  <MODEL>
6

>  <REMARK>
 VINA RESULT:      -7.7      2.928      5.477
  Name = 
  5 active torsions:
  status: ('A' for Active; 'I' for Inactive)
    1  A    between atoms: C_2  and  C_3
    2  A    between atoms: N_6  and  C_11
    3  A    between atoms: N_6  and  C_28
    4  A    between atoms: N_16  and  C_20
    5  A    between atoms: C_20  and  C_25
                            x       y       z     vdW  Elec       q    Type
                         _______ _______ _______ _____ _____    ______ ____

>  <TORSDO>
F 5

$$$$
=
 OpenBabel10262420533D

 28 31  0  0  1  0  0  0  0  0999 V2000
  182.4260  178.6040  141.9780 N   0  0  0  0  0  0  0  0  0  0  0  0
  181.4990  178.1290  140.9800 C   0  0  0  0  0  0  0  0  0  0  0  0
  181.8380  177.2030  140.1950 O   0  0  0  0  0  0  0  0  0  0  0  0
  184.7280  178.7120  142.9280 N   0  0  0  0  0  0  0  0  0  0  0  0
  184.3310  178.1240  140.6940 O   0  0  0  0  0  0  0  0  0  0  0  0
  182.7720  179.0030  144.3810 C   0  0  0  0  0  2  0  0  0  0  0  0
  184.2080  179.4200  144.0980 C   0  0  0  0  0  2  0  0  0  0  0  0
  181.9160  179.3030  143.1590 C   0  0  0  0  0  2  0  0  0  0  0  0
  183.8510  178.4590  141.8120 C   0  0  0  0  0  0  0  0  0  0  0  0
  180.0860  178.6540  140.9110 C   0  0  1  0  0  3  0  0  0  0  0  0
  180.0570  180.1660  141.0500 C   0  0  0  0  0  2  0  0  0  0  0  0
  179.7790  179.5470  139.6980 C   0  0  1  0  0  3  0  0  0  0  0  0
  180.9320  179.7640  138.8320 N   0  0  0  0  0  2  0  0  0  0  0  0
  181.1810  182.0210  137.9690 C   0  0  0  0  0  1  0  0  0  0  0  0
  180.5120  180.6730  137.7790 C   0  0  0  0  0  2  0  0  0  0  0  0
  186.7850  178.6260  141.7050 C   0  0  0  0  0  2  0  0  0  0  0  0
  186.1380  178.4210  142.8510 C   0  0  0  0  0  0  0  0  0  0  0  0
  191.3070  177.0590  144.3930 N   0  0  0  0  0  1  0  0  0  0  0  0
  188.3490  177.1890  146.3690 C   0  0  0  0  0  0  0  0  0  0  0  0
  188.2170  177.7750  143.9600 C   0  0  0  0  0  3  0  0  0  0  0  0
  190.4270  176.7410  146.6680 N   0  0  0  0  0  0  0  0  0  0  0  0
  188.9390  177.3100  145.1420 C   0  0  0  0  0  0  0  0  0  0  0  0
  186.1250  177.5010  145.2930 C   0  0  0  0  0  2  0  0  0  0  0  0
  189.2660  176.8610  147.3020 N   0  0  0  0  0  0  0  0  0  0  0  0
  186.9330  177.6000  146.6070 C   0  0  0  0  0  2  0  0  0  0  0  0
  191.6790  176.4130  147.3260 C   0  0  0  0  0  1  0  0  0  0  0  0
  190.2600  177.0140  145.3580 C   0  0  0  0  0  0  0  0  0  0  0  0
  186.8850  177.9450  144.0410 C   0  0  0  0  0  0  0  0  0  0  0  0
  1  8  1  0  0  0  0
  2  1  1  0  0  0  0
  3  2  2  0  0  0  0
  4  7  1  0  0  0  0
  5  9  2  0  0  0  0
  7  6  1  0  0  0  0
  8  6  1  0  0  0  0
  9  1  1  0  0  0  0
  9  4  1  0  0  0  0
 10  2  1  6  0  0  0
 10 11  1  0  0  0  0
 12 13  1  6  0  0  0
 12 10  1  0  0  0  0
 12 11  1  0  0  0  0
 15 14  1  0  0  0  0
 15 13  1  0  0  0  0
 16 17  2  0  0  0  0
 17  4  1  0  0  0  0
 17 28  1  0  0  0  0
 18 27  1  0  0  0  0
 19 25  1  0  0  0  0
 19 24  2  0  0  0  0
 20 28  2  0  0  0  0
 20 22  1  0  0  0  0
 21 24  1  0  0  0  0
 21 26  1  0  0  0  0
 22 27  2  0  0  0  0
 22 19  1  0  0  0  0
 23 25  1  0  0  0  0
 27 21  1  0  0  0  0
 28 23  1  0  0  0  0
M  END
>  <MODEL>
7

>  <REMARK>
 VINA RESULT:      -7.7      3.160      7.287
  Name = 
  5 active torsions:
  status: ('A' for Active; 'I' for Inactive)
    1  A    between atoms: C_2  and  C_3
    2  A    between atoms: N_6  and  C_11
    3  A    between atoms: N_6  and  C_28
    4  A    between atoms: N_16  and  C_20
    5  A    between atoms: C_20  and  C_25
                            x       y       z     vdW  Elec       q    Type
                         _______ _______ _______ _____ _____    ______ ____

>  <TORSDO>
F 5

$$$$
=
 OpenBabel10262420533D

 28 31  0  0  1  0  0  0  0  0999 V2000
  182.2720  178.7890  141.6270 N   0  0  0  0  0  0  0  0  0  0  0  0
  180.8880  179.1450  141.4270 C   0  0  0  0  0  0  0  0  0  0  0  0
  180.2680  179.7880  142.3160 O   0  0  0  0  0  0  0  0  0  0  0  0
  184.2640  178.5620  143.1080 N   0  0  0  0  0  0  0  0  0  0  0  0
  182.0830  178.6440  143.9620 O   0  0  0  0  0  0  0  0  0  0  0  0
  184.5460  178.9370  140.7000 C   0  0  0  0  0  2  0  0  0  0  0  0
  185.0900  178.2470  141.9420 C   0  0  0  0  0  2  0  0  0  0  0  0
  183.1110  178.4850  140.4670 C   0  0  0  0  0  2  0  0  0  0  0  0
  182.8350  178.6680  142.9490 C   0  0  0  0  0  0  0  0  0  0  0  0
  180.1820  178.8430  140.1280 C   0  0  1  0  0  3  0  0  0  0  0  0
  178.9410  179.7020  139.9680 C   0  0  0  0  0  2  0  0  0  0  0  0
  180.1540  180.0010  139.1160 C   0  0  1  0  0  3  0  0  0  0  0  0
  180.7910  181.2160  139.6080 N   0  0  0  0  0  2  0  0  0  0  0  0
  181.1140  182.6350  137.6620 C   0  0  0  0  0  1  0  0  0  0  0  0
  181.7540  181.6320  138.6030 C   0  0  0  0  0  2  0  0  0  0  0  0
  184.1560  179.0090  145.4580 C   0  0  0  0  0  2  0  0  0  0  0  0
  184.8760  178.6040  144.4120 C   0  0  0  0  0  0  0  0  0  0  0  0
  188.6570  178.0740  148.4600 N   0  0  0  0  0  1  0  0  0  0  0  0
  188.9130  177.1530  145.0310 C   0  0  0  0  0  0  0  0  0  0  0  0
  186.8030  178.1710  145.8520 C   0  0  0  0  0  3  0  0  0  0  0  0
  190.1440  177.0570  146.7860 N   0  0  0  0  0  0  0  0  0  0  0  0
  188.1820  177.7260  146.0340 C   0  0  0  0  0  0  0  0  0  0  0  0
  187.1600  177.8460  143.4040 C   0  0  0  0  0  2  0  0  0  0  0  0
  190.1030  176.7260  145.5010 N   0  0  0  0  0  0  0  0  0  0  0  0
  188.3220  176.8670  143.6890 C   0  0  0  0  0  2  0  0  0  0  0  0
  191.2600  176.7530  147.6650 C   0  0  0  0  0  1  0  0  0  0  0  0
  188.9900  177.6580  147.1390 C   0  0  0  0  0  0  0  0  0  0  0  0
  186.2770  178.1600  144.6130 C   0  0  0  0  0  0  0  0  0  0  0  0
  1  9  1  0  0  0  0
  2  1  1  0  0  0  0
  2  3  2  0  0  0  0
  4 17  1  0  0  0  0
  6  7  1  0  0  0  0
  7  4  1  0  0  0  0
  8  6  1  0  0  0  0
  8  1  1  0  0  0  0
  9  4  1  0  0  0  0
  9  5  2  0  0  0  0
 10  2  1  1  0  0  0
 11 10  1  0  0  0  0
 12 13  1  1  0  0  0
 12 11  1  0  0  0  0
 12 10  1  0  0  0  0
 14 15  1  0  0  0  0
 15 13  1  0  0  0  0
 17 28  1  0  0  0  0
 17 16  2  0  0  0  0
 19 24  2  0  0  0  0
 19 22  1  0  0  0  0
 20 22  1  0  0  0  0
 21 27  1  0  0  0  0
 21 26  1  0  0  0  0
 22 27  2  0  0  0  0
 23 25  1  0  0  0  0
 23 28  1  0  0  0  0
 24 21  1  0  0  0  0
 25 19  1  0  0  0  0
 27 18  1  0  0  0  0
 28 20  2  0  0  0  0
M  END
>  <MODEL>
8

>  <REMARK>
 VINA RESULT:      -7.5      3.613      7.469
  Name = 
  5 active torsions:
  status: ('A' for Active; 'I' for Inactive)
    1  A    between atoms: C_2  and  C_3
    2  A    between atoms: N_6  and  C_11
    3  A    between atoms: N_6  and  C_28
    4  A    between atoms: N_16  and  C_20
    5  A    between atoms: C_20  and  C_25
                            x       y       z     vdW  Elec       q    Type
                         _______ _______ _______ _____ _____    ______ ____

>  <TORSDO>
F 5

$$$$
=
 OpenBabel10262420533D

 28 31  0  0  1  0  0  0  0  0999 V2000
  182.9300  178.8130  140.8080 N   0  0  0  0  0  0  0  0  0  0  0  0
  181.6780  179.1240  140.1630 C   0  0  0  0  0  0  0  0  0  0  0  0
  180.7760  179.7330  140.8000 O   0  0  0  0  0  0  0  0  0  0  0  0
  184.3290  178.6300  142.8630 N   0  0  0  0  0  0  0  0  0  0  0  0
  181.9870  178.6250  142.9490 O   0  0  0  0  0  0  0  0  0  0  0  0
  185.3760  179.0520  140.6850 C   0  0  0  0  0  2  0  0  0  0  0  0
  185.5050  178.3620  142.0340 C   0  0  0  0  0  2  0  0  0  0  0  0
  184.1170  178.5550  139.9890 C   0  0  0  0  0  2  0  0  0  0  0  0
  183.0300  178.6900  142.2410 C   0  0  0  0  0  0  0  0  0  0  0  0
  181.4530  178.8190  138.7030 C   0  0  1  0  0  3  0  0  0  0  0  0
  180.2060  179.5150  138.1860 C   0  0  0  0  0  2  0  0  0  0  0  0
  181.5630  180.0280  137.7580 C   0  0  1  0  0  3  0  0  0  0  0  0
  181.8350  181.2810  138.4510 N   0  0  0  0  0  2  0  0  0  0  0  0
  181.3490  183.4590  137.4890 C   0  0  0  0  0  1  0  0  0  0  0  0
  180.7650  182.2020  138.1060 C   0  0  0  0  0  2  0  0  0  0  0  0
  183.4450  179.0670  145.0450 C   0  0  0  0  0  2  0  0  0  0  0  0
  184.4750  178.6730  144.2970 C   0  0  0  0  0  0  0  0  0  0  0  0
  189.6030  176.9590  142.9850 N   0  0  0  0  0  1  0  0  0  0  0  0
  188.2070  177.5670  146.2030 C   0  0  0  0  0  0  0  0  0  0  0  0
  186.8010  177.9330  144.1890 C   0  0  0  0  0  3  0  0  0  0  0  0
  190.0960  176.9470  145.3950 N   0  0  0  0  0  0  0  0  0  0  0  0
  188.0360  177.5130  144.8480 C   0  0  0  0  0  0  0  0  0  0  0  0
  185.7670  177.9940  146.4590 C   0  0  0  0  0  2  0  0  0  0  0  0
  189.4740  177.2410  146.5310 N   0  0  0  0  0  0  0  0  0  0  0  0
  187.1630  178.1370  147.1070 C   0  0  0  0  0  2  0  0  0  0  0  0
  191.4940  176.5620  145.3140 C   0  0  0  0  0  1  0  0  0  0  0  0
  189.2510  177.1100  144.3580 C   0  0  0  0  0  0  0  0  0  0  0  0
  185.7340  178.2410  144.9500 C   0  0  0  0  0  0  0  0  0  0  0  0
  1  9  1  0  0  0  0
  2  3  2  0  0  0  0
  2  1  1  0  0  0  0
  4 17  1  0  0  0  0
  6  7  1  0  0  0  0
  7  4  1  0  0  0  0
  8  6  1  0  0  0  0
  8  1  1  0  0  0  0
  9  4  1  0  0  0  0
  9  5  2  0  0  0  0
 10  2  1  1  0  0  0
 11 10  1  0  0  0  0
 12 11  1  0  0  0  0
 12 13  1  1  0  0  0
 12 10  1  0  0  0  0
 14 15  1  0  0  0  0
 15 13  1  0  0  0  0
 17 28  1  0  0  0  0
 17 16  2  0  0  0  0
 18 27  1  0  0  0  0
 19 24  2  0  0  0  0
 19 25  1  0  0  0  0
 20 22  1  0  0  0  0
 20 28  2  0  0  0  0
 21 24  1  0  0  0  0
 22 19  1  0  0  0  0
 23 25  1  0  0  0  0
 26 21  1  0  0  0  0
 27 22  2  0  0  0  0
 27 21  1  0  0  0  0
 28 23  1  0  0  0  0
M  END
>  <MODEL>
9

>  <REMARK>
 VINA RESULT:      -7.5      3.757      6.905
  Name = 
  5 active torsions:
  status: ('A' for Active; 'I' for Inactive)
    1  A    between atoms: C_2  and  C_3
    2  A    between atoms: N_6  and  C_11
    3  A    between atoms: N_6  and  C_28
    4  A    between atoms: N_16  and  C_20
    5  A    between atoms: C_20  and  C_25
                            x       y       z     vdW  Elec       q    Type
                         _______ _______ _______ _____ _____    ______ ____

>  <TORSDO>
F 5

$$$$
