=
 OpenBabel10262420053D

 27 31  0  0  1  0  0  0  0  0999 V2000
  189.2740  176.7660  140.8260 C   0  0  0  0  0  3  0  0  0  0  0  0
  187.6310  178.1540  141.9970 C   0  0  0  0  0  0  0  0  0  0  0  0
  187.5580  178.9750  139.6830 N   0  0  0  0  0  0  0  0  0  0  0  0
  183.1050  177.9210  141.7750 S   0  0  0  0  0  0  0  0  0  0  0  0
  183.6590  176.9820  139.2630 C   0  0  0  0  0  1  0  0  0  0  0  0
  186.9270  177.9260  143.3210 C   0  0  0  0  0  2  0  0  0  0  0  0
  184.6780  179.1200  139.9570 C   0  0  0  0  0  0  0  0  0  0  0  0
  188.5660  177.4230  136.7330 C   0  0  0  0  0  2  0  0  0  0  0  0
  184.9420  179.7730  138.9590 O   0  0  0  0  0  0  0  0  0  0  0  0
  189.4960  176.2890  137.1670 C   0  0  2  0  0  3  0  0  0  0  0  0
  185.5200  179.1950  141.1930 C   0  0  1  0  0  3  0  0  0  0  0  0
  189.0990  177.8340  141.8570 C   0  0  1  0  0  3  0  0  0  0  0  0
  183.4430  178.2780  140.0210 C   0  0  2  0  0  3  0  0  0  0  0  0
  184.8050  178.3050  142.1630 C   0  0  0  0  0  0  0  0  0  0  0  0
  188.9980  176.9840  139.5430 C   0  0  0  0  0  0  0  0  0  0  0  0
  186.9500  178.7180  140.9670 C   0  0  0  0  0  0  0  0  0  0  0  0
  188.7700  178.6390  137.6340 C   0  0  0  0  0  2  0  0  0  0  0  0
  185.4650  177.6540  143.1240 C   0  0  0  0  0  3  0  0  0  0  0  0
  189.2370  175.1060  136.3680 N   0  0  0  0  0  1  0  0  0  0  0  0
  189.3220  175.9720  138.5850 N   0  0  0  0  0  2  0  0  0  0  0  0
  188.4520  178.2700  139.0460 C   0  0  0  0  0  0  0  0  0  0  0  0
  191.5880  177.0560  145.3000 C   0  0  0  0  0  2  0  0  0  0  0  0
  189.8080  177.4810  143.1780 C   0  0  2  0  0  3  0  0  0  0  0  0
  190.7330  178.5940  143.5980 C   0  0  0  0  0  3  0  0  0  0  0  0
  191.5830  178.3890  144.6080 C   0  0  0  0  0  3  0  0  0  0  0  0
  191.5400  175.9080  144.2790 C   0  0  0  0  0  2  0  0  0  0  0  0
  190.6220  176.1760  143.0670 C   0  0  0  0  0  2  0  0  0  0  0  0
  2  6  1  0  0  0  0
  3 16  1  0  0  0  0
  4 14  1  0  0  0  0
  7 13  1  0  0  0  0
  8 10  1  0  0  0  0
  8 17  1  0  0  0  0
  9  7  2  0  0  0  0
 10 19  1  6  0  0  0
 10 20  1  0  0  0  0
 11  7  1  6  0  0  0
 11 14  1  0  0  0  0
 12  1  1  6  0  0  0
 12  2  1  0  0  0  0
 12 23  1  0  0  0  0
 13  5  1  6  0  0  0
 13  4  1  0  0  0  0
 14 18  2  0  0  0  0
 15  1  2  0  0  0  0
 16 11  1  0  0  0  0
 16  2  2  0  0  0  0
 17 21  1  0  0  0  0
 18  6  1  0  0  0  0
 20 15  1  0  0  0  0
 21 15  1  0  0  0  0
 21  3  2  0  0  0  0
 23 27  1  6  0  0  0
 23 24  1  0  0  0  0
 24 25  2  0  0  0  0
 25 22  1  0  0  0  0
 26 22  1  0  0  0  0
 27 26  1  0  0  0  0
M  END
>  <MODEL>
1

>  <REMARK>
 VINA RESULT:      -7.9      0.000      0.000
  Name = 
  1 active torsions:
  status: ('A' for Active; 'I' for Inactive)
    1  A    between atoms: C_9  and  C_15
                            x       y       z     vdW  Elec       q    Type
                         _______ _______ _______ _____ _____    ______ ____

>  <TORSDO>
F 1

$$$$
=
 OpenBabel10262420053D

 27 31  0  0  1  0  0  0  0  0999 V2000
  188.9740  177.0970  141.8280 C   0  0  0  0  0  3  0  0  0  0  0  0
  186.9250  178.4190  142.0540 C   0  0  0  0  0  0  0  0  0  0  0  0
  187.6750  178.8770  139.7600 N   0  0  0  0  0  0  0  0  0  0  0  0
  182.8410  177.5780  140.2650 S   0  0  0  0  0  0  0  0  0  0  0  0
  184.3590  176.3610  138.3380 C   0  0  0  0  0  1  0  0  0  0  0  0
  185.7910  178.2990  143.0540 C   0  0  0  0  0  2  0  0  0  0  0  0
  184.9010  178.6900  138.9480 C   0  0  0  0  0  0  0  0  0  0  0  0
  189.8180  177.0530  137.7090 C   0  0  0  0  0  2  0  0  0  0  0  0
  185.4790  179.2190  138.0100 O   0  0  0  0  0  0  0  0  0  0  0  0
  190.5870  176.1230  138.6490 C   0  0  2  0  0  3  0  0  0  0  0  0
  185.2100  179.0520  140.3680 C   0  0  1  0  0  3  0  0  0  0  0  0
  188.3540  178.2720  142.5130 C   0  0  1  0  0  3  0  0  0  0  0  0
  183.7900  177.7160  138.7160 C   0  0  2  0  0  3  0  0  0  0  0  0
  184.2410  178.2290  141.1610 C   0  0  0  0  0  0  0  0  0  0  0  0
  189.1880  177.0870  140.5150 C   0  0  0  0  0  0  0  0  0  0  0  0
  186.6470  178.7350  140.7630 C   0  0  0  0  0  0  0  0  0  0  0  0
  189.5880  178.4040  138.3830 C   0  0  0  0  0  2  0  0  0  0  0  0
  184.5310  177.8160  142.3970 C   0  0  0  0  0  3  0  0  0  0  0  0
  190.7250  174.8130  138.0410 N   0  0  0  0  0  1  0  0  0  0  0  0
  189.9130  175.9970  139.9410 N   0  0  0  0  0  2  0  0  0  0  0  0
  188.7870  178.2070  139.6290 C   0  0  0  0  0  0  0  0  0  0  0  0
  189.1920  177.6020  146.6970 C   0  0  0  0  0  2  0  0  0  0  0  0
  188.5350  178.2090  144.0410 C   0  0  2  0  0  3  0  0  0  0  0  0
  189.9680  177.9010  144.3940 C   0  0  0  0  0  3  0  0  0  0  0  0
  190.2790  177.6080  145.6600 C   0  0  0  0  0  3  0  0  0  0  0  0
  187.9420  176.8760  146.1760 C   0  0  0  0  0  2  0  0  0  0  0  0
  187.6260  177.1450  144.6890 C   0  0  0  0  0  2  0  0  0  0  0  0
  2 12  1  0  0  0  0
  2  6  1  0  0  0  0
  3 16  1  0  0  0  0
  4 14  1  0  0  0  0
  8 17  1  0  0  0  0
  8 10  1  0  0  0  0
  9  7  2  0  0  0  0
 10 19  1  6  0  0  0
 10 20  1  0  0  0  0
 11  7  1  6  0  0  0
 11 16  1  0  0  0  0
 11 14  1  0  0  0  0
 12  1  1  6  0  0  0
 12 23  1  0  0  0  0
 13  5  1  1  0  0  0
 13  7  1  0  0  0  0
 13  4  1  0  0  0  0
 14 18  2  0  0  0  0
 15  1  2  0  0  0  0
 16  2  2  0  0  0  0
 17 21  1  0  0  0  0
 18  6  1  0  0  0  0
 20 15  1  0  0  0  0
 21  3  2  0  0  0  0
 21 15  1  0  0  0  0
 23 24  1  6  0  0  0
 23 27  1  0  0  0  0
 24 25  2  0  0  0  0
 25 22  1  0  0  0  0
 26 22  1  0  0  0  0
 27 26  1  0  0  0  0
M  END
>  <MODEL>
2

>  <REMARK>
 VINA RESULT:      -7.4      1.397      1.714
  Name = 
  1 active torsions:
  status: ('A' for Active; 'I' for Inactive)
    1  A    between atoms: C_9  and  C_15
                            x       y       z     vdW  Elec       q    Type
                         _______ _______ _______ _____ _____    ______ ____

>  <TORSDO>
F 1

$$$$
=
 OpenBabel10262420053D

 27 31  0  0  1  0  0  0  0  0999 V2000
  182.3540  181.0580  138.4730 C   0  0  0  0  0  3  0  0  0  0  0  0
  180.1030  180.7950  139.4000 C   0  0  0  0  0  0  0  0  0  0  0  0
  180.9740  178.5010  139.3000 N   0  0  0  0  0  0  0  0  0  0  0  0
  178.9310  179.8800  143.6870 S   0  0  0  0  0  0  0  0  0  0  0  0
  181.3650  178.6250  143.6800 C   0  0  0  0  0  1  0  0  0  0  0  0
  179.1910  181.8150  140.0560 C   0  0  0  0  0  2  0  0  0  0  0  0
  179.7600  178.0600  141.8930 C   0  0  0  0  0  0  0  0  0  0  0  0
  184.2630  177.3700  139.1310 C   0  0  0  0  0  2  0  0  0  0  0  0
  180.0230  176.9460  141.4640 O   0  0  0  0  0  0  0  0  0  0  0  0
  185.0840  178.5750  138.6700 C   0  0  2  0  0  3  0  0  0  0  0  0
  179.1960  179.1310  141.0100 C   0  0  1  0  0  3  0  0  0  0  0  0
  180.8940  181.1690  138.1710 C   0  0  1  0  0  3  0  0  0  0  0  0
  179.9060  178.3780  143.3480 C   0  0  2  0  0  3  0  0  0  0  0  0
  178.9700  180.2780  141.9470 C   0  0  0  0  0  0  0  0  0  0  0  0
  182.9270  179.8840  138.7250 C   0  0  0  0  0  0  0  0  0  0  0  0
  180.1400  179.5260  139.8810 C   0  0  0  0  0  0  0  0  0  0  0  0
  182.9060  177.3640  138.4310 C   0  0  0  0  0  2  0  0  0  0  0  0
  179.0300  181.5430  141.5220 C   0  0  0  0  0  3  0  0  0  0  0  0
  186.3360  178.6280  139.4020 N   0  0  0  0  0  1  0  0  0  0  0  0
  184.3490  179.8250  138.8630 N   0  0  0  0  0  2  0  0  0  0  0  0
  182.1630  178.6140  138.7770 C   0  0  0  0  0  0  0  0  0  0  0  0
  180.3040  184.8930  136.0630 C   0  0  0  0  0  2  0  0  0  0  0  0
  180.5330  182.5400  137.5670 C   0  0  2  0  0  3  0  0  0  0  0  0
  180.4290  182.4480  136.0670 C   0  0  0  0  0  3  0  0  0  0  0  0
  180.3230  183.5710  135.3510 C   0  0  0  0  0  3  0  0  0  0  0  0
  181.3870  184.9450  137.1510 C   0  0  0  0  0  2  0  0  0  0  0  0
  181.5710  183.6220  137.9260 C   0  0  0  0  0  2  0  0  0  0  0  0
  1 15  2  0  0  0  0
  2 16  2  0  0  0  0
  2  6  1  0  0  0  0
  3 16  1  0  0  0  0
  6 18  1  0  0  0  0
  7 13  1  0  0  0  0
  9  7  2  0  0  0  0
 10 20  1  0  0  0  0
 10  8  1  0  0  0  0
 10 19  1  1  0  0  0
 11 16  1  6  0  0  0
 11  7  1  0  0  0  0
 11 14  1  0  0  0  0
 12  1  1  1  0  0  0
 12  2  1  0  0  0  0
 13  5  1  6  0  0  0
 13  4  1  0  0  0  0
 14  4  1  0  0  0  0
 15 21  1  0  0  0  0
 15 20  1  0  0  0  0
 17 21  1  0  0  0  0
 17  8  1  0  0  0  0
 18 14  2  0  0  0  0
 21  3  2  0  0  0  0
 22 26  1  0  0  0  0
 23 24  1  6  0  0  0
 23 27  1  0  0  0  0
 23 12  1  0  0  0  0
 25 22  1  0  0  0  0
 25 24  2  0  0  0  0
 26 27  1  0  0  0  0
M  END
>  <MODEL>
3

>  <REMARK>
 VINA RESULT:      -6.7      5.258      8.963
  Name = 
  1 active torsions:
  status: ('A' for Active; 'I' for Inactive)
    1  A    between atoms: C_9  and  C_15
                            x       y       z     vdW  Elec       q    Type
                         _______ _______ _______ _____ _____    ______ ____

>  <TORSDO>
F 1

$$$$
=
 OpenBabel10262420053D

 27 31  0  0  1  0  0  0  0  0999 V2000
  187.1550  178.0230  141.2300 C   0  0  0  0  0  3  0  0  0  0  0  0
  184.9300  178.2980  140.2430 C   0  0  0  0  0  0  0  0  0  0  0  0
  186.4620  178.6260  138.3510 N   0  0  0  0  0  0  0  0  0  0  0  0
  182.6760  175.4040  137.5730 S   0  0  0  0  0  0  0  0  0  0  0  0
  185.2190  174.6770  136.8620 C   0  0  0  0  0  1  0  0  0  0  0  0
  183.5730  177.8610  140.7600 C   0  0  0  0  0  2  0  0  0  0  0  0
  184.6180  177.0680  136.7500 C   0  0  0  0  0  0  0  0  0  0  0  0
  189.7750  177.6260  137.9650 C   0  0  0  0  0  2  0  0  0  0  0  0
  185.3540  177.6230  135.9490 O   0  0  0  0  0  0  0  0  0  0  0  0
  190.2770  177.3280  139.3780 C   0  0  2  0  0  3  0  0  0  0  0  0
  184.0930  177.7780  137.9600 C   0  0  1  0  0  3  0  0  0  0  0  0
  185.9420  178.8950  141.1900 C   0  0  1  0  0  3  0  0  0  0  0  0
  184.1310  175.6740  136.5100 C   0  0  2  0  0  3  0  0  0  0  0  0
  183.1990  176.7640  138.6050 C   0  0  0  0  0  0  0  0  0  0  0  0
  187.9430  177.8760  140.1680 C   0  0  0  0  0  0  0  0  0  0  0  0
  185.1970  178.2180  138.9150 C   0  0  0  0  0  0  0  0  0  0  0  0
  188.8300  178.8260  137.9890 C   0  0  0  0  0  2  0  0  0  0  0  0
  182.9990  176.7540  139.9250 C   0  0  0  0  0  3  0  0  0  0  0  0
  191.1030  176.1350  139.3660 N   0  0  0  0  0  1  0  0  0  0  0  0
  189.1650  177.1460  140.3100 N   0  0  0  0  0  2  0  0  0  0  0  0
  187.6570  178.5160  138.8610 C   0  0  0  0  0  0  0  0  0  0  0  0
  184.3530  179.1410  145.1990 C   0  0  0  0  0  2  0  0  0  0  0  0
  185.4020  179.1950  142.6010 C   0  0  2  0  0  3  0  0  0  0  0  0
  185.9670  178.2220  143.6040 C   0  0  0  0  0  3  0  0  0  0  0  0
  185.4630  178.1950  144.8410 C   0  0  0  0  0  3  0  0  0  0  0  0
  183.2890  179.1810  144.0920 C   0  0  0  0  0  2  0  0  0  0  0  0
  183.8630  179.1280  142.6590 C   0  0  0  0  0  2  0  0  0  0  0  0
  2  6  1  0  0  0  0
  2 12  1  0  0  0  0
  3 21  2  0  0  0  0
  3 16  1  0  0  0  0
  4 14  1  0  0  0  0
  8 17  1  0  0  0  0
  8 10  1  0  0  0  0
  9  7  2  0  0  0  0
 10 19  1  6  0  0  0
 10 20  1  0  0  0  0
 11  7  1  6  0  0  0
 11 14  1  0  0  0  0
 11 16  1  0  0  0  0
 12  1  1  1  0  0  0
 12 23  1  0  0  0  0
 13  7  1  0  0  0  0
 13  5  1  1  0  0  0
 13  4  1  0  0  0  0
 14 18  2  0  0  0  0
 15 20  1  0  0  0  0
 15  1  2  0  0  0  0
 16  2  2  0  0  0  0
 17 21  1  0  0  0  0
 18  6  1  0  0  0  0
 21 15  1  0  0  0  0
 23 27  1  6  0  0  0
 23 24  1  0  0  0  0
 24 25  2  0  0  0  0
 25 22  1  0  0  0  0
 26 22  1  0  0  0  0
 27 26  1  0  0  0  0
M  END
>  <MODEL>
4

>  <REMARK>
 VINA RESULT:      -6.3      2.855      4.283
  Name = 
  1 active torsions:
  status: ('A' for Active; 'I' for Inactive)
    1  A    between atoms: C_9  and  C_15
                            x       y       z     vdW  Elec       q    Type
                         _______ _______ _______ _____ _____    ______ ____

>  <TORSDO>
F 1

$$$$
=
 OpenBabel10262420053D

 27 31  0  0  1  0  0  0  0  0999 V2000
  186.8120  177.6760  142.6620 C   0  0  0  0  0  3  0  0  0  0  0  0
  185.8860  178.6680  140.6240 C   0  0  0  0  0  0  0  0  0  0  0  0
  188.3070  178.6280  140.2150 N   0  0  0  0  0  0  0  0  0  0  0  0
  185.4320  176.7550  136.5350 S   0  0  0  0  0  0  0  0  0  0  0  0
  187.6160  175.3350  137.3810 C   0  0  0  0  0  1  0  0  0  0  0  0
  184.4720  178.6340  140.0770 C   0  0  0  0  0  2  0  0  0  0  0  0
  187.7100  177.7980  137.5050 C   0  0  0  0  0  0  0  0  0  0  0  0
  190.7890  176.6970  141.7110 C   0  0  0  0  0  2  0  0  0  0  0  0
  188.8800  178.1500  137.4860 O   0  0  0  0  0  0  0  0  0  0  0  0
  190.1730  176.1780  143.0100 C   0  0  2  0  0  3  0  0  0  0  0  0
  186.6700  178.5610  138.2670 C   0  0  1  0  0  3  0  0  0  0  0  0
  186.1190  178.8750  142.1000 C   0  0  1  0  0  3  0  0  0  0  0  0
  187.2440  176.6330  136.6900 C   0  0  2  0  0  3  0  0  0  0  0  0
  185.3990  177.8300  137.9600 C   0  0  0  0  0  0  0  0  0  0  0  0
  188.0550  177.3600  142.3090 C   0  0  0  0  0  0  0  0  0  0  0  0
  186.9360  178.5900  139.7670 C   0  0  0  0  0  0  0  0  0  0  0  0
  190.3130  178.1230  141.4400 C   0  0  0  0  0  2  0  0  0  0  0  0
  184.3870  177.8030  138.8300 C   0  0  0  0  0  3  0  0  0  0  0  0
  190.5550  174.7940  143.2190 N   0  0  0  0  0  1  0  0  0  0  0  0
  188.7140  176.2870  142.9880 N   0  0  0  0  0  2  0  0  0  0  0  0
  188.8260  178.1320  141.3040 C   0  0  0  0  0  0  0  0  0  0  0  0
  182.6630  179.3760  144.6410 C   0  0  0  0  0  2  0  0  0  0  0  0
  184.8580  179.2410  142.9050 C   0  0  2  0  0  3  0  0  0  0  0  0
  185.0570  178.9410  144.3690 C   0  0  0  0  0  3  0  0  0  0  0  0
  184.0080  179.0030  145.1950 C   0  0  0  0  0  3  0  0  0  0  0  0
  182.3830  178.6270  143.3300 C   0  0  0  0  0  2  0  0  0  0  0  0
  183.6130  178.4800  142.4080 C   0  0  0  0  0  2  0  0  0  0  0  0
  2 12  1  0  0  0  0
  3 21  2  0  0  0  0
  4 13  1  0  0  0  0
  4 14  1  0  0  0  0
  6  2  1  0  0  0  0
  8 10  1  0  0  0  0
  9  7  2  0  0  0  0
 10 19  1  6  0  0  0
 11  7  1  6  0  0  0
 11 16  1  0  0  0  0
 12  1  1  1  0  0  0
 12 23  1  0  0  0  0
 13  5  1  1  0  0  0
 13  7  1  0  0  0  0
 14 11  1  0  0  0  0
 14 18  2  0  0  0  0
 15  1  2  0  0  0  0
 15 20  1  0  0  0  0
 16  3  1  0  0  0  0
 16  2  2  0  0  0  0
 17  8  1  0  0  0  0
 18  6  1  0  0  0  0
 20 10  1  0  0  0  0
 21 17  1  0  0  0  0
 21 15  1  0  0  0  0
 22 25  1  0  0  0  0
 23 27  1  6  0  0  0
 23 24  1  0  0  0  0
 24 25  2  0  0  0  0
 26 22  1  0  0  0  0
 27 26  1  0  0  0  0
M  END
>  <MODEL>
5

>  <REMARK>
 VINA RESULT:      -6.3      2.449      5.201
  Name = 
  1 active torsions:
  status: ('A' for Active; 'I' for Inactive)
    1  A    between atoms: C_9  and  C_15
                            x       y       z     vdW  Elec       q    Type
                         _______ _______ _______ _____ _____    ______ ____

>  <TORSDO>
F 1

$$$$
=
 OpenBabel10262420053D

 27 31  0  0  1  0  0  0  0  0999 V2000
  187.3030  178.4260  141.8910 C   0  0  0  0  0  3  0  0  0  0  0  0
  185.7880  178.1920  143.8010 C   0  0  0  0  0  0  0  0  0  0  0  0
  187.5060  176.4810  144.1950 N   0  0  0  0  0  0  0  0  0  0  0  0
  186.4750  179.4910  148.0940 S   0  0  0  0  0  0  0  0  0  0  0  0
  189.0870  179.0330  147.4110 C   0  0  0  0  0  1  0  0  0  0  0  0
  184.7630  179.1610  144.3580 C   0  0  0  0  0  2  0  0  0  0  0  0
  187.4430  177.2410  146.9900 C   0  0  0  0  0  0  0  0  0  0  0  0
  190.7390  176.2340  142.9260 C   0  0  0  0  0  2  0  0  0  0  0  0
  188.0280  176.1690  146.9580 O   0  0  0  0  0  0  0  0  0  0  0  0
  190.7670  177.1510  141.7030 C   0  0  2  0  0  3  0  0  0  0  0  0
  186.2320  177.5030  146.1490 C   0  0  1  0  0  3  0  0  0  0  0  0
  185.9280  178.0160  142.3090 C   0  0  1  0  0  3  0  0  0  0  0  0
  187.8600  178.3170  147.9430 C   0  0  2  0  0  3  0  0  0  0  0  0
  185.8150  178.8850  146.5500 C   0  0  0  0  0  0  0  0  0  0  0  0
  188.3800  177.7430  142.2710 C   0  0  0  0  0  0  0  0  0  0  0  0
  186.5210  177.4320  144.6540 C   0  0  0  0  0  0  0  0  0  0  0  0
  189.3830  175.5390  143.0270 C   0  0  0  0  0  2  0  0  0  0  0  0
  185.1830  179.6940  145.6960 C   0  0  0  0  0  3  0  0  0  0  0  0
  192.0230  177.8780  141.6610 N   0  0  0  0  0  1  0  0  0  0  0  0
  189.6520  178.0980  141.7220 N   0  0  0  0  0  2  0  0  0  0  0  0
  188.3080  176.5660  143.1700 C   0  0  0  0  0  0  0  0  0  0  0  0
  182.7790  179.4420  139.7200 C   0  0  0  0  0  2  0  0  0  0  0  0
  184.8400  178.7170  141.4750 C   0  0  2  0  0  3  0  0  0  0  0  0
  183.5890  177.8780  141.4200 C   0  0  0  0  0  3  0  0  0  0  0  0
  182.6080  178.2230  140.5800 C   0  0  0  0  0  3  0  0  0  0  0  0
  184.1810  179.4800  139.0930 C   0  0  0  0  0  2  0  0  0  0  0  0
  185.3080  179.0020  140.0330 C   0  0  0  0  0  2  0  0  0  0  0  0
  1 15  2  0  0  0  0
  2  6  1  0  0  0  0
  2 16  2  0  0  0  0
  3 16  1  0  0  0  0
  6 18  1  0  0  0  0
  7 13  1  0  0  0  0
  8 17  1  0  0  0  0
  9  7  2  0  0  0  0
 10 19  1  1  0  0  0
 10 20  1  0  0  0  0
 10  8  1  0  0  0  0
 11 16  1  6  0  0  0
 11 14  1  0  0  0  0
 11  7  1  0  0  0  0
 12  1  1  6  0  0  0
 12  2  1  0  0  0  0
 13  5  1  6  0  0  0
 13  4  1  0  0  0  0
 14  4  1  0  0  0  0
 15 21  1  0  0  0  0
 17 21  1  0  0  0  0
 18 14  2  0  0  0  0
 20 15  1  0  0  0  0
 21  3  2  0  0  0  0
 22 25  1  0  0  0  0
 23 27  1  6  0  0  0
 23 12  1  0  0  0  0
 24 23  1  0  0  0  0
 25 24  2  0  0  0  0
 26 22  1  0  0  0  0
 26 27  1  0  0  0  0
M  END
>  <MODEL>
6

>  <REMARK>
 VINA RESULT:      -6.2      3.468      6.513
  Name = 
  1 active torsions:
  status: ('A' for Active; 'I' for Inactive)
    1  A    between atoms: C_9  and  C_15
                            x       y       z     vdW  Elec       q    Type
                         _______ _______ _______ _____ _____    ______ ____

>  <TORSDO>
F 1

$$$$
=
 OpenBabel10262420053D

 27 31  0  0  1  0  0  0  0  0999 V2000
  186.6230  178.5190  141.5770 C   0  0  0  0  0  3  0  0  0  0  0  0
  187.1930  177.3960  143.6780 C   0  0  0  0  0  0  0  0  0  0  0  0
  188.7520  176.4250  142.0460 N   0  0  0  0  0  0  0  0  0  0  0  0
  190.8120  178.0830  146.3270 S   0  0  0  0  0  0  0  0  0  0  0  0
  191.9520  178.7790  143.9360 C   0  0  0  0  0  1  0  0  0  0  0  0
  186.8840  177.7890  145.1100 C   0  0  0  0  0  2  0  0  0  0  0  0
  190.8010  176.6010  144.0860 C   0  0  0  0  0  0  0  0  0  0  0  0
  189.7980  177.6520  138.9600 C   0  0  0  0  0  2  0  0  0  0  0  0
  191.2560  175.8550  143.2320 O   0  0  0  0  0  0  0  0  0  0  0  0
  188.7650  178.7100  138.5710 C   0  0  2  0  0  3  0  0  0  0  0  0
  189.3670  176.5270  144.5140 C   0  0  1  0  0  3  0  0  0  0  0  0
  186.1400  177.5510  142.6080 C   0  0  1  0  0  3  0  0  0  0  0  0
  191.6820  177.5690  144.8100 C   0  0  2  0  0  3  0  0  0  0  0  0
  189.2690  177.5530  145.6010 C   0  0  0  0  0  0  0  0  0  0  0  0
  187.6610  178.2410  140.7920 C   0  0  0  0  0  0  0  0  0  0  0  0
  188.3930  176.8350  143.3830 C   0  0  0  0  0  0  0  0  0  0  0  0
  189.1110  176.4870  139.6700 C   0  0  0  0  0  2  0  0  0  0  0  0
  188.1260  178.1970  145.8460 C   0  0  0  0  0  3  0  0  0  0  0  0
  189.4310  179.8540  137.9770 N   0  0  0  0  0  1  0  0  0  0  0  0
  187.9850  179.1430  139.7300 N   0  0  0  0  0  2  0  0  0  0  0  0
  188.4430  176.9860  140.9100 C   0  0  0  0  0  0  0  0  0  0  0  0
  182.2060  179.0030  143.6440 C   0  0  0  0  0  2  0  0  0  0  0  0
  184.7400  177.9210  143.1340 C   0  0  2  0  0  3  0  0  0  0  0  0
  183.7780  178.1150  141.9900 C   0  0  0  0  0  3  0  0  0  0  0  0
  182.5710  178.6340  142.2350 C   0  0  0  0  0  3  0  0  0  0  0  0
  183.3590  179.7500  144.3310 C   0  0  0  0  0  2  0  0  0  0  0  0
  184.7620  179.2060  143.9860 C   0  0  0  0  0  2  0  0  0  0  0  0
  2  6  1  0  0  0  0
  3 16  1  0  0  0  0
  6 18  1  0  0  0  0
  7 11  1  0  0  0  0
  7 13  1  0  0  0  0
  8 17  1  0  0  0  0
  9  7  2  0  0  0  0
 10 19  1  1  0  0  0
 10  8  1  0  0  0  0
 10 20  1  0  0  0  0
 11 16  1  6  0  0  0
 11 14  1  0  0  0  0
 12  1  1  6  0  0  0
 12 23  1  0  0  0  0
 12  2  1  0  0  0  0
 13  5  1  6  0  0  0
 13  4  1  0  0  0  0
 14 18  2  0  0  0  0
 14  4  1  0  0  0  0
 15 21  1  0  0  0  0
 15  1  2  0  0  0  0
 16  2  2  0  0  0  0
 17 21  1  0  0  0  0
 20 15  1  0  0  0  0
 21  3  2  0  0  0  0
 22 26  1  0  0  0  0
 23 24  1  6  0  0  0
 23 27  1  0  0  0  0
 24 25  2  0  0  0  0
 25 22  1  0  0  0  0
 27 26  1  0  0  0  0
M  END
>  <MODEL>
7

>  <REMARK>
 VINA RESULT:      -6.0      2.971      6.050
  Name = 
  1 active torsions:
  status: ('A' for Active; 'I' for Inactive)
    1  A    between atoms: C_9  and  C_15
                            x       y       z     vdW  Elec       q    Type
                         _______ _______ _______ _____ _____    ______ ____

>  <TORSDO>
F 1

$$$$
=
 OpenBabel10262420053D

 27 31  0  0  1  0  0  0  0  0999 V2000
  188.3080  176.7480  139.1910 C   0  0  0  0  0  3  0  0  0  0  0  0
  187.1100  178.3690  140.5840 C   0  0  0  0  0  0  0  0  0  0  0  0
  186.2310  178.7640  138.3250 N   0  0  0  0  0  0  0  0  0  0  0  0
  182.7870  178.2260  141.9540 S   0  0  0  0  0  0  0  0  0  0  0  0
  182.4910  176.8380  139.6110 C   0  0  0  0  0  1  0  0  0  0  0  0
  186.9040  178.4010  142.0860 C   0  0  0  0  0  2  0  0  0  0  0  0
  183.6100  179.0360  139.5280 C   0  0  0  0  0  0  0  0  0  0  0  0
  186.2350  176.6820  135.5340 C   0  0  0  0  0  2  0  0  0  0  0  0
  183.4980  179.4930  138.4000 O   0  0  0  0  0  0  0  0  0  0  0  0
  187.2960  175.6190  135.8210 C   0  0  2  0  0  3  0  0  0  0  0  0
  184.8180  179.3070  140.3710 C   0  0  1  0  0  3  0  0  0  0  0  0
  188.4550  177.9880  140.0140 C   0  0  1  0  0  3  0  0  0  0  0  0
  182.4990  178.2540  140.1550 C   0  0  2  0  0  3  0  0  0  0  0  0
  184.5040  178.6250  141.6680 C   0  0  0  0  0  0  0  0  0  0  0  0
  187.6070  176.7410  138.0610 C   0  0  0  0  0  0  0  0  0  0  0  0
  186.1020  178.7580  139.7620 C   0  0  0  0  0  0  0  0  0  0  0  0
  186.6890  178.0340  136.0810 C   0  0  0  0  0  2  0  0  0  0  0  0
  185.4720  178.1390  142.4480 C   0  0  0  0  0  3  0  0  0  0  0  0
  186.8240  174.3200  135.3800 N   0  0  0  0  0  1  0  0  0  0  0  0
  187.6230  175.5660  137.2460 N   0  0  0  0  0  2  0  0  0  0  0  0
  186.8810  177.9330  137.5590 C   0  0  0  0  0  0  0  0  0  0  0  0
  191.8250  177.1770  142.5900 C   0  0  0  0  0  2  0  0  0  0  0  0
  189.5810  177.8570  141.0570 C   0  0  2  0  0  3  0  0  0  0  0  0
  190.9180  177.7030  140.3780 C   0  0  0  0  0  3  0  0  0  0  0  0
  191.9860  177.3760  141.1110 C   0  0  0  0  0  3  0  0  0  0  0  0
  190.5750  176.3380  142.8980 C   0  0  0  0  0  2  0  0  0  0  0  0
  189.3620  176.6550  141.9980 C   0  0  0  0  0  2  0  0  0  0  0  0
  2  6  1  0  0  0  0
  3 16  1  0  0  0  0
  6 18  1  0  0  0  0
  7 13  1  0  0  0  0
  8 10  1  0  0  0  0
  8 17  1  0  0  0  0
  9  7  2  0  0  0  0
 10 19  1  1  0  0  0
 10 20  1  0  0  0  0
 11  7  1  6  0  0  0
 11 14  1  0  0  0  0
 12  1  1  1  0  0  0
 12  2  1  0  0  0  0
 12 23  1  0  0  0  0
 13  5  1  6  0  0  0
 13  4  1  0  0  0  0
 14  4  1  0  0  0  0
 14 18  2  0  0  0  0
 15  1  2  0  0  0  0
 16 11  1  0  0  0  0
 16  2  2  0  0  0  0
 17 21  1  0  0  0  0
 20 15  1  0  0  0  0
 21 15  1  0  0  0  0
 21  3  2  0  0  0  0
 22 26  1  0  0  0  0
 23 24  1  6  0  0  0
 23 27  1  0  0  0  0
 24 25  2  0  0  0  0
 25 22  1  0  0  0  0
 27 26  1  0  0  0  0
M  END
>  <MODEL>
8

>  <REMARK>
 VINA RESULT:      -5.9      1.573      2.034
  Name = 
  1 active torsions:
  status: ('A' for Active; 'I' for Inactive)
    1  A    between atoms: C_9  and  C_15
                            x       y       z     vdW  Elec       q    Type
                         _______ _______ _______ _____ _____    ______ ____

>  <TORSDO>
F 1

$$$$
=
 OpenBabel10262420053D

 27 31  0  0  1  0  0  0  0  0999 V2000
  190.4440  176.1640  139.4400 C   0  0  0  0  0  3  0  0  0  0  0  0
  188.7430  177.8940  139.1000 C   0  0  0  0  0  0  0  0  0  0  0  0
  189.8000  177.6610  136.8950 N   0  0  0  0  0  0  0  0  0  0  0  0
  184.7700  177.5260  136.9400 S   0  0  0  0  0  0  0  0  0  0  0  0
  186.1480  175.6230  135.5320 C   0  0  0  0  0  1  0  0  0  0  0  0
  187.5200  178.2360  139.9290 C   0  0  0  0  0  2  0  0  0  0  0  0
  187.1510  177.8680  135.7420 C   0  0  0  0  0  0  0  0  0  0  0  0
  191.6530  175.0240  135.5780 C   0  0  0  0  0  2  0  0  0  0  0  0
  187.9240  178.0430  134.8120 O   0  0  0  0  0  0  0  0  0  0  0  0
  192.0910  174.1920  136.7840 C   0  0  2  0  0  3  0  0  0  0  0  0
  187.3940  178.4690  137.0920 C   0  0  1  0  0  3  0  0  0  0  0  0
  190.0480  177.5650  139.7820 C   0  0  1  0  0  3  0  0  0  0  0  0
  185.8730  177.1140  135.5490 C   0  0  2  0  0  3  0  0  0  0  0  0
  186.1880  178.0610  137.8830 C   0  0  0  0  0  0  0  0  0  0  0  0
  190.7770  175.8170  138.2000 C   0  0  0  0  0  0  0  0  0  0  0  0
  188.6730  177.9610  137.7470 C   0  0  0  0  0  0  0  0  0  0  0  0
  191.6770  176.5090  135.9320 C   0  0  0  0  0  2  0  0  0  0  0  0
  186.2530  177.8860  139.2050 C   0  0  0  0  0  3  0  0  0  0  0  0
  191.9820  172.7790  136.4740 N   0  0  0  0  0  1  0  0  0  0  0  0
  191.2840  174.5000  137.9640 N   0  0  0  0  0  2  0  0  0  0  0  0
  190.7340  176.7660  137.0610 C   0  0  0  0  0  0  0  0  0  0  0  0
  190.4960  177.8210  144.0700 C   0  0  0  0  0  2  0  0  0  0  0  0
  190.0600  177.8120  141.3020 C   0  0  2  0  0  3  0  0  0  0  0  0
  191.4730  177.8380  141.8250 C   0  0  0  0  0  3  0  0  0  0  0  0
  191.6790  177.8400  143.1460 C   0  0  0  0  0  3  0  0  0  0  0  0
  189.4500  176.7980  143.6020 C   0  0  0  0  0  2  0  0  0  0  0  0
  189.2680  176.7340  142.0700 C   0  0  0  0  0  2  0  0  0  0  0  0
  2 12  1  0  0  0  0
  2  6  1  0  0  0  0
  3 21  2  0  0  0  0
  3 16  1  0  0  0  0
  4 14  1  0  0  0  0
  8 17  1  0  0  0  0
  8 10  1  0  0  0  0
  9  7  2  0  0  0  0
 10 19  1  6  0  0  0
 10 20  1  0  0  0  0
 11  7  1  6  0  0  0
 11 16  1  0  0  0  0
 11 14  1  0  0  0  0
 12  1  1  1  0  0  0
 12 23  1  0  0  0  0
 13  5  1  1  0  0  0
 13  7  1  0  0  0  0
 13  4  1  0  0  0  0
 14 18  2  0  0  0  0
 15  1  2  0  0  0  0
 16  2  2  0  0  0  0
 17 21  1  0  0  0  0
 18  6  1  0  0  0  0
 20 15  1  0  0  0  0
 21 15  1  0  0  0  0
 23 24  1  1  0  0  0
 23 27  1  0  0  0  0
 24 25  2  0  0  0  0
 25 22  1  0  0  0  0
 26 22  1  0  0  0  0
 27 26  1  0  0  0  0
M  END
>  <MODEL>
9

>  <REMARK>
 VINA RESULT:      -5.7      2.514      3.598
  Name = 
  1 active torsions:
  status: ('A' for Active; 'I' for Inactive)
    1  A    between atoms: C_9  and  C_15
                            x       y       z     vdW  Elec       q    Type
                         _______ _______ _______ _____ _____    ______ ____

>  <TORSDO>
F 1

$$$$
