=
 OpenBabel10262422333D

 43 49  0  0  1  0  0  0  0  0999 V2000
  184.3570  178.6170  145.1780 C   0  0  0  0  0  0  0  0  0  0  0  0
  182.2290  178.9860  140.6220 C   0  0  0  0  0  0  0  0  0  0  0  0
  184.2520  178.3060  138.7790 C   0  0  0  0  0  0  0  0  0  0  0  0
  182.7540  178.9840  143.3650 C   0  0  0  0  0  0  0  0  0  0  0  0
  185.3310  178.2670  144.3310 C   0  0  0  0  0  3  0  0  0  0  0  0
  184.6200  178.6210  146.6410 C   0  0  0  0  0  1  0  0  0  0  0  0
  183.8040  178.6130  142.4050 C   0  0  0  0  0  0  0  0  0  0  0  0
  183.0180  178.9870  144.6730 C   0  0  0  0  0  3  0  0  0  0  0  0
  185.0950  178.2530  142.9150 N   0  0  0  0  0  2  0  0  0  0  0  0
  184.5120  178.2930  140.1580 C   0  0  0  0  0  3  0  0  0  0  0  0
  183.5240  178.6280  141.0880 C   0  0  0  0  0  0  0  0  0  0  0  0
  181.2610  179.3220  141.4920 C   0  0  0  0  0  3  0  0  0  0  0  0
  181.9600  178.9990  139.2420 C   0  0  0  0  0  0  0  0  0  0  0  0
  182.9730  178.6590  138.3360 C   0  0  0  0  0  3  0  0  0  0  0  0
  181.4980  179.3290  142.8730 O   0  0  0  0  0  0  0  0  0  0  0  0
  185.3100  177.9610  137.8000 C   0  0  0  0  0  0  0  0  0  0  0  0
  186.5700  178.3640  138.0010 C   0  0  0  0  0  3  0  0  0  0  0  0
  184.9590  177.1630  136.5800 C   0  0  0  0  0  1  0  0  0  0  0  0
  189.0930  178.4250  137.6150 C   0  0  2  0  0  3  0  0  0  0  0  0
  187.7060  178.0750  137.0580 C   0  0  1  0  0  3  0  0  0  0  0  0
  188.5960  176.9890  137.6390 C   0  0  0  0  0  2  0  0  0  0  0  0
  189.0300  178.9900  138.9570 N   0  0  0  0  0  2  0  0  0  0  0  0
  189.2750  177.9010  139.8890 C   0  0  0  0  0  2  0  0  0  0  0  0
  188.4500  177.6370  142.2290 C   0  0  0  0  0  3  0  0  0  0  0  0
  188.2030  177.8770  140.9340 C   0  0  0  0  0  3  0  0  0  0  0  0
  189.8250  177.3710  142.7760 C   0  0  2  0  0  3  0  0  0  0  0  0
  190.3260  176.0290  142.2530 C   0  0  0  0  0  1  0  0  0  0  0  0
  190.8810  177.0520  144.9410 C   0  0  0  0  0  0  0  0  0  0  0  0
  189.8420  177.4550  144.2810 C   0  0  0  0  0  0  0  0  0  0  0  0
  188.5900  177.6460  145.1200 C   0  0  0  0  0  2  0  0  0  0  0  0
  191.0940  176.7510  147.2860 C   0  0  0  0  0  2  0  0  0  0  0  0
  189.5440  176.6760  147.3290 C   0  0  0  0  0  2  0  0  0  0  0  0
  191.6690  176.6860  145.8970 C   0  0  0  0  0  3  0  0  0  0  0  0
  188.8500  177.8680  146.6340 C   0  0  0  0  0  2  0  0  0  0  0  0
  180.6840  179.3510  138.7850 O   0  0  0  0  0  0  0  0  0  0  0  0
  181.3260  182.5070  137.1920 O   0  0  0  0  0  0  0  0  0  0  0  0
  180.1280  183.1810  136.8990 C   0  0  0  0  0  0  0  0  0  0  0  0
  180.1040  184.5340  137.5950 C   0  0  0  0  0  1  0  0  0  0  0  0
  179.5780  181.4450  138.4350 C   0  0  2  0  0  3  0  0  0  0  0  0
  181.0700  181.6680  138.2960 C   0  0  1  0  0  3  0  0  0  0  0  0
  180.4520  180.3660  137.8200 C   0  0  1  0  0  3  0  0  0  0  0  0
  180.0110  183.3860  135.4000 C   0  0  0  0  0  1  0  0  0  0  0  0
  178.9810  182.3290  137.3790 C   0  0  0  0  0  2  0  0  0  0  0  0
  1  6  1  0  0  0  0
  2 11  1  0  0  0  0
  2 12  2  0  0  0  0
  3 10  2  0  0  0  0
  4  8  2  0  0  0  0
  5  1  2  0  0  0  0
  7  9  1  0  0  0  0
  7  4  1  0  0  0  0
  8  1  1  0  0  0  0
  9  5  1  0  0  0  0
 10 11  1  0  0  0  0
 11  7  2  0  0  0  0
 12 15  1  0  0  0  0
 13  2  1  0  0  0  0
 14  3  1  0  0  0  0
 14 13  2  0  0  0  0
 15  4  1  0  0  0  0
 16 17  2  0  0  0  0
 16  3  1  0  0  0  0
 18 16  1  0  0  0  0
 19 21  1  0  0  0  0
 19 22  1  1  0  0  0
 20 19  1  0  0  0  0
 20 21  1  0  0  0  0
 20 17  1  1  0  0  0
 22 23  1  0  0  0  0
 23 25  1  0  0  0  0
 24 26  1  0  0  0  0
 25 24  2  0  0  0  0
 26 27  1  1  0  0  0
 26 29  1  0  0  0  0
 28 33  2  0  0  0  0
 29 28  2  0  0  0  0
 29 30  1  0  0  0  0
 30 34  1  0  0  0  0
 31 32  1  0  0  0  0
 33 31  1  0  0  0  0
 34 32  1  0  0  0  0
 35 13  1  0  0  0  0
 37 36  1  0  0  0  0
 37 43  1  0  0  0  0
 37 38  1  0  0  0  0
 39 43  1  6  0  0  0
 40 36  1  6  0  0  0
 40 39  1  0  0  0  0
 41 40  1  0  0  0  0
 41 39  1  0  0  0  0
 41 35  1  1  0  0  0
 42 37  1  0  0  0  0
M  END
>  <MODEL>
1

>  <REMARK>
 VINA RESULT:     -10.3      0.000      0.000
  Name = 
  9 active torsions:
  status: ('A' for Active; 'I' for Inactive)
    1  A    between atoms: O_1  and  C_34
    2  A    between atoms: O_1  and  C_35
    3  A    between atoms: C_2  and  C_13
    4  A    between atoms: C_3  and  N_4
    5  A    between atoms: N_4  and  C_15
    6  A    between atoms: C_6  and  C_12
    7  A    between atoms: C_10  and  C_22
    8  A    between atoms: C_14  and  C_22
    9  A    between atoms: C_15  and  C_42
                            x       y       z     vdW  Elec       q    Type
                         _______ _______ _______ _____ _____    ______ ____

>  <TORSDO>
F 9

$$$$
=
 OpenBabel10262422333D

 43 49  0  0  1  0  0  0  0  0999 V2000
  190.1150  176.9630  146.2120 C   0  0  0  0  0  0  0  0  0  0  0  0
  187.8510  178.1490  141.8660 C   0  0  0  0  0  0  0  0  0  0  0  0
  185.1230  178.4870  142.4950 C   0  0  0  0  0  0  0  0  0  0  0  0
  189.6890  177.4700  143.8560 C   0  0  1  0  0  3  0  0  0  0  0  0
  188.8330  177.1400  146.5470 C   0  0  0  0  0  3  0  0  0  0  0  0
  191.1070  176.6030  147.2590 C   0  0  0  0  0  1  0  0  0  0  0  0
  188.2700  177.6630  144.1870 C   0  0  0  0  0  0  0  0  0  0  0  0
  190.5580  177.1380  144.8130 C   0  0  0  0  0  3  0  0  0  0  0  0
  187.8610  177.4930  145.5510 N   0  0  0  0  0  0  0  0  0  0  0  0
  186.0490  178.1580  143.4970 C   0  0  0  0  0  3  0  0  0  0  0  0
  187.4050  177.9840  143.2060 C   0  0  0  0  0  0  0  0  0  0  0  0
  189.1470  177.9790  141.5540 C   0  0  0  0  0  3  0  0  0  0  0  0
  186.9290  178.4810  140.8570 C   0  0  0  0  0  0  0  0  0  0  0  0
  185.5770  178.6460  141.1820 C   0  0  0  0  0  3  0  0  0  0  0  0
  190.0900  177.6390  142.5330 O   0  0  0  0  0  0  0  0  0  0  0  0
  183.6850  178.6560  142.8120 C   0  0  0  0  0  0  0  0  0  0  0  0
  182.7690  178.5860  141.8390 C   0  0  0  0  0  3  0  0  0  0  0  0
  183.2630  178.9140  144.2280 C   0  0  0  0  0  1  0  0  0  0  0  0
  180.5800  179.5750  140.9740 C   0  0  2  0  0  3  0  0  0  0  0  0
  181.2910  178.7590  142.0620 C   0  0  1  0  0  3  0  0  0  0  0  0
  180.5160  178.0560  140.9600 C   0  0  0  0  0  2  0  0  0  0  0  0
  181.4930  180.0390  139.9370 N   0  0  0  0  0  2  0  0  0  0  0  0
  180.7830  181.0470  139.1660 C   0  0  0  0  0  2  0  0  0  0  0  0
  179.7800  179.6850  137.3320 C   0  0  0  0  0  3  0  0  0  0  0  0
  179.6330  180.4170  138.4430 C   0  0  0  0  0  3  0  0  0  0  0  0
  181.1120  179.4100  136.6910 C   0  0  2  0  0  3  0  0  0  0  0  0
  180.9610  179.4490  135.1740 C   0  0  0  0  0  1  0  0  0  0  0  0
  180.9310  177.1010  137.4300 C   0  0  0  0  0  0  0  0  0  0  0  0
  181.7020  178.1130  137.1850 C   0  0  0  0  0  0  0  0  0  0  0  0
  183.1020  178.0020  137.7640 C   0  0  0  0  0  2  0  0  0  0  0  0
  181.4970  175.0640  138.5070 C   0  0  0  0  0  2  0  0  0  0  0  0
  182.7080  175.8210  139.1140 C   0  0  0  0  0  2  0  0  0  0  0  0
  180.4890  175.9600  137.8400 C   0  0  0  0  0  3  0  0  0  0  0  0
  183.5690  176.5520  138.0600 C   0  0  0  0  0  2  0  0  0  0  0  0
  187.3710  178.6440  139.5380 O   0  0  0  0  0  0  0  0  0  0  0  0
  187.4910  175.9690  137.1410 O   0  0  0  0  0  0  0  0  0  0  0  0
  187.1000  176.4120  135.8650 C   0  0  0  0  0  0  0  0  0  0  0  0
  188.2220  176.1850  134.8640 C   0  0  0  0  0  1  0  0  0  0  0  0
  187.5270  178.3620  137.1660 C   0  0  2  0  0  3  0  0  0  0  0  0
  188.0090  177.0870  137.8270 C   0  0  1  0  0  3  0  0  0  0  0  0
  186.8740  177.8800  138.4490 C   0  0  1  0  0  3  0  0  0  0  0  0
  185.8660  175.6510  135.4180 C   0  0  0  0  0  1  0  0  0  0  0  0
  186.7760  177.8820  135.9580 C   0  0  0  0  0  2  0  0  0  0  0  0
  1  5  1  0  0  0  0
  1  6  1  0  0  0  0
  2 11  1  0  0  0  0
  3 16  1  0  0  0  0
  3 10  2  0  0  0  0
  4  7  1  0  0  0  0
  4  8  1  6  0  0  0
  7  9  1  0  0  0  0
  8  1  2  0  0  0  0
  9  5  2  0  0  0  0
 11 10  1  0  0  0  0
 11  7  2  0  0  0  0
 12  2  2  0  0  0  0
 12 15  1  0  0  0  0
 13 14  2  0  0  0  0
 13  2  1  0  0  0  0
 14  3  1  0  0  0  0
 15  4  1  0  0  0  0
 16 18  1  0  0  0  0
 17 16  2  0  0  0  0
 19 22  1  6  0  0  0
 19 20  1  0  0  0  0
 20 17  1  6  0  0  0
 21 19  1  0  0  0  0
 21 20  1  0  0  0  0
 23 22  1  0  0  0  0
 24 25  2  0  0  0  0
 25 23  1  0  0  0  0
 26 27  1  6  0  0  0
 26 29  1  0  0  0  0
 26 24  1  0  0  0  0
 28 33  2  0  0  0  0
 29 28  2  0  0  0  0
 29 30  1  0  0  0  0
 30 34  1  0  0  0  0
 31 32  1  0  0  0  0
 33 31  1  0  0  0  0
 34 32  1  0  0  0  0
 35 13  1  0  0  0  0
 37 43  1  0  0  0  0
 37 36  1  0  0  0  0
 38 37  1  0  0  0  0
 39 43  1  6  0  0  0
 39 40  1  0  0  0  0
 39 41  1  0  0  0  0
 40 36  1  6  0  0  0
 40 41  1  0  0  0  0
 41 35  1  1  0  0  0
 42 37  1  0  0  0  0
M  END
>  <MODEL>
2

>  <REMARK>
 VINA RESULT:     -10.2      2.775      8.541
  Name = 
  9 active torsions:
  status: ('A' for Active; 'I' for Inactive)
    1  A    between atoms: O_1  and  C_34
    2  A    between atoms: O_1  and  C_35
    3  A    between atoms: C_2  and  C_13
    4  A    between atoms: C_3  and  N_4
    5  A    between atoms: N_4  and  C_15
    6  A    between atoms: C_6  and  C_12
    7  A    between atoms: C_10  and  C_22
    8  A    between atoms: C_14  and  C_22
    9  A    between atoms: C_15  and  C_42
                            x       y       z     vdW  Elec       q    Type
                         _______ _______ _______ _____ _____    ______ ____

>  <TORSDO>
F 9

$$$$
=
 OpenBabel10262422333D

 43 49  0  0  1  0  0  0  0  0999 V2000
  193.6740  175.1300  136.1240 C   0  0  0  0  0  0  0  0  0  0  0  0
  189.6310  177.3370  138.1720 C   0  0  0  0  0  0  0  0  0  0  0  0
  190.1880  177.5420  140.9290 C   0  0  0  0  0  0  0  0  0  0  0  0
  191.4880  176.1870  136.4340 C   0  0  1  0  0  3  0  0  0  0  0  0
  193.9790  175.2340  137.4220 C   0  0  0  0  0  3  0  0  0  0  0  0
  194.6520  174.5200  135.1840 C   0  0  0  0  0  1  0  0  0  0  0  0
  191.7860  176.3090  137.8680 C   0  0  0  0  0  0  0  0  0  0  0  0
  192.3800  175.6280  135.6120 C   0  0  0  0  0  3  0  0  0  0  0  0
  193.0500  175.8230  138.3430 N   0  0  0  0  0  0  0  0  0  0  0  0
  191.1270  176.9750  140.0530 C   0  0  0  0  0  3  0  0  0  0  0  0
  190.8700  176.8630  138.6840 C   0  0  0  0  0  0  0  0  0  0  0  0
  189.3510  177.2350  136.8620 C   0  0  0  0  0  3  0  0  0  0  0  0
  188.6870  177.9090  139.0430 C   0  0  0  0  0  0  0  0  0  0  0  0
  188.9750  178.0050  140.4100 C   0  0  0  0  0  3  0  0  0  0  0  0
  190.2650  176.6620  135.9670 O   0  0  0  0  0  0  0  0  0  0  0  0
  190.4660  177.6450  142.3810 C   0  0  0  0  0  0  0  0  0  0  0  0
  189.5250  178.1020  143.2150 C   0  0  0  0  0  3  0  0  0  0  0  0
  191.8100  177.2420  142.9090 C   0  0  0  0  0  1  0  0  0  0  0  0
  188.5360  177.7630  145.5440 C   0  0  2  0  0  3  0  0  0  0  0  0
  189.7180  178.2550  144.6990 C   0  0  1  0  0  3  0  0  0  0  0  0
  189.7650  176.8870  145.3580 C   0  0  0  0  0  2  0  0  0  0  0  0
  187.4410  177.2530  144.7300 N   0  0  0  0  0  2  0  0  0  0  0  0
  186.2250  177.3940  145.5150 C   0  0  0  0  0  2  0  0  0  0  0  0
  185.0440  179.3430  144.4980 C   0  0  0  0  0  3  0  0  0  0  0  0
  185.7700  178.8200  145.4950 C   0  0  0  0  0  3  0  0  0  0  0  0
  184.6020  178.5580  143.2950 C   0  0  2  0  0  3  0  0  0  0  0  0
  185.3370  179.0670  142.0600 C   0  0  0  0  0  1  0  0  0  0  0  0
  182.5770  178.7610  141.9660 C   0  0  0  0  0  0  0  0  0  0  0  0
  183.1030  178.5920  143.1380 C   0  0  0  0  0  0  0  0  0  0  0  0
  182.1480  178.8020  144.3010 C   0  0  0  0  0  2  0  0  0  0  0  0
  180.3020  179.1800  141.4350 C   0  0  0  0  0  2  0  0  0  0  0  0
  180.1380  179.6600  142.9020 C   0  0  0  0  0  2  0  0  0  0  0  0
  181.7330  178.9820  141.0150 C   0  0  0  0  0  3  0  0  0  0  0  0
  180.6460  178.6400  143.9450 C   0  0  0  0  0  2  0  0  0  0  0  0
  187.4670  178.3770  138.5370 O   0  0  0  0  0  0  0  0  0  0  0  0
  184.8190  176.7150  136.7640 O   0  0  0  0  0  0  0  0  0  0  0  0
  183.5890  176.8720  137.4250 C   0  0  0  0  0  0  0  0  0  0  0  0
  182.5850  177.5560  136.5090 C   0  0  0  0  0  1  0  0  0  0  0  0
  185.0810  178.4730  138.3680 C   0  0  2  0  0  3  0  0  0  0  0  0
  185.6190  177.8240  137.1090 C   0  0  1  0  0  3  0  0  0  0  0  0
  186.3010  177.5720  138.4420 C   0  0  1  0  0  3  0  0  0  0  0  0
  183.0510  175.5130  137.8330 C   0  0  0  0  0  1  0  0  0  0  0  0
  183.8220  177.7090  138.6580 C   0  0  0  0  0  2  0  0  0  0  0  0
  1  5  1  0  0  0  0
  2 11  1  0  0  0  0
  2 13  1  0  0  0  0
  3 16  1  0  0  0  0
  4  8  1  1  0  0  0
  4  7  1  0  0  0  0
  5  9  2  0  0  0  0
  6  1  1  0  0  0  0
  7  9  1  0  0  0  0
  7 11  2  0  0  0  0
  8  1  2  0  0  0  0
 10  3  2  0  0  0  0
 11 10  1  0  0  0  0
 12  2  2  0  0  0  0
 13 14  2  0  0  0  0
 14  3  1  0  0  0  0
 15  4  1  0  0  0  0
 15 12  1  0  0  0  0
 16 18  1  0  0  0  0
 16 17  2  0  0  0  0
 19 22  1  6  0  0  0
 20 17  1  6  0  0  0
 20 21  1  0  0  0  0
 20 19  1  0  0  0  0
 21 19  1  0  0  0  0
 22 23  1  0  0  0  0
 24 25  2  0  0  0  0
 25 23  1  0  0  0  0
 26 27  1  6  0  0  0
 26 24  1  0  0  0  0
 28 29  2  0  0  0  0
 29 26  1  0  0  0  0
 29 30  1  0  0  0  0
 31 32  1  0  0  0  0
 32 34  1  0  0  0  0
 33 31  1  0  0  0  0
 33 28  2  0  0  0  0
 34 30  1  0  0  0  0
 35 13  1  0  0  0  0
 36 37  1  0  0  0  0
 37 42  1  0  0  0  0
 37 43  1  0  0  0  0
 38 37  1  0  0  0  0
 39 41  1  0  0  0  0
 39 43  1  1  0  0  0
 40 36  1  1  0  0  0
 40 39  1  0  0  0  0
 40 41  1  0  0  0  0
 41 35  1  6  0  0  0
M  END
>  <MODEL>
3

>  <REMARK>
 VINA RESULT:      -9.7      3.186      8.649
  Name = 
  9 active torsions:
  status: ('A' for Active; 'I' for Inactive)
    1  A    between atoms: O_1  and  C_34
    2  A    between atoms: O_1  and  C_35
    3  A    between atoms: C_2  and  C_13
    4  A    between atoms: C_3  and  N_4
    5  A    between atoms: N_4  and  C_15
    6  A    between atoms: C_6  and  C_12
    7  A    between atoms: C_10  and  C_22
    8  A    between atoms: C_14  and  C_22
    9  A    between atoms: C_15  and  C_42
                            x       y       z     vdW  Elec       q    Type
                         _______ _______ _______ _____ _____    ______ ____

>  <TORSDO>
F 9

$$$$
=
 OpenBabel10262422333D

 43 49  0  0  1  0  0  0  0  0999 V2000
  191.2810  176.4690  146.8430 C   0  0  0  0  0  0  0  0  0  0  0  0
  187.4790  177.8220  143.8220 C   0  0  0  0  0  0  0  0  0  0  0  0
  188.5490  177.8460  141.2130 C   0  0  0  0  0  0  0  0  0  0  0  0
  189.0840  177.1480  146.0050 C   0  0  0  0  0  0  0  0  0  0  0  0
  191.8130  176.4480  145.6160 C   0  0  0  0  0  3  0  0  0  0  0  0
  192.1220  176.1120  148.0160 C   0  0  0  0  0  1  0  0  0  0  0  0
  189.6370  177.1430  144.6430 C   0  0  0  0  0  0  0  0  0  0  0  0
  189.8620  176.8310  147.0420 C   0  0  0  0  0  3  0  0  0  0  0  0
  191.0160  176.7850  144.4710 N   0  0  0  0  0  2  0  0  0  0  0  0
  189.3520  177.4950  142.3090 C   0  0  0  0  0  3  0  0  0  0  0  0
  188.8420  177.4780  143.6100 C   0  0  0  0  0  0  0  0  0  0  0  0
  186.9620  177.8240  145.0620 C   0  0  0  0  0  3  0  0  0  0  0  0
  186.6670  178.1720  142.7290 C   0  0  0  0  0  0  0  0  0  0  0  0
  187.2100  178.1810  141.4370 C   0  0  0  0  0  3  0  0  0  0  0  0
  187.7450  177.4900  146.1750 O   0  0  0  0  0  0  0  0  0  0  0  0
  189.1030  177.8730  139.8390 C   0  0  0  0  0  0  0  0  0  0  0  0
  188.3210  178.1990  138.8030 C   0  0  0  0  0  3  0  0  0  0  0  0
  190.5450  177.5260  139.6140 C   0  0  0  0  0  1  0  0  0  0  0  0
  188.5400  176.9430  136.5910 C   0  0  2  0  0  3  0  0  0  0  0  0
  188.7890  178.2390  137.3740 C   0  0  1  0  0  3  0  0  0  0  0  0
  187.5990  178.1280  136.4370 C   0  0  0  0  0  2  0  0  0  0  0  0
  187.9040  175.9130  137.4030 N   0  0  0  0  0  2  0  0  0  0  0  0
  188.2750  174.6290  136.8280 C   0  0  0  0  0  2  0  0  0  0  0  0
  186.0370  174.1030  135.8600 C   0  0  0  0  0  3  0  0  0  0  0  0
  187.3530  174.2940  135.6980 C   0  0  0  0  0  3  0  0  0  0  0  0
  185.3410  174.2080  137.1880 C   0  0  2  0  0  3  0  0  0  0  0  0
  184.8650  172.8250  137.6210 C   0  0  0  0  0  1  0  0  0  0  0  0
  183.0630  174.9290  137.6340 C   0  0  0  0  0  0  0  0  0  0  0  0
  184.2260  175.2220  137.1450 C   0  0  0  0  0  0  0  0  0  0  0  0
  184.2490  176.4480  136.2480 C   0  0  0  0  0  2  0  0  0  0  0  0
  181.0440  176.1590  137.4330 C   0  0  0  0  0  2  0  0  0  0  0  0
  181.6850  176.8440  136.1970 C   0  0  0  0  0  2  0  0  0  0  0  0
  181.8080  174.9630  137.9330 C   0  0  0  0  0  3  0  0  0  0  0  0
  183.0810  177.4430  136.4790 C   0  0  0  0  0  2  0  0  0  0  0  0
  185.3240  178.5100  142.9390 O   0  0  0  0  0  0  0  0  0  0  0  0
  182.1210  179.4080  141.5790 O   0  0  0  0  0  0  0  0  0  0  0  0
  181.8780  178.7380  140.3670 C   0  0  0  0  0  0  0  0  0  0  0  0
  180.6130  177.8990  140.4780 C   0  0  0  0  0  1  0  0  0  0  0  0
  183.7090  177.6260  141.4090 C   0  0  2  0  0  3  0  0  0  0  0  0
  183.0050  178.6040  142.3270 C   0  0  1  0  0  3  0  0  0  0  0  0
  184.4350  178.8690  141.8910 C   0  0  1  0  0  3  0  0  0  0  0  0
  181.7130  179.7500  139.2490 C   0  0  0  0  0  1  0  0  0  0  0  0
  183.0640  177.8550  140.0740 C   0  0  0  0  0  2  0  0  0  0  0  0
  1  8  1  0  0  0  0
  1  6  1  0  0  0  0
  2 12  2  0  0  0  0
  3 14  1  0  0  0  0
  3 10  2  0  0  0  0
  4 15  1  0  0  0  0
  4  8  2  0  0  0  0
  5  1  2  0  0  0  0
  7  4  1  0  0  0  0
  9  7  1  0  0  0  0
  9  5  1  0  0  0  0
 10 11  1  0  0  0  0
 11  2  1  0  0  0  0
 11  7  2  0  0  0  0
 12 15  1  0  0  0  0
 13 35  1  0  0  0  0
 13  2  1  0  0  0  0
 14 13  2  0  0  0  0
 16  3  1  0  0  0  0
 17 16  2  0  0  0  0
 18 16  1  0  0  0  0
 19 20  1  0  0  0  0
 19 22  1  1  0  0  0
 20 17  1  1  0  0  0
 21 19  1  0  0  0  0
 21 20  1  0  0  0  0
 23 22  1  0  0  0  0
 24 26  1  0  0  0  0
 25 24  2  0  0  0  0
 25 23  1  0  0  0  0
 26 27  1  6  0  0  0
 28 33  2  0  0  0  0
 29 26  1  0  0  0  0
 29 28  2  0  0  0  0
 30 34  1  0  0  0  0
 30 29  1  0  0  0  0
 31 33  1  0  0  0  0
 32 34  1  0  0  0  0
 32 31  1  0  0  0  0
 37 38  1  0  0  0  0
 37 36  1  0  0  0  0
 39 43  1  6  0  0  0
 39 41  1  0  0  0  0
 39 40  1  0  0  0  0
 40 36  1  6  0  0  0
 41 40  1  0  0  0  0
 41 35  1  1  0  0  0
 42 37  1  0  0  0  0
 43 37  1  0  0  0  0
M  END
>  <MODEL>
4

>  <REMARK>
 VINA RESULT:      -9.5      2.505      7.315
  Name = 
  9 active torsions:
  status: ('A' for Active; 'I' for Inactive)
    1  A    between atoms: O_1  and  C_34
    2  A    between atoms: O_1  and  C_35
    3  A    between atoms: C_2  and  C_13
    4  A    between atoms: C_3  and  N_4
    5  A    between atoms: N_4  and  C_15
    6  A    between atoms: C_6  and  C_12
    7  A    between atoms: C_10  and  C_22
    8  A    between atoms: C_14  and  C_22
    9  A    between atoms: C_15  and  C_42
                            x       y       z     vdW  Elec       q    Type
                         _______ _______ _______ _____ _____    ______ ____

>  <TORSDO>
F 9

$$$$
=
 OpenBabel10262422333D

 43 49  0  0  1  0  0  0  0  0999 V2000
  187.6550  177.5500  146.7200 C   0  0  0  0  0  0  0  0  0  0  0  0
  187.8900  178.0940  141.7130 C   0  0  0  0  0  0  0  0  0  0  0  0
  185.2610  178.6940  140.8870 C   0  0  0  0  0  0  0  0  0  0  0  0
  188.4620  177.6640  144.4120 C   0  0  1  0  0  3  0  0  0  0  0  0
  186.4030  177.8570  146.3630 C   0  0  0  0  0  3  0  0  0  0  0  0
  187.9770  177.3200  148.1530 C   0  0  0  0  0  1  0  0  0  0  0  0
  187.0960  177.9940  143.9830 C   0  0  0  0  0  0  0  0  0  0  0  0
  188.7240  177.4530  145.7040 C   0  0  0  0  0  3  0  0  0  0  0  0
  186.0730  178.0880  144.9850 N   0  0  0  0  0  0  0  0  0  0  0  0
  185.5520  178.4910  142.2450 C   0  0  0  0  0  3  0  0  0  0  0  0
  186.8480  178.1910  142.6750 C   0  0  0  0  0  0  0  0  0  0  0  0
  189.1440  177.7970  142.0950 C   0  0  0  0  0  3  0  0  0  0  0  0
  187.6080  178.2990  140.3510 C   0  0  0  0  0  0  0  0  0  0  0  0
  186.2980  178.5960  139.9530 C   0  0  0  0  0  3  0  0  0  0  0  0
  189.4590  177.5770  143.4430 O   0  0  0  0  0  0  0  0  0  0  0  0
  183.8820  179.0000  140.4400 C   0  0  0  0  0  0  0  0  0  0  0  0
  182.8340  178.6020  141.1710 C   0  0  0  0  0  3  0  0  0  0  0  0
  183.6670  179.7510  139.1600 C   0  0  0  0  0  1  0  0  0  0  0  0
  180.7350  177.6950  140.0360 C   0  0  2  0  0  3  0  0  0  0  0  0
  181.4000  178.8530  140.7920 C   0  0  1  0  0  3  0  0  0  0  0  0
  180.4930  177.8790  141.5250 C   0  0  0  0  0  2  0  0  0  0  0  0
  181.6420  176.5750  139.8190 N   0  0  0  0  0  2  0  0  0  0  0  0
  181.5140  176.1880  138.4220 C   0  0  0  0  0  2  0  0  0  0  0  0
  181.3970  173.9900  137.2480 C   0  0  0  0  0  3  0  0  0  0  0  0
  181.1450  174.7410  138.3280 C   0  0  0  0  0  3  0  0  0  0  0  0
  182.0820  174.5130  136.0170 C   0  0  2  0  0  3  0  0  0  0  0  0
  181.4670  173.8640  134.7810 C   0  0  0  0  0  1  0  0  0  0  0  0
  184.0740  173.4340  136.8970 C   0  0  0  0  0  0  0  0  0  0  0  0
  183.5760  174.3200  136.0950 C   0  0  0  0  0  0  0  0  0  0  0  0
  184.5750  175.3340  135.5660 C   0  0  0  0  0  2  0  0  0  0  0  0
  186.3510  173.1150  137.4850 C   0  0  0  0  0  2  0  0  0  0  0  0
  186.5860  174.5770  137.0210 C   0  0  0  0  0  2  0  0  0  0  0  0
  184.8990  172.7390  137.6070 C   0  0  0  0  0  3  0  0  0  0  0  0
  186.0550  174.8660  135.6000 C   0  0  0  0  0  2  0  0  0  0  0  0
  188.6360  178.2040  139.4050 O   0  0  0  0  0  0  0  0  0  0  0  0
  190.6850  175.3410  138.6840 O   0  0  0  0  0  0  0  0  0  0  0  0
  190.7790  175.1190  137.2990 C   0  0  0  0  0  0  0  0  0  0  0  0
  192.2330  175.1730  136.8570 C   0  0  0  0  0  1  0  0  0  0  0  0
  189.9130  177.3210  137.5830 C   0  0  2  0  0  3  0  0  0  0  0  0
  190.4420  176.7180  138.8680 C   0  0  1  0  0  3  0  0  0  0  0  0
  188.9590  177.0030  138.7200 C   0  0  1  0  0  3  0  0  0  0  0  0
  190.2010  173.7580  136.9600 C   0  0  0  0  0  1  0  0  0  0  0  0
  189.9820  176.1910  136.5970 C   0  0  0  0  0  2  0  0  0  0  0  0
  1  6  1  0  0  0  0
  2 12  2  0  0  0  0
  2 11  1  0  0  0  0
  3 10  2  0  0  0  0
  4  8  1  6  0  0  0
  5  1  1  0  0  0  0
  7  4  1  0  0  0  0
  7  9  1  0  0  0  0
  8  1  2  0  0  0  0
  9  5  2  0  0  0  0
 10 11  1  0  0  0  0
 11  7  2  0  0  0  0
 12 15  1  0  0  0  0
 13  2  1  0  0  0  0
 14 13  2  0  0  0  0
 14  3  1  0  0  0  0
 15  4  1  0  0  0  0
 16  3  1  0  0  0  0
 16 17  2  0  0  0  0
 18 16  1  0  0  0  0
 19 22  1  1  0  0  0
 19 20  1  0  0  0  0
 19 21  1  0  0  0  0
 20 17  1  1  0  0  0
 20 21  1  0  0  0  0
 23 22  1  0  0  0  0
 24 25  2  0  0  0  0
 25 23  1  0  0  0  0
 26 27  1  6  0  0  0
 26 29  1  0  0  0  0
 26 24  1  0  0  0  0
 28 33  2  0  0  0  0
 29 28  2  0  0  0  0
 30 34  1  0  0  0  0
 30 29  1  0  0  0  0
 31 33  1  0  0  0  0
 32 31  1  0  0  0  0
 34 32  1  0  0  0  0
 35 13  1  0  0  0  0
 37 36  1  0  0  0  0
 38 37  1  0  0  0  0
 39 43  1  6  0  0  0
 39 41  1  0  0  0  0
 39 40  1  0  0  0  0
 40 36  1  6  0  0  0
 41 40  1  0  0  0  0
 41 35  1  1  0  0  0
 42 37  1  0  0  0  0
 43 37  1  0  0  0  0
M  END
>  <MODEL>
5

>  <REMARK>
 VINA RESULT:      -9.2      3.548      8.801
  Name = 
  9 active torsions:
  status: ('A' for Active; 'I' for Inactive)
    1  A    between atoms: O_1  and  C_34
    2  A    between atoms: O_1  and  C_35
    3  A    between atoms: C_2  and  C_13
    4  A    between atoms: C_3  and  N_4
    5  A    between atoms: N_4  and  C_15
    6  A    between atoms: C_6  and  C_12
    7  A    between atoms: C_10  and  C_22
    8  A    between atoms: C_14  and  C_22
    9  A    between atoms: C_15  and  C_42
                            x       y       z     vdW  Elec       q    Type
                         _______ _______ _______ _____ _____    ______ ____

>  <TORSDO>
F 9

$$$$
=
 OpenBabel10262422333D

 43 49  0  0  1  0  0  0  0  0999 V2000
  191.1970  176.3960  146.7530 C   0  0  0  0  0  0  0  0  0  0  0  0
  187.3740  177.8680  143.8150 C   0  0  0  0  0  0  0  0  0  0  0  0
  188.3970  177.8900  141.1870 C   0  0  0  0  0  0  0  0  0  0  0  0
  189.0020  177.1350  145.9610 C   0  0  0  0  0  0  0  0  0  0  0  0
  191.7050  176.3730  145.5160 C   0  0  0  0  0  3  0  0  0  0  0  0
  192.0500  176.0080  147.9070 C   0  0  0  0  0  1  0  0  0  0  0  0
  189.5300  177.1290  144.5900 C   0  0  0  0  0  0  0  0  0  0  0  0
  189.7910  176.7900  146.9820 C   0  0  0  0  0  3  0  0  0  0  0  0
  190.8960  176.7400  144.3890 N   0  0  0  0  0  2  0  0  0  0  0  0
  189.2110  177.5090  142.2640 C   0  0  0  0  0  3  0  0  0  0  0  0
  188.7240  177.4930  143.5740 C   0  0  0  0  0  0  0  0  0  0  0  0
  186.8800  177.8720  145.0640 C   0  0  0  0  0  3  0  0  0  0  0  0
  186.5510  178.2480  142.7400 C   0  0  0  0  0  0  0  0  0  0  0  0
  187.0700  178.2550  141.4390 C   0  0  0  0  0  3  0  0  0  0  0  0
  187.6750  177.5080  146.1600 O   0  0  0  0  0  0  0  0  0  0  0  0
  188.9260  177.9160  139.8030 C   0  0  0  0  0  0  0  0  0  0  0  0
  188.1300  178.2600  138.7840 C   0  0  0  0  0  3  0  0  0  0  0  0
  190.3570  177.5460  139.5500 C   0  0  0  0  0  1  0  0  0  0  0  0
  187.8290  177.3240  136.4280 C   0  0  2  0  0  3  0  0  0  0  0  0
  188.5730  178.3020  137.3470 C   0  0  1  0  0  3  0  0  0  0  0  0
  187.4340  178.7910  136.4680 C   0  0  0  0  0  2  0  0  0  0  0  0
  186.8390  176.5280  137.1440 N   0  0  0  0  0  2  0  0  0  0  0  0
  186.6580  175.2970  136.3900 C   0  0  0  0  0  2  0  0  0  0  0  0
  188.1930  173.3840  136.8480 C   0  0  0  0  0  3  0  0  0  0  0  0
  187.1390  174.1320  137.1980 C   0  0  0  0  0  3  0  0  0  0  0  0
  189.0110  173.6330  135.6120 C   0  0  2  0  0  3  0  0  0  0  0  0
  188.9780  172.3920  134.7250 C   0  0  0  0  0  1  0  0  0  0  0  0
  191.3880  173.2120  135.9000 C   0  0  0  0  0  0  0  0  0  0  0  0
  190.4140  174.0640  135.9590 C   0  0  0  0  0  0  0  0  0  0  0  0
  190.7280  175.3400  136.7220 C   0  0  0  0  0  2  0  0  0  0  0  0
  193.6120  173.4840  136.6830 C   0  0  0  0  0  2  0  0  0  0  0  0
  193.0620  174.6140  137.5940 C   0  0  0  0  0  2  0  0  0  0  0  0
  192.5420  172.6500  136.0320 C   0  0  0  0  0  3  0  0  0  0  0  0
  192.2390  175.6760  136.8310 C   0  0  0  0  0  2  0  0  0  0  0  0
  185.2210  178.6160  142.9780 O   0  0  0  0  0  0  0  0  0  0  0  0
  181.9700  179.4080  141.6660 O   0  0  0  0  0  0  0  0  0  0  0  0
  181.7390  178.7460  140.4470 C   0  0  0  0  0  0  0  0  0  0  0  0
  180.5100  177.8560  140.5590 C   0  0  0  0  0  1  0  0  0  0  0  0
  183.6240  177.6910  141.4530 C   0  0  2  0  0  3  0  0  0  0  0  0
  182.8940  178.6280  142.3920 C   0  0  1  0  0  3  0  0  0  0  0  0
  184.3070  178.9540  141.9450 C   0  0  1  0  0  3  0  0  0  0  0  0
  181.5220  179.7660  139.3450 C   0  0  0  0  0  1  0  0  0  0  0  0
  182.9560  177.9140  140.1280 C   0  0  0  0  0  2  0  0  0  0  0  0
  1  8  1  0  0  0  0
  1  6  1  0  0  0  0
  2 12  2  0  0  0  0
  3 14  1  0  0  0  0
  3 10  2  0  0  0  0
  4 15  1  0  0  0  0
  4  8  2  0  0  0  0
  5  1  2  0  0  0  0
  7  4  1  0  0  0  0
  9  7  1  0  0  0  0
  9  5  1  0  0  0  0
 10 11  1  0  0  0  0
 11  2  1  0  0  0  0
 11  7  2  0  0  0  0
 12 15  1  0  0  0  0
 13 35  1  0  0  0  0
 13  2  1  0  0  0  0
 14 13  2  0  0  0  0
 16  3  1  0  0  0  0
 17 16  2  0  0  0  0
 18 16  1  0  0  0  0
 19 21  1  0  0  0  0
 19 22  1  1  0  0  0
 19 20  1  0  0  0  0
 20 17  1  1  0  0  0
 21 20  1  0  0  0  0
 23 22  1  0  0  0  0
 23 25  1  0  0  0  0
 24 25  2  0  0  0  0
 26 27  1  1  0  0  0
 26 29  1  0  0  0  0
 26 24  1  0  0  0  0
 28 29  2  0  0  0  0
 28 33  2  0  0  0  0
 29 30  1  0  0  0  0
 30 34  1  0  0  0  0
 31 32  1  0  0  0  0
 33 31  1  0  0  0  0
 34 32  1  0  0  0  0
 37 38  1  0  0  0  0
 37 36  1  0  0  0  0
 39 43  1  6  0  0  0
 39 41  1  0  0  0  0
 39 40  1  0  0  0  0
 40 36  1  6  0  0  0
 41 40  1  0  0  0  0
 41 35  1  1  0  0  0
 42 37  1  0  0  0  0
 43 37  1  0  0  0  0
M  END
>  <MODEL>
6

>  <REMARK>
 VINA RESULT:      -9.1      3.028      6.839
  Name = 
  9 active torsions:
  status: ('A' for Active; 'I' for Inactive)
    1  A    between atoms: O_1  and  C_34
    2  A    between atoms: O_1  and  C_35
    3  A    between atoms: C_2  and  C_13
    4  A    between atoms: C_3  and  N_4
    5  A    between atoms: N_4  and  C_15
    6  A    between atoms: C_6  and  C_12
    7  A    between atoms: C_10  and  C_22
    8  A    between atoms: C_14  and  C_22
    9  A    between atoms: C_15  and  C_42
                            x       y       z     vdW  Elec       q    Type
                         _______ _______ _______ _____ _____    ______ ____

>  <TORSDO>
F 9

$$$$
=
 OpenBabel10262422333D

 43 49  0  0  1  0  0  0  0  0999 V2000
  190.9540  177.8280  143.3770 C   0  0  0  0  0  0  0  0  0  0  0  0
  190.5320  177.0220  138.4190 C   0  0  0  0  0  0  0  0  0  0  0  0
  187.7970  177.3640  137.8200 C   0  0  0  0  0  0  0  0  0  0  0  0
  191.4580  177.3290  141.0350 C   0  0  1  0  0  3  0  0  0  0  0  0
  189.6550  178.0210  143.1230 C   0  0  0  0  0  3  0  0  0  0  0  0
  191.4630  177.9890  144.7650 C   0  0  0  0  0  1  0  0  0  0  0  0
  190.0360  177.5250  140.7200 C   0  0  0  0  0  0  0  0  0  0  0  0
  191.8890  177.4710  142.2900 C   0  0  0  0  0  3  0  0  0  0  0  0
  189.1450  177.8750  141.7890 N   0  0  0  0  0  0  0  0  0  0  0  0
  188.2650  177.5300  139.1330 C   0  0  0  0  0  3  0  0  0  0  0  0
  189.6160  177.3640  139.4510 C   0  0  0  0  0  0  0  0  0  0  0  0
  191.8350  176.8460  138.6950 C   0  0  0  0  0  3  0  0  0  0  0  0
  190.0720  176.8560  137.1010 C   0  0  0  0  0  0  0  0  0  0  0  0
  188.7110  177.0280  136.8160 C   0  0  0  0  0  3  0  0  0  0  0  0
  192.3270  176.9950  139.9990 O   0  0  0  0  0  0  0  0  0  0  0  0
  186.3610  177.5300  137.4960 C   0  0  0  0  0  0  0  0  0  0  0  0
  185.5600  178.2140  138.3210 C   0  0  0  0  0  3  0  0  0  0  0  0
  185.8090  176.9220  136.2420 C   0  0  0  0  0  1  0  0  0  0  0  0
  183.2060  178.1500  139.3090 C   0  0  2  0  0  3  0  0  0  0  0  0
  184.0890  178.4230  138.0840 C   0  0  1  0  0  3  0  0  0  0  0  0
  183.5860  179.5750  138.9380 C   0  0  0  0  0  2  0  0  0  0  0  0
  183.9780  177.7210  140.4690 N   0  0  0  0  0  2  0  0  0  0  0  0
  183.5450  178.5370  141.5920 C   0  0  0  0  0  2  0  0  0  0  0  0
  185.1790  179.3190  143.3080 C   0  0  0  0  0  3  0  0  0  0  0  0
  184.6810  179.3890  142.0670 C   0  0  0  0  0  3  0  0  0  0  0  0
  184.6600  178.3760  144.3580 C   0  0  2  0  0  3  0  0  0  0  0  0
  183.4500  179.0010  145.0450 C   0  0  0  0  0  1  0  0  0  0  0  0
  185.8140  178.5550  146.4900 C   0  0  0  0  0  0  0  0  0  0  0  0
  185.7450  177.9840  145.3290 C   0  0  0  0  0  0  0  0  0  0  0  0
  186.9920  177.2190  144.9200 C   0  0  0  0  0  2  0  0  0  0  0  0
  187.5610  178.4010  148.0880 C   0  0  0  0  0  2  0  0  0  0  0  0
  188.4760  177.9520  146.9180 C   0  0  0  0  0  2  0  0  0  0  0  0
  186.2290  178.9460  147.6480 C   0  0  0  0  0  3  0  0  0  0  0  0
  187.8980  176.7760  146.1000 C   0  0  0  0  0  2  0  0  0  0  0  0
  190.9750  176.5200  136.0850 O   0  0  0  0  0  0  0  0  0  0  0  0
  191.5510  172.9900  136.4390 O   0  0  0  0  0  0  0  0  0  0  0  0
  192.4540  172.5230  135.4690 C   0  0  0  0  0  0  0  0  0  0  0  0
  193.6670  171.8970  136.1410 C   0  0  0  0  0  1  0  0  0  0  0  0
  192.6300  174.8990  135.4800 C   0  0  2  0  0  3  0  0  0  0  0  0
  191.8390  174.3540  136.6510 C   0  0  1  0  0  3  0  0  0  0  0  0
  191.1460  175.1970  135.5970 C   0  0  1  0  0  3  0  0  0  0  0  0
  191.7730  171.4860  134.5960 C   0  0  0  0  0  1  0  0  0  0  0  0
  192.8770  173.6940  134.6190 C   0  0  0  0  0  2  0  0  0  0  0  0
  1  6  1  0  0  0  0
  2 12  2  0  0  0  0
  2 11  1  0  0  0  0
  3 10  2  0  0  0  0
  4  8  1  1  0  0  0
  5  1  1  0  0  0  0
  7  4  1  0  0  0  0
  7  9  1  0  0  0  0
  8  1  2  0  0  0  0
  9  5  2  0  0  0  0
 10 11  1  0  0  0  0
 11  7  2  0  0  0  0
 12 15  1  0  0  0  0
 13  2  1  0  0  0  0
 14 13  2  0  0  0  0
 14  3  1  0  0  0  0
 15  4  1  0  0  0  0
 16  3  1  0  0  0  0
 16 17  2  0  0  0  0
 18 16  1  0  0  0  0
 19 22  1  1  0  0  0
 20 17  1  1  0  0  0
 20 21  1  0  0  0  0
 20 19  1  0  0  0  0
 21 19  1  0  0  0  0
 22 23  1  0  0  0  0
 23 25  1  0  0  0  0
 24 26  1  0  0  0  0
 25 24  2  0  0  0  0
 26 27  1  1  0  0  0
 26 29  1  0  0  0  0
 28 33  2  0  0  0  0
 29 28  2  0  0  0  0
 30 29  1  0  0  0  0
 30 34  1  0  0  0  0
 32 31  1  0  0  0  0
 33 31  1  0  0  0  0
 34 32  1  0  0  0  0
 35 13  1  0  0  0  0
 37 38  1  0  0  0  0
 37 36  1  0  0  0  0
 39 43  1  6  0  0  0
 39 41  1  0  0  0  0
 39 40  1  0  0  0  0
 40 36  1  6  0  0  0
 41 35  1  1  0  0  0
 41 40  1  0  0  0  0
 42 37  1  0  0  0  0
 43 37  1  0  0  0  0
M  END
>  <MODEL>
7

>  <REMARK>
 VINA RESULT:      -9.1      4.126      8.739
  Name = 
  9 active torsions:
  status: ('A' for Active; 'I' for Inactive)
    1  A    between atoms: O_1  and  C_34
    2  A    between atoms: O_1  and  C_35
    3  A    between atoms: C_2  and  C_13
    4  A    between atoms: C_3  and  N_4
    5  A    between atoms: N_4  and  C_15
    6  A    between atoms: C_6  and  C_12
    7  A    between atoms: C_10  and  C_22
    8  A    between atoms: C_14  and  C_22
    9  A    between atoms: C_15  and  C_42
                            x       y       z     vdW  Elec       q    Type
                         _______ _______ _______ _____ _____    ______ ____

>  <TORSDO>
F 9

$$$$
=
 OpenBabel10262422333D

 43 49  0  0  1  0  0  0  0  0999 V2000
  191.1300  176.4260  146.7070 C   0  0  0  0  0  0  0  0  0  0  0  0
  186.7300  177.8810  144.7210 C   0  0  0  0  0  0  0  0  0  0  0  0
  187.1880  178.1250  141.9490 C   0  0  0  0  0  0  0  0  0  0  0  0
  188.7920  177.0980  146.4330 C   0  0  0  0  0  0  0  0  0  0  0  0
  191.3730  176.5090  145.3950 C   0  0  0  0  0  3  0  0  0  0  0  0
  192.2160  176.0100  147.6330 C   0  0  0  0  0  1  0  0  0  0  0  0
  189.0260  177.2080  144.9860 C   0  0  0  0  0  0  0  0  0  0  0  0
  189.7870  176.7310  147.2440 C   0  0  0  0  0  3  0  0  0  0  0  0
  190.3360  176.9050  144.4850 N   0  0  0  0  0  2  0  0  0  0  0  0
  188.2210  177.7190  142.8080 C   0  0  0  0  0  3  0  0  0  0  0  0
  188.0150  177.5940  144.1850 C   0  0  0  0  0  0  0  0  0  0  0  0
  186.5040  177.7780  146.0420 C   0  0  0  0  0  3  0  0  0  0  0  0
  185.6890  178.2850  143.8660 C   0  0  0  0  0  0  0  0  0  0  0  0
  185.9290  178.4030  142.4910 C   0  0  0  0  0  3  0  0  0  0  0  0
  187.5210  177.3870  146.9230 O   0  0  0  0  0  0  0  0  0  0  0  0
  187.4200  178.2670  140.4930 C   0  0  0  0  0  0  0  0  0  0  0  0
  188.6530  178.1290  139.9910 C   0  0  0  0  0  3  0  0  0  0  0  0
  186.2670  178.5730  139.5850 C   0  0  0  0  0  1  0  0  0  0  0  0
  190.2180  177.4680  138.0850 C   0  0  2  0  0  3  0  0  0  0  0  0
  188.9880  178.2690  138.5300 C   0  0  1  0  0  3  0  0  0  0  0  0
  188.8190  176.9310  137.8310 C   0  0  0  0  0  2  0  0  0  0  0  0
  190.8350  176.7340  139.1830 N   0  0  0  0  0  2  0  0  0  0  0  0
  192.1000  176.2120  138.6890 C   0  0  0  0  0  2  0  0  0  0  0  0
  192.7570  174.9400  136.6460 C   0  0  0  0  0  3  0  0  0  0  0  0
  191.8490  175.2310  137.5870 C   0  0  0  0  0  3  0  0  0  0  0  0
  194.1260  175.5580  136.5950 C   0  0  2  0  0  3  0  0  0  0  0  0
  194.3460  176.1890  135.2240 C   0  0  0  0  0  1  0  0  0  0  0  0
  196.4450  174.8720  136.8380 C   0  0  0  0  0  0  0  0  0  0  0  0
  195.1940  174.5570  136.9560 C   0  0  0  0  0  0  0  0  0  0  0  0
  194.9240  173.0700  137.1120 C   0  0  0  0  0  2  0  0  0  0  0  0
  198.3320  173.4430  137.0070 C   0  0  0  0  0  2  0  0  0  0  0  0
  197.3600  172.2690  136.7160 C   0  0  0  0  0  2  0  0  0  0  0  0
  197.7330  174.8030  136.7740 C   0  0  0  0  0  3  0  0  0  0  0  0
  196.1260  172.2450  137.6450 C   0  0  0  0  0  2  0  0  0  0  0  0
  184.4240  178.5670  144.3950 O   0  0  0  0  0  0  0  0  0  0  0  0
  181.7960  179.1720  142.0190 O   0  0  0  0  0  0  0  0  0  0  0  0
  180.5350  178.8900  142.5740 C   0  0  0  0  0  0  0  0  0  0  0  0
  179.6570  180.1310  142.5370 C   0  0  0  0  0  1  0  0  0  0  0  0
  182.0710  179.0090  144.3910 C   0  0  2  0  0  3  0  0  0  0  0  0
  182.6500  179.5170  143.0870 C   0  0  1  0  0  3  0  0  0  0  0  0
  183.2100  178.2590  143.7250 C   0  0  1  0  0  3  0  0  0  0  0  0
  179.8680  177.7790  141.7840 C   0  0  0  0  0  1  0  0  0  0  0  0
  180.7390  178.4390  143.9980 C   0  0  0  0  0  2  0  0  0  0  0  0
  1  8  1  0  0  0  0
  1  6  1  0  0  0  0
  2 12  2  0  0  0  0
  3 14  1  0  0  0  0
  3 10  2  0  0  0  0
  4 15  1  0  0  0  0
  4  8  2  0  0  0  0
  5  1  2  0  0  0  0
  7  4  1  0  0  0  0
  9  7  1  0  0  0  0
  9  5  1  0  0  0  0
 10 11  1  0  0  0  0
 11  2  1  0  0  0  0
 11  7  2  0  0  0  0
 12 15  1  0  0  0  0
 13 35  1  0  0  0  0
 13  2  1  0  0  0  0
 14 13  2  0  0  0  0
 16  3  1  0  0  0  0
 17 16  2  0  0  0  0
 18 16  1  0  0  0  0
 19 20  1  0  0  0  0
 19 22  1  1  0  0  0
 20 17  1  1  0  0  0
 21 19  1  0  0  0  0
 21 20  1  0  0  0  0
 23 22  1  0  0  0  0
 24 25  2  0  0  0  0
 25 23  1  0  0  0  0
 26 27  1  6  0  0  0
 26 24  1  0  0  0  0
 26 29  1  0  0  0  0
 28 29  2  0  0  0  0
 29 30  1  0  0  0  0
 30 34  1  0  0  0  0
 32 31  1  0  0  0  0
 32 34  1  0  0  0  0
 33 28  2  0  0  0  0
 33 31  1  0  0  0  0
 36 37  1  0  0  0  0
 37 43  1  0  0  0  0
 38 37  1  0  0  0  0
 39 43  1  6  0  0  0
 40 36  1  6  0  0  0
 40 41  1  0  0  0  0
 40 39  1  0  0  0  0
 41 39  1  0  0  0  0
 41 35  1  1  0  0  0
 42 37  1  0  0  0  0
M  END
>  <MODEL>
8

>  <REMARK>
 VINA RESULT:      -9.1      4.295      7.295
  Name = 
  9 active torsions:
  status: ('A' for Active; 'I' for Inactive)
    1  A    between atoms: O_1  and  C_34
    2  A    between atoms: O_1  and  C_35
    3  A    between atoms: C_2  and  C_13
    4  A    between atoms: C_3  and  N_4
    5  A    between atoms: N_4  and  C_15
    6  A    between atoms: C_6  and  C_12
    7  A    between atoms: C_10  and  C_22
    8  A    between atoms: C_14  and  C_22
    9  A    between atoms: C_15  and  C_42
                            x       y       z     vdW  Elec       q    Type
                         _______ _______ _______ _____ _____    ______ ____

>  <TORSDO>
F 9

$$$$
=
 OpenBabel10262422333D

 43 49  0  0  1  0  0  0  0  0999 V2000
  190.0370  177.8640  143.1750 C   0  0  0  0  0  0  0  0  0  0  0  0
  192.1810  176.7520  138.7490 C   0  0  0  0  0  0  0  0  0  0  0  0
  190.0570  176.0760  137.0210 C   0  0  0  0  0  0  0  0  0  0  0  0
  191.6750  177.4770  141.3980 C   0  0  0  0  0  0  0  0  0  0  0  0
  189.0060  177.5720  142.3740 C   0  0  0  0  0  3  0  0  0  0  0  0
  189.7840  178.2530  144.5870 C   0  0  0  0  0  1  0  0  0  0  0  0
  190.5670  177.1430  140.4920 C   0  0  0  0  0  0  0  0  0  0  0  0
  191.4230  177.8160  142.6640 C   0  0  0  0  0  3  0  0  0  0  0  0
  189.2280  177.1990  141.0060 N   0  0  0  0  0  2  0  0  0  0  0  0
  189.8020  176.4530  138.3490 C   0  0  0  0  0  3  0  0  0  0  0  0
  190.8410  176.7900  139.2220 C   0  0  0  0  0  0  0  0  0  0  0  0
  193.2010  177.0610  139.5680 C   0  0  0  0  0  3  0  0  0  0  0  0
  192.4440  176.3780  137.4200 C   0  0  0  0  0  0  0  0  0  0  0  0
  191.3810  176.0440  136.5710 C   0  0  0  0  0  3  0  0  0  0  0  0
  192.9750  177.4290  140.9010 O   0  0  0  0  0  0  0  0  0  0  0  0
  188.9500  175.7090  136.1070 C   0  0  0  0  0  0  0  0  0  0  0  0
  187.8110  176.4120  136.1130 C   0  0  0  0  0  3  0  0  0  0  0  0
  189.1100  174.5410  135.1810 C   0  0  0  0  0  1  0  0  0  0  0  0
  185.2770  176.1520  135.9550 C   0  0  2  0  0  3  0  0  0  0  0  0
  186.6300  176.1070  135.2330 C   0  0  1  0  0  3  0  0  0  0  0  0
  185.7410  177.3330  135.1170 C   0  0  0  0  0  2  0  0  0  0  0  0
  185.4090  176.4720  137.3710 N   0  0  0  0  0  2  0  0  0  0  0  0
  184.3660  177.4340  137.6890 C   0  0  0  0  0  2  0  0  0  0  0  0
  184.6150  179.0260  139.5940 C   0  0  0  0  0  3  0  0  0  0  0  0
  184.9650  178.6280  138.3640 C   0  0  0  0  0  3  0  0  0  0  0  0
  183.5890  178.3180  140.4330 C   0  0  2  0  0  3  0  0  0  0  0  0
  182.2230  178.9570  140.2080 C   0  0  0  0  0  1  0  0  0  0  0  0
  183.1350  178.6280  142.8010 C   0  0  0  0  0  0  0  0  0  0  0  0
  183.9900  178.2950  141.8870 C   0  0  0  0  0  0  0  0  0  0  0  0
  185.4350  178.2530  142.3510 C   0  0  0  0  0  2  0  0  0  0  0  0
  183.5400  179.0030  145.1090 C   0  0  0  0  0  2  0  0  0  0  0  0
  185.0270  179.2200  144.7240 C   0  0  0  0  0  2  0  0  0  0  0  0
  182.6050  178.9580  143.9310 C   0  0  0  0  0  3  0  0  0  0  0  0
  185.6200  178.0690  143.8820 C   0  0  0  0  0  2  0  0  0  0  0  0
  193.7650  176.3410  136.9560 O   0  0  0  0  0  0  0  0  0  0  0  0
  194.5080  172.8300  136.7670 O   0  0  0  0  0  0  0  0  0  0  0  0
  195.8540  172.6130  136.4240 C   0  0  0  0  0  0  0  0  0  0  0  0
  196.5490  171.8060  137.5110 C   0  0  0  0  0  1  0  0  0  0  0  0
  195.6720  174.8980  137.0730 C   0  0  2  0  0  3  0  0  0  0  0  0
  194.4410  174.0830  137.4090 C   0  0  1  0  0  3  0  0  0  0  0  0
  194.3570  175.1890  136.3730 C   0  0  1  0  0  3  0  0  0  0  0  0
  195.9310  171.8570  135.1110 C   0  0  0  0  0  1  0  0  0  0  0  0
  196.5210  173.9570  136.2690 C   0  0  0  0  0  2  0  0  0  0  0  0
  1  6  1  0  0  0  0
  2 11  1  0  0  0  0
  2 12  2  0  0  0  0
  3 10  2  0  0  0  0
  4  8  2  0  0  0  0
  5  1  2  0  0  0  0
  7  9  1  0  0  0  0
  7  4  1  0  0  0  0
  8  1  1  0  0  0  0
  9  5  1  0  0  0  0
 10 11  1  0  0  0  0
 11  7  2  0  0  0  0
 12 15  1  0  0  0  0
 13  2  1  0  0  0  0
 14  3  1  0  0  0  0
 14 13  2  0  0  0  0
 15  4  1  0  0  0  0
 16 17  2  0  0  0  0
 16  3  1  0  0  0  0
 18 16  1  0  0  0  0
 19 22  1  1  0  0  0
 20 19  1  0  0  0  0
 20 17  1  1  0  0  0
 21 20  1  0  0  0  0
 21 19  1  0  0  0  0
 22 23  1  0  0  0  0
 23 25  1  0  0  0  0
 24 26  1  0  0  0  0
 25 24  2  0  0  0  0
 26 27  1  1  0  0  0
 26 29  1  0  0  0  0
 28 33  2  0  0  0  0
 29 30  1  0  0  0  0
 29 28  2  0  0  0  0
 30 34  1  0  0  0  0
 32 31  1  0  0  0  0
 33 31  1  0  0  0  0
 34 32  1  0  0  0  0
 35 13  1  0  0  0  0
 37 36  1  0  0  0  0
 37 38  1  0  0  0  0
 39 43  1  6  0  0  0
 39 40  1  0  0  0  0
 40 36  1  6  0  0  0
 41 35  1  1  0  0  0
 41 39  1  0  0  0  0
 41 40  1  0  0  0  0
 42 37  1  0  0  0  0
 43 37  1  0  0  0  0
M  END
>  <MODEL>
9

>  <REMARK>
 VINA RESULT:      -9.0      5.173     10.208
  Name = 
  9 active torsions:
  status: ('A' for Active; 'I' for Inactive)
    1  A    between atoms: O_1  and  C_34
    2  A    between atoms: O_1  and  C_35
    3  A    between atoms: C_2  and  C_13
    4  A    between atoms: C_3  and  N_4
    5  A    between atoms: N_4  and  C_15
    6  A    between atoms: C_6  and  C_12
    7  A    between atoms: C_10  and  C_22
    8  A    between atoms: C_14  and  C_22
    9  A    between atoms: C_15  and  C_42
                            x       y       z     vdW  Elec       q    Type
                         _______ _______ _______ _____ _____    ______ ____

>  <TORSDO>
F 9

$$$$
