=
 OpenBabel10262422563D

 37 40  0  0  1  0  0  0  0  0999 V2000
  184.5930  177.5190  139.0270 C   0  0  0  0  0  3  0  0  0  0  0  0
  180.6870  177.2880  140.5980 C   0  0  0  0  0  2  0  0  0  0  0  0
  185.6050  178.6290  143.1040 C   0  0  0  0  0  3  0  0  0  0  0  0
  183.3840  177.3940  139.5780 C   0  0  0  0  0  0  0  0  0  0  0  0
  185.0010  178.5630  141.8430 C   0  0  0  0  0  0  0  0  0  0  0  0
  182.5210  176.2980  139.1900 N   0  0  0  0  0  0  0  0  0  0  0  0
  185.8600  178.5540  140.8140 C   0  0  0  0  0  2  0  0  0  0  0  0
  183.5670  178.6230  141.7320 C   0  0  0  0  0  0  0  0  0  0  0  0
  183.4710  178.9400  144.1650 C   0  0  0  0  0  3  0  0  0  0  0  0
  185.4910  178.6430  139.3760 C   0  0  1  0  0  3  0  0  0  0  0  0
  182.8490  178.8450  142.9230 C   0  0  0  0  0  3  0  0  0  0  0  0
  181.0900  176.2640  139.5260 C   0  0  0  0  0  2  0  0  0  0  0  0
  182.8700  178.3780  140.5730 C   0  0  2  0  0  3  0  0  0  0  0  0
  184.8500  178.7990  144.2600 C   0  0  0  0  0  0  0  0  0  0  0  0
  181.3720  178.6340  140.3680 C   0  0  1  0  0  0  0  0  0  0  0  0
  185.5220  178.9000  145.5840 C   0  0  0  0  0  2  0  0  0  0  0  0
  184.5800  178.5730  146.6400 N   0  0  0  0  0  1  0  0  0  0  0  0
  187.6570  178.5180  137.9070 N   0  0  0  0  0  0  0  0  0  0  0  0
  186.7010  178.5740  138.5550 C   0  0  0  0  0  0  0  0  0  0  0  0
  181.1430  179.0410  139.0110 O   0  0  0  0  0  0  0  0  0  0  0  0
  180.2880  180.0920  138.6820 C   0  0  0  0  0  3  0  0  0  0  0  0
  180.8740  181.6440  136.7570 O   0  0  0  0  0  0  0  0  0  0  0  0
  180.5880  180.8870  137.6950 C   0  0  0  0  0  0  0  0  0  0  0  0
  180.7630  179.7020  141.2950 C   0  0  0  0  0  2  0  0  0  0  0  0
  179.4890  179.2240  141.9770 C   0  0  0  0  0  2  0  0  0  0  0  0
  179.2310  180.0700  143.2050 C   0  0  0  0  0  2  0  0  0  0  0  0
  179.8060  178.0540  144.2190 C   0  0  0  0  0  1  0  0  0  0  0  0
  178.9310  179.2060  144.3320 N   0  0  0  0  0  2  0  0  0  0  0  0
  183.0070  175.2220  138.3330 C   0  0  0  0  0  2  0  0  0  0  0  0
  181.8410  174.5660  137.6000 C   0  0  0  0  0  2  0  0  0  0  0  0
  183.7170  172.9540  137.0510 C   0  0  0  0  0  2  0  0  0  0  0  0
  182.2000  173.1810  137.0730 C   0  0  2  0  0  3  0  0  0  0  0  0
  181.5470  172.9040  135.7160 C   0  0  0  0  0  2  0  0  0  0  0  0
  180.8420  170.7070  134.9190 N   0  0  0  0  0  1  0  0  0  0  0  0
  182.9840  170.8740  135.9440 N   0  0  0  0  0  2  0  0  0  0  0  0
  181.9970  171.5640  135.1110 C   0  0  2  0  0  3  0  0  0  0  0  0
  184.1150  171.7730  136.1580 C   0  0  0  0  0  2  0  0  0  0  0  0
  1 10  1  0  0  0  0
  1  4  2  0  0  0  0
  3 14  1  0  0  0  0
  5  3  2  0  0  0  0
  6 12  1  0  0  0  0
  6  4  1  0  0  0  0
  7  5  1  0  0  0  0
  8  5  1  0  0  0  0
  8 11  2  0  0  0  0
  9 14  2  0  0  0  0
 10 19  1  6  0  0  0
 10  7  1  0  0  0  0
 11  9  1  0  0  0  0
 12  2  1  0  0  0  0
 13  4  1  1  0  0  0
 13  8  1  0  0  0  0
 14 16  1  0  0  0  0
 15 13  1  0  0  0  0
 15  2  1  0  0  0  0
 15 24  1  1  0  0  0
 16 17  1  0  0  0  0
 18 19  3  0  0  0  0
 20 15  1  0  0  0  0
 21 20  1  0  0  0  0
 22 23  2  0  0  0  0
 23 21  2  0  0  0  0
 24 25  1  0  0  0  0
 25 26  1  0  0  0  0
 26 28  1  0  0  0  0
 27 28  1  0  0  0  0
 29  6  1  0  0  0  0
 30 29  1  0  0  0  0
 31 32  1  0  0  0  0
 32 30  1  6  0  0  0
 33 32  1  0  0  0  0
 35 37  1  0  0  0  0
 36 34  1  1  0  0  0
 36 33  1  0  0  0  0
 36 35  1  0  0  0  0
 37 31  1  0  0  0  0
M  END
>  <MODEL>
1

>  <REMARK>
 VINA RESULT:      -6.0      0.000      0.000
  Name = 
  11 active torsions:
  status: ('A' for Active; 'I' for Inactive)
    1  A    between atoms: O_1  and  C_5
    2  A    between atoms: O_1  and  C_36
    3  A    between atoms: C_3  and  C_32
    4  A    between atoms: C_6  and  C_31
    5  A    between atoms: N_14  and  C_37
    6  A    between atoms: C_17  and  C_26
    7  A    between atoms: C_17  and  C_33
    8  A    between atoms: C_24  and  C_28
    9  A    between atoms: C_26  and  N_34
   10  A    between atoms: C_31  and  C_37
   11  A    between atoms: C_33  and  C_36
                            x       y       z     vdW  Elec       q    Type
                         _______ _______ _______ _____ _____    ______ ____

>  <TORSDO>
F 11

$$$$
=
 OpenBabel10262422563D

 37 40  0  0  1  0  0  0  0  0999 V2000
  184.2410  177.6500  138.2250 C   0  0  0  0  0  3  0  0  0  0  0  0
  180.3580  177.4600  139.8550 C   0  0  0  0  0  2  0  0  0  0  0  0
  185.3690  178.4370  142.3460 C   0  0  0  0  0  3  0  0  0  0  0  0
  183.0390  177.5330  138.7900 C   0  0  0  0  0  0  0  0  0  0  0  0
  184.7400  178.4810  141.0960 C   0  0  0  0  0  0  0  0  0  0  0  0
  182.1260  176.5000  138.3450 N   0  0  0  0  0  0  0  0  0  0  0  0
  185.5800  178.5100  140.0520 C   0  0  0  0  0  2  0  0  0  0  0  0
  183.3080  178.6030  141.0190 C   0  0  0  0  0  0  0  0  0  0  0  0
  183.2670  178.7550  143.4700 C   0  0  0  0  0  3  0  0  0  0  0  0
  185.1890  178.7130  138.6310 C   0  0  1  0  0  3  0  0  0  0  0  0
  182.6200  178.7700  142.2360 C   0  0  0  0  0  3  0  0  0  0  0  0
  180.7010  176.4980  138.7080 C   0  0  0  0  0  2  0  0  0  0  0  0
  182.5810  178.4650  139.8600 C   0  0  2  0  0  3  0  0  0  0  0  0
  184.6410  178.5550  143.5260 C   0  0  0  0  0  0  0  0  0  0  0  0
  181.0910  178.7920  139.7030 C   0  0  1  0  0  0  0  0  0  0  0  0
  185.3400  178.5380  144.8400 C   0  0  0  0  0  2  0  0  0  0  0  0
  184.4080  178.8900  145.8980 N   0  0  0  0  0  1  0  0  0  0  0  0
  187.3220  178.6070  137.1130 N   0  0  0  0  0  0  0  0  0  0  0  0
  186.3810  178.6540  137.7820 C   0  0  0  0  0  0  0  0  0  0  0  0
  180.8540  179.2990  138.3830 O   0  0  0  0  0  0  0  0  0  0  0  0
  180.4990  180.6270  138.1460 C   0  0  0  0  0  3  0  0  0  0  0  0
  180.7580  181.6110  135.8180 O   0  0  0  0  0  0  0  0  0  0  0  0
  180.6310  181.1310  136.9520 C   0  0  0  0  0  0  0  0  0  0  0  0
  180.5400  179.8150  140.7130 C   0  0  0  0  0  2  0  0  0  0  0  0
  179.3890  179.2590  141.5390 C   0  0  0  0  0  2  0  0  0  0  0  0
  178.9340  180.3050  142.5330 C   0  0  0  0  0  2  0  0  0  0  0  0
  179.4410  178.6360  144.0760 C   0  0  0  0  0  1  0  0  0  0  0  0
  179.5670  180.0580  143.8160 N   0  0  0  0  0  2  0  0  0  0  0  0
  182.5540  175.4690  137.4080 C   0  0  0  0  0  2  0  0  0  0  0  0
  183.6530  174.6140  138.0310 C   0  0  0  0  0  2  0  0  0  0  0  0
  184.6150  172.5520  136.9180 C   0  0  0  0  0  2  0  0  0  0  0  0
  184.6310  174.0840  136.9890 C   0  0  2  0  0  3  0  0  0  0  0  0
  186.0400  174.6460  137.1960 C   0  0  0  0  0  2  0  0  0  0  0  0
  187.6570  175.0740  135.4170 N   0  0  0  0  0  1  0  0  0  0  0  0
  186.4760  173.0070  135.3620 N   0  0  0  0  0  2  0  0  0  0  0  0
  187.0660  174.0280  136.2310 C   0  0  2  0  0  3  0  0  0  0  0  0
  185.8510  171.9910  136.2050 C   0  0  0  0  0  2  0  0  0  0  0  0
  1 10  1  0  0  0  0
  1  4  2  0  0  0  0
  3 14  1  0  0  0  0
  5  3  2  0  0  0  0
  6 12  1  0  0  0  0
  6  4  1  0  0  0  0
  7  5  1  0  0  0  0
  8  5  1  0  0  0  0
  8 11  2  0  0  0  0
  9 14  2  0  0  0  0
 10 19  1  6  0  0  0
 10  7  1  0  0  0  0
 11  9  1  0  0  0  0
 12  2  1  0  0  0  0
 13  4  1  1  0  0  0
 13  8  1  0  0  0  0
 14 16  1  0  0  0  0
 15  2  1  0  0  0  0
 15 13  1  0  0  0  0
 15 24  1  1  0  0  0
 16 17  1  0  0  0  0
 18 19  3  0  0  0  0
 20 15  1  0  0  0  0
 21 20  1  0  0  0  0
 22 23  2  0  0  0  0
 23 21  2  0  0  0  0
 24 25  1  0  0  0  0
 25 26  1  0  0  0  0
 26 28  1  0  0  0  0
 28 27  1  0  0  0  0
 29 30  1  0  0  0  0
 29  6  1  0  0  0  0
 31 32  1  0  0  0  0
 32 33  1  0  0  0  0
 32 30  1  1  0  0  0
 35 37  1  0  0  0  0
 35 36  1  0  0  0  0
 36 34  1  6  0  0  0
 36 33  1  0  0  0  0
 37 31  1  0  0  0  0
M  END
>  <MODEL>
2

>  <REMARK>
 VINA RESULT:      -5.7      1.672      2.177
  Name = 
  11 active torsions:
  status: ('A' for Active; 'I' for Inactive)
    1  A    between atoms: O_1  and  C_5
    2  A    between atoms: O_1  and  C_36
    3  A    between atoms: C_3  and  C_32
    4  A    between atoms: C_6  and  C_31
    5  A    between atoms: N_14  and  C_37
    6  A    between atoms: C_17  and  C_26
    7  A    between atoms: C_17  and  C_33
    8  A    between atoms: C_24  and  C_28
    9  A    between atoms: C_26  and  N_34
   10  A    between atoms: C_31  and  C_37
   11  A    between atoms: C_33  and  C_36
                            x       y       z     vdW  Elec       q    Type
                         _______ _______ _______ _____ _____    ______ ____

>  <TORSDO>
F 11

$$$$
=
 OpenBabel10262422563D

 37 40  0  0  1  0  0  0  0  0999 V2000
  191.4010  176.3680  139.0340 C   0  0  0  0  0  3  0  0  0  0  0  0
  187.3170  176.3130  137.9870 C   0  0  0  0  0  2  0  0  0  0  0  0
  189.8340  177.1090  143.0170 C   0  0  0  0  0  3  0  0  0  0  0  0
  190.0980  176.2930  138.7570 C   0  0  0  0  0  0  0  0  0  0  0  0
  190.0890  177.1770  141.6430 C   0  0  0  0  0  0  0  0  0  0  0  0
  189.6110  175.2930  137.8290 N   0  0  0  0  0  0  0  0  0  0  0  0
  191.3890  177.1780  141.3170 C   0  0  0  0  0  2  0  0  0  0  0  0
  188.9970  177.3490  140.7200 C   0  0  0  0  0  0  0  0  0  0  0  0
  187.4900  177.4990  142.6530 C   0  0  0  0  0  3  0  0  0  0  0  0
  191.9400  177.3960  139.9530 C   0  0  1  0  0  3  0  0  0  0  0  0
  187.7190  177.5380  141.2800 C   0  0  0  0  0  3  0  0  0  0  0  0
  188.2570  175.3400  137.2590 C   0  0  0  0  0  2  0  0  0  0  0  0
  189.1130  177.2380  139.3550 C   0  0  2  0  0  3  0  0  0  0  0  0
  188.5450  177.2510  143.5220 C   0  0  0  0  0  0  0  0  0  0  0  0
  188.0290  177.6180  138.3380 C   0  0  1  0  0  0  0  0  0  0  0  0
  188.3080  177.2080  144.9910 C   0  0  0  0  0  2  0  0  0  0  0  0
  186.9680  177.6820  145.2880 N   0  0  0  0  0  1  0  0  0  0  0  0
  194.5540  177.2180  140.0270 N   0  0  0  0  0  0  0  0  0  0  0  0
  193.4000  177.2970  139.9940 C   0  0  0  0  0  0  0  0  0  0  0  0
  188.6510  178.1350  137.1540 O   0  0  0  0  0  0  0  0  0  0  0  0
  187.9260  178.7730  136.1480 C   0  0  0  0  0  3  0  0  0  0  0  0
  186.4150  177.4160  134.6210 O   0  0  0  0  0  0  0  0  0  0  0  0
  187.1510  178.0770  135.3660 C   0  0  0  0  0  0  0  0  0  0  0  0
  187.0090  178.6580  138.8350 C   0  0  0  0  0  2  0  0  0  0  0  0
  185.5750  178.2780  138.4960 C   0  0  0  0  0  2  0  0  0  0  0  0
  184.6250  179.1760  139.2560 C   0  0  0  0  0  2  0  0  0  0  0  0
  184.2210  179.0170  141.5440 C   0  0  0  0  0  1  0  0  0  0  0  0
  185.1850  179.4780  140.5610 N   0  0  0  0  0  2  0  0  0  0  0  0
  190.4900  174.2480  137.3160 C   0  0  0  0  0  2  0  0  0  0  0  0
  190.9760  174.6090  135.9160 C   0  0  0  0  0  2  0  0  0  0  0  0
  193.1930  174.0990  137.0290 C   0  0  0  0  0  2  0  0  0  0  0  0
  192.4870  174.8010  135.8620 C   0  0  2  0  0  3  0  0  0  0  0  0
  192.8670  176.2800  135.7530 C   0  0  0  0  0  2  0  0  0  0  0  0
  194.8410  177.1410  134.6020 N   0  0  0  0  0  1  0  0  0  0  0  0
  195.1290  175.2550  136.0250 N   0  0  0  0  0  2  0  0  0  0  0  0
  194.3870  176.5020  135.8230 C   0  0  2  0  0  3  0  0  0  0  0  0
  194.6230  174.6110  137.2350 C   0  0  0  0  0  2  0  0  0  0  0  0
  1 10  1  0  0  0  0
  2 15  1  0  0  0  0
  3 14  1  0  0  0  0
  4  1  2  0  0  0  0
  5  3  2  0  0  0  0
  6  4  1  0  0  0  0
  7  5  1  0  0  0  0
  8 11  2  0  0  0  0
  8  5  1  0  0  0  0
  9 14  2  0  0  0  0
 10 19  1  1  0  0  0
 10  7  1  0  0  0  0
 11  9  1  0  0  0  0
 12  6  1  0  0  0  0
 12  2  1  0  0  0  0
 13  4  1  1  0  0  0
 13  8  1  0  0  0  0
 14 16  1  0  0  0  0
 15 24  1  1  0  0  0
 15 13  1  0  0  0  0
 16 17  1  0  0  0  0
 19 18  3  0  0  0  0
 20 15  1  0  0  0  0
 21 20  1  0  0  0  0
 22 23  2  0  0  0  0
 23 21  2  0  0  0  0
 25 24  1  0  0  0  0
 25 26  1  0  0  0  0
 26 28  1  0  0  0  0
 28 27  1  0  0  0  0
 29  6  1  0  0  0  0
 30 29  1  0  0  0  0
 31 37  1  0  0  0  0
 32 30  1  1  0  0  0
 32 31  1  0  0  0  0
 33 36  1  0  0  0  0
 33 32  1  0  0  0  0
 35 37  1  0  0  0  0
 36 34  1  6  0  0  0
 36 35  1  0  0  0  0
M  END
>  <MODEL>
3

>  <REMARK>
 VINA RESULT:      -5.4      5.257      7.949
  Name = 
  11 active torsions:
  status: ('A' for Active; 'I' for Inactive)
    1  A    between atoms: O_1  and  C_5
    2  A    between atoms: O_1  and  C_36
    3  A    between atoms: C_3  and  C_32
    4  A    between atoms: C_6  and  C_31
    5  A    between atoms: N_14  and  C_37
    6  A    between atoms: C_17  and  C_26
    7  A    between atoms: C_17  and  C_33
    8  A    between atoms: C_24  and  C_28
    9  A    between atoms: C_26  and  N_34
   10  A    between atoms: C_31  and  C_37
   11  A    between atoms: C_33  and  C_36
                            x       y       z     vdW  Elec       q    Type
                         _______ _______ _______ _____ _____    ______ ____

>  <TORSDO>
F 11

$$$$
=
 OpenBabel10262422563D

 37 40  0  0  1  0  0  0  0  0999 V2000
  183.6220  179.5060  139.2980 C   0  0  0  0  0  3  0  0  0  0  0  0
  186.9610  177.0200  138.6310 C   0  0  0  0  0  2  0  0  0  0  0  0
  181.4200  176.0610  137.8290 C   0  0  0  0  0  3  0  0  0  0  0  0
  184.6450  178.6650  139.1350 C   0  0  0  0  0  0  0  0  0  0  0  0
  182.3420  177.1050  137.9630 C   0  0  0  0  0  0  0  0  0  0  0  0
  185.7170  178.6310  140.1080 N   0  0  0  0  0  0  0  0  0  0  0  0
  181.7980  178.2940  138.2610 C   0  0  0  0  0  2  0  0  0  0  0  0
  183.7330  176.8740  137.6710 C   0  0  0  0  0  0  0  0  0  0  0  0
  183.1320  174.5860  137.0100 C   0  0  0  0  0  3  0  0  0  0  0  0
  182.5240  179.5920  138.3090 C   0  0  1  0  0  3  0  0  0  0  0  0
  184.0710  175.6030  137.1660 C   0  0  0  0  0  3  0  0  0  0  0  0
  186.9970  177.9570  139.8470 C   0  0  0  0  0  2  0  0  0  0  0  0
  184.7410  177.7670  137.9490 C   0  0  2  0  0  3  0  0  0  0  0  0
  181.8100  174.8050  137.3730 C   0  0  0  0  0  0  0  0  0  0  0  0
  186.1920  177.6450  137.4680 C   0  0  1  0  0  0  0  0  0  0  0  0
  180.8010  173.7230  137.2090 C   0  0  0  0  0  2  0  0  0  0  0  0
  180.0320  173.5770  138.4330 N   0  0  0  0  0  1  0  0  0  0  0  0
  180.8660  181.4970  139.0070 N   0  0  0  0  0  0  0  0  0  0  0  0
  181.5970  180.6560  138.6990 C   0  0  0  0  0  0  0  0  0  0  0  0
  186.7200  178.9550  137.2190 O   0  0  0  0  0  0  0  0  0  0  0  0
  187.9420  179.1570  136.5800 C   0  0  0  0  0  3  0  0  0  0  0  0
  190.0860  178.3100  137.6480 O   0  0  0  0  0  0  0  0  0  0  0  0
  189.0410  178.7230  137.1270 C   0  0  0  0  0  0  0  0  0  0  0  0
  186.3850  176.8030  136.1940 C   0  0  0  0  0  2  0  0  0  0  0  0
  187.3180  175.6200  136.4120 C   0  0  0  0  0  2  0  0  0  0  0  0
  188.2830  175.5220  135.2520 C   0  0  0  0  0  2  0  0  0  0  0  0
  189.5210  174.7350  137.0610 C   0  0  0  0  0  1  0  0  0  0  0  0
  189.6350  175.3670  135.7590 N   0  0  0  0  0  2  0  0  0  0  0  0
  185.6240  179.3750  141.3590 C   0  0  0  0  0  2  0  0  0  0  0  0
  185.0310  178.4920  142.4530 C   0  0  0  0  0  2  0  0  0  0  0  0
  186.9940  177.4090  143.6320 C   0  0  0  0  0  2  0  0  0  0  0  0
  185.8950  178.4760  143.7090 C   0  0  2  0  0  3  0  0  0  0  0  0
  185.0470  178.3530  144.9780 C   0  0  0  0  0  2  0  0  0  0  0  0
  185.6230  179.3080  147.1500 N   0  0  0  0  0  1  0  0  0  0  0  0
  187.3410  178.1760  145.9520 N   0  0  0  0  0  2  0  0  0  0  0  0
  185.9060  178.2090  146.2450 C   0  0  2  0  0  3  0  0  0  0  0  0
  187.5920  177.0900  145.0080 C   0  0  0  0  0  2  0  0  0  0  0  0
  2 12  1  0  0  0  0
  3  5  1  0  0  0  0
  4  1  2  0  0  0  0
  4  6  1  0  0  0  0
  5  7  1  0  0  0  0
  6 29  1  0  0  0  0
  7 10  1  0  0  0  0
  8  5  2  0  0  0  0
  9 11  2  0  0  0  0
  9 14  1  0  0  0  0
 10 19  1  1  0  0  0
 10  1  1  0  0  0  0
 11  8  1  0  0  0  0
 12  6  1  0  0  0  0
 13  8  1  1  0  0  0
 13  4  1  0  0  0  0
 14  3  2  0  0  0  0
 15 24  1  6  0  0  0
 15 13  1  0  0  0  0
 15  2  1  0  0  0  0
 16 14  1  0  0  0  0
 16 17  1  0  0  0  0
 19 18  3  0  0  0  0
 20 15  1  0  0  0  0
 21 23  2  0  0  0  0
 21 20  1  0  0  0  0
 23 22  2  0  0  0  0
 24 25  1  0  0  0  0
 26 28  1  0  0  0  0
 26 25  1  0  0  0  0
 28 27  1  0  0  0  0
 29 30  1  0  0  0  0
 31 32  1  0  0  0  0
 31 37  1  0  0  0  0
 32 30  1  6  0  0  0
 32 33  1  0  0  0  0
 33 36  1  0  0  0  0
 35 36  1  0  0  0  0
 36 34  1  1  0  0  0
 37 35  1  0  0  0  0
M  END
>  <MODEL>
4

>  <REMARK>
 VINA RESULT:      -5.4      3.022      8.768
  Name = 
  11 active torsions:
  status: ('A' for Active; 'I' for Inactive)
    1  A    between atoms: O_1  and  C_5
    2  A    between atoms: O_1  and  C_36
    3  A    between atoms: C_3  and  C_32
    4  A    between atoms: C_6  and  C_31
    5  A    between atoms: N_14  and  C_37
    6  A    between atoms: C_17  and  C_26
    7  A    between atoms: C_17  and  C_33
    8  A    between atoms: C_24  and  C_28
    9  A    between atoms: C_26  and  N_34
   10  A    between atoms: C_31  and  C_37
   11  A    between atoms: C_33  and  C_36
                            x       y       z     vdW  Elec       q    Type
                         _______ _______ _______ _____ _____    ______ ____

>  <TORSDO>
F 11

$$$$
=
 OpenBabel10262422563D

 37 40  0  0  1  0  0  0  0  0999 V2000
  185.6020  174.4280  136.5100 C   0  0  0  0  0  3  0  0  0  0  0  0
  182.4520  177.2280  136.6220 C   0  0  0  0  0  2  0  0  0  0  0  0
  182.3480  171.5490  136.5270 C   0  0  0  0  0  3  0  0  0  0  0  0
  184.5760  175.2800  136.4800 C   0  0  0  0  0  0  0  0  0  0  0  0
  183.1890  172.6240  136.8380 C   0  0  0  0  0  0  0  0  0  0  0  0
  184.6480  176.4710  135.6570 N   0  0  0  0  0  0  0  0  0  0  0  0
  184.4910  172.3110  136.9040 C   0  0  0  0  0  2  0  0  0  0  0  0
  182.6220  173.9060  137.1660 C   0  0  0  0  0  0  0  0  0  0  0  0
  180.3970  172.8840  136.9640 C   0  0  0  0  0  3  0  0  0  0  0  0
  185.5780  173.2170  137.3630 C   0  0  1  0  0  3  0  0  0  0  0  0
  181.2170  173.9740  137.2470 C   0  0  0  0  0  3  0  0  0  0  0  0
  183.6990  177.5840  135.7980 C   0  0  0  0  0  2  0  0  0  0  0  0
  183.3510  175.0630  137.2990 C   0  0  2  0  0  3  0  0  0  0  0  0
  180.9630  171.6780  136.5710 C   0  0  0  0  0  0  0  0  0  0  0  0
  182.8140  176.3910  137.8470 C   0  0  1  0  0  0  0  0  0  0  0  0
  180.0930  170.5090  136.2670 C   0  0  0  0  0  2  0  0  0  0  0  0
  180.7240  169.6760  135.2580 N   0  0  0  0  0  1  0  0  0  0  0  0
  187.8800  171.9780  137.1880 N   0  0  0  0  0  0  0  0  0  0  0  0
  186.8640  172.5250  137.2650 C   0  0  0  0  0  0  0  0  0  0  0  0
  183.8570  177.0610  138.5690 O   0  0  0  0  0  0  0  0  0  0  0  0
  183.5920  178.0490  139.5180 C   0  0  0  0  0  3  0  0  0  0  0  0
  184.3260  180.4440  139.0910 O   0  0  0  0  0  0  0  0  0  0  0  0
  183.9680  179.2770  139.2980 C   0  0  0  0  0  0  0  0  0  0  0  0
  181.5950  176.2650  138.7790 C   0  0  0  0  0  2  0  0  0  0  0  0
  180.4250  177.1290  138.3300 C   0  0  0  0  0  2  0  0  0  0  0  0
  179.9550  177.9780  139.4900 C   0  0  0  0  0  2  0  0  0  0  0  0
  180.4450  178.2860  141.7460 C   0  0  0  0  0  1  0  0  0  0  0  0
  180.2000  177.2730  140.7350 N   0  0  0  0  0  2  0  0  0  0  0  0
  185.7500  176.6770  134.7240 C   0  0  0  0  0  2  0  0  0  0  0  0
  186.4670  177.9860  135.0370 C   0  0  0  0  0  2  0  0  0  0  0  0
  188.3730  176.4600  135.7100 C   0  0  0  0  0  2  0  0  0  0  0  0
  187.6490  177.7840  135.9790 C   0  0  2  0  0  3  0  0  0  0  0  0
  187.2380  177.9400  137.4460 C   0  0  0  0  0  2  0  0  0  0  0  0
  188.6800  178.7840  139.2260 N   0  0  0  0  0  1  0  0  0  0  0  0
  189.6050  177.1900  137.7200 N   0  0  0  0  0  2  0  0  0  0  0  0
  188.3880  177.6170  138.4140 C   0  0  2  0  0  3  0  0  0  0  0  0
  189.2740  176.0420  136.8780 C   0  0  0  0  0  2  0  0  0  0  0  0
  1 10  1  0  0  0  0
  2 15  1  0  0  0  0
  3 14  2  0  0  0  0
  3  5  1  0  0  0  0
  4  1  2  0  0  0  0
  5  7  1  0  0  0  0
  5  8  2  0  0  0  0
  6 12  1  0  0  0  0
  6  4  1  0  0  0  0
  7 10  1  0  0  0  0
  8 11  1  0  0  0  0
  8 13  1  0  0  0  0
  9 11  2  0  0  0  0
 10 19  1  6  0  0  0
 12  2  1  0  0  0  0
 13  4  1  6  0  0  0
 13 15  1  0  0  0  0
 14  9  1  0  0  0  0
 15 20  1  0  0  0  0
 15 24  1  1  0  0  0
 16 14  1  0  0  0  0
 17 16  1  0  0  0  0
 18 19  3  0  0  0  0
 20 21  1  0  0  0  0
 22 23  2  0  0  0  0
 23 21  2  0  0  0  0
 25 24  1  0  0  0  0
 25 26  1  0  0  0  0
 26 28  1  0  0  0  0
 28 27  1  0  0  0  0
 29 30  1  0  0  0  0
 29  6  1  0  0  0  0
 31 32  1  0  0  0  0
 31 37  1  0  0  0  0
 32 30  1  6  0  0  0
 32 33  1  0  0  0  0
 33 36  1  0  0  0  0
 35 36  1  0  0  0  0
 36 34  1  6  0  0  0
 37 35  1  0  0  0  0
M  END
>  <MODEL>
5

>  <REMARK>
 VINA RESULT:      -5.4      2.881      7.206
  Name = 
  11 active torsions:
  status: ('A' for Active; 'I' for Inactive)
    1  A    between atoms: O_1  and  C_5
    2  A    between atoms: O_1  and  C_36
    3  A    between atoms: C_3  and  C_32
    4  A    between atoms: C_6  and  C_31
    5  A    between atoms: N_14  and  C_37
    6  A    between atoms: C_17  and  C_26
    7  A    between atoms: C_17  and  C_33
    8  A    between atoms: C_24  and  C_28
    9  A    between atoms: C_26  and  N_34
   10  A    between atoms: C_31  and  C_37
   11  A    between atoms: C_33  and  C_36
                            x       y       z     vdW  Elec       q    Type
                         _______ _______ _______ _____ _____    ______ ____

>  <TORSDO>
F 11

$$$$
=
 OpenBabel10262422563D

 37 40  0  0  1  0  0  0  0  0999 V2000
  181.3760  178.5350  141.5410 C   0  0  0  0  0  3  0  0  0  0  0  0
  183.5280  178.4760  137.9160 C   0  0  0  0  0  2  0  0  0  0  0  0
  179.4080  175.0620  139.8260 C   0  0  0  0  0  3  0  0  0  0  0  0
  182.0780  178.4410  140.4110 C   0  0  0  0  0  0  0  0  0  0  0  0
  179.9480  176.3390  140.0170 C   0  0  0  0  0  0  0  0  0  0  0  0
  183.5060  178.6850  140.4220 N   0  0  0  0  0  0  0  0  0  0  0  0
  179.6070  176.9200  141.1750 C   0  0  0  0  0  2  0  0  0  0  0  0
  180.7020  176.9630  138.9610 C   0  0  0  0  0  0  0  0  0  0  0  0
  180.1980  175.0130  137.5560 C   0  0  0  0  0  3  0  0  0  0  0  0
  179.9110  178.3240  141.5630 C   0  0  1  0  0  3  0  0  0  0  0  0
  180.7700  176.2700  137.7360 C   0  0  0  0  0  3  0  0  0  0  0  0
  184.2810  178.8870  139.1890 C   0  0  0  0  0  2  0  0  0  0  0  0
  181.4290  178.1210  139.1080 C   0  0  2  0  0  3  0  0  0  0  0  0
  179.5440  174.3930  138.6130 C   0  0  0  0  0  0  0  0  0  0  0  0
  182.0660  178.9200  137.9650 C   0  0  1  0  0  0  0  0  0  0  0  0
  178.9310  173.0490  138.4280 C   0  0  0  0  0  2  0  0  0  0  0  0
  179.8480  172.1850  137.7060 N   0  0  0  0  0  1  0  0  0  0  0  0
  178.9990  178.7810  143.9770 N   0  0  0  0  0  0  0  0  0  0  0  0
  179.4010  178.5800  142.9120 C   0  0  0  0  0  0  0  0  0  0  0  0
  182.0210  180.3180  138.2820 O   0  0  0  0  0  0  0  0  0  0  0  0
  180.9110  181.1120  137.9970 C   0  0  0  0  0  3  0  0  0  0  0  0
  181.2180  183.5810  137.4830 O   0  0  0  0  0  0  0  0  0  0  0  0
  181.0690  182.3780  137.7330 C   0  0  0  0  0  0  0  0  0  0  0  0
  181.4080  178.7210  136.5870 C   0  0  0  0  0  2  0  0  0  0  0  0
  182.4290  178.5380  135.4740 C   0  0  0  0  0  2  0  0  0  0  0  0
  182.1140  177.2720  134.7080 C   0  0  0  0  0  2  0  0  0  0  0  0
  182.7270  175.0270  134.6340 C   0  0  0  0  0  1  0  0  0  0  0  0
  183.2520  176.3730  134.7700 N   0  0  0  0  0  2  0  0  0  0  0  0
  184.2310  178.8630  141.6750 C   0  0  0  0  0  2  0  0  0  0  0  0
  185.7350  178.8290  141.4240 C   0  0  0  0  0  2  0  0  0  0  0  0
  186.0100  178.2160  143.8660 C   0  0  0  0  0  2  0  0  0  0  0  0
  186.4660  177.9440  142.4270 C   0  0  2  0  0  3  0  0  0  0  0  0
  187.9850  178.0410  142.2660 C   0  0  0  0  0  2  0  0  0  0  0  0
  189.5640  176.2350  142.7220 N   0  0  0  0  0  1  0  0  0  0  0  0
  187.8410  176.6250  144.3190 N   0  0  0  0  0  2  0  0  0  0  0  0
  188.7410  177.2530  143.3490 C   0  0  2  0  0  3  0  0  0  0  0  0
  186.9960  177.6640  144.9020 C   0  0  0  0  0  2  0  0  0  0  0  0
  1 10  1  0  0  0  0
  2 15  1  0  0  0  0
  2 12  1  0  0  0  0
  3  5  1  0  0  0  0
  4  6  1  0  0  0  0
  4  1  2  0  0  0  0
  5  7  1  0  0  0  0
  6 29  1  0  0  0  0
  7 10  1  0  0  0  0
  8  5  2  0  0  0  0
  9 11  2  0  0  0  0
  9 14  1  0  0  0  0
 10 19  1  1  0  0  0
 11  8  1  0  0  0  0
 12  6  1  0  0  0  0
 13  8  1  6  0  0  0
 13  4  1  0  0  0  0
 14  3  2  0  0  0  0
 15 24  1  6  0  0  0
 15 20  1  0  0  0  0
 15 13  1  0  0  0  0
 16 14  1  0  0  0  0
 17 16  1  0  0  0  0
 19 18  3  0  0  0  0
 21 20  1  0  0  0  0
 22 23  2  0  0  0  0
 23 21  2  0  0  0  0
 25 24  1  0  0  0  0
 26 28  1  0  0  0  0
 26 25  1  0  0  0  0
 27 28  1  0  0  0  0
 30 29  1  0  0  0  0
 31 37  1  0  0  0  0
 32 30  1  6  0  0  0
 32 31  1  0  0  0  0
 33 32  1  0  0  0  0
 33 36  1  0  0  0  0
 35 37  1  0  0  0  0
 36 34  1  6  0  0  0
 36 35  1  0  0  0  0
M  END
>  <MODEL>
6

>  <REMARK>
 VINA RESULT:      -5.4      2.436      7.720
  Name = 
  11 active torsions:
  status: ('A' for Active; 'I' for Inactive)
    1  A    between atoms: O_1  and  C_5
    2  A    between atoms: O_1  and  C_36
    3  A    between atoms: C_3  and  C_32
    4  A    between atoms: C_6  and  C_31
    5  A    between atoms: N_14  and  C_37
    6  A    between atoms: C_17  and  C_26
    7  A    between atoms: C_17  and  C_33
    8  A    between atoms: C_24  and  C_28
    9  A    between atoms: C_26  and  N_34
   10  A    between atoms: C_31  and  C_37
   11  A    between atoms: C_33  and  C_36
                            x       y       z     vdW  Elec       q    Type
                         _______ _______ _______ _____ _____    ______ ____

>  <TORSDO>
F 11

$$$$
=
 OpenBabel10262422563D

 37 40  0  0  1  0  0  0  0  0999 V2000
  188.6850  177.1880  139.2050 C   0  0  0  0  0  3  0  0  0  0  0  0
  187.2220  175.8550  135.4820 C   0  0  0  0  0  2  0  0  0  0  0  0
  192.5500  176.4250  137.3710 C   0  0  0  0  0  3  0  0  0  0  0  0
  188.2670  176.8230  137.9920 C   0  0  0  0  0  0  0  0  0  0  0  0
  191.2330  176.2940  137.8300 C   0  0  0  0  0  0  0  0  0  0  0  0
  187.1570  177.5160  137.3700 N   0  0  0  0  0  0  0  0  0  0  0  0
  191.0480  176.6630  139.1050 C   0  0  0  0  0  2  0  0  0  0  0  0
  190.2370  175.6930  136.9820 C   0  0  0  0  0  0  0  0  0  0  0  0
  192.0040  175.2870  135.3250 C   0  0  0  0  0  3  0  0  0  0  0  0
  189.7950  176.4840  139.8860 C   0  0  1  0  0  3  0  0  0  0  0  0
  190.6820  175.1750  135.7500 C   0  0  0  0  0  3  0  0  0  0  0  0
  186.4620  176.9880  136.1870 C   0  0  0  0  0  2  0  0  0  0  0  0
  188.8900  175.6870  137.2560 C   0  0  2  0  0  3  0  0  0  0  0  0
  192.9330  175.9430  136.1230 C   0  0  0  0  0  0  0  0  0  0  0  0
  187.8320  174.8830  136.4900 C   0  0  1  0  0  0  0  0  0  0  0  0
  194.3470  176.0670  135.6760 C   0  0  0  0  0  2  0  0  0  0  0  0
  195.2380  175.6330  136.7380 N   0  0  0  0  0  1  0  0  0  0  0  0
  190.1130  177.4730  142.2910 N   0  0  0  0  0  0  0  0  0  0  0  0
  189.9730  177.0370  141.2300 C   0  0  0  0  0  0  0  0  0  0  0  0
  186.8070  174.4610  137.4000 O   0  0  0  0  0  0  0  0  0  0  0  0
  185.4690  174.3560  137.0210 C   0  0  0  0  0  3  0  0  0  0  0  0
  184.1580  172.2510  137.5760 O   0  0  0  0  0  0  0  0  0  0  0  0
  184.7970  173.2770  137.3060 C   0  0  0  0  0  0  0  0  0  0  0  0
  188.3660  173.6350  135.7630 C   0  0  0  0  0  2  0  0  0  0  0  0
  188.3100  172.3850  136.6300 C   0  0  0  0  0  2  0  0  0  0  0  0
  187.9320  171.1970  135.7730 C   0  0  0  0  0  2  0  0  0  0  0  0
  185.9380  170.3030  134.9710 C   0  0  0  0  0  1  0  0  0  0  0  0
  186.7390  171.5120  135.0090 N   0  0  0  0  0  2  0  0  0  0  0  0
  186.5920  178.7220  137.9650 C   0  0  0  0  0  2  0  0  0  0  0  0
  185.1010  178.5330  138.2230 C   0  0  0  0  0  2  0  0  0  0  0  0
  183.3300  178.5260  140.0340 C   0  0  0  0  0  2  0  0  0  0  0  0
  184.8010  178.2580  139.6920 C   0  0  2  0  0  3  0  0  0  0  0  0
  185.7640  179.0070  140.6170 C   0  0  0  0  0  2  0  0  0  0  0  0
  186.5060  178.2200  142.8060 N   0  0  0  0  0  1  0  0  0  0  0  0
  184.1870  178.0420  142.2970 N   0  0  0  0  0  2  0  0  0  0  0  0
  185.3990  178.8400  142.1010 C   0  0  2  0  0  3  0  0  0  0  0  0
  183.1010  178.6630  141.5440 C   0  0  0  0  0  2  0  0  0  0  0  0
  1 10  1  0  0  0  0
  2 12  1  0  0  0  0
  2 15  1  0  0  0  0
  3  5  1  0  0  0  0
  4  1  2  0  0  0  0
  5  7  1  0  0  0  0
  6 29  1  0  0  0  0
  6  4  1  0  0  0  0
  7 10  1  0  0  0  0
  8  5  2  0  0  0  0
  9 11  2  0  0  0  0
  9 14  1  0  0  0  0
 10 19  1  1  0  0  0
 11  8  1  0  0  0  0
 12  6  1  0  0  0  0
 13  8  1  6  0  0  0
 13  4  1  0  0  0  0
 14  3  2  0  0  0  0
 15 24  1  6  0  0  0
 15 13  1  0  0  0  0
 15 20  1  0  0  0  0
 16 14  1  0  0  0  0
 16 17  1  0  0  0  0
 19 18  3  0  0  0  0
 21 23  2  0  0  0  0
 21 20  1  0  0  0  0
 23 22  2  0  0  0  0
 24 25  1  0  0  0  0
 26 25  1  0  0  0  0
 27 28  1  0  0  0  0
 28 26  1  0  0  0  0
 29 30  1  0  0  0  0
 31 37  1  0  0  0  0
 32 30  1  6  0  0  0
 32 31  1  0  0  0  0
 32 33  1  0  0  0  0
 33 36  1  0  0  0  0
 36 35  1  0  0  0  0
 36 34  1  1  0  0  0
 37 35  1  0  0  0  0
M  END
>  <MODEL>
7

>  <REMARK>
 VINA RESULT:      -5.3      4.526      9.421
  Name = 
  11 active torsions:
  status: ('A' for Active; 'I' for Inactive)
    1  A    between atoms: O_1  and  C_5
    2  A    between atoms: O_1  and  C_36
    3  A    between atoms: C_3  and  C_32
    4  A    between atoms: C_6  and  C_31
    5  A    between atoms: N_14  and  C_37
    6  A    between atoms: C_17  and  C_26
    7  A    between atoms: C_17  and  C_33
    8  A    between atoms: C_24  and  C_28
    9  A    between atoms: C_26  and  N_34
   10  A    between atoms: C_31  and  C_37
   11  A    between atoms: C_33  and  C_36
                            x       y       z     vdW  Elec       q    Type
                         _______ _______ _______ _____ _____    ______ ____

>  <TORSDO>
F 11

$$$$
=
 OpenBabel10262422563D

 37 40  0  0  1  0  0  0  0  0999 V2000
  182.2130  179.0460  139.9980 C   0  0  0  0  0  3  0  0  0  0  0  0
  182.0330  177.8610  135.9560 C   0  0  0  0  0  2  0  0  0  0  0  0
  186.4930  178.6060  139.3950 C   0  0  0  0  0  3  0  0  0  0  0  0
  182.2050  178.7320  138.7020 C   0  0  0  0  0  0  0  0  0  0  0  0
  185.1130  178.3760  139.4260 C   0  0  0  0  0  0  0  0  0  0  0  0
  181.2870  179.4000  137.8010 N   0  0  0  0  0  0  0  0  0  0  0  0
  184.5280  178.6570  140.5990 C   0  0  0  0  0  2  0  0  0  0  0  0
  184.4620  177.7730  138.2920 C   0  0  0  0  0  0  0  0  0  0  0  0
  186.6690  177.5650  137.2350 C   0  0  0  0  0  3  0  0  0  0  0  0
  183.1140  178.3630  140.9550 C   0  0  1  0  0  3  0  0  0  0  0  0
  185.2920  177.3560  137.2330 C   0  0  0  0  0  3  0  0  0  0  0  0
  181.0190  178.9070  136.4420 C   0  0  0  0  0  2  0  0  0  0  0  0
  183.0990  177.6780  138.1430 C   0  0  2  0  0  3  0  0  0  0  0  0
  187.2670  178.2220  138.3030 C   0  0  0  0  0  0  0  0  0  0  0  0
  182.3790  176.8650  137.0610 C   0  0  1  0  0  0  0  0  0  0  0  0
  188.7370  178.4490  138.3120 C   0  0  0  0  0  2  0  0  0  0  0  0
  189.0550  179.6460  137.5520 N   0  0  0  0  0  1  0  0  0  0  0  0
  182.6260  179.2230  143.3820 N   0  0  0  0  0  0  0  0  0  0  0  0
  182.8410  178.8430  142.3100 C   0  0  0  0  0  0  0  0  0  0  0  0
  181.1600  176.3340  137.5990 O   0  0  0  0  0  0  0  0  0  0  0  0
  181.1460  175.3380  138.5740 C   0  0  0  0  0  3  0  0  0  0  0  0
  179.2920  173.6000  138.5830 O   0  0  0  0  0  0  0  0  0  0  0  0
  180.1960  174.4470  138.5780 C   0  0  0  0  0  0  0  0  0  0  0  0
  183.1920  175.6940  136.4790 C   0  0  0  0  0  2  0  0  0  0  0  0
  182.5910  175.1480  135.1920 C   0  0  0  0  0  2  0  0  0  0  0  0
  182.4920  173.6410  135.2850 C   0  0  0  0  0  2  0  0  0  0  0  0
  182.6670  171.9550  136.8810 C   0  0  0  0  0  1  0  0  0  0  0  0
  183.2950  173.1720  136.3990 N   0  0  0  0  0  2  0  0  0  0  0  0
  180.4870  180.5350  138.2450 C   0  0  0  0  0  2  0  0  0  0  0  0
  179.4670  180.9100  137.1750 C   0  0  0  0  0  2  0  0  0  0  0  0
  180.3520  182.6050  135.5140 C   0  0  0  0  0  2  0  0  0  0  0  0
  179.5440  182.3850  136.7990 C   0  0  2  0  0  3  0  0  0  0  0  0
  180.0500  183.2420  137.9630 C   0  0  0  0  0  2  0  0  0  0  0  0
  179.4070  185.5590  138.3860 N   0  0  0  0  0  1  0  0  0  0  0  0
  179.9610  184.9580  136.1500 N   0  0  0  0  0  2  0  0  0  0  0  0
  180.2530  184.7130  137.5640 C   0  0  2  0  0  3  0  0  0  0  0  0
  180.7930  184.0640  135.3470 C   0  0  0  0  0  2  0  0  0  0  0  0
  1 10  1  0  0  0  0
  2 12  1  0  0  0  0
  2 15  1  0  0  0  0
  3  5  1  0  0  0  0
  4  1  2  0  0  0  0
  5  7  1  0  0  0  0
  6 29  1  0  0  0  0
  6  4  1  0  0  0  0
  7 10  1  0  0  0  0
  8  5  2  0  0  0  0
  9 14  1  0  0  0  0
 10 19  1  1  0  0  0
 11  9  2  0  0  0  0
 11  8  1  0  0  0  0
 12  6  1  0  0  0  0
 13  8  1  6  0  0  0
 13  4  1  0  0  0  0
 14 16  1  0  0  0  0
 14  3  2  0  0  0  0
 15 24  1  6  0  0  0
 15 20  1  0  0  0  0
 15 13  1  0  0  0  0
 17 16  1  0  0  0  0
 19 18  3  0  0  0  0
 20 21  1  0  0  0  0
 21 23  2  0  0  0  0
 23 22  2  0  0  0  0
 25 26  1  0  0  0  0
 25 24  1  0  0  0  0
 26 28  1  0  0  0  0
 28 27  1  0  0  0  0
 30 29  1  0  0  0  0
 31 32  1  0  0  0  0
 32 30  1  1  0  0  0
 32 33  1  0  0  0  0
 35 36  1  0  0  0  0
 36 33  1  0  0  0  0
 36 34  1  1  0  0  0
 37 31  1  0  0  0  0
 37 35  1  0  0  0  0
M  END
>  <MODEL>
8

>  <REMARK>
 VINA RESULT:      -5.2      3.122      7.887
  Name = 
  11 active torsions:
  status: ('A' for Active; 'I' for Inactive)
    1  A    between atoms: O_1  and  C_5
    2  A    between atoms: O_1  and  C_36
    3  A    between atoms: C_3  and  C_32
    4  A    between atoms: C_6  and  C_31
    5  A    between atoms: N_14  and  C_37
    6  A    between atoms: C_17  and  C_26
    7  A    between atoms: C_17  and  C_33
    8  A    between atoms: C_24  and  C_28
    9  A    between atoms: C_26  and  N_34
   10  A    between atoms: C_31  and  C_37
   11  A    between atoms: C_33  and  C_36
                            x       y       z     vdW  Elec       q    Type
                         _______ _______ _______ _____ _____    ______ ____

>  <TORSDO>
F 11

$$$$
=
 OpenBabel10262422563D

 37 40  0  0  1  0  0  0  0  0999 V2000
  189.4290  177.6440  137.4480 C   0  0  0  0  0  3  0  0  0  0  0  0
  192.1920  174.4620  137.5930 C   0  0  0  0  0  2  0  0  0  0  0  0
  186.5940  174.4550  136.6260 C   0  0  0  0  0  3  0  0  0  0  0  0
  190.2580  176.6030  137.5500 C   0  0  0  0  0  0  0  0  0  0  0  0
  187.7110  175.2990  136.5910 C   0  0  0  0  0  0  0  0  0  0  0  0
  191.2750  176.5860  138.5810 N   0  0  0  0  0  0  0  0  0  0  0  0
  187.4190  176.6070  136.5780 C   0  0  0  0  0  2  0  0  0  0  0  0
  189.0290  174.7370  136.4590 C   0  0  0  0  0  0  0  0  0  0  0  0
  187.9820  172.5230  136.2810 C   0  0  0  0  0  3  0  0  0  0  0  0
  188.3980  177.7120  136.3880 C   0  0  1  0  0  3  0  0  0  0  0  0
  189.1080  173.3430  136.2750 C   0  0  0  0  0  3  0  0  0  0  0  0
  192.3930  175.6310  138.5690 C   0  0  0  0  0  2  0  0  0  0  0  0
  190.1940  175.4530  136.6040 C   0  0  2  0  0  3  0  0  0  0  0  0
  186.7250  173.0760  136.4900 C   0  0  0  0  0  0  0  0  0  0  0  0
  191.5990  174.9390  136.2680 C   0  0  1  0  0  0  0  0  0  0  0  0
  185.5180  172.2060  136.4980 C   0  0  0  0  0  2  0  0  0  0  0  0
  184.6130  172.6310  137.5520 N   0  0  0  0  0  1  0  0  0  0  0  0
  187.1550  180.0150  136.5240 N   0  0  0  0  0  0  0  0  0  0  0  0
  187.7040  178.9980  136.4640 C   0  0  0  0  0  0  0  0  0  0  0  0
  192.3950  176.0250  135.7730 O   0  0  0  0  0  0  0  0  0  0  0  0
  193.6720  175.8350  135.2480 C   0  0  0  0  0  3  0  0  0  0  0  0
  195.4450  177.6310  135.5490 O   0  0  0  0  0  0  0  0  0  0  0  0
  194.5810  176.7560  135.4030 C   0  0  0  0  0  0  0  0  0  0  0  0
  191.6450  173.8030  135.2300 C   0  0  0  0  0  2  0  0  0  0  0  0
  192.4560  172.6080  135.7090 C   0  0  0  0  0  2  0  0  0  0  0  0
  193.3800  172.1530  134.6000 C   0  0  0  0  0  2  0  0  0  0  0  0
  195.0070  172.3790  136.2500 C   0  0  0  0  0  1  0  0  0  0  0  0
  194.5500  171.5160  135.1770 N   0  0  0  0  0  2  0  0  0  0  0  0
  191.3070  177.6030  139.6260 C   0  0  0  0  0  2  0  0  0  0  0  0
  191.3710  176.9450  141.0000 C   0  0  0  0  0  2  0  0  0  0  0  0
  188.9770  177.7690  140.9200 C   0  0  0  0  0  2  0  0  0  0  0  0
  190.0460  177.0440  141.7470 C   0  0  2  0  0  3  0  0  0  0  0  0
  190.2240  177.6550  143.1390 C   0  0  0  0  0  2  0  0  0  0  0  0
  188.8630  177.1170  145.0940 N   0  0  0  0  0  1  0  0  0  0  0  0
  187.7330  177.4980  143.0340 N   0  0  0  0  0  2  0  0  0  0  0  0
  188.8830  177.8780  143.8580 C   0  0  2  0  0  3  0  0  0  0  0  0
  187.8000  178.2450  141.7800 C   0  0  0  0  0  2  0  0  0  0  0  0
  1  4  2  0  0  0  0
  2 12  1  0  0  0  0
  4  6  1  0  0  0  0
  5  3  1  0  0  0  0
  6 29  1  0  0  0  0
  7  5  1  0  0  0  0
  8  5  2  0  0  0  0
  9 14  1  0  0  0  0
 10 19  1  1  0  0  0
 10  7  1  0  0  0  0
 10  1  1  0  0  0  0
 11  9  2  0  0  0  0
 11  8  1  0  0  0  0
 12  6  1  0  0  0  0
 13  8  1  1  0  0  0
 13  4  1  0  0  0  0
 14 16  1  0  0  0  0
 14  3  2  0  0  0  0
 15 24  1  6  0  0  0
 15 13  1  0  0  0  0
 15  2  1  0  0  0  0
 16 17  1  0  0  0  0
 19 18  3  0  0  0  0
 20 15  1  0  0  0  0
 21 23  2  0  0  0  0
 21 20  1  0  0  0  0
 23 22  2  0  0  0  0
 24 25  1  0  0  0  0
 26 28  1  0  0  0  0
 26 25  1  0  0  0  0
 28 27  1  0  0  0  0
 29 30  1  0  0  0  0
 31 32  1  0  0  0  0
 31 37  1  0  0  0  0
 32 30  1  6  0  0  0
 32 33  1  0  0  0  0
 33 36  1  0  0  0  0
 35 36  1  0  0  0  0
 36 34  1  1  0  0  0
 37 35  1  0  0  0  0
M  END
>  <MODEL>
9

>  <REMARK>
 VINA RESULT:      -5.2      6.266     11.425
  Name = 
  11 active torsions:
  status: ('A' for Active; 'I' for Inactive)
    1  A    between atoms: O_1  and  C_5
    2  A    between atoms: O_1  and  C_36
    3  A    between atoms: C_3  and  C_32
    4  A    between atoms: C_6  and  C_31
    5  A    between atoms: N_14  and  C_37
    6  A    between atoms: C_17  and  C_26
    7  A    between atoms: C_17  and  C_33
    8  A    between atoms: C_24  and  C_28
    9  A    between atoms: C_26  and  N_34
   10  A    between atoms: C_31  and  C_37
   11  A    between atoms: C_33  and  C_36
                            x       y       z     vdW  Elec       q    Type
                         _______ _______ _______ _____ _____    ______ ____

>  <TORSDO>
F 11

$$$$
