=
 OpenBabel10262421283D

 32 36  0  0  1  0  0  0  0  0999 V2000
  190.9630  175.8210  137.2920 C   0  0  2  0  0  3  0  0  0  0  0  0
  194.8290  173.3660  137.1470 C   0  0  0  0  0  2  0  0  0  0  0  0
  195.2450  173.6750  135.7010 C   0  0  0  0  0  2  0  0  0  0  0  0
  194.5700  174.6400  137.9510 C   0  0  0  0  0  2  0  0  0  0  0  0
  192.0790  174.9610  137.8860 C   0  0  0  0  0  2  0  0  0  0  0  0
  193.4130  175.4480  137.3530 C   0  0  2  0  0  3  0  0  0  0  0  0
  192.3250  175.5780  135.1660 N   0  0  0  0  0  0  0  0  0  0  0  0
  194.6620  174.9780  135.1300 C   0  0  0  0  0  2  0  0  0  0  0  0
  193.4050  175.3790  135.8440 C   0  0  0  0  0  0  0  0  0  0  0  0
  191.0240  175.8790  135.7500 C   0  0  1  0  0  3  0  0  0  0  0  0
  189.9120  175.0840  135.0310 C   0  0  1  0  0  3  0  0  0  0  0  0
  189.7060  173.6340  135.5090 C   0  0  2  0  0  3  0  0  0  0  0  0
  187.8190  175.7420  136.3190 C   0  0  2  0  0  3  0  0  0  0  0  0
  187.6310  174.2860  136.7450 C   0  0  0  0  0  2  0  0  0  0  0  0
  188.9760  173.5720  136.8480 C   0  0  0  0  0  2  0  0  0  0  0  0
  188.7540  177.1530  134.5940 O   0  0  0  0  0  1  0  0  0  0  0  0
  190.9130  172.9390  135.5780 O   0  0  0  0  0  1  0  0  0  0  0  0
  186.4550  176.3980  136.2110 C   0  0  0  0  0  1  0  0  0  0  0  0
  188.5630  175.8230  134.9790 C   0  0  1  0  0  3  0  0  0  0  0  0
  191.0250  177.1230  137.8050 O   0  0  0  0  0  0  0  0  0  0  0  0
  188.2600  178.6180  140.7600 C   0  0  0  0  0  2  0  0  0  0  0  0
  189.9590  177.2050  138.7090 C   0  0  2  0  0  3  0  0  0  0  0  0
  189.1060  178.9270  137.2760 O   0  0  0  0  0  0  0  0  0  0  0  0
  188.1310  178.8210  139.3510 O   0  0  0  0  0  0  0  0  0  0  0  0
  189.0790  178.3880  138.4140 C   0  0  0  0  0  0  0  0  0  0  0  0
  190.5940  177.2760  140.4100 S   0  0  0  0  0  0  0  0  0  0  0  0
  188.9040  177.2790  141.0750 C   0  0  1  0  0  3  0  0  0  0  0  0
  188.9810  176.9180  143.7200 C   0  0  0  0  0  0  0  0  0  0  0  0
  188.9390  177.0600  142.5210 C   0  0  0  0  0  0  0  0  0  0  0  0
  189.0420  176.7650  145.1750 C   0  0  0  0  0  3  0  0  0  0  0  0
  187.9170  177.5660  145.8010 C   0  0  0  0  0  2  0  0  0  0  0  0
  189.3300  178.1090  145.8070 C   0  0  0  0  0  2  0  0  0  0  0  0
  1 20  1  1  0  0  0
  1  5  1  0  0  0  0
  2  4  1  0  0  0  0
  3  2  1  0  0  0  0
  6  5  1  1  0  0  0
  6  4  1  0  0  0  0
  7  9  2  0  0  0  0
  8  3  1  0  0  0  0
  8  9  1  0  0  0  0
  9  6  1  0  0  0  0
 10  7  1  6  0  0  0
 10  1  1  0  0  0  0
 11 12  1  0  0  0  0
 11 10  1  1  0  0  0
 12 17  1  1  0  0  0
 12 15  1  0  0  0  0
 13 18  1  6  0  0  0
 13 14  1  0  0  0  0
 14 15  1  0  0  0  0
 19 16  1  1  0  0  0
 19 11  1  0  0  0  0
 19 13  1  0  0  0  0
 21 27  1  0  0  0  0
 22 20  1  6  0  0  0
 22 26  1  0  0  0  0
 23 25  2  0  0  0  0
 24 21  1  0  0  0  0
 25 22  1  0  0  0  0
 25 24  1  0  0  0  0
 26 27  1  0  0  0  0
 27 29  1  1  0  0  0
 28 30  1  0  0  0  0
 29 28  3  0  0  0  0
 30 31  1  0  0  0  0
 30 32  1  0  0  0  0
 31 32  1  0  0  0  0
M  END
>  <MODEL>
1

>  <REMARK>
 VINA RESULT:      -7.1      0.000      0.000
  Name = 
  5 active torsions:
  status: ('A' for Active; 'I' for Inactive)
    1  A    between atoms: C_1  and  C_10
    2  A    between atoms: C_3  and  O_28
    3  A    between atoms: C_6  and  C_31
    4  A    between atoms: C_8  and  O_28
    5  A    between atoms: C_19  and  C_24
                            x       y       z     vdW  Elec       q    Type
                         _______ _______ _______ _____ _____    ______ ____

>  <TORSDO>
F 5

$$$$
=
 OpenBabel10262421283D

 32 36  0  0  1  0  0  0  0  0999 V2000
  188.3240  177.9730  139.8970 C   0  0  2  0  0  3  0  0  0  0  0  0
  183.9000  177.8120  141.0810 C   0  0  0  0  0  2  0  0  0  0  0  0
  184.0090  178.4630  142.4690 C   0  0  0  0  0  2  0  0  0  0  0  0
  184.5390  178.6780  139.9950 C   0  0  0  0  0  2  0  0  0  0  0  0
  186.8350  177.7190  139.6560 C   0  0  0  0  0  2  0  0  0  0  0  0
  186.0380  178.8670  140.2450 C   0  0  2  0  0  3  0  0  0  0  0  0
  187.5150  178.7050  142.1870 N   0  0  0  0  0  0  0  0  0  0  0  0
  185.2430  179.3600  142.6620 C   0  0  0  0  0  2  0  0  0  0  0  0
  186.3480  178.9900  141.7180 C   0  0  0  0  0  0  0  0  0  0  0  0
  188.6410  178.2420  141.3840 C   0  0  1  0  0  3  0  0  0  0  0  0
  189.3820  177.0930  142.1030 C   0  0  1  0  0  3  0  0  0  0  0  0
  190.9030  177.2740  142.2680 C   0  0  2  0  0  3  0  0  0  0  0  0
  189.1060  177.6890  144.5610 C   0  0  2  0  0  3  0  0  0  0  0  0
  190.6220  177.8250  144.6910 C   0  0  0  0  0  2  0  0  0  0  0  0
  191.2430  178.2720  143.3710 C   0  0  0  0  0  2  0  0  0  0  0  0
  187.3590  176.5820  143.3100 O   0  0  0  0  0  1  0  0  0  0  0  0
  191.5100  177.6450  141.0690 O   0  0  0  0  0  1  0  0  0  0  0  0
  188.5420  177.2230  145.8900 C   0  0  0  0  0  1  0  0  0  0  0  0
  188.7450  176.6970  143.4460 C   0  0  1  0  0  3  0  0  0  0  0  0
  188.7640  179.0580  139.1280 O   0  0  0  0  0  0  0  0  0  0  0  0
  189.2630  176.6410  135.5890 C   0  0  0  0  0  2  0  0  0  0  0  0
  189.3130  178.4830  137.9750 C   0  0  2  0  0  3  0  0  0  0  0  0
  187.5120  179.5430  136.8000 O   0  0  0  0  0  0  0  0  0  0  0  0
  188.6190  177.9170  135.6170 O   0  0  0  0  0  0  0  0  0  0  0  0
  188.4030  178.6520  136.7910 C   0  0  0  0  0  0  0  0  0  0  0  0
  189.6740  176.7270  138.2720 S   0  0  0  0  0  0  0  0  0  0  0  0
  190.3850  176.5600  136.6090 C   0  0  1  0  0  3  0  0  0  0  0  0
  191.6970  174.2430  136.3940 C   0  0  0  0  0  0  0  0  0  0  0  0
  191.0840  175.2800  136.4940 C   0  0  0  0  0  0  0  0  0  0  0  0
  192.4570  172.9980  136.2680 C   0  0  0  0  0  3  0  0  0  0  0  0
  193.8660  173.2290  136.7800 C   0  0  0  0  0  2  0  0  0  0  0  0
  193.5950  173.2050  135.2920 C   0  0  0  0  0  2  0  0  0  0  0  0
  1 20  1  6  0  0  0
  1 10  1  0  0  0  0
  2  3  1  0  0  0  0
  3  8  1  0  0  0  0
  4  6  1  0  0  0  0
  4  2  1  0  0  0  0
  5  1  1  0  0  0  0
  6  5  1  1  0  0  0
  6  9  1  0  0  0  0
  9  7  2  0  0  0  0
  9  8  1  0  0  0  0
 10  7  1  1  0  0  0
 11 10  1  1  0  0  0
 11 12  1  0  0  0  0
 11 19  1  0  0  0  0
 12 17  1  6  0  0  0
 12 15  1  0  0  0  0
 13 14  1  0  0  0  0
 13 18  1  1  0  0  0
 15 14  1  0  0  0  0
 19 16  1  6  0  0  0
 19 13  1  0  0  0  0
 21 24  1  0  0  0  0
 21 27  1  0  0  0  0
 22 26  1  0  0  0  0
 22 20  1  1  0  0  0
 24 25  1  0  0  0  0
 25 23  2  0  0  0  0
 25 22  1  0  0  0  0
 27 29  1  1  0  0  0
 27 26  1  0  0  0  0
 28 29  3  0  0  0  0
 30 28  1  0  0  0  0
 30 31  1  0  0  0  0
 32 30  1  0  0  0  0
 32 31  1  0  0  0  0
M  END
>  <MODEL>
2

>  <REMARK>
 VINA RESULT:      -7.0      2.779      8.355
  Name = 
  5 active torsions:
  status: ('A' for Active; 'I' for Inactive)
    1  A    between atoms: C_1  and  C_10
    2  A    between atoms: C_3  and  O_28
    3  A    between atoms: C_6  and  C_31
    4  A    between atoms: C_8  and  O_28
    5  A    between atoms: C_19  and  C_24
                            x       y       z     vdW  Elec       q    Type
                         _______ _______ _______ _____ _____    ______ ____

>  <TORSDO>
F 5

$$$$
=
 OpenBabel10262421283D

 32 36  0  0  1  0  0  0  0  0999 V2000
  190.7430  176.8080  139.0910 C   0  0  2  0  0  3  0  0  0  0  0  0
  186.9160  178.5290  137.2510 C   0  0  0  0  0  2  0  0  0  0  0  0
  186.6160  177.4040  136.2480 C   0  0  0  0  0  2  0  0  0  0  0  0
  187.1020  177.9920  138.6700 C   0  0  0  0  0  2  0  0  0  0  0  0
  189.5880  177.8040  138.9790 C   0  0  0  0  0  2  0  0  0  0  0  0
  188.2980  177.0380  138.7500 C   0  0  2  0  0  3  0  0  0  0  0  0
  189.5580  175.6830  137.1510 N   0  0  0  0  0  0  0  0  0  0  0  0
  187.2350  176.0430  136.6060 C   0  0  0  0  0  2  0  0  0  0  0  0
  188.4280  176.1980  137.5020 C   0  0  0  0  0  0  0  0  0  0  0  0
  190.8070  175.8440  137.8860 C   0  0  1  0  0  3  0  0  0  0  0  0
  191.9780  176.1040  136.9140 C   0  0  1  0  0  3  0  0  0  0  0  0
  193.3820  176.1370  137.5460 C   0  0  2  0  0  3  0  0  0  0  0  0
  192.5010  173.7810  136.0180 C   0  0  2  0  0  3  0  0  0  0  0  0
  193.8970  173.8660  136.6320 C   0  0  0  0  0  2  0  0  0  0  0  0
  193.8880  174.7380  137.8850 C   0  0  0  0  0  2  0  0  0  0  0  0
  190.6850  175.1110  135.1370 O   0  0  0  0  0  1  0  0  0  0  0  0
  193.4200  176.9560  138.6730 O   0  0  0  0  0  1  0  0  0  0  0  0
  192.5690  172.9240  134.7680 C   0  0  0  0  0  1  0  0  0  0  0  0
  191.9700  175.1820  135.6820 C   0  0  1  0  0  3  0  0  0  0  0  0
  190.6320  176.0630  140.2730 O   0  0  0  0  0  0  0  0  0  0  0  0
  190.4250  178.0650  144.0890 C   0  0  0  0  0  2  0  0  0  0  0  0
  190.3440  177.0060  141.2670 C   0  0  2  0  0  3  0  0  0  0  0  0
  192.7180  177.3090  141.4200 O   0  0  0  0  0  0  0  0  0  0  0  0
  191.5140  178.1790  143.1710 O   0  0  0  0  0  0  0  0  0  0  0  0
  191.5940  177.4630  141.9680 C   0  0  0  0  0  0  0  0  0  0  0  0
  189.1530  176.3130  142.4500 S   0  0  0  0  0  0  0  0  0  0  0  0
  189.1020  177.8800  143.3660 C   0  0  1  0  0  3  0  0  0  0  0  0
  187.0950  177.8030  145.1270 C   0  0  0  0  0  0  0  0  0  0  0  0
  187.9970  177.8600  144.3250 C   0  0  0  0  0  0  0  0  0  0  0  0
  186.0050  177.7140  146.1010 C   0  0  0  0  0  3  0  0  0  0  0  0
  184.9260  178.7110  145.7230 C   0  0  0  0  0  2  0  0  0  0  0  0
  185.8920  179.0260  146.8450 C   0  0  0  0  0  2  0  0  0  0  0  0
  1 20  1  1  0  0  0
  2  4  1  0  0  0  0
  3  8  1  0  0  0  0
  3  2  1  0  0  0  0
  5  1  1  0  0  0  0
  6  4  1  6  0  0  0
  6  5  1  0  0  0  0
  7  9  2  0  0  0  0
  8  9  1  0  0  0  0
  9  6  1  0  0  0  0
 10  7  1  6  0  0  0
 10  1  1  0  0  0  0
 11 12  1  0  0  0  0
 11 10  1  1  0  0  0
 12 15  1  0  0  0  0
 12 17  1  1  0  0  0
 13 18  1  6  0  0  0
 13 14  1  0  0  0  0
 14 15  1  0  0  0  0
 19 16  1  1  0  0  0
 19 13  1  0  0  0  0
 19 11  1  0  0  0  0
 22 20  1  6  0  0  0
 22 25  1  0  0  0  0
 22 26  1  0  0  0  0
 23 25  2  0  0  0  0
 24 21  1  0  0  0  0
 25 24  1  0  0  0  0
 26 27  1  0  0  0  0
 27 21  1  0  0  0  0
 27 29  1  1  0  0  0
 28 30  1  0  0  0  0
 29 28  3  0  0  0  0
 30 32  1  0  0  0  0
 31 30  1  0  0  0  0
 31 32  1  0  0  0  0
M  END
>  <MODEL>
3

>  <REMARK>
 VINA RESULT:      -6.9      2.189      4.987
  Name = 
  5 active torsions:
  status: ('A' for Active; 'I' for Inactive)
    1  A    between atoms: C_1  and  C_10
    2  A    between atoms: C_3  and  O_28
    3  A    between atoms: C_6  and  C_31
    4  A    between atoms: C_8  and  O_28
    5  A    between atoms: C_19  and  C_24
                            x       y       z     vdW  Elec       q    Type
                         _______ _______ _______ _____ _____    ______ ____

>  <TORSDO>
F 5

$$$$
=
 OpenBabel10262421283D

 32 36  0  0  1  0  0  0  0  0999 V2000
  187.9310  178.2300  140.8180 C   0  0  2  0  0  3  0  0  0  0  0  0
  190.4440  178.4340  144.6440 C   0  0  0  0  0  2  0  0  0  0  0  0
  189.4040  177.8820  145.6330 C   0  0  0  0  0  2  0  0  0  0  0  0
  190.6460  177.5000  143.4510 C   0  0  0  0  0  2  0  0  0  0  0  0
  189.2130  178.4540  141.6210 C   0  0  0  0  0  2  0  0  0  0  0  0
  189.3540  177.3420  142.6440 C   0  0  2  0  0  3  0  0  0  0  0  0
  186.9700  177.6520  143.0920 N   0  0  0  0  0  0  0  0  0  0  0  0
  188.3100  177.0110  144.9930 C   0  0  0  0  0  2  0  0  0  0  0  0
  188.1360  177.3250  143.5370 C   0  0  0  0  0  0  0  0  0  0  0  0
  186.6910  178.0680  141.7230 C   0  0  1  0  0  3  0  0  0  0  0  0
  185.7210  179.2700  141.7100 C   0  0  1  0  0  3  0  0  0  0  0  0
  184.7230  179.3150  140.5380 C   0  0  2  0  0  3  0  0  0  0  0  0
  183.8260  178.4890  143.2160 C   0  0  2  0  0  3  0  0  0  0  0  0
  182.8600  178.5790  142.0350 C   0  0  0  0  0  2  0  0  0  0  0  0
  183.5850  178.3150  140.7180 C   0  0  0  0  0  2  0  0  0  0  0  0
  185.8820  179.3900  144.1130 O   0  0  0  0  0  1  0  0  0  0  0  0
  185.3580  179.1160  139.3120 O   0  0  0  0  0  1  0  0  0  0  0  0
  183.0620  178.7790  144.4940 C   0  0  0  0  0  1  0  0  0  0  0  0
  184.9850  179.4810  143.0440 C   0  0  1  0  0  3  0  0  0  0  0  0
  188.0590  177.0980  140.0020 O   0  0  0  0  0  0  0  0  0  0  0  0
  190.7950  177.0080  136.6680 C   0  0  0  0  0  2  0  0  0  0  0  0
  189.1440  177.3790  139.1630 C   0  0  2  0  0  3  0  0  0  0  0  0
  187.5040  178.1360  137.5870 O   0  0  0  0  0  0  0  0  0  0  0  0
  189.5990  177.7880  136.7150 O   0  0  0  0  0  0  0  0  0  0  0  0
  188.6870  177.7470  137.7790 C   0  0  0  0  0  0  0  0  0  0  0  0
  190.2740  175.9570  139.1170 S   0  0  0  0  0  0  0  0  0  0  0  0
  191.4230  176.8650  138.0440 C   0  0  1  0  0  3  0  0  0  0  0  0
  193.7350  175.5430  137.8300 C   0  0  0  0  0  0  0  0  0  0  0  0
  192.6920  176.1420  137.9500 C   0  0  0  0  0  0  0  0  0  0  0  0
  194.9940  174.8140  137.6650 C   0  0  0  0  0  3  0  0  0  0  0  0
  194.8080  173.3940  138.1650 C   0  0  0  0  0  2  0  0  0  0  0  0
  195.5200  174.4140  139.0260 C   0  0  0  0  0  2  0  0  0  0  0  0
  1 20  1  1  0  0  0
  1  5  1  0  0  0  0
  1 10  1  0  0  0  0
  2  3  1  0  0  0  0
  4  2  1  0  0  0  0
  6  5  1  6  0  0  0
  6  4  1  0  0  0  0
  6  9  1  0  0  0  0
  7  9  2  0  0  0  0
  8  3  1  0  0  0  0
  9  8  1  0  0  0  0
 10  7  1  1  0  0  0
 11 10  1  1  0  0  0
 11 19  1  0  0  0  0
 12 17  1  6  0  0  0
 12 15  1  0  0  0  0
 12 11  1  0  0  0  0
 13 18  1  1  0  0  0
 14 13  1  0  0  0  0
 15 14  1  0  0  0  0
 19 13  1  0  0  0  0
 19 16  1  1  0  0  0
 21 24  1  0  0  0  0
 21 27  1  0  0  0  0
 22 20  1  1  0  0  0
 23 25  2  0  0  0  0
 24 25  1  0  0  0  0
 25 22  1  0  0  0  0
 26 22  1  0  0  0  0
 27 29  1  6  0  0  0
 27 26  1  0  0  0  0
 28 29  3  0  0  0  0
 30 28  1  0  0  0  0
 30 31  1  0  0  0  0
 30 32  1  0  0  0  0
 31 32  1  0  0  0  0
M  END
>  <MODEL>
4

>  <REMARK>
 VINA RESULT:      -6.6      3.108      7.947
  Name = 
  5 active torsions:
  status: ('A' for Active; 'I' for Inactive)
    1  A    between atoms: C_1  and  C_10
    2  A    between atoms: C_3  and  O_28
    3  A    between atoms: C_6  and  C_31
    4  A    between atoms: C_8  and  O_28
    5  A    between atoms: C_19  and  C_24
                            x       y       z     vdW  Elec       q    Type
                         _______ _______ _______ _____ _____    ______ ____

>  <TORSDO>
F 5

$$$$
=
 OpenBabel10262421283D

 32 36  0  0  1  0  0  0  0  0999 V2000
  186.5260  177.3790  137.7660 C   0  0  2  0  0  3  0  0  0  0  0  0
  190.5940  175.8780  136.2880 C   0  0  0  0  0  2  0  0  0  0  0  0
  190.4990  176.3500  134.8290 C   0  0  0  0  0  2  0  0  0  0  0  0
  190.3280  177.0150  137.2730 C   0  0  0  0  0  2  0  0  0  0  0  0
  187.9170  176.7640  137.9290 C   0  0  0  0  0  2  0  0  0  0  0  0
  188.9090  177.5690  137.1120 C   0  0  2  0  0  3  0  0  0  0  0  0
  187.2280  177.5650  135.3360 N   0  0  0  0  0  0  0  0  0  0  0  0
  189.5230  177.5150  134.5940 C   0  0  0  0  0  2  0  0  0  0  0  0
  188.4750  177.5810  135.6650 C   0  0  0  0  0  0  0  0  0  0  0  0
  186.1200  177.5310  136.2840 C   0  0  1  0  0  3  0  0  0  0  0  0
  185.0320  176.5430  135.8090 C   0  0  1  0  0  3  0  0  0  0  0  0
  185.4600  175.0660  135.7150 C   0  0  2  0  0  3  0  0  0  0  0  0
  183.7930  175.9850  137.9590 C   0  0  2  0  0  3  0  0  0  0  0  0
  184.2100  174.5220  137.8120 C   0  0  0  0  0  2  0  0  0  0  0  0
  185.5500  174.4090  137.0890 C   0  0  0  0  0  2  0  0  0  0  0  0
  183.3460  178.0090  136.7160 O   0  0  0  0  0  1  0  0  0  0  0  0
  186.6630  174.9210  135.0250 O   0  0  0  0  0  1  0  0  0  0  0  0
  182.4500  176.0410  138.6630 C   0  0  0  0  0  1  0  0  0  0  0  0
  183.7100  176.6650  136.5850 C   0  0  1  0  0  3  0  0  0  0  0  0
  186.4700  178.6310  138.3910 O   0  0  0  0  0  0  0  0  0  0  0  0
  185.2660  179.1480  142.5010 C   0  0  0  0  0  2  0  0  0  0  0  0
  185.9890  178.3700  139.6800 C   0  0  2  0  0  3  0  0  0  0  0  0
  184.2210  179.8960  139.1400 O   0  0  0  0  0  0  0  0  0  0  0  0
  184.4280  179.4020  141.3720 O   0  0  0  0  0  0  0  0  0  0  0  0
  184.8620  179.2960  140.0430 C   0  0  0  0  0  0  0  0  0  0  0  0
  187.3460  178.4950  140.8820 S   0  0  0  0  0  0  0  0  0  0  0  0
  186.2340  178.0090  142.2330 C   0  0  1  0  0  3  0  0  0  0  0  0
  187.6890  177.4900  144.4130 C   0  0  0  0  0  0  0  0  0  0  0  0
  187.0140  177.7120  143.4360 C   0  0  0  0  0  0  0  0  0  0  0  0
  188.5230  177.2300  145.5880 C   0  0  0  0  0  3  0  0  0  0  0  0
  189.6990  178.1890  145.5770 C   0  0  0  0  0  2  0  0  0  0  0  0
  189.8860  176.7530  145.1360 C   0  0  0  0  0  2  0  0  0  0  0  0
  1  5  1  0  0  0  0
  1 20  1  6  0  0  0
  2  4  1  0  0  0  0
  3  2  1  0  0  0  0
  6  4  1  6  0  0  0
  6  5  1  0  0  0  0
  7  9  2  0  0  0  0
  8  3  1  0  0  0  0
  8  9  1  0  0  0  0
  9  6  1  0  0  0  0
 10  7  1  6  0  0  0
 10  1  1  0  0  0  0
 11 10  1  1  0  0  0
 11 19  1  0  0  0  0
 12 17  1  1  0  0  0
 12 11  1  0  0  0  0
 12 15  1  0  0  0  0
 13 18  1  6  0  0  0
 14 13  1  0  0  0  0
 15 14  1  0  0  0  0
 19 16  1  1  0  0  0
 19 13  1  0  0  0  0
 22 20  1  6  0  0  0
 22 25  1  0  0  0  0
 22 26  1  0  0  0  0
 23 25  2  0  0  0  0
 24 21  1  0  0  0  0
 25 24  1  0  0  0  0
 26 27  1  0  0  0  0
 27 21  1  0  0  0  0
 27 29  1  1  0  0  0
 28 30  1  0  0  0  0
 29 28  3  0  0  0  0
 31 30  1  0  0  0  0
 32 31  1  0  0  0  0
 32 30  1  0  0  0  0
M  END
>  <MODEL>
5

>  <REMARK>
 VINA RESULT:      -6.5      2.976      4.403
  Name = 
  5 active torsions:
  status: ('A' for Active; 'I' for Inactive)
    1  A    between atoms: C_1  and  C_10
    2  A    between atoms: C_3  and  O_28
    3  A    between atoms: C_6  and  C_31
    4  A    between atoms: C_8  and  O_28
    5  A    between atoms: C_19  and  C_24
                            x       y       z     vdW  Elec       q    Type
                         _______ _______ _______ _____ _____    ______ ____

>  <TORSDO>
F 5

$$$$
=
 OpenBabel10262421283D

 32 36  0  0  1  0  0  0  0  0999 V2000
  188.9550  177.6630  143.1190 C   0  0  2  0  0  3  0  0  0  0  0  0
  189.1140  178.7740  138.6770 C   0  0  0  0  0  2  0  0  0  0  0  0
  190.0150  177.6310  138.1850 C   0  0  0  0  0  2  0  0  0  0  0  0
  187.9080  178.2530  139.4590 C   0  0  0  0  0  2  0  0  0  0  0  0
  188.5570  178.4620  141.8770 C   0  0  0  0  0  2  0  0  0  0  0  0
  188.3480  177.5020  140.7200 C   0  0  2  0  0  3  0  0  0  0  0  0
  190.3960  176.3910  141.4640 N   0  0  0  0  0  0  0  0  0  0  0  0
  190.0140  176.3820  139.0810 C   0  0  0  0  0  2  0  0  0  0  0  0
  189.6150  176.7130  140.4890 C   0  0  0  0  0  0  0  0  0  0  0  0
  190.1660  176.7400  142.8610 C   0  0  1  0  0  3  0  0  0  0  0  0
  191.4810  177.2000  143.5270 C   0  0  1  0  0  3  0  0  0  0  0  0
  191.4570  178.6040  144.1610 C   0  0  2  0  0  3  0  0  0  0  0  0
  191.3100  176.2090  145.8640 C   0  0  2  0  0  3  0  0  0  0  0  0
  191.3240  177.6170  146.4550 C   0  0  0  0  0  2  0  0  0  0  0  0
  190.7020  178.6200  145.4870 C   0  0  0  0  0  2  0  0  0  0  0  0
  192.0300  174.8940  143.9690 O   0  0  0  0  0  1  0  0  0  0  0  0
  190.9310  179.5540  143.2870 O   0  0  0  0  0  1  0  0  0  0  0  0
  191.9560  175.2580  146.8550 C   0  0  0  0  0  1  0  0  0  0  0  0
  192.0550  176.1770  144.5220 C   0  0  1  0  0  3  0  0  0  0  0  0
  187.8750  176.8920  143.5700 O   0  0  0  0  0  0  0  0  0  0  0  0
  184.6710  178.6140  145.8890 C   0  0  0  0  0  2  0  0  0  0  0  0
  186.9790  177.8160  144.1220 C   0  0  2  0  0  3  0  0  0  0  0  0
  187.9960  177.2800  146.2260 O   0  0  0  0  0  0  0  0  0  0  0  0
  186.0000  178.4030  146.3720 O   0  0  0  0  0  0  0  0  0  0  0  0
  187.0060  177.7750  145.6250 C   0  0  0  0  0  0  0  0  0  0  0  0
  185.3040  177.5030  143.4940 S   0  0  0  0  0  0  0  0  0  0  0  0
  184.6600  178.9360  144.4050 C   0  0  1  0  0  3  0  0  0  0  0  0
  182.1670  179.4450  143.5930 C   0  0  0  0  0  0  0  0  0  0  0  0
  183.2990  179.2370  143.9610 C   0  0  0  0  0  0  0  0  0  0  0  0
  180.7930  179.6760  143.1450 C   0  0  0  0  0  3  0  0  0  0  0  0
  179.8880  178.6340  143.7760 C   0  0  0  0  0  2  0  0  0  0  0  0
  180.3250  178.4870  142.3340 C   0  0  0  0  0  2  0  0  0  0  0  0
  1 20  1  6  0  0  0
  2  4  1  0  0  0  0
  3  2  1  0  0  0  0
  3  8  1  0  0  0  0
  5  1  1  0  0  0  0
  6  4  1  6  0  0  0
  6  5  1  0  0  0  0
  8  9  1  0  0  0  0
  9  6  1  0  0  0  0
  9  7  2  0  0  0  0
 10  7  1  6  0  0  0
 10  1  1  0  0  0  0
 11 10  1  1  0  0  0
 11 12  1  0  0  0  0
 11 19  1  0  0  0  0
 12 17  1  6  0  0  0
 12 15  1  0  0  0  0
 13 14  1  0  0  0  0
 13 18  1  1  0  0  0
 15 14  1  0  0  0  0
 19 16  1  6  0  0  0
 19 13  1  0  0  0  0
 21 24  1  0  0  0  0
 22 20  1  6  0  0  0
 22 25  1  0  0  0  0
 25 23  2  0  0  0  0
 25 24  1  0  0  0  0
 26 22  1  0  0  0  0
 26 27  1  0  0  0  0
 27 29  1  6  0  0  0
 27 21  1  0  0  0  0
 28 29  3  0  0  0  0
 30 28  1  0  0  0  0
 30 31  1  0  0  0  0
 32 30  1  0  0  0  0
 32 31  1  0  0  0  0
M  END
>  <MODEL>
6

>  <REMARK>
 VINA RESULT:      -6.5      4.551      8.201
  Name = 
  5 active torsions:
  status: ('A' for Active; 'I' for Inactive)
    1  A    between atoms: C_1  and  C_10
    2  A    between atoms: C_3  and  O_28
    3  A    between atoms: C_6  and  C_31
    4  A    between atoms: C_8  and  O_28
    5  A    between atoms: C_19  and  C_24
                            x       y       z     vdW  Elec       q    Type
                         _______ _______ _______ _____ _____    ______ ____

>  <TORSDO>
F 5

$$$$
=
 OpenBabel10262421283D

 32 36  0  0  1  0  0  0  0  0999 V2000
  189.9340  176.4640  138.5150 C   0  0  2  0  0  3  0  0  0  0  0  0
  191.8110  172.9860  136.1960 C   0  0  0  0  0  2  0  0  0  0  0  0
  191.2370  173.2980  134.8060 C   0  0  0  0  0  2  0  0  0  0  0  0
  192.5300  174.1920  136.8010 C   0  0  0  0  0  2  0  0  0  0  0  0
  190.8510  175.2520  138.3400 C   0  0  0  0  0  2  0  0  0  0  0  0
  191.5670  175.3660  137.0070 C   0  0  2  0  0  3  0  0  0  0  0  0
  189.4100  176.0360  136.0710 N   0  0  0  0  0  0  0  0  0  0  0  0
  190.8340  174.7670  134.5940 C   0  0  0  0  0  2  0  0  0  0  0  0
  190.5480  175.4550  135.8960 C   0  0  0  0  0  0  0  0  0  0  0  0
  188.9770  176.6550  137.3180 C   0  0  1  0  0  3  0  0  0  0  0  0
  187.5010  176.3070  137.6110 C   0  0  1  0  0  3  0  0  0  0  0  0
  186.4800  177.4260  137.3330 C   0  0  2  0  0  3  0  0  0  0  0  0
  186.7480  175.1690  135.4650 C   0  0  2  0  0  3  0  0  0  0  0  0
  185.7240  176.2800  135.2420 C   0  0  0  0  0  2  0  0  0  0  0  0
  186.2120  177.5970  135.8400 C   0  0  0  0  0  2  0  0  0  0  0  0
  187.9890  173.9880  137.1700 O   0  0  0  0  0  1  0  0  0  0  0  0
  186.8750  178.6370  137.9000 O   0  0  0  0  0  1  0  0  0  0  0  0
  186.2070  173.8810  134.8720 C   0  0  0  0  0  1  0  0  0  0  0  0
  187.0390  174.9910  136.9620 C   0  0  1  0  0  3  0  0  0  0  0  0
  190.6930  177.6280  138.6900 O   0  0  0  0  0  0  0  0  0  0  0  0
  190.7750  177.1450  142.9760 C   0  0  0  0  0  2  0  0  0  0  0  0
  190.6240  177.9010  140.0610 C   0  0  2  0  0  3  0  0  0  0  0  0
  192.9510  177.3270  140.1150 O   0  0  0  0  0  0  0  0  0  0  0  0
  191.9240  177.4070  142.1660 O   0  0  0  0  0  0  0  0  0  0  0  0
  191.8850  177.4880  140.7670 C   0  0  0  0  0  0  0  0  0  0  0  0
  189.1750  177.0750  140.7830 S   0  0  0  0  0  0  0  0  0  0  0  0
  189.5300  177.8040  142.4080 C   0  0  1  0  0  3  0  0  0  0  0  0
  187.4630  177.4630  144.0650 C   0  0  0  0  0  0  0  0  0  0  0  0
  188.3930  177.5970  143.3050 C   0  0  0  0  0  0  0  0  0  0  0  0
  186.3440  177.3150  144.9970 C   0  0  0  0  0  3  0  0  0  0  0  0
  186.0780  178.6530  145.6610 C   0  0  0  0  0  2  0  0  0  0  0  0
  186.8310  177.5720  146.4070 C   0  0  0  0  0  2  0  0  0  0  0  0
  1 20  1  6  0  0  0
  2  4  1  0  0  0  0
  3  2  1  0  0  0  0
  5  1  1  0  0  0  0
  6  4  1  6  0  0  0
  6  5  1  0  0  0  0
  8  3  1  0  0  0  0
  8  9  1  0  0  0  0
  9  7  2  0  0  0  0
  9  6  1  0  0  0  0
 10  7  1  6  0  0  0
 10  1  1  0  0  0  0
 11 10  1  6  0  0  0
 12 11  1  0  0  0  0
 12 17  1  6  0  0  0
 13 18  1  1  0  0  0
 13 19  1  0  0  0  0
 14 13  1  0  0  0  0
 14 15  1  0  0  0  0
 15 12  1  0  0  0  0
 19 16  1  6  0  0  0
 19 11  1  0  0  0  0
 22 20  1  6  0  0  0
 22 25  1  0  0  0  0
 22 26  1  0  0  0  0
 23 25  2  0  0  0  0
 24 21  1  0  0  0  0
 25 24  1  0  0  0  0
 26 27  1  0  0  0  0
 27 21  1  0  0  0  0
 27 29  1  1  0  0  0
 28 30  1  0  0  0  0
 29 28  3  0  0  0  0
 30 31  1  0  0  0  0
 30 32  1  0  0  0  0
 31 32  1  0  0  0  0
M  END
>  <MODEL>
7

>  <REMARK>
 VINA RESULT:      -6.4      2.032      3.333
  Name = 
  5 active torsions:
  status: ('A' for Active; 'I' for Inactive)
    1  A    between atoms: C_1  and  C_10
    2  A    between atoms: C_3  and  O_28
    3  A    between atoms: C_6  and  C_31
    4  A    between atoms: C_8  and  O_28
    5  A    between atoms: C_19  and  C_24
                            x       y       z     vdW  Elec       q    Type
                         _______ _______ _______ _____ _____    ______ ____

>  <TORSDO>
F 5

$$$$
=
 OpenBabel10262421283D

 32 36  0  0  1  0  0  0  0  0999 V2000
  189.8110  176.3030  138.9690 C   0  0  2  0  0  3  0  0  0  0  0  0
  193.8700  175.1550  137.1790 C   0  0  0  0  0  2  0  0  0  0  0  0
  193.5310  175.3540  135.6940 C   0  0  0  0  0  2  0  0  0  0  0  0
  193.5400  176.3960  138.0090 C   0  0  0  0  0  2  0  0  0  0  0  0
  191.2920  175.9260  139.0270 C   0  0  0  0  0  2  0  0  0  0  0  0
  192.0420  176.7110  137.9660 C   0  0  2  0  0  3  0  0  0  0  0  0
  190.1890  176.1690  136.4650 N   0  0  0  0  0  0  0  0  0  0  0  0
  192.3610  176.3140  135.4250 C   0  0  0  0  0  2  0  0  0  0  0  0
  191.4470  176.4150  136.6100 C   0  0  0  0  0  0  0  0  0  0  0  0
  189.2180  176.1420  137.5530 C   0  0  1  0  0  3  0  0  0  0  0  0
  188.2550  174.9460  137.3890 C   0  0  1  0  0  3  0  0  0  0  0  0
  186.9380  175.2400  136.6470 C   0  0  2  0  0  3  0  0  0  0  0  0
  189.1170  173.8060  135.2840 C   0  0  2  0  0  3  0  0  0  0  0  0
  187.7830  174.0880  134.5940 C   0  0  0  0  0  2  0  0  0  0  0  0
  187.1470  175.3630  135.1400 C   0  0  0  0  0  2  0  0  0  0  0  0
  190.1480  173.4520  137.4410 O   0  0  0  0  0  1  0  0  0  0  0  0
  186.3080  176.3790  137.1470 O   0  0  0  0  0  1  0  0  0  0  0  0
  189.6950  172.5210  134.7220 C   0  0  0  0  0  1  0  0  0  0  0  0
  188.9270  173.6920  136.8030 C   0  0  1  0  0  3  0  0  0  0  0  0
  189.6270  177.6240  139.3990 O   0  0  0  0  0  0  0  0  0  0  0  0
  186.9360  178.6970  142.5950 C   0  0  0  0  0  2  0  0  0  0  0  0
  188.7230  177.5340  140.4650 C   0  0  2  0  0  3  0  0  0  0  0  0
  187.1650  178.6250  139.0050 O   0  0  0  0  0  0  0  0  0  0  0  0
  186.5630  178.5960  141.2190 O   0  0  0  0  0  0  0  0  0  0  0  0
  187.4700  178.3160  140.1880 C   0  0  0  0  0  0  0  0  0  0  0  0
  189.5160  178.0990  141.9980 S   0  0  0  0  0  0  0  0  0  0  0  0
  188.0240  177.7000  142.9540 C   0  0  1  0  0  3  0  0  0  0  0  0
  188.6020  177.8270  145.5580 C   0  0  0  0  0  0  0  0  0  0  0  0
  188.3190  177.7640  144.3860 C   0  0  0  0  0  0  0  0  0  0  0  0
  188.9650  177.9060  146.9750 C   0  0  0  0  0  3  0  0  0  0  0  0
  189.8900  176.7520  147.3100 C   0  0  0  0  0  2  0  0  0  0  0  0
  188.4280  176.6890  147.6960 C   0  0  0  0  0  2  0  0  0  0  0  0
  1  5  1  0  0  0  0
  1 20  1  6  0  0  0
  2  4  1  0  0  0  0
  3  2  1  0  0  0  0
  6  4  1  6  0  0  0
  6  5  1  0  0  0  0
  7  9  2  0  0  0  0
  8  3  1  0  0  0  0
  8  9  1  0  0  0  0
  9  6  1  0  0  0  0
 10  7  1  6  0  0  0
 10  1  1  0  0  0  0
 11 10  1  6  0  0  0
 12 17  1  1  0  0  0
 12 11  1  0  0  0  0
 13 18  1  6  0  0  0
 13 19  1  0  0  0  0
 14 15  1  0  0  0  0
 14 13  1  0  0  0  0
 15 12  1  0  0  0  0
 19 11  1  0  0  0  0
 19 16  1  1  0  0  0
 21 27  1  0  0  0  0
 22 20  1  6  0  0  0
 22 26  1  0  0  0  0
 23 25  2  0  0  0  0
 24 21  1  0  0  0  0
 25 22  1  0  0  0  0
 25 24  1  0  0  0  0
 26 27  1  0  0  0  0
 27 29  1  1  0  0  0
 28 30  1  0  0  0  0
 29 28  3  0  0  0  0
 30 31  1  0  0  0  0
 30 32  1  0  0  0  0
 31 32  1  0  0  0  0
M  END
>  <MODEL>
8

>  <REMARK>
 VINA RESULT:      -6.2      1.624      2.823
  Name = 
  5 active torsions:
  status: ('A' for Active; 'I' for Inactive)
    1  A    between atoms: C_1  and  C_10
    2  A    between atoms: C_3  and  O_28
    3  A    between atoms: C_6  and  C_31
    4  A    between atoms: C_8  and  O_28
    5  A    between atoms: C_19  and  C_24
                            x       y       z     vdW  Elec       q    Type
                         _______ _______ _______ _____ _____    ______ ____

>  <TORSDO>
F 5

$$$$
=
 OpenBabel10262421283D

 32 36  0  0  1  0  0  0  0  0999 V2000
  185.4740  177.0010  137.4200 C   0  0  2  0  0  3  0  0  0  0  0  0
  189.9910  176.8100  136.6730 C   0  0  0  0  0  2  0  0  0  0  0  0
  189.9850  177.0530  135.1560 C   0  0  0  0  0  2  0  0  0  0  0  0
  189.2210  177.8940  137.4280 C   0  0  0  0  0  2  0  0  0  0  0  0
  186.9440  176.9170  137.8370 C   0  0  0  0  0  2  0  0  0  0  0  0
  187.7450  177.9130  137.0190 C   0  0  2  0  0  3  0  0  0  0  0  0
  186.4610  177.1380  135.0870 N   0  0  0  0  0  0  0  0  0  0  0  0
  188.7390  177.7850  134.6290 C   0  0  0  0  0  2  0  0  0  0  0  0
  187.5670  177.6130  135.5490 C   0  0  0  0  0  0  0  0  0  0  0  0
  185.2850  176.8380  135.8960 C   0  0  1  0  0  3  0  0  0  0  0  0
  184.6600  175.4930  135.4650 C   0  0  1  0  0  3  0  0  0  0  0  0
  185.3830  174.2260  135.9610 C   0  0  2  0  0  3  0  0  0  0  0  0
  182.8800  175.0980  137.2390 C   0  0  2  0  0  3  0  0  0  0  0  0
  183.6090  173.8300  137.6790 C   0  0  0  0  0  2  0  0  0  0  0  0
  185.1110  173.9550  137.4380 C   0  0  0  0  0  2  0  0  0  0  0  0
  182.5030  176.5630  135.3530 O   0  0  0  0  0  1  0  0  0  0  0  0
  186.7550  174.2890  135.7210 O   0  0  0  0  0  1  0  0  0  0  0  0
  181.3930  174.9150  137.4790 C   0  0  0  0  0  1  0  0  0  0  0  0
  183.1530  175.3940  135.7570 C   0  0  1  0  0  3  0  0  0  0  0  0
  184.9220  178.2230  137.8260 O   0  0  0  0  0  0  0  0  0  0  0  0
  182.7050  178.6960  141.4960 C   0  0  0  0  0  2  0  0  0  0  0  0
  184.3200  177.9540  139.0610 C   0  0  2  0  0  3  0  0  0  0  0  0
  182.2420  178.3760  137.9420 O   0  0  0  0  0  0  0  0  0  0  0  0
  182.1240  178.3610  140.2340 O   0  0  0  0  0  0  0  0  0  0  0  0
  182.8530  178.2840  139.0390 C   0  0  0  0  0  0  0  0  0  0  0  0
  185.1730  178.8710  140.3770 S   0  0  0  0  0  0  0  0  0  0  0  0
  184.1030  178.1200  141.6370 C   0  0  1  0  0  3  0  0  0  0  0  0
  185.0520  178.6660  144.0740 C   0  0  0  0  0  0  0  0  0  0  0  0
  184.6350  178.3990  142.9710 C   0  0  0  0  0  0  0  0  0  0  0  0
  185.5490  179.0080  145.4080 C   0  0  0  0  0  3  0  0  0  0  0  0
  186.1210  177.7600  146.0540 C   0  0  0  0  0  2  0  0  0  0  0  0
  184.7460  178.2550  146.4470 C   0  0  0  0  0  2  0  0  0  0  0  0
  1 20  1  6  0  0  0
  1  5  1  0  0  0  0
  2  4  1  0  0  0  0
  3  2  1  0  0  0  0
  6  4  1  1  0  0  0
  6  5  1  0  0  0  0
  7  9  2  0  0  0  0
  8  3  1  0  0  0  0
  8  9  1  0  0  0  0
  9  6  1  0  0  0  0
 10  7  1  6  0  0  0
 10  1  1  0  0  0  0
 11 19  1  0  0  0  0
 11 10  1  1  0  0  0
 11 12  1  0  0  0  0
 12 17  1  1  0  0  0
 12 15  1  0  0  0  0
 13 18  1  6  0  0  0
 13 14  1  0  0  0  0
 15 14  1  0  0  0  0
 19 16  1  1  0  0  0
 19 13  1  0  0  0  0
 21 27  1  0  0  0  0
 22 20  1  6  0  0  0
 22 26  1  0  0  0  0
 23 25  2  0  0  0  0
 24 21  1  0  0  0  0
 25 22  1  0  0  0  0
 25 24  1  0  0  0  0
 26 27  1  0  0  0  0
 27 29  1  1  0  0  0
 28 30  1  0  0  0  0
 29 28  3  0  0  0  0
 30 31  1  0  0  0  0
 30 32  1  0  0  0  0
 31 32  1  0  0  0  0
M  END
>  <MODEL>
9

>  <REMARK>
 VINA RESULT:      -6.2      3.821      5.464
  Name = 
  5 active torsions:
  status: ('A' for Active; 'I' for Inactive)
    1  A    between atoms: C_1  and  C_10
    2  A    between atoms: C_3  and  O_28
    3  A    between atoms: C_6  and  C_31
    4  A    between atoms: C_8  and  O_28
    5  A    between atoms: C_19  and  C_24
                            x       y       z     vdW  Elec       q    Type
                         _______ _______ _______ _____ _____    ______ ____

>  <TORSDO>
F 5

$$$$
