=
 OpenBabel10262422573D

 37 43  0  0  1  0  0  0  0  0999 V2000
  187.6420  178.2710  139.9900 C   0  0  0  0  0  0  0  0  0  0  0  0
  184.5870  175.4900  137.2710 C   0  0  0  0  0  2  0  0  0  0  0  0
  184.1460  177.6050  138.6620 C   0  0  1  0  0  3  0  0  0  0  0  0
  188.6750  178.2310  136.3610 C   0  0  0  0  0  1  0  0  0  0  0  0
  183.5770  176.5420  137.7060 C   0  0  0  0  0  2  0  0  0  0  0  0
  188.4040  178.3380  138.8240 C   0  0  0  0  0  3  0  0  0  0  0  0
  187.8170  178.1150  137.5770 C   0  0  0  0  0  0  0  0  0  0  0  0
  185.4080  175.9810  136.0720 C   0  0  1  0  0  3  0  0  0  0  0  0
  185.6590  177.7770  138.6640 C   0  0  0  0  0  0  0  0  0  0  0  0
  185.8430  177.4530  136.1540 C   0  0  0  0  0  2  0  0  0  0  0  0
  186.4460  177.8030  137.4870 C   0  0  0  0  0  0  0  0  0  0  0  0
  186.2720  178.0010  139.9010 C   0  0  0  0  0  3  0  0  0  0  0  0
  179.8110  180.0620  141.1170 C   0  0  1  0  0  3  0  0  0  0  0  0
  183.3640  178.9240  138.4810 C   0  0  1  0  0  0  0  0  0  0  0  0
  180.9240  179.9410  138.8060 C   0  0  1  0  0  3  0  0  0  0  0  0
  182.0620  179.0040  139.2860 C   0  0  1  0  0  0  0  0  0  0  0  0
  181.6790  177.8240  139.9600 O   0  0  0  0  0  0  0  0  0  0  0  0
  179.7640  178.6730  140.9060 O   0  0  0  0  0  0  0  0  0  0  0  0
  183.3300  179.6450  139.8270 C   0  0  2  0  0  3  0  0  0  0  0  0
  181.0580  178.1990  141.1660 C   0  0  0  0  0  2  0  0  0  0  0  0
  184.1750  180.1940  138.7000 C   0  0  0  0  0  2  0  0  0  0  0  0
  180.4380  180.8400  139.9440 C   0  0  1  0  0  3  0  0  0  0  0  0
  178.9310  180.7480  140.0870 C   0  0  0  0  0  2  0  0  0  0  0  0
  181.2450  180.7760  137.5700 C   0  0  0  0  0  2  0  0  0  0  0  0
  181.3680  182.1180  137.9280 O   0  0  0  0  0  1  0  0  0  0  0  0
  187.2420  174.3790  136.9200 C   0  0  2  0  0  3  0  0  0  0  0  0
  186.1110  174.0710  134.6230 C   0  0  0  0  0  3  0  0  0  0  0  0
  186.3090  172.7490  134.6800 C   0  0  0  0  0  3  0  0  0  0  0  0
  188.3760  171.9090  135.4830 O   0  0  0  0  0  1  0  0  0  0  0  0
  186.9160  172.8920  137.1150 C   0  0  2  0  0  3  0  0  0  0  0  0
  187.0330  172.0890  135.8170 C   0  0  1  0  0  3  0  0  0  0  0  0
  186.5550  175.0310  135.7000 C   0  0  1  0  0  3  0  0  0  0  0  0
  185.6400  172.7400  137.6590 O   0  0  0  0  0  1  0  0  0  0  0  0
  188.7450  174.5780  136.8370 C   0  0  0  0  0  1  0  0  0  0  0  0
  188.2670  178.4910  141.2190 O   0  0  0  0  0  0  0  0  0  0  0  0
  188.2600  176.7780  142.8940 C   0  0  0  0  0  1  0  0  0  0  0  0
  189.0780  177.5110  141.8540 C   0  0  0  0  0  2  0  0  0  0  0  0
  1 35  1  0  0  0  0
  2  5  1  0  0  0  0
  3  5  1  6  0  0  0
  3  9  1  0  0  0  0
  4  7  1  0  0  0  0
  6  1  2  0  0  0  0
  7  6  1  0  0  0  0
  8 10  1  1  0  0  0
  8  2  1  0  0  0  0
  9 12  2  0  0  0  0
 10 11  1  0  0  0  0
 11  7  2  0  0  0  0
 11  9  1  0  0  0  0
 12  1  1  0  0  0  0
 13 23  1  6  0  0  0
 14  3  1  0  0  0  0
 14 21  1  6  0  0  0
 14 16  1  0  0  0  0
 14 19  1  0  0  0  0
 15 24  1  6  0  0  0
 15 16  1  0  0  0  0
 15 22  1  0  0  0  0
 16 19  1  0  0  0  0
 16 17  1  1  0  0  0
 17 20  1  0  0  0  0
 18 13  1  0  0  0  0
 18 20  1  0  0  0  0
 19 21  1  6  0  0  0
 22 23  1  6  0  0  0
 22 13  1  0  0  0  0
 24 25  1  0  0  0  0
 26 34  1  6  0  0  0
 26 30  1  0  0  0  0
 27 28  2  0  0  0  0
 28 31  1  0  0  0  0
 30 33  1  6  0  0  0
 31 29  1  6  0  0  0
 31 30  1  0  0  0  0
 32 27  1  6  0  0  0
 32  8  1  0  0  0  0
 32 26  1  0  0  0  0
 35 37  1  0  0  0  0
 37 36  1  0  0  0  0
M  END
>  <MODEL>
1

>  <REMARK>
 VINA RESULT:      -6.4      0.000      0.000
  Name = 
  5 active torsions:
  status: ('A' for Active; 'I' for Inactive)
    1  A    between atoms: C_1  and  O_5
    2  A    between atoms: C_4  and  C_10
    3  A    between atoms: O_5  and  C_23
    4  A    between atoms: C_9  and  C_16
    5  A    between atoms: C_27  and  C_31
                            x       y       z     vdW  Elec       q    Type
                         _______ _______ _______ _____ _____    ______ ____

>  <TORSDO>
F 5

$$$$
=
 OpenBabel10262422573D

 37 43  0  0  1  0  0  0  0  0999 V2000
  187.5250  178.2770  138.3370 C   0  0  0  0  0  0  0  0  0  0  0  0
  183.7100  175.2330  137.5340 C   0  0  0  0  0  2  0  0  0  0  0  0
  183.8120  177.5410  138.6600 C   0  0  1  0  0  3  0  0  0  0  0  0
  186.9910  177.6760  134.6510 C   0  0  0  0  0  1  0  0  0  0  0  0
  182.9340  176.3700  138.1850 C   0  0  0  0  0  2  0  0  0  0  0  0
  187.7440  178.1490  136.9660 C   0  0  0  0  0  3  0  0  0  0  0  0
  186.7060  177.7670  136.1130 C   0  0  0  0  0  0  0  0  0  0  0  0
  183.9570  175.5180  136.0480 C   0  0  1  0  0  3  0  0  0  0  0  0
  185.1890  177.6610  138.0210 C   0  0  0  0  0  0  0  0  0  0  0  0
  184.3450  176.9720  135.7310 C   0  0  0  0  0  2  0  0  0  0  0  0
  185.4280  177.4900  136.6360 C   0  0  0  0  0  0  0  0  0  0  0  0
  186.2460  178.0420  138.8550 C   0  0  0  0  0  3  0  0  0  0  0  0
  180.0110  179.9690  141.9010 C   0  0  1  0  0  3  0  0  0  0  0  0
  182.9860  178.8450  138.6220 C   0  0  1  0  0  0  0  0  0  0  0  0
  180.6430  179.8300  139.4160 C   0  0  1  0  0  3  0  0  0  0  0  0
  181.8700  178.9170  139.6710 C   0  0  1  0  0  0  0  0  0  0  0  0
  181.6500  177.7430  140.4220 O   0  0  0  0  0  0  0  0  0  0  0  0
  179.9480  178.5770  141.7210 O   0  0  0  0  0  0  0  0  0  0  0  0
  183.2090  179.5860  139.9390 C   0  0  2  0  0  3  0  0  0  0  0  0
  181.2760  178.1270  141.7230 C   0  0  0  0  0  2  0  0  0  0  0  0
  183.8020  180.1310  138.6600 C   0  0  0  0  0  2  0  0  0  0  0  0
  180.3770  180.7390  140.6170 C   0  0  1  0  0  3  0  0  0  0  0  0
  178.9310  180.6260  141.0600 C   0  0  0  0  0  2  0  0  0  0  0  0
  180.6950  180.6500  138.1310 C   0  0  0  0  0  2  0  0  0  0  0  0
  180.8040  182.0050  138.4420 O   0  0  0  0  0  1  0  0  0  0  0  0
  186.0710  174.0580  136.2690 C   0  0  2  0  0  3  0  0  0  0  0  0
  184.0680  173.3530  134.8060 C   0  0  0  0  0  3  0  0  0  0  0  0
  184.3510  172.0600  135.0050 C   0  0  0  0  0  3  0  0  0  0  0  0
  186.6080  171.3350  134.9480 O   0  0  0  0  0  1  0  0  0  0  0  0
  185.9540  172.6430  136.8510 C   0  0  2  0  0  3  0  0  0  0  0  0
  185.5400  171.6080  135.8030 C   0  0  1  0  0  3  0  0  0  0  0  0
  184.8800  174.4870  135.3840 C   0  0  1  0  0  3  0  0  0  0  0  0
  185.0590  172.6280  137.9210 O   0  0  0  0  0  1  0  0  0  0  0  0
  187.3700  174.2000  135.4970 C   0  0  0  0  0  1  0  0  0  0  0  0
  188.5900  178.6520  139.1590 O   0  0  0  0  0  0  0  0  0  0  0  0
  190.1620  176.8610  139.4160 C   0  0  0  0  0  1  0  0  0  0  0  0
  189.1720  177.7710  140.1110 C   0  0  0  0  0  2  0  0  0  0  0  0
  1 12  1  0  0  0  0
  1 35  1  0  0  0  0
  2  5  1  0  0  0  0
  3  5  1  6  0  0  0
  4  7  1  0  0  0  0
  6  1  2  0  0  0  0
  7 11  2  0  0  0  0
  7  6  1  0  0  0  0
  8 10  1  1  0  0  0
  8  2  1  0  0  0  0
  9  3  1  0  0  0  0
  9 12  2  0  0  0  0
 10 11  1  0  0  0  0
 11  9  1  0  0  0  0
 13 23  1  6  0  0  0
 14 21  1  6  0  0  0
 14  3  1  0  0  0  0
 14 16  1  0  0  0  0
 14 19  1  0  0  0  0
 15 24  1  6  0  0  0
 15 16  1  0  0  0  0
 15 22  1  0  0  0  0
 16 19  1  0  0  0  0
 16 17  1  1  0  0  0
 17 20  1  0  0  0  0
 18 20  1  0  0  0  0
 18 13  1  0  0  0  0
 19 21  1  6  0  0  0
 22 23  1  6  0  0  0
 22 13  1  0  0  0  0
 24 25  1  0  0  0  0
 26 34  1  6  0  0  0
 26 30  1  0  0  0  0
 27 28  2  0  0  0  0
 28 31  1  0  0  0  0
 30 33  1  1  0  0  0
 31 29  1  6  0  0  0
 31 30  1  0  0  0  0
 32 27  1  1  0  0  0
 32  8  1  0  0  0  0
 32 26  1  0  0  0  0
 35 37  1  0  0  0  0
 36 37  1  0  0  0  0
M  END
>  <MODEL>
2

>  <REMARK>
 VINA RESULT:      -6.4      1.229      1.480
  Name = 
  5 active torsions:
  status: ('A' for Active; 'I' for Inactive)
    1  A    between atoms: C_1  and  O_5
    2  A    between atoms: C_4  and  C_10
    3  A    between atoms: O_5  and  C_23
    4  A    between atoms: C_9  and  C_16
    5  A    between atoms: C_27  and  C_31
                            x       y       z     vdW  Elec       q    Type
                         _______ _______ _______ _____ _____    ______ ____

>  <TORSDO>
F 5

$$$$
=
 OpenBabel10262422573D

 37 43  0  0  1  0  0  0  0  0999 V2000
  182.6620  178.5560  141.3840 C   0  0  0  0  0  0  0  0  0  0  0  0
  181.1420  179.5190  136.7770 C   0  0  0  0  0  2  0  0  0  0  0  0
  182.3020  177.4510  137.7670 C   0  0  1  0  0  3  0  0  0  0  0  0
  178.9310  179.0990  141.2470 C   0  0  0  0  0  1  0  0  0  0  0  0
  181.6600  178.1090  136.5330 C   0  0  0  0  0  2  0  0  0  0  0  0
  181.3510  178.8680  141.7400 C   0  0  0  0  0  3  0  0  0  0  0  0
  180.3190  178.7820  140.8020 C   0  0  0  0  0  0  0  0  0  0  0  0
  179.7280  179.4890  137.3710 C   0  0  1  0  0  3  0  0  0  0  0  0
  181.9230  178.0330  139.1220 C   0  0  0  0  0  0  0  0  0  0  0  0
  179.5080  178.4100  138.4440 C   0  0  0  0  0  2  0  0  0  0  0  0
  180.6000  178.3930  139.4780 C   0  0  0  0  0  0  0  0  0  0  0  0
  182.9380  178.1300  140.0800 C   0  0  0  0  0  3  0  0  0  0  0  0
  185.6800  173.0930  137.1000 C   0  0  1  0  0  3  0  0  0  0  0  0
  182.1370  175.9190  137.6720 C   0  0  1  0  0  0  0  0  0  0  0  0
  183.2690  173.7850  136.5510 C   0  0  1  0  0  3  0  0  0  0  0  0
  183.4010  175.1730  137.2290 C   0  0  1  0  0  0  0  0  0  0  0  0
  184.4880  175.9800  136.8290 O   0  0  0  0  0  0  0  0  0  0  0  0
  185.9340  174.2580  136.3560 O   0  0  0  0  0  0  0  0  0  0  0  0
  183.0600  175.2770  138.7070 C   0  0  2  0  0  3  0  0  0  0  0  0
  185.6730  175.3310  137.2200 C   0  0  0  0  0  2  0  0  0  0  0  0
  181.5620  175.2500  138.9140 C   0  0  0  0  0  2  0  0  0  0  0  0
  184.1810  172.7570  137.2230 C   0  0  1  0  0  3  0  0  0  0  0  0
  185.0430  172.0560  136.1910 C   0  0  0  0  0  2  0  0  0  0  0  0
  181.8470  173.2430  136.4460 C   0  0  0  0  0  2  0  0  0  0  0  0
  181.4450  173.2290  135.1110 O   0  0  0  0  0  1  0  0  0  0  0  0
  180.1030  181.5540  138.8700 C   0  0  2  0  0  3  0  0  0  0  0  0
  178.9310  181.7200  136.5780 C   0  0  0  0  0  3  0  0  0  0  0  0
  179.3630  182.9780  136.4250 C   0  0  0  0  0  3  0  0  0  0  0  0
  179.3120  184.4640  138.2720 O   0  0  0  0  0  1  0  0  0  0  0  0
  180.9580  182.7180  138.3510 C   0  0  2  0  0  3  0  0  0  0  0  0
  180.1610  183.6910  137.4790 C   0  0  1  0  0  3  0  0  0  0  0  0
  179.2250  180.8760  137.7950 C   0  0  1  0  0  3  0  0  0  0  0  0
  182.0620  182.2370  137.6470 O   0  0  0  0  0  1  0  0  0  0  0  0
  179.2400  182.0150  140.0300 C   0  0  0  0  0  1  0  0  0  0  0  0
  183.6670  178.6630  142.3480 O   0  0  0  0  0  0  0  0  0  0  0  0
  184.6890  178.9680  144.4940 C   0  0  0  0  0  1  0  0  0  0  0  0
  183.3890  178.8310  143.7320 C   0  0  0  0  0  2  0  0  0  0  0  0
  1  6  1  0  0  0  0
  1 35  1  0  0  0  0
  3  5  1  6  0  0  0
  3  9  1  0  0  0  0
  5  2  1  0  0  0  0
  7  4  1  0  0  0  0
  7  6  2  0  0  0  0
  8  2  1  1  0  0  0
  8 32  1  0  0  0  0
  8 10  1  0  0  0  0
  9 11  2  0  0  0  0
  9 12  1  0  0  0  0
 10 11  1  0  0  0  0
 11  7  1  0  0  0  0
 12  1  2  0  0  0  0
 13 23  1  6  0  0  0
 13 22  1  0  0  0  0
 14  3  1  0  0  0  0
 14 19  1  0  0  0  0
 14 21  1  6  0  0  0
 15 24  1  1  0  0  0
 15 22  1  0  0  0  0
 15 16  1  0  0  0  0
 16 17  1  6  0  0  0
 16 14  1  0  0  0  0
 16 19  1  0  0  0  0
 17 20  1  0  0  0  0
 18 13  1  0  0  0  0
 18 20  1  0  0  0  0
 19 21  1  6  0  0  0
 22 23  1  6  0  0  0
 25 24  1  0  0  0  0
 26 34  1  1  0  0  0
 28 27  2  0  0  0  0
 28 31  1  0  0  0  0
 30 33  1  6  0  0  0
 30 26  1  0  0  0  0
 31 29  1  1  0  0  0
 31 30  1  0  0  0  0
 32 27  1  6  0  0  0
 32 26  1  0  0  0  0
 35 37  1  0  0  0  0
 37 36  1  0  0  0  0
M  END
>  <MODEL>
3

>  <REMARK>
 VINA RESULT:      -5.9      2.779      8.346
  Name = 
  5 active torsions:
  status: ('A' for Active; 'I' for Inactive)
    1  A    between atoms: C_1  and  O_5
    2  A    between atoms: C_4  and  C_10
    3  A    between atoms: O_5  and  C_23
    4  A    between atoms: C_9  and  C_16
    5  A    between atoms: C_27  and  C_31
                            x       y       z     vdW  Elec       q    Type
                         _______ _______ _______ _____ _____    ______ ____

>  <TORSDO>
F 5

$$$$
=
 OpenBabel10262422573D

 37 43  0  0  1  0  0  0  0  0999 V2000
  187.8170  175.0510  137.2510 C   0  0  0  0  0  0  0  0  0  0  0  0
  191.3050  176.4630  140.4610 C   0  0  0  0  0  2  0  0  0  0  0  0
  191.4900  175.6000  138.0470 C   0  0  1  0  0  3  0  0  0  0  0  0
  187.3980  178.6680  138.2410 C   0  0  0  0  0  1  0  0  0  0  0  0
  192.2200  176.1540  139.2840 C   0  0  0  0  0  2  0  0  0  0  0  0
  187.2580  176.3010  137.5130 C   0  0  0  0  0  3  0  0  0  0  0  0
  188.0440  177.3430  138.0080 C   0  0  0  0  0  0  0  0  0  0  0  0
  190.6890  177.8610  140.3240 C   0  0  1  0  0  3  0  0  0  0  0  0
  189.9960  175.8800  137.9570 C   0  0  0  0  0  0  0  0  0  0  0  0
  190.2320  178.2230  138.9010 C   0  0  0  0  0  2  0  0  0  0  0  0
  189.4140  177.1340  138.2630 C   0  0  0  0  0  0  0  0  0  0  0  0
  189.1850  174.8510  137.4650 C   0  0  0  0  0  3  0  0  0  0  0  0
  195.7310  173.4600  135.1680 C   0  0  1  0  0  3  0  0  0  0  0  0
  192.2790  175.9830  136.7760 C   0  0  1  0  0  0  0  0  0  0  0  0
  194.7050  175.7530  135.7030 C   0  0  1  0  0  3  0  0  0  0  0  0
  193.5500  175.1570  136.5470 C   0  0  1  0  0  0  0  0  0  0  0  0
  193.9070  174.2710  137.5870 O   0  0  0  0  0  0  0  0  0  0  0  0
  195.7860  173.4200  136.5720 O   0  0  0  0  0  0  0  0  0  0  0  0
  192.2630  174.7850  135.8280 C   0  0  2  0  0  3  0  0  0  0  0  0
  194.4820  173.1280  137.0000 C   0  0  0  0  0  2  0  0  0  0  0  0
  191.4610  176.0220  135.4920 C   0  0  0  0  0  2  0  0  0  0  0  0
  195.1500  174.7750  134.6140 C   0  0  1  0  0  3  0  0  0  0  0  0
  196.6500  174.5620  134.6690 C   0  0  0  0  0  2  0  0  0  0  0  0
  194.4320  177.1280  135.1010 C   0  0  0  0  0  2  0  0  0  0  0  0
  195.4310  178.0190  135.4890 O   0  0  0  0  0  1  0  0  0  0  0  0
  188.6370  176.9950  141.6230 C   0  0  2  0  0  3  0  0  0  0  0  0
  190.2800  178.7030  142.6400 C   0  0  0  0  0  3  0  0  0  0  0  0
  190.0180  178.2520  143.8730 C   0  0  0  0  0  3  0  0  0  0  0  0
  187.7840  177.7410  144.4810 O   0  0  0  0  0  1  0  0  0  0  0  0
  188.8430  176.2350  142.9410 C   0  0  2  0  0  3  0  0  0  0  0  0
  189.0120  177.1710  144.1400 C   0  0  1  0  0  3  0  0  0  0  0  0
  189.6280  178.1570  141.3930 C   0  0  1  0  0  3  0  0  0  0  0  0
  189.9400  175.3780  142.8430 O   0  0  0  0  0  1  0  0  0  0  0  0
  187.2100  177.5030  141.5310 C   0  0  0  0  0  1  0  0  0  0  0  0
  186.9950  174.0320  136.7650 O   0  0  0  0  0  0  0  0  0  0  0  0
  184.9840  173.0240  137.5930 C   0  0  0  0  0  1  0  0  0  0  0  0
  186.4970  172.9880  137.5920 C   0  0  0  0  0  2  0  0  0  0  0  0
  1 12  2  0  0  0  0
  1  6  1  0  0  0  0
  3  5  1  1  0  0  0
  5  2  1  0  0  0  0
  6  7  2  0  0  0  0
  7  4  1  0  0  0  0
  7 11  1  0  0  0  0
  8 10  1  6  0  0  0
  8  2  1  0  0  0  0
  8 32  1  0  0  0  0
  9  3  1  0  0  0  0
  9 11  2  0  0  0  0
 11 10  1  0  0  0  0
 12  9  1  0  0  0  0
 13 23  1  6  0  0  0
 13 18  1  0  0  0  0
 14 21  1  6  0  0  0
 14  3  1  0  0  0  0
 15 24  1  6  0  0  0
 15 16  1  0  0  0  0
 16 14  1  0  0  0  0
 16 17  1  1  0  0  0
 18 20  1  0  0  0  0
 19 21  1  6  0  0  0
 19 16  1  0  0  0  0
 19 14  1  0  0  0  0
 20 17  1  0  0  0  0
 22 23  1  1  0  0  0
 22 13  1  0  0  0  0
 22 15  1  0  0  0  0
 24 25  1  0  0  0  0
 26 34  1  1  0  0  0
 26 30  1  0  0  0  0
 27 28  2  0  0  0  0
 28 31  1  0  0  0  0
 30 33  1  6  0  0  0
 30 31  1  0  0  0  0
 31 29  1  6  0  0  0
 32 26  1  0  0  0  0
 32 27  1  1  0  0  0
 35  1  1  0  0  0  0
 35 37  1  0  0  0  0
 37 36  1  0  0  0  0
M  END
>  <MODEL>
4

>  <REMARK>
 VINA RESULT:      -5.6      4.491     10.300
  Name = 
  5 active torsions:
  status: ('A' for Active; 'I' for Inactive)
    1  A    between atoms: C_1  and  O_5
    2  A    between atoms: C_4  and  C_10
    3  A    between atoms: O_5  and  C_23
    4  A    between atoms: C_9  and  C_16
    5  A    between atoms: C_27  and  C_31
                            x       y       z     vdW  Elec       q    Type
                         _______ _______ _______ _____ _____    ______ ____

>  <TORSDO>
F 5

$$$$
=
 OpenBabel10262422573D

 37 43  0  0  1  0  0  0  0  0999 V2000
  190.8310  176.8470  140.9310 C   0  0  0  0  0  0  0  0  0  0  0  0
  191.5770  173.7890  137.1160 C   0  0  0  0  0  2  0  0  0  0  0  0
  189.6230  175.3720  137.6460 C   0  0  1  0  0  3  0  0  0  0  0  0
  193.9290  177.7880  138.9930 C   0  0  0  0  0  1  0  0  0  0  0  0
  190.2490  174.3750  136.6550 C   0  0  0  0  0  2  0  0  0  0  0  0
  192.0830  177.3580  140.5940 C   0  0  0  0  0  3  0  0  0  0  0  0
  192.5960  177.1920  139.3060 C   0  0  0  0  0  0  0  0  0  0  0  0
  192.7410  174.7200  136.7580 C   0  0  1  0  0  3  0  0  0  0  0  0
  190.5650  176.0050  138.6610 C   0  0  0  0  0  0  0  0  0  0  0  0
  192.4580  176.2140  136.9860 C   0  0  0  0  0  2  0  0  0  0  0  0
  191.8560  176.4880  138.3360 C   0  0  0  0  0  0  0  0  0  0  0  0
  190.0750  176.1820  139.9590 C   0  0  0  0  0  3  0  0  0  0  0  0
  184.2860  175.7970  136.1640 C   0  0  1  0  0  3  0  0  0  0  0  0
  188.7600  176.3900  136.8680 C   0  0  1  0  0  0  0  0  0  0  0  0
  186.6020  176.5070  135.3120 C   0  0  1  0  0  3  0  0  0  0  0  0
  187.3520  175.8920  136.5220 C   0  0  1  0  0  0  0  0  0  0  0  0
  187.0820  174.5400  136.8230 O   0  0  0  0  0  0  0  0  0  0  0  0
  184.9050  174.5370  136.0890 O   0  0  0  0  0  0  0  0  0  0  0  0
  187.5690  176.7710  137.7440 C   0  0  2  0  0  3  0  0  0  0  0  0
  185.7350  174.4470  137.2160 C   0  0  0  0  0  2  0  0  0  0  0  0
  188.6710  177.7750  137.4940 C   0  0  0  0  0  2  0  0  0  0  0  0
  185.1950  176.9550  135.7100 C   0  0  1  0  0  3  0  0  0  0  0  0
  184.1630  176.3720  134.7640 C   0  0  0  0  0  2  0  0  0  0  0  0
  187.3350  177.6360  134.5950 C   0  0  0  0  0  2  0  0  0  0  0  0
  186.6390  178.8320  134.7640 O   0  0  0  0  0  1  0  0  0  0  0  0
  194.4180  172.7830  137.0520 C   0  0  2  0  0  3  0  0  0  0  0  0
  195.1690  175.2500  137.0070 C   0  0  0  0  0  3  0  0  0  0  0  0
  196.3600  174.9000  136.5070 C   0  0  0  0  0  3  0  0  0  0  0  0
  197.4700  172.9860  137.3610 O   0  0  0  0  0  1  0  0  0  0  0  0
  195.5270  172.5800  136.0100 C   0  0  2  0  0  3  0  0  0  0  0  0
  196.7470  173.4680  136.2690 C   0  0  1  0  0  3  0  0  0  0  0  0
  194.0810  174.2610  137.3490 C   0  0  1  0  0  3  0  0  0  0  0  0
  195.0360  172.8040  134.7240 O   0  0  0  0  0  1  0  0  0  0  0  0
  194.7710  172.0620  138.3400 C   0  0  0  0  0  1  0  0  0  0  0  0
  190.3570  177.0250  142.2320 O   0  0  0  0  0  0  0  0  0  0  0  0
  188.5240  176.7050  143.7430 C   0  0  0  0  0  1  0  0  0  0  0  0
  189.0250  177.4340  142.5150 C   0  0  0  0  0  2  0  0  0  0  0  0
  1 35  1  0  0  0  0
  3  5  1  6  0  0  0
  3  9  1  0  0  0  0
  4  7  1  0  0  0  0
  5  2  1  0  0  0  0
  6  1  1  0  0  0  0
  7  6  2  0  0  0  0
  8 10  1  1  0  0  0
  8  2  1  0  0  0  0
  8 32  1  0  0  0  0
  9 12  1  0  0  0  0
 10 11  1  0  0  0  0
 11  9  2  0  0  0  0
 11  7  1  0  0  0  0
 12  1  2  0  0  0  0
 13 23  1  6  0  0  0
 14 21  1  6  0  0  0
 14  3  1  0  0  0  0
 14 19  1  0  0  0  0
 15 24  1  1  0  0  0
 15 22  1  0  0  0  0
 15 16  1  0  0  0  0
 16 17  1  1  0  0  0
 16 14  1  0  0  0  0
 16 19  1  0  0  0  0
 17 20  1  0  0  0  0
 18 13  1  0  0  0  0
 18 20  1  0  0  0  0
 19 21  1  6  0  0  0
 22 23  1  6  0  0  0
 22 13  1  0  0  0  0
 24 25  1  0  0  0  0
 26 32  1  0  0  0  0
 26 34  1  1  0  0  0
 28 27  2  0  0  0  0
 30 33  1  6  0  0  0
 30 31  1  0  0  0  0
 30 26  1  0  0  0  0
 31 28  1  0  0  0  0
 31 29  1  1  0  0  0
 32 27  1  6  0  0  0
 35 37  1  0  0  0  0
 37 36  1  0  0  0  0
M  END
>  <MODEL>
5

>  <REMARK>
 VINA RESULT:      -5.2      4.312      6.964
  Name = 
  5 active torsions:
  status: ('A' for Active; 'I' for Inactive)
    1  A    between atoms: C_1  and  O_5
    2  A    between atoms: C_4  and  C_10
    3  A    between atoms: O_5  and  C_23
    4  A    between atoms: C_9  and  C_16
    5  A    between atoms: C_27  and  C_31
                            x       y       z     vdW  Elec       q    Type
                         _______ _______ _______ _____ _____    ______ ____

>  <TORSDO>
F 5

$$$$
=
 OpenBabel10262422573D

 37 43  0  0  1  0  0  0  0  0999 V2000
  180.3620  179.5890  141.4840 C   0  0  0  0  0  0  0  0  0  0  0  0
  183.9470  177.8710  138.5410 C   0  0  0  0  0  2  0  0  0  0  0  0
  184.0370  178.8030  140.9340 C   0  0  1  0  0  3  0  0  0  0  0  0
  179.7900  175.9700  140.5790 C   0  0  0  0  0  1  0  0  0  0  0  0
  184.8060  178.1660  139.7620 C   0  0  0  0  0  2  0  0  0  0  0  0
  179.7460  178.3650  141.2250 C   0  0  0  0  0  3  0  0  0  0  0  0
  180.4980  177.2630  140.8120 C   0  0  0  0  0  0  0  0  0  0  0  0
  183.2420  176.5160  138.6810 C   0  0  1  0  0  3  0  0  0  0  0  0
  182.5270  178.6130  140.9390 C   0  0  0  0  0  0  0  0  0  0  0  0
  182.6800  176.2300  140.0840 C   0  0  0  0  0  2  0  0  0  0  0  0
  181.8900  177.3850  140.6360 C   0  0  0  0  0  0  0  0  0  0  0  0
  181.7500  179.7020  141.3490 C   0  0  0  0  0  3  0  0  0  0  0  0
  189.2610  178.4700  142.7940 C   0  0  1  0  0  3  0  0  0  0  0  0
  184.7240  178.4180  142.2630 C   0  0  1  0  0  0  0  0  0  0  0  0
  186.9820  177.3530  143.1890 C   0  0  1  0  0  3  0  0  0  0  0  0
  186.2450  178.2540  142.1640 C   0  0  1  0  0  0  0  0  0  0  0  0
  186.7930  178.3270  140.8650 O   0  0  0  0  0  0  0  0  0  0  0  0
  188.9850  178.0320  141.4870 O   0  0  0  0  0  0  0  0  0  0  0  0
  185.6530  179.5610  142.6650 C   0  0  2  0  0  3  0  0  0  0  0  0
  188.0550  178.9410  140.9640 C   0  0  0  0  0  2  0  0  0  0  0  0
  184.3850  179.3100  143.4500 C   0  0  0  0  0  2  0  0  0  0  0  0
  188.1690  178.0900  143.8130 C   0  0  1  0  0  3  0  0  0  0  0  0
  189.4320  177.2600  143.6960 C   0  0  0  0  0  2  0  0  0  0  0  0
  186.1020  176.7470  144.2770 C   0  0  0  0  0  2  0  0  0  0  0  0
  186.3710  177.3640  145.4980 O   0  0  0  0  0  1  0  0  0  0  0  0
  182.7910  176.5060  136.1420 C   0  0  2  0  0  3  0  0  0  0  0  0
  181.5800  174.8980  137.7540 C   0  0  0  0  0  3  0  0  0  0  0  0
  181.4560  173.9850  136.7840 C   0  0  0  0  0  3  0  0  0  0  0  0
  180.8640  174.6780  134.5940 O   0  0  0  0  0  1  0  0  0  0  0  0
  183.0800  175.2370  135.3290 C   0  0  2  0  0  3  0  0  0  0  0  0
  181.9280  174.2310  135.3800 C   0  0  1  0  0  3  0  0  0  0  0  0
  182.2310  176.2460  137.5580 C   0  0  1  0  0  3  0  0  0  0  0  0
  184.2610  174.6360  135.7660 O   0  0  0  0  0  1  0  0  0  0  0  0
  181.8530  177.4180  135.3720 C   0  0  0  0  0  1  0  0  0  0  0  0
  179.5750  180.6690  141.8870 O   0  0  0  0  0  0  0  0  0  0  0  0
  179.7370  181.4950  139.6420 C   0  0  0  0  0  1  0  0  0  0  0  0
  179.0070  181.5910  140.9650 C   0  0  0  0  0  2  0  0  0  0  0  0
  1 35  1  0  0  0  0
  2  5  1  0  0  0  0
  3  5  1  6  0  0  0
  3  9  1  0  0  0  0
  3 14  1  0  0  0  0
  4  7  1  0  0  0  0
  6  1  2  0  0  0  0
  7  6  1  0  0  0  0
  8  2  1  1  0  0  0
  8 10  1  0  0  0  0
  9 12  2  0  0  0  0
 10 11  1  0  0  0  0
 11  7  2  0  0  0  0
 11  9  1  0  0  0  0
 12  1  1  0  0  0  0
 13 23  1  1  0  0  0
 13 22  1  0  0  0  0
 14 19  1  0  0  0  0
 14 21  1  1  0  0  0
 15 22  1  0  0  0  0
 15 24  1  1  0  0  0
 16 17  1  6  0  0  0
 16 14  1  0  0  0  0
 16 19  1  0  0  0  0
 16 15  1  0  0  0  0
 17 20  1  0  0  0  0
 18 13  1  0  0  0  0
 19 21  1  1  0  0  0
 20 18  1  0  0  0  0
 22 23  1  1  0  0  0
 24 25  1  0  0  0  0
 26 34  1  6  0  0  0
 26 32  1  0  0  0  0
 28 27  2  0  0  0  0
 30 31  1  0  0  0  0
 30 33  1  1  0  0  0
 30 26  1  0  0  0  0
 31 29  1  6  0  0  0
 31 28  1  0  0  0  0
 32 27  1  6  0  0  0
 32  8  1  0  0  0  0
 36 37  1  0  0  0  0
 37 35  1  0  0  0  0
M  END
>  <MODEL>
6

>  <REMARK>
 VINA RESULT:      -4.9      2.979      7.061
  Name = 
  5 active torsions:
  status: ('A' for Active; 'I' for Inactive)
    1  A    between atoms: C_1  and  O_5
    2  A    between atoms: C_4  and  C_10
    3  A    between atoms: O_5  and  C_23
    4  A    between atoms: C_9  and  C_16
    5  A    between atoms: C_27  and  C_31
                            x       y       z     vdW  Elec       q    Type
                         _______ _______ _______ _____ _____    ______ ____

>  <TORSDO>
F 5

$$$$
=
 OpenBabel10262422573D

 37 43  0  0  1  0  0  0  0  0999 V2000
  184.0550  178.1910  142.4260 C   0  0  0  0  0  0  0  0  0  0  0  0
  183.5750  176.8990  137.6760 C   0  0  0  0  0  2  0  0  0  0  0  0
  182.3900  178.7160  139.0530 C   0  0  1  0  0  3  0  0  0  0  0  0
  187.2870  178.6560  140.5370 C   0  0  0  0  0  1  0  0  0  0  0  0
  182.5850  178.0540  137.6770 C   0  0  0  0  0  2  0  0  0  0  0  0
  185.4100  178.3080  142.1200 C   0  0  0  0  0  3  0  0  0  0  0  0
  185.8260  178.5070  140.8020 C   0  0  0  0  0  0  0  0  0  0  0  0
  185.0130  177.4090  137.5220 C   0  0  1  0  0  3  0  0  0  0  0  0
  183.4970  178.4990  140.0750 C   0  0  0  0  0  0  0  0  0  0  0  0
  185.3340  178.6740  138.3340 C   0  0  0  0  0  2  0  0  0  0  0  0
  184.8760  178.5730  139.7630 C   0  0  0  0  0  0  0  0  0  0  0  0
  183.1060  178.2970  141.4030 C   0  0  0  0  0  3  0  0  0  0  0  0
  178.9770  181.5450  135.7060 C   0  0  1  0  0  3  0  0  0  0  0  0
  181.9980  180.1970  138.8560 C   0  0  1  0  0  0  0  0  0  0  0  0
  181.1910  181.8850  136.9610 C   0  0  1  0  0  3  0  0  0  0  0  0
  181.1720  180.4700  137.5930 C   0  0  1  0  0  0  0  0  0  0  0  0
  181.0060  179.3780  136.7140 O   0  0  0  0  0  0  0  0  0  0  0  0
  179.7190  180.4820  135.1630 O   0  0  0  0  0  0  0  0  0  0  0  0
  180.4760  180.3000  138.9350 C   0  0  2  0  0  3  0  0  0  0  0  0
  179.7250  179.4770  136.1410 C   0  0  0  0  0  2  0  0  0  0  0  0
  181.3270  180.8550  140.0540 C   0  0  0  0  0  2  0  0  0  0  0  0
  179.7690  182.3950  136.7170 C   0  0  1  0  0  3  0  0  0  0  0  0
  179.6100  182.8590  135.2820 C   0  0  0  0  0  2  0  0  0  0  0  0
  182.0050  182.9280  137.7200 C   0  0  0  0  0  2  0  0  0  0  0  0
  181.7230  184.1990  137.2240 O   0  0  0  0  0  1  0  0  0  0  0  0
  185.8650  175.1090  136.7250 C   0  0  2  0  0  3  0  0  0  0  0  0
  187.4520  176.8970  137.6940 C   0  0  0  0  0  3  0  0  0  0  0  0
  188.4650  176.4280  136.9550 C   0  0  0  0  0  3  0  0  0  0  0  0
  188.7650  174.0870  136.7330 O   0  0  0  0  0  1  0  0  0  0  0  0
  186.8850  175.0370  135.5810 C   0  0  2  0  0  3  0  0  0  0  0  0
  188.3250  175.2290  136.0620 C   0  0  1  0  0  3  0  0  0  0  0  0
  186.0640  176.3030  137.6860 C   0  0  1  0  0  3  0  0  0  0  0  0
  186.5800  175.9750  134.5950 O   0  0  0  0  0  1  0  0  0  0  0  0
  185.8640  173.8080  137.5080 C   0  0  0  0  0  1  0  0  0  0  0  0
  183.6790  177.9840  143.7550 O   0  0  0  0  0  0  0  0  0  0  0  0
  185.0880  178.8150  145.5060 C   0  0  0  0  0  1  0  0  0  0  0  0
  183.7890  178.9930  144.7510 C   0  0  0  0  0  2  0  0  0  0  0  0
  1 35  1  0  0  0  0
  2  5  1  0  0  0  0
  3  5  1  6  0  0  0
  3  9  1  0  0  0  0
  4  7  1  0  0  0  0
  6  1  1  0  0  0  0
  7  6  2  0  0  0  0
  8  2  1  1  0  0  0
  8 32  1  0  0  0  0
  8 10  1  0  0  0  0
  9 12  1  0  0  0  0
 10 11  1  0  0  0  0
 11  9  2  0  0  0  0
 11  7  1  0  0  0  0
 12  1  2  0  0  0  0
 13 23  1  6  0  0  0
 13 22  1  0  0  0  0
 14 19  1  0  0  0  0
 14  3  1  0  0  0  0
 14 21  1  1  0  0  0
 15 16  1  0  0  0  0
 15 24  1  1  0  0  0
 16 17  1  6  0  0  0
 16 14  1  0  0  0  0
 16 19  1  0  0  0  0
 18 13  1  0  0  0  0
 18 20  1  0  0  0  0
 19 21  1  1  0  0  0
 20 17  1  0  0  0  0
 22 23  1  6  0  0  0
 22 15  1  0  0  0  0
 25 24  1  0  0  0  0
 26 34  1  1  0  0  0
 26 32  1  0  0  0  0
 28 27  2  0  0  0  0
 30 33  1  6  0  0  0
 30 31  1  0  0  0  0
 30 26  1  0  0  0  0
 31 29  1  1  0  0  0
 31 28  1  0  0  0  0
 32 27  1  6  0  0  0
 35 37  1  0  0  0  0
 37 36  1  0  0  0  0
M  END
>  <MODEL>
7

>  <REMARK>
 VINA RESULT:      -4.7      2.322      3.727
  Name = 
  5 active torsions:
  status: ('A' for Active; 'I' for Inactive)
    1  A    between atoms: C_1  and  O_5
    2  A    between atoms: C_4  and  C_10
    3  A    between atoms: O_5  and  C_23
    4  A    between atoms: C_9  and  C_16
    5  A    between atoms: C_27  and  C_31
                            x       y       z     vdW  Elec       q    Type
                         _______ _______ _______ _____ _____    ______ ____

>  <TORSDO>
F 5

$$$$
=
 OpenBabel10262422573D

 37 43  0  0  1  0  0  0  0  0999 V2000
  181.6730  178.9390  138.1100 C   0  0  0  0  0  0  0  0  0  0  0  0
  183.4210  175.0740  135.5650 C   0  0  0  0  0  2  0  0  0  0  0  0
  184.6360  177.0580  136.6570 C   0  0  1  0  0  3  0  0  0  0  0  0
  180.8600  175.6770  139.8230 C   0  0  0  0  0  1  0  0  0  0  0  0
  184.7560  175.7290  135.8900 C   0  0  0  0  0  2  0  0  0  0  0  0
  181.0530  177.9700  138.8980 C   0  0  0  0  0  3  0  0  0  0  0  0
  181.5450  176.6640  138.9380 C   0  0  0  0  0  0  0  0  0  0  0  0
  182.9220  174.2310  136.7450 C   0  0  1  0  0  3  0  0  0  0  0  0
  183.3290  177.2990  137.3990 C   0  0  0  0  0  0  0  0  0  0  0  0
  183.1280  174.8770  138.1250 C   0  0  0  0  0  2  0  0  0  0  0  0
  182.6690  176.3090  138.1660 C   0  0  0  0  0  0  0  0  0  0  0  0
  182.8140  178.6000  137.3730 C   0  0  0  0  0  3  0  0  0  0  0  0
  190.1120  177.3170  135.7630 C   0  0  1  0  0  3  0  0  0  0  0  0
  185.8980  177.2610  137.5240 C   0  0  1  0  0  0  0  0  0  0  0  0
  188.4760  176.5990  137.6080 C   0  0  1  0  0  3  0  0  0  0  0  0
  187.2180  176.9950  136.7920 C   0  0  1  0  0  0  0  0  0  0  0  0
  187.1070  176.4650  135.4880 O   0  0  0  0  0  0  0  0  0  0  0  0
  189.3610  176.3650  135.0530 O   0  0  0  0  0  0  0  0  0  0  0  0
  186.7000  178.4180  136.9310 C   0  0  2  0  0  3  0  0  0  0  0  0
  188.1560  176.9980  134.7160 C   0  0  0  0  0  2  0  0  0  0  0  0
  185.9780  178.5980  138.2480 C   0  0  0  0  0  2  0  0  0  0  0  0
  189.6720  177.4760  137.2310 C   0  0  1  0  0  3  0  0  0  0  0  0
  190.8710  176.6170  136.8780 C   0  0  0  0  0  2  0  0  0  0  0  0
  188.2910  176.5760  139.1210 C   0  0  0  0  0  2  0  0  0  0  0  0
  189.3160  177.2970  139.7320 O   0  0  0  0  0  1  0  0  0  0  0  0
  181.2020  173.2710  135.0800 C   0  0  2  0  0  3  0  0  0  0  0  0
  181.1830  172.6450  137.5820 C   0  0  0  0  0  3  0  0  0  0  0  0
  180.6530  171.4490  137.3000 C   0  0  0  0  0  3  0  0  0  0  0  0
  178.9320  171.2860  135.6770 O   0  0  0  0  0  1  0  0  0  0  0  0
  181.1370  171.7550  134.8520 C   0  0  2  0  0  3  0  0  0  0  0  0
  180.2860  171.0380  135.9030 C   0  0  1  0  0  3  0  0  0  0  0  0
  181.5020  173.6870  136.5380 C   0  0  1  0  0  3  0  0  0  0  0  0
  182.4210  171.2100  134.8220 O   0  0  0  0  0  1  0  0  0  0  0  0
  179.9180  173.9270  134.6070 C   0  0  0  0  0  1  0  0  0  0  0  0
  181.1450  180.2320  138.0880 O   0  0  0  0  0  0  0  0  0  0  0  0
  181.3210  182.6080  137.8310 C   0  0  0  0  0  1  0  0  0  0  0  0
  181.8910  181.3720  138.4930 C   0  0  0  0  0  2  0  0  0  0  0  0
  1  6  1  0  0  0  0
  2  5  1  0  0  0  0
  3  5  1  1  0  0  0
  3  9  1  0  0  0  0
  3 14  1  0  0  0  0
  6  7  2  0  0  0  0
  7  4  1  0  0  0  0
  8  2  1  6  0  0  0
  8 10  1  0  0  0  0
  9 11  2  0  0  0  0
 10 11  1  0  0  0  0
 11  7  1  0  0  0  0
 12  9  1  0  0  0  0
 12  1  2  0  0  0  0
 13 23  1  1  0  0  0
 13 22  1  0  0  0  0
 14 21  1  1  0  0  0
 15 24  1  1  0  0  0
 16 17  1  6  0  0  0
 16 19  1  0  0  0  0
 16 14  1  0  0  0  0
 16 15  1  0  0  0  0
 18 13  1  0  0  0  0
 19 14  1  0  0  0  0
 19 21  1  1  0  0  0
 20 18  1  0  0  0  0
 20 17  1  0  0  0  0
 22 23  1  1  0  0  0
 22 15  1  0  0  0  0
 24 25  1  0  0  0  0
 26 34  1  1  0  0  0
 26 32  1  0  0  0  0
 28 27  2  0  0  0  0
 30 33  1  1  0  0  0
 30 26  1  0  0  0  0
 30 31  1  0  0  0  0
 31 29  1  6  0  0  0
 31 28  1  0  0  0  0
 32  8  1  0  0  0  0
 32 27  1  1  0  0  0
 35  1  1  0  0  0  0
 35 37  1  0  0  0  0
 36 37  1  0  0  0  0
M  END
>  <MODEL>
8

>  <REMARK>
 VINA RESULT:      -4.5      3.180      7.299
  Name = 
  5 active torsions:
  status: ('A' for Active; 'I' for Inactive)
    1  A    between atoms: C_1  and  O_5
    2  A    between atoms: C_4  and  C_10
    3  A    between atoms: O_5  and  C_23
    4  A    between atoms: C_9  and  C_16
    5  A    between atoms: C_27  and  C_31
                            x       y       z     vdW  Elec       q    Type
                         _______ _______ _______ _____ _____    ______ ____

>  <TORSDO>
F 5

$$$$
=
 OpenBabel10262422573D

 37 43  0  0  1  0  0  0  0  0999 V2000
  188.1980  177.6770  137.7130 C   0  0  0  0  0  0  0  0  0  0  0  0
  192.9360  177.3600  139.0980 C   0  0  0  0  0  2  0  0  0  0  0  0
  190.8130  177.8460  140.4630 C   0  0  1  0  0  3  0  0  0  0  0  0
  189.6080  174.2440  137.0320 C   0  0  0  0  0  1  0  0  0  0  0  0
  192.3350  177.6180  140.4730 C   0  0  0  0  0  2  0  0  0  0  0  0
  188.4120  176.4130  137.1660 C   0  0  0  0  0  3  0  0  0  0  0  0
  189.4460  175.6000  137.6350 C   0  0  0  0  0  0  0  0  0  0  0  0
  192.8190  175.8800  138.7170 C   0  0  1  0  0  3  0  0  0  0  0  0
  190.0560  177.3250  139.2500 C   0  0  0  0  0  0  0  0  0  0  0  0
  191.4750  175.2290  139.0850 C   0  0  0  0  0  2  0  0  0  0  0  0
  190.2960  176.0600  138.6600 C   0  0  0  0  0  0  0  0  0  0  0  0
  189.0150  178.1210  138.7590 C   0  0  0  0  0  3  0  0  0  0  0  0
  185.8230  177.9860  142.8990 C   0  0  1  0  0  3  0  0  0  0  0  0
  190.2210  177.3940  141.8160 C   0  0  1  0  0  0  0  0  0  0  0  0
  188.3070  178.0380  143.5510 C   0  0  1  0  0  3  0  0  0  0  0  0
  188.8020  177.9060  142.0880 C   0  0  1  0  0  0  0  0  0  0  0  0
  188.2870  178.8280  141.1520 O   0  0  0  0  0  0  0  0  0  0  0  0
  186.2380  179.1040  142.1550 O   0  0  0  0  0  0  0  0  0  0  0  0
  189.0110  176.5060  141.5320 C   0  0  2  0  0  3  0  0  0  0  0  0
  186.9050  178.5940  141.0320 C   0  0  0  0  0  2  0  0  0  0  0  0
  190.2810  175.8960  142.0820 C   0  0  0  0  0  2  0  0  0  0  0  0
  186.9520  177.3510  143.7350 C   0  0  1  0  0  3  0  0  0  0  0  0
  185.9580  178.2990  144.3790 C   0  0  0  0  0  2  0  0  0  0  0  0
  189.2890  177.5650  144.6180 C   0  0  0  0  0  2  0  0  0  0  0  0
  190.0380  178.6450  145.0810 O   0  0  0  0  0  1  0  0  0  0  0  0
  194.6340  176.1860  136.9110 C   0  0  2  0  0  3  0  0  0  0  0  0
  193.0760  174.1300  136.9530 C   0  0  0  0  0  3  0  0  0  0  0  0
  194.0190  173.3780  136.3720 C   0  0  0  0  0  3  0  0  0  0  0  0
  195.3030  174.2790  134.5940 O   0  0  0  0  0  1  0  0  0  0  0  0
  195.7570  175.1470  136.7850 C   0  0  2  0  0  3  0  0  0  0  0  0
  195.3470  173.9350  135.9460 C   0  0  1  0  0  3  0  0  0  0  0  0
  193.2530  175.5950  137.2720 C   0  0  1  0  0  3  0  0  0  0  0  0
  196.1820  174.7340  138.0480 O   0  0  0  0  0  1  0  0  0  0  0  0
  194.5310  177.0020  135.6350 C   0  0  0  0  0  1  0  0  0  0  0  0
  187.1600  178.4650  137.2100 O   0  0  0  0  0  0  0  0  0  0  0  0
  184.9660  177.5210  137.4110 C   0  0  0  0  0  1  0  0  0  0  0  0
  186.0780  177.9230  136.4650 C   0  0  0  0  0  2  0  0  0  0  0  0
  1 12  1  0  0  0  0
  2  5  1  0  0  0  0
  3  5  1  6  0  0  0
  3 14  1  0  0  0  0
  4  7  1  0  0  0  0
  6  7  1  0  0  0  0
  6  1  2  0  0  0  0
  7 11  2  0  0  0  0
  8 10  1  6  0  0  0
  8  2  1  0  0  0  0
  9  3  1  0  0  0  0
 11 10  1  0  0  0  0
 11  9  1  0  0  0  0
 12  9  2  0  0  0  0
 13 22  1  0  0  0  0
 13 23  1  1  0  0  0
 14 21  1  1  0  0  0
 14 16  1  0  0  0  0
 15 22  1  0  0  0  0
 15 24  1  1  0  0  0
 16 17  1  6  0  0  0
 16 15  1  0  0  0  0
 18 13  1  0  0  0  0
 19 14  1  0  0  0  0
 19 21  1  1  0  0  0
 19 16  1  0  0  0  0
 20 17  1  0  0  0  0
 20 18  1  0  0  0  0
 22 23  1  1  0  0  0
 24 25  1  0  0  0  0
 26 34  1  6  0  0  0
 26 32  1  0  0  0  0
 28 27  2  0  0  0  0
 30 26  1  0  0  0  0
 30 33  1  1  0  0  0
 31 29  1  6  0  0  0
 31 28  1  0  0  0  0
 31 30  1  0  0  0  0
 32 27  1  1  0  0  0
 32  8  1  0  0  0  0
 35  1  1  0  0  0  0
 37 35  1  0  0  0  0
 37 36  1  0  0  0  0
M  END
>  <MODEL>
9

>  <REMARK>
 VINA RESULT:      -4.5      3.862      7.298
  Name = 
  5 active torsions:
  status: ('A' for Active; 'I' for Inactive)
    1  A    between atoms: C_1  and  O_5
    2  A    between atoms: C_4  and  C_10
    3  A    between atoms: O_5  and  C_23
    4  A    between atoms: C_9  and  C_16
    5  A    between atoms: C_27  and  C_31
                            x       y       z     vdW  Elec       q    Type
                         _______ _______ _______ _____ _____    ______ ____

>  <TORSDO>
F 5

$$$$
