=
 OpenBabel10262423203D

 34 39  0  0  1  0  0  0  0  0999 V2000
  190.1000  177.2420  140.4200 C   0  0  2  0  0  3  0  0  0  0  0  0
  187.8920  178.4880  140.4950 C   0  0  0  0  0  2  0  0  0  0  0  0
  190.5390  178.2280  143.1530 C   0  0  2  0  0  0  0  0  0  0  0  0
  187.7480  177.3900  138.2510 N   0  0  0  0  0  0  0  0  0  0  0  0
  191.6740  177.5770  142.3500 C   0  0  0  0  0  2  0  0  0  0  0  0
  191.1650  176.6010  141.2980 C   0  0  0  0  0  2  0  0  0  0  0  0
  189.5110  178.7810  142.2570 N   0  0  0  0  0  2  0  0  0  0  0  0
  188.9780  177.7990  141.3090 C   0  0  2  0  0  3  0  0  0  0  0  0
  191.1820  179.3970  143.8800 C   0  0  0  0  0  1  0  0  0  0  0  0
  187.1380  177.5210  139.5840 C   0  0  0  0  0  2  0  0  0  0  0  0
  189.5680  176.1470  139.5140 C   0  0  0  0  0  2  0  0  0  0  0  0
  189.0620  176.7080  138.1760 C   0  0  1  0  0  3  0  0  0  0  0  0
  190.1380  174.5310  137.3780 C   0  0  0  0  0  2  0  0  0  0  0  0
  188.4950  177.0510  134.9950 C   0  0  0  0  0  2  0  0  0  0  0  0
  186.0160  176.7990  134.5940 C   0  0  0  0  0  2  0  0  0  0  0  0
  190.9490  176.9030  135.7000 C   0  0  0  0  0  2  0  0  0  0  0  0
  192.5740  174.0210  137.6130 C   0  0  0  0  0  3  0  0  0  0  0  0
  194.2960  175.3470  136.5450 C   0  0  0  0  0  3  0  0  0  0  0  0
  185.7460  174.7310  135.5930 N   0  0  0  0  0  2  0  0  0  0  0  0
  193.9240  174.2650  137.3470 C   0  0  0  0  0  3  0  0  0  0  0  0
  191.9640  175.9440  136.2540 C   0  0  0  0  0  0  0  0  0  0  0  0
  191.5860  174.8580  137.0840 C   0  0  0  0  0  0  0  0  0  0  0  0
  193.3180  176.1860  136.0040 C   0  0  0  0  0  3  0  0  0  0  0  0
  187.3660  176.1040  134.5940 C   0  0  2  0  0  3  0  0  0  0  0  0
  185.1150  175.7410  135.1250 C   0  0  0  0  0  2  0  0  0  0  0  0
  187.7500  175.0140  136.9150 C   0  0  0  0  0  2  0  0  0  0  0  0
  187.1710  174.8650  135.4950 C   0  0  1  0  0  3  0  0  0  0  0  0
  189.5860  176.2360  135.6600 C   0  0  1  0  0  3  0  0  0  0  0  0
  189.1500  175.6540  137.0230 C   0  0  1  0  0  0  0  0  0  0  0  0
  189.9390  177.2840  144.2310 C   0  0  0  0  0  3  0  0  0  0  0  0
  190.9950  176.7610  145.1950 C   0  0  0  0  0  1  0  0  0  0  0  0
  188.7870  177.8740  145.0310 C   0  0  0  0  0  1  0  0  0  0  0  0
  189.0730  179.3870  137.5130 C   0  0  0  0  0  1  0  0  0  0  0  0
  187.7290  178.6660  137.5170 C   0  0  0  0  0  2  0  0  0  0  0  0
  1 11  1  6  0  0  0
  1  6  1  0  0  0  0
  1  8  1  0  0  0  0
  3  9  1  1  0  0  0
  3 30  1  0  0  0  0
  4 10  1  0  0  0  0
  5  3  1  0  0  0  0
  6  5  1  0  0  0  0
  7  3  1  0  0  0  0
  8  2  1  6  0  0  0
  8  7  1  0  0  0  0
 10  2  1  0  0  0  0
 12  4  1  0  0  0  0
 12 11  1  1  0  0  0
 15 25  1  0  0  0  0
 16 21  1  0  0  0  0
 18 20  2  0  0  0  0
 20 17  1  0  0  0  0
 21 22  1  0  0  0  0
 22 13  1  0  0  0  0
 22 17  2  0  0  0  0
 23 21  2  0  0  0  0
 23 18  1  0  0  0  0
 24 15  1  1  0  0  0
 24 14  1  0  0  0  0
 24 27  1  0  0  0  0
 25 19  1  0  0  0  0
 27 19  1  0  0  0  0
 27 26  1  1  0  0  0
 28 14  1  1  0  0  0
 28 16  1  0  0  0  0
 28 29  1  0  0  0  0
 29 26  1  6  0  0  0
 29 13  1  0  0  0  0
 29 12  1  0  0  0  0
 30 32  1  0  0  0  0
 30 31  1  0  0  0  0
 33 34  1  0  0  0  0
 34  4  1  0  0  0  0
M  END
>  <MODEL>
1

>  <REMARK>
 VINA RESULT:      -5.9      0.000      0.000
  Name = 
  3 active torsions:
  status: ('A' for Active; 'I' for Inactive)
    1  A    between atoms: C_7  and  C_11
    2  A    between atoms: N_9  and  C_18
    3  A    between atoms: C_33  and  C_34
                            x       y       z     vdW  Elec       q    Type
                         _______ _______ _______ _____ _____    ______ ____

>  <TORSDO>
F 3

$$$$
=
 OpenBabel10262423203D

 34 39  0  0  1  0  0  0  0  0999 V2000
  185.0880  177.9990  140.3290 C   0  0  2  0  0  3  0  0  0  0  0  0
  184.3200  178.3300  142.7240 C   0  0  0  0  0  2  0  0  0  0  0  0
  182.2530  178.2040  139.5850 C   0  0  2  0  0  0  0  0  0  0  0  0
  186.8040  178.2530  143.0220 N   0  0  0  0  0  0  0  0  0  0  0  0
  183.3070  177.7160  138.5800 C   0  0  0  0  0  2  0  0  0  0  0  0
  184.6980  178.2540  138.8810 C   0  0  0  0  0  2  0  0  0  0  0  0
  182.7050  177.9830  140.9680 N   0  0  0  0  0  2  0  0  0  0  0  0
  184.0110  178.5830  141.2550 C   0  0  2  0  0  3  0  0  0  0  0  0
  181.0420  177.3160  139.3570 C   0  0  0  0  0  1  0  0  0  0  0  0
  185.5810  179.0550  143.1910 C   0  0  0  0  0  2  0  0  0  0  0  0
  186.4170  178.6970  140.5510 C   0  0  0  0  0  2  0  0  0  0  0  0
  187.2560  177.9990  141.6330 C   0  0  1  0  0  3  0  0  0  0  0  0
  189.0560  179.1490  140.2280 C   0  0  0  0  0  2  0  0  0  0  0  0
  189.7660  176.1110  142.4630 C   0  0  0  0  0  2  0  0  0  0  0  0
  190.3520  176.5750  144.8730 C   0  0  0  0  0  2  0  0  0  0  0  0
  189.1430  176.1440  139.9820 C   0  0  0  0  0  2  0  0  0  0  0  0
  189.0230  179.2290  137.7300 C   0  0  0  0  0  3  0  0  0  0  0  0
  189.1240  177.2370  136.3580 C   0  0  0  0  0  3  0  0  0  0  0  0
  190.6450  178.8610  144.6900 N   0  0  0  0  0  2  0  0  0  0  0  0
  189.0530  178.6280  136.4690 C   0  0  0  0  0  3  0  0  0  0  0  0
  189.1510  177.0360  138.7740 C   0  0  0  0  0  0  0  0  0  0  0  0
  189.0590  178.4460  138.8880 C   0  0  0  0  0  0  0  0  0  0  0  0
  189.1690  176.4440  137.5070 C   0  0  0  0  0  3  0  0  0  0  0  0
  190.6670  176.8870  143.4210 C   0  0  2  0  0  3  0  0  0  0  0  0
  190.5200  177.9010  145.5260 C   0  0  0  0  0  2  0  0  0  0  0  0
  189.2910  178.9590  142.6900 C   0  0  0  0  0  2  0  0  0  0  0  0
  190.5900  178.4260  143.3240 C   0  0  1  0  0  3  0  0  0  0  0  0
  189.6000  176.9290  141.1990 C   0  0  1  0  0  3  0  0  0  0  0  0
  188.7900  178.2250  141.4280 C   0  0  1  0  0  0  0  0  0  0  0  0
  181.8080  179.6710  139.3340 C   0  0  0  0  0  3  0  0  0  0  0  0
  181.5400  179.9510  137.8620 C   0  0  0  0  0  1  0  0  0  0  0  0
  180.6060  180.1250  140.1500 C   0  0  0  0  0  1  0  0  0  0  0  0
  186.8060  177.2950  145.3400 C   0  0  0  0  0  1  0  0  0  0  0  0
  186.7670  177.0280  143.8390 C   0  0  0  0  0  2  0  0  0  0  0  0
  1  6  1  6  0  0  0
  1 11  1  0  0  0  0
  1  8  1  0  0  0  0
  2 10  1  0  0  0  0
  3  9  1  6  0  0  0
  3  7  1  0  0  0  0
  4 10  1  0  0  0  0
  4 34  1  0  0  0  0
  5  6  1  0  0  0  0
  5  3  1  0  0  0  0
  7  8  1  0  0  0  0
  8  2  1  1  0  0  0
 12 11  1  6  0  0  0
 12  4  1  0  0  0  0
 15 25  1  0  0  0  0
 17 22  1  0  0  0  0
 18 20  1  0  0  0  0
 18 23  2  0  0  0  0
 19 25  1  0  0  0  0
 20 17  2  0  0  0  0
 21 22  2  0  0  0  0
 21 16  1  0  0  0  0
 22 13  1  0  0  0  0
 23 21  1  0  0  0  0
 24 14  1  6  0  0  0
 24 15  1  0  0  0  0
 27 26  1  1  0  0  0
 27 24  1  0  0  0  0
 27 19  1  0  0  0  0
 28 16  1  6  0  0  0
 28 29  1  0  0  0  0
 28 14  1  0  0  0  0
 29 13  1  6  0  0  0
 29 12  1  0  0  0  0
 29 26  1  0  0  0  0
 30  3  1  0  0  0  0
 30 32  1  0  0  0  0
 31 30  1  0  0  0  0
 34 33  1  0  0  0  0
M  END
>  <MODEL>
2

>  <REMARK>
 VINA RESULT:      -5.9      3.151      7.579
  Name = 
  3 active torsions:
  status: ('A' for Active; 'I' for Inactive)
    1  A    between atoms: C_7  and  C_11
    2  A    between atoms: N_9  and  C_18
    3  A    between atoms: C_33  and  C_34
                            x       y       z     vdW  Elec       q    Type
                         _______ _______ _______ _____ _____    ______ ____

>  <TORSDO>
F 3

$$$$
=
 OpenBabel10262423203D

 34 39  0  0  1  0  0  0  0  0999 V2000
  184.3360  176.6400  138.0200 C   0  0  2  0  0  3  0  0  0  0  0  0
  186.0620  178.4870  138.2350 C   0  0  0  0  0  2  0  0  0  0  0  0
  182.4650  178.4890  139.3290 C   0  0  2  0  0  0  0  0  0  0  0  0
  187.3680  176.7520  136.9900 N   0  0  0  0  0  0  0  0  0  0  0  0
  182.1190  177.0040  139.1440 C   0  0  0  0  0  2  0  0  0  0  0  0
  182.8390  176.3770  137.9590 C   0  0  0  0  0  2  0  0  0  0  0  0
  183.9220  178.6940  139.3250 N   0  0  0  0  0  2  0  0  0  0  0  0
  184.5810  178.1530  138.1330 C   0  0  2  0  0  3  0  0  0  0  0  0
  181.9610  178.8480  140.7170 C   0  0  0  0  0  1  0  0  0  0  0  0
  186.8350  178.1250  136.9680 C   0  0  0  0  0  2  0  0  0  0  0  0
  184.9260  176.1000  136.7310 C   0  0  0  0  0  2  0  0  0  0  0  0
  186.3830  175.6470  136.9140 C   0  0  1  0  0  3  0  0  0  0  0  0
  185.6490  174.2570  134.8970 C   0  0  0  0  0  2  0  0  0  0  0  0
  188.4990  173.2030  137.2410 C   0  0  0  0  0  2  0  0  0  0  0  0
  190.8070  174.0670  136.6980 C   0  0  0  0  0  2  0  0  0  0  0  0
  186.0210  172.5840  137.3790 C   0  0  0  0  0  2  0  0  0  0  0  0
  183.3870  173.2130  134.6810 C   0  0  0  0  0  3  0  0  0  0  0  0
  182.5710  171.5360  136.2250 C   0  0  0  0  0  3  0  0  0  0  0  0
  190.3390  174.9090  134.5960 N   0  0  0  0  0  2  0  0  0  0  0  0
  182.3840  172.3320  135.0920 C   0  0  0  0  0  3  0  0  0  0  0  0
  184.7790  172.4870  136.5400 C   0  0  0  0  0  0  0  0  0  0  0  0
  184.5820  173.3100  135.4020 C   0  0  0  0  0  0  0  0  0  0  0  0
  183.7630  171.6170  136.9480 C   0  0  0  0  0  3  0  0  0  0  0  0
  189.5800  173.3440  136.1710 C   0  0  2  0  0  3  0  0  0  0  0  0
  191.2140  174.8930  135.5300 C   0  0  0  0  0  2  0  0  0  0  0  0
  187.9810  175.0790  135.0960 C   0  0  0  0  0  2  0  0  0  0  0  0
  189.1760  174.1270  134.9030 C   0  0  1  0  0  3  0  0  0  0  0  0
  187.1500  173.1750  136.5530 C   0  0  1  0  0  3  0  0  0  0  0  0
  186.7840  174.5260  135.8990 C   0  0  1  0  0  0  0  0  0  0  0  0
  181.7340  179.4130  138.3160 C   0  0  0  0  0  3  0  0  0  0  0  0
  180.2500  179.0920  138.2050 C   0  0  0  0  0  1  0  0  0  0  0  0
  181.8990  180.9040  138.5730 C   0  0  0  0  0  1  0  0  0  0  0  0
  189.6150  177.3940  137.8990 C   0  0  0  0  0  1  0  0  0  0  0  0
  188.3450  176.5670  138.0750 C   0  0  0  0  0  2  0  0  0  0  0  0
  1 11  1  6  0  0  0
  1  8  1  0  0  0  0
  3  9  1  1  0  0  0
  4 34  1  0  0  0  0
  5  3  1  0  0  0  0
  6  1  1  0  0  0  0
  6  5  1  0  0  0  0
  7  3  1  0  0  0  0
  8  2  1  1  0  0  0
  8  7  1  0  0  0  0
 10  4  1  0  0  0  0
 10  2  1  0  0  0  0
 12 11  1  6  0  0  0
 12  4  1  0  0  0  0
 13 22  1  0  0  0  0
 17 20  2  0  0  0  0
 17 22  1  0  0  0  0
 18 23  2  0  0  0  0
 19 27  1  0  0  0  0
 19 25  1  0  0  0  0
 20 18  1  0  0  0  0
 21 23  1  0  0  0  0
 21 16  1  0  0  0  0
 22 21  2  0  0  0  0
 24 15  1  1  0  0  0
 24 14  1  0  0  0  0
 25 15  1  0  0  0  0
 26 29  1  0  0  0  0
 27 26  1  1  0  0  0
 27 24  1  0  0  0  0
 28 14  1  1  0  0  0
 28 16  1  0  0  0  0
 29 13  1  6  0  0  0
 29 28  1  0  0  0  0
 29 12  1  0  0  0  0
 30 32  1  0  0  0  0
 30  3  1  0  0  0  0
 31 30  1  0  0  0  0
 33 34  1  0  0  0  0
M  END
>  <MODEL>
3

>  <REMARK>
 VINA RESULT:      -5.7      3.470      7.197
  Name = 
  3 active torsions:
  status: ('A' for Active; 'I' for Inactive)
    1  A    between atoms: C_7  and  C_11
    2  A    between atoms: N_9  and  C_18
    3  A    between atoms: C_33  and  C_34
                            x       y       z     vdW  Elec       q    Type
                         _______ _______ _______ _____ _____    ______ ____

>  <TORSDO>
F 3

$$$$
=
 OpenBabel10262423203D

 34 39  0  0  1  0  0  0  0  0999 V2000
  190.7730  177.3400  140.1640 C   0  0  2  0  0  3  0  0  0  0  0  0
  188.3960  178.2240  140.0990 C   0  0  0  0  0  2  0  0  0  0  0  0
  190.7490  178.0120  143.0250 C   0  0  2  0  0  0  0  0  0  0  0  0
  188.6750  177.4220  137.7450 N   0  0  0  0  0  0  0  0  0  0  0  0
  192.0550  177.6480  142.3030 C   0  0  0  0  0  2  0  0  0  0  0  0
  191.8270  176.7540  141.0920 C   0  0  0  0  0  2  0  0  0  0  0  0
  189.7470  178.5200  142.0740 N   0  0  0  0  0  2  0  0  0  0  0  0
  189.4860  177.6020  140.9610 C   0  0  2  0  0  3  0  0  0  0  0  0
  191.1110  179.1570  143.9550 C   0  0  0  0  0  1  0  0  0  0  0  0
  187.9120  177.2840  138.9960 C   0  0  0  0  0  2  0  0  0  0  0  0
  190.5260  176.3070  139.0800 C   0  0  0  0  0  2  0  0  0  0  0  0
  190.0830  176.9580  137.7610 C   0  0  1  0  0  3  0  0  0  0  0  0
  189.4810  176.3250  135.3580 C   0  0  0  0  0  2  0  0  0  0  0  0
  191.7080  174.1490  137.6020 C   0  0  0  0  0  2  0  0  0  0  0  0
  194.1800  174.6550  137.5990 C   0  0  0  0  0  2  0  0  0  0  0  0
  189.1750  174.0140  137.2720 C   0  0  0  0  0  2  0  0  0  0  0  0
  187.1510  175.8400  134.5940 C   0  0  0  0  0  3  0  0  0  0  0  0
  185.8400  174.0080  135.4800 C   0  0  0  0  0  3  0  0  0  0  0  0
  194.2010  176.0980  135.7930 N   0  0  0  0  0  2  0  0  0  0  0  0
  185.9680  175.0970  134.6140 C   0  0  0  0  0  3  0  0  0  0  0  0
  188.0880  174.3880  136.3070 C   0  0  0  0  0  0  0  0  0  0  0  0
  188.2120  175.5060  135.4420 C   0  0  0  0  0  0  0  0  0  0  0  0
  186.8950  173.6580  136.3260 C   0  0  0  0  0  3  0  0  0  0  0  0
  192.9580  174.3530  136.7490 C   0  0  2  0  0  3  0  0  0  0  0  0
  194.8970  175.6650  136.7750 C   0  0  0  0  0  2  0  0  0  0  0  0
  191.8490  176.5900  136.0500 C   0  0  0  0  0  2  0  0  0  0  0  0
  192.8960  175.5070  135.7260 C   0  0  1  0  0  3  0  0  0  0  0  0
  190.5020  174.5690  136.7870 C   0  0  1  0  0  3  0  0  0  0  0  0
  190.4650  176.0900  136.5170 C   0  0  1  0  0  0  0  0  0  0  0  0
  190.1980  176.8560  143.9040 C   0  0  0  0  0  3  0  0  0  0  0  0
  191.2070  176.3880  144.9430 C   0  0  0  0  0  1  0  0  0  0  0  0
  188.8760  177.1500  144.5960 C   0  0  0  0  0  1  0  0  0  0  0  0
  187.1830  178.9910  136.4790 C   0  0  0  0  0  1  0  0  0  0  0  0
  188.5270  178.7670  137.1640 C   0  0  0  0  0  2  0  0  0  0  0  0
  1 11  1  6  0  0  0
  1  8  1  0  0  0  0
  1  6  1  0  0  0  0
  3 30  1  0  0  0  0
  3  9  1  1  0  0  0
  4 12  1  0  0  0  0
  4 10  1  0  0  0  0
  5  3  1  0  0  0  0
  6  5  1  0  0  0  0
  7  3  1  0  0  0  0
  8  2  1  6  0  0  0
  8  7  1  0  0  0  0
 10  2  1  0  0  0  0
 12 11  1  1  0  0  0
 13 22  1  0  0  0  0
 17 20  2  0  0  0  0
 17 22  1  0  0  0  0
 18 23  2  0  0  0  0
 19 25  1  0  0  0  0
 20 18  1  0  0  0  0
 21 23  1  0  0  0  0
 21 16  1  0  0  0  0
 22 21  2  0  0  0  0
 24 15  1  1  0  0  0
 24 14  1  0  0  0  0
 25 15  1  0  0  0  0
 26 29  1  0  0  0  0
 27 19  1  0  0  0  0
 27 26  1  1  0  0  0
 27 24  1  0  0  0  0
 28 16  1  1  0  0  0
 28 14  1  0  0  0  0
 29 13  1  6  0  0  0
 29 28  1  0  0  0  0
 29 12  1  0  0  0  0
 30 32  1  0  0  0  0
 30 31  1  0  0  0  0
 33 34  1  0  0  0  0
 34  4  1  0  0  0  0
M  END
>  <MODEL>
4

>  <REMARK>
 VINA RESULT:      -5.6      1.491      4.472
  Name = 
  3 active torsions:
  status: ('A' for Active; 'I' for Inactive)
    1  A    between atoms: C_7  and  C_11
    2  A    between atoms: N_9  and  C_18
    3  A    between atoms: C_33  and  C_34
                            x       y       z     vdW  Elec       q    Type
                         _______ _______ _______ _____ _____    ______ ____

>  <TORSDO>
F 3

$$$$
=
 OpenBabel10262423203D

 34 39  0  0  1  0  0  0  0  0999 V2000
  185.1590  176.4240  137.5940 C   0  0  2  0  0  3  0  0  0  0  0  0
  186.0320  174.2780  136.5590 C   0  0  0  0  0  2  0  0  0  0  0  0
  187.9750  177.2150  137.8770 C   0  0  2  0  0  0  0  0  0  0  0  0
  183.5610  173.9510  136.3310 N   0  0  0  0  0  0  0  0  0  0  0  0
  186.8540  177.9960  138.5800 C   0  0  0  0  0  2  0  0  0  0  0  0
  185.5170  177.8780  137.8610 C   0  0  0  0  0  2  0  0  0  0  0  0
  187.5560  175.8330  137.5940 N   0  0  0  0  0  2  0  0  0  0  0  0
  186.3080  175.7510  136.8280 C   0  0  2  0  0  3  0  0  0  0  0  0
  189.1080  177.1470  138.8870 C   0  0  0  0  0  1  0  0  0  0  0  0
  184.8450  174.0660  135.6210 C   0  0  0  0  0  2  0  0  0  0  0  0
  183.8950  176.4340  136.7560 C   0  0  0  0  0  2  0  0  0  0  0  0
  183.0440  175.1750  136.9890 C   0  0  1  0  0  3  0  0  0  0  0  0
  181.2930  176.8500  136.1720 C   0  0  0  0  0  2  0  0  0  0  0  0
  180.4280  173.8130  138.3530 C   0  0  0  0  0  2  0  0  0  0  0  0
  179.9410  171.6450  137.1550 C   0  0  0  0  0  2  0  0  0  0  0  0
  180.9860  176.1950  139.1000 C   0  0  0  0  0  2  0  0  0  0  0  0
  181.2650  179.2610  136.8350 C   0  0  0  0  0  3  0  0  0  0  0  0
  180.9870  179.9800  139.1300 C   0  0  0  0  0  3  0  0  0  0  0  0
  179.8070  172.4960  135.0100 N   0  0  0  0  0  2  0  0  0  0  0  0
  181.1590  180.2870  137.7780 C   0  0  0  0  0  3  0  0  0  0  0  0
  181.0090  177.6130  138.6070 C   0  0  0  0  0  0  0  0  0  0  0  0
  181.2050  177.9220  137.2370 C   0  0  0  0  0  0  0  0  0  0  0  0
  180.9170  178.6480  139.5430 C   0  0  0  0  0  3  0  0  0  0  0  0
  179.6100  173.1230  137.2620 C   0  0  2  0  0  3  0  0  0  0  0  0
  179.8850  171.4140  135.6870 C   0  0  0  0  0  2  0  0  0  0  0  0
  181.1110  174.4420  135.6080 C   0  0  0  0  0  2  0  0  0  0  0  0
  179.7940  173.6730  135.8310 C   0  0  1  0  0  3  0  0  0  0  0  0
  180.6190  175.2630  137.9590 C   0  0  1  0  0  3  0  0  0  0  0  0
  181.5250  175.4310  136.7180 C   0  0  1  0  0  0  0  0  0  0  0  0
  188.5190  177.9390  136.6150 C   0  0  0  0  0  3  0  0  0  0  0  0
  189.0560  179.3290  136.9310 C   0  0  0  0  0  1  0  0  0  0  0  0
  189.5750  177.1670  135.8380 C   0  0  0  0  0  1  0  0  0  0  0  0
  183.5630  171.4470  136.4710 C   0  0  0  0  0  1  0  0  0  0  0  0
  183.5340  172.7770  137.2190 C   0  0  0  0  0  2  0  0  0  0  0  0
  1 11  1  6  0  0  0
  1  6  1  0  0  0  0
  3  5  1  0  0  0  0
  3  9  1  1  0  0  0
  4 12  1  0  0  0  0
  4 34  1  0  0  0  0
  6  5  1  0  0  0  0
  7  3  1  0  0  0  0
  8  2  1  1  0  0  0
  8  7  1  0  0  0  0
  8  1  1  0  0  0  0
 10  4  1  0  0  0  0
 10  2  1  0  0  0  0
 12 11  1  6  0  0  0
 13 29  1  0  0  0  0
 13 22  1  0  0  0  0
 17 22  2  0  0  0  0
 17 20  1  0  0  0  0
 18 23  1  0  0  0  0
 19 25  1  0  0  0  0
 19 27  1  0  0  0  0
 20 18  2  0  0  0  0
 21 16  1  0  0  0  0
 21 23  2  0  0  0  0
 22 21  1  0  0  0  0
 24 15  1  6  0  0  0
 24 14  1  0  0  0  0
 25 15  1  0  0  0  0
 27 26  1  1  0  0  0
 27 24  1  0  0  0  0
 28 14  1  1  0  0  0
 28 16  1  0  0  0  0
 29 26  1  6  0  0  0
 29 12  1  0  0  0  0
 29 28  1  0  0  0  0
 30 31  1  0  0  0  0
 30  3  1  0  0  0  0
 32 30  1  0  0  0  0
 33 34  1  0  0  0  0
M  END
>  <MODEL>
5

>  <REMARK>
 VINA RESULT:      -5.4      4.404      8.656
  Name = 
  3 active torsions:
  status: ('A' for Active; 'I' for Inactive)
    1  A    between atoms: C_7  and  C_11
    2  A    between atoms: N_9  and  C_18
    3  A    between atoms: C_33  and  C_34
                            x       y       z     vdW  Elec       q    Type
                         _______ _______ _______ _____ _____    ______ ____

>  <TORSDO>
F 3

$$$$
=
 OpenBabel10262423203D

 34 39  0  0  1  0  0  0  0  0999 V2000
  184.0040  176.9790  137.7020 C   0  0  2  0  0  3  0  0  0  0  0  0
  184.9070  179.1320  138.6920 C   0  0  0  0  0  2  0  0  0  0  0  0
  186.6380  176.6720  136.4360 C   0  0  2  0  0  0  0  0  0  0  0  0
  182.6330  179.0410  139.7340 N   0  0  0  0  0  0  0  0  0  0  0  0
  185.4490  175.7910  136.0240 C   0  0  0  0  0  2  0  0  0  0  0  0
  184.4240  175.6290  137.1380 C   0  0  0  0  0  2  0  0  0  0  0  0
  186.1740  177.9390  137.0250 N   0  0  0  0  0  2  0  0  0  0  0  0
  185.2530  177.7530  138.1490 C   0  0  2  0  0  3  0  0  0  0  0  0
  187.3530  177.0110  135.1390 C   0  0  0  0  0  1  0  0  0  0  0  0
  184.0840  179.0680  139.9780 C   0  0  0  0  0  2  0  0  0  0  0  0
  183.1020  176.6920  138.8880 C   0  0  0  0  0  2  0  0  0  0  0  0
  182.0770  177.8150  139.1120 C   0  0  1  0  0  3  0  0  0  0  0  0
  180.7050  175.7620  139.7750 C   0  0  0  0  0  2  0  0  0  0  0  0
  179.2130  179.2900  139.5330 C   0  0  0  0  0  2  0  0  0  0  0  0
  179.3560  180.7370  141.5960 C   0  0  0  0  0  2  0  0  0  0  0  0
  179.3010  177.4780  137.7300 C   0  0  0  0  0  2  0  0  0  0  0  0
  180.2880  173.8230  138.2530 C   0  0  0  0  0  3  0  0  0  0  0  0
  179.0870  174.0390  136.1620 C   0  0  0  0  0  3  0  0  0  0  0  0
  180.0350  179.1000  143.0800 N   0  0  0  0  0  2  0  0  0  0  0  0
  179.7630  173.2470  137.0940 C   0  0  0  0  0  3  0  0  0  0  0  0
  179.4410  175.9940  137.5520 C   0  0  0  0  0  0  0  0  0  0  0  0
  180.1450  175.1950  138.4890 C   0  0  0  0  0  0  0  0  0  0  0  0
  178.9310  175.4090  136.3890 C   0  0  0  0  0  3  0  0  0  0  0  0
  178.9310  179.3940  141.0310 C   0  0  2  0  0  3  0  0  0  0  0  0
  179.8980  180.3630  142.9300 C   0  0  0  0  0  2  0  0  0  0  0  0
  180.8900  177.7150  141.2930 C   0  0  0  0  0  2  0  0  0  0  0  0
  179.6360  178.3500  141.9250 C   0  0  1  0  0  3  0  0  0  0  0  0
  179.4660  177.8350  139.1960 C   0  0  1  0  0  3  0  0  0  0  0  0
  180.7780  177.2980  139.8120 C   0  0  1  0  0  0  0  0  0  0  0  0
  187.6540  175.9320  137.3480 C   0  0  0  0  0  3  0  0  0  0  0  0
  188.1570  174.6380  136.7240 C   0  0  0  0  0  1  0  0  0  0  0  0
  188.8500  176.7660  137.7850 C   0  0  0  0  0  1  0  0  0  0  0  0
  181.8560  180.0860  137.5900 C   0  0  0  0  0  1  0  0  0  0  0  0
  182.1710  180.2720  139.0710 C   0  0  0  0  0  2  0  0  0  0  0  0
  1  6  1  1  0  0  0
  1  8  1  0  0  0  0
  1 11  1  0  0  0  0
  2 10  1  0  0  0  0
  3  9  1  6  0  0  0
  3  7  1  0  0  0  0
  3 30  1  0  0  0  0
  4 10  1  0  0  0  0
  5  3  1  0  0  0  0
  5  6  1  0  0  0  0
  7  8  1  0  0  0  0
  8  2  1  6  0  0  0
 12 11  1  1  0  0  0
 12  4  1  0  0  0  0
 12 29  1  0  0  0  0
 15 25  1  0  0  0  0
 17 22  1  0  0  0  0
 18 23  2  0  0  0  0
 18 20  1  0  0  0  0
 20 17  2  0  0  0  0
 21 16  1  0  0  0  0
 21 22  2  0  0  0  0
 22 13  1  0  0  0  0
 23 21  1  0  0  0  0
 24 14  1  6  0  0  0
 24 15  1  0  0  0  0
 24 27  1  0  0  0  0
 25 19  1  0  0  0  0
 27 26  1  6  0  0  0
 27 19  1  0  0  0  0
 28 16  1  6  0  0  0
 28 14  1  0  0  0  0
 28 29  1  0  0  0  0
 29 13  1  6  0  0  0
 29 26  1  0  0  0  0
 30 32  1  0  0  0  0
 31 30  1  0  0  0  0
 33 34  1  0  0  0  0
 34  4  1  0  0  0  0
M  END
>  <MODEL>
6

>  <REMARK>
 VINA RESULT:      -5.2      5.631      9.561
  Name = 
  3 active torsions:
  status: ('A' for Active; 'I' for Inactive)
    1  A    between atoms: C_7  and  C_11
    2  A    between atoms: N_9  and  C_18
    3  A    between atoms: C_33  and  C_34
                            x       y       z     vdW  Elec       q    Type
                         _______ _______ _______ _____ _____    ______ ____

>  <TORSDO>
F 3

$$$$
=
 OpenBabel10262423203D

 34 39  0  0  1  0  0  0  0  0999 V2000
  185.4090  175.4670  137.0280 C   0  0  2  0  0  3  0  0  0  0  0  0
  185.7540  173.1790  135.9890 C   0  0  0  0  0  2  0  0  0  0  0  0
  188.3170  175.8120  136.7870 C   0  0  2  0  0  0  0  0  0  0  0  0
  183.2610  173.2400  136.1990 N   0  0  0  0  0  0  0  0  0  0  0  0
  187.4670  176.7820  137.6210 C   0  0  0  0  0  2  0  0  0  0  0  0
  186.0220  176.8550  137.1450 C   0  0  0  0  0  2  0  0  0  0  0  0
  187.6520  174.5060  136.6590 N   0  0  0  0  0  2  0  0  0  0  0  0
  186.2920  174.5970  136.1210 C   0  0  2  0  0  3  0  0  0  0  0  0
  189.5860  175.5980  137.5940 C   0  0  0  0  0  1  0  0  0  0  0  0
  184.4030  173.1280  135.2770 C   0  0  0  0  0  2  0  0  0  0  0  0
  184.0330  175.6510  136.4150 C   0  0  0  0  0  2  0  0  0  0  0  0
  183.0570  174.5510  136.8610 C   0  0  1  0  0  3  0  0  0  0  0  0
  181.4870  176.5470  136.5650 C   0  0  0  0  0  2  0  0  0  0  0  0
  180.4330  173.2950  138.3090 C   0  0  0  0  0  2  0  0  0  0  0  0
  179.5170  171.4550  136.8440 C   0  0  0  0  0  2  0  0  0  0  0  0
  181.4020  175.4160  139.3600 C   0  0  0  0  0  2  0  0  0  0  0  0
  181.8740  178.7830  137.6150 C   0  0  0  0  0  3  0  0  0  0  0  0
  181.9460  179.1050  140.0130 C   0  0  0  0  0  3  0  0  0  0  0  0
  179.2790  172.6900  134.9030 N   0  0  0  0  0  2  0  0  0  0  0  0
  182.0160  179.6270  138.7190 C   0  0  0  0  0  3  0  0  0  0  0  0
  181.5750  176.8860  139.1090 C   0  0  0  0  0  0  0  0  0  0  0  0
  181.6660  177.4110  137.7940 C   0  0  0  0  0  0  0  0  0  0  0  0
  181.7310  177.7380  140.2060 C   0  0  0  0  0  3  0  0  0  0  0  0
  179.4140  172.9190  137.2350 C   0  0  2  0  0  3  0  0  0  0  0  0
  179.2730  171.5010  135.3770 C   0  0  0  0  0  2  0  0  0  0  0  0
  180.9030  174.3210  135.6410 C   0  0  0  0  0  2  0  0  0  0  0  0
  179.5220  173.6910  135.9020 C   0  0  1  0  0  3  0  0  0  0  0  0
  180.7860  174.7580  138.1380 C   0  0  1  0  0  3  0  0  0  0  0  0
  181.5700  175.0350  136.8350 C   0  0  1  0  0  0  0  0  0  0  0  0
  188.7350  176.4010  135.4110 C   0  0  0  0  0  3  0  0  0  0  0  0
  189.1270  177.8690  135.5040 C   0  0  0  0  0  1  0  0  0  0  0  0
  189.8400  175.6380  134.6960 C   0  0  0  0  0  1  0  0  0  0  0  0
  183.0780  170.7530  136.4680 C   0  0  0  0  0  1  0  0  0  0  0  0
  183.2140  172.1140  137.1460 C   0  0  0  0  0  2  0  0  0  0  0  0
  1 11  1  6  0  0  0
  1  6  1  0  0  0  0
  3  9  1  1  0  0  0
  3  5  1  0  0  0  0
  4 12  1  0  0  0  0
  4 34  1  0  0  0  0
  6  5  1  0  0  0  0
  7  3  1  0  0  0  0
  8  2  1  1  0  0  0
  8  7  1  0  0  0  0
  8  1  1  0  0  0  0
 10  2  1  0  0  0  0
 10  4  1  0  0  0  0
 12 11  1  6  0  0  0
 13 29  1  0  0  0  0
 13 22  1  0  0  0  0
 17 22  2  0  0  0  0
 17 20  1  0  0  0  0
 18 23  1  0  0  0  0
 19 25  1  0  0  0  0
 19 27  1  0  0  0  0
 20 18  2  0  0  0  0
 21 16  1  0  0  0  0
 21 23  2  0  0  0  0
 22 21  1  0  0  0  0
 24 15  1  6  0  0  0
 24 14  1  0  0  0  0
 25 15  1  0  0  0  0
 27 26  1  6  0  0  0
 27 24  1  0  0  0  0
 28 14  1  1  0  0  0
 28 16  1  0  0  0  0
 29 26  1  6  0  0  0
 29 12  1  0  0  0  0
 29 28  1  0  0  0  0
 30 31  1  0  0  0  0
 30  3  1  0  0  0  0
 32 30  1  0  0  0  0
 33 34  1  0  0  0  0
M  END
>  <MODEL>
7

>  <REMARK>
 VINA RESULT:      -5.0      4.403      8.853
  Name = 
  3 active torsions:
  status: ('A' for Active; 'I' for Inactive)
    1  A    between atoms: C_7  and  C_11
    2  A    between atoms: N_9  and  C_18
    3  A    between atoms: C_33  and  C_34
                            x       y       z     vdW  Elec       q    Type
                         _______ _______ _______ _____ _____    ______ ____

>  <TORSDO>
F 3

$$$$
=
 OpenBabel10262423203D

 34 39  0  0  1  0  0  0  0  0999 V2000
  185.0820  178.4700  138.9420 C   0  0  2  0  0  3  0  0  0  0  0  0
  185.8070  178.4120  141.3720 C   0  0  0  0  0  2  0  0  0  0  0  0
  187.9380  178.2800  138.2770 C   0  0  2  0  0  0  0  0  0  0  0  0
  183.3160  178.4410  141.6140 N   0  0  0  0  0  0  0  0  0  0  0  0
  186.8920  178.6270  137.2060 C   0  0  0  0  0  2  0  0  0  0  0  0
  185.5110  178.0790  137.5350 C   0  0  0  0  0  2  0  0  0  0  0  0
  187.4490  178.6280  139.6210 N   0  0  0  0  0  2  0  0  0  0  0  0
  186.1560  178.0190  139.9430 C   0  0  2  0  0  3  0  0  0  0  0  0
  189.1270  179.1780  137.9810 C   0  0  0  0  0  1  0  0  0  0  0  0
  184.5580  177.7000  141.8890 C   0  0  0  0  0  2  0  0  0  0  0  0
  183.7700  177.7570  139.2100 C   0  0  0  0  0  2  0  0  0  0  0  0
  182.8870  178.5350  140.1980 C   0  0  1  0  0  3  0  0  0  0  0  0
  181.1540  177.1920  138.8840 C   0  0  0  0  0  2  0  0  0  0  0  0
  180.3030  180.4160  140.7850 C   0  0  0  0  0  2  0  0  0  0  0  0
  179.6790  180.1790  143.2190 C   0  0  0  0  0  2  0  0  0  0  0  0
  180.9810  180.1520  138.3330 C   0  0  0  0  0  2  0  0  0  0  0  0
  181.2420  176.8610  136.4080 C   0  0  0  0  0  3  0  0  0  0  0  0
  181.1110  178.7000  134.8390 C   0  0  0  0  0  3  0  0  0  0  0  0
  179.4600  177.8780  143.2640 N   0  0  0  0  0  2  0  0  0  0  0  0
  181.2210  177.3300  135.0920 C   0  0  0  0  0  3  0  0  0  0  0  0
  181.0250  179.1430  137.2210 C   0  0  0  0  0  0  0  0  0  0  0  0
  181.1580  177.7550  137.4800 C   0  0  0  0  0  0  0  0  0  0  0  0
  181.0180  179.6030  135.9010 C   0  0  0  0  0  3  0  0  0  0  0  0
  179.4050  179.7110  141.8010 C   0  0  2  0  0  3  0  0  0  0  0  0
  179.5380  178.9210  144.0000 C   0  0  0  0  0  2  0  0  0  0  0  0
  180.8600  177.6220  141.3090 C   0  0  0  0  0  2  0  0  0  0  0  0
  179.5320  178.1740  141.8620 C   0  0  1  0  0  3  0  0  0  0  0  0
  180.5220  179.4800  139.6140 C   0  0  1  0  0  3  0  0  0  0  0  0
  181.3650  178.2400  139.9890 C   0  0  1  0  0  0  0  0  0  0  0  0
  188.4320  176.8100  138.1880 C   0  0  0  0  0  3  0  0  0  0  0  0
  188.5730  176.3320  136.7490 C   0  0  0  0  0  1  0  0  0  0  0  0
  189.7270  176.5230  138.9330 C   0  0  0  0  0  1  0  0  0  0  0  0
  183.3040  179.6320  143.8210 C   0  0  0  0  0  1  0  0  0  0  0  0
  183.2980  179.7440  142.3000 C   0  0  0  0  0  2  0  0  0  0  0  0
  1  6  1  6  0  0  0
  1 11  1  0  0  0  0
  1  8  1  0  0  0  0
  2 10  1  0  0  0  0
  3  9  1  6  0  0  0
  3  7  1  0  0  0  0
  4 10  1  0  0  0  0
  4 34  1  0  0  0  0
  5  6  1  0  0  0  0
  5  3  1  0  0  0  0
  7  8  1  0  0  0  0
  8  2  1  1  0  0  0
 12 11  1  6  0  0  0
 12  4  1  0  0  0  0
 15 25  1  0  0  0  0
 17 22  1  0  0  0  0
 18 20  1  0  0  0  0
 18 23  2  0  0  0  0
 19 25  1  0  0  0  0
 20 17  2  0  0  0  0
 21 22  2  0  0  0  0
 21 16  1  0  0  0  0
 22 13  1  0  0  0  0
 23 21  1  0  0  0  0
 24 14  1  6  0  0  0
 24 27  1  0  0  0  0
 24 15  1  0  0  0  0
 27 26  1  1  0  0  0
 27 19  1  0  0  0  0
 28 16  1  6  0  0  0
 28 29  1  0  0  0  0
 28 14  1  0  0  0  0
 29 13  1  6  0  0  0
 29 12  1  0  0  0  0
 29 26  1  0  0  0  0
 30  3  1  0  0  0  0
 30 32  1  0  0  0  0
 31 30  1  0  0  0  0
 34 33  1  0  0  0  0
M  END
>  <MODEL>
8

>  <REMARK>
 VINA RESULT:      -4.9      5.287      8.919
  Name = 
  3 active torsions:
  status: ('A' for Active; 'I' for Inactive)
    1  A    between atoms: C_7  and  C_11
    2  A    between atoms: N_9  and  C_18
    3  A    between atoms: C_33  and  C_34
                            x       y       z     vdW  Elec       q    Type
                         _______ _______ _______ _____ _____    ______ ____

>  <TORSDO>
F 3

$$$$
=
 OpenBabel10262423203D

 34 39  0  0  1  0  0  0  0  0999 V2000
  184.9320  178.3160  137.9270 C   0  0  2  0  0  3  0  0  0  0  0  0
  184.9810  178.2630  140.4630 C   0  0  0  0  0  2  0  0  0  0  0  0
  187.8670  178.2400  138.0540 C   0  0  2  0  0  0  0  0  0  0  0  0
  182.5170  178.1950  140.0280 N   0  0  0  0  0  0  0  0  0  0  0  0
  187.1340  178.5570  136.7410 C   0  0  0  0  0  2  0  0  0  0  0  0
  185.7380  177.9530  136.6880 C   0  0  0  0  0  2  0  0  0  0  0  0
  187.0230  178.5560  139.2170 N   0  0  0  0  0  2  0  0  0  0  0  0
  185.7150  177.8960  139.1810 C   0  0  2  0  0  3  0  0  0  0  0  0
  189.0560  179.1850  138.0860 C   0  0  0  0  0  1  0  0  0  0  0  0
  183.6680  177.4990  140.6270 C   0  0  0  0  0  2  0  0  0  0  0  0
  183.6250  177.5510  137.8350 C   0  0  0  0  0  2  0  0  0  0  0  0
  182.4800  178.2860  138.5490 C   0  0  1  0  0  3  0  0  0  0  0  0
  181.0210  178.3130  136.4500 C   0  0  0  0  0  2  0  0  0  0  0  0
  179.5830  178.0320  139.9970 C   0  0  0  0  0  2  0  0  0  0  0  0
  179.3760  175.7110  140.9680 C   0  0  0  0  0  2  0  0  0  0  0  0
  179.9750  180.1430  138.6070 C   0  0  0  0  0  2  0  0  0  0  0  0
  180.8670  180.2630  134.8930 C   0  0  0  0  0  3  0  0  0  0  0  0
  180.0320  182.4260  135.5880 C   0  0  0  0  0  3  0  0  0  0  0  0
  179.8010  174.5230  139.0310 N   0  0  0  0  0  2  0  0  0  0  0  0
  180.5450  181.5890  134.5940 C   0  0  0  0  0  3  0  0  0  0  0  0
  180.1460  180.6100  137.1900 C   0  0  0  0  0  0  0  0  0  0  0  0
  180.6850  179.7650  136.1870 C   0  0  0  0  0  0  0  0  0  0  0  0
  179.8370  181.9390  136.8820 C   0  0  0  0  0  3  0  0  0  0  0  0
  179.0540  176.6130  139.7890 C   0  0  2  0  0  3  0  0  0  0  0  0
  179.6880  174.4190  140.3010 C   0  0  0  0  0  2  0  0  0  0  0  0
  180.9450  176.4010  138.0280 C   0  0  0  0  0  2  0  0  0  0  0  0
  179.6020  175.8620  138.5570 C   0  0  1  0  0  3  0  0  0  0  0  0
  179.8910  178.6270  138.6380 C   0  0  1  0  0  3  0  0  0  0  0  0
  181.0830  177.9360  137.9390 C   0  0  1  0  0  0  0  0  0  0  0  0
  188.4240  176.7900  138.1030 C   0  0  0  0  0  3  0  0  0  0  0  0
  188.8140  176.2730  136.7250 C   0  0  0  0  0  1  0  0  0  0  0  0
  189.5910  176.5830  139.0570 C   0  0  0  0  0  1  0  0  0  0  0  0
  181.8400  179.3640  142.1410 C   0  0  0  0  0  1  0  0  0  0  0  0
  182.2650  179.4900  140.6820 C   0  0  0  0  0  2  0  0  0  0  0  0
  1  6  1  6  0  0  0
  1  8  1  0  0  0  0
  2 10  1  0  0  0  0
  3  9  1  1  0  0  0
  3 30  1  0  0  0  0
  3  7  1  0  0  0  0
  4 10  1  0  0  0  0
  4 34  1  0  0  0  0
  5  3  1  0  0  0  0
  6  5  1  0  0  0  0
  8  7  1  0  0  0  0
  8  2  1  1  0  0  0
 11  1  1  0  0  0  0
 12 11  1  6  0  0  0
 12  4  1  0  0  0  0
 17 22  1  0  0  0  0
 18 23  2  0  0  0  0
 19 25  1  0  0  0  0
 20 17  2  0  0  0  0
 20 18  1  0  0  0  0
 21 16  1  0  0  0  0
 22 13  1  0  0  0  0
 22 21  2  0  0  0  0
 23 21  1  0  0  0  0
 24 14  1  1  0  0  0
 24 15  1  0  0  0  0
 25 15  1  0  0  0  0
 27 26  1  1  0  0  0
 27 19  1  0  0  0  0
 27 24  1  0  0  0  0
 28 16  1  1  0  0  0
 28 14  1  0  0  0  0
 29 13  1  6  0  0  0
 29 26  1  0  0  0  0
 29 12  1  0  0  0  0
 29 28  1  0  0  0  0
 30 32  1  0  0  0  0
 31 30  1  0  0  0  0
 34 33  1  0  0  0  0
M  END
>  <MODEL>
9

>  <REMARK>
 VINA RESULT:      -3.8      5.449      9.037
  Name = 
  3 active torsions:
  status: ('A' for Active; 'I' for Inactive)
    1  A    between atoms: C_7  and  C_11
    2  A    between atoms: N_9  and  C_18
    3  A    between atoms: C_33  and  C_34
                            x       y       z     vdW  Elec       q    Type
                         _______ _______ _______ _____ _____    ______ ____

>  <TORSDO>
F 3

$$$$
