=
 OpenBabel10262421163D

 32 36  0  0  1  0  0  0  0  0999 V2000
  190.2030  177.4680  140.6100 O   0  0  0  0  0  0  0  0  0  0  0  0
  189.0130  177.2270  142.6550 C   0  0  0  0  0  0  0  0  0  0  0  0
  190.2090  177.6410  139.1930 C   0  0  2  0  0  3  0  0  0  0  0  0
  189.0220  177.5540  141.3580 C   0  0  0  0  0  0  0  0  0  0  0  0
  187.7150  177.2020  143.4300 C   0  0  1  0  0  3  0  0  0  0  0  0
  191.5630  176.6220  146.7470 C   0  0  0  0  0  3  0  0  0  0  0  0
  190.2470  176.8520  143.3670 C   0  0  0  0  0  2  0  0  0  0  0  0
  189.2420  177.3010  146.8650 C   0  0  0  0  0  3  0  0  0  0  0  0
  189.1310  177.2020  145.4740 C   0  0  0  0  0  0  0  0  0  0  0  0
  187.8240  178.0590  140.7400 N   0  0  0  0  0  0  0  0  0  0  0  0
  187.9440  177.4440  144.9010 C   0  0  0  0  0  2  0  0  0  0  0  0
  186.6700  178.3710  141.5300 C   0  0  0  0  0  3  0  0  0  0  0  0
  187.7750  178.2890  139.3000 C   0  0  0  0  0  2  0  0  0  0  0  0
  190.2710  176.8390  144.7060 C   0  0  0  0  0  0  0  0  0  0  0  0
  186.6240  178.0560  142.8280 C   0  0  0  0  0  0  0  0  0  0  0  0
  189.1540  178.6630  138.7560 C   0  0  0  0  0  2  0  0  0  0  0  0
  190.4520  177.0100  147.5000 C   0  0  0  0  0  3  0  0  0  0  0  0
  191.4740  176.5420  145.3550 C   0  0  0  0  0  3  0  0  0  0  0  0
  188.9900  176.1770  137.5200 N   0  0  0  0  0  2  0  0  0  0  0  0
  190.0220  176.3280  138.4980 C   0  0  0  0  0  0  0  0  0  0  0  0
  190.7990  175.3720  138.7600 O   0  0  0  0  0  0  0  0  0  0  0  0
  189.1790  174.9910  135.3150 C   0  0  2  0  0  0  0  0  0  0  0  0
  185.9290  173.7270  134.9900 O   0  0  0  0  0  0  0  0  0  0  0  0
  189.4010  176.4120  134.8100 C   0  0  0  0  0  1  0  0  0  0  0  0
  187.2570  174.5790  136.8150 C   0  0  0  0  0  2  0  0  0  0  0  0
  188.1030  174.4160  134.5940 O   0  0  0  0  0  0  0  0  0  0  0  0
  188.7460  174.9300  136.8050 C   0  0  2  0  0  3  0  0  0  0  0  0
  187.0160  174.1980  135.4110 C   0  0  0  0  0  0  0  0  0  0  0  0
  190.4530  174.1860  135.0930 C   0  0  0  0  0  2  0  0  0  0  0  0
  190.6680  173.2950  136.1470 O   0  0  0  0  0  1  0  0  0  0  0  0
  185.3690  178.3350  143.5860 C   0  0  0  0  0  2  0  0  0  0  0  0
  184.2310  178.3140  142.6830 N   0  0  0  0  0  1  0  0  0  0  0  0
  1  4  1  0  0  0  0
  2  7  1  0  0  0  0
  2  5  1  0  0  0  0
  3 20  1  6  0  0  0
  3  1  1  0  0  0  0
  4  2  2  0  0  0  0
  5 11  1  1  0  0  0
  6 17  1  0  0  0  0
  7 14  1  0  0  0  0
  8 17  2  0  0  0  0
  9  8  1  0  0  0  0
 10  4  1  0  0  0  0
 10 12  1  0  0  0  0
 11  9  1  0  0  0  0
 12 15  2  0  0  0  0
 13 10  1  0  0  0  0
 14 18  1  0  0  0  0
 14  9  2  0  0  0  0
 15  5  1  0  0  0  0
 15 31  1  0  0  0  0
 16  3  1  0  0  0  0
 16 13  1  0  0  0  0
 18  6  2  0  0  0  0
 19 20  1  0  0  0  0
 20 21  2  0  0  0  0
 22 24  1  6  0  0  0
 22 27  1  0  0  0  0
 23 28  2  0  0  0  0
 26 22  1  0  0  0  0
 26 28  1  0  0  0  0
 27 25  1  0  0  0  0
 27 19  1  6  0  0  0
 28 25  1  0  0  0  0
 29 22  1  0  0  0  0
 29 30  1  0  0  0  0
 32 31  1  0  0  0  0
M  END
>  <MODEL>
1

>  <REMARK>
 VINA RESULT:      -9.5      0.000      0.000
  Name = 
  4 active torsions:
  status: ('A' for Active; 'I' for Inactive)
    1  A    between atoms: C_3  and  C_22
    2  A    between atoms: C_4  and  C_24
    3  A    between atoms: C_13  and  C_29
    4  A    between atoms: N_16  and  C_20
                            x       y       z     vdW  Elec       q    Type
                         _______ _______ _______ _____ _____    ______ ____

>  <TORSDO>
F 4

$$$$
=
 OpenBabel10262421163D

 32 36  0  0  1  0  0  0  0  0999 V2000
  189.7660  178.0120  141.5630 O   0  0  0  0  0  0  0  0  0  0  0  0
  188.0000  177.7640  143.1370 C   0  0  0  0  0  0  0  0  0  0  0  0
  190.2230  178.0640  140.2120 C   0  0  2  0  0  3  0  0  0  0  0  0
  188.4020  177.9780  141.8790 C   0  0  0  0  0  0  0  0  0  0  0  0
  186.5310  177.6070  143.4560 C   0  0  1  0  0  3  0  0  0  0  0  0
  189.0950  177.9010  147.8700 C   0  0  0  0  0  3  0  0  0  0  0  0
  188.9610  177.6440  144.2460 C   0  0  0  0  0  2  0  0  0  0  0  0
  186.8040  178.2260  147.1540 C   0  0  0  0  0  3  0  0  0  0  0  0
  187.1750  177.9940  145.8260 C   0  0  0  0  0  0  0  0  0  0  0  0
  187.4290  178.2410  140.8520 N   0  0  0  0  0  0  0  0  0  0  0  0
  186.2270  178.0040  144.8780 C   0  0  0  0  0  2  0  0  0  0  0  0
  186.0480  178.4380  141.1880 C   0  0  0  0  0  3  0  0  0  0  0  0
  187.8340  178.3400  139.4550 C   0  0  0  0  0  2  0  0  0  0  0  0
  188.5400  177.7460  145.5140 C   0  0  0  0  0  0  0  0  0  0  0  0
  185.6100  178.2300  142.4320 C   0  0  0  0  0  0  0  0  0  0  0  0
  189.2620  178.8720  139.3340 C   0  0  0  0  0  2  0  0  0  0  0  0
  187.7590  178.1770  148.1730 C   0  0  0  0  0  3  0  0  0  0  0  0
  189.4850  177.6920  146.5440 C   0  0  0  0  0  3  0  0  0  0  0  0
  191.0250  176.5040  138.3810 N   0  0  0  0  0  2  0  0  0  0  0  0
  190.4330  176.6840  139.6700 C   0  0  0  0  0  0  0  0  0  0  0  0
  190.1120  175.6880  140.3700 O   0  0  0  0  0  0  0  0  0  0  0  0
  192.5890  175.1160  136.9910 C   0  0  2  0  0  0  0  0  0  0  0  0
  190.3540  173.8020  134.6360 O   0  0  0  0  0  0  0  0  0  0  0  0
  193.1790  176.4840  136.6680 C   0  0  0  0  0  1  0  0  0  0  0  0
  190.1400  174.8340  136.8070 C   0  0  0  0  0  2  0  0  0  0  0  0
  192.2560  174.4670  135.7760 O   0  0  0  0  0  0  0  0  0  0  0  0
  191.2580  175.1930  137.7870 C   0  0  2  0  0  3  0  0  0  0  0  0
  190.8920  174.3190  135.6480 C   0  0  0  0  0  0  0  0  0  0  0  0
  193.6260  174.3030  137.7560 C   0  0  0  0  0  2  0  0  0  0  0  0
  194.7080  175.1030  138.1310 O   0  0  0  0  0  1  0  0  0  0  0  0
  184.1510  178.3770  142.7090 C   0  0  0  0  0  2  0  0  0  0  0  0
  183.4030  178.3130  141.4660 N   0  0  0  0  0  1  0  0  0  0  0  0
  1  4  1  0  0  0  0
  2  5  1  0  0  0  0
  2  7  1  0  0  0  0
  3 20  1  6  0  0  0
  3  1  1  0  0  0  0
  4  2  2  0  0  0  0
  5 11  1  1  0  0  0
  6 17  1  0  0  0  0
  7 14  1  0  0  0  0
  8 17  2  0  0  0  0
  9  8  1  0  0  0  0
 10 12  1  0  0  0  0
 10  4  1  0  0  0  0
 11  9  1  0  0  0  0
 12 15  2  0  0  0  0
 13 10  1  0  0  0  0
 14  9  2  0  0  0  0
 14 18  1  0  0  0  0
 15 31  1  0  0  0  0
 15  5  1  0  0  0  0
 16 13  1  0  0  0  0
 16  3  1  0  0  0  0
 18  6  2  0  0  0  0
 19 20  1  0  0  0  0
 20 21  2  0  0  0  0
 22 24  1  6  0  0  0
 22 29  1  0  0  0  0
 22 27  1  0  0  0  0
 23 28  2  0  0  0  0
 25 27  1  0  0  0  0
 26 22  1  0  0  0  0
 27 19  1  6  0  0  0
 28 26  1  0  0  0  0
 28 25  1  0  0  0  0
 29 30  1  0  0  0  0
 32 31  1  0  0  0  0
M  END
>  <MODEL>
2

>  <REMARK>
 VINA RESULT:      -8.8      1.838      2.575
  Name = 
  4 active torsions:
  status: ('A' for Active; 'I' for Inactive)
    1  A    between atoms: C_3  and  C_22
    2  A    between atoms: C_4  and  C_24
    3  A    between atoms: C_13  and  C_29
    4  A    between atoms: N_16  and  C_20
                            x       y       z     vdW  Elec       q    Type
                         _______ _______ _______ _____ _____    ______ ____

>  <TORSDO>
F 4

$$$$
=
 OpenBabel10262421163D

 32 36  0  0  1  0  0  0  0  0999 V2000
  188.7570  178.1860  140.7510 O   0  0  0  0  0  0  0  0  0  0  0  0
  186.6920  178.0540  141.9240 C   0  0  0  0  0  0  0  0  0  0  0  0
  189.4870  178.1890  139.5240 C   0  0  2  0  0  3  0  0  0  0  0  0
  187.3570  178.2240  140.7760 C   0  0  0  0  0  0  0  0  0  0  0  0
  185.1830  177.9730  141.9310 C   0  0  1  0  0  3  0  0  0  0  0  0
  186.7850  178.2290  146.7790 C   0  0  0  0  0  3  0  0  0  0  0  0
  187.3940  177.9080  143.2100 C   0  0  0  0  0  2  0  0  0  0  0  0
  184.7120  178.6490  145.5990 C   0  0  0  0  0  3  0  0  0  0  0  0
  185.3390  178.3750  144.3790 C   0  0  0  0  0  0  0  0  0  0  0  0
  186.6330  178.5140  139.5660 N   0  0  0  0  0  0  0  0  0  0  0  0
  184.6100  178.4120  143.2540 C   0  0  0  0  0  2  0  0  0  0  0  0
  185.2250  178.7830  139.6040 C   0  0  0  0  0  3  0  0  0  0  0  0
  187.3250  178.5660  138.2830 C   0  0  0  0  0  2  0  0  0  0  0  0
  186.7250  178.0550  144.3610 C   0  0  0  0  0  0  0  0  0  0  0  0
  184.5280  178.6210  140.7320 C   0  0  0  0  0  0  0  0  0  0  0  0
  188.7720  179.0260  138.4580 C   0  0  0  0  0  2  0  0  0  0  0  0
  185.4310  178.5740  146.7950 C   0  0  0  0  0  3  0  0  0  0  0  0
  187.4300  177.9750  145.5660 C   0  0  0  0  0  3  0  0  0  0  0  0
  189.2670  176.3800  137.7620 N   0  0  0  0  0  2  0  0  0  0  0  0
  189.7340  176.7910  139.0490 C   0  0  0  0  0  0  0  0  0  0  0  0
  190.3810  175.9940  139.7790 O   0  0  0  0  0  0  0  0  0  0  0  0
  190.3490  175.0110  135.9550 C   0  0  2  0  0  0  0  0  0  0  0  0
  187.6210  173.0870  134.8940 O   0  0  0  0  0  0  0  0  0  0  0  0
  190.5000  176.3810  135.3020 C   0  0  0  0  0  1  0  0  0  0  0  0
  188.1300  174.3940  136.8580 C   0  0  0  0  0  2  0  0  0  0  0  0
  189.6700  174.1520  135.0560 O   0  0  0  0  0  0  0  0  0  0  0  0
  189.4670  175.0350  137.2350 C   0  0  2  0  0  3  0  0  0  0  0  0
  188.4240  173.8140  135.5340 C   0  0  0  0  0  0  0  0  0  0  0  0
  191.7340  174.4610  136.2690 C   0  0  0  0  0  2  0  0  0  0  0  0
  191.8060  174.0190  137.5920 O   0  0  0  0  0  1  0  0  0  0  0  0
  183.0530  178.8430  140.6970 C   0  0  0  0  0  2  0  0  0  0  0  0
  182.6790  179.4830  139.4480 N   0  0  0  0  0  1  0  0  0  0  0  0
  1  4  1  0  0  0  0
  2  5  1  0  0  0  0
  2  7  1  0  0  0  0
  3 20  1  6  0  0  0
  3  1  1  0  0  0  0
  4  2  2  0  0  0  0
  5 11  1  1  0  0  0
  6 17  1  0  0  0  0
  7 14  1  0  0  0  0
  8 17  2  0  0  0  0
  9  8  1  0  0  0  0
 10 12  1  0  0  0  0
 10  4  1  0  0  0  0
 11  9  1  0  0  0  0
 12 15  2  0  0  0  0
 13 16  1  0  0  0  0
 13 10  1  0  0  0  0
 14  9  2  0  0  0  0
 14 18  1  0  0  0  0
 15  5  1  0  0  0  0
 16  3  1  0  0  0  0
 18  6  2  0  0  0  0
 19 20  1  0  0  0  0
 20 21  2  0  0  0  0
 22 24  1  6  0  0  0
 22 29  1  0  0  0  0
 22 27  1  0  0  0  0
 23 28  2  0  0  0  0
 25 27  1  0  0  0  0
 26 28  1  0  0  0  0
 26 22  1  0  0  0  0
 27 19  1  6  0  0  0
 28 25  1  0  0  0  0
 29 30  1  0  0  0  0
 31 15  1  0  0  0  0
 32 31  1  0  0  0  0
M  END
>  <MODEL>
3

>  <REMARK>
 VINA RESULT:      -8.0      2.035      2.763
  Name = 
  4 active torsions:
  status: ('A' for Active; 'I' for Inactive)
    1  A    between atoms: C_3  and  C_22
    2  A    between atoms: C_4  and  C_24
    3  A    between atoms: C_13  and  C_29
    4  A    between atoms: N_16  and  C_20
                            x       y       z     vdW  Elec       q    Type
                         _______ _______ _______ _____ _____    ______ ____

>  <TORSDO>
F 4

$$$$
=
 OpenBabel10262421163D

 32 36  0  0  1  0  0  0  0  0999 V2000
  186.3770  178.6350  139.8840 O   0  0  0  0  0  0  0  0  0  0  0  0
  186.9620  178.0260  142.1080 C   0  0  0  0  0  0  0  0  0  0  0  0
  185.3850  178.8890  138.8890 C   0  0  2  0  0  3  0  0  0  0  0  0
  186.0380  178.4230  141.2260 C   0  0  0  0  0  0  0  0  0  0  0  0
  186.5700  177.6810  143.5260 C   0  0  1  0  0  3  0  0  0  0  0  0
  191.6760  177.7300  143.2520 C   0  0  0  0  0  3  0  0  0  0  0  0
  188.3770  177.8790  141.7300 C   0  0  0  0  0  2  0  0  0  0  0  0
  190.0180  177.8950  145.0100 C   0  0  0  0  0  3  0  0  0  0  0  0
  188.9920  177.8580  144.0600 C   0  0  0  0  0  0  0  0  0  0  0  0
  184.6970  178.7000  141.6720 N   0  0  0  0  0  0  0  0  0  0  0  0
  187.7190  177.8770  144.4820 C   0  0  0  0  0  2  0  0  0  0  0  0
  184.3800  178.7130  143.0700 C   0  0  0  0  0  3  0  0  0  0  0  0
  183.6430  179.0000  140.7090 C   0  0  0  0  0  2  0  0  0  0  0  0
  189.3200  177.7900  142.6780 C   0  0  0  0  0  0  0  0  0  0  0  0
  185.2770  178.3180  143.9790 C   0  0  0  0  0  0  0  0  0  0  0  0
  184.2130  179.6890  139.4680 C   0  0  0  0  0  2  0  0  0  0  0  0
  191.3550  177.8290  144.6090 C   0  0  0  0  0  3  0  0  0  0  0  0
  190.6610  177.7170  142.2910 C   0  0  0  0  0  3  0  0  0  0  0  0
  183.5580  177.2000  138.4020 N   0  0  0  0  0  2  0  0  0  0  0  0
  184.9210  177.6100  138.2650 C   0  0  0  0  0  0  0  0  0  0  0  0
  185.7320  176.9180  137.5930 O   0  0  0  0  0  0  0  0  0  0  0  0
  182.2040  176.2080  136.5340 C   0  0  2  0  0  0  0  0  0  0  0  0
  179.9990  174.1830  138.3510 O   0  0  0  0  0  0  0  0  0  0  0  0
  181.7850  177.6620  136.3490 C   0  0  0  0  0  1  0  0  0  0  0  0
  182.1120  175.2530  138.8130 C   0  0  0  0  0  2  0  0  0  0  0  0
  181.0400  175.4160  136.6920 O   0  0  0  0  0  0  0  0  0  0  0  0
  183.0350  175.9670  137.8250 C   0  0  2  0  0  3  0  0  0  0  0  0
  180.9620  174.8920  137.9630 C   0  0  0  0  0  0  0  0  0  0  0  0
  182.9840  175.7620  135.3040 C   0  0  0  0  0  2  0  0  0  0  0  0
  183.9640  174.8270  135.6480 O   0  0  0  0  0  1  0  0  0  0  0  0
  184.8690  178.2800  145.4140 C   0  0  0  0  0  2  0  0  0  0  0  0
  183.6220  179.0030  145.5930 N   0  0  0  0  0  1  0  0  0  0  0  0
  1  4  1  0  0  0  0
  2  5  1  0  0  0  0
  3 20  1  1  0  0  0
  3 16  1  0  0  0  0
  3  1  1  0  0  0  0
  4 10  1  0  0  0  0
  4  2  2  0  0  0  0
  5 15  1  0  0  0  0
  5 11  1  1  0  0  0
  6 17  1  0  0  0  0
  7  2  1  0  0  0  0
  7 14  1  0  0  0  0
  9 11  1  0  0  0  0
  9  8  1  0  0  0  0
 10 12  1  0  0  0  0
 12 15  2  0  0  0  0
 13 10  1  0  0  0  0
 14  9  2  0  0  0  0
 15 31  1  0  0  0  0
 16 13  1  0  0  0  0
 17  8  2  0  0  0  0
 18 14  1  0  0  0  0
 18  6  2  0  0  0  0
 20 19  1  0  0  0  0
 21 20  2  0  0  0  0
 22 24  1  6  0  0  0
 22 26  1  0  0  0  0
 22 27  1  0  0  0  0
 26 28  1  0  0  0  0
 27 19  1  1  0  0  0
 27 25  1  0  0  0  0
 28 23  2  0  0  0  0
 28 25  1  0  0  0  0
 29 30  1  0  0  0  0
 29 22  1  0  0  0  0
 31 32  1  0  0  0  0
M  END
>  <MODEL>
4

>  <REMARK>
 VINA RESULT:      -7.9      3.548      4.719
  Name = 
  4 active torsions:
  status: ('A' for Active; 'I' for Inactive)
    1  A    between atoms: C_3  and  C_22
    2  A    between atoms: C_4  and  C_24
    3  A    between atoms: C_13  and  C_29
    4  A    between atoms: N_16  and  C_20
                            x       y       z     vdW  Elec       q    Type
                         _______ _______ _______ _____ _____    ______ ____

>  <TORSDO>
F 4

$$$$
=
 OpenBabel10262421163D

 32 36  0  0  1  0  0  0  0  0999 V2000
  185.3800  178.4960  140.8760 O   0  0  0  0  0  0  0  0  0  0  0  0
  186.4580  177.9510  142.9250 C   0  0  0  0  0  0  0  0  0  0  0  0
  184.1870  178.7150  140.1230 C   0  0  2  0  0  3  0  0  0  0  0  0
  185.3540  178.3170  142.2640 C   0  0  0  0  0  0  0  0  0  0  0  0
  186.4000  177.6400  144.4030 C   0  0  1  0  0  3  0  0  0  0  0  0
  191.3120  177.7330  142.9880 C   0  0  0  0  0  3  0  0  0  0  0  0
  187.7550  177.8090  142.2420 C   0  0  0  0  0  2  0  0  0  0  0  0
  190.0890  177.9270  145.0690 C   0  0  0  0  0  3  0  0  0  0  0  0
  188.8760  177.8550  144.3750 C   0  0  0  0  0  0  0  0  0  0  0  0
  184.1430  178.5920  142.9930 N   0  0  0  0  0  0  0  0  0  0  0  0
  187.7300  177.8730  145.0710 C   0  0  0  0  0  2  0  0  0  0  0  0
  184.1470  178.6380  144.4260 C   0  0  0  0  0  3  0  0  0  0  0  0
  182.8960  178.8560  142.2840 C   0  0  0  0  0  2  0  0  0  0  0  0
  188.8870  177.7550  142.9570 C   0  0  0  0  0  0  0  0  0  0  0  0
  185.2310  178.2770  145.1190 C   0  0  0  0  0  0  0  0  0  0  0  0
  183.1620  179.5180  140.9320 C   0  0  0  0  0  2  0  0  0  0  0  0
  191.3020  177.8640  144.3790 C   0  0  0  0  0  3  0  0  0  0  0  0
  190.1090  177.6840  142.2790 C   0  0  0  0  0  3  0  0  0  0  0  0
  183.9560  176.9130  138.3540 N   0  0  0  0  0  2  0  0  0  0  0  0
  183.6140  177.4150  139.6490 C   0  0  0  0  0  0  0  0  0  0  0  0
  182.8570  176.7570  140.4100 O   0  0  0  0  0  0  0  0  0  0  0  0
  184.4200  174.9610  136.8440 C   0  0  2  0  0  0  0  0  0  0  0  0
  181.4770  174.9100  134.9460 O   0  0  0  0  0  0  0  0  0  0  0  0
  185.5270  175.8820  136.3440 C   0  0  0  0  0  1  0  0  0  0  0  0
  182.1380  175.8920  137.0490 C   0  0  0  0  0  2  0  0  0  0  0  0
  183.6240  174.5660  135.7410 O   0  0  0  0  0  0  0  0  0  0  0  0
  183.4360  175.6590  137.8240 C   0  0  2  0  0  3  0  0  0  0  0  0
  182.3540  175.0930  135.8280 C   0  0  0  0  0  0  0  0  0  0  0  0
  185.0540  173.7410  137.5000 C   0  0  0  0  0  2  0  0  0  0  0  0
  186.4480  173.8220  137.4560 O   0  0  0  0  0  1  0  0  0  0  0  0
  185.1560  178.2720  146.6090 C   0  0  0  0  0  2  0  0  0  0  0  0
  185.6040  179.5510  147.1300 N   0  0  0  0  0  1  0  0  0  0  0  0
  1  4  1  0  0  0  0
  2  5  1  0  0  0  0
  3 20  1  1  0  0  0
  3  1  1  0  0  0  0
  3 16  1  0  0  0  0
  4  2  2  0  0  0  0
  4 10  1  0  0  0  0
  5 11  1  1  0  0  0
  5 15  1  0  0  0  0
  6 17  1  0  0  0  0
  7  2  1  0  0  0  0
  7 14  1  0  0  0  0
  9  8  1  0  0  0  0
  9 11  1  0  0  0  0
 10 12  1  0  0  0  0
 12 15  2  0  0  0  0
 13 10  1  0  0  0  0
 14  9  2  0  0  0  0
 15 31  1  0  0  0  0
 16 13  1  0  0  0  0
 17  8  2  0  0  0  0
 18 14  1  0  0  0  0
 18  6  2  0  0  0  0
 19 20  1  0  0  0  0
 20 21  2  0  0  0  0
 22 24  1  6  0  0  0
 22 29  1  0  0  0  0
 22 27  1  0  0  0  0
 23 28  2  0  0  0  0
 25 27  1  0  0  0  0
 26 28  1  0  0  0  0
 26 22  1  0  0  0  0
 27 19  1  6  0  0  0
 28 25  1  0  0  0  0
 30 29  1  0  0  0  0
 31 32  1  0  0  0  0
M  END
>  <MODEL>
5

>  <REMARK>
 VINA RESULT:      -7.8      3.110      4.519
  Name = 
  4 active torsions:
  status: ('A' for Active; 'I' for Inactive)
    1  A    between atoms: C_3  and  C_22
    2  A    between atoms: C_4  and  C_24
    3  A    between atoms: C_13  and  C_29
    4  A    between atoms: N_16  and  C_20
                            x       y       z     vdW  Elec       q    Type
                         _______ _______ _______ _____ _____    ______ ____

>  <TORSDO>
F 4

$$$$
=
 OpenBabel10262421163D

 32 36  0  0  1  0  0  0  0  0999 V2000
  182.5800  179.3990  139.1650 O   0  0  0  0  0  0  0  0  0  0  0  0
  182.3490  178.9410  141.4880 C   0  0  0  0  0  0  0  0  0  0  0  0
  181.9960  179.7000  137.8980 C   0  0  2  0  0  3  0  0  0  0  0  0
  181.8210  179.3850  140.3420 C   0  0  0  0  0  0  0  0  0  0  0  0
  181.4930  178.8110  142.7270 C   0  0  1  0  0  3  0  0  0  0  0  0
  186.3650  178.0310  144.0680 C   0  0  0  0  0  3  0  0  0  0  0  0
  183.7610  178.5350  141.5820 C   0  0  0  0  0  2  0  0  0  0  0  0
  184.3150  178.6360  145.2060 C   0  0  0  0  0  3  0  0  0  0  0  0
  183.6320  178.6610  143.9850 C   0  0  0  0  0  0  0  0  0  0  0  0
  180.4820  179.9130  140.3290 N   0  0  0  0  0  0  0  0  0  0  0  0
  182.3180  178.9240  143.9840 C   0  0  0  0  0  2  0  0  0  0  0  0
  179.7670  180.1210  141.5550 C   0  0  0  0  0  3  0  0  0  0  0  0
  179.8390  180.2720  139.0700 C   0  0  0  0  0  2  0  0  0  0  0  0
  184.3430  178.4000  142.7810 C   0  0  0  0  0  0  0  0  0  0  0  0
  180.2620  179.6880  142.7180 C   0  0  0  0  0  0  0  0  0  0  0  0
  180.8700  180.7300  138.0380 C   0  0  0  0  0  2  0  0  0  0  0  0
  185.6750  178.3200  145.2480 C   0  0  0  0  0  3  0  0  0  0  0  0
  185.7020  178.0760  142.8390 C   0  0  0  0  0  3  0  0  0  0  0  0
  181.8950  177.1730  137.7380 N   0  0  0  0  0  2  0  0  0  0  0  0
  181.5180  178.4520  137.2240 C   0  0  0  0  0  0  0  0  0  0  0  0
  180.7560  178.5400  136.2240 O   0  0  0  0  0  0  0  0  0  0  0  0
  180.6460  175.0250  138.1050 C   0  0  2  0  0  0  0  0  0  0  0  0
  183.0090  172.7080  136.9590 O   0  0  0  0  0  0  0  0  0  0  0  0
  180.7720  175.4480  139.5650 C   0  0  0  0  0  1  0  0  0  0  0  0
  182.6790  175.0850  136.6990 C   0  0  0  0  0  2  0  0  0  0  0  0
  181.1860  173.7240  137.9620 O   0  0  0  0  0  0  0  0  0  0  0  0
  181.4700  175.9150  137.1340 C   0  0  2  0  0  3  0  0  0  0  0  0
  182.3320  173.7410  137.1970 C   0  0  0  0  0  0  0  0  0  0  0  0
  179.1730  175.0310  137.7180 C   0  0  0  0  0  2  0  0  0  0  0  0
  178.9860  175.6590  136.4830 O   0  0  0  0  0  1  0  0  0  0  0  0
  179.4420  179.8630  143.9520 C   0  0  0  0  0  2  0  0  0  0  0  0
  178.9510  178.5740  144.4070 N   0  0  0  0  0  1  0  0  0  0  0  0
  1  4  1  0  0  0  0
  2  7  1  0  0  0  0
  2  5  1  0  0  0  0
  3 20  1  1  0  0  0
  3 16  1  0  0  0  0
  3  1  1  0  0  0  0
  4  2  2  0  0  0  0
  5 11  1  1  0  0  0
  6 17  1  0  0  0  0
  7 14  1  0  0  0  0
  8 17  2  0  0  0  0
  9  8  1  0  0  0  0
 10  4  1  0  0  0  0
 10 12  1  0  0  0  0
 11  9  1  0  0  0  0
 12 15  2  0  0  0  0
 13 10  1  0  0  0  0
 14 18  1  0  0  0  0
 14  9  2  0  0  0  0
 15  5  1  0  0  0  0
 15 31  1  0  0  0  0
 16 13  1  0  0  0  0
 18  6  2  0  0  0  0
 20 19  1  0  0  0  0
 21 20  2  0  0  0  0
 22 24  1  1  0  0  0
 23 28  2  0  0  0  0
 25 27  1  0  0  0  0
 25 28  1  0  0  0  0
 26 22  1  0  0  0  0
 27 19  1  1  0  0  0
 27 22  1  0  0  0  0
 28 26  1  0  0  0  0
 29 22  1  0  0  0  0
 30 29  1  0  0  0  0
 31 32  1  0  0  0  0
M  END
>  <MODEL>
6

>  <REMARK>
 VINA RESULT:      -7.7      5.334      7.533
  Name = 
  4 active torsions:
  status: ('A' for Active; 'I' for Inactive)
    1  A    between atoms: C_3  and  C_22
    2  A    between atoms: C_4  and  C_24
    3  A    between atoms: C_13  and  C_29
    4  A    between atoms: N_16  and  C_20
                            x       y       z     vdW  Elec       q    Type
                         _______ _______ _______ _____ _____    ______ ____

>  <TORSDO>
F 4

$$$$
=
 OpenBabel10262421163D

 32 36  0  0  1  0  0  0  0  0999 V2000
  187.0600  178.8540  139.6260 O   0  0  0  0  0  0  0  0  0  0  0  0
  185.2510  177.9030  138.4100 C   0  0  0  0  0  0  0  0  0  0  0  0
  188.3980  178.7780  140.1190 C   0  0  2  0  0  3  0  0  0  0  0  0
  186.5500  177.9070  138.7290 C   0  0  0  0  0  0  0  0  0  0  0  0
  184.6790  176.8080  137.5390 C   0  0  1  0  0  3  0  0  0  0  0  0
  181.0850  180.3920  138.1540 C   0  0  0  0  0  3  0  0  0  0  0  0
  184.3280  178.9350  138.9120 C   0  0  0  0  0  2  0  0  0  0  0  0
  181.5140  178.5980  136.5850 C   0  0  0  0  0  3  0  0  0  0  0  0
  182.7190  178.3050  137.2320 C   0  0  0  0  0  0  0  0  0  0  0  0
  187.4450  176.9730  138.0980 N   0  0  0  0  0  0  0  0  0  0  0  0
  183.4560  177.2750  136.7930 C   0  0  0  0  0  2  0  0  0  0  0  0
  186.9940  176.1490  137.0140 C   0  0  0  0  0  3  0  0  0  0  0  0
  188.8330  176.8680  138.5320 C   0  0  0  0  0  2  0  0  0  0  0  0
  183.1270  179.0970  138.3410 C   0  0  0  0  0  0  0  0  0  0  0  0
  185.7040  176.1160  136.6700 C   0  0  0  0  0  0  0  0  0  0  0  0
  189.3470  178.2090  139.0590 C   0  0  0  0  0  2  0  0  0  0  0  0
  180.6990  179.6360  137.0450 C   0  0  0  0  0  3  0  0  0  0  0  0
  182.2980  180.1270  138.7960 C   0  0  0  0  0  3  0  0  0  0  0  0
  189.7120  177.6820  141.9900 N   0  0  0  0  0  2  0  0  0  0  0  0
  188.4520  177.9830  141.3860 C   0  0  0  0  0  0  0  0  0  0  0  0
  187.3780  177.6110  141.9300 O   0  0  0  0  0  0  0  0  0  0  0  0
  190.5730  177.6910  144.3490 C   0  0  2  0  0  0  0  0  0  0  0  0
  192.3600  174.6790  144.3870 O   0  0  0  0  0  0  0  0  0  0  0  0
  191.3290  178.9150  143.8440 C   0  0  0  0  0  1  0  0  0  0  0  0
  190.6470  175.6340  142.9790 C   0  0  0  0  0  2  0  0  0  0  0  0
  191.5060  176.7720  144.8880 O   0  0  0  0  0  0  0  0  0  0  0  0
  189.8430  176.9120  143.2210 C   0  0  2  0  0  3  0  0  0  0  0  0
  191.5750  175.6270  144.1260 C   0  0  0  0  0  0  0  0  0  0  0  0
  189.5860  178.1320  145.4220 C   0  0  0  0  0  2  0  0  0  0  0  0
  188.3630  177.4750  145.2720 O   0  0  0  0  0  1  0  0  0  0  0  0
  185.2780  175.1850  135.5840 C   0  0  0  0  0  2  0  0  0  0  0  0
  186.3200  174.2020  135.3400 N   0  0  0  0  0  1  0  0  0  0  0  0
  1  3  1  0  0  0  0
  2  4  2  0  0  0  0
  2  7  1  0  0  0  0
  3 20  1  1  0  0  0
  4  1  1  0  0  0  0
  5 11  1  6  0  0  0
  5  2  1  0  0  0  0
  6 18  1  0  0  0  0
  8 17  1  0  0  0  0
  8  9  2  0  0  0  0
  9 14  1  0  0  0  0
 10 13  1  0  0  0  0
 10  4  1  0  0  0  0
 11  9  1  0  0  0  0
 12 10  1  0  0  0  0
 13 16  1  0  0  0  0
 14 18  2  0  0  0  0
 14  7  1  0  0  0  0
 15 12  2  0  0  0  0
 15  5  1  0  0  0  0
 16  3  1  0  0  0  0
 17  6  2  0  0  0  0
 20 21  2  0  0  0  0
 20 19  1  0  0  0  0
 22 24  1  6  0  0  0
 22 26  1  0  0  0  0
 22 29  1  0  0  0  0
 25 27  1  0  0  0  0
 25 28  1  0  0  0  0
 27 19  1  6  0  0  0
 27 22  1  0  0  0  0
 28 23  2  0  0  0  0
 28 26  1  0  0  0  0
 30 29  1  0  0  0  0
 31 15  1  0  0  0  0
 32 31  1  0  0  0  0
M  END
>  <MODEL>
7

>  <REMARK>
 VINA RESULT:      -7.6      3.687      8.533
  Name = 
  4 active torsions:
  status: ('A' for Active; 'I' for Inactive)
    1  A    between atoms: C_3  and  C_22
    2  A    between atoms: C_4  and  C_24
    3  A    between atoms: C_13  and  C_29
    4  A    between atoms: N_16  and  C_20
                            x       y       z     vdW  Elec       q    Type
                         _______ _______ _______ _____ _____    ______ ____

>  <TORSDO>
F 4

$$$$
=
 OpenBabel10262421163D

 32 36  0  0  1  0  0  0  0  0999 V2000
  184.1890  178.1850  140.6790 O   0  0  0  0  0  0  0  0  0  0  0  0
  186.3760  178.2910  141.6080 C   0  0  0  0  0  0  0  0  0  0  0  0
  183.3130  178.2890  139.5570 C   0  0  2  0  0  3  0  0  0  0  0  0
  185.5810  178.2240  140.5340 C   0  0  0  0  0  0  0  0  0  0  0  0
  187.8700  178.4550  141.4470 C   0  0  1  0  0  3  0  0  0  0  0  0
  186.8930  177.5240  146.3790 C   0  0  0  0  0  3  0  0  0  0  0  0
  185.8330  178.2400  142.9760 C   0  0  0  0  0  2  0  0  0  0  0  0
  188.8190  177.3680  144.9190 C   0  0  0  0  0  3  0  0  0  0  0  0
  188.0350  177.7520  143.8260 C   0  0  0  0  0  0  0  0  0  0  0  0
  186.1610  178.1240  139.2210 N   0  0  0  0  0  0  0  0  0  0  0  0
  188.6200  177.8930  142.6280 C   0  0  0  0  0  2  0  0  0  0  0  0
  187.5730  177.9320  139.0580 C   0  0  0  0  0  3  0  0  0  0  0  0
  185.3180  178.1890  138.0320 C   0  0  0  0  0  2  0  0  0  0  0  0
  186.6460  177.9920  144.0120 C   0  0  0  0  0  0  0  0  0  0  0  0
  188.3980  177.9960  140.1070 C   0  0  0  0  0  0  0  0  0  0  0  0
  183.9240  177.6290  138.3160 C   0  0  0  0  0  2  0  0  0  0  0  0
  188.2520  177.2560  146.1910 C   0  0  0  0  0  3  0  0  0  0  0  0
  186.0930  177.8860  145.2920 C   0  0  0  0  0  3  0  0  0  0  0  0
  181.5800  180.1190  139.2910 N   0  0  0  0  0  2  0  0  0  0  0  0
  182.9520  179.7180  139.2960 C   0  0  0  0  0  0  0  0  0  0  0  0
  183.8660  180.5650  139.1140 O   0  0  0  0  0  0  0  0  0  0  0  0
  179.6230  181.6130  138.7920 C   0  0  2  0  0  0  0  0  0  0  0  0
  180.8690  183.4010  136.0500 O   0  0  0  0  0  0  0  0  0  0  0  0
  178.9560  180.2790  138.4770 C   0  0  0  0  0  1  0  0  0  0  0  0
  181.8450  182.0610  137.8040 C   0  0  0  0  0  2  0  0  0  0  0  0
  179.5010  182.4590  137.6630 O   0  0  0  0  0  0  0  0  0  0  0  0
  181.1520  181.4910  139.0420 C   0  0  2  0  0  3  0  0  0  0  0  0
  180.7280  182.7040  137.0870 C   0  0  0  0  0  0  0  0  0  0  0  0
  178.9310  182.2370  139.9970 C   0  0  0  0  0  2  0  0  0  0  0  0
  179.1430  181.4700  141.1450 O   0  0  0  0  0  1  0  0  0  0  0  0
  189.8650  177.8630  139.8710 C   0  0  0  0  0  2  0  0  0  0  0  0
  190.1040  177.2970  138.5550 N   0  0  0  0  0  1  0  0  0  0  0  0
  2  7  1  0  0  0  0
  3 20  1  6  0  0  0
  3  1  1  0  0  0  0
  4  1  1  0  0  0  0
  4  2  2  0  0  0  0
  5  2  1  0  0  0  0
  5 11  1  1  0  0  0
  7 14  1  0  0  0  0
  8 17  2  0  0  0  0
  9 14  2  0  0  0  0
  9  8  1  0  0  0  0
 10  4  1  0  0  0  0
 11  9  1  0  0  0  0
 12 10  1  0  0  0  0
 12 15  2  0  0  0  0
 13 16  1  0  0  0  0
 13 10  1  0  0  0  0
 14 18  1  0  0  0  0
 15  5  1  0  0  0  0
 16  3  1  0  0  0  0
 17  6  1  0  0  0  0
 18  6  2  0  0  0  0
 19 20  1  0  0  0  0
 21 20  2  0  0  0  0
 22 24  1  6  0  0  0
 22 27  1  0  0  0  0
 22 29  1  0  0  0  0
 23 28  2  0  0  0  0
 25 27  1  0  0  0  0
 26 22  1  0  0  0  0
 27 19  1  6  0  0  0
 28 26  1  0  0  0  0
 28 25  1  0  0  0  0
 29 30  1  0  0  0  0
 31 15  1  0  0  0  0
 32 31  1  0  0  0  0
M  END
>  <MODEL>
8

>  <REMARK>
 VINA RESULT:      -7.3      5.472      7.677
  Name = 
  4 active torsions:
  status: ('A' for Active; 'I' for Inactive)
    1  A    between atoms: C_3  and  C_22
    2  A    between atoms: C_4  and  C_24
    3  A    between atoms: C_13  and  C_29
    4  A    between atoms: N_16  and  C_20
                            x       y       z     vdW  Elec       q    Type
                         _______ _______ _______ _____ _____    ______ ____

>  <TORSDO>
F 4

$$$$
=
 OpenBabel10262421163D

 32 36  0  0  1  0  0  0  0  0999 V2000
  186.4750  178.6710  139.8370 O   0  0  0  0  0  0  0  0  0  0  0  0
  186.9950  178.0430  142.0710 C   0  0  0  0  0  0  0  0  0  0  0  0
  185.5120  178.9290  138.8140 C   0  0  2  0  0  3  0  0  0  0  0  0
  186.0960  178.4440  141.1650 C   0  0  0  0  0  0  0  0  0  0  0  0
  186.5620  177.6820  143.4730 C   0  0  1  0  0  3  0  0  0  0  0  0
  191.6730  177.7660  143.3570 C   0  0  0  0  0  3  0  0  0  0  0  0
  188.4220  177.9090  141.7360 C   0  0  0  0  0  2  0  0  0  0  0  0
  189.9610  177.9030  145.0650 C   0  0  0  0  0  3  0  0  0  0  0  0
  188.9650  177.8680  144.0840 C   0  0  0  0  0  0  0  0  0  0  0  0
  184.7400  178.7080  141.5720 N   0  0  0  0  0  0  0  0  0  0  0  0
  187.6800  177.8760  144.4660 C   0  0  0  0  0  2  0  0  0  0  0  0
  184.3800  178.7050  142.9600 C   0  0  0  0  0  3  0  0  0  0  0  0
  183.7150  179.0120  140.5800 C   0  0  0  0  0  2  0  0  0  0  0  0
  189.3360  177.8170  142.7120 C   0  0  0  0  0  0  0  0  0  0  0  0
  185.2510  178.3070  143.8920 C   0  0  0  0  0  0  0  0  0  0  0  0
  184.3180  179.7160  139.3640 C   0  0  0  0  0  2  0  0  0  0  0  0
  191.3100  177.8490  144.7040 C   0  0  0  0  0  3  0  0  0  0  0  0
  190.6890  177.7550  142.3650 C   0  0  0  0  0  3  0  0  0  0  0  0
  183.7180  177.4910  137.7470 N   0  0  0  0  0  2  0  0  0  0  0  0
  185.0760  177.6540  138.1630 C   0  0  0  0  0  0  0  0  0  0  0  0
  185.9210  176.7420  137.9580 O   0  0  0  0  0  0  0  0  0  0  0  0
  182.2210  175.4910  138.0020 C   0  0  2  0  0  0  0  0  0  0  0  0
  184.4210  172.9260  137.0820 O   0  0  0  0  0  0  0  0  0  0  0  0
  182.2570  175.9160  139.4660 C   0  0  0  0  0  1  0  0  0  0  0  0
  184.3690  175.3210  136.7890 C   0  0  0  0  0  2  0  0  0  0  0  0
  182.6320  174.1390  137.9110 O   0  0  0  0  0  0  0  0  0  0  0  0
  183.2190  176.2780  137.1090 C   0  0  2  0  0  3  0  0  0  0  0  0
  183.8370  174.0270  137.2550 C   0  0  0  0  0  0  0  0  0  0  0  0
  180.7980  175.6470  137.4810 C   0  0  0  0  0  2  0  0  0  0  0  0
  179.9030  174.8960  138.2470 O   0  0  0  0  0  1  0  0  0  0  0  0
  184.8000  178.2520  145.3130 C   0  0  0  0  0  2  0  0  0  0  0  0
  183.5660  179.0020  145.4690 N   0  0  0  0  0  1  0  0  0  0  0  0
  1  4  1  0  0  0  0
  2  5  1  0  0  0  0
  3 20  1  1  0  0  0
  3 16  1  0  0  0  0
  3  1  1  0  0  0  0
  4 10  1  0  0  0  0
  4  2  2  0  0  0  0
  5 15  1  0  0  0  0
  5 11  1  1  0  0  0
  6 17  1  0  0  0  0
  7  2  1  0  0  0  0
  7 14  1  0  0  0  0
  9 11  1  0  0  0  0
  9  8  1  0  0  0  0
 10 12  1  0  0  0  0
 12 15  2  0  0  0  0
 13 10  1  0  0  0  0
 14  9  2  0  0  0  0
 15 31  1  0  0  0  0
 16 13  1  0  0  0  0
 17  8  2  0  0  0  0
 18 14  1  0  0  0  0
 18  6  2  0  0  0  0
 19 20  1  0  0  0  0
 21 20  2  0  0  0  0
 22 24  1  1  0  0  0
 23 28  2  0  0  0  0
 25 27  1  0  0  0  0
 25 28  1  0  0  0  0
 26 22  1  0  0  0  0
 27 19  1  1  0  0  0
 27 22  1  0  0  0  0
 28 26  1  0  0  0  0
 29 22  1  0  0  0  0
 29 30  1  0  0  0  0
 31 32  1  0  0  0  0
M  END
>  <MODEL>
9

>  <REMARK>
 VINA RESULT:      -7.0      3.330      4.755
  Name = 
  4 active torsions:
  status: ('A' for Active; 'I' for Inactive)
    1  A    between atoms: C_3  and  C_22
    2  A    between atoms: C_4  and  C_24
    3  A    between atoms: C_13  and  C_29
    4  A    between atoms: N_16  and  C_20
                            x       y       z     vdW  Elec       q    Type
                         _______ _______ _______ _____ _____    ______ ____

>  <TORSDO>
F 4

$$$$
