=
 OpenBabel10262422173D

 43 49  0  0  1  0  0  0  0  0999 V2000
  191.4430  176.2440  146.9430 C   0  0  0  0  0  0  0  0  0  0  0  0
  187.2100  177.9240  144.5170 C   0  0  0  0  0  0  0  0  0  0  0  0
  187.9410  177.9190  141.7230 C   0  0  0  0  0  0  0  0  0  0  0  0
  189.1770  177.0160  146.4270 C   0  0  0  0  0  0  0  0  0  0  0  0
  191.7800  176.3990  145.6050 C   0  0  0  0  0  3  0  0  0  0  0  0
  192.4700  175.9380  147.9590 C   0  0  0  0  0  1  0  0  0  0  0  0
  189.4940  177.1210  145.0290 C   0  0  0  0  0  0  0  0  0  0  0  0
  190.1170  176.5690  147.3280 C   0  0  0  0  0  3  0  0  0  0  0  0
  190.8380  176.8100  144.6820 C   0  0  0  0  0  3  0  0  0  0  0  0
  188.8270  177.4420  142.6950 C   0  0  0  0  0  3  0  0  0  0  0  0
  188.5310  177.4800  144.0830 C   0  0  0  0  0  0  0  0  0  0  0  0
  186.9570  177.9590  145.9000 C   0  0  0  0  0  3  0  0  0  0  0  0
  186.2650  178.2690  143.4940 C   0  0  0  0  0  0  0  0  0  0  0  0
  186.6220  178.3740  142.1430 C   0  0  0  0  0  3  0  0  0  0  0  0
  187.9050  177.5130  146.8450 C   0  0  0  0  0  3  0  0  0  0  0  0
  188.4310  177.6160  140.2550 C   0  0  2  0  0  3  0  0  0  0  0  0
  189.5430  176.7400  140.1800 O   0  0  0  0  0  0  0  0  0  0  0  0
  188.6620  178.7710  139.2940 C   0  0  0  0  0  2  0  0  0  0  0  0
  190.4020  177.1890  139.1400 C   0  0  2  0  0  3  0  0  0  0  0  0
  189.6010  178.1350  138.2530 C   0  0  0  0  0  2  0  0  0  0  0  0
  191.3930  176.0820  138.6570 C   0  0  0  0  0  2  0  0  0  0  0  0
  191.1430  175.6860  137.2800 N   0  0  0  0  0  0  0  0  0  0  0  0
  191.9930  173.5930  136.6140 C   0  0  0  0  0  2  0  0  0  0  0  0
  190.0040  174.7570  137.1590 C   0  0  0  0  0  2  0  0  0  0  0  0
  192.2590  175.0530  136.5520 C   0  0  1  0  0  0  0  0  0  0  0  0
  192.1660  175.4510  135.2280 O   0  0  0  0  0  1  0  0  0  0  0  0
  190.4880  173.4490  136.5680 C   0  0  0  0  0  2  0  0  0  0  0  0
  193.6630  175.4340  137.0630 C   0  0  0  0  0  2  0  0  0  0  0  0
  194.6170  174.3090  137.0770 N   0  0  0  0  0  0  0  0  0  0  0  0
  196.9070  174.9630  136.4050 C   0  0  0  0  0  2  0  0  0  0  0  0
  196.6740  173.5450  138.2640 C   0  0  0  0  0  2  0  0  0  0  0  0
  197.5010  173.9180  137.1510 O   0  0  0  0  0  0  0  0  0  0  0  0
  195.3840  174.4010  138.3360 C   0  0  0  0  0  2  0  0  0  0  0  0
  195.5460  174.4370  135.9220 C   0  0  0  0  0  2  0  0  0  0  0  0
  184.9770  178.7840  143.9950 O   0  0  0  0  0  0  0  0  0  0  0  0
  182.2160  178.4230  141.2930 C   0  0  0  0  0  2  0  0  0  0  0  0
  181.1210  178.8210  142.2490 C   0  0  2  0  0  3  0  0  0  0  0  0
  182.6010  179.1110  144.2070 C   0  0  0  0  0  2  0  0  0  0  0  0
  183.5670  178.7450  141.9150 C   0  0  0  0  0  2  0  0  0  0  0  0
  183.7270  178.4900  143.4100 C   0  0  1  0  0  3  0  0  0  0  0  0
  181.2550  178.5760  143.7450 C   0  0  0  0  0  2  0  0  0  0  0  0
  179.3080  177.4030  142.0310 O   0  0  0  0  0  1  0  0  0  0  0  0
  179.7520  178.6870  141.7320 C   0  0  0  0  0  2  0  0  0  0  0  0
  1  8  1  0  0  0  0
  1  6  1  0  0  0  0
  2 12  1  0  0  0  0
  3 14  2  0  0  0  0
  3 10  1  0  0  0  0
  4 15  1  0  0  0  0
  4  8  2  0  0  0  0
  5  1  2  0  0  0  0
  7  4  1  0  0  0  0
  9  7  2  0  0  0  0
  9  5  1  0  0  0  0
 10 11  2  0  0  0  0
 11  2  1  0  0  0  0
 11  7  1  0  0  0  0
 12 15  2  0  0  0  0
 13 35  1  0  0  0  0
 13  2  2  0  0  0  0
 14 13  1  0  0  0  0
 16  3  1  1  0  0  0
 17 16  1  0  0  0  0
 18 16  1  0  0  0  0
 19 21  1  6  0  0  0
 19 17  1  0  0  0  0
 20 19  1  0  0  0  0
 20 18  1  0  0  0  0
 22 21  1  0  0  0  0
 24 22  1  0  0  0  0
 25 26  1  6  0  0  0
 25 23  1  0  0  0  0
 25 28  1  0  0  0  0
 25 22  1  0  0  0  0
 27 23  1  0  0  0  0
 27 24  1  0  0  0  0
 28 29  1  0  0  0  0
 29 33  1  0  0  0  0
 30 32  1  0  0  0  0
 31 33  1  0  0  0  0
 32 31  1  0  0  0  0
 34 30  1  0  0  0  0
 34 29  1  0  0  0  0
 36 39  1  0  0  0  0
 36 37  1  0  0  0  0
 37 43  1  6  0  0  0
 37 41  1  0  0  0  0
 39 40  1  0  0  0  0
 40 35  1  1  0  0  0
 40 38  1  0  0  0  0
 41 38  1  0  0  0  0
 43 42  1  0  0  0  0
M  END
>  <MODEL>
1

>  <REMARK>
 VINA RESULT:     -10.8      0.000      0.000
  Name = 
  8 active torsions:
  status: ('A' for Active; 'I' for Inactive)
    1  A    between atoms: O_1  and  C_34
    2  A    between atoms: O_1  and  C_35
    3  A    between atoms: C_2  and  C_13
    4  A    between atoms: C_3  and  N_4
    5  A    between atoms: C_3  and  C_12
    6  A    between atoms: N_11  and  C_14
    7  A    between atoms: C_14  and  C_22
    8  A    between atoms: C_19  and  C_37
                            x       y       z     vdW  Elec       q    Type
                         _______ _______ _______ _____ _____    ______ ____

>  <TORSDO>
F 8

$$$$
=
 OpenBabel10262422173D

 43 49  0  0  1  0  0  0  0  0999 V2000
  191.2590  176.3830  146.7080 C   0  0  0  0  0  0  0  0  0  0  0  0
  187.0230  178.1280  144.3340 C   0  0  0  0  0  0  0  0  0  0  0  0
  187.8240  178.4240  141.5760 C   0  0  0  0  0  0  0  0  0  0  0  0
  188.9770  177.1140  146.2030 C   0  0  0  0  0  0  0  0  0  0  0  0
  191.6230  176.6810  145.4020 C   0  0  0  0  0  3  0  0  0  0  0  0
  192.2730  176.0190  147.7190 C   0  0  0  0  0  1  0  0  0  0  0  0
  189.3240  177.3670  144.8320 C   0  0  0  0  0  0  0  0  0  0  0  0
  189.9120  176.6170  147.0840 C   0  0  0  0  0  3  0  0  0  0  0  0
  190.6880  177.1440  144.4960 C   0  0  0  0  0  3  0  0  0  0  0  0
  188.7030  177.8890  142.5220 C   0  0  0  0  0  3  0  0  0  0  0  0
  188.3720  177.7790  143.8980 C   0  0  0  0  0  0  0  0  0  0  0  0
  186.7340  178.0170  145.7070 C   0  0  0  0  0  3  0  0  0  0  0  0
  186.0900  178.5340  143.3220 C   0  0  0  0  0  0  0  0  0  0  0  0
  186.4770  178.7840  141.9990 C   0  0  0  0  0  3  0  0  0  0  0  0
  187.6760  177.5170  146.6310 C   0  0  0  0  0  3  0  0  0  0  0  0
  188.3620  178.2850  140.1000 C   0  0  2  0  0  3  0  0  0  0  0  0
  187.5260  177.5240  139.2440 O   0  0  0  0  0  0  0  0  0  0  0  0
  189.8030  177.8590  139.8700 C   0  0  0  0  0  2  0  0  0  0  0  0
  188.3500  176.7410  138.3890 C   0  0  2  0  0  3  0  0  0  0  0  0
  189.7530  177.3360  138.4230 C   0  0  0  0  0  2  0  0  0  0  0  0
  187.5900  176.2270  137.1250 C   0  0  0  0  0  2  0  0  0  0  0  0
  187.4240  174.7820  137.1350 N   0  0  0  0  0  0  0  0  0  0  0  0
  186.3150  173.8350  135.2860 C   0  0  0  0  0  2  0  0  0  0  0  0
  188.4350  174.0930  136.3120 C   0  0  0  0  0  2  0  0  0  0  0  0
  186.1180  174.2540  136.6970 C   0  0  1  0  0  0  0  0  0  0  0  0
  185.8580  173.1210  137.4500 O   0  0  0  0  0  1  0  0  0  0  0  0
  187.7380  173.3270  135.2060 C   0  0  0  0  0  2  0  0  0  0  0  0
  184.9350  175.2260  136.8790 C   0  0  0  0  0  2  0  0  0  0  0  0
  183.7830  174.6350  137.5880 N   0  0  0  0  0  0  0  0  0  0  0  0
  181.9080  176.2200  137.8930 C   0  0  0  0  0  2  0  0  0  0  0  0
  181.3930  174.0330  137.2080 C   0  0  0  0  0  2  0  0  0  0  0  0
  180.9460  175.1840  137.9410 O   0  0  0  0  0  0  0  0  0  0  0  0
  182.7850  174.2620  136.5650 C   0  0  0  0  0  2  0  0  0  0  0  0
  183.1970  175.6500  138.5050 C   0  0  0  0  0  2  0  0  0  0  0  0
  184.7690  178.9470  143.8330 O   0  0  0  0  0  0  0  0  0  0  0  0
  182.0890  178.2220  141.1240 C   0  0  0  0  0  2  0  0  0  0  0  0
  180.9610  178.6970  142.0030 C   0  0  2  0  0  3  0  0  0  0  0  0
  182.3830  179.2390  143.9510 C   0  0  0  0  0  2  0  0  0  0  0  0
  183.4160  178.6430  141.7380 C   0  0  0  0  0  2  0  0  0  0  0  0
  183.5420  178.5600  143.2550 C   0  0  1  0  0  3  0  0  0  0  0  0
  181.0610  178.6240  143.5190 C   0  0  0  0  0  2  0  0  0  0  0  0
  179.2690  177.1480  141.7180 O   0  0  0  0  0  1  0  0  0  0  0  0
  179.6090  178.4740  141.4720 C   0  0  0  0  0  2  0  0  0  0  0  0
  1  8  1  0  0  0  0
  1  6  1  0  0  0  0
  2 12  1  0  0  0  0
  3 14  2  0  0  0  0
  3 10  1  0  0  0  0
  4 15  1  0  0  0  0
  4  8  2  0  0  0  0
  5  1  2  0  0  0  0
  7  4  1  0  0  0  0
  9  7  2  0  0  0  0
  9  5  1  0  0  0  0
 10 11  2  0  0  0  0
 11  2  1  0  0  0  0
 11  7  1  0  0  0  0
 12 15  2  0  0  0  0
 13 35  1  0  0  0  0
 13  2  2  0  0  0  0
 14 13  1  0  0  0  0
 16  3  1  1  0  0  0
 17 16  1  0  0  0  0
 18 16  1  0  0  0  0
 19 21  1  6  0  0  0
 19 20  1  0  0  0  0
 19 17  1  0  0  0  0
 20 18  1  0  0  0  0
 21 22  1  0  0  0  0
 23 25  1  0  0  0  0
 24 22  1  0  0  0  0
 25 28  1  0  0  0  0
 25 22  1  0  0  0  0
 25 26  1  1  0  0  0
 27 23  1  0  0  0  0
 27 24  1  0  0  0  0
 28 29  1  0  0  0  0
 29 34  1  0  0  0  0
 30 32  1  0  0  0  0
 30 34  1  0  0  0  0
 31 32  1  0  0  0  0
 33 31  1  0  0  0  0
 33 29  1  0  0  0  0
 36 39  1  0  0  0  0
 36 37  1  0  0  0  0
 37 43  1  6  0  0  0
 37 41  1  0  0  0  0
 39 40  1  0  0  0  0
 40 35  1  1  0  0  0
 40 38  1  0  0  0  0
 41 38  1  0  0  0  0
 43 42  1  0  0  0  0
M  END
>  <MODEL>
2

>  <REMARK>
 VINA RESULT:     -10.5      3.445      5.789
  Name = 
  8 active torsions:
  status: ('A' for Active; 'I' for Inactive)
    1  A    between atoms: O_1  and  C_34
    2  A    between atoms: O_1  and  C_35
    3  A    between atoms: C_2  and  C_13
    4  A    between atoms: C_3  and  N_4
    5  A    between atoms: C_3  and  C_12
    6  A    between atoms: N_11  and  C_14
    7  A    between atoms: C_14  and  C_22
    8  A    between atoms: C_19  and  C_37
                            x       y       z     vdW  Elec       q    Type
                         _______ _______ _______ _____ _____    ______ ____

>  <TORSDO>
F 8

$$$$
=
 OpenBabel10262422173D

 43 49  0  0  1  0  0  0  0  0999 V2000
  191.1490  176.7170  146.8580 C   0  0  0  0  0  0  0  0  0  0  0  0
  189.1190  178.1640  142.3400 C   0  0  0  0  0  0  0  0  0  0  0  0
  186.2660  178.0420  142.7700 C   0  0  0  0  0  0  0  0  0  0  0  0
  190.8460  177.5060  144.5590 C   0  0  0  0  0  0  0  0  0  0  0  0
  189.7760  176.5410  146.9590 C   0  0  0  0  0  3  0  0  0  0  0  0
  192.0600  176.2380  147.9170 C   0  0  0  0  0  1  0  0  0  0  0  0
  189.4180  177.3890  144.6710 C   0  0  0  0  0  0  0  0  0  0  0  0
  191.6610  177.2050  145.6280 C   0  0  0  0  0  3  0  0  0  0  0  0
  188.9420  176.8760  145.9090 C   0  0  0  0  0  3  0  0  0  0  0  0
  187.1590  177.7870  143.8170 C   0  0  0  0  0  3  0  0  0  0  0  0
  188.5660  177.7800  143.6360 C   0  0  0  0  0  0  0  0  0  0  0  0
  190.5180  178.1330  142.1950 C   0  0  0  0  0  3  0  0  0  0  0  0
  188.1900  178.5640  141.3220 C   0  0  0  0  0  0  0  0  0  0  0  0
  186.8040  178.4170  141.4690 C   0  0  0  0  0  3  0  0  0  0  0  0
  191.3750  177.8210  143.2710 C   0  0  0  0  0  3  0  0  0  0  0  0
  184.7720  178.1550  143.2610 C   0  0  2  0  0  3  0  0  0  0  0  0
  183.8090  178.0410  142.2270 O   0  0  0  0  0  0  0  0  0  0  0  0
  184.3710  179.3070  144.1680 C   0  0  0  0  0  2  0  0  0  0  0  0
  182.7520  178.9540  142.4920 C   0  0  2  0  0  3  0  0  0  0  0  0
  182.8460  179.3610  143.9580 C   0  0  0  0  0  2  0  0  0  0  0  0
  181.4450  178.6080  141.7080 C   0  0  0  0  0  2  0  0  0  0  0  0
  181.3240  179.3790  140.4810 N   0  0  0  0  0  0  0  0  0  0  0  0
  179.8640  178.5270  138.8410 C   0  0  0  0  0  2  0  0  0  0  0  0
  180.1200  180.2310  140.4670 C   0  0  0  0  0  2  0  0  0  0  0  0
  181.2980  178.6230  139.2140 C   0  0  1  0  0  0  0  0  0  0  0  0
  181.9400  179.3950  138.2600 O   0  0  0  0  0  1  0  0  0  0  0  0
  179.2320  179.8200  139.3100 C   0  0  0  0  0  2  0  0  0  0  0  0
  182.0020  177.2520  139.2650 C   0  0  0  0  0  2  0  0  0  0  0  0
  181.8920  176.4790  138.0140 N   0  0  0  0  0  0  0  0  0  0  0  0
  183.6110  174.7110  137.8050 C   0  0  0  0  0  2  0  0  0  0  0  0
  181.4030  174.1670  137.2170 C   0  0  0  0  0  2  0  0  0  0  0  0
  182.7950  173.9170  136.9660 O   0  0  0  0  0  0  0  0  0  0  0  0
  181.1970  175.2170  138.3380 C   0  0  0  0  0  2  0  0  0  0  0  0
  183.2560  176.1760  137.5020 C   0  0  0  0  0  2  0  0  0  0  0  0
  188.8010  178.8640  140.0140 O   0  0  0  0  0  0  0  0  0  0  0  0
  188.9910  175.8640  137.5620 C   0  0  0  0  0  2  0  0  0  0  0  0
  189.0850  176.7590  136.3540 C   0  0  2  0  0  3  0  0  0  0  0  0
  188.9500  178.8820  137.6120 C   0  0  0  0  0  2  0  0  0  0  0  0
  189.2120  176.6930  138.8190 C   0  0  0  0  0  2  0  0  0  0  0  0
  188.6020  178.0900  138.8520 C   0  0  1  0  0  3  0  0  0  0  0  0
  188.4830  178.1560  136.3600 C   0  0  0  0  0  2  0  0  0  0  0  0
  187.7480  175.5210  134.9310 O   0  0  0  0  0  1  0  0  0  0  0  0
  189.0170  176.0750  135.0540 C   0  0  0  0  0  2  0  0  0  0  0  0
  1  5  1  0  0  0  0
  1  6  1  0  0  0  0
  2 11  1  0  0  0  0
  3 10  1  0  0  0  0
  4  7  2  0  0  0  0
  4  8  1  0  0  0  0
  7  9  1  0  0  0  0
  8  1  2  0  0  0  0
  9  5  2  0  0  0  0
 11 10  2  0  0  0  0
 11  7  1  0  0  0  0
 12  2  1  0  0  0  0
 12 15  2  0  0  0  0
 13 14  1  0  0  0  0
 13  2  2  0  0  0  0
 14  3  2  0  0  0  0
 15  4  1  0  0  0  0
 16  3  1  6  0  0  0
 16 18  1  0  0  0  0
 17 19  1  0  0  0  0
 17 16  1  0  0  0  0
 19 21  1  1  0  0  0
 19 20  1  0  0  0  0
 20 18  1  0  0  0  0
 22 21  1  0  0  0  0
 23 25  1  0  0  0  0
 23 27  1  0  0  0  0
 24 22  1  0  0  0  0
 25 26  1  6  0  0  0
 25 28  1  0  0  0  0
 25 22  1  0  0  0  0
 27 24  1  0  0  0  0
 29 33  1  0  0  0  0
 29 28  1  0  0  0  0
 31 33  1  0  0  0  0
 32 31  1  0  0  0  0
 32 30  1  0  0  0  0
 34 30  1  0  0  0  0
 34 29  1  0  0  0  0
 35 13  1  0  0  0  0
 36 39  1  0  0  0  0
 37 43  1  6  0  0  0
 37 41  1  0  0  0  0
 37 36  1  0  0  0  0
 38 40  1  0  0  0  0
 39 40  1  0  0  0  0
 40 35  1  1  0  0  0
 41 38  1  0  0  0  0
 42 43  1  0  0  0  0
M  END
>  <MODEL>
3

>  <REMARK>
 VINA RESULT:     -10.1      4.094      8.885
  Name = 
  8 active torsions:
  status: ('A' for Active; 'I' for Inactive)
    1  A    between atoms: O_1  and  C_34
    2  A    between atoms: O_1  and  C_35
    3  A    between atoms: C_2  and  C_13
    4  A    between atoms: C_3  and  N_4
    5  A    between atoms: C_3  and  C_12
    6  A    between atoms: N_11  and  C_14
    7  A    between atoms: C_14  and  C_22
    8  A    between atoms: C_19  and  C_37
                            x       y       z     vdW  Elec       q    Type
                         _______ _______ _______ _____ _____    ______ ____

>  <TORSDO>
F 8

$$$$
=
 OpenBabel10262422173D

 43 49  0  0  1  0  0  0  0  0999 V2000
  180.9430  179.1390  142.0350 C   0  0  0  0  0  0  0  0  0  0  0  0
  185.6880  178.5120  143.9620 C   0  0  0  0  0  0  0  0  0  0  0  0
  187.3620  178.1710  141.6340 C   0  0  0  0  0  0  0  0  0  0  0  0
  182.8680  178.9680  143.5390 C   0  0  0  0  0  0  0  0  0  0  0  0
  181.7730  178.8280  140.9670 C   0  0  0  0  0  3  0  0  0  0  0  0
  179.4770  179.2170  141.8650 C   0  0  0  0  0  1  0  0  0  0  0  0
  183.7500  178.7070  142.4350 C   0  0  0  0  0  0  0  0  0  0  0  0
  181.5270  179.1990  143.3260 C   0  0  0  0  0  3  0  0  0  0  0  0
  183.1270  178.6310  141.1590 C   0  0  0  0  0  3  0  0  0  0  0  0
  185.9980  178.4470  141.4990 C   0  0  0  0  0  3  0  0  0  0  0  0
  185.1280  178.5660  142.6140 C   0  0  0  0  0  0  0  0  0  0  0  0
  184.7940  178.6210  145.0420 C   0  0  0  0  0  3  0  0  0  0  0  0
  187.1120  178.3750  144.0760 C   0  0  0  0  0  0  0  0  0  0  0  0
  187.9330  178.1050  142.9720 C   0  0  0  0  0  3  0  0  0  0  0  0
  183.4150  178.8500  144.8520 C   0  0  0  0  0  3  0  0  0  0  0  0
  188.1360  178.2520  140.2620 C   0  0  2  0  0  3  0  0  0  0  0  0
  187.4800  177.6100  139.1830 O   0  0  0  0  0  0  0  0  0  0  0  0
  189.6110  177.8860  140.2170 C   0  0  0  0  0  2  0  0  0  0  0  0
  188.4600  176.9680  138.3760 C   0  0  2  0  0  3  0  0  0  0  0  0
  189.8150  177.5740  138.7230 C   0  0  0  0  0  2  0  0  0  0  0  0
  187.9340  176.6300  136.9440 C   0  0  0  0  0  2  0  0  0  0  0  0
  187.6170  175.2180  136.7980 N   0  0  0  0  0  0  0  0  0  0  0  0
  186.8880  174.5170  134.6710 C   0  0  0  0  0  2  0  0  0  0  0  0
  188.7150  174.4550  136.1770 C   0  0  0  0  0  2  0  0  0  0  0  0
  186.4050  174.8800  136.0280 C   0  0  1  0  0  0  0  0  0  0  0  0
  185.8510  173.7490  136.6050 O   0  0  0  0  0  1  0  0  0  0  0  0
  188.2260  173.8420  134.8810 C   0  0  0  0  0  2  0  0  0  0  0  0
  185.3230  175.9790  136.0100 C   0  0  0  0  0  2  0  0  0  0  0  0
  184.3180  175.8430  137.0810 N   0  0  0  0  0  0  0  0  0  0  0  0
  182.9410  177.8750  137.3920 C   0  0  0  0  0  2  0  0  0  0  0  0
  181.8450  175.7980  137.4040 C   0  0  0  0  0  2  0  0  0  0  0  0
  181.8470  177.1430  137.9090 O   0  0  0  0  0  0  0  0  0  0  0  0
  183.0250  175.5430  136.4320 C   0  0  0  0  0  2  0  0  0  0  0  0
  184.2130  177.1280  137.8230 C   0  0  0  0  0  2  0  0  0  0  0  0
  187.6090  178.2480  145.4590 O   0  0  0  0  0  0  0  0  0  0  0  0
  189.9300  176.1150  147.7200 C   0  0  0  0  0  2  0  0  0  0  0  0
  191.1640  176.4920  146.9410 C   0  0  2  0  0  3  0  0  0  0  0  0
  189.9860  177.9080  145.2920 C   0  0  0  0  0  2  0  0  0  0  0  0
  188.7820  177.0290  147.3160 C   0  0  0  0  0  2  0  0  0  0  0  0
  188.6710  177.4020  145.8420 C   0  0  1  0  0  3  0  0  0  0  0  0
  191.0800  176.8670  145.4690 C   0  0  0  0  0  2  0  0  0  0  0  0
  192.8960  176.3740  148.4660 O   0  0  0  0  0  1  0  0  0  0  0  0
  192.3910  175.7770  147.3160 C   0  0  0  0  0  2  0  0  0  0  0  0
  1  8  1  0  0  0  0
  2 13  1  0  0  0  0
  2 12  1  0  0  0  0
  3 14  1  0  0  0  0
  4 15  1  0  0  0  0
  5  9  1  0  0  0  0
  5  1  2  0  0  0  0
  6  1  1  0  0  0  0
  7 11  1  0  0  0  0
  7  4  1  0  0  0  0
  8  4  2  0  0  0  0
  9  7  2  0  0  0  0
 10  3  2  0  0  0  0
 10 11  1  0  0  0  0
 11  2  2  0  0  0  0
 13 35  1  0  0  0  0
 14 13  2  0  0  0  0
 15 12  2  0  0  0  0
 16  3  1  1  0  0  0
 17 16  1  0  0  0  0
 18 16  1  0  0  0  0
 19 21  1  6  0  0  0
 19 20  1  0  0  0  0
 19 17  1  0  0  0  0
 20 18  1  0  0  0  0
 22 21  1  0  0  0  0
 23 27  1  0  0  0  0
 23 25  1  0  0  0  0
 24 22  1  0  0  0  0
 25 26  1  1  0  0  0
 25 22  1  0  0  0  0
 27 24  1  0  0  0  0
 28 25  1  0  0  0  0
 28 29  1  0  0  0  0
 29 34  1  0  0  0  0
 30 34  1  0  0  0  0
 30 32  1  0  0  0  0
 31 32  1  0  0  0  0
 33 29  1  0  0  0  0
 33 31  1  0  0  0  0
 37 43  1  6  0  0  0
 37 36  1  0  0  0  0
 38 41  1  0  0  0  0
 38 40  1  0  0  0  0
 39 36  1  0  0  0  0
 40 35  1  1  0  0  0
 40 39  1  0  0  0  0
 41 37  1  0  0  0  0
 43 42  1  0  0  0  0
M  END
>  <MODEL>
4

>  <REMARK>
 VINA RESULT:     -10.0      3.594      8.440
  Name = 
  8 active torsions:
  status: ('A' for Active; 'I' for Inactive)
    1  A    between atoms: O_1  and  C_34
    2  A    between atoms: O_1  and  C_35
    3  A    between atoms: C_2  and  C_13
    4  A    between atoms: C_3  and  N_4
    5  A    between atoms: C_3  and  C_12
    6  A    between atoms: N_11  and  C_14
    7  A    between atoms: C_14  and  C_22
    8  A    between atoms: C_19  and  C_37
                            x       y       z     vdW  Elec       q    Type
                         _______ _______ _______ _____ _____    ______ ____

>  <TORSDO>
F 8

$$$$
=
 OpenBabel10262422173D

 43 49  0  0  1  0  0  0  0  0999 V2000
  188.1030  177.6210  147.0890 C   0  0  0  0  0  0  0  0  0  0  0  0
  185.6410  178.4990  142.6400 C   0  0  0  0  0  0  0  0  0  0  0  0
  187.7020  178.2710  140.6300 C   0  0  0  0  0  0  0  0  0  0  0  0
  186.3890  178.0530  145.3930 C   0  0  0  0  0  0  0  0  0  0  0  0
  189.0710  177.6660  146.0950 C   0  0  0  0  0  3  0  0  0  0  0  0
  188.4760  177.5570  148.5170 C   0  0  0  0  0  1  0  0  0  0  0  0
  187.3730  178.0380  144.3460 C   0  0  0  0  0  0  0  0  0  0  0  0
  186.7530  177.8250  146.7020 C   0  0  0  0  0  3  0  0  0  0  0  0
  188.7170  177.8560  144.7730 C   0  0  0  0  0  3  0  0  0  0  0  0
  187.9840  178.0160  141.9760 C   0  0  0  0  0  3  0  0  0  0  0  0
  187.0170  178.1710  143.0020 C   0  0  0  0  0  0  0  0  0  0  0  0
  184.7130  178.6570  143.6860 C   0  0  0  0  0  3  0  0  0  0  0  0
  185.3400  178.6110  141.2420 C   0  0  0  0  0  0  0  0  0  0  0  0
  186.3350  178.6070  140.2540 C   0  0  0  0  0  3  0  0  0  0  0  0
  185.0610  178.4360  145.0350 C   0  0  0  0  0  3  0  0  0  0  0  0
  188.8890  177.8670  139.6730 C   0  0  2  0  0  3  0  0  0  0  0  0
  188.4950  177.1020  138.5470 O   0  0  0  0  0  0  0  0  0  0  0  0
  190.1430  177.2450  140.2650 C   0  0  0  0  0  2  0  0  0  0  0  0
  189.4900  176.1150  138.3020 C   0  0  2  0  0  3  0  0  0  0  0  0
  190.7540  176.5380  139.0410 C   0  0  0  0  0  2  0  0  0  0  0  0
  189.4130  175.5280  136.8560 C   0  0  0  0  0  2  0  0  0  0  0  0
  189.5150  174.0770  136.8490 N   0  0  0  0  0  0  0  0  0  0  0  0
  189.6460  173.0400  134.7390 C   0  0  0  0  0  2  0  0  0  0  0  0
  190.9020  173.6100  136.6640 C   0  0  0  0  0  2  0  0  0  0  0  0
  188.7090  173.3530  135.8480 C   0  0  1  0  0  0  0  0  0  0  0  0
  188.3100  172.1590  136.4250 O   0  0  0  0  0  1  0  0  0  0  0  0
  190.9860  172.7890  135.3950 C   0  0  0  0  0  2  0  0  0  0  0  0
  187.4430  174.0970  135.3780 C   0  0  0  0  0  2  0  0  0  0  0  0
  186.2040  173.6380  136.0340 N   0  0  0  0  0  0  0  0  0  0  0  0
  184.6710  175.4870  136.6290 C   0  0  0  0  0  2  0  0  0  0  0  0
  183.7400  173.5640  135.6550 C   0  0  0  0  0  2  0  0  0  0  0  0
  183.5280  174.6570  136.5620 O   0  0  0  0  0  0  0  0  0  0  0  0
  185.1450  173.6160  135.0040 C   0  0  0  0  0  2  0  0  0  0  0  0
  185.8310  174.5980  137.1070 C   0  0  0  0  0  2  0  0  0  0  0  0
  183.9550  179.0200  140.9420 O   0  0  0  0  0  0  0  0  0  0  0  0
  181.6300  176.0980  139.8860 C   0  0  0  0  0  2  0  0  0  0  0  0
  180.3800  176.8750  140.2100 C   0  0  2  0  0  3  0  0  0  0  0  0
  181.5510  178.9060  140.9940 C   0  0  0  0  0  2  0  0  0  0  0  0
  182.8210  177.0450  139.8780 C   0  0  0  0  0  2  0  0  0  0  0  0
  182.8530  178.1380  140.9410 C   0  0  1  0  0  3  0  0  0  0  0  0
  180.3840  177.9690  141.2670 C   0  0  0  0  0  2  0  0  0  0  0  0
  179.0350  175.3210  141.2670 O   0  0  0  0  0  1  0  0  0  0  0  0
  179.1250  176.1140  140.1290 C   0  0  0  0  0  2  0  0  0  0  0  0
  1  6  1  0  0  0  0
  2 11  1  0  0  0  0
  2 12  1  0  0  0  0
  3 10  1  0  0  0  0
  4  8  2  0  0  0  0
  5  1  2  0  0  0  0
  7  9  2  0  0  0  0
  7  4  1  0  0  0  0
  8  1  1  0  0  0  0
  9  5  1  0  0  0  0
 10 11  2  0  0  0  0
 11  7  1  0  0  0  0
 12 15  2  0  0  0  0
 13  2  2  0  0  0  0
 14  3  2  0  0  0  0
 14 13  1  0  0  0  0
 15  4  1  0  0  0  0
 16 18  1  0  0  0  0
 16  3  1  1  0  0  0
 17 16  1  0  0  0  0
 19 21  1  6  0  0  0
 19 17  1  0  0  0  0
 19 20  1  0  0  0  0
 20 18  1  0  0  0  0
 22 21  1  0  0  0  0
 23 27  1  0  0  0  0
 23 25  1  0  0  0  0
 24 22  1  0  0  0  0
 25 26  1  1  0  0  0
 25 22  1  0  0  0  0
 27 24  1  0  0  0  0
 28 25  1  0  0  0  0
 28 29  1  0  0  0  0
 29 34  1  0  0  0  0
 30 34  1  0  0  0  0
 31 32  1  0  0  0  0
 32 30  1  0  0  0  0
 33 31  1  0  0  0  0
 33 29  1  0  0  0  0
 35 13  1  0  0  0  0
 36 37  1  0  0  0  0
 37 43  1  1  0  0  0
 37 41  1  0  0  0  0
 38 41  1  0  0  0  0
 39 36  1  0  0  0  0
 39 40  1  0  0  0  0
 40 35  1  6  0  0  0
 40 38  1  0  0  0  0
 43 42  1  0  0  0  0
M  END
>  <MODEL>
5

>  <REMARK>
 VINA RESULT:     -10.0      2.971      5.129
  Name = 
  8 active torsions:
  status: ('A' for Active; 'I' for Inactive)
    1  A    between atoms: O_1  and  C_34
    2  A    between atoms: O_1  and  C_35
    3  A    between atoms: C_2  and  C_13
    4  A    between atoms: C_3  and  N_4
    5  A    between atoms: C_3  and  C_12
    6  A    between atoms: N_11  and  C_14
    7  A    between atoms: C_14  and  C_22
    8  A    between atoms: C_19  and  C_37
                            x       y       z     vdW  Elec       q    Type
                         _______ _______ _______ _____ _____    ______ ____

>  <TORSDO>
F 8

$$$$
=
 OpenBabel10262422173D

 43 49  0  0  1  0  0  0  0  0999 V2000
  180.9730  179.1120  142.2700 C   0  0  0  0  0  0  0  0  0  0  0  0
  185.7890  178.4630  144.0040 C   0  0  0  0  0  0  0  0  0  0  0  0
  187.3150  177.8130  141.6400 C   0  0  0  0  0  0  0  0  0  0  0  0
  182.9710  179.0040  143.6820 C   0  0  0  0  0  0  0  0  0  0  0  0
  181.7290  178.6570  141.1980 C   0  0  0  0  0  3  0  0  0  0  0  0
  179.5050  179.2390  142.1690 C   0  0  0  0  0  1  0  0  0  0  0  0
  183.7780  178.5930  142.5670 C   0  0  0  0  0  0  0  0  0  0  0  0
  181.6310  179.2740  143.5160 C   0  0  0  0  0  3  0  0  0  0  0  0
  183.0820  178.4180  141.3390 C   0  0  0  0  0  3  0  0  0  0  0  0
  185.9570  178.1370  141.5480 C   0  0  0  0  0  3  0  0  0  0  0  0
  185.1570  178.4070  142.6890 C   0  0  0  0  0  0  0  0  0  0  0  0
  184.9620  178.7210  145.1120 C   0  0  0  0  0  3  0  0  0  0  0  0
  187.2100  178.2720  144.0580 C   0  0  0  0  0  0  0  0  0  0  0  0
  187.9570  177.8560  142.9470 C   0  0  0  0  0  3  0  0  0  0  0  0
  183.5850  178.9940  144.9710 C   0  0  0  0  0  3  0  0  0  0  0  0
  188.0140  177.7210  140.2290 C   0  0  2  0  0  3  0  0  0  0  0  0
  189.1140  176.8280  140.1810 O   0  0  0  0  0  0  0  0  0  0  0  0
  188.3990  179.0010  139.5040 C   0  0  0  0  0  2  0  0  0  0  0  0
  190.1230  177.4000  139.3590 C   0  0  2  0  0  3  0  0  0  0  0  0
  189.4750  178.4980  138.5230 C   0  0  0  0  0  2  0  0  0  0  0  0
  191.1620  176.3460  138.8590 C   0  0  0  0  0  2  0  0  0  0  0  0
  190.9280  175.9600  137.4760 N   0  0  0  0  0  0  0  0  0  0  0  0
  191.6690  173.8170  136.8400 C   0  0  0  0  0  2  0  0  0  0  0  0
  189.7390  175.1020  137.3240 C   0  0  0  0  0  2  0  0  0  0  0  0
  192.0240  175.2580  136.7810 C   0  0  1  0  0  0  0  0  0  0  0  0
  191.9930  175.6550  135.4550 O   0  0  0  0  0  1  0  0  0  0  0  0
  190.1590  173.7650  136.7510 C   0  0  0  0  0  2  0  0  0  0  0  0
  193.4330  175.5560  137.3310 C   0  0  0  0  0  2  0  0  0  0  0  0
  194.3380  174.3910  137.3140 N   0  0  0  0  0  0  0  0  0  0  0  0
  196.6040  174.9260  136.4750 C   0  0  0  0  0  2  0  0  0  0  0  0
  196.4350  173.5670  138.3830 C   0  0  0  0  0  2  0  0  0  0  0  0
  197.2010  173.8750  137.2090 O   0  0  0  0  0  0  0  0  0  0  0  0
  195.1900  174.4800  138.5170 C   0  0  0  0  0  2  0  0  0  0  0  0
  195.1920  174.4490  136.0970 C   0  0  0  0  0  2  0  0  0  0  0  0
  187.7780  178.2620  145.4190 O   0  0  0  0  0  0  0  0  0  0  0  0
  189.8340  175.9090  147.7180 C   0  0  0  0  0  2  0  0  0  0  0  0
  191.1490  176.3740  147.1480 C   0  0  2  0  0  3  0  0  0  0  0  0
  190.1630  177.9540  145.5220 C   0  0  0  0  0  2  0  0  0  0  0  0
  188.7290  176.8550  147.2710 C   0  0  0  0  0  2  0  0  0  0  0  0
  188.7990  177.3850  145.8420 C   0  0  1  0  0  3  0  0  0  0  0  0
  191.2450  176.9050  145.7250 C   0  0  0  0  0  2  0  0  0  0  0  0
  193.0370  176.4400  148.4800 O   0  0  0  0  0  1  0  0  0  0  0  0
  192.3320  175.6280  147.5990 C   0  0  0  0  0  2  0  0  0  0  0  0
  1  8  1  0  0  0  0
  2 13  1  0  0  0  0
  2 12  1  0  0  0  0
  3 14  1  0  0  0  0
  4 15  1  0  0  0  0
  5  9  1  0  0  0  0
  5  1  2  0  0  0  0
  6  1  1  0  0  0  0
  7 11  1  0  0  0  0
  7  4  1  0  0  0  0
  8  4  2  0  0  0  0
  9  7  2  0  0  0  0
 10  3  2  0  0  0  0
 10 11  1  0  0  0  0
 11  2  2  0  0  0  0
 13 35  1  0  0  0  0
 14 13  2  0  0  0  0
 15 12  2  0  0  0  0
 16  3  1  1  0  0  0
 17 16  1  0  0  0  0
 18 16  1  0  0  0  0
 19 21  1  6  0  0  0
 19 17  1  0  0  0  0
 20 19  1  0  0  0  0
 20 18  1  0  0  0  0
 22 21  1  0  0  0  0
 24 22  1  0  0  0  0
 25 26  1  6  0  0  0
 25 23  1  0  0  0  0
 25 28  1  0  0  0  0
 25 22  1  0  0  0  0
 27 23  1  0  0  0  0
 27 24  1  0  0  0  0
 29 28  1  0  0  0  0
 29 33  1  0  0  0  0
 30 32  1  0  0  0  0
 31 33  1  0  0  0  0
 32 31  1  0  0  0  0
 34 30  1  0  0  0  0
 34 29  1  0  0  0  0
 37 43  1  6  0  0  0
 37 36  1  0  0  0  0
 38 41  1  0  0  0  0
 38 40  1  0  0  0  0
 39 36  1  0  0  0  0
 40 35  1  1  0  0  0
 40 39  1  0  0  0  0
 41 37  1  0  0  0  0
 43 42  1  0  0  0  0
M  END
>  <MODEL>
6

>  <REMARK>
 VINA RESULT:      -9.5      1.634      6.358
  Name = 
  8 active torsions:
  status: ('A' for Active; 'I' for Inactive)
    1  A    between atoms: O_1  and  C_34
    2  A    between atoms: O_1  and  C_35
    3  A    between atoms: C_2  and  C_13
    4  A    between atoms: C_3  and  N_4
    5  A    between atoms: C_3  and  C_12
    6  A    between atoms: N_11  and  C_14
    7  A    between atoms: C_14  and  C_22
    8  A    between atoms: C_19  and  C_37
                            x       y       z     vdW  Elec       q    Type
                         _______ _______ _______ _____ _____    ______ ____

>  <TORSDO>
F 8

$$$$
=
 OpenBabel10262422173D

 43 49  0  0  1  0  0  0  0  0999 V2000
  188.3820  177.5400  145.7130 C   0  0  0  0  0  0  0  0  0  0  0  0
  190.7610  177.3350  141.1390 C   0  0  0  0  0  0  0  0  0  0  0  0
  188.6410  177.7220  139.2170 C   0  0  0  0  0  0  0  0  0  0  0  0
  190.0670  177.4000  143.9420 C   0  0  0  0  0  0  0  0  0  0  0  0
  187.3910  177.5770  144.7420 C   0  0  0  0  0  3  0  0  0  0  0  0
  188.0430  177.4090  147.1450 C   0  0  0  0  0  1  0  0  0  0  0  0
  189.0560  177.5020  142.9260 C   0  0  0  0  0  0  0  0  0  0  0  0
  189.7280  177.4460  145.2760 C   0  0  0  0  0  3  0  0  0  0  0  0
  187.7170  177.5700  143.4000 C   0  0  0  0  0  3  0  0  0  0  0  0
  188.3840  177.7940  140.5900 C   0  0  0  0  0  3  0  0  0  0  0  0
  189.3830  177.5540  141.5680 C   0  0  0  0  0  0  0  0  0  0  0  0
  191.7220  177.0890  142.1370 C   0  0  0  0  0  3  0  0  0  0  0  0
  191.0310  177.4120  139.7320 C   0  0  0  0  0  0  0  0  0  0  0  0
  190.0110  177.4960  138.7740 C   0  0  0  0  0  3  0  0  0  0  0  0
  191.4000  177.1240  143.5100 C   0  0  0  0  0  3  0  0  0  0  0  0
  187.4140  178.1890  138.3430 C   0  0  2  0  0  3  0  0  0  0  0  0
  186.2960  178.6280  139.0960 O   0  0  0  0  0  0  0  0  0  0  0  0
  186.9170  177.2950  137.2190 C   0  0  0  0  0  2  0  0  0  0  0  0
  185.1120  178.1830  138.4470 C   0  0  2  0  0  3  0  0  0  0  0  0
  185.4800  177.8090  137.0150 C   0  0  0  0  0  2  0  0  0  0  0  0
  183.8430  178.9720  138.9010 C   0  0  0  0  0  2  0  0  0  0  0  0
  182.6880  178.1030  139.0660 N   0  0  0  0  0  0  0  0  0  0  0  0
  180.6010  179.1600  139.3330 C   0  0  0  0  0  2  0  0  0  0  0  0
  181.9330  177.9250  137.8130 C   0  0  0  0  0  2  0  0  0  0  0  0
  181.6950  178.4930  140.0850 C   0  0  1  0  0  0  0  0  0  0  0  0
  181.1890  177.3280  140.6360 O   0  0  0  0  0  1  0  0  0  0  0  0
  180.5220  178.4420  138.0030 C   0  0  0  0  0  2  0  0  0  0  0  0
  182.2530  179.3570  141.2330 C   0  0  0  0  0  2  0  0  0  0  0  0
  182.7970  178.5730  142.3580 N   0  0  0  0  0  0  0  0  0  0  0  0
  184.5860  179.7520  143.5950 C   0  0  0  0  0  2  0  0  0  0  0  0
  182.9480  178.6280  144.8470 C   0  0  0  0  0  2  0  0  0  0  0  0
  184.3190  179.0510  144.7930 O   0  0  0  0  0  0  0  0  0  0  0  0
  182.1560  179.0740  143.5910 C   0  0  0  0  0  2  0  0  0  0  0  0
  184.2660  178.7870  142.4420 C   0  0  0  0  0  2  0  0  0  0  0  0
  192.4230  177.1060  139.3540 O   0  0  0  0  0  0  0  0  0  0  0  0
  192.1780  174.1520  136.8510 C   0  0  0  0  0  2  0  0  0  0  0  0
  193.6400  173.8130  136.9890 C   0  0  2  0  0  3  0  0  0  0  0  0
  194.1600  175.6300  138.5830 C   0  0  0  0  0  2  0  0  0  0  0  0
  191.7800  175.1190  137.9570 C   0  0  0  0  0  2  0  0  0  0  0  0
  192.7840  176.2040  138.3320 C   0  0  1  0  0  3  0  0  0  0  0  0
  194.6620  174.8770  137.3610 C   0  0  0  0  0  2  0  0  0  0  0  0
  193.2570  171.7140  136.1010 O   0  0  0  0  0  1  0  0  0  0  0  0
  194.1400  172.7870  136.0640 C   0  0  0  0  0  2  0  0  0  0  0  0
  1  6  1  0  0  0  0
  2 11  1  0  0  0  0
  2 12  1  0  0  0  0
  3 10  1  0  0  0  0
  4  8  2  0  0  0  0
  5  1  2  0  0  0  0
  7  9  2  0  0  0  0
  7  4  1  0  0  0  0
  8  1  1  0  0  0  0
  9  5  1  0  0  0  0
 10 11  2  0  0  0  0
 11  7  1  0  0  0  0
 12 15  2  0  0  0  0
 13  2  2  0  0  0  0
 14  3  2  0  0  0  0
 14 13  1  0  0  0  0
 15  4  1  0  0  0  0
 16 17  1  0  0  0  0
 16  3  1  1  0  0  0
 18 16  1  0  0  0  0
 19 21  1  6  0  0  0
 19 17  1  0  0  0  0
 20 18  1  0  0  0  0
 20 19  1  0  0  0  0
 21 22  1  0  0  0  0
 22 25  1  0  0  0  0
 23 25  1  0  0  0  0
 24 27  1  0  0  0  0
 24 22  1  0  0  0  0
 25 26  1  1  0  0  0
 25 28  1  0  0  0  0
 27 23  1  0  0  0  0
 28 29  1  0  0  0  0
 29 34  1  0  0  0  0
 29 33  1  0  0  0  0
 30 32  1  0  0  0  0
 32 31  1  0  0  0  0
 33 31  1  0  0  0  0
 34 30  1  0  0  0  0
 35 13  1  0  0  0  0
 36 37  1  0  0  0  0
 36 39  1  0  0  0  0
 37 43  1  6  0  0  0
 37 41  1  0  0  0  0
 39 40  1  0  0  0  0
 40 38  1  0  0  0  0
 40 35  1  1  0  0  0
 41 38  1  0  0  0  0
 43 42  1  0  0  0  0
M  END
>  <MODEL>
7

>  <REMARK>
 VINA RESULT:      -9.4      3.012      9.908
  Name = 
  8 active torsions:
  status: ('A' for Active; 'I' for Inactive)
    1  A    between atoms: O_1  and  C_34
    2  A    between atoms: O_1  and  C_35
    3  A    between atoms: C_2  and  C_13
    4  A    between atoms: C_3  and  N_4
    5  A    between atoms: C_3  and  C_12
    6  A    between atoms: N_11  and  C_14
    7  A    between atoms: C_14  and  C_22
    8  A    between atoms: C_19  and  C_37
                            x       y       z     vdW  Elec       q    Type
                         _______ _______ _______ _____ _____    ______ ____

>  <TORSDO>
F 8

$$$$
=
 OpenBabel10262422173D

 43 49  0  0  1  0  0  0  0  0999 V2000
  184.8620  178.5220  145.3520 C   0  0  0  0  0  0  0  0  0  0  0  0
  182.4550  178.8970  140.8030 C   0  0  0  0  0  0  0  0  0  0  0  0
  184.5280  178.3900  138.8570 C   0  0  0  0  0  0  0  0  0  0  0  0
  183.1720  178.7750  143.5980 C   0  0  0  0  0  0  0  0  0  0  0  0
  185.8400  178.4280  144.3700 C   0  0  0  0  0  3  0  0  0  0  0  0
  185.2230  178.6240  146.7810 C   0  0  0  0  0  1  0  0  0  0  0  0
  184.1640  178.6160  142.5710 C   0  0  0  0  0  0  0  0  0  0  0  0
  183.5210  178.7010  144.9280 C   0  0  0  0  0  3  0  0  0  0  0  0
  185.5010  178.4630  143.0310 C   0  0  0  0  0  3  0  0  0  0  0  0
  184.7950  178.2950  140.2270 C   0  0  0  0  0  3  0  0  0  0  0  0
  183.8220  178.5910  141.2170 C   0  0  0  0  0  0  0  0  0  0  0  0
  181.5220  179.1970  141.8120 C   0  0  0  0  0  3  0  0  0  0  0  0
  182.1680  178.8440  139.3980 C   0  0  0  0  0  0  0  0  0  0  0  0
  183.1710  178.7030  138.4290 C   0  0  0  0  0  3  0  0  0  0  0  0
  181.8540  179.1350  143.1820 C   0  0  0  0  0  3  0  0  0  0  0  0
  185.7150  177.8520  137.9690 C   0  0  2  0  0  3  0  0  0  0  0  0
  186.9630  178.4770  138.2240 O   0  0  0  0  0  0  0  0  0  0  0  0
  185.5290  177.7420  136.4640 C   0  0  0  0  0  2  0  0  0  0  0  0
  187.6410  178.6490  136.9860 C   0  0  2  0  0  3  0  0  0  0  0  0
  186.9850  177.7270  135.9640 C   0  0  0  0  0  2  0  0  0  0  0  0
  189.1740  178.8890  137.1680 C   0  0  0  0  0  2  0  0  0  0  0  0
  189.9370  177.6550  137.0710 N   0  0  0  0  0  0  0  0  0  0  0  0
  189.0850  175.7940  138.2370 C   0  0  0  0  0  2  0  0  0  0  0  0
  189.3760  176.7210  136.0770 C   0  0  0  0  0  2  0  0  0  0  0  0
  190.1050  176.8720  138.3100 C   0  0  1  0  0  0  0  0  0  0  0  0
  191.3570  176.2820  138.2590 O   0  0  0  0  0  1  0  0  0  0  0  0
  188.9720  175.4370  136.7710 C   0  0  0  0  0  2  0  0  0  0  0  0
  190.0220  177.6950  139.6110 C   0  0  0  0  0  2  0  0  0  0  0  0
  190.0380  176.8750  140.8370 N   0  0  0  0  0  0  0  0  0  0  0  0
  190.7960  178.1210  142.8360 C   0  0  0  0  0  2  0  0  0  0  0  0
  188.9250  176.7200  143.0630 C   0  0  0  0  0  2  0  0  0  0  0  0
  190.0690  177.2900  143.7190 O   0  0  0  0  0  0  0  0  0  0  0  0
  188.8080  177.1900  141.5910 C   0  0  0  0  0  2  0  0  0  0  0  0
  191.2270  177.2370  141.6550 C   0  0  0  0  0  2  0  0  0  0  0  0
  180.7940  179.2380  139.0360 O   0  0  0  0  0  0  0  0  0  0  0  0
  180.1410  181.2050  135.7560 C   0  0  0  0  0  2  0  0  0  0  0  0
  180.7640  182.4650  136.2980 C   0  0  2  0  0  3  0  0  0  0  0  0
  181.2970  181.5360  138.5260 C   0  0  0  0  0  2  0  0  0  0  0  0
  180.4820  180.0410  136.6760 C   0  0  0  0  0  2  0  0  0  0  0  0
  180.4800  180.3120  138.1760 C   0  0  1  0  0  3  0  0  0  0  0  0
  180.7730  182.7600  137.7910 C   0  0  0  0  0  2  0  0  0  0  0  0
  181.3420  184.6880  136.0380 O   0  0  0  0  0  1  0  0  0  0  0  0
  180.6260  183.6540  135.4450 C   0  0  0  0  0  2  0  0  0  0  0  0
  1  6  1  0  0  0  0
  2 11  1  0  0  0  0
  2 12  1  0  0  0  0
  3 10  1  0  0  0  0
  4  8  2  0  0  0  0
  5  1  2  0  0  0  0
  7  9  2  0  0  0  0
  7  4  1  0  0  0  0
  8  1  1  0  0  0  0
  9  5  1  0  0  0  0
 10 11  2  0  0  0  0
 11  7  1  0  0  0  0
 12 15  2  0  0  0  0
 13  2  2  0  0  0  0
 14  3  2  0  0  0  0
 14 13  1  0  0  0  0
 15  4  1  0  0  0  0
 16 17  1  0  0  0  0
 16  3  1  6  0  0  0
 18 16  1  0  0  0  0
 19 21  1  1  0  0  0
 19 17  1  0  0  0  0
 20 18  1  0  0  0  0
 20 19  1  0  0  0  0
 22 21  1  0  0  0  0
 22 25  1  0  0  0  0
 23 25  1  0  0  0  0
 24 27  1  0  0  0  0
 24 22  1  0  0  0  0
 25 26  1  6  0  0  0
 25 28  1  0  0  0  0
 27 23  1  0  0  0  0
 28 29  1  0  0  0  0
 29 33  1  0  0  0  0
 29 34  1  0  0  0  0
 30 32  1  0  0  0  0
 31 32  1  0  0  0  0
 33 31  1  0  0  0  0
 34 30  1  0  0  0  0
 35 13  1  0  0  0  0
 36 37  1  0  0  0  0
 36 39  1  0  0  0  0
 37 43  1  6  0  0  0
 37 41  1  0  0  0  0
 39 40  1  0  0  0  0
 40 38  1  0  0  0  0
 40 35  1  1  0  0  0
 41 38  1  0  0  0  0
 43 42  1  0  0  0  0
M  END
>  <MODEL>
8

>  <REMARK>
 VINA RESULT:      -9.4      3.495      6.255
  Name = 
  8 active torsions:
  status: ('A' for Active; 'I' for Inactive)
    1  A    between atoms: O_1  and  C_34
    2  A    between atoms: O_1  and  C_35
    3  A    between atoms: C_2  and  C_13
    4  A    between atoms: C_3  and  N_4
    5  A    between atoms: C_3  and  C_12
    6  A    between atoms: N_11  and  C_14
    7  A    between atoms: C_14  and  C_22
    8  A    between atoms: C_19  and  C_37
                            x       y       z     vdW  Elec       q    Type
                         _______ _______ _______ _____ _____    ______ ____

>  <TORSDO>
F 8

$$$$
=
 OpenBabel10262422173D

 43 49  0  0  1  0  0  0  0  0999 V2000
  180.7240  179.2230  140.9720 C   0  0  0  0  0  0  0  0  0  0  0  0
  184.8920  178.6060  143.9510 C   0  0  0  0  0  0  0  0  0  0  0  0
  187.0700  178.3220  142.0770 C   0  0  0  0  0  0  0  0  0  0  0  0
  182.2440  179.0440  142.8840 C   0  0  0  0  0  0  0  0  0  0  0  0
  181.7860  178.9380  140.1250 C   0  0  0  0  0  3  0  0  0  0  0  0
  179.3380  179.2900  140.4640 C   0  0  0  0  0  1  0  0  0  0  0  0
  183.3640  178.8110  142.0140 C   0  0  0  0  0  0  0  0  0  0  0  0
  180.9880  179.2660  142.3650 C   0  0  0  0  0  3  0  0  0  0  0  0
  183.0590  178.7510  140.6270 C   0  0  0  0  0  3  0  0  0  0  0  0
  185.7720  178.5880  141.6300 C   0  0  0  0  0  3  0  0  0  0  0  0
  184.6630  178.6780  142.5110 C   0  0  0  0  0  0  0  0  0  0  0  0
  183.7670  178.6870  144.7930 C   0  0  0  0  0  3  0  0  0  0  0  0
  186.2500  178.4800  144.3950 C   0  0  0  0  0  0  0  0  0  0  0  0
  187.3110  178.2380  143.5110 C   0  0  0  0  0  3  0  0  0  0  0  0
  182.4680  178.9080  144.2870 C   0  0  0  0  0  3  0  0  0  0  0  0
  188.1440  178.4350  140.9280 C   0  0  2  0  0  3  0  0  0  0  0  0
  187.5950  178.6280  139.6340 O   0  0  0  0  0  0  0  0  0  0  0  0
  189.2470  177.3930  140.8340 C   0  0  0  0  0  2  0  0  0  0  0  0
  188.3650  177.8780  138.7020 C   0  0  2  0  0  3  0  0  0  0  0  0
  189.6930  177.5340  139.3670 C   0  0  0  0  0  2  0  0  0  0  0  0
  188.1610  178.3580  137.2300 C   0  0  0  0  0  2  0  0  0  0  0  0
  187.5000  177.3520  136.4130 N   0  0  0  0  0  0  0  0  0  0  0  0
  188.1900  175.1220  136.7240 C   0  0  0  0  0  2  0  0  0  0  0  0
  186.4290  176.6490  137.1420 C   0  0  0  0  0  2  0  0  0  0  0  0
  188.3520  176.2970  135.8300 C   0  0  1  0  0  0  0  0  0  0  0  0
  187.8180  175.9740  134.5940 O   0  0  0  0  0  1  0  0  0  0  0  0
  186.7590  175.1730  137.2110 C   0  0  0  0  0  2  0  0  0  0  0  0
  189.8250  176.6990  135.6200 C   0  0  0  0  0  2  0  0  0  0  0  0
  190.7800  175.5940  135.8320 N   0  0  0  0  0  0  0  0  0  0  0  0
  192.9820  175.9890  134.7740 C   0  0  0  0  0  2  0  0  0  0  0  0
  192.9550  175.1210  136.9560 C   0  0  0  0  0  2  0  0  0  0  0  0
  193.6560  175.1650  135.7040 O   0  0  0  0  0  0  0  0  0  0  0  0
  191.6770  175.9970  136.9340 C   0  0  0  0  0  2  0  0  0  0  0  0
  191.5780  175.3890  134.5940 C   0  0  0  0  0  2  0  0  0  0  0  0
  186.4100  178.3330  145.8540 O   0  0  0  0  0  0  0  0  0  0  0  0
  189.1850  177.6380  148.4740 C   0  0  0  0  0  2  0  0  0  0  0  0
  190.2050  177.3020  147.4170 C   0  0  2  0  0  3  0  0  0  0  0  0
  188.6820  177.6250  145.4970 C   0  0  0  0  0  2  0  0  0  0  0  0
  187.9780  178.2910  147.8170 C   0  0  0  0  0  2  0  0  0  0  0  0
  187.5290  177.7350  146.4700 C   0  0  1  0  0  3  0  0  0  0  0  0
  189.7840  176.7440  146.0660 C   0  0  0  0  0  2  0  0  0  0  0  0
  191.9870  175.9000  146.9650 O   0  0  0  0  0  1  0  0  0  0  0  0
  191.4840  176.7790  147.9180 C   0  0  0  0  0  2  0  0  0  0  0  0
  1  8  1  0  0  0  0
  2 13  1  0  0  0  0
  2 12  1  0  0  0  0
  3 14  1  0  0  0  0
  4 15  1  0  0  0  0
  5  9  1  0  0  0  0
  5  1  2  0  0  0  0
  6  1  1  0  0  0  0
  7 11  1  0  0  0  0
  7  4  1  0  0  0  0
  8  4  2  0  0  0  0
  9  7  2  0  0  0  0
 10  3  2  0  0  0  0
 10 11  1  0  0  0  0
 11  2  2  0  0  0  0
 13 35  1  0  0  0  0
 14 13  2  0  0  0  0
 15 12  2  0  0  0  0
 16  3  1  1  0  0  0
 17 16  1  0  0  0  0
 18 16  1  0  0  0  0
 19 21  1  6  0  0  0
 19 20  1  0  0  0  0
 19 17  1  0  0  0  0
 20 18  1  0  0  0  0
 22 24  1  0  0  0  0
 22 21  1  0  0  0  0
 23 27  1  0  0  0  0
 24 27  1  0  0  0  0
 25 26  1  6  0  0  0
 25 22  1  0  0  0  0
 25 23  1  0  0  0  0
 28 25  1  0  0  0  0
 28 29  1  0  0  0  0
 29 33  1  0  0  0  0
 30 32  1  0  0  0  0
 32 31  1  0  0  0  0
 33 31  1  0  0  0  0
 34 30  1  0  0  0  0
 34 29  1  0  0  0  0
 37 43  1  1  0  0  0
 37 36  1  0  0  0  0
 38 41  1  0  0  0  0
 38 40  1  0  0  0  0
 39 36  1  0  0  0  0
 40 35  1  6  0  0  0
 40 39  1  0  0  0  0
 41 37  1  0  0  0  0
 42 43  1  0  0  0  0
M  END
>  <MODEL>
9

>  <REMARK>
 VINA RESULT:      -9.4      2.283      6.809
  Name = 
  8 active torsions:
  status: ('A' for Active; 'I' for Inactive)
    1  A    between atoms: O_1  and  C_34
    2  A    between atoms: O_1  and  C_35
    3  A    between atoms: C_2  and  C_13
    4  A    between atoms: C_3  and  N_4
    5  A    between atoms: C_3  and  C_12
    6  A    between atoms: N_11  and  C_14
    7  A    between atoms: C_14  and  C_22
    8  A    between atoms: C_19  and  C_37
                            x       y       z     vdW  Elec       q    Type
                         _______ _______ _______ _____ _____    ______ ____

>  <TORSDO>
F 8

$$$$
