=
 OpenBabel10262422513D

 37 43  0  0  1  0  0  0  0  0999 V2000
  183.1920  176.2940  136.2650 C   0  0  1  0  0  0  0  0  0  0  0  0
  180.2580  176.7190  136.7460 C   0  0  1  0  0  0  0  0  0  0  0  0
  182.1240  178.1440  139.1220 C   0  0  0  0  0  0  0  0  0  0  0  0
  183.3340  175.0980  135.2790 C   0  0  1  0  0  3  0  0  0  0  0  0
  179.5600  178.8960  137.9220 C   0  0  0  0  0  2  0  0  0  0  0  0
  183.4580  177.6650  139.6320 C   0  0  2  0  0  3  0  0  0  0  0  0
  185.6910  174.3220  135.7850 C   0  0  0  0  0  0  0  0  0  0  0  0
  180.9740  174.3980  135.7610 C   0  0  0  0  0  2  0  0  0  0  0  0
  180.9450  177.2190  139.2260 C   0  0  0  0  0  2  0  0  0  0  0  0
  184.1510  178.8540  140.3260 C   0  0  2  0  0  3  0  0  0  0  0  0
  180.6740  180.9360  137.3980 O   0  0  0  0  0  0  0  0  0  0  0  0
  184.6630  174.7140  134.9160 O   0  0  0  0  0  0  0  0  0  0  0  0
  181.6990  176.6970  136.2080 C   0  0  2  0  0  3  0  0  0  0  0  0
  183.1600  180.3060  138.6790 C   0  0  0  0  0  3  0  0  0  0  0  0
  182.4090  173.9040  135.5610 C   0  0  0  0  0  2  0  0  0  0  0  0
  180.7590  179.7970  137.9280 C   0  0  0  0  0  0  0  0  0  0  0  0
  181.0170  175.4490  136.8610 C   0  0  1  0  0  3  0  0  0  0  0  0
  185.7820  174.7690  137.2090 C   0  0  0  0  0  2  0  0  0  0  0  0
  184.3060  177.1600  138.4640 C   0  0  0  0  0  2  0  0  0  0  0  0
  182.0080  179.3790  138.5940 C   0  0  0  0  0  0  0  0  0  0  0  0
  183.6540  175.9850  137.7300 C   0  0  2  0  0  3  0  0  0  0  0  0
  179.9410  177.4210  138.0840 C   0  0  2  0  0  3  0  0  0  0  0  0
  184.4480  174.6970  137.9240 C   0  0  0  0  0  2  0  0  0  0  0  0
  186.6500  173.6560  135.3160 O   0  0  0  0  0  0  0  0  0  0  0  0
  183.9790  177.4530  135.6630 C   0  0  0  0  0  1  0  0  0  0  0  0
  184.1650  180.0360  139.4580 N   0  0  0  0  0  0  0  0  0  0  0  0
  184.5300  178.1430  143.1520 C   0  0  0  0  0  2  0  0  0  0  0  0
  185.6840  178.1800  142.2520 N   0  0  0  0  0  0  0  0  0  0  0  0
  186.5250  178.6520  140.1230 O   0  0  0  0  0  0  0  0  0  0  0  0
  187.0110  177.7970  142.7470 C   0  0  0  0  0  2  0  0  0  0  0  0
  188.6430  177.1900  144.8560 S   0  0  0  0  0  1  0  0  0  0  0  0
  186.2450  178.4960  145.0270 C   0  0  0  0  0  2  0  0  0  0  0  0
  186.9590  177.4110  144.2230 C   0  0  1  0  0  3  0  0  0  0  0  0
  185.5170  178.5520  140.8750 C   0  0  0  0  0  0  0  0  0  0  0  0
  184.8590  178.8520  144.4680 C   0  0  0  0  0  2  0  0  0  0  0  0
  179.5900  178.1600  134.5940 C   0  0  0  0  0  1  0  0  0  0  0  0
  178.9380  176.7130  135.4760 S   0  0  0  0  0  0  0  0  0  0  0  0
  1 25  1  6  0  0  0
  1 21  1  0  0  0  0
  2 37  1  6  0  0  0
  2 17  1  0  0  0  0
  2 22  1  0  0  0  0
  3  9  1  0  0  0  0
  3  6  1  0  0  0  0
  4 15  1  1  0  0  0
  4  1  1  0  0  0  0
  5 16  1  0  0  0  0
  5 22  1  0  0  0  0
  6 19  1  6  0  0  0
  6 10  1  0  0  0  0
  7 18  1  0  0  0  0
  8 17  1  0  0  0  0
 10 34  1  6  0  0  0
 11 16  2  0  0  0  0
 12  4  1  0  0  0  0
 12  7  1  0  0  0  0
 13  1  1  0  0  0  0
 13  2  1  0  0  0  0
 13 17  1  0  0  0  0
 14 26  2  0  0  0  0
 15  8  1  0  0  0  0
 16 20  1  0  0  0  0
 18 23  1  0  0  0  0
 20 14  1  0  0  0  0
 20  3  2  0  0  0  0
 21 23  1  0  0  0  0
 21 19  1  0  0  0  0
 22  9  1  0  0  0  0
 24  7  2  0  0  0  0
 26 10  1  0  0  0  0
 27 35  1  0  0  0  0
 28 30  1  0  0  0  0
 28 27  1  0  0  0  0
 29 34  2  0  0  0  0
 30 33  1  0  0  0  0
 33 31  1  0  0  0  0
 33 32  1  0  0  0  0
 34 28  1  0  0  0  0
 35 32  1  0  0  0  0
 36 37  1  0  0  0  0
M  END
>  <MODEL>
1

>  <REMARK>
 VINA RESULT:      -6.6      0.000      0.000
  Name = 
  2 active torsions:
  status: ('A' for Active; 'I' for Inactive)
    1  A    between atoms: C_3  and  S_32
    2  A    between atoms: C_14  and  C_31
                            x       y       z     vdW  Elec       q    Type
                         _______ _______ _______ _____ _____    ______ ____

>  <TORSDO>
F 2

$$$$
=
 OpenBabel10262422513D

 37 43  0  0  1  0  0  0  0  0999 V2000
  182.3240  177.3440  139.0300 C   0  0  1  0  0  0  0  0  0  0  0  0
  180.8070  177.2990  136.4390 C   0  0  1  0  0  0  0  0  0  0  0  0
  184.0620  176.7030  135.9810 C   0  0  0  0  0  0  0  0  0  0  0  0
  181.4470  178.0990  140.0710 C   0  0  1  0  0  3  0  0  0  0  0  0
  181.6710  175.7320  134.5940 C   0  0  0  0  0  2  0  0  0  0  0  0
  185.2040  177.2500  136.7970 C   0  0  2  0  0  3  0  0  0  0  0  0
  183.2010  178.8570  141.7320 C   0  0  0  0  0  0  0  0  0  0  0  0
  180.0570  179.0680  138.2220 C   0  0  0  0  0  2  0  0  0  0  0  0
  183.1380  177.6750  135.3020 C   0  0  0  0  0  2  0  0  0  0  0  0
  186.4290  176.3460  136.5550 C   0  0  2  0  0  3  0  0  0  0  0  0
  182.5060  173.5750  135.1660 O   0  0  0  0  0  0  0  0  0  0  0  0
  181.9880  178.2460  141.3870 O   0  0  0  0  0  0  0  0  0  0  0  0
  181.3800  177.0400  137.8430 C   0  0  2  0  0  3  0  0  0  0  0  0
  184.9290  174.4660  136.4120 C   0  0  0  0  0  3  0  0  0  0  0  0
  180.7590  179.3700  139.5480 C   0  0  0  0  0  2  0  0  0  0  0  0
  182.6800  174.8210  135.2270 C   0  0  0  0  0  0  0  0  0  0  0  0
  181.1060  178.4780  137.2900 C   0  0  1  0  0  3  0  0  0  0  0  0
  184.3740  178.9430  140.8100 C   0  0  0  0  0  2  0  0  0  0  0  0
  184.8250  177.2520  138.2780 C   0  0  0  0  0  2  0  0  0  0  0  0
  183.8900  175.3710  135.8680 C   0  0  0  0  0  0  0  0  0  0  0  0
  183.6020  178.1260  138.5710 C   0  0  2  0  0  3  0  0  0  0  0  0
  181.7050  177.1410  135.1930 C   0  0  2  0  0  3  0  0  0  0  0  0
  183.9760  179.3470  139.4050 C   0  0  0  0  0  2  0  0  0  0  0  0
  183.3570  179.2520  142.9180 O   0  0  0  0  0  0  0  0  0  0  0  0
  182.6860  176.0010  139.6540 C   0  0  0  0  0  1  0  0  0  0  0  0
  186.0910  174.9330  136.7610 N   0  0  0  0  0  0  0  0  0  0  0  0
  189.0570  175.2110  135.8940 C   0  0  0  0  0  2  0  0  0  0  0  0
  188.9430  176.1960  136.9710 N   0  0  0  0  0  0  0  0  0  0  0  0
  187.5590  177.5330  138.2970 O   0  0  0  0  0  0  0  0  0  0  0  0
  190.1460  176.6620  137.6670 C   0  0  0  0  0  2  0  0  0  0  0  0
  192.8220  176.3910  138.1660 S   0  0  0  0  0  1  0  0  0  0  0  0
  191.2040  174.4670  137.0860 C   0  0  0  0  0  2  0  0  0  0  0  0
  191.3990  175.9810  137.1210 C   0  0  1  0  0  3  0  0  0  0  0  0
  187.6610  176.7390  137.3220 C   0  0  0  0  0  0  0  0  0  0  0  0
  189.9320  174.0360  136.3390 C   0  0  0  0  0  2  0  0  0  0  0  0
  179.0400  175.5220  137.3750 C   0  0  0  0  0  1  0  0  0  0  0  0
  179.0240  176.9340  136.2320 S   0  0  0  0  0  0  0  0  0  0  0  0
  1 25  1  1  0  0  0
  1  4  1  0  0  0  0
  2 37  1  6  0  0  0
  2 17  1  0  0  0  0
  2 13  1  0  0  0  0
  3  6  1  0  0  0  0
  4 15  1  6  0  0  0
  4 12  1  0  0  0  0
  5 22  1  0  0  0  0
  5 16  1  0  0  0  0
  6 19  1  1  0  0  0
  7 24  2  0  0  0  0
  8 15  1  0  0  0  0
  9  3  1  0  0  0  0
 10 26  1  0  0  0  0
 10  6  1  0  0  0  0
 10 34  1  1  0  0  0
 11 16  2  0  0  0  0
 12  7  1  0  0  0  0
 13  1  1  0  0  0  0
 14 26  2  0  0  0  0
 16 20  1  0  0  0  0
 17 13  1  0  0  0  0
 17  8  1  0  0  0  0
 18  7  1  0  0  0  0
 19 21  1  0  0  0  0
 20  3  2  0  0  0  0
 20 14  1  0  0  0  0
 21  1  1  0  0  0  0
 21 23  1  0  0  0  0
 22  9  1  0  0  0  0
 22  2  1  0  0  0  0
 23 18  1  0  0  0  0
 27 35  1  0  0  0  0
 27 28  1  0  0  0  0
 28 34  1  0  0  0  0
 28 30  1  0  0  0  0
 32 33  1  0  0  0  0
 33 30  1  0  0  0  0
 33 31  1  0  0  0  0
 34 29  2  0  0  0  0
 35 32  1  0  0  0  0
 37 36  1  0  0  0  0
M  END
>  <MODEL>
2

>  <REMARK>
 VINA RESULT:      -5.2      3.101      5.955
  Name = 
  2 active torsions:
  status: ('A' for Active; 'I' for Inactive)
    1  A    between atoms: C_3  and  S_32
    2  A    between atoms: C_14  and  C_31
                            x       y       z     vdW  Elec       q    Type
                         _______ _______ _______ _____ _____    ______ ____

>  <TORSDO>
F 2

$$$$
=
 OpenBabel10262422513D

 37 43  0  0  1  0  0  0  0  0999 V2000
  182.3470  177.8590  138.7600 C   0  0  1  0  0  0  0  0  0  0  0  0
  180.6980  178.3160  136.2920 C   0  0  1  0  0  0  0  0  0  0  0  0
  183.2560  176.2490  135.7090 C   0  0  0  0  0  0  0  0  0  0  0  0
  182.0290  179.0140  139.7540 C   0  0  1  0  0  3  0  0  0  0  0  0
  180.5470  176.3860  134.6000 C   0  0  0  0  0  2  0  0  0  0  0  0
  184.6050  176.2670  136.3800 C   0  0  2  0  0  3  0  0  0  0  0  0
  184.1080  179.0040  141.1990 C   0  0  0  0  0  0  0  0  0  0  0  0
  181.0340  180.3660  137.8910 C   0  0  0  0  0  2  0  0  0  0  0  0
  182.8040  177.4800  134.9760 C   0  0  0  0  0  2  0  0  0  0  0  0
  185.2520  174.8840  136.1750 C   0  0  2  0  0  3  0  0  0  0  0  0
  180.3720  174.1410  135.3770 O   0  0  0  0  0  0  0  0  0  0  0  0
  182.7200  178.9970  141.0070 O   0  0  0  0  0  0  0  0  0  0  0  0
  181.2430  177.9330  137.6790 C   0  0  2  0  0  3  0  0  0  0  0  0
  183.0570  173.9060  136.3530 C   0  0  0  0  0  3  0  0  0  0  0  0
  181.9380  180.4120  139.1250 C   0  0  0  0  0  2  0  0  0  0  0  0
  181.0980  175.1650  135.2760 C   0  0  0  0  0  0  0  0  0  0  0  0
  181.5900  179.2860  136.9740 C   0  0  1  0  0  3  0  0  0  0  0  0
  185.0820  178.4640  140.2020 C   0  0  0  0  0  2  0  0  0  0  0  0
  184.4340  176.5620  137.8710 C   0  0  0  0  0  2  0  0  0  0  0  0
  182.4880  175.1420  135.7690 C   0  0  0  0  0  0  0  0  0  0  0  0
  183.7810  177.9220  138.1310 C   0  0  2  0  0  3  0  0  0  0  0  0
  181.2820  177.6620  135.0220 C   0  0  2  0  0  3  0  0  0  0  0  0
  184.7580  178.8940  138.7860 C   0  0  0  0  0  2  0  0  0  0  0  0
  184.5560  179.3740  142.3160 O   0  0  0  0  0  0  0  0  0  0  0  0
  182.1280  176.5550  139.5190 C   0  0  0  0  0  1  0  0  0  0  0  0
  184.3360  173.8090  136.5700 N   0  0  0  0  0  0  0  0  0  0  0  0
  187.4370  176.7620  135.5950 C   0  0  0  0  0  2  0  0  0  0  0  0
  187.6550  175.6640  136.5380 N   0  0  0  0  0  0  0  0  0  0  0  0
  186.8220  173.7390  137.5680 O   0  0  0  0  0  0  0  0  0  0  0  0
  188.9370  175.5460  137.2390 C   0  0  0  0  0  2  0  0  0  0  0  0
  191.5420  176.3350  137.5170 S   0  0  0  0  0  1  0  0  0  0  0  0
  189.9850  176.7410  135.3030 C   0  0  0  0  0  2  0  0  0  0  0  0
  189.8970  176.6590  136.8260 C   0  0  1  0  0  3  0  0  0  0  0  0
  186.6040  174.7230  136.8100 C   0  0  0  0  0  0  0  0  0  0  0  0
  188.6140  176.8700  134.6230 C   0  0  0  0  0  2  0  0  0  0  0  0
  179.1160  179.8360  134.7610 C   0  0  0  0  0  1  0  0  0  0  0  0
  178.9320  178.8010  136.2420 S   0  0  0  0  0  0  0  0  0  0  0  0
  1 25  1  1  0  0  0
  1  4  1  0  0  0  0
  2 37  1  6  0  0  0
  2 17  1  0  0  0  0
  2 13  1  0  0  0  0
  3 20  2  0  0  0  0
  3  6  1  0  0  0  0
  4 15  1  6  0  0  0
  4 12  1  0  0  0  0
  5 22  1  0  0  0  0
  5 16  1  0  0  0  0
  6 19  1  1  0  0  0
  7 24  2  0  0  0  0
  8 15  1  0  0  0  0
  9 22  1  0  0  0  0
  9  3  1  0  0  0  0
 10  6  1  0  0  0  0
 10 26  1  0  0  0  0
 10 34  1  1  0  0  0
 12  7  1  0  0  0  0
 13  1  1  0  0  0  0
 14 26  2  0  0  0  0
 16 11  2  0  0  0  0
 16 20  1  0  0  0  0
 17 13  1  0  0  0  0
 17  8  1  0  0  0  0
 18  7  1  0  0  0  0
 19 21  1  0  0  0  0
 20 14  1  0  0  0  0
 21  1  1  0  0  0  0
 21 23  1  0  0  0  0
 22  2  1  0  0  0  0
 23 18  1  0  0  0  0
 27 28  1  0  0  0  0
 28 34  1  0  0  0  0
 28 30  1  0  0  0  0
 32 33  1  0  0  0  0
 33 30  1  0  0  0  0
 33 31  1  0  0  0  0
 34 29  2  0  0  0  0
 35 32  1  0  0  0  0
 35 27  1  0  0  0  0
 36 37  1  0  0  0  0
M  END
>  <MODEL>
3

>  <REMARK>
 VINA RESULT:      -5.1      2.944      5.965
  Name = 
  2 active torsions:
  status: ('A' for Active; 'I' for Inactive)
    1  A    between atoms: C_3  and  S_32
    2  A    between atoms: C_14  and  C_31
                            x       y       z     vdW  Elec       q    Type
                         _______ _______ _______ _____ _____    ______ ____

>  <TORSDO>
F 2

$$$$
=
 OpenBabel10262422513D

 37 43  0  0  1  0  0  0  0  0999 V2000
  185.4920  176.7890  135.9810 C   0  0  1  0  0  0  0  0  0  0  0  0
  182.5700  176.0970  136.0440 C   0  0  1  0  0  0  0  0  0  0  0  0
  183.5640  177.5440  138.8860 C   0  0  0  0  0  0  0  0  0  0  0  0
  186.1480  175.9400  134.8530 C   0  0  1  0  0  3  0  0  0  0  0  0
  181.0270  177.6220  137.4230 C   0  0  0  0  0  2  0  0  0  0  0  0
  184.9260  177.4460  139.5220 C   0  0  2  0  0  3  0  0  0  0  0  0
  188.5660  175.9140  135.6030 C   0  0  0  0  0  0  0  0  0  0  0  0
  184.1640  174.4050  134.8310 C   0  0  0  0  0  2  0  0  0  0  0  0
  182.7920  176.2770  138.6500 C   0  0  0  0  0  2  0  0  0  0  0  0
  185.0760  178.6290  140.4990 C   0  0  2  0  0  3  0  0  0  0  0  0
  181.3770  179.9790  137.4170 O   0  0  0  0  0  0  0  0  0  0  0  0
  187.5540  176.1070  134.6530 O   0  0  0  0  0  0  0  0  0  0  0  0
  183.9670  176.6700  135.7490 C   0  0  2  0  0  3  0  0  0  0  0  0
  183.7900  179.9700  138.9650 C   0  0  0  0  0  3  0  0  0  0  0  0
  185.6920  174.4740  134.7890 C   0  0  0  0  0  2  0  0  0  0  0  0
  181.8150  178.8510  137.7670 C   0  0  0  0  0  0  0  0  0  0  0  0
  183.7210  175.1600  136.0770 C   0  0  1  0  0  3  0  0  0  0  0  0
  188.3550  176.0620  137.0750 C   0  0  0  0  0  2  0  0  0  0  0  0
  186.0060  177.5070  138.4400 C   0  0  0  0  0  2  0  0  0  0  0  0
  183.0620  178.7490  138.5500 C   0  0  0  0  0  0  0  0  0  0  0  0
  185.8930  176.3590  137.4330 C   0  0  2  0  0  3  0  0  0  0  0  0
  181.8960  176.3610  137.4080 C   0  0  2  0  0  3  0  0  0  0  0  0
  187.0750  175.4010  137.5450 C   0  0  0  0  0  2  0  0  0  0  0  0
  189.7410  175.7190  135.1950 O   0  0  0  0  0  0  0  0  0  0  0  0
  185.8620  178.2420  135.7060 C   0  0  0  0  0  1  0  0  0  0  0  0
  184.7460  179.8990  139.8440 N   0  0  0  0  0  0  0  0  0  0  0  0
  185.3740  177.6780  143.2630 C   0  0  0  0  0  2  0  0  0  0  0  0
  186.5380  178.2040  142.5470 N   0  0  0  0  0  0  0  0  0  0  0  0
  187.3910  179.2140  140.6210 O   0  0  0  0  0  0  0  0  0  0  0  0
  187.8570  178.1910  143.1860 C   0  0  0  0  0  2  0  0  0  0  0  0
  189.3710  177.8340  145.4370 S   0  0  0  0  0  1  0  0  0  0  0  0
  186.6720  178.2810  145.3920 C   0  0  0  0  0  2  0  0  0  0  0  0
  187.7830  177.6020  144.5940 C   0  0  1  0  0  3  0  0  0  0  0  0
  186.4010  178.6970  141.2050 C   0  0  0  0  0  0  0  0  0  0  0  0
  185.3120  178.2590  144.6770 C   0  0  0  0  0  2  0  0  0  0  0  0
  180.2970  174.8170  135.4510 C   0  0  0  0  0  1  0  0  0  0  0  0
  181.4680  175.9090  134.5940 S   0  0  0  0  0  0  0  0  0  0  0  0
  1 25  1  6  0  0  0
  1 21  1  0  0  0  0
  2 37  1  6  0  0  0
  2 17  1  0  0  0  0
  2 22  1  0  0  0  0
  3  6  1  0  0  0  0
  4 15  1  1  0  0  0
  4  1  1  0  0  0  0
  5 16  1  0  0  0  0
  6 19  1  6  0  0  0
  6 10  1  0  0  0  0
  7 18  1  0  0  0  0
  8 17  1  0  0  0  0
  9  3  1  0  0  0  0
 10 34  1  6  0  0  0
 11 16  2  0  0  0  0
 12  4  1  0  0  0  0
 12  7  1  0  0  0  0
 13  1  1  0  0  0  0
 13  2  1  0  0  0  0
 13 17  1  0  0  0  0
 14 26  2  0  0  0  0
 15  8  1  0  0  0  0
 16 20  1  0  0  0  0
 18 23  1  0  0  0  0
 20  3  2  0  0  0  0
 20 14  1  0  0  0  0
 21 23  1  0  0  0  0
 21 19  1  0  0  0  0
 22  5  1  0  0  0  0
 22  9  1  0  0  0  0
 24  7  2  0  0  0  0
 26 10  1  0  0  0  0
 27 35  1  0  0  0  0
 28 30  1  0  0  0  0
 28 27  1  0  0  0  0
 29 34  2  0  0  0  0
 30 33  1  0  0  0  0
 33 32  1  0  0  0  0
 33 31  1  0  0  0  0
 34 28  1  0  0  0  0
 35 32  1  0  0  0  0
 37 36  1  0  0  0  0
M  END
>  <MODEL>
4

>  <REMARK>
 VINA RESULT:      -5.0      1.578      2.170
  Name = 
  2 active torsions:
  status: ('A' for Active; 'I' for Inactive)
    1  A    between atoms: C_3  and  S_32
    2  A    between atoms: C_14  and  C_31
                            x       y       z     vdW  Elec       q    Type
                         _______ _______ _______ _____ _____    ______ ____

>  <TORSDO>
F 2

$$$$
=
 OpenBabel10262422513D

 37 43  0  0  1  0  0  0  0  0999 V2000
  181.9160  173.7350  136.2850 C   0  0  1  0  0  0  0  0  0  0  0  0
  180.7140  175.6080  138.3020 C   0  0  1  0  0  0  0  0  0  0  0  0
  183.8580  176.4500  137.5460 C   0  0  0  0  0  0  0  0  0  0  0  0
  181.0630  172.4330  136.2920 C   0  0  1  0  0  3  0  0  0  0  0  0
  181.5120  178.0520  138.2620 C   0  0  0  0  0  2  0  0  0  0  0  0
  184.9750  175.5170  137.1580 C   0  0  2  0  0  3  0  0  0  0  0  0
  182.7190  170.7570  135.3640 C   0  0  0  0  0  0  0  0  0  0  0  0
  180.0690  173.0760  138.5030 C   0  0  0  0  0  2  0  0  0  0  0  0
  183.1890  176.2520  138.8770 C   0  0  0  0  0  2  0  0  0  0  0  0
  186.0540  176.3480  136.4370 C   0  0  2  0  0  3  0  0  0  0  0  0
  181.9110  179.1350  136.1780 O   0  0  0  0  0  0  0  0  0  0  0  0
  181.4690  171.3900  135.4010 O   0  0  0  0  0  0  0  0  0  0  0  0
  181.0750  174.7800  137.0560 C   0  0  2  0  0  3  0  0  0  0  0  0
  184.2910  177.6920  135.4930 C   0  0  0  0  0  3  0  0  0  0  0  0
  180.6570  171.9240  137.6840 C   0  0  0  0  0  2  0  0  0  0  0  0
  182.2800  178.2440  136.9880 C   0  0  0  0  0  0  0  0  0  0  0  0
  181.1050  174.1910  138.5060 C   0  0  1  0  0  3  0  0  0  0  0  0
  183.9870  171.4070  135.8170 C   0  0  0  0  0  2  0  0  0  0  0  0
  184.4370  174.4230  136.2340 C   0  0  0  0  0  2  0  0  0  0  0  0
  183.4830  177.4380  136.7080 C   0  0  0  0  0  0  0  0  0  0  0  0
  183.3490  173.5750  136.8990 C   0  0  2  0  0  3  0  0  0  0  0  0
  181.7090  176.6520  138.8530 C   0  0  2  0  0  3  0  0  0  0  0  0
  183.8220  172.1430  137.1310 C   0  0  0  0  0  2  0  0  0  0  0  0
  182.8030  169.6280  134.8140 O   0  0  0  0  0  0  0  0  0  0  0  0
  181.9790  174.2100  134.8370 C   0  0  0  0  0  1  0  0  0  0  0  0
  185.4680  177.1540  135.3610 N   0  0  0  0  0  0  0  0  0  0  0  0
  188.5590  176.2800  137.9730 C   0  0  0  0  0  2  0  0  0  0  0  0
  188.4480  175.5120  136.7310 N   0  0  0  0  0  0  0  0  0  0  0  0
  187.1760  174.9520  134.8520 O   0  0  0  0  0  0  0  0  0  0  0  0
  189.5590  174.6620  136.2950 C   0  0  0  0  0  2  0  0  0  0  0  0
  192.1650  173.8790  136.5760 S   0  0  0  0  0  1  0  0  0  0  0  0
  191.0880  176.1960  137.5530 C   0  0  0  0  0  2  0  0  0  0  0  0
  190.7300  174.7380  137.2730 C   0  0  1  0  0  3  0  0  0  0  0  0
  187.2390  175.5580  135.9570 C   0  0  0  0  0  0  0  0  0  0  0  0
  189.8880  177.0380  138.0120 C   0  0  0  0  0  2  0  0  0  0  0  0
  179.0670  176.1790  140.3300 C   0  0  0  0  0  1  0  0  0  0  0  0
  178.9310  175.9550  138.5330 S   0  0  0  0  0  0  0  0  0  0  0  0
  1 25  1  6  0  0  0
  1  4  1  0  0  0  0
  1 21  1  0  0  0  0
  1 13  1  0  0  0  0
  2 17  1  0  0  0  0
  2 37  1  1  0  0  0
  2 22  1  0  0  0  0
  3  9  1  0  0  0  0
  4 15  1  1  0  0  0
  5 22  1  0  0  0  0
  6 19  1  6  0  0  0
  6  3  1  0  0  0  0
  7 12  1  0  0  0  0
  7 18  1  0  0  0  0
  8 17  1  0  0  0  0
 10 34  1  6  0  0  0
 10  6  1  0  0  0  0
 11 16  2  0  0  0  0
 12  4  1  0  0  0  0
 13  2  1  0  0  0  0
 13 17  1  0  0  0  0
 14 20  1  0  0  0  0
 15  8  1  0  0  0  0
 16  5  1  0  0  0  0
 18 23  1  0  0  0  0
 19 21  1  0  0  0  0
 20 16  1  0  0  0  0
 20  3  2  0  0  0  0
 21 23  1  0  0  0  0
 22  9  1  0  0  0  0
 24  7  2  0  0  0  0
 26 14  2  0  0  0  0
 26 10  1  0  0  0  0
 27 35  1  0  0  0  0
 28 27  1  0  0  0  0
 29 34  2  0  0  0  0
 30 28  1  0  0  0  0
 30 33  1  0  0  0  0
 31 33  1  0  0  0  0
 32 35  1  0  0  0  0
 33 32  1  0  0  0  0
 34 28  1  0  0  0  0
 37 36  1  0  0  0  0
M  END
>  <MODEL>
5

>  <REMARK>
 VINA RESULT:      -5.0      3.666      4.953
  Name = 
  2 active torsions:
  status: ('A' for Active; 'I' for Inactive)
    1  A    between atoms: C_3  and  S_32
    2  A    between atoms: C_14  and  C_31
                            x       y       z     vdW  Elec       q    Type
                         _______ _______ _______ _____ _____    ______ ____

>  <TORSDO>
F 2

$$$$
=
 OpenBabel10262422513D

 37 43  0  0  1  0  0  0  0  0999 V2000
  184.7550  175.8040  136.1580 C   0  0  1  0  0  0  0  0  0  0  0  0
  183.1560  173.3750  136.9070 C   0  0  1  0  0  0  0  0  0  0  0  0
  181.4650  176.1980  137.4810 C   0  0  0  0  0  0  0  0  0  0  0  0
  186.2490  175.3740  136.0840 C   0  0  1  0  0  3  0  0  0  0  0  0
  180.6010  173.5220  136.6590 C   0  0  0  0  0  2  0  0  0  0  0  0
  182.0420  177.5330  137.8730 C   0  0  2  0  0  3  0  0  0  0  0  0
  187.4150  177.5950  136.4300 C   0  0  0  0  0  0  0  0  0  0  0  0
  185.7320  173.2930  137.3850 C   0  0  0  0  0  2  0  0  0  0  0  0
  181.7290  175.0160  138.3700 C   0  0  0  0  0  2  0  0  0  0  0  0
  180.9930  178.6140  137.5460 C   0  0  2  0  0  3  0  0  0  0  0  0
  179.6560  174.6610  134.7920 O   0  0  0  0  0  0  0  0  0  0  0  0
  187.1980  176.3900  135.7470 O   0  0  0  0  0  0  0  0  0  0  0  0
  183.9500  174.4830  136.1940 C   0  0  2  0  0  3  0  0  0  0  0  0
  180.3550  177.3150  135.6200 C   0  0  0  0  0  3  0  0  0  0  0  0
  186.7200  174.4500  137.2170 C   0  0  0  0  0  2  0  0  0  0  0  0
  180.3070  174.7610  135.8650 C   0  0  0  0  0  0  0  0  0  0  0  0
  184.3570  173.9120  137.5930 C   0  0  1  0  0  3  0  0  0  0  0  0
  186.3660  178.2860  137.2400 C   0  0  0  0  0  2  0  0  0  0  0  0
  183.3320  177.7870  137.0930 C   0  0  0  0  0  2  0  0  0  0  0  0
  180.7270  176.0860  136.3590 C   0  0  0  0  0  0  0  0  0  0  0  0
  184.4060  176.7310  137.3720 C   0  0  2  0  0  3  0  0  0  0  0  0
  181.8080  173.7010  137.5850 C   0  0  2  0  0  3  0  0  0  0  0  0
  185.5930  177.3270  138.1220 C   0  0  0  0  0  2  0  0  0  0  0  0
  188.5120  178.1890  136.2610 O   0  0  0  0  0  0  0  0  0  0  0  0
  184.4270  176.4770  134.8290 C   0  0  0  0  0  1  0  0  0  0  0  0
  180.5160  178.4840  136.1650 N   0  0  0  0  0  0  0  0  0  0  0  0
  179.7910  180.9090  136.1600 C   0  0  0  0  0  2  0  0  0  0  0  0
  180.8080  181.1340  137.1880 N   0  0  0  0  0  0  0  0  0  0  0  0
  182.3490  180.2190  138.6870 O   0  0  0  0  0  0  0  0  0  0  0  0
  181.1720  182.5020  137.5690 C   0  0  0  0  0  2  0  0  0  0  0  0
  181.0360  185.1900  137.0790 S   0  0  0  0  0  1  0  0  0  0  0  0
  180.4780  183.2140  135.2700 C   0  0  0  0  0  2  0  0  0  0  0  0
  180.3820  183.5290  136.7610 C   0  0  1  0  0  3  0  0  0  0  0  0
  181.4230  180.0210  137.8550 C   0  0  0  0  0  0  0  0  0  0  0  0
  180.0790  181.7710  134.9280 C   0  0  0  0  0  2  0  0  0  0  0  0
  183.9240  172.2730  134.5940 C   0  0  0  0  0  1  0  0  0  0  0  0
  183.3550  171.6900  136.2170 S   0  0  0  0  0  0  0  0  0  0  0  0
  1 25  1  6  0  0  0
  1 13  1  0  0  0  0
  1 21  1  0  0  0  0
  2 37  1  6  0  0  0
  2 22  1  0  0  0  0
  2 17  1  0  0  0  0
  3  6  1  0  0  0  0
  3  9  1  0  0  0  0
  4  1  1  0  0  0  0
  4 15  1  1  0  0  0
  5 22  1  0  0  0  0
  6 19  1  6  0  0  0
  7 18  1  0  0  0  0
  8 17  1  0  0  0  0
 10 34  1  6  0  0  0
 10  6  1  0  0  0  0
 11 16  2  0  0  0  0
 12  4  1  0  0  0  0
 12  7  1  0  0  0  0
 13  2  1  0  0  0  0
 13 17  1  0  0  0  0
 14 26  2  0  0  0  0
 14 20  1  0  0  0  0
 15  8  1  0  0  0  0
 16 20  1  0  0  0  0
 16  5  1  0  0  0  0
 18 23  1  0  0  0  0
 19 21  1  0  0  0  0
 20  3  2  0  0  0  0
 21 23  1  0  0  0  0
 22  9  1  0  0  0  0
 24  7  2  0  0  0  0
 26 10  1  0  0  0  0
 27 28  1  0  0  0  0
 28 30  1  0  0  0  0
 28 34  1  0  0  0  0
 32 33  1  0  0  0  0
 33 31  1  0  0  0  0
 33 30  1  0  0  0  0
 34 29  2  0  0  0  0
 35 32  1  0  0  0  0
 35 27  1  0  0  0  0
 36 37  1  0  0  0  0
M  END
>  <MODEL>
6

>  <REMARK>
 VINA RESULT:      -4.5      3.813      6.092
  Name = 
  2 active torsions:
  status: ('A' for Active; 'I' for Inactive)
    1  A    between atoms: C_3  and  S_32
    2  A    between atoms: C_14  and  C_31
                            x       y       z     vdW  Elec       q    Type
                         _______ _______ _______ _____ _____    ______ ____

>  <TORSDO>
F 2

$$$$
=
 OpenBabel10262422513D

 37 43  0  0  1  0  0  0  0  0999 V2000
  182.9130  177.6320  138.7280 C   0  0  1  0  0  0  0  0  0  0  0  0
  180.9210  177.8550  136.4910 C   0  0  1  0  0  0  0  0  0  0  0  0
  183.5010  175.9000  135.6650 C   0  0  0  0  0  0  0  0  0  0  0  0
  182.6600  178.8230  139.6980 C   0  0  1  0  0  3  0  0  0  0  0  0
  180.6640  175.8250  134.9340 C   0  0  0  0  0  2  0  0  0  0  0  0
  184.9230  176.0310  136.1420 C   0  0  2  0  0  3  0  0  0  0  0  0
  184.9120  179.0090  140.8410 C   0  0  0  0  0  0  0  0  0  0  0  0
  181.3420  180.0090  137.9250 C   0  0  0  0  0  2  0  0  0  0  0  0
  182.8790  177.0600  134.9410 C   0  0  0  0  0  2  0  0  0  0  0  0
  185.6220  174.6750  135.9180 C   0  0  2  0  0  3  0  0  0  0  0  0
  180.7340  173.6220  135.8390 O   0  0  0  0  0  0  0  0  0  0  0  0
  183.5140  178.9160  140.8430 O   0  0  0  0  0  0  0  0  0  0  0  0
  181.6710  177.5820  137.8070 C   0  0  2  0  0  3  0  0  0  0  0  0
  183.5350  173.5910  136.4460 C   0  0  0  0  0  3  0  0  0  0  0  0
  182.4000  180.1760  139.0180 C   0  0  0  0  0  2  0  0  0  0  0  0
  181.3750  174.6770  135.5870 C   0  0  0  0  0  0  0  0  0  0  0  0
  181.8360  178.9100  136.9950 C   0  0  1  0  0  3  0  0  0  0  0  0
  185.7750  178.4670  139.7480 C   0  0  0  0  0  2  0  0  0  0  0  0
  184.9380  176.4010  137.6260 C   0  0  0  0  0  2  0  0  0  0  0  0
  182.8180  174.7580  135.8850 C   0  0  0  0  0  0  0  0  0  0  0  0
  184.2420  177.7360  137.9050 C   0  0  2  0  0  3  0  0  0  0  0  0
  181.3690  177.1620  135.1870 C   0  0  2  0  0  3  0  0  0  0  0  0
  185.2360  178.7960  138.3700 C   0  0  0  0  0  2  0  0  0  0  0  0
  185.4820  179.4680  141.8660 O   0  0  0  0  0  0  0  0  0  0  0  0
  182.8780  176.3630  139.5740 C   0  0  0  0  0  1  0  0  0  0  0  0
  184.8350  173.5760  136.4890 N   0  0  0  0  0  0  0  0  0  0  0  0
  187.5690  172.9180  134.5940 C   0  0  0  0  0  2  0  0  0  0  0  0
  188.0020  173.7810  135.6950 N   0  0  0  0  0  0  0  0  0  0  0  0
  187.4180  175.3100  137.3630 O   0  0  0  0  0  0  0  0  0  0  0  0
  189.4140  173.8150  136.0870 C   0  0  0  0  0  2  0  0  0  0  0  0
  191.9270  172.7500  135.9010 S   0  0  0  0  0  1  0  0  0  0  0  0
  189.6080  171.4810  135.1950 C   0  0  0  0  0  2  0  0  0  0  0  0
  190.2480  172.8670  135.2270 C   0  0  1  0  0  3  0  0  0  0  0  0
  187.0540  174.6240  136.3690 C   0  0  0  0  0  0  0  0  0  0  0  0
  188.1310  171.5060  134.7730 C   0  0  0  0  0  2  0  0  0  0  0  0
  178.9320  177.2650  138.1790 C   0  0  0  0  0  1  0  0  0  0  0  0
  179.1380  178.2400  136.6610 S   0  0  0  0  0  0  0  0  0  0  0  0
  1 25  1  1  0  0  0
  1  4  1  0  0  0  0
  2 37  1  1  0  0  0
  2 17  1  0  0  0  0
  2 13  1  0  0  0  0
  3 20  2  0  0  0  0
  3  6  1  0  0  0  0
  4 15  1  6  0  0  0
  4 12  1  0  0  0  0
  5 22  1  0  0  0  0
  5 16  1  0  0  0  0
  6 19  1  1  0  0  0
  7 12  1  0  0  0  0
  7 24  2  0  0  0  0
  8 15  1  0  0  0  0
  9 22  1  0  0  0  0
  9  3  1  0  0  0  0
 10  6  1  0  0  0  0
 10 34  1  1  0  0  0
 10 26  1  0  0  0  0
 13  1  1  0  0  0  0
 14 26  2  0  0  0  0
 16 11  2  0  0  0  0
 16 20  1  0  0  0  0
 17 13  1  0  0  0  0
 17  8  1  0  0  0  0
 18  7  1  0  0  0  0
 19 21  1  0  0  0  0
 20 14  1  0  0  0  0
 21 23  1  0  0  0  0
 21  1  1  0  0  0  0
 22  2  1  0  0  0  0
 23 18  1  0  0  0  0
 27 35  1  0  0  0  0
 27 28  1  0  0  0  0
 28 30  1  0  0  0  0
 28 34  1  0  0  0  0
 32 33  1  0  0  0  0
 33 31  1  0  0  0  0
 33 30  1  0  0  0  0
 34 29  2  0  0  0  0
 35 32  1  0  0  0  0
 37 36  1  0  0  0  0
M  END
>  <MODEL>
7

>  <REMARK>
 VINA RESULT:      -4.5      3.255      6.559
  Name = 
  2 active torsions:
  status: ('A' for Active; 'I' for Inactive)
    1  A    between atoms: C_3  and  S_32
    2  A    between atoms: C_14  and  C_31
                            x       y       z     vdW  Elec       q    Type
                         _______ _______ _______ _____ _____    ______ ____

>  <TORSDO>
F 2

$$$$
=
 OpenBabel10262422513D

 37 43  0  0  1  0  0  0  0  0999 V2000
  183.3580  173.8810  135.8120 C   0  0  1  0  0  0  0  0  0  0  0  0
  180.5040  173.2760  136.5290 C   0  0  1  0  0  0  0  0  0  0  0  0
  181.5960  176.0570  138.0230 C   0  0  0  0  0  0  0  0  0  0  0  0
  183.9890  172.5680  135.2640 C   0  0  1  0  0  3  0  0  0  0  0  0
  178.9600  175.2740  137.0100 C   0  0  0  0  0  2  0  0  0  0  0  0
  183.0030  176.3490  138.4720 C   0  0  2  0  0  3  0  0  0  0  0  0
  186.4510  173.0040  135.6650 C   0  0  0  0  0  0  0  0  0  0  0  0
  182.1220  171.2290  136.2710 C   0  0  0  0  0  2  0  0  0  0  0  0
  180.9010  174.8500  138.5860 C   0  0  0  0  0  2  0  0  0  0  0  0
  183.1390  177.8760  138.6350 C   0  0  2  0  0  3  0  0  0  0  0  0
  179.1410  177.2540  135.6970 O   0  0  0  0  0  0  0  0  0  0  0  0
  185.3620  172.6280  134.8660 O   0  0  0  0  0  0  0  0  0  0  0  0
  181.8320  173.6240  135.8330 C   0  0  2  0  0  3  0  0  0  0  0  0
  181.6530  178.1390  136.7560 C   0  0  0  0  0  3  0  0  0  0  0  0
  183.6350  171.2950  136.0470 C   0  0  0  0  0  2  0  0  0  0  0  0
  179.6820  176.5080  136.5540 C   0  0  0  0  0  0  0  0  0  0  0  0
  181.7180  172.5310  136.9480 C   0  0  1  0  0  3  0  0  0  0  0  0
  186.3370  173.9260  136.8360 C   0  0  0  0  0  2  0  0  0  0  0  0
  183.9950  175.8330  137.4290 C   0  0  0  0  0  2  0  0  0  0  0  0
  180.9860  176.8740  137.1400 C   0  0  0  0  0  0  0  0  0  0  0  0
  183.8920  174.3200  137.2180 C   0  0  2  0  0  3  0  0  0  0  0  0
  179.9140  174.2260  137.5920 C   0  0  2  0  0  3  0  0  0  0  0  0
  185.1440  173.6010  137.7130 C   0  0  0  0  0  2  0  0  0  0  0  0
  187.6040  172.6430  135.3120 O   0  0  0  0  0  0  0  0  0  0  0  0
  183.6030  174.9580  134.7610 C   0  0  0  0  0  1  0  0  0  0  0  0
  182.6730  178.5770  137.4330 N   0  0  0  0  0  0  0  0  0  0  0  0
  184.0210  177.6600  141.4290 C   0  0  0  0  0  2  0  0  0  0  0  0
  184.9300  178.2080  140.4220 N   0  0  0  0  0  0  0  0  0  0  0  0
  185.2650  178.8830  138.2090 O   0  0  0  0  0  0  0  0  0  0  0  0
  186.2970  178.5830  140.7960 C   0  0  0  0  0  2  0  0  0  0  0  0
  188.1530  179.0370  142.7540 S   0  0  0  0  0  1  0  0  0  0  0  0
  185.4420  178.9650  143.1200 C   0  0  0  0  0  2  0  0  0  0  0  0
  186.5510  178.3330  142.2810 C   0  0  1  0  0  3  0  0  0  0  0  0
  184.5030  178.3440  139.0570 C   0  0  0  0  0  0  0  0  0  0  0  0
  184.0330  178.5330  142.6870 C   0  0  0  0  0  2  0  0  0  0  0  0
  178.9580  171.1170  136.8520 C   0  0  0  0  0  1  0  0  0  0  0  0
  179.3160  172.3060  135.5270 S   0  0  0  0  0  0  0  0  0  0  0  0
  1 25  1  6  0  0  0
  1 13  1  0  0  0  0
  1 21  1  0  0  0  0
  2 37  1  6  0  0  0
  2 17  1  0  0  0  0
  2 22  1  0  0  0  0
  3  6  1  0  0  0  0
  3  9  1  0  0  0  0
  4  1  1  0  0  0  0
  4 15  1  1  0  0  0
  5 22  1  0  0  0  0
  6 19  1  6  0  0  0
  6 10  1  0  0  0  0
  7 18  1  0  0  0  0
  8 17  1  0  0  0  0
 10 34  1  6  0  0  0
 11 16  2  0  0  0  0
 12  4  1  0  0  0  0
 12  7  1  0  0  0  0
 13  2  1  0  0  0  0
 13 17  1  0  0  0  0
 14 20  1  0  0  0  0
 14 26  2  0  0  0  0
 15  8  1  0  0  0  0
 16  5  1  0  0  0  0
 16 20  1  0  0  0  0
 18 23  1  0  0  0  0
 20  3  2  0  0  0  0
 21 19  1  0  0  0  0
 21 23  1  0  0  0  0
 22  9  1  0  0  0  0
 24  7  2  0  0  0  0
 26 10  1  0  0  0  0
 27 35  1  0  0  0  0
 28 30  1  0  0  0  0
 28 27  1  0  0  0  0
 29 34  2  0  0  0  0
 30 33  1  0  0  0  0
 33 31  1  0  0  0  0
 33 32  1  0  0  0  0
 34 28  1  0  0  0  0
 35 32  1  0  0  0  0
 37 36  1  0  0  0  0
M  END
>  <MODEL>
8

>  <REMARK>
 VINA RESULT:      -4.3      1.989      2.907
  Name = 
  2 active torsions:
  status: ('A' for Active; 'I' for Inactive)
    1  A    between atoms: C_3  and  S_32
    2  A    between atoms: C_14  and  C_31
                            x       y       z     vdW  Elec       q    Type
                         _______ _______ _______ _____ _____    ______ ____

>  <TORSDO>
F 2

$$$$
=
 OpenBabel10262422513D

 37 43  0  0  1  0  0  0  0  0999 V2000
  180.3280  175.0440  137.4720 C   0  0  1  0  0  0  0  0  0  0  0  0
  180.3780  176.8740  139.8530 C   0  0  1  0  0  0  0  0  0  0  0  0
  183.3020  176.8600  138.2370 C   0  0  0  0  0  0  0  0  0  0  0  0
  179.1360  174.0620  137.6640 C   0  0  1  0  0  3  0  0  0  0  0  0
  181.8780  178.9570  139.7080 C   0  0  0  0  0  2  0  0  0  0  0  0
  183.9130  175.7070  137.4840 C   0  0  2  0  0  3  0  0  0  0  0  0
  179.8530  172.1280  136.1950 C   0  0  0  0  0  0  0  0  0  0  0  0
  179.0300  174.6390  140.1030 C   0  0  0  0  0  2  0  0  0  0  0  0
  182.9870  176.6760  139.6950 C   0  0  0  0  0  2  0  0  0  0  0  0
  184.9680  176.2820  136.5190 C   0  0  2  0  0  3  0  0  0  0  0  0
  182.0320  180.1650  137.6610 O   0  0  0  0  0  0  0  0  0  0  0  0
  178.9310  173.0860  136.6380 O   0  0  0  0  0  0  0  0  0  0  0  0
  180.1060  176.1660  138.5140 C   0  0  2  0  0  3  0  0  0  0  0  0
  183.5470  178.2050  136.2190 C   0  0  0  0  0  3  0  0  0  0  0  0
  178.9750  173.4980  139.0840 C   0  0  0  0  0  2  0  0  0  0  0  0
  182.2970  179.0990  138.2740 C   0  0  0  0  0  0  0  0  0  0  0  0
  180.3310  175.3910  139.8550 C   0  0  1  0  0  3  0  0  0  0  0  0
  181.3340  172.3060  136.2820 C   0  0  0  0  0  2  0  0  0  0  0  0
  182.8250  174.9650  136.7070 C   0  0  0  0  0  2  0  0  0  0  0  0
  183.0560  178.0250  137.6040 C   0  0  0  0  0  0  0  0  0  0  0  0
  181.7410  174.3850  137.6200 C   0  0  2  0  0  3  0  0  0  0  0  0
  181.7640  177.4900  140.1360 C   0  0  2  0  0  3  0  0  0  0  0  0
  181.7720  172.8600  137.6230 C   0  0  0  0  0  2  0  0  0  0  0  0
  179.4180  171.1160  135.5860 O   0  0  0  0  0  0  0  0  0  0  0  0
  180.1510  175.6840  136.0990 C   0  0  0  0  0  1  0  0  0  0  0  0
  184.4070  177.3710  135.7120 N   0  0  0  0  0  0  0  0  0  0  0  0
  187.6310  175.2630  137.2300 C   0  0  0  0  0  2  0  0  0  0  0  0
  186.9520  174.7490  136.0380 N   0  0  0  0  0  0  0  0  0  0  0  0
  185.1140  174.8650  134.5990 O   0  0  0  0  0  0  0  0  0  0  0  0
  187.5710  173.6830  135.2450 C   0  0  0  0  0  2  0  0  0  0  0  0
  189.7610  172.1410  134.6910 S   0  0  0  0  0  1  0  0  0  0  0  0
  189.7900  174.5040  136.0690 C   0  0  0  0  0  2  0  0  0  0  0  0
  188.9190  173.2720  135.8310 C   0  0  1  0  0  3  0  0  0  0  0  0
  185.6610  175.2590  135.6640 C   0  0  0  0  0  0  0  0  0  0  0  0
  189.0920  175.5850  136.9100 C   0  0  0  0  0  2  0  0  0  0  0  0
  179.7250  177.8690  142.2490 C   0  0  0  0  0  1  0  0  0  0  0  0
  178.9310  177.6900  140.6250 S   0  0  0  0  0  0  0  0  0  0  0  0
  1 25  1  6  0  0  0
  1 21  1  0  0  0  0
  1  4  1  0  0  0  0
  1 13  1  0  0  0  0
  2 17  1  0  0  0  0
  2 22  1  0  0  0  0
  2 37  1  1  0  0  0
  3  9  1  0  0  0  0
  4 15  1  1  0  0  0
  5 22  1  0  0  0  0
  6 19  1  6  0  0  0
  6  3  1  0  0  0  0
  7 18  1  0  0  0  0
  7 12  1  0  0  0  0
  9 22  1  0  0  0  0
 10 34  1  6  0  0  0
 10  6  1  0  0  0  0
 11 16  2  0  0  0  0
 12  4  1  0  0  0  0
 13  2  1  0  0  0  0
 13 17  1  0  0  0  0
 14 20  1  0  0  0  0
 15  8  1  0  0  0  0
 16  5  1  0  0  0  0
 17  8  1  0  0  0  0
 18 23  1  0  0  0  0
 19 21  1  0  0  0  0
 20  3  2  0  0  0  0
 20 16  1  0  0  0  0
 21 23  1  0  0  0  0
 24  7  2  0  0  0  0
 26 14  2  0  0  0  0
 26 10  1  0  0  0  0
 28 27  1  0  0  0  0
 29 34  2  0  0  0  0
 30 33  1  0  0  0  0
 30 28  1  0  0  0  0
 31 33  1  0  0  0  0
 32 35  1  0  0  0  0
 33 32  1  0  0  0  0
 34 28  1  0  0  0  0
 35 27  1  0  0  0  0
 37 36  1  0  0  0  0
M  END
>  <MODEL>
9

>  <REMARK>
 VINA RESULT:      -4.0      3.530      5.646
  Name = 
  2 active torsions:
  status: ('A' for Active; 'I' for Inactive)
    1  A    between atoms: C_3  and  S_32
    2  A    between atoms: C_14  and  C_31
                            x       y       z     vdW  Elec       q    Type
                         _______ _______ _______ _____ _____    ______ ____

>  <TORSDO>
F 2

$$$$
