=
 OpenBabel10262423153D

 34 37  0  0  1  0  0  0  0  0999 V2000
  182.8770  178.5530  141.2840 C   0  0  2  0  0  3  0  0  0  0  0  0
  181.2760  178.9890  143.8080 C   0  0  0  0  0  2  0  0  0  0  0  0
  183.4650  179.1250  142.5840 C   0  0  0  0  0  2  0  0  0  0  0  0
  180.6230  178.9260  142.4190 C   0  0  2  0  0  3  0  0  0  0  0  0
  182.7560  178.5780  143.8180 C   0  0  1  0  0  3  0  0  0  0  0  0
  181.4290  178.0620  141.4390 C   0  0  1  0  0  3  0  0  0  0  0  0
  180.1570  176.8720  140.1810 O   0  0  0  0  0  1  0  0  0  0  0  0
  180.7970  178.0220  140.1930 O   0  0  0  0  0  0  0  0  0  0  0  0
  180.4630  180.2200  141.9170 O   0  0  0  0  0  0  0  0  0  0  0  0
  179.9360  180.8990  142.9150 O   0  0  0  0  0  1  0  0  0  0  0  0
  183.4540  179.0910  145.0740 C   0  0  0  0  0  2  0  0  0  0  0  0
  186.9090  177.7690  143.9610 C   0  0  0  0  0  2  0  0  0  0  0  0
  185.4960  178.5640  146.4780 C   0  0  0  0  0  2  0  0  0  0  0  0
  189.6140  177.2890  146.5800 C   0  0  0  0  0  0  0  0  0  0  0  0
  188.9200  177.2940  145.3620 C   0  0  0  0  0  3  0  0  0  0  0  0
  187.5870  177.7110  145.3020 C   0  0  0  0  0  0  0  0  0  0  0  0
  187.6330  178.1490  147.6910 C   0  0  0  0  0  3  0  0  0  0  0  0
  186.9440  178.1620  146.4760 C   0  0  0  0  0  0  0  0  0  0  0  0
  188.9610  177.7200  147.7430 C   0  0  0  0  0  3  0  0  0  0  0  0
  184.9690  178.8710  145.0750 C   0  0  1  0  0  3  0  0  0  0  0  0
  185.3890  177.7880  144.0870 C   0  0  0  0  0  2  0  0  0  0  0  0
  191.0150  176.8350  146.6390 C   0  0  0  0  0  0  0  0  0  0  0  0
  191.6650  176.3490  145.4670 N   0  0  0  0  0  1  0  0  0  0  0  0
  191.6530  176.8780  147.7240 O   0  0  0  0  0  0  0  0  0  0  0  0
  183.7480  177.4170  140.7660 C   0  0  0  0  0  2  0  0  0  0  0  0
  182.9170  176.1900  138.2160 O   0  0  0  0  0  0  0  0  0  0  0  0
  184.5450  177.5320  137.0460 C   0  0  0  0  0  2  0  0  0  0  0  0
  185.5080  178.5830  137.6160 C   0  0  1  0  0  3  0  0  0  0  0  0
  185.3200  178.6230  139.1420 C   0  0  0  0  0  2  0  0  0  0  0  0
  183.8110  177.0730  138.2400 C   0  0  0  0  0  0  0  0  0  0  0  0
  184.2300  177.7150  139.4260 N   0  0  0  0  0  0  0  0  0  0  0  0
  187.4690  176.8750  137.4100 C   0  0  0  0  0  1  0  0  0  0  0  0
  187.6530  179.1450  136.8330 O   0  0  0  0  0  0  0  0  0  0  0  0
  186.9270  178.2610  137.2580 C   0  0  0  0  0  0  0  0  0  0  0  0
  1 25  1  1  0  0  0
  1  6  1  0  0  0  0
  1  3  1  0  0  0  0
  2  5  1  0  0  0  0
  3  5  1  0  0  0  0
  4  9  1  6  0  0  0
  4  2  1  0  0  0  0
  5 11  1  1  0  0  0
  6  8  1  6  0  0  0
  6  4  1  0  0  0  0
  7  8  1  0  0  0  0
  9 10  1  0  0  0  0
 12 21  1  0  0  0  0
 12 16  1  0  0  0  0
 14 22  1  0  0  0  0
 14 19  1  0  0  0  0
 15 14  2  0  0  0  0
 16 15  1  0  0  0  0
 16 18  2  0  0  0  0
 17 19  2  0  0  0  0
 18 13  1  0  0  0  0
 18 17  1  0  0  0  0
 20 11  1  1  0  0  0
 20 13  1  0  0  0  0
 21 20  1  0  0  0  0
 22 24  2  0  0  0  0
 23 22  1  0  0  0  0
 26 30  2  0  0  0  0
 27 28  1  0  0  0  0
 27 30  1  0  0  0  0
 28 34  1  1  0  0  0
 28 29  1  0  0  0  0
 29 31  1  0  0  0  0
 30 31  1  0  0  0  0
 31 25  1  0  0  0  0
 33 34  2  0  0  0  0
 34 32  1  0  0  0  0
M  END
>  <MODEL>
1

>  <REMARK>
 VINA RESULT:      -9.1      0.000      0.000
  Name = 
  8 active torsions:
  status: ('A' for Active; 'I' for Inactive)
    1  A    between atoms: C_1  and  C_34
    2  A    between atoms: C_7  and  C_11
    3  A    between atoms: C_10  and  O_12
    4  A    between atoms: C_17  and  C_18
    5  A    between atoms: C_18  and  C_30
    6  A    between atoms: O_19  and  C_20
    7  A    between atoms: C_24  and  C_25
    8  A    between atoms: N_33  and  C_34
                            x       y       z     vdW  Elec       q    Type
                         _______ _______ _______ _____ _____    ______ ____

>  <TORSDO>
F 8

$$$$
=
 OpenBabel10262423153D

 34 37  0  0  1  0  0  0  0  0999 V2000
  189.2790  177.1660  141.6400 C   0  0  2  0  0  3  0  0  0  0  0  0
  190.3980  177.1680  144.4450 C   0  0  0  0  0  2  0  0  0  0  0  0
  188.4230  176.9840  142.9030 C   0  0  0  0  0  2  0  0  0  0  0  0
  191.2560  176.8320  143.2160 C   0  0  2  0  0  3  0  0  0  0  0  0
  189.0090  177.7270  144.0990 C   0  0  1  0  0  3  0  0  0  0  0  0
  190.7430  177.5220  141.9440 C   0  0  1  0  0  3  0  0  0  0  0  0
  192.6520  177.9030  141.0360 O   0  0  0  0  0  1  0  0  0  0  0  0
  191.5550  177.1980  140.8540 O   0  0  0  0  0  0  0  0  0  0  0  0
  191.3000  175.4460  143.0400 O   0  0  0  0  0  0  0  0  0  0  0  0
  192.0220  175.0080  144.0510 O   0  0  0  0  0  1  0  0  0  0  0  0
  188.0610  177.6020  145.2880 C   0  0  0  0  0  2  0  0  0  0  0  0
  184.4400  178.7330  146.0130 C   0  0  0  0  0  2  0  0  0  0  0  0
  186.1110  177.8510  143.6910 C   0  0  0  0  0  2  0  0  0  0  0  0
  181.9970  179.0080  143.1210 C   0  0  0  0  0  0  0  0  0  0  0  0
  182.5440  179.0090  144.4120 C   0  0  0  0  0  3  0  0  0  0  0  0
  183.8780  178.6460  144.6210 C   0  0  0  0  0  0  0  0  0  0  0  0
  184.1420  178.2970  142.2310 C   0  0  0  0  0  3  0  0  0  0  0  0
  184.6900  178.3060  143.5160 C   0  0  0  0  0  0  0  0  0  0  0  0
  182.8050  178.6510  142.0330 C   0  0  0  0  0  3  0  0  0  0  0  0
  186.6880  178.2350  145.0550 C   0  0  1  0  0  3  0  0  0  0  0  0
  185.7070  177.9000  146.1740 C   0  0  0  0  0  2  0  0  0  0  0  0
  180.5860  179.3780  142.9090 C   0  0  0  0  0  0  0  0  0  0  0  0
  179.5540  178.4070  143.0670 N   0  0  0  0  0  1  0  0  0  0  0  0
  180.2780  180.5570  142.5910 O   0  0  0  0  0  0  0  0  0  0  0  0
  188.6720  178.2340  140.7410 C   0  0  0  0  0  2  0  0  0  0  0  0
  186.2870  178.6080  139.0460 O   0  0  0  0  0  0  0  0  0  0  0  0
  187.2490  177.1520  137.3810 C   0  0  0  0  0  2  0  0  0  0  0  0
  188.6120  176.4460  137.3980 C   0  0  1  0  0  3  0  0  0  0  0  0
  189.3000  176.7700  138.7360 C   0  0  0  0  0  2  0  0  0  0  0  0
  187.2440  177.8920  138.6560 C   0  0  0  0  0  0  0  0  0  0  0  0
  188.4210  177.7000  139.4110 N   0  0  0  0  0  0  0  0  0  0  0  0
  189.6430  174.0720  137.0660 C   0  0  0  0  0  1  0  0  0  0  0  0
  187.3340  174.4820  137.2010 O   0  0  0  0  0  0  0  0  0  0  0  0
  188.4540  174.9660  137.2200 C   0  0  0  0  0  0  0  0  0  0  0  0
  1 25  1  6  0  0  0
  1  6  1  0  0  0  0
  1  3  1  0  0  0  0
  3  5  1  0  0  0  0
  4  9  1  6  0  0  0
  4  2  1  0  0  0  0
  5  2  1  0  0  0  0
  5 11  1  1  0  0  0
  6  8  1  6  0  0  0
  6  4  1  0  0  0  0
  8  7  1  0  0  0  0
  9 10  1  0  0  0  0
 12 21  1  0  0  0  0
 13 20  1  0  0  0  0
 14 15  1  0  0  0  0
 15 16  2  0  0  0  0
 16 12  1  0  0  0  0
 17 18  2  0  0  0  0
 18 13  1  0  0  0  0
 18 16  1  0  0  0  0
 19 17  1  0  0  0  0
 19 14  2  0  0  0  0
 20 11  1  1  0  0  0
 20 21  1  0  0  0  0
 22 23  1  0  0  0  0
 22 14  1  0  0  0  0
 24 22  2  0  0  0  0
 27 28  1  0  0  0  0
 27 30  1  0  0  0  0
 28 34  1  1  0  0  0
 28 29  1  0  0  0  0
 29 31  1  0  0  0  0
 30 26  2  0  0  0  0
 30 31  1  0  0  0  0
 31 25  1  0  0  0  0
 32 34  1  0  0  0  0
 33 34  2  0  0  0  0
M  END
>  <MODEL>
2

>  <REMARK>
 VINA RESULT:      -9.1      2.961      7.536
  Name = 
  8 active torsions:
  status: ('A' for Active; 'I' for Inactive)
    1  A    between atoms: C_1  and  C_34
    2  A    between atoms: C_7  and  C_11
    3  A    between atoms: C_10  and  O_12
    4  A    between atoms: C_17  and  C_18
    5  A    between atoms: C_18  and  C_30
    6  A    between atoms: O_19  and  C_20
    7  A    between atoms: C_24  and  C_25
    8  A    between atoms: N_33  and  C_34
                            x       y       z     vdW  Elec       q    Type
                         _______ _______ _______ _____ _____    ______ ____

>  <TORSDO>
F 8

$$$$
=
 OpenBabel10262423153D

 34 37  0  0  1  0  0  0  0  0999 V2000
  189.8050  177.4360  144.6220 C   0  0  2  0  0  3  0  0  0  0  0  0
  189.0680  177.4920  147.5500 C   0  0  0  0  0  2  0  0  0  0  0  0
  188.3670  177.2950  145.1460 C   0  0  0  0  0  2  0  0  0  0  0  0
  190.4750  177.1150  147.0610 C   0  0  2  0  0  3  0  0  0  0  0  0
  188.1590  178.0590  146.4490 C   0  0  1  0  0  3  0  0  0  0  0  0
  190.8210  177.7810  145.7220 C   0  0  1  0  0  3  0  0  0  0  0  0
  191.9510  176.2830  144.6760 O   0  0  0  0  0  1  0  0  0  0  0  0
  192.1090  177.4210  145.3180 O   0  0  0  0  0  0  0  0  0  0  0  0
  190.5800  175.7250  146.9610 O   0  0  0  0  0  0  0  0  0  0  0  0
  191.5850  175.4120  147.7520 O   0  0  0  0  0  1  0  0  0  0  0  0
  186.6910  177.9750  146.8590 C   0  0  0  0  0  2  0  0  0  0  0  0
  183.3570  179.0730  145.2480 C   0  0  0  0  0  2  0  0  0  0  0  0
  185.9760  177.8760  144.4310 C   0  0  0  0  0  2  0  0  0  0  0  0
  182.9520  178.7610  141.4870 C   0  0  0  0  0  0  0  0  0  0  0  0
  182.6900  179.0010  142.8440 C   0  0  0  0  0  3  0  0  0  0  0  0
  183.6570  178.7300  143.8160 C   0  0  0  0  0  0  0  0  0  0  0  0
  185.1800  177.9930  142.0720 C   0  0  0  0  0  3  0  0  0  0  0  0
  184.9220  178.2390  143.4230 C   0  0  0  0  0  0  0  0  0  0  0  0
  184.2030  178.2560  141.1100 C   0  0  0  0  0  3  0  0  0  0  0  0
  185.7210  178.5060  145.8010 C   0  0  1  0  0  3  0  0  0  0  0  0
  184.2660  178.3280  146.2210 C   0  0  0  0  0  2  0  0  0  0  0  0
  181.9230  179.0360  140.4690 C   0  0  0  0  0  0  0  0  0  0  0  0
  182.2580  179.7430  139.2770 N   0  0  0  0  0  1  0  0  0  0  0  0
  180.7370  178.6450  140.6390 O   0  0  0  0  0  0  0  0  0  0  0  0
  189.8640  178.4900  143.5250 C   0  0  0  0  0  2  0  0  0  0  0  0
  192.0290  177.3920  141.8490 O   0  0  0  0  0  0  0  0  0  0  0  0
  190.4260  176.8860  140.1190 C   0  0  0  0  0  2  0  0  0  0  0  0
  188.9070  177.1070  140.1260 C   0  0  1  0  0  3  0  0  0  0  0  0
  188.5310  177.7920  141.4520 C   0  0  0  0  0  2  0  0  0  0  0  0
  190.8390  177.3820  141.4450 C   0  0  0  0  0  0  0  0  0  0  0  0
  189.7590  177.8680  142.2130 N   0  0  0  0  0  0  0  0  0  0  0  0
  189.3450  178.0680  137.7410 C   0  0  0  0  0  1  0  0  0  0  0  0
  187.4030  178.5100  138.9870 O   0  0  0  0  0  0  0  0  0  0  0  0
  188.4790  177.9350  138.9530 C   0  0  0  0  0  0  0  0  0  0  0  0
  1 25  1  6  0  0  0
  1  3  1  0  0  0  0
  1  6  1  0  0  0  0
  3  5  1  0  0  0  0
  4  9  1  6  0  0  0
  4  2  1  0  0  0  0
  5 11  1  1  0  0  0
  5  2  1  0  0  0  0
  6  8  1  6  0  0  0
  6  4  1  0  0  0  0
  7  8  1  0  0  0  0
  9 10  1  0  0  0  0
 12 21  1  0  0  0  0
 13 20  1  0  0  0  0
 14 15  1  0  0  0  0
 15 16  2  0  0  0  0
 16 12  1  0  0  0  0
 17 18  2  0  0  0  0
 18 16  1  0  0  0  0
 18 13  1  0  0  0  0
 19 14  2  0  0  0  0
 19 17  1  0  0  0  0
 20 21  1  0  0  0  0
 20 11  1  1  0  0  0
 22 24  2  0  0  0  0
 22 14  1  0  0  0  0
 23 22  1  0  0  0  0
 27 28  1  0  0  0  0
 27 30  1  0  0  0  0
 28 34  1  6  0  0  0
 28 29  1  0  0  0  0
 29 31  1  0  0  0  0
 30 26  2  0  0  0  0
 30 31  1  0  0  0  0
 31 25  1  0  0  0  0
 32 34  1  0  0  0  0
 34 33  2  0  0  0  0
M  END
>  <MODEL>
3

>  <REMARK>
 VINA RESULT:      -8.9      2.256      7.975
  Name = 
  8 active torsions:
  status: ('A' for Active; 'I' for Inactive)
    1  A    between atoms: C_1  and  C_34
    2  A    between atoms: C_7  and  C_11
    3  A    between atoms: C_10  and  O_12
    4  A    between atoms: C_17  and  C_18
    5  A    between atoms: C_18  and  C_30
    6  A    between atoms: O_19  and  C_20
    7  A    between atoms: C_24  and  C_25
    8  A    between atoms: N_33  and  C_34
                            x       y       z     vdW  Elec       q    Type
                         _______ _______ _______ _____ _____    ______ ____

>  <TORSDO>
F 8

$$$$
=
 OpenBabel10262423153D

 34 37  0  0  1  0  0  0  0  0999 V2000
  183.0510  178.2960  141.0290 C   0  0  2  0  0  3  0  0  0  0  0  0
  185.5370  179.3800  142.3600 C   0  0  0  0  0  2  0  0  0  0  0  0
  183.4990  177.9140  142.4490 C   0  0  0  0  0  2  0  0  0  0  0  0
  185.3700  179.3380  140.8330 C   0  0  2  0  0  3  0  0  0  0  0  0
  184.2510  179.0500  143.1330 C   0  0  1  0  0  3  0  0  0  0  0  0
  183.8980  179.4180  140.4070 C   0  0  1  0  0  3  0  0  0  0  0  0
  183.3910  180.5970  138.6850 O   0  0  0  0  0  1  0  0  0  0  0  0
  183.7910  179.3870  139.0150 O   0  0  0  0  0  0  0  0  0  0  0  0
  185.9660  178.1790  140.3280 O   0  0  0  0  0  0  0  0  0  0  0  0
  186.9200  178.6180  139.5320 O   0  0  0  0  0  1  0  0  0  0  0  0
  184.5700  178.6540  144.5720 C   0  0  0  0  0  2  0  0  0  0  0  0
  188.0800  177.0820  144.2230 C   0  0  0  0  0  2  0  0  0  0  0  0
  186.3690  178.3470  146.3290 C   0  0  0  0  0  2  0  0  0  0  0  0
  190.3690  177.0260  147.2510 C   0  0  0  0  0  0  0  0  0  0  0  0
  189.8520  176.8250  145.9620 C   0  0  0  0  0  3  0  0  0  0  0  0
  188.5610  177.2520  145.6370 C   0  0  0  0  0  0  0  0  0  0  0  0
  188.2940  178.1130  147.8930 C   0  0  0  0  0  3  0  0  0  0  0  0
  187.7820  177.9210  146.6080 C   0  0  0  0  0  0  0  0  0  0  0  0
  189.5810  177.6730  148.2120 C   0  0  0  0  0  3  0  0  0  0  0  0
  186.0570  178.4060  144.8320 C   0  0  1  0  0  3  0  0  0  0  0  0
  186.5600  177.1540  144.1210 C   0  0  0  0  0  2  0  0  0  0  0  0
  191.7250  176.5610  147.5910 C   0  0  0  0  0  0  0  0  0  0  0  0
  192.3060  175.4590  146.8970 N   0  0  0  0  0  1  0  0  0  0  0  0
  192.3870  177.1350  148.4960 O   0  0  0  0  0  0  0  0  0  0  0  0
  181.5850  178.7060  141.0320 C   0  0  0  0  0  2  0  0  0  0  0  0
  179.2930  177.2310  142.1600 O   0  0  0  0  0  0  0  0  0  0  0  0
  179.1200  175.9530  140.1220 C   0  0  0  0  0  2  0  0  0  0  0  0
  179.9650  176.0660  138.8450 C   0  0  1  0  0  3  0  0  0  0  0  0
  181.0440  177.1360  139.0810 C   0  0  0  0  0  2  0  0  0  0  0  0
  179.6970  176.9920  140.9940 C   0  0  0  0  0  0  0  0  0  0  0  0
  180.7690  177.6850  140.3910 N   0  0  0  0  0  0  0  0  0  0  0  0
  179.8100  173.4720  138.6090 C   0  0  0  0  0  1  0  0  0  0  0  0
  181.7390  174.7140  138.1010 O   0  0  0  0  0  0  0  0  0  0  0  0
  180.5840  174.7470  138.4920 C   0  0  0  0  0  0  0  0  0  0  0  0
  1 25  1  1  0  0  0
  1  3  1  0  0  0  0
  2  5  1  0  0  0  0
  3  5  1  0  0  0  0
  4  9  1  1  0  0  0
  4  2  1  0  0  0  0
  5 11  1  1  0  0  0
  6  8  1  6  0  0  0
  6  4  1  0  0  0  0
  6  1  1  0  0  0  0
  7  8  1  0  0  0  0
 10  9  1  0  0  0  0
 12 16  1  0  0  0  0
 13 18  1  0  0  0  0
 14 22  1  0  0  0  0
 14 19  1  0  0  0  0
 15 14  2  0  0  0  0
 16 15  1  0  0  0  0
 16 18  2  0  0  0  0
 17 19  2  0  0  0  0
 18 17  1  0  0  0  0
 20 11  1  1  0  0  0
 20 13  1  0  0  0  0
 21 12  1  0  0  0  0
 21 20  1  0  0  0  0
 22 24  2  0  0  0  0
 23 22  1  0  0  0  0
 27 30  1  0  0  0  0
 28 34  1  1  0  0  0
 28 29  1  0  0  0  0
 28 27  1  0  0  0  0
 29 31  1  0  0  0  0
 30 26  2  0  0  0  0
 31 30  1  0  0  0  0
 31 25  1  0  0  0  0
 33 34  2  0  0  0  0
 34 32  1  0  0  0  0
M  END
>  <MODEL>
4

>  <REMARK>
 VINA RESULT:      -8.8      2.304      4.115
  Name = 
  8 active torsions:
  status: ('A' for Active; 'I' for Inactive)
    1  A    between atoms: C_1  and  C_34
    2  A    between atoms: C_7  and  C_11
    3  A    between atoms: C_10  and  O_12
    4  A    between atoms: C_17  and  C_18
    5  A    between atoms: C_18  and  C_30
    6  A    between atoms: O_19  and  C_20
    7  A    between atoms: C_24  and  C_25
    8  A    between atoms: N_33  and  C_34
                            x       y       z     vdW  Elec       q    Type
                         _______ _______ _______ _____ _____    ______ ____

>  <TORSDO>
F 8

$$$$
=
 OpenBabel10262423153D

 34 37  0  0  1  0  0  0  0  0999 V2000
  183.2310  176.9210  138.1120 C   0  0  2  0  0  3  0  0  0  0  0  0
  181.5330  177.3580  140.5700 C   0  0  0  0  0  2  0  0  0  0  0  0
  183.4410  178.0760  139.1030 C   0  0  0  0  0  2  0  0  0  0  0  0
  181.0320  176.5670  139.3520 C   0  0  2  0  0  3  0  0  0  0  0  0
  183.0320  177.6910  140.5200 C   0  0  1  0  0  3  0  0  0  0  0  0
  182.1790  175.9030  138.5800 C   0  0  1  0  0  3  0  0  0  0  0  0
  180.8720  174.2930  138.0180 O   0  0  0  0  0  1  0  0  0  0  0  0
  181.6810  175.1870  137.4880 O   0  0  0  0  0  0  0  0  0  0  0  0
  180.2990  177.4120  138.5140 O   0  0  0  0  0  0  0  0  0  0  0  0
  179.7850  178.3160  139.3230 O   0  0  0  0  0  1  0  0  0  0  0  0
  183.3670  178.8350  141.4740 C   0  0  0  0  0  2  0  0  0  0  0  0
  184.3610  178.7230  145.2040 C   0  0  0  0  0  2  0  0  0  0  0  0
  185.5890  178.2180  142.5210 C   0  0  0  0  0  2  0  0  0  0  0  0
  187.8640  177.5910  146.1300 C   0  0  0  0  0  0  0  0  0  0  0  0
  186.5490  178.0720  146.2140 C   0  0  0  0  0  3  0  0  0  0  0  0
  185.7890  178.2760  145.0590 C   0  0  0  0  0  0  0  0  0  0  0  0
  187.6530  177.4900  143.7130 C   0  0  0  0  0  3  0  0  0  0  0  0
  186.3410  177.9630  143.7970 C   0  0  0  0  0  0  0  0  0  0  0  0
  188.4090  177.3010  144.8720 C   0  0  0  0  0  3  0  0  0  0  0  0
  184.0860  178.3880  142.7490 C   0  0  1  0  0  3  0  0  0  0  0  0
  183.8160  179.3320  143.9160 C   0  0  0  0  0  2  0  0  0  0  0  0
  188.6650  177.3920  147.3510 C   0  0  0  0  0  0  0  0  0  0  0  0
  188.2460  177.9610  148.5900 N   0  0  0  0  0  1  0  0  0  0  0  0
  189.7240  176.7120  147.3140 O   0  0  0  0  0  0  0  0  0  0  0  0
  184.5500  176.2060  137.8490 C   0  0  0  0  0  2  0  0  0  0  0  0
  185.3850  176.2200  135.0200 O   0  0  0  0  0  0  0  0  0  0  0  0
  186.9140  178.0260  135.4860 C   0  0  0  0  0  2  0  0  0  0  0  0
  187.1600  178.7550  136.8140 C   0  0  1  0  0  3  0  0  0  0  0  0
  186.2810  178.0930  137.8900 C   0  0  0  0  0  2  0  0  0  0  0  0
  185.8740  177.0410  135.8360 C   0  0  0  0  0  0  0  0  0  0  0  0
  185.4920  177.1010  137.1940 N   0  0  0  0  0  0  0  0  0  0  0  0
  189.3960  177.4360  137.0750 C   0  0  0  0  0  1  0  0  0  0  0  0
  189.1550  179.7110  137.6120 O   0  0  0  0  0  0  0  0  0  0  0  0
  188.6080  178.7030  137.1960 C   0  0  0  0  0  0  0  0  0  0  0  0
  1 25  1  1  0  0  0
  1  6  1  0  0  0  0
  1  3  1  0  0  0  0
  3  5  1  0  0  0  0
  4  9  1  6  0  0  0
  4  2  1  0  0  0  0
  5  2  1  0  0  0  0
  5 11  1  1  0  0  0
  6  8  1  6  0  0  0
  6  4  1  0  0  0  0
  8  7  1  0  0  0  0
  9 10  1  0  0  0  0
 13 20  1  0  0  0  0
 13 18  1  0  0  0  0
 14 15  1  0  0  0  0
 14 22  1  0  0  0  0
 16 12  1  0  0  0  0
 16 15  2  0  0  0  0
 17 18  2  0  0  0  0
 17 19  1  0  0  0  0
 18 16  1  0  0  0  0
 19 14  2  0  0  0  0
 20 11  1  6  0  0  0
 20 21  1  0  0  0  0
 21 12  1  0  0  0  0
 22 23  1  0  0  0  0
 24 22  2  0  0  0  0
 26 30  2  0  0  0  0
 27 30  1  0  0  0  0
 27 28  1  0  0  0  0
 28 34  1  1  0  0  0
 28 29  1  0  0  0  0
 30 31  1  0  0  0  0
 31 25  1  0  0  0  0
 31 29  1  0  0  0  0
 32 34  1  0  0  0  0
 34 33  2  0  0  0  0
M  END
>  <MODEL>
5

>  <REMARK>
 VINA RESULT:      -8.6      1.881      3.186
  Name = 
  8 active torsions:
  status: ('A' for Active; 'I' for Inactive)
    1  A    between atoms: C_1  and  C_34
    2  A    between atoms: C_7  and  C_11
    3  A    between atoms: C_10  and  O_12
    4  A    between atoms: C_17  and  C_18
    5  A    between atoms: C_18  and  C_30
    6  A    between atoms: O_19  and  C_20
    7  A    between atoms: C_24  and  C_25
    8  A    between atoms: N_33  and  C_34
                            x       y       z     vdW  Elec       q    Type
                         _______ _______ _______ _____ _____    ______ ____

>  <TORSDO>
F 8

$$$$
=
 OpenBabel10262423153D

 34 37  0  0  1  0  0  0  0  0999 V2000
  188.2850  177.5220  146.1780 C   0  0  2  0  0  3  0  0  0  0  0  0
  191.2510  176.9720  146.0300 C   0  0  0  0  0  2  0  0  0  0  0  0
  189.2080  178.0910  145.0890 C   0  0  0  0  0  2  0  0  0  0  0  0
  190.4550  176.8570  147.3390 C   0  0  2  0  0  3  0  0  0  0  0  0
  190.3720  177.1540  144.7830 C   0  0  1  0  0  3  0  0  0  0  0  0
  188.9820  176.5030  147.0940 C   0  0  1  0  0  3  0  0  0  0  0  0
  187.9070  177.6260  148.5760 O   0  0  0  0  0  1  0  0  0  0  0  0
  188.2980  176.3980  148.3070 O   0  0  0  0  0  0  0  0  0  0  0  0
  190.5620  178.0490  148.0590 O   0  0  0  0  0  0  0  0  0  0  0  0
  191.6200  177.8800  148.8260 O   0  0  0  0  0  1  0  0  0  0  0  0
  191.1860  177.7170  143.6220 C   0  0  0  0  0  2  0  0  0  0  0  0
  191.1900  176.8920  139.8480 C   0  0  0  0  0  2  0  0  0  0  0  0
  189.3690  178.0940  141.8970 C   0  0  0  0  0  2  0  0  0  0  0  0
  188.0680  177.6140  137.8150 C   0  0  0  0  0  0  0  0  0  0  0  0
  189.3700  177.2390  138.1760 C   0  0  0  0  0  3  0  0  0  0  0  0
  189.8120  177.3770  139.4950 C   0  0  0  0  0  0  0  0  0  0  0  0
  187.6320  178.2510  140.1170 C   0  0  0  0  0  3  0  0  0  0  0  0
  188.9260  177.8710  140.4790 C   0  0  0  0  0  0  0  0  0  0  0  0
  187.2030  178.1200  138.7950 C   0  0  0  0  0  3  0  0  0  0  0  0
  190.6480  177.3290  142.2430 C   0  0  1  0  0  3  0  0  0  0  0  0
  191.6980  177.5030  141.1500 C   0  0  0  0  0  2  0  0  0  0  0  0
  187.6120  177.4780  136.4200 C   0  0  0  0  0  0  0  0  0  0  0  0
  188.4950  176.9780  135.4180 N   0  0  0  0  0  1  0  0  0  0  0  0
  186.4370  177.7990  136.1000 O   0  0  0  0  0  0  0  0  0  0  0  0
  187.0570  176.8820  145.5460 C   0  0  0  0  0  2  0  0  0  0  0  0
  185.2060  178.6540  147.0060 O   0  0  0  0  0  0  0  0  0  0  0  0
  184.4560  179.5880  144.9120 C   0  0  0  0  0  2  0  0  0  0  0  0
  184.9320  179.2570  143.4910 C   0  0  1  0  0  3  0  0  0  0  0  0
  185.9790  178.1340  143.5880 C   0  0  0  0  0  2  0  0  0  0  0  0
  185.2860  178.7050  145.7530 C   0  0  0  0  0  0  0  0  0  0  0  0
  186.1730  177.9020  145.0030 N   0  0  0  0  0  0  0  0  0  0  0  0
  184.0090  178.2420  141.2720 C   0  0  0  0  0  1  0  0  0  0  0  0
  182.6410  179.0040  143.0230 O   0  0  0  0  0  0  0  0  0  0  0  0
  183.7820  178.8450  142.6220 C   0  0  0  0  0  0  0  0  0  0  0  0
  1 25  1  6  0  0  0
  1  6  1  0  0  0  0
  2  4  1  0  0  0  0
  3  1  1  0  0  0  0
  4  9  1  6  0  0  0
  5 11  1  6  0  0  0
  5  3  1  0  0  0  0
  5  2  1  0  0  0  0
  6  4  1  0  0  0  0
  6  8  1  1  0  0  0
  8  7  1  0  0  0  0
  9 10  1  0  0  0  0
 12 21  1  0  0  0  0
 13 20  1  0  0  0  0
 14 15  2  0  0  0  0
 14 19  1  0  0  0  0
 15 16  1  0  0  0  0
 16 12  1  0  0  0  0
 16 18  2  0  0  0  0
 17 18  1  0  0  0  0
 18 13  1  0  0  0  0
 19 17  2  0  0  0  0
 20 11  1  1  0  0  0
 21 20  1  0  0  0  0
 22 14  1  0  0  0  0
 23 22  1  0  0  0  0
 24 22  2  0  0  0  0
 27 30  1  0  0  0  0
 28 34  1  6  0  0  0
 28 29  1  0  0  0  0
 28 27  1  0  0  0  0
 29 31  1  0  0  0  0
 30 26  2  0  0  0  0
 31 25  1  0  0  0  0
 31 30  1  0  0  0  0
 32 34  1  0  0  0  0
 34 33  2  0  0  0  0
M  END
>  <MODEL>
6

>  <REMARK>
 VINA RESULT:      -8.4      2.896      8.579
  Name = 
  8 active torsions:
  status: ('A' for Active; 'I' for Inactive)
    1  A    between atoms: C_1  and  C_34
    2  A    between atoms: C_7  and  C_11
    3  A    between atoms: C_10  and  O_12
    4  A    between atoms: C_17  and  C_18
    5  A    between atoms: C_18  and  C_30
    6  A    between atoms: O_19  and  C_20
    7  A    between atoms: C_24  and  C_25
    8  A    between atoms: N_33  and  C_34
                            x       y       z     vdW  Elec       q    Type
                         _______ _______ _______ _____ _____    ______ ____

>  <TORSDO>
F 8

$$$$
=
 OpenBabel10262423153D

 34 37  0  0  1  0  0  0  0  0999 V2000
  188.4420  176.6440  136.9320 C   0  0  2  0  0  3  0  0  0  0  0  0
  191.2100  176.3780  138.1130 C   0  0  0  0  0  2  0  0  0  0  0  0
  188.7230  176.5130  138.4380 C   0  0  0  0  0  2  0  0  0  0  0  0
  190.8930  175.9930  136.6590 C   0  0  2  0  0  3  0  0  0  0  0  0
  190.0670  177.1210  138.8210 C   0  0  1  0  0  3  0  0  0  0  0  0
  189.7180  176.7990  136.0890 C   0  0  1  0  0  3  0  0  0  0  0  0
  188.5620  175.4760  134.8520 O   0  0  0  0  0  1  0  0  0  0  0  0
  189.4690  176.4270  134.7650 O   0  0  0  0  0  0  0  0  0  0  0  0
  190.6320  174.6220  136.5830 O   0  0  0  0  0  0  0  0  0  0  0  0
  191.2000  174.1180  137.6590 O   0  0  0  0  0  1  0  0  0  0  0  0
  190.2380  177.0620  140.3360 C   0  0  0  0  0  2  0  0  0  0  0  0
  186.8670  178.6130  141.4090 C   0  0  0  0  0  2  0  0  0  0  0  0
  189.1460  177.0970  142.6220 C   0  0  0  0  0  2  0  0  0  0  0  0
  185.7360  178.2160  145.0110 C   0  0  0  0  0  0  0  0  0  0  0  0
  185.7940  178.6000  143.6630 C   0  0  0  0  0  3  0  0  0  0  0  0
  186.8850  178.2420  142.8660 C   0  0  0  0  0  0  0  0  0  0  0  0
  187.8690  177.0830  144.7620 C   0  0  0  0  0  3  0  0  0  0  0  0
  187.9240  177.4590  143.4170 C   0  0  0  0  0  0  0  0  0  0  0  0
  186.7800  177.4550  145.5530 C   0  0  0  0  0  3  0  0  0  0  0  0
  188.9340  177.2480  141.1150 C   0  0  1  0  0  3  0  0  0  0  0  0
  188.2610  178.5790  140.7910 C   0  0  0  0  0  2  0  0  0  0  0  0
  184.5890  178.6090  145.8490 C   0  0  0  0  0  0  0  0  0  0  0  0
  183.3690  179.0380  145.2480 N   0  0  0  0  0  1  0  0  0  0  0  0
  184.6730  178.5630  147.1050 O   0  0  0  0  0  0  0  0  0  0  0  0
  187.5120  177.8200  136.6700 C   0  0  0  0  0  2  0  0  0  0  0  0
  185.5680  179.2080  138.4010 O   0  0  0  0  0  0  0  0  0  0  0  0
  183.9480  177.4760  137.9610 C   0  0  0  0  0  2  0  0  0  0  0  0
  184.0870  176.2410  137.0610 C   0  0  1  0  0  3  0  0  0  0  0  0
  185.5140  176.2280  136.4860 C   0  0  0  0  0  2  0  0  0  0  0  0
  185.2550  178.1430  137.8120 C   0  0  0  0  0  0  0  0  0  0  0  0
  186.1320  177.4510  136.9500 N   0  0  0  0  0  0  0  0  0  0  0  0
  184.4060  173.6760  137.4170 C   0  0  0  0  0  1  0  0  0  0  0  0
  183.0720  175.0280  138.8010 O   0  0  0  0  0  0  0  0  0  0  0  0
  183.8040  174.9830  137.8260 C   0  0  0  0  0  0  0  0  0  0  0  0
  1 25  1  1  0  0  0
  1  3  1  0  0  0  0
  2  5  1  0  0  0  0
  3  5  1  0  0  0  0
  4  9  1  1  0  0  0
  4  2  1  0  0  0  0
  5 11  1  1  0  0  0
  6  8  1  6  0  0  0
  6  4  1  0  0  0  0
  6  1  1  0  0  0  0
  8  7  1  0  0  0  0
  9 10  1  0  0  0  0
 12 16  1  0  0  0  0
 13 18  1  0  0  0  0
 14 19  1  0  0  0  0
 14 22  1  0  0  0  0
 15 14  2  0  0  0  0
 16 18  2  0  0  0  0
 16 15  1  0  0  0  0
 17 19  2  0  0  0  0
 18 17  1  0  0  0  0
 20 11  1  6  0  0  0
 20 13  1  0  0  0  0
 21 20  1  0  0  0  0
 21 12  1  0  0  0  0
 22 24  2  0  0  0  0
 23 22  1  0  0  0  0
 25 31  1  0  0  0  0
 28 34  1  1  0  0  0
 28 27  1  0  0  0  0
 29 31  1  0  0  0  0
 29 28  1  0  0  0  0
 30 27  1  0  0  0  0
 30 26  2  0  0  0  0
 31 30  1  0  0  0  0
 32 34  1  0  0  0  0
 34 33  2  0  0  0  0
M  END
>  <MODEL>
7

>  <REMARK>
 VINA RESULT:      -8.3      3.472      7.098
  Name = 
  8 active torsions:
  status: ('A' for Active; 'I' for Inactive)
    1  A    between atoms: C_1  and  C_34
    2  A    between atoms: C_7  and  C_11
    3  A    between atoms: C_10  and  O_12
    4  A    between atoms: C_17  and  C_18
    5  A    between atoms: C_18  and  C_30
    6  A    between atoms: O_19  and  C_20
    7  A    between atoms: C_24  and  C_25
    8  A    between atoms: N_33  and  C_34
                            x       y       z     vdW  Elec       q    Type
                         _______ _______ _______ _____ _____    ______ ____

>  <TORSDO>
F 8

$$$$
=
 OpenBabel10262423153D

 34 37  0  0  1  0  0  0  0  0999 V2000
  191.5640  175.4080  136.9120 C   0  0  2  0  0  3  0  0  0  0  0  0
  189.3970  176.8560  138.4390 C   0  0  0  0  0  2  0  0  0  0  0  0
  191.8360  176.3890  138.0630 C   0  0  0  0  0  2  0  0  0  0  0  0
  189.1820  176.3150  137.0160 C   0  0  2  0  0  3  0  0  0  0  0  0
  190.7080  176.3900  139.0890 C   0  0  1  0  0  3  0  0  0  0  0  0
  190.0700  175.0990  136.7190 C   0  0  1  0  0  3  0  0  0  0  0  0
  189.2230  173.4800  135.5890 O   0  0  0  0  0  1  0  0  0  0  0  0
  189.8380  174.6330  135.4230 O   0  0  0  0  0  0  0  0  0  0  0  0
  189.4140  177.3330  136.0880 O   0  0  0  0  0  0  0  0  0  0  0  0
  189.0780  178.4390  136.7190 O   0  0  0  0  0  1  0  0  0  0  0  0
  191.0860  177.2950  140.2590 C   0  0  0  0  0  2  0  0  0  0  0  0
  187.9490  177.6890  142.4760 C   0  0  0  0  0  2  0  0  0  0  0  0
  190.9140  177.4200  142.7830 C   0  0  0  0  0  2  0  0  0  0  0  0
  188.3640  177.6940  146.2490 C   0  0  0  0  0  0  0  0  0  0  0  0
  187.8010  177.7700  144.9660 C   0  0  0  0  0  3  0  0  0  0  0  0
  188.6060  177.6760  143.8270 C   0  0  0  0  0  0  0  0  0  0  0  0
  190.5580  177.4000  145.2490 C   0  0  0  0  0  3  0  0  0  0  0  0
  189.9970  177.4690  143.9710 C   0  0  0  0  0  0  0  0  0  0  0  0
  189.7470  177.5070  146.3810 C   0  0  0  0  0  3  0  0  0  0  0  0
  190.1680  177.1520  141.4740 C   0  0  1  0  0  3  0  0  0  0  0  0
  188.9310  178.0370  141.3620 C   0  0  0  0  0  2  0  0  0  0  0  0
  187.5110  177.8080  147.4450 C   0  0  0  0  0  0  0  0  0  0  0  0
  188.0420  177.5250  148.7380 N   0  0  0  0  0  1  0  0  0  0  0  0
  186.3070  178.1620  147.3380 O   0  0  0  0  0  0  0  0  0  0  0  0
  192.3280  174.1110  137.1330 C   0  0  0  0  0  2  0  0  0  0  0  0
  194.7700  173.2250  138.5300 O   0  0  0  0  0  0  0  0  0  0  0  0
  196.1170  174.1970  136.7810 C   0  0  0  0  0  2  0  0  0  0  0  0
  195.6570  174.9160  135.5050 C   0  0  1  0  0  3  0  0  0  0  0  0
  194.1200  174.9880  135.5270 C   0  0  0  0  0  2  0  0  0  0  0  0
  194.8450  173.8320  137.4330 C   0  0  0  0  0  0  0  0  0  0  0  0
  193.7120  174.2550  136.7050 N   0  0  0  0  0  0  0  0  0  0  0  0
  195.5010  177.4260  134.8110 C   0  0  0  0  0  1  0  0  0  0  0  0
  197.3850  176.4750  135.8430 O   0  0  0  0  0  0  0  0  0  0  0  0
  196.2580  176.2860  135.4150 C   0  0  0  0  0  0  0  0  0  0  0  0
  1 25  1  1  0  0  0
  1  3  1  0  0  0  0
  2  5  1  0  0  0  0
  3  5  1  0  0  0  0
  4  9  1  6  0  0  0
  4  2  1  0  0  0  0
  5 11  1  1  0  0  0
  6  8  1  6  0  0  0
  6  1  1  0  0  0  0
  6  4  1  0  0  0  0
  8  7  1  0  0  0  0
  9 10  1  0  0  0  0
 12 16  1  0  0  0  0
 13 18  1  0  0  0  0
 14 19  1  0  0  0  0
 14 22  1  0  0  0  0
 15 14  2  0  0  0  0
 16 18  2  0  0  0  0
 16 15  1  0  0  0  0
 17 19  2  0  0  0  0
 18 17  1  0  0  0  0
 20 11  1  6  0  0  0
 20 13  1  0  0  0  0
 21 20  1  0  0  0  0
 21 12  1  0  0  0  0
 22 23  1  0  0  0  0
 24 22  2  0  0  0  0
 27 30  1  0  0  0  0
 28 34  1  1  0  0  0
 28 29  1  0  0  0  0
 28 27  1  0  0  0  0
 29 31  1  0  0  0  0
 30 26  2  0  0  0  0
 31 25  1  0  0  0  0
 31 30  1  0  0  0  0
 32 34  1  0  0  0  0
 34 33  2  0  0  0  0
M  END
>  <MODEL>
8

>  <REMARK>
 VINA RESULT:      -8.1      5.437      8.611
  Name = 
  8 active torsions:
  status: ('A' for Active; 'I' for Inactive)
    1  A    between atoms: C_1  and  C_34
    2  A    between atoms: C_7  and  C_11
    3  A    between atoms: C_10  and  O_12
    4  A    between atoms: C_17  and  C_18
    5  A    between atoms: C_18  and  C_30
    6  A    between atoms: O_19  and  C_20
    7  A    between atoms: C_24  and  C_25
    8  A    between atoms: N_33  and  C_34
                            x       y       z     vdW  Elec       q    Type
                         _______ _______ _______ _____ _____    ______ ____

>  <TORSDO>
F 8

$$$$
=
 OpenBabel10262423153D

 34 37  0  0  1  0  0  0  0  0999 V2000
  190.5310  175.8160  137.1860 C   0  0  2  0  0  3  0  0  0  0  0  0
  189.4880  177.8310  139.1790 C   0  0  0  0  0  2  0  0  0  0  0  0
  191.3800  176.4240  138.3140 C   0  0  0  0  0  2  0  0  0  0  0  0
  188.8450  177.6270  137.7980 C   0  0  2  0  0  3  0  0  0  0  0  0
  190.5380  176.7690  139.5370 C   0  0  1  0  0  3  0  0  0  0  0  0
  189.0460  176.2010  137.2700 C   0  0  1  0  0  3  0  0  0  0  0  0
  187.1470  176.0930  136.2710 O   0  0  0  0  0  1  0  0  0  0  0  0
  188.4390  176.0550  136.0200 O   0  0  0  0  0  0  0  0  0  0  0  0
  189.3610  178.5630  136.8980 O   0  0  0  0  0  0  0  0  0  0  0  0
  189.0120  179.7310  137.3980 O   0  0  0  0  0  1  0  0  0  0  0  0
  191.4490  177.2620  140.6580 C   0  0  0  0  0  2  0  0  0  0  0  0
  190.8540  178.4860  144.2730 C   0  0  0  0  0  2  0  0  0  0  0  0
  189.3980  176.9990  142.1210 C   0  0  0  0  0  2  0  0  0  0  0  0
  187.4730  177.8620  145.8820 C   0  0  0  0  0  0  0  0  0  0  0  0
  188.8060  178.2480  145.6810 C   0  0  0  0  0  3  0  0  0  0  0  0
  189.4490  177.9870  144.4670 C   0  0  0  0  0  0  0  0  0  0  0  0
  187.4120  176.9640  143.6260 C   0  0  0  0  0  3  0  0  0  0  0  0
  188.7370  177.3560  143.4230 C   0  0  0  0  0  0  0  0  0  0  0  0
  186.7820  177.2190  144.8460 C   0  0  0  0  0  3  0  0  0  0  0  0
  190.6960  177.7740  141.8890 C   0  0  1  0  0  3  0  0  0  0  0  0
  191.5700  177.7600  143.1390 C   0  0  0  0  0  2  0  0  0  0  0  0
  186.8060  178.1280  147.1680 C   0  0  0  0  0  0  0  0  0  0  0  0
  185.5090  178.7210  147.2000 N   0  0  0  0  0  1  0  0  0  0  0  0
  187.3710  177.8290  148.2530 O   0  0  0  0  0  0  0  0  0  0  0  0
  190.6660  174.2990  137.1860 C   0  0  0  0  0  2  0  0  0  0  0  0
  191.5600  172.5840  134.9590 O   0  0  0  0  0  0  0  0  0  0  0  0
  193.8370  172.7760  135.7330 C   0  0  0  0  0  2  0  0  0  0  0  0
  194.3780  173.5720  136.9280 C   0  0  1  0  0  3  0  0  0  0  0  0
  193.1850  174.2260  137.6450 C   0  0  0  0  0  2  0  0  0  0  0  0
  192.3900  173.0590  135.7750 C   0  0  0  0  0  0  0  0  0  0  0  0
  192.0240  173.9080  136.8420 N   0  0  0  0  0  0  0  0  0  0  0  0
  195.5770  171.3140  137.4470 C   0  0  0  0  0  1  0  0  0  0  0  0
  195.4230  173.0890  138.9790 O   0  0  0  0  0  0  0  0  0  0  0  0
  195.1450  172.6850  137.8620 C   0  0  0  0  0  0  0  0  0  0  0  0
  1 25  1  1  0  0  0
  1  6  1  0  0  0  0
  1  3  1  0  0  0  0
  2  5  1  0  0  0  0
  3  5  1  0  0  0  0
  4  9  1  6  0  0  0
  4  2  1  0  0  0  0
  5 11  1  1  0  0  0
  6  8  1  6  0  0  0
  6  4  1  0  0  0  0
  8  7  1  0  0  0  0
  9 10  1  0  0  0  0
 12 16  1  0  0  0  0
 13 18  1  0  0  0  0
 14 22  1  0  0  0  0
 15 14  1  0  0  0  0
 16 15  2  0  0  0  0
 17 19  1  0  0  0  0
 18 17  2  0  0  0  0
 18 16  1  0  0  0  0
 19 14  2  0  0  0  0
 20 11  1  6  0  0  0
 20 13  1  0  0  0  0
 20 21  1  0  0  0  0
 21 12  1  0  0  0  0
 22 23  1  0  0  0  0
 22 24  2  0  0  0  0
 26 30  2  0  0  0  0
 27 30  1  0  0  0  0
 27 28  1  0  0  0  0
 28 29  1  0  0  0  0
 28 34  1  1  0  0  0
 30 31  1  0  0  0  0
 31 25  1  0  0  0  0
 31 29  1  0  0  0  0
 32 34  1  0  0  0  0
 34 33  2  0  0  0  0
M  END
>  <MODEL>
9

>  <REMARK>
 VINA RESULT:      -8.1      5.034      8.016
  Name = 
  8 active torsions:
  status: ('A' for Active; 'I' for Inactive)
    1  A    between atoms: C_1  and  C_34
    2  A    between atoms: C_7  and  C_11
    3  A    between atoms: C_10  and  O_12
    4  A    between atoms: C_17  and  C_18
    5  A    between atoms: C_18  and  C_30
    6  A    between atoms: O_19  and  C_20
    7  A    between atoms: C_24  and  C_25
    8  A    between atoms: N_33  and  C_34
                            x       y       z     vdW  Elec       q    Type
                         _______ _______ _______ _____ _____    ______ ____

>  <TORSDO>
F 8

$$$$
