=
 OpenBabel10262420153D

 27 29  0  0  1  0  0  0  0  0999 V2000
  189.4810  177.1780  144.3640 C   0  0  1  0  0  3  0  0  0  0  0  0
  189.8150  178.0760  143.1830 C   0  0  1  0  0  3  0  0  0  0  0  0
  190.7480  177.6340  145.0650 C   0  0  2  0  0  3  0  0  0  0  0  0
  190.9850  179.8570  144.2390 O   0  0  0  0  0  1  0  0  0  0  0  0
  191.0930  178.5150  143.8740 C   0  0  2  0  0  3  0  0  0  0  0  0
  191.3300  177.6790  140.9670 O   0  0  0  0  0  0  0  0  0  0  0  0
  190.1660  177.1010  141.7250 S   0  0  0  0  0  0  0  0  0  0  0  0
  190.4890  175.6890  142.1240 O   0  0  0  0  0  0  0  0  0  0  0  0
  188.7260  177.1000  140.6720 C   0  0  0  0  0  2  0  0  0  0  0  0
  189.8050  177.7260  136.5680 C   0  0  0  0  0  3  0  0  0  0  0  0
  189.1140  177.3250  139.2500 C   0  0  0  0  0  0  0  0  0  0  0  0
  189.7390  176.3030  138.5260 C   0  0  0  0  0  3  0  0  0  0  0  0
  190.0860  176.5040  137.1860 C   0  0  0  0  0  3  0  0  0  0  0  0
  189.1770  178.7470  137.2870 C   0  0  0  0  0  3  0  0  0  0  0  0
  188.8310  178.5460  138.6270 C   0  0  0  0  0  3  0  0  0  0  0  0
  191.7080  176.4940  145.1640 C   0  0  0  0  0  3  0  0  0  0  0  0
  192.0950  176.1090  146.2540 O   0  0  0  0  0  0  0  0  0  0  0  0
  188.3180  177.7000  145.0680 N   0  0  0  0  0  2  0  0  0  0  0  0
  187.1420  177.3920  144.2650 C   0  0  0  0  0  2  0  0  0  0  0  0
  183.9790  178.8140  143.1480 C   0  0  0  0  0  3  0  0  0  0  0  0
  183.1520  178.6910  144.3950 C   0  0  0  0  0  2  0  0  0  0  0  0
  183.9660  179.0510  145.6290 C   0  0  0  0  0  2  0  0  0  0  0  0
  186.0950  178.4860  144.4270 C   0  0  2  0  0  3  0  0  0  0  0  0
  185.2170  178.1870  145.6480 C   0  0  0  0  0  2  0  0  0  0  0  0
  185.3180  178.6740  143.1410 C   0  0  0  0  0  0  0  0  0  0  0  0
  185.4200  178.9450  140.6750 C   0  0  0  0  0  1  0  0  0  0  0  0
  186.0380  178.7830  141.9450 O   0  0  0  0  0  0  0  0  0  0  0  0
  1  3  1  0  0  0  0
  1 18  1  1  0  0  0
  2  7  1  6  0  0  0
  2  5  1  0  0  0  0
  2  1  1  0  0  0  0
  3 16  1  6  0  0  0
  5  4  1  1  0  0  0
  5  3  1  0  0  0  0
  6  7  2  0  0  0  0
  7  8  2  0  0  0  0
  9  7  1  0  0  0  0
 10 13  2  0  0  0  0
 10 14  1  0  0  0  0
 11  9  1  0  0  0  0
 12 11  2  0  0  0  0
 13 12  1  0  0  0  0
 14 15  2  0  0  0  0
 15 11  1  0  0  0  0
 16 17  2  0  0  0  0
 19 18  1  0  0  0  0
 20 21  1  0  0  0  0
 21 22  1  0  0  0  0
 22 24  1  0  0  0  0
 23 19  1  6  0  0  0
 23 24  1  0  0  0  0
 25 20  2  0  0  0  0
 25 23  1  0  0  0  0
 26 27  1  0  0  0  0
 27 25  1  0  0  0  0
M  END
>  <MODEL>
1

>  <REMARK>
 VINA RESULT:      -7.6      0.000      0.000
  Name = 
  8 active torsions:
  status: ('A' for Active; 'I' for Inactive)
    1  A    between atoms: S_2  and  C_15
    2  A    between atoms: S_2  and  C_18
    3  A    between atoms: C_3  and  N_26
    4  A    between atoms: C_9  and  C_15
    5  A    between atoms: C_10  and  C_20
    6  A    between atoms: C_12  and  C_14
    7  A    between atoms: C_12  and  N_26
    8  A    between atoms: C_17  and  O_21
                            x       y       z     vdW  Elec       q    Type
                         _______ _______ _______ _____ _____    ______ ____

>  <TORSDO>
F 8

$$$$
=
 OpenBabel10262420153D

 27 29  0  0  1  0  0  0  0  0999 V2000
  189.6410  177.5640  142.5110 C   0  0  1  0  0  3  0  0  0  0  0  0
  189.5960  176.6770  143.7460 C   0  0  1  0  0  3  0  0  0  0  0  0
  190.7350  176.6890  141.9260 C   0  0  2  0  0  3  0  0  0  0  0  0
  190.1950  174.5580  142.8470 O   0  0  0  0  0  1  0  0  0  0  0  0
  190.7060  175.8150  143.1700 C   0  0  2  0  0  3  0  0  0  0  0  0
  191.5660  177.2000  145.5360 O   0  0  0  0  0  0  0  0  0  0  0  0
  190.1520  177.5740  145.1900 S   0  0  0  0  0  0  0  0  0  0  0  0
  190.0830  179.0520  144.9270 O   0  0  0  0  0  0  0  0  0  0  0  0
  189.0880  177.1710  146.5640 C   0  0  0  0  0  2  0  0  0  0  0  0
  185.1310  178.7090  145.9500 C   0  0  0  0  0  3  0  0  0  0  0  0
  187.7190  177.7200  146.3470 C   0  0  0  0  0  0  0  0  0  0  0  0
  187.0660  177.5090  145.1260 C   0  0  0  0  0  3  0  0  0  0  0  0
  185.7740  178.0050  144.9270 C   0  0  0  0  0  3  0  0  0  0  0  0
  185.7790  178.9180  147.1710 C   0  0  0  0  0  3  0  0  0  0  0  0
  187.0720  178.4220  147.3700 C   0  0  0  0  0  3  0  0  0  0  0  0
  192.0150  177.4570  141.8590 C   0  0  0  0  0  3  0  0  0  0  0  0
  192.5900  177.6010  140.7950 O   0  0  0  0  0  0  0  0  0  0  0  0
  188.4170  177.3970  141.7390 N   0  0  0  0  0  2  0  0  0  0  0  0
  188.4530  178.3570  140.6430 C   0  0  0  0  0  2  0  0  0  0  0  0
  187.5430  178.4630  137.1180 C   0  0  0  0  0  3  0  0  0  0  0  0
  188.8840  178.2730  136.4690 C   0  0  0  0  0  2  0  0  0  0  0  0
  189.7020  177.2200  137.2020 C   0  0  0  0  0  2  0  0  0  0  0  0
  188.3980  177.6300  139.3070 C   0  0  2  0  0  3  0  0  0  0  0  0
  189.7920  177.6170  138.6670 C   0  0  0  0  0  2  0  0  0  0  0  0
  187.3210  178.2200  138.4220 C   0  0  0  0  0  0  0  0  0  0  0  0
  184.8420  178.2280  138.2610 C   0  0  0  0  0  1  0  0  0  0  0  0
  186.0530  178.4310  138.9790 O   0  0  0  0  0  0  0  0  0  0  0  0
  1 18  1  6  0  0  0
  1  2  1  0  0  0  0
  2  7  1  1  0  0  0
  3 16  1  1  0  0  0
  3  1  1  0  0  0  0
  3  5  1  0  0  0  0
  5  4  1  6  0  0  0
  5  2  1  0  0  0  0
  7  6  2  0  0  0  0
  7  9  1  0  0  0  0
  8  7  2  0  0  0  0
 10 14  1  0  0  0  0
 11  9  1  0  0  0  0
 11 15  1  0  0  0  0
 12 11  2  0  0  0  0
 13 12  1  0  0  0  0
 13 10  2  0  0  0  0
 14 15  2  0  0  0  0
 17 16  2  0  0  0  0
 19 18  1  0  0  0  0
 20 25  2  0  0  0  0
 21 20  1  0  0  0  0
 21 22  1  0  0  0  0
 22 24  1  0  0  0  0
 23 19  1  1  0  0  0
 24 23  1  0  0  0  0
 25 27  1  0  0  0  0
 25 23  1  0  0  0  0
 26 27  1  0  0  0  0
M  END
>  <MODEL>
2

>  <REMARK>
 VINA RESULT:      -7.2      1.867      6.370
  Name = 
  8 active torsions:
  status: ('A' for Active; 'I' for Inactive)
    1  A    between atoms: S_2  and  C_15
    2  A    between atoms: S_2  and  C_18
    3  A    between atoms: C_3  and  N_26
    4  A    between atoms: C_9  and  C_15
    5  A    between atoms: C_10  and  C_20
    6  A    between atoms: C_12  and  C_14
    7  A    between atoms: C_12  and  N_26
    8  A    between atoms: C_17  and  O_21
                            x       y       z     vdW  Elec       q    Type
                         _______ _______ _______ _____ _____    ______ ____

>  <TORSDO>
F 8

$$$$
=
 OpenBabel10262420153D

 27 29  0  0  1  0  0  0  0  0999 V2000
  190.7260  177.6080  142.0770 C   0  0  1  0  0  3  0  0  0  0  0  0
  190.0790  176.4170  142.7670 C   0  0  1  0  0  3  0  0  0  0  0  0
  191.6690  177.7730  143.2560 C   0  0  2  0  0  3  0  0  0  0  0  0
  191.8980  175.5250  144.0120 O   0  0  0  0  0  1  0  0  0  0  0  0
  191.0070  176.5960  143.9550 C   0  0  2  0  0  3  0  0  0  0  0  0
  187.7520  177.6840  142.1810 O   0  0  0  0  0  0  0  0  0  0  0  0
  188.3840  176.7830  143.2060 S   0  0  0  0  0  0  0  0  0  0  0  0
  187.5950  175.5060  143.2930 O   0  0  0  0  0  0  0  0  0  0  0  0
  188.3620  177.5970  144.7930 C   0  0  0  0  0  2  0  0  0  0  0  0
  184.3670  178.6990  145.8990 C   0  0  0  0  0  3  0  0  0  0  0  0
  186.9690  177.9650  145.1760 C   0  0  0  0  0  0  0  0  0  0  0  0
  186.6200  178.0740  146.5270 C   0  0  0  0  0  3  0  0  0  0  0  0
  185.3200  178.4390  146.8890 C   0  0  0  0  0  3  0  0  0  0  0  0
  184.7130  178.5950  144.5490 C   0  0  0  0  0  3  0  0  0  0  0  0
  186.0140  178.2290  144.1870 C   0  0  0  0  0  3  0  0  0  0  0  0
  191.3610  179.0460  143.9740 C   0  0  0  0  0  3  0  0  0  0  0  0
  192.2620  179.7310  144.4260 O   0  0  0  0  0  0  0  0  0  0  0  0
  191.4740  177.1560  140.9130 N   0  0  0  0  0  2  0  0  0  0  0  0
  190.5140  176.6450  139.9430 C   0  0  0  0  0  2  0  0  0  0  0  0
  189.9750  176.9400  136.3530 C   0  0  0  0  0  3  0  0  0  0  0  0
  188.7920  177.8640  136.3140 C   0  0  0  0  0  2  0  0  0  0  0  0
  188.9350  178.9770  137.3420 C   0  0  0  0  0  2  0  0  0  0  0  0
  190.4720  177.5490  138.7190 C   0  0  2  0  0  3  0  0  0  0  0  0
  189.1610  178.3440  138.7060 C   0  0  0  0  0  2  0  0  0  0  0  0
  190.7200  176.7500  137.4570 C   0  0  0  0  0  0  0  0  0  0  0  0
  193.1580  176.2860  137.3620 C   0  0  0  0  0  1  0  0  0  0  0  0
  191.8030  175.8620  137.4410 O   0  0  0  0  0  0  0  0  0  0  0  0
  1 18  1  6  0  0  0
  1  2  1  0  0  0  0
  1  3  1  0  0  0  0
  2  7  1  1  0  0  0
  2  5  1  0  0  0  0
  3  5  1  0  0  0  0
  3 16  1  1  0  0  0
  5  4  1  6  0  0  0
  6  7  2  0  0  0  0
  7  8  2  0  0  0  0
  7  9  1  0  0  0  0
  9 11  1  0  0  0  0
 10 13  1  0  0  0  0
 11 12  1  0  0  0  0
 12 13  2  0  0  0  0
 14 10  2  0  0  0  0
 15 14  1  0  0  0  0
 15 11  2  0  0  0  0
 16 17  2  0  0  0  0
 19 18  1  0  0  0  0
 20 25  2  0  0  0  0
 21 20  1  0  0  0  0
 21 22  1  0  0  0  0
 22 24  1  0  0  0  0
 23 19  1  1  0  0  0
 24 23  1  0  0  0  0
 25 23  1  0  0  0  0
 26 27  1  0  0  0  0
 27 25  1  0  0  0  0
M  END
>  <MODEL>
3

>  <REMARK>
 VINA RESULT:      -7.1      1.973      6.755
  Name = 
  8 active torsions:
  status: ('A' for Active; 'I' for Inactive)
    1  A    between atoms: S_2  and  C_15
    2  A    between atoms: S_2  and  C_18
    3  A    between atoms: C_3  and  N_26
    4  A    between atoms: C_9  and  C_15
    5  A    between atoms: C_10  and  C_20
    6  A    between atoms: C_12  and  C_14
    7  A    between atoms: C_12  and  N_26
    8  A    between atoms: C_17  and  O_21
                            x       y       z     vdW  Elec       q    Type
                         _______ _______ _______ _____ _____    ______ ____

>  <TORSDO>
F 8

$$$$
=
 OpenBabel10262420153D

 27 29  0  0  1  0  0  0  0  0999 V2000
  189.5940  177.5010  144.3340 C   0  0  1  0  0  3  0  0  0  0  0  0
  190.0980  178.2820  143.1300 C   0  0  1  0  0  3  0  0  0  0  0  0
  190.9300  177.7090  145.0230 C   0  0  2  0  0  3  0  0  0  0  0  0
  191.6090  179.8150  144.1400 O   0  0  0  0  0  1  0  0  0  0  0  0
  191.4420  178.4700  143.8110 C   0  0  2  0  0  3  0  0  0  0  0  0
  191.4850  177.5360  140.9200 O   0  0  0  0  0  0  0  0  0  0  0  0
  190.2380  177.2180  141.6980 S   0  0  0  0  0  0  0  0  0  0  0  0
  190.2820  175.7810  142.1350 O   0  0  0  0  0  0  0  0  0  0  0  0
  188.8160  177.4710  140.6510 C   0  0  0  0  0  2  0  0  0  0  0  0
  189.8990  177.3060  136.5040 C   0  0  0  0  0  3  0  0  0  0  0  0
  189.2060  177.4210  139.2140 C   0  0  0  0  0  0  0  0  0  0  0  0
  189.7780  176.2590  138.6840 C   0  0  0  0  0  3  0  0  0  0  0  0
  190.1260  176.2020  137.3310 C   0  0  0  0  0  3  0  0  0  0  0  0
  189.3240  178.4680  137.0290 C   0  0  0  0  0  3  0  0  0  0  0  0
  188.9770  178.5250  138.3830 C   0  0  0  0  0  3  0  0  0  0  0  0
  191.6400  176.4000  145.1530 C   0  0  0  0  0  3  0  0  0  0  0  0
  192.0740  176.0410  146.2350 O   0  0  0  0  0  0  0  0  0  0  0  0
  188.5650  178.2660  145.0220 N   0  0  0  0  0  2  0  0  0  0  0  0
  187.6230  177.3170  145.6020 C   0  0  0  0  0  2  0  0  0  0  0  0
  184.7540  179.4410  144.8780 C   0  0  0  0  0  3  0  0  0  0  0  0
  184.8080  179.4970  143.3790 C   0  0  0  0  0  2  0  0  0  0  0  0
  185.1460  178.1350  142.7920 C   0  0  0  0  0  2  0  0  0  0  0  0
  186.2610  177.4560  144.9350 C   0  0  2  0  0  3  0  0  0  0  0  0
  186.4400  177.6480  143.4250 C   0  0  0  0  0  2  0  0  0  0  0  0
  185.4500  178.5460  145.6030 C   0  0  0  0  0  0  0  0  0  0  0  0
  186.2210  179.3410  147.8260 C   0  0  0  0  0  1  0  0  0  0  0  0
  185.3750  178.5500  147.0010 O   0  0  0  0  0  0  0  0  0  0  0  0
  1 18  1  1  0  0  0
  1  3  1  0  0  0  0
  2  7  1  6  0  0  0
  2  5  1  0  0  0  0
  2  1  1  0  0  0  0
  3 16  1  6  0  0  0
  5  4  1  1  0  0  0
  5  3  1  0  0  0  0
  6  7  2  0  0  0  0
  7  8  2  0  0  0  0
  9  7  1  0  0  0  0
 10 14  2  0  0  0  0
 10 13  1  0  0  0  0
 11  9  1  0  0  0  0
 12 11  1  0  0  0  0
 13 12  2  0  0  0  0
 14 15  1  0  0  0  0
 15 11  2  0  0  0  0
 16 17  2  0  0  0  0
 18 19  1  0  0  0  0
 20 25  2  0  0  0  0
 21 20  1  0  0  0  0
 22 21  1  0  0  0  0
 22 24  1  0  0  0  0
 23 19  1  1  0  0  0
 23 25  1  0  0  0  0
 24 23  1  0  0  0  0
 25 27  1  0  0  0  0
 27 26  1  0  0  0  0
M  END
>  <MODEL>
4

>  <REMARK>
 VINA RESULT:      -7.1      1.257      2.063
  Name = 
  8 active torsions:
  status: ('A' for Active; 'I' for Inactive)
    1  A    between atoms: S_2  and  C_15
    2  A    between atoms: S_2  and  C_18
    3  A    between atoms: C_3  and  N_26
    4  A    between atoms: C_9  and  C_15
    5  A    between atoms: C_10  and  C_20
    6  A    between atoms: C_12  and  C_14
    7  A    between atoms: C_12  and  N_26
    8  A    between atoms: C_17  and  O_21
                            x       y       z     vdW  Elec       q    Type
                         _______ _______ _______ _____ _____    ______ ____

>  <TORSDO>
F 8

$$$$
=
 OpenBabel10262420153D

 27 29  0  0  1  0  0  0  0  0999 V2000
  189.2380  178.2220  141.9130 C   0  0  1  0  0  3  0  0  0  0  0  0
  189.2350  177.6580  143.3260 C   0  0  1  0  0  3  0  0  0  0  0  0
  189.2410  176.8110  141.3530 C   0  0  2  0  0  3  0  0  0  0  0  0
  188.0440  175.6200  143.0350 O   0  0  0  0  0  1  0  0  0  0  0  0
  189.2600  176.2470  142.7650 C   0  0  2  0  0  3  0  0  0  0  0  0
  191.9480  177.6740  143.3230 O   0  0  0  0  0  0  0  0  0  0  0  0
  190.7630  178.0500  144.1680 S   0  0  0  0  0  0  0  0  0  0  0  0
  190.8160  179.5230  144.4640 O   0  0  0  0  0  0  0  0  0  0  0  0
  190.8260  177.1400  145.7010 C   0  0  0  0  0  2  0  0  0  0  0  0
  187.4790  178.1730  148.1760 C   0  0  0  0  0  3  0  0  0  0  0  0
  189.6600  177.4830  146.5640 C   0  0  0  0  0  0  0  0  0  0  0  0
  189.8600  177.8320  147.9050 C   0  0  0  0  0  3  0  0  0  0  0  0
  188.7700  178.1740  148.7110 C   0  0  0  0  0  3  0  0  0  0  0  0
  187.2750  177.8290  146.8360 C   0  0  0  0  0  3  0  0  0  0  0  0
  188.3660  177.4860  146.0300 C   0  0  0  0  0  3  0  0  0  0  0  0
  190.5410  176.5420  140.6680 C   0  0  0  0  0  3  0  0  0  0  0  0
  190.5590  176.1620  139.5100 O   0  0  0  0  0  0  0  0  0  0  0  0
  187.9580  178.8560  141.6320 N   0  0  0  0  0  2  0  0  0  0  0  0
  186.9190  178.0480  142.2570 C   0  0  0  0  0  2  0  0  0  0  0  0
  183.4170  178.9670  141.8540 C   0  0  0  0  0  3  0  0  0  0  0  0
  182.8720  178.6260  143.2110 C   0  0  0  0  0  2  0  0  0  0  0  0
  183.8380  179.0450  144.3090 C   0  0  0  0  0  2  0  0  0  0  0  0
  185.7620  178.9320  142.7020 C   0  0  2  0  0  3  0  0  0  0  0  0
  185.1910  178.4110  144.0260 C   0  0  0  0  0  2  0  0  0  0  0  0
  184.7350  179.0610  141.5970 C   0  0  0  0  0  0  0  0  0  0  0  0
  184.7410  178.6850  139.1420 C   0  0  0  0  0  1  0  0  0  0  0  0
  185.1880  179.3660  140.3080 O   0  0  0  0  0  0  0  0  0  0  0  0
  1 18  1  6  0  0  0
  1  2  1  0  0  0  0
  2  7  1  1  0  0  0
  3 16  1  6  0  0  0
  3  1  1  0  0  0  0
  3  5  1  0  0  0  0
  5  4  1  1  0  0  0
  5  2  1  0  0  0  0
  6  7  2  0  0  0  0
  7  8  2  0  0  0  0
  7  9  1  0  0  0  0
  9 11  1  0  0  0  0
 10 13  1  0  0  0  0
 11 12  1  0  0  0  0
 12 13  2  0  0  0  0
 14 10  2  0  0  0  0
 15 11  2  0  0  0  0
 15 14  1  0  0  0  0
 17 16  2  0  0  0  0
 18 19  1  0  0  0  0
 20 21  1  0  0  0  0
 21 22  1  0  0  0  0
 23 19  1  6  0  0  0
 23 24  1  0  0  0  0
 24 22  1  0  0  0  0
 25 20  2  0  0  0  0
 25 23  1  0  0  0  0
 26 27  1  0  0  0  0
 27 25  1  0  0  0  0
M  END
>  <MODEL>
5

>  <REMARK>
 VINA RESULT:      -7.0      2.278      5.467
  Name = 
  8 active torsions:
  status: ('A' for Active; 'I' for Inactive)
    1  A    between atoms: S_2  and  C_15
    2  A    between atoms: S_2  and  C_18
    3  A    between atoms: C_3  and  N_26
    4  A    between atoms: C_9  and  C_15
    5  A    between atoms: C_10  and  C_20
    6  A    between atoms: C_12  and  C_14
    7  A    between atoms: C_12  and  N_26
    8  A    between atoms: C_17  and  O_21
                            x       y       z     vdW  Elec       q    Type
                         _______ _______ _______ _____ _____    ______ ____

>  <TORSDO>
F 8

$$$$
=
 OpenBabel10262420153D

 27 29  0  0  1  0  0  0  0  0999 V2000
  187.8840  177.7550  139.2530 C   0  0  1  0  0  3  0  0  0  0  0  0
  187.4930  178.2530  137.8700 C   0  0  1  0  0  3  0  0  0  0  0  0
  189.3260  178.1450  138.9810 C   0  0  2  0  0  3  0  0  0  0  0  0
  189.0570  180.0090  137.5210 O   0  0  0  0  0  1  0  0  0  0  0  0
  188.9380  178.6210  137.5900 C   0  0  2  0  0  3  0  0  0  0  0  0
  187.7840  176.8200  135.5850 O   0  0  0  0  0  0  0  0  0  0  0  0
  186.9550  176.8950  136.8370 S   0  0  0  0  0  0  0  0  0  0  0  0
  187.0850  175.6010  137.5920 O   0  0  0  0  0  0  0  0  0  0  0  0
  185.2460  177.1490  136.3940 C   0  0  0  0  0  2  0  0  0  0  0  0
  182.6790  176.7320  139.8040 C   0  0  0  0  0  3  0  0  0  0  0  0
  184.3660  176.9970  137.5870 C   0  0  0  0  0  0  0  0  0  0  0  0
  184.1950  178.0680  138.4720 C   0  0  0  0  0  3  0  0  0  0  0  0
  183.3540  177.9350  139.5800 C   0  0  0  0  0  3  0  0  0  0  0  0
  182.8430  175.6610  138.9200 C   0  0  0  0  0  3  0  0  0  0  0  0
  183.6850  175.7940  137.8110 C   0  0  0  0  0  3  0  0  0  0  0  0
  190.1720  176.9160  138.8930 C   0  0  0  0  0  3  0  0  0  0  0  0
  191.2350  176.8580  139.4880 O   0  0  0  0  0  0  0  0  0  0  0  0
  187.3250  178.6350  140.2700 N   0  0  0  0  0  2  0  0  0  0  0  0
  187.8890  178.2390  141.5540 C   0  0  0  0  0  2  0  0  0  0  0  0
  186.6410  177.8530  144.9550 C   0  0  0  0  0  3  0  0  0  0  0  0
  185.3580  178.6280  144.8800 C   0  0  0  0  0  2  0  0  0  0  0  0
  184.6310  178.3570  143.5710 C   0  0  0  0  0  2  0  0  0  0  0  0
  186.7910  177.7130  142.4700 C   0  0  2  0  0  3  0  0  0  0  0  0
  185.5830  178.6550  142.4230 C   0  0  0  0  0  2  0  0  0  0  0  0
  187.3310  177.4720  143.8640 C   0  0  0  0  0  0  0  0  0  0  0  0
  189.5960  177.1810  144.8400 C   0  0  0  0  0  1  0  0  0  0  0  0
  188.5320  176.7640  143.9920 O   0  0  0  0  0  0  0  0  0  0  0  0
  1 18  1  1  0  0  0
  2  7  1  6  0  0  0
  2  1  1  0  0  0  0
  3 16  1  6  0  0  0
  3  1  1  0  0  0  0
  5  4  1  1  0  0  0
  5  2  1  0  0  0  0
  5  3  1  0  0  0  0
  6  7  2  0  0  0  0
  7  8  2  0  0  0  0
  9  7  1  0  0  0  0
  9 11  1  0  0  0  0
 11 15  2  0  0  0  0
 11 12  1  0  0  0  0
 12 13  2  0  0  0  0
 13 10  1  0  0  0  0
 14 10  2  0  0  0  0
 15 14  1  0  0  0  0
 16 17  2  0  0  0  0
 18 19  1  0  0  0  0
 21 20  1  0  0  0  0
 22 21  1  0  0  0  0
 23 19  1  6  0  0  0
 23 25  1  0  0  0  0
 24 23  1  0  0  0  0
 24 22  1  0  0  0  0
 25 27  1  0  0  0  0
 25 20  2  0  0  0  0
 27 26  1  0  0  0  0
M  END
>  <MODEL>
6

>  <REMARK>
 VINA RESULT:      -6.8      3.234      5.490
  Name = 
  8 active torsions:
  status: ('A' for Active; 'I' for Inactive)
    1  A    between atoms: S_2  and  C_15
    2  A    between atoms: S_2  and  C_18
    3  A    between atoms: C_3  and  N_26
    4  A    between atoms: C_9  and  C_15
    5  A    between atoms: C_10  and  C_20
    6  A    between atoms: C_12  and  C_14
    7  A    between atoms: C_12  and  N_26
    8  A    between atoms: C_17  and  O_21
                            x       y       z     vdW  Elec       q    Type
                         _______ _______ _______ _____ _____    ______ ____

>  <TORSDO>
F 8

$$$$
=
 OpenBabel10262420153D

 27 29  0  0  1  0  0  0  0  0999 V2000
  189.1540  178.1890  141.8730 C   0  0  1  0  0  3  0  0  0  0  0  0
  189.2810  177.5840  143.2620 C   0  0  1  0  0  3  0  0  0  0  0  0
  189.2700  176.8040  141.2620 C   0  0  2  0  0  3  0  0  0  0  0  0
  188.2880  175.4450  142.9560 O   0  0  0  0  0  1  0  0  0  0  0  0
  189.4190  176.2010  142.6510 C   0  0  2  0  0  3  0  0  0  0  0  0
  191.9700  177.9090  143.1170 O   0  0  0  0  0  0  0  0  0  0  0  0
  190.8030  178.1050  144.0440 S   0  0  0  0  0  0  0  0  0  0  0  0
  190.7100  179.5570  144.4200 O   0  0  0  0  0  0  0  0  0  0  0  0
  191.0570  177.1310  145.5170 C   0  0  0  0  0  2  0  0  0  0  0  0
  188.0040  177.9040  148.4280 C   0  0  0  0  0  3  0  0  0  0  0  0
  189.9960  177.4150  146.5240 C   0  0  0  0  0  0  0  0  0  0  0  0
  188.6560  177.1460  146.2230 C   0  0  0  0  0  3  0  0  0  0  0  0
  187.6600  177.3920  147.1740 C   0  0  0  0  0  3  0  0  0  0  0  0
  189.3430  178.1700  148.7340 C   0  0  0  0  0  3  0  0  0  0  0  0
  190.3380  177.9240  147.7820 C   0  0  0  0  0  3  0  0  0  0  0  0
  190.5530  176.6920  140.5060 C   0  0  0  0  0  3  0  0  0  0  0  0
  190.6140  176.0110  139.4960 O   0  0  0  0  0  0  0  0  0  0  0  0
  187.8030  178.6980  141.6780 N   0  0  0  0  0  2  0  0  0  0  0  0
  187.1040  178.5920  142.9520 C   0  0  0  0  0  2  0  0  0  0  0  0
  183.5270  178.7860  143.6110 C   0  0  0  0  0  3  0  0  0  0  0  0
  182.9860  178.9530  142.2200 C   0  0  0  0  0  2  0  0  0  0  0  0
  183.7180  178.0510  141.2370 C   0  0  0  0  0  2  0  0  0  0  0  0
  185.7230  177.9850  142.7440 C   0  0  2  0  0  3  0  0  0  0  0  0
  185.2080  178.3340  141.3440 C   0  0  0  0  0  2  0  0  0  0  0  0
  184.7890  178.3920  143.8630 C   0  0  0  0  0  0  0  0  0  0  0  0
  184.4670  178.6360  146.3140 C   0  0  0  0  0  1  0  0  0  0  0  0
  185.2450  178.2690  145.1820 O   0  0  0  0  0  0  0  0  0  0  0  0
  1 18  1  1  0  0  0
  1  2  1  0  0  0  0
  2  7  1  6  0  0  0
  3 16  1  6  0  0  0
  3  1  1  0  0  0  0
  3  5  1  0  0  0  0
  5  4  1  1  0  0  0
  5  2  1  0  0  0  0
  6  7  2  0  0  0  0
  7  8  2  0  0  0  0
  7  9  1  0  0  0  0
  9 11  1  0  0  0  0
 10 14  1  0  0  0  0
 11 15  1  0  0  0  0
 12 11  2  0  0  0  0
 12 13  1  0  0  0  0
 13 10  2  0  0  0  0
 15 14  2  0  0  0  0
 17 16  2  0  0  0  0
 18 19  1  0  0  0  0
 20 25  2  0  0  0  0
 21 20  1  0  0  0  0
 22 24  1  0  0  0  0
 22 21  1  0  0  0  0
 23 19  1  1  0  0  0
 23 25  1  0  0  0  0
 24 23  1  0  0  0  0
 25 27  1  0  0  0  0
 27 26  1  0  0  0  0
M  END
>  <MODEL>
7

>  <REMARK>
 VINA RESULT:      -6.7      2.256      5.730
  Name = 
  8 active torsions:
  status: ('A' for Active; 'I' for Inactive)
    1  A    between atoms: S_2  and  C_15
    2  A    between atoms: S_2  and  C_18
    3  A    between atoms: C_3  and  N_26
    4  A    between atoms: C_9  and  C_15
    5  A    between atoms: C_10  and  C_20
    6  A    between atoms: C_12  and  C_14
    7  A    between atoms: C_12  and  N_26
    8  A    between atoms: C_17  and  O_21
                            x       y       z     vdW  Elec       q    Type
                         _______ _______ _______ _____ _____    ______ ____

>  <TORSDO>
F 8

$$$$
=
 OpenBabel10262420153D

 27 29  0  0  1  0  0  0  0  0999 V2000
  187.9530  178.5200  140.0580 C   0  0  1  0  0  3  0  0  0  0  0  0
  188.4400  177.1180  140.3950 C   0  0  1  0  0  3  0  0  0  0  0  0
  188.1850  178.2420  138.5840 C   0  0  2  0  0  3  0  0  0  0  0  0
  187.7830  175.8960  138.4640 O   0  0  0  0  0  1  0  0  0  0  0  0
  188.6930  176.8490  138.9220 C   0  0  2  0  0  3  0  0  0  0  0  0
  190.2270  175.8770  142.0160 O   0  0  0  0  0  0  0  0  0  0  0  0
  189.9720  177.1840  141.3170 S   0  0  0  0  0  0  0  0  0  0  0  0
  191.1130  177.4750  140.3830 O   0  0  0  0  0  0  0  0  0  0  0  0
  189.8580  178.4850  142.5320 C   0  0  0  0  0  2  0  0  0  0  0  0
  190.3140  176.8590  146.4740 C   0  0  0  0  0  3  0  0  0  0  0  0
  190.0190  177.9350  143.9070 C   0  0  0  0  0  0  0  0  0  0  0  0
  188.8900  177.6640  144.6900 C   0  0  0  0  0  3  0  0  0  0  0  0
  189.0380  177.1290  145.9730 C   0  0  0  0  0  3  0  0  0  0  0  0
  191.4440  177.1230  145.6940 C   0  0  0  0  0  3  0  0  0  0  0  0
  191.2960  177.6600  144.4110 C   0  0  0  0  0  3  0  0  0  0  0  0
  189.3040  179.0940  138.0800 C   0  0  0  0  0  3  0  0  0  0  0  0
  189.0660  180.1310  137.4840 O   0  0  0  0  0  0  0  0  0  0  0  0
  186.5240  178.6210  140.3170 N   0  0  0  0  0  2  0  0  0  0  0  0
  186.3450  178.7430  141.7580 C   0  0  0  0  0  2  0  0  0  0  0  0
  183.4520  178.9640  143.9610 C   0  0  0  0  0  3  0  0  0  0  0  0
  182.3530  179.2150  142.9690 C   0  0  0  0  0  2  0  0  0  0  0  0
  182.5310  178.3550  141.7270 C   0  0  0  0  0  2  0  0  0  0  0  0
  184.9940  178.1720  142.1690 C   0  0  2  0  0  3  0  0  0  0  0  0
  183.9210  178.6060  141.1640 C   0  0  0  0  0  2  0  0  0  0  0  0
  184.6760  178.5350  143.6040 C   0  0  0  0  0  0  0  0  0  0  0  0
  185.5330  178.7400  145.9260 C   0  0  0  0  0  1  0  0  0  0  0  0
  185.6690  178.3320  144.5700 O   0  0  0  0  0  0  0  0  0  0  0  0
  1 18  1  6  0  0  0
  1  2  1  0  0  0  0
  2  7  1  1  0  0  0
  3 16  1  1  0  0  0
  3  5  1  0  0  0  0
  3  1  1  0  0  0  0
  5  4  1  6  0  0  0
  5  2  1  0  0  0  0
  7  6  2  0  0  0  0
  7  9  1  0  0  0  0
  8  7  2  0  0  0  0
  9 11  1  0  0  0  0
 11 15  2  0  0  0  0
 11 12  1  0  0  0  0
 12 13  2  0  0  0  0
 13 10  1  0  0  0  0
 14 10  2  0  0  0  0
 15 14  1  0  0  0  0
 17 16  2  0  0  0  0
 18 19  1  0  0  0  0
 21 20  1  0  0  0  0
 22 21  1  0  0  0  0
 23 19  1  6  0  0  0
 23 25  1  0  0  0  0
 24 22  1  0  0  0  0
 24 23  1  0  0  0  0
 25 20  2  0  0  0  0
 25 27  1  0  0  0  0
 27 26  1  0  0  0  0
M  END
>  <MODEL>
8

>  <REMARK>
 VINA RESULT:      -6.7      1.990      5.576
  Name = 
  8 active torsions:
  status: ('A' for Active; 'I' for Inactive)
    1  A    between atoms: S_2  and  C_15
    2  A    between atoms: S_2  and  C_18
    3  A    between atoms: C_3  and  N_26
    4  A    between atoms: C_9  and  C_15
    5  A    between atoms: C_10  and  C_20
    6  A    between atoms: C_12  and  C_14
    7  A    between atoms: C_12  and  N_26
    8  A    between atoms: C_17  and  O_21
                            x       y       z     vdW  Elec       q    Type
                         _______ _______ _______ _____ _____    ______ ____

>  <TORSDO>
F 8

$$$$
=
 OpenBabel10262420153D

 27 29  0  0  1  0  0  0  0  0999 V2000
  190.9980  177.6510  142.2730 C   0  0  1  0  0  3  0  0  0  0  0  0
  189.7490  176.7860  142.1920 C   0  0  1  0  0  3  0  0  0  0  0  0
  191.4760  176.8410  143.4650 C   0  0  2  0  0  3  0  0  0  0  0  0
  190.5480  174.6970  142.9980 O   0  0  0  0  0  1  0  0  0  0  0  0
  190.2170  175.9910  143.3980 C   0  0  2  0  0  3  0  0  0  0  0  0
  188.6550  178.9990  143.3190 O   0  0  0  0  0  0  0  0  0  0  0  0
  188.2880  177.7460  142.5730 S   0  0  0  0  0  0  0  0  0  0  0  0
  187.5800  178.1190  141.3000 O   0  0  0  0  0  0  0  0  0  0  0  0
  187.1990  176.7600  143.5850 C   0  0  0  0  0  2  0  0  0  0  0  0
  186.4910  178.7300  147.3290 C   0  0  0  0  0  3  0  0  0  0  0  0
  186.9430  177.4330  144.8900 C   0  0  0  0  0  0  0  0  0  0  0  0
  187.8310  177.2520  145.9570 C   0  0  0  0  0  3  0  0  0  0  0  0
  187.6040  177.8980  147.1760 C   0  0  0  0  0  3  0  0  0  0  0  0
  185.6040  178.9160  146.2640 C   0  0  0  0  0  3  0  0  0  0  0  0
  185.8310  178.2700  145.0450 C   0  0  0  0  0  3  0  0  0  0  0  0
  191.4630  177.6930  144.6920 C   0  0  0  0  0  3  0  0  0  0  0  0
  191.7140  177.2070  145.7820 O   0  0  0  0  0  0  0  0  0  0  0  0
  191.8560  177.3860  141.1270 N   0  0  0  0  0  2  0  0  0  0  0  0
  191.0410  177.5170  139.9270 C   0  0  0  0  0  2  0  0  0  0  0  0
  190.5950  176.0890  136.6050 C   0  0  0  0  0  3  0  0  0  0  0  0
  192.0170  176.0100  136.1320 C   0  0  0  0  0  2  0  0  0  0  0  0
  192.9390  175.5390  137.2470 C   0  0  0  0  0  2  0  0  0  0  0  0
  191.3170  176.3590  138.9760 C   0  0  2  0  0  3  0  0  0  0  0  0
  192.7510  176.4560  138.4450 C   0  0  0  0  0  2  0  0  0  0  0  0
  190.2620  176.2970  137.8930 C   0  0  0  0  0  0  0  0  0  0  0  0
  187.8900  176.8610  137.4190 C   0  0  0  0  0  1  0  0  0  0  0  0
  188.9170  176.3780  138.2760 O   0  0  0  0  0  0  0  0  0  0  0  0
  1 18  1  6  0  0  0
  1  3  1  0  0  0  0
  2  1  1  0  0  0  0
  2  7  1  1  0  0  0
  2  5  1  0  0  0  0
  3 16  1  1  0  0  0
  5  4  1  6  0  0  0
  5  3  1  0  0  0  0
  7  6  2  0  0  0  0
  7  9  1  0  0  0  0
  8  7  2  0  0  0  0
  9 11  1  0  0  0  0
 11 15  2  0  0  0  0
 11 12  1  0  0  0  0
 12 13  2  0  0  0  0
 13 10  1  0  0  0  0
 14 10  2  0  0  0  0
 15 14  1  0  0  0  0
 16 17  2  0  0  0  0
 19 18  1  0  0  0  0
 20 25  2  0  0  0  0
 21 20  1  0  0  0  0
 21 22  1  0  0  0  0
 22 24  1  0  0  0  0
 23 19  1  1  0  0  0
 24 23  1  0  0  0  0
 25 27  1  0  0  0  0
 25 23  1  0  0  0  0
 26 27  1  0  0  0  0
M  END
>  <MODEL>
9

>  <REMARK>
 VINA RESULT:      -6.6      2.212      7.007
  Name = 
  8 active torsions:
  status: ('A' for Active; 'I' for Inactive)
    1  A    between atoms: S_2  and  C_15
    2  A    between atoms: S_2  and  C_18
    3  A    between atoms: C_3  and  N_26
    4  A    between atoms: C_9  and  C_15
    5  A    between atoms: C_10  and  C_20
    6  A    between atoms: C_12  and  C_14
    7  A    between atoms: C_12  and  N_26
    8  A    between atoms: C_17  and  O_21
                            x       y       z     vdW  Elec       q    Type
                         _______ _______ _______ _____ _____    ______ ____

>  <TORSDO>
F 8

$$$$
