=
 OpenBabel10262419583D

 27 31  0  0  1  0  0  0  0  0999 V2000
  189.6830  175.4830  142.8300 S   0  0  0  0  0  0  0  0  0  0  0  0
  188.4800  177.8400  141.7210 C   0  0  2  0  0  3  0  0  0  0  0  0
  187.6300  176.7020  144.6750 N   0  0  0  0  0  2  0  0  0  0  0  0
  185.2300  179.1490  142.3210 N   0  0  0  0  0  0  0  0  0  0  0  0
  183.3290  179.4010  144.2840 Cl  0  0  0  0  0  0  0  0  0  0  0  0
  188.1420  178.5860  140.4130 C   0  0  0  0  0  2  0  0  0  0  0  0
  185.7970  178.2760  144.4950 C   0  0  0  0  0  0  0  0  0  0  0  0
  190.6640  178.0040  146.6050 C   0  0  0  0  0  2  0  0  0  0  0  0
  185.5080  178.1100  145.9550 C   0  0  0  0  0  1  0  0  0  0  0  0
  191.6650  178.0470  145.4440 C   0  0  0  0  0  2  0  0  0  0  0  0
  187.1720  177.8960  143.9640 C   0  0  2  0  0  3  0  0  0  0  0  0
  189.2390  176.5340  141.3940 C   0  0  1  0  0  3  0  0  0  0  0  0
  184.8950  178.8660  143.6860 C   0  0  0  0  0  0  0  0  0  0  0  0
  186.2620  178.6060  141.7580 C   0  0  0  0  0  0  0  0  0  0  0  0
  190.0070  176.8680  143.9720 C   0  0  2  0  0  3  0  0  0  0  0  0
  187.1370  177.6200  142.4410 C   0  0  1  0  0  3  0  0  0  0  0  0
  189.2260  178.0040  146.0900 C   0  0  0  0  0  2  0  0  0  0  0  0
  186.7950  179.0990  140.5520 N   0  0  0  0  0  2  0  0  0  0  0  0
  191.4510  176.8750  144.4820 C   0  0  2  0  0  3  0  0  0  0  0  0
  191.7720  175.6670  145.1100 O   0  0  0  0  0  1  0  0  0  0  0  0
  189.0160  176.8260  145.1340 C   0  0  1  0  0  3  0  0  0  0  0  0
  192.7380  177.1190  138.9560 C   0  0  0  0  0  3  0  0  0  0  0  0
  190.4600  176.7650  140.5540 C   0  0  0  0  0  0  0  0  0  0  0  0
  190.4730  176.3050  139.2330 C   0  0  0  0  0  3  0  0  0  0  0  0
  191.6060  176.4860  138.4330 C   0  0  0  0  0  3  0  0  0  0  0  0
  192.7320  177.5770  140.2770 C   0  0  0  0  0  3  0  0  0  0  0  0
  191.5970  177.4040  141.0770 C   0  0  0  0  0  3  0  0  0  0  0  0
  2  6  1  6  0  0  0
  2 16  1  0  0  0  0
  3 21  1  0  0  0  0
  4 13  1  0  0  0  0
  6 18  1  0  0  0  0
  7  9  1  0  0  0  0
 10  8  1  0  0  0  0
 11  7  1  1  0  0  0
 11  3  1  0  0  0  0
 12 23  1  1  0  0  0
 12  2  1  0  0  0  0
 12  1  1  0  0  0  0
 13  5  1  0  0  0  0
 13  7  2  0  0  0  0
 14  4  2  0  0  0  0
 15  1  1  6  0  0  0
 15 19  1  0  0  0  0
 15 21  1  0  0  0  0
 16 14  1  6  0  0  0
 16 11  1  0  0  0  0
 17  8  1  0  0  0  0
 18 14  1  0  0  0  0
 19 20  1  1  0  0  0
 19 10  1  0  0  0  0
 21 17  1  6  0  0  0
 22 26  1  0  0  0  0
 23 27  1  0  0  0  0
 24 23  2  0  0  0  0
 25 22  2  0  0  0  0
 25 24  1  0  0  0  0
 26 27  2  0  0  0  0
M  END
>  <MODEL>
1

>  <REMARK>
 VINA RESULT:      -7.7      0.000      0.000
  Name = 
  1 active torsions:
  status: ('A' for Active; 'I' for Inactive)
    1  A    between atoms: C_9  and  C_15
                            x       y       z     vdW  Elec       q    Type
                         _______ _______ _______ _____ _____    ______ ____

>  <TORSDO>
F 1

$$$$
=
 OpenBabel10262419583D

 27 31  0  0  1  0  0  0  0  0999 V2000
  189.3410  178.1160  136.9140 S   0  0  0  0  0  0  0  0  0  0  0  0
  189.2230  177.0690  139.5830 C   0  0  2  0  0  3  0  0  0  0  0  0
  186.7130  178.7150  138.2700 N   0  0  0  0  0  2  0  0  0  0  0  0
  187.3660  178.2960  142.3540 N   0  0  0  0  0  0  0  0  0  0  0  0
  184.9980  179.5250  142.9960 Cl  0  0  0  0  0  0  0  0  0  0  0  0
  190.0620  176.6330  140.8030 C   0  0  0  0  0  2  0  0  0  0  0  0
  185.8510  178.7440  140.5340 C   0  0  0  0  0  0  0  0  0  0  0  0
  185.3510  175.8890  136.0820 C   0  0  0  0  0  2  0  0  0  0  0  0
  184.5120  179.1760  140.0210 C   0  0  0  0  0  1  0  0  0  0  0  0
  186.6540  175.1010  135.8990 C   0  0  0  0  0  2  0  0  0  0  0  0
  186.8290  178.0740  139.5790 C   0  0  2  0  0  3  0  0  0  0  0  0
  190.1620  177.5130  138.4380 C   0  0  1  0  0  3  0  0  0  0  0  0
  186.1390  178.8370  141.8470 C   0  0  0  0  0  0  0  0  0  0  0  0
  188.3350  177.9720  141.5580 C   0  0  0  0  0  0  0  0  0  0  0  0
  187.9320  176.9610  137.0020 C   0  0  2  0  0  3  0  0  0  0  0  0
  188.2860  178.1810  140.0890 C   0  0  1  0  0  3  0  0  0  0  0  0
  185.4270  176.8010  137.3050 C   0  0  0  0  0  2  0  0  0  0  0  0
  189.4010  177.1550  141.9810 N   0  0  0  0  0  2  0  0  0  0  0  0
  187.8580  176.0390  135.7810 C   0  0  2  0  0  3  0  0  0  0  0  0
  187.7850  176.7760  134.5940 O   0  0  0  0  0  1  0  0  0  0  0  0
  186.6300  177.7410  137.1770 C   0  0  1  0  0  3  0  0  0  0  0  0
  193.0140  174.4500  137.4320 C   0  0  0  0  0  3  0  0  0  0  0  0
  191.1720  176.4640  138.0740 C   0  0  0  0  0  0  0  0  0  0  0  0
  190.7250  175.2220  137.6090 C   0  0  0  0  0  3  0  0  0  0  0  0
  191.6430  174.2190  137.2830 C   0  0  0  0  0  3  0  0  0  0  0  0
  193.4670  175.6870  137.9000 C   0  0  0  0  0  3  0  0  0  0  0  0
  192.5500  176.6950  138.2200 C   0  0  0  0  0  3  0  0  0  0  0  0
  1 12  1  0  0  0  0
  2 16  1  0  0  0  0
  2  6  1  1  0  0  0
  6 18  1  0  0  0  0
  7 13  2  0  0  0  0
  8 17  1  0  0  0  0
  9  7  1  0  0  0  0
 10  8  1  0  0  0  0
 11  3  1  6  0  0  0
 11 16  1  0  0  0  0
 11  7  1  0  0  0  0
 12 23  1  6  0  0  0
 12  2  1  0  0  0  0
 13  4  1  0  0  0  0
 13  5  1  0  0  0  0
 14 18  1  0  0  0  0
 14  4  2  0  0  0  0
 15  1  1  6  0  0  0
 15 21  1  0  0  0  0
 16 14  1  1  0  0  0
 19 20  1  6  0  0  0
 19 10  1  0  0  0  0
 19 15  1  0  0  0  0
 21 17  1  1  0  0  0
 21  3  1  0  0  0  0
 22 26  1  0  0  0  0
 23 27  1  0  0  0  0
 24 23  2  0  0  0  0
 25 22  2  0  0  0  0
 25 24  1  0  0  0  0
 26 27  2  0  0  0  0
M  END
>  <MODEL>
2

>  <REMARK>
 VINA RESULT:      -7.4      3.660      5.996
  Name = 
  1 active torsions:
  status: ('A' for Active; 'I' for Inactive)
    1  A    between atoms: C_9  and  C_15
                            x       y       z     vdW  Elec       q    Type
                         _______ _______ _______ _____ _____    ______ ____

>  <TORSDO>
F 1

$$$$
=
 OpenBabel10262419583D

 27 31  0  0  1  0  0  0  0  0999 V2000
  189.0300  178.6590  138.0920 S   0  0  0  0  0  0  0  0  0  0  0  0
  189.0160  177.0830  140.4900 C   0  0  2  0  0  3  0  0  0  0  0  0
  186.4450  178.9220  139.6250 N   0  0  0  0  0  2  0  0  0  0  0  0
  187.2430  177.6820  143.5130 N   0  0  0  0  0  0  0  0  0  0  0  0
  184.8860  178.7120  144.4690 Cl  0  0  0  0  0  0  0  0  0  0  0  0
  189.9000  176.4200  141.5670 C   0  0  0  0  0  2  0  0  0  0  0  0
  185.6620  178.4690  141.8730 C   0  0  0  0  0  0  0  0  0  0  0  0
  185.0370  176.5830  136.9460 C   0  0  0  0  0  2  0  0  0  0  0  0
  184.3010  178.9740  141.5030 C   0  0  0  0  0  1  0  0  0  0  0  0
  186.3410  175.8720  136.5630 C   0  0  0  0  0  2  0  0  0  0  0  0
  186.6130  178.0260  140.7700 C   0  0  2  0  0  3  0  0  0  0  0  0
  189.9100  177.7690  139.4330 C   0  0  1  0  0  3  0  0  0  0  0  0
  185.9940  178.2960  143.1660 C   0  0  0  0  0  0  0  0  0  0  0  0
  188.1870  177.5450  142.6360 C   0  0  0  0  0  0  0  0  0  0  0  0
  187.6370  177.4870  137.9840 C   0  0  2  0  0  3  0  0  0  0  0  0
  188.0850  178.0510  141.2440 C   0  0  1  0  0  3  0  0  0  0  0  0
  185.1460  177.2250  138.3270 C   0  0  0  0  0  2  0  0  0  0  0  0
  189.2750  176.6780  142.8470 N   0  0  0  0  0  2  0  0  0  0  0  0
  187.5300  176.8350  136.6020 C   0  0  2  0  0  3  0  0  0  0  0  0
  187.4090  177.7980  135.5960 O   0  0  0  0  0  1  0  0  0  0  0  0
  186.3340  178.1920  138.3580 C   0  0  1  0  0  3  0  0  0  0  0  0
  192.8400  175.1550  137.6680 C   0  0  0  0  0  3  0  0  0  0  0  0
  190.9170  176.8360  138.8280 C   0  0  0  0  0  0  0  0  0  0  0  0
  192.2790  177.1420  138.9350 C   0  0  0  0  0  3  0  0  0  0  0  0
  193.2390  176.3020  138.3620 C   0  0  0  0  0  3  0  0  0  0  0  0
  191.4810  174.8460  137.5540 C   0  0  0  0  0  3  0  0  0  0  0  0
  190.5190  175.6810  138.1330 C   0  0  0  0  0  3  0  0  0  0  0  0
  1 12  1  0  0  0  0
  2 16  1  0  0  0  0
  2  6  1  1  0  0  0
  6 18  1  0  0  0  0
  7 13  2  0  0  0  0
  8 17  1  0  0  0  0
  9  7  1  0  0  0  0
 10 19  1  0  0  0  0
 10  8  1  0  0  0  0
 11  3  1  6  0  0  0
 11 16  1  0  0  0  0
 11  7  1  0  0  0  0
 12 23  1  6  0  0  0
 12  2  1  0  0  0  0
 13  4  1  0  0  0  0
 13  5  1  0  0  0  0
 14 18  1  0  0  0  0
 14  4  2  0  0  0  0
 15  1  1  6  0  0  0
 15 21  1  0  0  0  0
 16 14  1  1  0  0  0
 19 20  1  6  0  0  0
 19 15  1  0  0  0  0
 21 17  1  1  0  0  0
 21  3  1  0  0  0  0
 22 25  1  0  0  0  0
 23 24  1  0  0  0  0
 25 24  2  0  0  0  0
 26 22  2  0  0  0  0
 26 27  1  0  0  0  0
 27 23  2  0  0  0  0
M  END
>  <MODEL>
3

>  <REMARK>
 VINA RESULT:      -6.9      3.219      5.473
  Name = 
  1 active torsions:
  status: ('A' for Active; 'I' for Inactive)
    1  A    between atoms: C_9  and  C_15
                            x       y       z     vdW  Elec       q    Type
                         _______ _______ _______ _____ _____    ______ ____

>  <TORSDO>
F 1

$$$$
=
 OpenBabel10262419583D

 27 31  0  0  1  0  0  0  0  0999 V2000
  190.3220  179.0010  143.5020 S   0  0  0  0  0  0  0  0  0  0  0  0
  188.1310  177.4720  144.5490 C   0  0  2  0  0  3  0  0  0  0  0  0
  187.8870  179.1130  141.7230 N   0  0  0  0  0  2  0  0  0  0  0  0
  184.6470  178.0030  144.0800 N   0  0  0  0  0  0  0  0  0  0  0  0
  182.8250  178.8860  142.2280 Cl  0  0  0  0  0  0  0  0  0  0  0  0
  187.4990  176.8910  145.8310 C   0  0  0  0  0  2  0  0  0  0  0  0
  185.5180  178.6490  141.9280 C   0  0  0  0  0  0  0  0  0  0  0  0
  189.8140  176.6360  139.5380 C   0  0  0  0  0  2  0  0  0  0  0  0
  185.3130  179.0530  140.5000 C   0  0  0  0  0  1  0  0  0  0  0  0
  190.6890  176.0090  140.6300 C   0  0  0  0  0  2  0  0  0  0  0  0
  186.9120  178.2530  142.3930 C   0  0  2  0  0  3  0  0  0  0  0  0
  189.4490  178.1980  144.9010 C   0  0  1  0  0  3  0  0  0  0  0  0
  184.4640  178.5220  142.7560 C   0  0  0  0  0  0  0  0  0  0  0  0
  185.8270  177.9150  144.6070 C   0  0  0  0  0  0  0  0  0  0  0  0
  189.8810  177.7340  142.2660 C   0  0  2  0  0  3  0  0  0  0  0  0
  187.0590  178.3870  143.9270 C   0  0  1  0  0  3  0  0  0  0  0  0
  188.5820  177.3090  140.1400 C   0  0  0  0  0  2  0  0  0  0  0  0
  186.0730  177.1280  145.7480 N   0  0  0  0  0  2  0  0  0  0  0  0
  191.1140  177.0510  141.6670 C   0  0  2  0  0  3  0  0  0  0  0  0
  191.9800  177.9860  141.0900 O   0  0  0  0  0  1  0  0  0  0  0  0
  189.0140  178.3550  141.1710 C   0  0  1  0  0  3  0  0  0  0  0  0
  192.1880  175.6290  147.0050 C   0  0  0  0  0  3  0  0  0  0  0  0
  190.4120  177.3250  145.6490 C   0  0  0  0  0  0  0  0  0  0  0  0
  191.1660  176.3820  144.9420 C   0  0  0  0  0  3  0  0  0  0  0  0
  192.0560  175.5390  145.6160 C   0  0  0  0  0  3  0  0  0  0  0  0
  191.4350  176.5670  147.7180 C   0  0  0  0  0  3  0  0  0  0  0  0
  190.5490  177.4160  147.0450 C   0  0  0  0  0  3  0  0  0  0  0  0
  1 12  1  0  0  0  0
  2 12  1  0  0  0  0
  2  6  1  1  0  0  0
  4 14  2  0  0  0  0
  5 13  1  0  0  0  0
  7 11  1  0  0  0  0
  7 13  2  0  0  0  0
  8 17  1  0  0  0  0
  8 10  1  0  0  0  0
  9  7  1  0  0  0  0
 10 19  1  0  0  0  0
 11  3  1  6  0  0  0
 11 16  1  0  0  0  0
 12 23  1  6  0  0  0
 13  4  1  0  0  0  0
 14 18  1  0  0  0  0
 15  1  1  1  0  0  0
 16  2  1  0  0  0  0
 16 14  1  1  0  0  0
 18  6  1  0  0  0  0
 19 20  1  6  0  0  0
 19 15  1  0  0  0  0
 21 17  1  6  0  0  0
 21  3  1  0  0  0  0
 21 15  1  0  0  0  0
 22 26  1  0  0  0  0
 23 27  1  0  0  0  0
 24 25  1  0  0  0  0
 24 23  2  0  0  0  0
 25 22  2  0  0  0  0
 27 26  2  0  0  0  0
M  END
>  <MODEL>
4

>  <REMARK>
 VINA RESULT:      -6.8      1.809      4.793
  Name = 
  1 active torsions:
  status: ('A' for Active; 'I' for Inactive)
    1  A    between atoms: C_9  and  C_15
                            x       y       z     vdW  Elec       q    Type
                         _______ _______ _______ _____ _____    ______ ____

>  <TORSDO>
F 1

$$$$
=
 OpenBabel10262419583D

 27 31  0  0  1  0  0  0  0  0999 V2000
  188.6830  179.1480  139.3600 S   0  0  0  0  0  0  0  0  0  0  0  0
  188.6830  177.1090  141.3790 C   0  0  2  0  0  3  0  0  0  0  0  0
  186.2820  179.3310  141.1780 N   0  0  0  0  0  2  0  0  0  0  0  0
  187.2490  177.2240  144.6300 N   0  0  0  0  0  0  0  0  0  0  0  0
  185.1160  178.2530  146.0160 Cl  0  0  0  0  0  0  0  0  0  0  0  0
  189.5700  176.1500  142.2010 C   0  0  0  0  0  2  0  0  0  0  0  0
  185.6410  178.4910  143.3580 C   0  0  0  0  0  0  0  0  0  0  0  0
  184.3930  177.7620  138.2460 C   0  0  0  0  0  2  0  0  0  0  0  0
  184.3230  179.1930  143.2430 C   0  0  0  0  0  1  0  0  0  0  0  0
  185.5690  177.0240  137.5930 C   0  0  0  0  0  2  0  0  0  0  0  0
  186.4380  178.2010  142.0940 C   0  0  2  0  0  3  0  0  0  0  0  0
  189.5610  177.9130  140.3930 C   0  0  1  0  0  3  0  0  0  0  0  0
  186.0560  178.0160  144.5480 C   0  0  0  0  0  0  0  0  0  0  0  0
  188.0950  177.1850  143.6490 C   0  0  0  0  0  0  0  0  0  0  0  0
  187.1590  178.1660  139.1650 C   0  0  2  0  0  3  0  0  0  0  0  0
  187.9380  177.9820  142.4070 C   0  0  1  0  0  3  0  0  0  0  0  0
  184.6910  178.0830  139.7090 C   0  0  0  0  0  2  0  0  0  0  0  0
  189.0870  176.1900  143.5660 N   0  0  0  0  0  2  0  0  0  0  0  0
  186.8620  177.8360  137.7000 C   0  0  2  0  0  3  0  0  0  0  0  0
  186.7720  178.9980  136.9270 O   0  0  0  0  0  1  0  0  0  0  0  0
  185.9820  178.9000  139.8090 C   0  0  1  0  0  3  0  0  0  0  0  0
  192.0090  175.4590  137.8410 C   0  0  0  0  0  3  0  0  0  0  0  0
  190.3980  177.0350  139.5110 C   0  0  0  0  0  0  0  0  0  0  0  0
  191.7910  177.1660  139.5450 C   0  0  0  0  0  3  0  0  0  0  0  0
  192.5960  176.3770  138.7170 C   0  0  0  0  0  3  0  0  0  0  0  0
  190.6180  175.3260  137.7980 C   0  0  0  0  0  3  0  0  0  0  0  0
  189.8110  176.1100  138.6310 C   0  0  0  0  0  3  0  0  0  0  0  0
  1 12  1  0  0  0  0
  2  6  1  1  0  0  0
  2 16  1  0  0  0  0
  6 18  1  0  0  0  0
  7 13  2  0  0  0  0
  8 17  1  0  0  0  0
  9  7  1  0  0  0  0
 10 19  1  0  0  0  0
 10  8  1  0  0  0  0
 11  3  1  6  0  0  0
 11 16  1  0  0  0  0
 11  7  1  0  0  0  0
 12 23  1  6  0  0  0
 12  2  1  0  0  0  0
 13  4  1  0  0  0  0
 13  5  1  0  0  0  0
 14  4  2  0  0  0  0
 15  1  1  6  0  0  0
 15 21  1  0  0  0  0
 16 14  1  1  0  0  0
 18 14  1  0  0  0  0
 19 20  1  6  0  0  0
 19 15  1  0  0  0  0
 21 17  1  1  0  0  0
 21  3  1  0  0  0  0
 22 25  1  0  0  0  0
 23 24  1  0  0  0  0
 25 24  2  0  0  0  0
 26 22  2  0  0  0  0
 26 27  1  0  0  0  0
 27 23  2  0  0  0  0
M  END
>  <MODEL>
5

>  <REMARK>
 VINA RESULT:      -6.7      2.818      5.040
  Name = 
  1 active torsions:
  status: ('A' for Active; 'I' for Inactive)
    1  A    between atoms: C_9  and  C_15
                            x       y       z     vdW  Elec       q    Type
                         _______ _______ _______ _____ _____    ______ ____

>  <TORSDO>
F 1

$$$$
=
 OpenBabel10262419583D

 27 31  0  0  1  0  0  0  0  0999 V2000
  188.8380  179.0030  140.0380 S   0  0  0  0  0  0  0  0  0  0  0  0
  186.9150  177.8980  141.8580 C   0  0  2  0  0  3  0  0  0  0  0  0
  186.0480  178.9820  138.8890 N   0  0  0  0  0  2  0  0  0  0  0  0
  183.4450  178.6280  142.1120 N   0  0  0  0  0  0  0  0  0  0  0  0
  181.2590  179.2930  140.5930 Cl  0  0  0  0  0  0  0  0  0  0  0  0
  186.5950  177.6310  143.3440 C   0  0  0  0  0  2  0  0  0  0  0  0
  183.7850  178.7720  139.7310 C   0  0  0  0  0  0  0  0  0  0  0  0
  187.2860  175.9740  136.8780 C   0  0  0  0  0  2  0  0  0  0  0  0
  183.2520  178.9110  138.3380 C   0  0  0  0  0  1  0  0  0  0  0  0
  188.3780  175.4950  137.8420 C   0  0  0  0  0  2  0  0  0  0  0  0
  185.2350  178.3530  139.9310 C   0  0  2  0  0  3  0  0  0  0  0  0
  188.3050  178.5620  141.7360 C   0  0  1  0  0  3  0  0  0  0  0  0
  182.9620  178.8980  140.7890 C   0  0  0  0  0  0  0  0  0  0  0  0
  184.7140  178.5410  142.3570 C   0  0  0  0  0  0  0  0  0  0  0  0
  188.0610  177.5650  139.2280 C   0  0  2  0  0  3  0  0  0  0  0  0
  185.7590  178.7660  141.3270 C   0  0  1  0  0  3  0  0  0  0  0  0
  186.2650  176.8540  137.5970 C   0  0  0  0  0  2  0  0  0  0  0  0
  185.2020  177.9690  143.5470 N   0  0  0  0  0  2  0  0  0  0  0  0
  189.0830  176.6770  138.5130 C   0  0  2  0  0  3  0  0  0  0  0  0
  189.8150  177.4050  137.5700 O   0  0  0  0  0  1  0  0  0  0  0  0
  186.9760  178.0370  138.2610 C   0  0  1  0  0  3  0  0  0  0  0  0
  191.4700  176.3430  143.6300 C   0  0  0  0  0  3  0  0  0  0  0  0
  189.3890  177.7680  142.4040 C   0  0  0  0  0  0  0  0  0  0  0  0
  190.3350  178.4370  143.1890 C   0  0  0  0  0  3  0  0  0  0  0  0
  191.3700  177.7270  143.8060 C   0  0  0  0  0  3  0  0  0  0  0  0
  190.5300  175.6700  142.8430 C   0  0  0  0  0  3  0  0  0  0  0  0
  189.4900  176.3780  142.2320 C   0  0  0  0  0  3  0  0  0  0  0  0
  1 12  1  0  0  0  0
  2  6  1  1  0  0  0
  4 14  2  0  0  0  0
  5 13  1  0  0  0  0
  6 18  1  0  0  0  0
  7 11  1  0  0  0  0
  7 13  2  0  0  0  0
  8 17  1  0  0  0  0
  8 10  1  0  0  0  0
  9  7  1  0  0  0  0
 10 19  1  0  0  0  0
 11  3  1  6  0  0  0
 11 16  1  0  0  0  0
 12  2  1  0  0  0  0
 12 23  1  6  0  0  0
 13  4  1  0  0  0  0
 14 18  1  0  0  0  0
 15  1  1  6  0  0  0
 16  2  1  0  0  0  0
 16 14  1  1  0  0  0
 19 20  1  6  0  0  0
 19 15  1  0  0  0  0
 21 17  1  1  0  0  0
 21  3  1  0  0  0  0
 21 15  1  0  0  0  0
 22 25  1  0  0  0  0
 23 24  1  0  0  0  0
 24 25  2  0  0  0  0
 26 22  2  0  0  0  0
 27 23  2  0  0  0  0
 27 26  1  0  0  0  0
M  END
>  <MODEL>
6

>  <REMARK>
 VINA RESULT:      -6.7      2.874      5.445
  Name = 
  1 active torsions:
  status: ('A' for Active; 'I' for Inactive)
    1  A    between atoms: C_9  and  C_15
                            x       y       z     vdW  Elec       q    Type
                         _______ _______ _______ _____ _____    ______ ____

>  <TORSDO>
F 1

$$$$
=
 OpenBabel10262419583D

 27 31  0  0  1  0  0  0  0  0999 V2000
  184.4000  179.2540  139.0750 S   0  0  0  0  0  0  0  0  0  0  0  0
  184.3550  178.3430  141.7950 C   0  0  2  0  0  3  0  0  0  0  0  0
  181.5980  178.7420  140.0700 N   0  0  0  0  0  2  0  0  0  0  0  0
  181.7930  178.7690  144.2230 N   0  0  0  0  0  0  0  0  0  0  0  0
  179.0660  178.9140  144.4850 Cl  0  0  0  0  0  0  0  0  0  0  0  0
  185.1210  178.3380  143.1350 C   0  0  0  0  0  2  0  0  0  0  0  0
  180.4970  178.4820  142.2120 C   0  0  0  0  0  0  0  0  0  0  0  0
  181.8350  175.5360  137.9990 C   0  0  0  0  0  2  0  0  0  0  0  0
  179.1830  178.2960  141.5170 C   0  0  0  0  0  1  0  0  0  0  0  0
  183.3580  175.3600  138.0330 C   0  0  0  0  0  2  0  0  0  0  0  0
  181.7850  178.2520  141.4350 C   0  0  2  0  0  3  0  0  0  0  0  0
  185.1770  179.1010  140.7290 C   0  0  1  0  0  3  0  0  0  0  0  0
  180.5360  178.7300  143.5350 C   0  0  0  0  0  0  0  0  0  0  0  0
  182.9100  178.8550  143.5720 C   0  0  0  0  0  0  0  0  0  0  0  0
  183.5930  177.6190  139.1050 C   0  0  2  0  0  3  0  0  0  0  0  0
  182.9830  178.9760  142.0940 C   0  0  1  0  0  3  0  0  0  0  0  0
  181.3600  176.4360  139.1380 C   0  0  0  0  0  2  0  0  0  0  0  0
  184.1480  178.5740  144.1810 N   0  0  0  0  0  2  0  0  0  0  0  0
  184.0740  176.7120  137.9690 C   0  0  2  0  0  3  0  0  0  0  0  0
  183.8700  177.3110  136.7210 O   0  0  0  0  0  1  0  0  0  0  0  0
  182.0750  177.7880  139.0640 C   0  0  1  0  0  3  0  0  0  0  0  0
  189.1390  177.4930  140.2320 C   0  0  0  0  0  3  0  0  0  0  0  0
  186.5680  178.5610  140.5730 C   0  0  0  0  0  0  0  0  0  0  0  0
  187.0240  178.2150  139.2960 C   0  0  0  0  0  3  0  0  0  0  0  0
  188.3080  177.6880  139.1240 C   0  0  0  0  0  3  0  0  0  0  0  0
  188.6880  177.8330  141.5110 C   0  0  0  0  0  3  0  0  0  0  0  0
  187.4060  178.3670  141.6850 C   0  0  0  0  0  3  0  0  0  0  0  0
  1 12  1  0  0  0  0
  2 16  1  0  0  0  0
  2  6  1  1  0  0  0
  6 18  1  0  0  0  0
  7 13  2  0  0  0  0
  8 10  1  0  0  0  0
  8 17  1  0  0  0  0
  9  7  1  0  0  0  0
 11  3  1  6  0  0  0
 11 16  1  0  0  0  0
 11  7  1  0  0  0  0
 12 23  1  6  0  0  0
 12  2  1  0  0  0  0
 13  4  1  0  0  0  0
 13  5  1  0  0  0  0
 14 18  1  0  0  0  0
 14  4  2  0  0  0  0
 15  1  1  6  0  0  0
 16 14  1  1  0  0  0
 19 20  1  6  0  0  0
 19 10  1  0  0  0  0
 19 15  1  0  0  0  0
 21 15  1  0  0  0  0
 21 17  1  1  0  0  0
 21  3  1  0  0  0  0
 22 26  1  0  0  0  0
 23 27  1  0  0  0  0
 24 23  2  0  0  0  0
 25 24  1  0  0  0  0
 25 22  2  0  0  0  0
 26 27  2  0  0  0  0
M  END
>  <MODEL>
7

>  <REMARK>
 VINA RESULT:      -6.5      4.492      6.926
  Name = 
  1 active torsions:
  status: ('A' for Active; 'I' for Inactive)
    1  A    between atoms: C_9  and  C_15
                            x       y       z     vdW  Elec       q    Type
                         _______ _______ _______ _____ _____    ______ ____

>  <TORSDO>
F 1

$$$$
=
 OpenBabel10262419583D

 27 31  0  0  1  0  0  0  0  0999 V2000
  187.4930  179.5480  141.1240 S   0  0  0  0  0  0  0  0  0  0  0  0
  188.3720  177.2230  142.5580 C   0  0  2  0  0  3  0  0  0  0  0  0
  186.3120  179.3930  143.8960 N   0  0  0  0  0  2  0  0  0  0  0  0
  188.7320  176.8030  146.0690 N   0  0  0  0  0  0  0  0  0  0  0  0
  187.6200  177.5560  148.4620 Cl  0  0  0  0  0  0  0  0  0  0  0  0
  189.4920  176.1700  142.6840 C   0  0  0  0  0  2  0  0  0  0  0  0
  186.7810  178.2130  145.9590 C   0  0  0  0  0  0  0  0  0  0  0  0
  183.1400  178.2510  142.0910 C   0  0  0  0  0  2  0  0  0  0  0  0
  185.6190  178.8940  146.6150 C   0  0  0  0  0  1  0  0  0  0  0  0
  183.7980  177.6500  140.8430 C   0  0  0  0  0  2  0  0  0  0  0  0
  186.8350  178.1400  144.4400 C   0  0  2  0  0  3  0  0  0  0  0  0
  188.6940  178.1890  141.3960 C   0  0  1  0  0  3  0  0  0  0  0  0
  187.7000  177.5700  146.7040 C   0  0  0  0  0  0  0  0  0  0  0  0
  188.9820  176.9340  144.8050 C   0  0  0  0  0  0  0  0  0  0  0  0
  186.0170  178.5740  141.5690 C   0  0  2  0  0  3  0  0  0  0  0  0
  188.2790  177.9090  143.9340 C   0  0  1  0  0  3  0  0  0  0  0  0
  184.1370  178.3500  143.2440 C   0  0  0  0  0  2  0  0  0  0  0  0
  189.7470  175.9880  144.0980 N   0  0  0  0  0  2  0  0  0  0  0  0
  185.0200  178.4660  140.4120 C   0  0  2  0  0  3  0  0  0  0  0  0
  184.6260  179.7310  139.9630 O   0  0  0  0  0  1  0  0  0  0  0  0
  185.3540  179.1720  142.8090 C   0  0  1  0  0  3  0  0  0  0  0  0
  189.4650  176.1830  137.6660 C   0  0  0  0  0  3  0  0  0  0  0  0
  188.9370  177.4780  140.0970 C   0  0  0  0  0  0  0  0  0  0  0  0
  190.1830  176.8800  139.8720 C   0  0  0  0  0  3  0  0  0  0  0  0
  190.4450  176.2290  138.6630 C   0  0  0  0  0  3  0  0  0  0  0  0
  188.2210  176.7810  137.8830 C   0  0  0  0  0  3  0  0  0  0  0  0
  187.9530  177.4270  139.0960 C   0  0  0  0  0  3  0  0  0  0  0  0
  1 12  1  0  0  0  0
  2  6  1  1  0  0  0
  2 16  1  0  0  0  0
  4 13  1  0  0  0  0
  6 18  1  0  0  0  0
  7  9  1  0  0  0  0
  7 13  2  0  0  0  0
  8 17  1  0  0  0  0
 10  8  1  0  0  0  0
 11  3  1  6  0  0  0
 11  7  1  0  0  0  0
 12 23  1  6  0  0  0
 12  2  1  0  0  0  0
 13  5  1  0  0  0  0
 14  4  2  0  0  0  0
 15  1  1  6  0  0  0
 15 21  1  0  0  0  0
 16 11  1  0  0  0  0
 16 14  1  1  0  0  0
 18 14  1  0  0  0  0
 19 20  1  1  0  0  0
 19 10  1  0  0  0  0
 19 15  1  0  0  0  0
 21 17  1  1  0  0  0
 21  3  1  0  0  0  0
 22 26  2  0  0  0  0
 22 25  1  0  0  0  0
 24 23  1  0  0  0  0
 25 24  2  0  0  0  0
 26 27  1  0  0  0  0
 27 23  2  0  0  0  0
M  END
>  <MODEL>
8

>  <REMARK>
 VINA RESULT:      -6.3      2.927      4.942
  Name = 
  1 active torsions:
  status: ('A' for Active; 'I' for Inactive)
    1  A    between atoms: C_9  and  C_15
                            x       y       z     vdW  Elec       q    Type
                         _______ _______ _______ _____ _____    ______ ____

>  <TORSDO>
F 1

$$$$
=
 OpenBabel10262419583D

 27 31  0  0  1  0  0  0  0  0999 V2000
  189.1350  176.2690  141.6960 S   0  0  0  0  0  0  0  0  0  0  0  0
  187.1520  178.3220  142.0000 C   0  0  2  0  0  3  0  0  0  0  0  0
  188.4670  176.8030  144.5890 N   0  0  0  0  0  2  0  0  0  0  0  0
  184.7820  178.7290  144.6180 N   0  0  0  0  0  0  0  0  0  0  0  0
  184.4580  178.3590  147.3180 Cl  0  0  0  0  0  0  0  0  0  0  0  0
  185.9760  179.0490  141.3150 C   0  0  0  0  0  2  0  0  0  0  0  0
  186.6830  177.8760  145.8290 C   0  0  0  0  0  0  0  0  0  0  0  0
  191.7960  178.6860  144.6360 C   0  0  0  0  0  2  0  0  0  0  0  0
  187.3730  177.5410  147.1160 C   0  0  0  0  0  1  0  0  0  0  0  0
  191.8620  179.0600  143.1500 C   0  0  0  0  0  2  0  0  0  0  0  0
  187.4900  177.8910  144.5380 C   0  0  2  0  0  3  0  0  0  0  0  0
  187.7500  177.2740  141.0340 C   0  0  1  0  0  3  0  0  0  0  0  0
  185.3970  178.2760  145.8310 C   0  0  0  0  0  0  0  0  0  0  0  0
  185.3290  178.5020  143.4650 C   0  0  0  0  0  0  0  0  0  0  0  0
  189.8630  177.6080  142.6980 C   0  0  2  0  0  3  0  0  0  0  0  0
  186.5800  177.7220  143.2980 C   0  0  1  0  0  3  0  0  0  0  0  0
  190.3640  178.3610  145.0580 C   0  0  0  0  0  2  0  0  0  0  0  0
  184.9320  179.1960  142.3070 N   0  0  0  0  0  2  0  0  0  0  0  0
  191.2950  177.9410  142.2710 C   0  0  2  0  0  3  0  0  0  0  0  0
  192.1180  176.8120  142.3320 O   0  0  0  0  0  1  0  0  0  0  0  0
  189.8060  177.2380  144.1790 C   0  0  1  0  0  3  0  0  0  0  0  0
  188.8620  178.9010  137.2070 C   0  0  0  0  0  3  0  0  0  0  0  0
  188.1520  177.8610  139.7140 C   0  0  0  0  0  0  0  0  0  0  0  0
  187.1870  178.0020  138.7100 C   0  0  0  0  0  3  0  0  0  0  0  0
  187.5380  178.5250  137.4610 C   0  0  0  0  0  3  0  0  0  0  0  0
  189.8310  178.7600  138.2050 C   0  0  0  0  0  3  0  0  0  0  0  0
  189.4800  178.2420  139.4570 C   0  0  0  0  0  3  0  0  0  0  0  0
  2  6  1  6  0  0  0
  2 16  1  0  0  0  0
  4 13  1  0  0  0  0
  6 18  1  0  0  0  0
  7 13  2  0  0  0  0
  7  9  1  0  0  0  0
  8 17  1  0  0  0  0
 10  8  1  0  0  0  0
 11  3  1  1  0  0  0
 11  7  1  0  0  0  0
 12 23  1  6  0  0  0
 12  1  1  0  0  0  0
 12  2  1  0  0  0  0
 13  5  1  0  0  0  0
 14  4  2  0  0  0  0
 15  1  1  6  0  0  0
 15 21  1  0  0  0  0
 16 14  1  1  0  0  0
 16 11  1  0  0  0  0
 18 14  1  0  0  0  0
 19 20  1  1  0  0  0
 19 15  1  0  0  0  0
 19 10  1  0  0  0  0
 21  3  1  0  0  0  0
 21 17  1  1  0  0  0
 22 25  2  0  0  0  0
 22 26  1  0  0  0  0
 24 23  2  0  0  0  0
 25 24  1  0  0  0  0
 26 27  2  0  0  0  0
 27 23  1  0  0  0  0
M  END
>  <MODEL>
9

>  <REMARK>
 VINA RESULT:      -6.0      1.813      2.548
  Name = 
  1 active torsions:
  status: ('A' for Active; 'I' for Inactive)
    1  A    between atoms: C_9  and  C_15
                            x       y       z     vdW  Elec       q    Type
                         _______ _______ _______ _____ _____    ______ ____

>  <TORSDO>
F 1

$$$$
