=
 OpenBabel10262422153D

 43 47  0  0  1  0  0  0  0  0999 V2000
  188.7870  178.9500  138.9090 N   0  0  0  0  0  2  0  0  0  0  0  0
  188.9820  177.5910  139.0770 C   0  0  1  0  0  3  0  0  0  0  0  0
  188.7050  179.4590  137.5070 C   0  0  0  0  0  2  0  0  0  0  0  0
  189.3720  176.7660  138.1590 C   0  0  0  0  0  2  0  0  0  0  0  0
  189.1170  177.1620  136.8350 C   0  0  1  0  0  3  0  0  0  0  0  0
  189.4160  178.5600  136.5310 N   0  0  0  0  0  2  0  0  0  0  0  0
  193.2520  174.2340  137.3550 C   0  0  0  0  0  0  0  0  0  0  0  0
  188.5780  175.1860  135.3970 N   0  0  0  0  0  0  0  0  0  0  0  0
  190.9100  174.1260  136.6900 C   0  0  0  0  0  0  0  0  0  0  0  0
  193.1580  175.6220  137.2590 C   0  0  0  0  0  3  0  0  0  0  0  0
  194.5720  173.6260  137.7400 C   0  0  0  0  0  1  0  0  0  0  0  0
  190.8950  175.4890  136.3260 C   0  0  0  0  0  0  0  0  0  0  0  0
  192.1040  173.4670  137.1080 C   0  0  0  0  0  3  0  0  0  0  0  0
  192.0510  176.2250  136.7280 C   0  0  0  0  0  3  0  0  0  0  0  0
  189.6710  176.1240  135.8280 C   0  0  2  0  0  3  0  0  0  0  0  0
  188.3760  174.2150  136.5090 C   0  0  0  0  0  2  0  0  0  0  0  0
  189.6220  173.4070  136.8800 C   0  0  0  0  0  2  0  0  0  0  0  0
  187.2220  175.7290  135.2530 C   0  0  0  0  0  2  0  0  0  0  0  0
  185.9070  174.6450  135.9470 S   0  0  0  0  0  0  0  0  0  0  0  0
  185.7250  177.1480  137.1640 C   0  0  0  0  0  3  0  0  0  0  0  0
  183.9180  177.6330  138.7100 C   0  0  0  0  0  0  0  0  0  0  0  0
  183.9430  175.5260  137.4940 C   0  0  0  0  0  3  0  0  0  0  0  0
  185.0650  178.0520  137.9890 C   0  0  0  0  0  3  0  0  0  0  0  0
  185.1400  175.8710  136.9700 C   0  0  0  0  0  0  0  0  0  0  0  0
  183.3450  176.3880  138.4210 C   0  0  0  0  0  3  0  0  0  0  0  0
  182.6070  178.8960  140.5170 N   0  0  0  0  0  0  0  0  0  0  0  0
  183.2650  178.3980  139.6910 C   0  0  0  0  0  0  0  0  0  0  0  0
  189.0900  177.0500  140.5050 C   0  0  0  0  0  2  0  0  0  0  0  0
  190.2140  177.4870  141.1740 O   0  0  0  0  0  0  0  0  0  0  0  0
  189.9540  177.8290  142.5180 C   0  0  0  0  0  2  0  0  0  0  0  0
  188.7220  177.0510  142.8770 C   0  0  0  0  0  2  0  0  0  0  0  0
  188.3520  177.1350  144.2440 N   0  0  0  0  0  0  0  0  0  0  0  0
  186.9620  177.6710  144.3260 C   0  0  0  0  0  0  0  0  0  0  0  0
  185.1910  178.5410  145.6740 C   0  0  0  0  0  3  0  0  0  0  0  0
  184.9790  178.5010  143.2840 C   0  0  0  0  0  3  0  0  0  0  0  0
  184.5280  178.9150  144.5340 C   0  0  0  0  0  3  0  0  0  0  0  0
  186.2510  177.8930  143.1660 C   0  0  0  0  0  3  0  0  0  0  0  0
  186.4360  177.8880  145.5630 C   0  0  0  0  0  3  0  0  0  0  0  0
  189.2840  177.9090  145.0580 C   0  0  0  0  0  2  0  0  0  0  0  0
  190.2250  177.1420  146.0230 C   0  0  0  0  0  2  0  0  0  0  0  0
  189.6510  176.7430  147.3720 C   0  0  0  0  0  2  0  0  0  0  0  0
  187.9810  177.9560  148.8620 C   0  0  0  0  0  1  0  0  0  0  0  0
  189.2880  178.0120  148.0680 C   0  0  0  0  0  2  0  0  0  0  0  0
  1  2  1  0  0  0  0
  2 28  1  1  0  0  0
  3  1  1  0  0  0  0
  4  2  1  0  0  0  0
  5  4  1  1  0  0  0
  6  5  1  0  0  0  0
  6  3  1  0  0  0  0
  7 11  1  0  0  0  0
  8 15  1  0  0  0  0
  8 16  1  0  0  0  0
  9 17  1  0  0  0  0
  9 13  1  0  0  0  0
 10  7  1  0  0  0  0
 12  9  2  0  0  0  0
 12 14  1  0  0  0  0
 13  7  2  0  0  0  0
 14 10  2  0  0  0  0
 15 12  1  1  0  0  0
 15  5  1  0  0  0  0
 16 17  1  0  0  0  0
 18  8  1  0  0  0  0
 18 19  1  0  0  0  0
 19 24  1  0  0  0  0
 20 23  1  0  0  0  0
 21 27  1  0  0  0  0
 22 25  2  0  0  0  0
 23 21  2  0  0  0  0
 24 20  2  0  0  0  0
 24 22  1  0  0  0  0
 25 21  1  0  0  0  0
 27 26  3  0  0  0  0
 28 29  1  0  0  0  0
 29 30  1  0  0  0  0
 30 31  1  0  0  0  0
 31 32  1  0  0  0  0
 32 33  1  0  0  0  0
 32 39  1  0  0  0  0
 33 38  1  0  0  0  0
 35 36  2  0  0  0  0
 36 34  1  0  0  0  0
 37 35  1  0  0  0  0
 37 33  2  0  0  0  0
 38 34  2  0  0  0  0
 39 40  1  0  0  0  0
 40 41  1  0  0  0  0
 41 43  1  0  0  0  0
 43 42  1  0  0  0  0
M  END
>  <MODEL>
1

>  <REMARK>
 VINA RESULT:      -7.7      0.000      0.000
  Name = 
  15 active torsions:
  status: ('A' for Active; 'I' for Inactive)
    1  A    between atoms: S_1  and  C_34
    2  A    between atoms: S_1  and  C_35
    3  A    between atoms: C_3  and  C_4
    4  A    between atoms: C_3  and  O_12
    5  A    between atoms: C_4  and  N_14
    6  A    between atoms: C_6  and  C_17
    7  A    between atoms: N_8  and  C_34
    8  A    between atoms: C_10  and  C_22
    9  A    between atoms: C_10  and  C_41
   10  A    between atoms: C_11  and  N_14
   11  A    between atoms: O_12  and  C_17
   12  A    between atoms: N_14  and  C_41
   13  A    between atoms: C_19  and  C_37
   14  A    between atoms: C_22  and  C_42
   15  A    between atoms: C_27  and  C_30
                            x       y       z     vdW  Elec       q    Type
                         _______ _______ _______ _____ _____    ______ ____

>  <TORSDO>
F 15

$$$$
=
 OpenBabel10262422153D

 43 47  0  0  1  0  0  0  0  0999 V2000
  188.9070  178.8020  139.2200 N   0  0  0  0  0  2  0  0  0  0  0  0
  189.2670  177.4720  139.3400 C   0  0  1  0  0  3  0  0  0  0  0  0
  188.6950  179.3280  137.8380 C   0  0  0  0  0  2  0  0  0  0  0  0
  189.7050  176.7200  138.3810 C   0  0  0  0  0  2  0  0  0  0  0  0
  189.3380  177.1120  137.0820 C   0  0  1  0  0  3  0  0  0  0  0  0
  189.4550  178.5420  136.8040 N   0  0  0  0  0  2  0  0  0  0  0  0
  193.6080  174.3660  137.4870 C   0  0  0  0  0  0  0  0  0  0  0  0
  188.9200  175.2080  135.5130 N   0  0  0  0  0  0  0  0  0  0  0  0
  191.2840  174.1840  136.7760 C   0  0  0  0  0  0  0  0  0  0  0  0
  193.4450  175.7500  137.4770 C   0  0  0  0  0  3  0  0  0  0  0  0
  194.9520  173.8000  137.8550 C   0  0  0  0  0  1  0  0  0  0  0  0
  191.2060  175.5650  136.4990 C   0  0  0  0  0  0  0  0  0  0  0  0
  192.5030  173.5600  137.1710 C   0  0  0  0  0  3  0  0  0  0  0  0
  192.3170  176.3310  136.9660 C   0  0  0  0  0  3  0  0  0  0  0  0
  189.9580  176.1700  136.0210 C   0  0  2  0  0  3  0  0  0  0  0  0
  188.7520  174.1600  136.5570 C   0  0  0  0  0  2  0  0  0  0  0  0
  190.0320  173.3920  136.8980 C   0  0  0  0  0  2  0  0  0  0  0  0
  187.5400  175.6920  135.3810 C   0  0  0  0  0  2  0  0  0  0  0  0
  186.2780  174.5380  136.0580 S   0  0  0  0  0  0  0  0  0  0  0  0
  185.8580  177.0460  137.2030 C   0  0  0  0  0  3  0  0  0  0  0  0
  183.8520  177.4860  138.4960 C   0  0  0  0  0  0  0  0  0  0  0  0
  184.1020  175.3680  137.3260 C   0  0  0  0  0  3  0  0  0  0  0  0
  185.0680  177.9360  137.9230 C   0  0  0  0  0  3  0  0  0  0  0  0
  185.3450  175.7480  136.9550 C   0  0  0  0  0  0  0  0  0  0  0  0
  183.3620  176.2190  138.1540 C   0  0  0  0  0  3  0  0  0  0  0  0
  182.3490  178.7070  140.1780 N   0  0  0  0  0  0  0  0  0  0  0  0
  183.0520  178.2380  139.3730 C   0  0  0  0  0  0  0  0  0  0  0  0
  189.5100  176.9160  140.7450 C   0  0  0  0  0  2  0  0  0  0  0  0
  189.7700  177.8910  141.6840 O   0  0  0  0  0  0  0  0  0  0  0  0
  190.3780  177.3810  142.8510 C   0  0  0  0  0  2  0  0  0  0  0  0
  189.2560  176.7390  143.6140 C   0  0  0  0  0  2  0  0  0  0  0  0
  188.2840  177.6480  144.1040 N   0  0  0  0  0  0  0  0  0  0  0  0
  188.3310  177.6340  145.5950 C   0  0  0  0  0  0  0  0  0  0  0  0
  189.6140  177.3390  147.5890 C   0  0  0  0  0  3  0  0  0  0  0  0
  187.3360  178.0830  147.7200 C   0  0  0  0  0  3  0  0  0  0  0  0
  188.5730  177.8550  148.3170 C   0  0  0  0  0  3  0  0  0  0  0  0
  187.2150  178.0080  146.3130 C   0  0  0  0  0  3  0  0  0  0  0  0
  189.4810  177.2130  146.1910 C   0  0  0  0  0  3  0  0  0  0  0  0
  186.9380  177.3960  143.5980 C   0  0  0  0  0  2  0  0  0  0  0  0
  186.4170  178.2760  142.4330 C   0  0  0  0  0  2  0  0  0  0  0  0
  185.0090  178.8320  142.5650 C   0  0  0  0  0  2  0  0  0  0  0  0
  183.1130  178.8550  144.2650 C   0  0  0  0  0  1  0  0  0  0  0  0
  184.5950  178.6000  143.9800 C   0  0  0  0  0  2  0  0  0  0  0  0
  1  2  1  0  0  0  0
  2 28  1  1  0  0  0
  3  1  1  0  0  0  0
  4  2  1  0  0  0  0
  5  4  1  1  0  0  0
  6  5  1  0  0  0  0
  6  3  1  0  0  0  0
  7 11  1  0  0  0  0
  8 15  1  0  0  0  0
  8 16  1  0  0  0  0
  9 17  1  0  0  0  0
  9 13  1  0  0  0  0
 10  7  1  0  0  0  0
 12  9  2  0  0  0  0
 12 14  1  0  0  0  0
 13  7  2  0  0  0  0
 14 10  2  0  0  0  0
 15 12  1  1  0  0  0
 15  5  1  0  0  0  0
 16 17  1  0  0  0  0
 18  8  1  0  0  0  0
 18 19  1  0  0  0  0
 19 24  1  0  0  0  0
 20 23  1  0  0  0  0
 21 27  1  0  0  0  0
 22 25  2  0  0  0  0
 23 21  2  0  0  0  0
 24 20  2  0  0  0  0
 24 22  1  0  0  0  0
 25 21  1  0  0  0  0
 27 26  3  0  0  0  0
 28 29  1  0  0  0  0
 29 30  1  0  0  0  0
 30 31  1  0  0  0  0
 31 32  1  0  0  0  0
 32 33  1  0  0  0  0
 33 38  2  0  0  0  0
 33 37  1  0  0  0  0
 34 36  2  0  0  0  0
 35 36  1  0  0  0  0
 37 35  2  0  0  0  0
 38 34  1  0  0  0  0
 39 32  1  0  0  0  0
 40 41  1  0  0  0  0
 40 39  1  0  0  0  0
 41 43  1  0  0  0  0
 43 42  1  0  0  0  0
M  END
>  <MODEL>
2

>  <REMARK>
 VINA RESULT:      -7.5      0.616      2.564
  Name = 
  15 active torsions:
  status: ('A' for Active; 'I' for Inactive)
    1  A    between atoms: S_1  and  C_34
    2  A    between atoms: S_1  and  C_35
    3  A    between atoms: C_3  and  C_4
    4  A    between atoms: C_3  and  O_12
    5  A    between atoms: C_4  and  N_14
    6  A    between atoms: C_6  and  C_17
    7  A    between atoms: N_8  and  C_34
    8  A    between atoms: C_10  and  C_22
    9  A    between atoms: C_10  and  C_41
   10  A    between atoms: C_11  and  N_14
   11  A    between atoms: O_12  and  C_17
   12  A    between atoms: N_14  and  C_41
   13  A    between atoms: C_19  and  C_37
   14  A    between atoms: C_22  and  C_42
   15  A    between atoms: C_27  and  C_30
                            x       y       z     vdW  Elec       q    Type
                         _______ _______ _______ _____ _____    ______ ____

>  <TORSDO>
F 15

$$$$
=
 OpenBabel10262422153D

 43 47  0  0  1  0  0  0  0  0999 V2000
  189.0060  178.9770  138.9790 N   0  0  0  0  0  2  0  0  0  0  0  0
  189.3800  177.6610  139.1830 C   0  0  1  0  0  3  0  0  0  0  0  0
  188.7440  179.4010  137.5700 C   0  0  0  0  0  2  0  0  0  0  0  0
  189.7890  176.8430  138.2670 C   0  0  0  0  0  2  0  0  0  0  0  0
  189.3750  177.1380  136.9570 C   0  0  1  0  0  3  0  0  0  0  0  0
  189.4740  178.5440  136.5720 N   0  0  0  0  0  2  0  0  0  0  0  0
  193.5790  174.3120  137.4910 C   0  0  0  0  0  0  0  0  0  0  0  0
  188.9010  175.1620  135.4980 N   0  0  0  0  0  0  0  0  0  0  0  0
  191.2470  174.1500  136.8030 C   0  0  0  0  0  0  0  0  0  0  0  0
  193.4500  175.6970  137.4060 C   0  0  0  0  0  3  0  0  0  0  0  0
  194.9110  173.7340  137.8840 C   0  0  0  0  0  1  0  0  0  0  0  0
  191.2010  175.5150  136.4510 C   0  0  0  0  0  0  0  0  0  0  0  0
  192.4530  173.5180  137.2270 C   0  0  0  0  0  3  0  0  0  0  0  0
  192.3340  176.2770  136.8700 C   0  0  0  0  0  3  0  0  0  0  0  0
  189.9650  176.1240  135.9460 C   0  0  2  0  0  3  0  0  0  0  0  0
  188.7130  174.1770  136.5990 C   0  0  0  0  0  2  0  0  0  0  0  0
  189.9760  173.3970  136.9750 C   0  0  0  0  0  2  0  0  0  0  0  0
  187.5320  175.6710  135.3450 C   0  0  0  0  0  2  0  0  0  0  0  0
  186.2370  174.5320  135.9840 S   0  0  0  0  0  0  0  0  0  0  0  0
  184.0050  175.5020  137.3470 C   0  0  0  0  0  3  0  0  0  0  0  0
  183.9910  177.7640  138.2270 C   0  0  0  0  0  0  0  0  0  0  0  0
  186.0190  176.8610  137.2320 C   0  0  0  0  0  3  0  0  0  0  0  0
  183.3610  176.5030  138.0660 C   0  0  0  0  0  3  0  0  0  0  0  0
  185.3350  175.7390  136.9150 C   0  0  0  0  0  0  0  0  0  0  0  0
  185.3300  177.9140  137.8460 C   0  0  0  0  0  3  0  0  0  0  0  0
  182.8030  179.8660  139.0930 N   0  0  0  0  0  0  0  0  0  0  0  0
  183.3800  178.8980  138.7880 C   0  0  0  0  0  0  0  0  0  0  0  0
  189.6740  177.2100  140.6160 C   0  0  0  0  0  2  0  0  0  0  0  0
  189.2100  178.0860  141.5740 O   0  0  0  0  0  0  0  0  0  0  0  0
  187.8930  177.7970  141.9900 C   0  0  0  0  0  2  0  0  0  0  0  0
  188.0590  176.9120  143.1900 C   0  0  0  0  0  2  0  0  0  0  0  0
  188.0240  177.5960  144.4330 N   0  0  0  0  0  0  0  0  0  0  0  0
  189.2110  177.1800  145.2360 C   0  0  0  0  0  0  0  0  0  0  0  0
  191.5230  176.5770  145.2910 C   0  0  0  0  0  3  0  0  0  0  0  0
  190.2980  176.8440  147.3370 C   0  0  0  0  0  3  0  0  0  0  0  0
  191.5020  176.6810  146.6580 C   0  0  0  0  0  3  0  0  0  0  0  0
  189.1200  177.1400  146.6110 C   0  0  0  0  0  3  0  0  0  0  0  0
  190.3390  176.8210  144.5640 C   0  0  0  0  0  3  0  0  0  0  0  0
  186.7770  177.4130  145.1680 C   0  0  0  0  0  2  0  0  0  0  0  0
  186.0470  178.6750  145.6970 C   0  0  0  0  0  2  0  0  0  0  0  0
  184.5380  178.7200  145.5250 C   0  0  0  0  0  2  0  0  0  0  0  0
  184.8460  179.5210  143.1280 C   0  0  0  0  0  1  0  0  0  0  0  0
  184.2700  178.4690  144.0790 C   0  0  0  0  0  2  0  0  0  0  0  0
  1  2  1  0  0  0  0
  2 28  1  1  0  0  0
  3  1  1  0  0  0  0
  4  2  1  0  0  0  0
  5  4  1  1  0  0  0
  6  5  1  0  0  0  0
  6  3  1  0  0  0  0
  7 11  1  0  0  0  0
  8 15  1  0  0  0  0
  8 16  1  0  0  0  0
  9 17  1  0  0  0  0
  9 13  1  0  0  0  0
 10  7  1  0  0  0  0
 12  9  2  0  0  0  0
 12 14  1  0  0  0  0
 13  7  2  0  0  0  0
 14 10  2  0  0  0  0
 15 12  1  1  0  0  0
 15  5  1  0  0  0  0
 16 17  1  0  0  0  0
 18  8  1  0  0  0  0
 18 19  1  0  0  0  0
 19 24  1  0  0  0  0
 20 23  1  0  0  0  0
 21 27  1  0  0  0  0
 22 25  2  0  0  0  0
 23 21  2  0  0  0  0
 24 22  1  0  0  0  0
 24 20  2  0  0  0  0
 25 21  1  0  0  0  0
 27 26  3  0  0  0  0
 28 29  1  0  0  0  0
 29 30  1  0  0  0  0
 30 31  1  0  0  0  0
 31 32  1  0  0  0  0
 32 39  1  0  0  0  0
 32 33  1  0  0  0  0
 33 37  1  0  0  0  0
 34 36  2  0  0  0  0
 36 35  1  0  0  0  0
 37 35  2  0  0  0  0
 38 33  2  0  0  0  0
 38 34  1  0  0  0  0
 39 40  1  0  0  0  0
 41 40  1  0  0  0  0
 42 43  1  0  0  0  0
 43 41  1  0  0  0  0
M  END
>  <MODEL>
3

>  <REMARK>
 VINA RESULT:      -7.4      0.886      2.964
  Name = 
  15 active torsions:
  status: ('A' for Active; 'I' for Inactive)
    1  A    between atoms: S_1  and  C_34
    2  A    between atoms: S_1  and  C_35
    3  A    between atoms: C_3  and  C_4
    4  A    between atoms: C_3  and  O_12
    5  A    between atoms: C_4  and  N_14
    6  A    between atoms: C_6  and  C_17
    7  A    between atoms: N_8  and  C_34
    8  A    between atoms: C_10  and  C_22
    9  A    between atoms: C_10  and  C_41
   10  A    between atoms: C_11  and  N_14
   11  A    between atoms: O_12  and  C_17
   12  A    between atoms: N_14  and  C_41
   13  A    between atoms: C_19  and  C_37
   14  A    between atoms: C_22  and  C_42
   15  A    between atoms: C_27  and  C_30
                            x       y       z     vdW  Elec       q    Type
                         _______ _______ _______ _____ _____    ______ ____

>  <TORSDO>
F 15

$$$$
=
 OpenBabel10262422153D

 43 47  0  0  1  0  0  0  0  0999 V2000
  187.9810  178.6670  137.7570 N   0  0  0  0  0  2  0  0  0  0  0  0
  188.2100  177.3390  138.0680 C   0  0  1  0  0  3  0  0  0  0  0  0
  187.1210  178.9500  136.5680 C   0  0  0  0  0  2  0  0  0  0  0  0
  187.9880  176.3320  137.2850 C   0  0  0  0  0  2  0  0  0  0  0  0
  187.0280  176.5410  136.2800 C   0  0  1  0  0  3  0  0  0  0  0  0
  187.1270  177.8180  135.5760 N   0  0  0  0  0  2  0  0  0  0  0  0
  190.6410  173.1630  135.0640 C   0  0  0  0  0  0  0  0  0  0  0  0
  185.7100  174.4640  135.8230 N   0  0  0  0  0  0  0  0  0  0  0  0
  188.3300  173.2930  135.8240 C   0  0  0  0  0  0  0  0  0  0  0  0
  190.5540  174.5180  134.7450 C   0  0  0  0  0  3  0  0  0  0  0  0
  191.9290  172.4380  134.7850 C   0  0  0  0  0  1  0  0  0  0  0  0
  188.1560  174.5690  135.2500 C   0  0  0  0  0  0  0  0  0  0  0  0
  189.5290  172.5410  135.6510 C   0  0  0  0  0  3  0  0  0  0  0  0
  189.3610  175.1840  134.7900 C   0  0  0  0  0  3  0  0  0  0  0  0
  186.8850  175.2900  135.3790 C   0  0  2  0  0  3  0  0  0  0  0  0
  186.1380  173.7180  137.0390 C   0  0  0  0  0  2  0  0  0  0  0  0
  187.3500  172.8060  136.8320 C   0  0  0  0  0  2  0  0  0  0  0  0
  184.5270  175.1680  136.3310 C   0  0  0  0  0  2  0  0  0  0  0  0
  183.8020  174.4130  137.8440 S   0  0  0  0  0  0  0  0  0  0  0  0
  181.9880  175.8550  139.3960 C   0  0  0  0  0  3  0  0  0  0  0  0
  181.9610  178.2810  139.3180 C   0  0  0  0  0  0  0  0  0  0  0  0
  183.6870  177.0470  138.1270 C   0  0  0  0  0  3  0  0  0  0  0  0
  181.4740  177.0630  139.8570 C   0  0  0  0  0  3  0  0  0  0  0  0
  183.0830  175.8950  138.4960 C   0  0  0  0  0  0  0  0  0  0  0  0
  183.0920  178.2600  138.4910 C   0  0  0  0  0  3  0  0  0  0  0  0
  180.8120  180.5120  139.8450 N   0  0  0  0  0  0  0  0  0  0  0  0
  181.4150  179.5480  139.5810 C   0  0  0  0  0  0  0  0  0  0  0  0
  189.1050  177.0250  139.2680 C   0  0  0  0  0  2  0  0  0  0  0  0
  189.1980  178.0630  140.1710 O   0  0  0  0  0  0  0  0  0  0  0  0
  189.3750  177.6210  141.5000 C   0  0  0  0  0  2  0  0  0  0  0  0
  188.2350  178.2330  142.2590 C   0  0  0  0  0  2  0  0  0  0  0  0
  187.4470  177.3040  142.9870 N   0  0  0  0  0  0  0  0  0  0  0  0
  186.1210  177.9270  143.2700 C   0  0  0  0  0  0  0  0  0  0  0  0
  184.0040  178.6730  142.4500 C   0  0  0  0  0  3  0  0  0  0  0  0
  184.4600  178.6920  144.8070 C   0  0  0  0  0  3  0  0  0  0  0  0
  183.5680  178.8080  143.7430 C   0  0  0  0  0  3  0  0  0  0  0  0
  185.7660  178.2010  144.5740 C   0  0  0  0  0  3  0  0  0  0  0  0
  185.3230  178.2330  142.2110 C   0  0  0  0  0  3  0  0  0  0  0  0
  188.0910  176.8140  144.2010 C   0  0  0  0  0  3  0  0  0  0  0  0
  189.0480  177.7690  144.9600 C   0  0  0  0  0  3  0  0  0  0  0  0
  189.6110  177.2740  146.2810 C   0  0  0  0  0  2  0  0  0  0  0  0
  188.5080  178.2250  148.3690 C   0  0  0  0  0  1  0  0  0  0  0  0
  188.4620  177.2040  147.2300 C   0  0  0  0  0  2  0  0  0  0  0  0
  1  2  1  0  0  0  0
  2 28  1  6  0  0  0
  3  1  1  0  0  0  0
  4  2  1  0  0  0  0
  5  4  1  6  0  0  0
  6  5  1  0  0  0  0
  6  3  1  0  0  0  0
  7 13  1  0  0  0  0
  8 18  1  0  0  0  0
  8 16  1  0  0  0  0
  9 17  1  0  0  0  0
 10 14  1  0  0  0  0
 10  7  2  0  0  0  0
 11  7  1  0  0  0  0
 12  9  1  0  0  0  0
 13  9  2  0  0  0  0
 14 12  2  0  0  0  0
 15 12  1  1  0  0  0
 15  8  1  0  0  0  0
 15  5  1  0  0  0  0
 17 16  1  0  0  0  0
 18 19  1  0  0  0  0
 19 24  1  0  0  0  0
 20 23  1  0  0  0  0
 21 27  1  0  0  0  0
 21 23  2  0  0  0  0
 22 25  2  0  0  0  0
 22 24  1  0  0  0  0
 24 20  2  0  0  0  0
 25 21  1  0  0  0  0
 27 26  3  0  0  0  0
 28 29  1  0  0  0  0
 29 30  1  0  0  0  0
 30 31  1  0  0  0  0
 31 32  1  0  0  0  0
 32 33  1  0  0  0  0
 32 39  1  0  0  0  0
 33 37  1  0  0  0  0
 34 36  2  0  0  0  0
 36 35  1  0  0  0  0
 37 35  2  0  0  0  0
 38 34  1  0  0  0  0
 38 33  2  0  0  0  0
 39 40  2  0  0  0  0
 40 41  1  0  0  0  0
 41 43  1  0  0  0  0
 43 42  1  0  0  0  0
M  END
>  <MODEL>
4

>  <REMARK>
 VINA RESULT:      -7.0      1.796      2.510
  Name = 
  15 active torsions:
  status: ('A' for Active; 'I' for Inactive)
    1  A    between atoms: S_1  and  C_34
    2  A    between atoms: S_1  and  C_35
    3  A    between atoms: C_3  and  C_4
    4  A    between atoms: C_3  and  O_12
    5  A    between atoms: C_4  and  N_14
    6  A    between atoms: C_6  and  C_17
    7  A    between atoms: N_8  and  C_34
    8  A    between atoms: C_10  and  C_22
    9  A    between atoms: C_10  and  C_41
   10  A    between atoms: C_11  and  N_14
   11  A    between atoms: O_12  and  C_17
   12  A    between atoms: N_14  and  C_41
   13  A    between atoms: C_19  and  C_37
   14  A    between atoms: C_22  and  C_42
   15  A    between atoms: C_27  and  C_30
                            x       y       z     vdW  Elec       q    Type
                         _______ _______ _______ _____ _____    ______ ____

>  <TORSDO>
F 15

$$$$
=
 OpenBabel10262422153D

 43 47  0  0  1  0  0  0  0  0999 V2000
  188.2350  178.8500  137.3790 N   0  0  0  0  0  2  0  0  0  0  0  0
  187.8150  177.6500  137.9230 C   0  0  1  0  0  3  0  0  0  0  0  0
  187.5080  179.3410  136.1690 C   0  0  0  0  0  2  0  0  0  0  0  0
  187.0510  176.7830  137.3380 C   0  0  0  0  0  2  0  0  0  0  0  0
  186.2200  177.2890  136.3240 C   0  0  1  0  0  3  0  0  0  0  0  0
  186.8590  178.2230  135.4000 N   0  0  0  0  0  2  0  0  0  0  0  0
  187.3950  172.3390  136.0630 C   0  0  0  0  0  0  0  0  0  0  0  0
  183.9750  176.1970  136.1620 N   0  0  0  0  0  0  0  0  0  0  0  0
  185.5460  173.8350  136.5950 C   0  0  0  0  0  0  0  0  0  0  0  0
  188.0410  173.4330  135.4880 C   0  0  0  0  0  3  0  0  0  0  0  0
  188.0770  170.9990  136.0300 C   0  0  0  0  0  1  0  0  0  0  0  0
  186.0700  174.8590  135.7790 C   0  0  0  0  0  0  0  0  0  0  0  0
  186.1440  172.5420  136.6650 C   0  0  0  0  0  3  0  0  0  0  0  0
  187.3990  174.6270  135.3100 C   0  0  0  0  0  3  0  0  0  0  0  0
  185.3940  176.1560  135.6670 C   0  0  2  0  0  3  0  0  0  0  0  0
  183.9750  175.6020  137.5280 C   0  0  0  0  0  2  0  0  0  0  0  0
  184.4950  174.1640  137.5940 C   0  0  0  0  0  2  0  0  0  0  0  0
  183.3770  177.5100  136.4310 C   0  0  0  0  0  2  0  0  0  0  0  0
  182.2370  177.5290  137.8740 S   0  0  0  0  0  0  0  0  0  0  0  0
  182.3060  180.1760  138.7520 C   0  0  0  0  0  3  0  0  0  0  0  0
  180.9760  181.8730  137.6390 C   0  0  0  0  0  0  0  0  0  0  0  0
  181.0720  179.6180  136.7310 C   0  0  0  0  0  3  0  0  0  0  0  0
  181.9280  181.5080  138.6240 C   0  0  0  0  0  3  0  0  0  0  0  0
  181.8220  179.2490  137.7940 C   0  0  0  0  0  0  0  0  0  0  0  0
  180.5920  180.9320  136.6750 C   0  0  0  0  0  3  0  0  0  0  0  0
  179.8430  184.1740  137.5780 N   0  0  0  0  0  0  0  0  0  0  0  0
  180.3970  183.1480  137.5180 C   0  0  0  0  0  0  0  0  0  0  0  0
  188.5590  177.1160  139.1490 C   0  0  0  0  0  2  0  0  0  0  0  0
  188.9670  178.1060  140.0180 O   0  0  0  0  0  0  0  0  0  0  0  0
  187.9400  178.5300  140.8880 C   0  0  0  0  0  2  0  0  0  0  0  0
  188.4440  178.1960  142.2620 C   0  0  0  0  0  2  0  0  0  0  0  0
  187.8090  177.0790  142.8640 N   0  0  0  0  0  0  0  0  0  0  0  0
  187.0260  177.5570  144.0410 C   0  0  0  0  0  0  0  0  0  0  0  0
  186.9120  177.9200  146.4000 C   0  0  0  0  0  3  0  0  0  0  0  0
  185.1440  178.6940  144.9730 C   0  0  0  0  0  3  0  0  0  0  0  0
  185.7730  178.6600  146.2150 C   0  0  0  0  0  3  0  0  0  0  0  0
  185.8030  178.1610  143.8410 C   0  0  0  0  0  3  0  0  0  0  0  0
  187.5460  177.3420  145.2800 C   0  0  0  0  0  3  0  0  0  0  0  0
  188.7290  176.0030  143.2210 C   0  0  0  0  0  2  0  0  0  0  0  0
  190.1680  176.0490  142.6450 C   0  0  0  0  0  2  0  0  0  0  0  0
  191.3120  175.9760  143.6420 C   0  0  0  0  0  2  0  0  0  0  0  0
  191.4860  176.7530  146.0600 C   0  0  0  0  0  1  0  0  0  0  0  0
  191.0930  177.0820  144.6180 C   0  0  0  0  0  2  0  0  0  0  0  0
  1  2  1  0  0  0  0
  2 28  1  6  0  0  0
  3  1  1  0  0  0  0
  4  2  1  0  0  0  0
  5  4  1  6  0  0  0
  6  3  1  0  0  0  0
  6  5  1  0  0  0  0
  7 13  1  0  0  0  0
  8 18  1  0  0  0  0
  8 16  1  0  0  0  0
  9 13  2  0  0  0  0
  9 17  1  0  0  0  0
 10  7  2  0  0  0  0
 11  7  1  0  0  0  0
 12  9  1  0  0  0  0
 14 10  1  0  0  0  0
 14 12  2  0  0  0  0
 15 12  1  1  0  0  0
 15  8  1  0  0  0  0
 15  5  1  0  0  0  0
 16 17  1  0  0  0  0
 18 19  1  0  0  0  0
 21 23  2  0  0  0  0
 22 24  1  0  0  0  0
 23 20  1  0  0  0  0
 24 19  1  0  0  0  0
 24 20  2  0  0  0  0
 25 22  2  0  0  0  0
 25 21  1  0  0  0  0
 27 26  3  0  0  0  0
 27 21  1  0  0  0  0
 28 29  1  0  0  0  0
 29 30  1  0  0  0  0
 30 31  1  0  0  0  0
 31 32  1  0  0  0  0
 32 39  1  0  0  0  0
 32 33  1  0  0  0  0
 33 38  1  0  0  0  0
 35 36  2  0  0  0  0
 36 34  1  0  0  0  0
 37 33  2  0  0  0  0
 37 35  1  0  0  0  0
 38 34  2  0  0  0  0
 40 39  1  0  0  0  0
 40 41  1  0  0  0  0
 41 43  1  0  0  0  0
 43 42  1  0  0  0  0
M  END
>  <MODEL>
5

>  <REMARK>
 VINA RESULT:      -6.9      2.738      4.166
  Name = 
  15 active torsions:
  status: ('A' for Active; 'I' for Inactive)
    1  A    between atoms: S_1  and  C_34
    2  A    between atoms: S_1  and  C_35
    3  A    between atoms: C_3  and  C_4
    4  A    between atoms: C_3  and  O_12
    5  A    between atoms: C_4  and  N_14
    6  A    between atoms: C_6  and  C_17
    7  A    between atoms: N_8  and  C_34
    8  A    between atoms: C_10  and  C_22
    9  A    between atoms: C_10  and  C_41
   10  A    between atoms: C_11  and  N_14
   11  A    between atoms: O_12  and  C_17
   12  A    between atoms: N_14  and  C_41
   13  A    between atoms: C_19  and  C_37
   14  A    between atoms: C_22  and  C_42
   15  A    between atoms: C_27  and  C_30
                            x       y       z     vdW  Elec       q    Type
                         _______ _______ _______ _____ _____    ______ ____

>  <TORSDO>
F 15

$$$$
=
 OpenBabel10262422153D

 43 47  0  0  1  0  0  0  0  0999 V2000
  182.5490  178.7700  140.7640 N   0  0  0  0  0  2  0  0  0  0  0  0
  182.7890  179.1940  139.4700 C   0  0  1  0  0  3  0  0  0  0  0  0
  181.1420  178.4030  141.1100 C   0  0  0  0  0  2  0  0  0  0  0  0
  181.8870  179.5650  138.6180 C   0  0  0  0  0  2  0  0  0  0  0  0
  180.5950  179.0570  138.8370 C   0  0  1  0  0  3  0  0  0  0  0  0
  180.1380  179.0890  140.2250 N   0  0  0  0  0  2  0  0  0  0  0  0
  180.8000  183.5250  136.4020 C   0  0  0  0  0  0  0  0  0  0  0  0
  179.3600  178.5850  136.7130 N   0  0  0  0  0  0  0  0  0  0  0  0
  180.4280  181.1500  136.0010 C   0  0  0  0  0  0  0  0  0  0  0  0
  180.6290  183.2670  137.7610 C   0  0  0  0  0  3  0  0  0  0  0  0
  181.0620  184.9400  135.9640 C   0  0  0  0  0  1  0  0  0  0  0  0
  179.9840  180.9430  137.3240 C   0  0  0  0  0  0  0  0  0  0  0  0
  180.7410  182.4490  135.5030 C   0  0  0  0  0  3  0  0  0  0  0  0
  180.1970  182.0470  138.2040 C   0  0  0  0  0  3  0  0  0  0  0  0
  179.5970  179.6070  137.7900 C   0  0  2  0  0  3  0  0  0  0  0  0
  180.5460  178.6180  135.8140 C   0  0  0  0  0  2  0  0  0  0  0  0
  180.8160  179.9810  135.1690 C   0  0  0  0  0  2  0  0  0  0  0  0
  179.3450  177.1690  137.1000 C   0  0  0  0  0  2  0  0  0  0  0  0
  179.6920  176.0130  135.7130 S   0  0  0  0  0  0  0  0  0  0  0  0
  181.6460  175.6740  137.6740 C   0  0  0  0  0  3  0  0  0  0  0  0
  183.5110  174.1670  137.3020 C   0  0  0  0  0  0  0  0  0  0  0  0
  181.7060  174.2890  135.6760 C   0  0  0  0  0  3  0  0  0  0  0  0
  182.8000  175.0570  138.1450 C   0  0  0  0  0  3  0  0  0  0  0  0
  181.1480  175.2800  136.4060 C   0  0  0  0  0  0  0  0  0  0  0  0
  182.9320  173.7590  136.0930 C   0  0  0  0  0  3  0  0  0  0  0  0
  185.7440  172.9980  137.7790 N   0  0  0  0  0  0  0  0  0  0  0  0
  184.7660  173.6110  137.6010 C   0  0  0  0  0  0  0  0  0  0  0  0
  184.2180  179.5960  139.0980 C   0  0  0  0  0  2  0  0  0  0  0  0
  185.0490  179.7430  140.1880 O   0  0  0  0  0  0  0  0  0  0  0  0
  185.9040  178.6370  140.3790 C   0  0  0  0  0  2  0  0  0  0  0  0
  186.5330  178.8700  141.7210 C   0  0  0  0  0  2  0  0  0  0  0  0
  186.6880  177.6990  142.5080 N   0  0  0  0  0  0  0  0  0  0  0  0
  186.1330  177.9650  143.8670 C   0  0  0  0  0  0  0  0  0  0  0  0
  186.4080  177.8500  146.2380 C   0  0  0  0  0  3  0  0  0  0  0  0
  184.5090  178.9760  145.2980 C   0  0  0  0  0  3  0  0  0  0  0  0
  185.3150  178.6630  146.3890 C   0  0  0  0  0  3  0  0  0  0  0  0
  184.9450  178.6530  143.9910 C   0  0  0  0  0  3  0  0  0  0  0  0
  186.8170  177.4810  144.9400 C   0  0  0  0  0  3  0  0  0  0  0  0
  188.0620  177.2100  142.5660 C   0  0  0  0  0  2  0  0  0  0  0  0
  189.2120  178.2500  142.5390 C   0  0  0  0  0  2  0  0  0  0  0  0
  189.9080  178.5420  143.8580 C   0  0  0  0  0  2  0  0  0  0  0  0
  191.6570  176.9690  144.8320 C   0  0  0  0  0  1  0  0  0  0  0  0
  191.2840  177.9770  143.7430 C   0  0  0  0  0  2  0  0  0  0  0  0
  1  3  1  0  0  0  0
  2 28  1  1  0  0  0
  2  1  1  0  0  0  0
  4  2  1  0  0  0  0
  5  4  1  1  0  0  0
  5  6  1  0  0  0  0
  6  3  1  0  0  0  0
  7 10  1  0  0  0  0
  8 18  1  0  0  0  0
  8 15  1  0  0  0  0
  9 12  2  0  0  0  0
 10 14  2  0  0  0  0
 11  7  1  0  0  0  0
 12 14  1  0  0  0  0
 13  9  1  0  0  0  0
 13  7  2  0  0  0  0
 15 12  1  6  0  0  0
 15  5  1  0  0  0  0
 16  8  1  0  0  0  0
 17 16  1  0  0  0  0
 17  9  1  0  0  0  0
 19 24  1  0  0  0  0
 19 18  1  0  0  0  0
 20 23  1  0  0  0  0
 21 27  1  0  0  0  0
 21 23  2  0  0  0  0
 22 25  2  0  0  0  0
 22 24  1  0  0  0  0
 24 20  2  0  0  0  0
 25 21  1  0  0  0  0
 27 26  3  0  0  0  0
 28 29  1  0  0  0  0
 29 30  1  0  0  0  0
 30 31  1  0  0  0  0
 31 32  1  0  0  0  0
 32 39  1  0  0  0  0
 32 33  1  0  0  0  0
 33 37  2  0  0  0  0
 33 38  1  0  0  0  0
 34 36  1  0  0  0  0
 35 36  2  0  0  0  0
 37 35  1  0  0  0  0
 38 34  2  0  0  0  0
 40 39  1  0  0  0  0
 40 41  1  0  0  0  0
 43 41  1  0  0  0  0
 43 42  1  0  0  0  0
M  END
>  <MODEL>
6

>  <REMARK>
 VINA RESULT:      -6.8      4.199      8.033
  Name = 
  15 active torsions:
  status: ('A' for Active; 'I' for Inactive)
    1  A    between atoms: S_1  and  C_34
    2  A    between atoms: S_1  and  C_35
    3  A    between atoms: C_3  and  C_4
    4  A    between atoms: C_3  and  O_12
    5  A    between atoms: C_4  and  N_14
    6  A    between atoms: C_6  and  C_17
    7  A    between atoms: N_8  and  C_34
    8  A    between atoms: C_10  and  C_22
    9  A    between atoms: C_10  and  C_41
   10  A    between atoms: C_11  and  N_14
   11  A    between atoms: O_12  and  C_17
   12  A    between atoms: N_14  and  C_41
   13  A    between atoms: C_19  and  C_37
   14  A    between atoms: C_22  and  C_42
   15  A    between atoms: C_27  and  C_30
                            x       y       z     vdW  Elec       q    Type
                         _______ _______ _______ _____ _____    ______ ____

>  <TORSDO>
F 15

$$$$
=
 OpenBabel10262422153D

 43 47  0  0  1  0  0  0  0  0999 V2000
  186.0440  178.7140  139.5680 N   0  0  0  0  0  2  0  0  0  0  0  0
  186.7870  178.6370  140.7320 C   0  0  1  0  0  3  0  0  0  0  0  0
  184.5560  178.6810  139.7060 C   0  0  0  0  0  2  0  0  0  0  0  0
  186.3400  178.2640  141.8880 C   0  0  0  0  0  2  0  0  0  0  0  0
  184.9570  178.4170  142.0860 C   0  0  1  0  0  3  0  0  0  0  0  0
  184.1150  177.9930  140.9690 N   0  0  0  0  0  2  0  0  0  0  0  0
  187.9620  177.4660  146.0880 C   0  0  0  0  0  0  0  0  0  0  0  0
  183.4070  178.7270  144.0260 N   0  0  0  0  0  0  0  0  0  0  0  0
  185.8670  178.5610  145.4930 C   0  0  0  0  0  0  0  0  0  0  0  0
  187.9250  176.8420  144.8420 C   0  0  0  0  0  3  0  0  0  0  0  0
  189.1020  177.1560  147.0170 C   0  0  0  0  0  1  0  0  0  0  0  0
  185.6890  177.7280  144.3690 C   0  0  0  0  0  0  0  0  0  0  0  0
  186.9420  178.3740  146.4110 C   0  0  0  0  0  3  0  0  0  0  0  0
  186.8240  176.9280  144.0340 C   0  0  0  0  0  3  0  0  0  0  0  0
  184.5340  177.8940  143.4810 C   0  0  2  0  0  3  0  0  0  0  0  0
  184.0070  179.9960  144.5230 C   0  0  0  0  0  2  0  0  0  0  0  0
  185.0730  179.8130  145.6070 C   0  0  0  0  0  2  0  0  0  0  0  0
  182.4120  179.2430  143.0780 C   0  0  0  0  0  2  0  0  0  0  0  0
  180.7020  178.6420  143.3910 S   0  0  0  0  0  0  0  0  0  0  0  0
  179.5700  177.0990  141.3620 C   0  0  0  0  0  3  0  0  0  0  0  0
  179.8670  177.7220  139.0350 C   0  0  0  0  0  0  0  0  0  0  0  0
  180.6740  179.1920  140.7980 C   0  0  0  0  0  3  0  0  0  0  0  0
  179.3000  176.8700  140.0170 C   0  0  0  0  0  3  0  0  0  0  0  0
  180.2980  178.2660  141.7080 C   0  0  0  0  0  0  0  0  0  0  0  0
  180.5110  178.8990  139.4390 C   0  0  0  0  0  3  0  0  0  0  0  0
  179.6830  177.4850  136.4880 N   0  0  0  0  0  0  0  0  0  0  0  0
  179.8010  177.5020  137.6490 C   0  0  0  0  0  0  0  0  0  0  0  0
  188.3130  178.6470  140.6130 C   0  0  0  0  0  2  0  0  0  0  0  0
  188.7630  178.5940  139.3110 O   0  0  0  0  0  0  0  0  0  0  0  0
  189.8660  177.7290  139.1470 C   0  0  0  0  0  2  0  0  0  0  0  0
  189.9510  176.9720  140.4400 C   0  0  0  0  0  2  0  0  0  0  0  0
  191.2730  176.7590  140.9090 N   0  0  0  0  0  0  0  0  0  0  0  0
  191.3060  177.0430  142.3740 C   0  0  0  0  0  0  0  0  0  0  0  0
  191.6540  176.2380  144.5970 C   0  0  0  0  0  3  0  0  0  0  0  0
  191.2930  178.5790  144.2040 C   0  0  0  0  0  3  0  0  0  0  0  0
  191.6570  177.5330  145.0490 C   0  0  0  0  0  3  0  0  0  0  0  0
  191.1490  178.3390  142.8170 C   0  0  0  0  0  3  0  0  0  0  0  0
  191.4590  175.9900  143.2220 C   0  0  0  0  0  3  0  0  0  0  0  0
  192.2830  177.5210  140.1830 C   0  0  0  0  0  2  0  0  0  0  0  0
  193.3420  176.7390  139.3640 C   0  0  0  0  0  2  0  0  0  0  0  0
  193.0460  176.5140  137.8900 C   0  0  0  0  0  2  0  0  0  0  0  0
  193.4850  174.3370  136.6460 C   0  0  0  0  0  1  0  0  0  0  0  0
  192.7090  175.0680  137.7440 C   0  0  0  0  0  2  0  0  0  0  0  0
  1  3  1  0  0  0  0
  1  2  1  0  0  0  0
  2 28  1  6  0  0  0
  2  4  1  0  0  0  0
  3  6  1  0  0  0  0
  5  4  1  6  0  0  0
  5 15  1  0  0  0  0
  6  5  1  0  0  0  0
  7 13  1  0  0  0  0
  7 11  1  0  0  0  0
  8 16  1  0  0  0  0
  9 17  1  0  0  0  0
  9 13  2  0  0  0  0
 10  7  2  0  0  0  0
 12  9  1  0  0  0  0
 14 12  2  0  0  0  0
 14 10  1  0  0  0  0
 15  8  1  0  0  0  0
 15 12  1  1  0  0  0
 16 17  1  0  0  0  0
 18 19  1  0  0  0  0
 18  8  1  0  0  0  0
 20 24  1  0  0  0  0
 21 25  2  0  0  0  0
 21 23  1  0  0  0  0
 22 24  2  0  0  0  0
 23 20  2  0  0  0  0
 24 19  1  0  0  0  0
 25 22  1  0  0  0  0
 26 27  3  0  0  0  0
 27 21  1  0  0  0  0
 29 28  1  0  0  0  0
 30 29  1  0  0  0  0
 30 31  1  0  0  0  0
 31 32  1  0  0  0  0
 32 33  1  0  0  0  0
 33 37  2  0  0  0  0
 33 38  1  0  0  0  0
 34 36  1  0  0  0  0
 35 36  2  0  0  0  0
 37 35  1  0  0  0  0
 38 34  2  0  0  0  0
 39 32  1  0  0  0  0
 40 39  1  0  0  0  0
 41 40  1  0  0  0  0
 42 43  1  0  0  0  0
 43 41  1  0  0  0  0
M  END
>  <MODEL>
7

>  <REMARK>
 VINA RESULT:      -6.7      2.999      7.799
  Name = 
  15 active torsions:
  status: ('A' for Active; 'I' for Inactive)
    1  A    between atoms: S_1  and  C_34
    2  A    between atoms: S_1  and  C_35
    3  A    between atoms: C_3  and  C_4
    4  A    between atoms: C_3  and  O_12
    5  A    between atoms: C_4  and  N_14
    6  A    between atoms: C_6  and  C_17
    7  A    between atoms: N_8  and  C_34
    8  A    between atoms: C_10  and  C_22
    9  A    between atoms: C_10  and  C_41
   10  A    between atoms: C_11  and  N_14
   11  A    between atoms: O_12  and  C_17
   12  A    between atoms: N_14  and  C_41
   13  A    between atoms: C_19  and  C_37
   14  A    between atoms: C_22  and  C_42
   15  A    between atoms: C_27  and  C_30
                            x       y       z     vdW  Elec       q    Type
                         _______ _______ _______ _____ _____    ______ ____

>  <TORSDO>
F 15

$$$$
=
 OpenBabel10262422153D

 43 47  0  0  1  0  0  0  0  0999 V2000
  186.5990  178.0220  137.2710 N   0  0  0  0  0  2  0  0  0  0  0  0
  185.8250  178.0790  138.4150 C   0  0  1  0  0  3  0  0  0  0  0  0
  188.0820  177.9950  137.4510 C   0  0  0  0  0  2  0  0  0  0  0  0
  186.2500  178.3870  139.5990 C   0  0  0  0  0  2  0  0  0  0  0  0
  187.6210  178.1760  139.8280 C   0  0  1  0  0  3  0  0  0  0  0  0
  188.5100  178.6140  138.7540 N   0  0  0  0  0  2  0  0  0  0  0  0
  184.5900  178.6690  143.8920 C   0  0  0  0  0  0  0  0  0  0  0  0
  189.1980  177.8260  141.7390 N   0  0  0  0  0  0  0  0  0  0  0  0
  186.7420  177.7440  143.2180 C   0  0  0  0  0  0  0  0  0  0  0  0
  184.5820  179.3790  142.6920 C   0  0  0  0  0  3  0  0  0  0  0  0
  183.4390  178.8470  144.8430 C   0  0  0  0  0  1  0  0  0  0  0  0
  186.8640  178.6620  142.1550 C   0  0  0  0  0  0  0  0  0  0  0  0
  185.6640  177.8040  144.1500 C   0  0  0  0  0  3  0  0  0  0  0  0
  185.6810  179.4150  141.8790 C   0  0  0  0  0  3  0  0  0  0  0  0
  188.0210  178.6260  141.2550 C   0  0  2  0  0  3  0  0  0  0  0  0
  188.6780  176.4920  142.1490 C   0  0  0  0  0  2  0  0  0  0  0  0
  187.6090  176.5370  143.2440 C   0  0  0  0  0  2  0  0  0  0  0  0
  190.2170  177.4360  140.7560 C   0  0  0  0  0  2  0  0  0  0  0  0
  191.9380  177.5030  141.3990 S   0  0  0  0  0  0  0  0  0  0  0  0
  191.6820  176.1530  143.8260 C   0  0  0  0  0  3  0  0  0  0  0  0
  190.7080  177.2640  145.7510 C   0  0  0  0  0  0  0  0  0  0  0  0
  191.1230  178.5170  143.7080 C   0  0  0  0  0  3  0  0  0  0  0  0
  191.3290  176.1290  145.1710 C   0  0  0  0  0  3  0  0  0  0  0  0
  191.5280  177.3710  143.1170 C   0  0  0  0  0  0  0  0  0  0  0  0
  190.6520  178.4600  145.0250 C   0  0  0  0  0  3  0  0  0  0  0  0
  189.6730  177.5090  148.0860 N   0  0  0  0  0  0  0  0  0  0  0  0
  190.1630  177.3040  147.0460 C   0  0  0  0  0  0  0  0  0  0  0  0
  184.3040  178.1290  138.2540 C   0  0  0  0  0  2  0  0  0  0  0  0
  183.6230  178.0920  139.4520 O   0  0  0  0  0  0  0  0  0  0  0  0
  182.2320  178.2720  139.2990 C   0  0  0  0  0  2  0  0  0  0  0  0
  182.0310  179.7580  139.3690 C   0  0  0  0  0  2  0  0  0  0  0  0
  180.7120  180.1870  139.0710 N   0  0  0  0  0  0  0  0  0  0  0  0
  180.7540  181.0200  137.8340 C   0  0  0  0  0  0  0  0  0  0  0  0
  180.5660  181.1450  135.4550 C   0  0  0  0  0  3  0  0  0  0  0  0
  180.8190  183.1490  136.7510 C   0  0  0  0  0  3  0  0  0  0  0  0
  180.5430  182.5130  135.5430 C   0  0  0  0  0  3  0  0  0  0  0  0
  180.8910  182.3880  137.9420 C   0  0  0  0  0  3  0  0  0  0  0  0
  180.6890  180.3810  136.6340 C   0  0  0  0  0  3  0  0  0  0  0  0
  180.0570  180.8810  140.1750 C   0  0  0  0  0  2  0  0  0  0  0  0
  179.4910  180.0310  141.3410 C   0  0  0  0  0  2  0  0  0  0  0  0
  180.4240  179.7540  142.5080 C   0  0  0  0  0  2  0  0  0  0  0  0
  179.6170  177.4910  141.6640 C   0  0  0  0  0  1  0  0  0  0  0  0
  180.4720  178.2710  142.6660 C   0  0  0  0  0  2  0  0  0  0  0  0
  1  3  1  0  0  0  0
  1  2  1  0  0  0  0
  2 28  1  6  0  0  0
  2  4  1  0  0  0  0
  3  6  1  0  0  0  0
  5  4  1  6  0  0  0
  5 15  1  0  0  0  0
  6  5  1  0  0  0  0
  7 13  1  0  0  0  0
  7 11  1  0  0  0  0
  8 16  1  0  0  0  0
  9 17  1  0  0  0  0
  9 13  2  0  0  0  0
 10  7  2  0  0  0  0
 12  9  1  0  0  0  0
 14 12  2  0  0  0  0
 14 10  1  0  0  0  0
 15  8  1  0  0  0  0
 15 12  1  1  0  0  0
 16 17  1  0  0  0  0
 18 19  1  0  0  0  0
 18  8  1  0  0  0  0
 19 24  1  0  0  0  0
 20 23  1  0  0  0  0
 21 27  1  0  0  0  0
 22 25  2  0  0  0  0
 23 21  2  0  0  0  0
 24 22  1  0  0  0  0
 24 20  2  0  0  0  0
 25 21  1  0  0  0  0
 27 26  3  0  0  0  0
 28 29  1  0  0  0  0
 30 31  1  0  0  0  0
 30 29  1  0  0  0  0
 32 31  1  0  0  0  0
 32 39  1  0  0  0  0
 33 37  1  0  0  0  0
 33 32  1  0  0  0  0
 34 36  2  0  0  0  0
 34 38  1  0  0  0  0
 35 37  2  0  0  0  0
 36 35  1  0  0  0  0
 38 33  2  0  0  0  0
 39 40  1  0  0  0  0
 40 41  1  0  0  0  0
 41 43  1  0  0  0  0
 42 43  1  0  0  0  0
M  END
>  <MODEL>
8

>  <REMARK>
 VINA RESULT:      -6.7      3.326      8.912
  Name = 
  15 active torsions:
  status: ('A' for Active; 'I' for Inactive)
    1  A    between atoms: S_1  and  C_34
    2  A    between atoms: S_1  and  C_35
    3  A    between atoms: C_3  and  C_4
    4  A    between atoms: C_3  and  O_12
    5  A    between atoms: C_4  and  N_14
    6  A    between atoms: C_6  and  C_17
    7  A    between atoms: N_8  and  C_34
    8  A    between atoms: C_10  and  C_22
    9  A    between atoms: C_10  and  C_41
   10  A    between atoms: C_11  and  N_14
   11  A    between atoms: O_12  and  C_17
   12  A    between atoms: N_14  and  C_41
   13  A    between atoms: C_19  and  C_37
   14  A    between atoms: C_22  and  C_42
   15  A    between atoms: C_27  and  C_30
                            x       y       z     vdW  Elec       q    Type
                         _______ _______ _______ _____ _____    ______ ____

>  <TORSDO>
F 15

$$$$
=
 OpenBabel10262422153D

 43 47  0  0  1  0  0  0  0  0999 V2000
  183.1360  178.9340  143.1670 N   0  0  0  0  0  2  0  0  0  0  0  0
  184.1610  178.6060  142.2990 C   0  0  1  0  0  3  0  0  0  0  0  0
  181.7480  178.9390  142.6120 C   0  0  0  0  0  2  0  0  0  0  0  0
  184.0750  178.5750  141.0080 C   0  0  0  0  0  2  0  0  0  0  0  0
  182.7830  178.3830  140.4870 C   0  0  1  0  0  3  0  0  0  0  0  0
  181.7290  179.1690  141.1250 N   0  0  0  0  0  2  0  0  0  0  0  0
  186.6550  177.2020  137.3960 C   0  0  0  0  0  0  0  0  0  0  0  0
  181.6170  177.6570  138.3960 N   0  0  0  0  0  0  0  0  0  0  0  0
  184.2690  176.8100  137.6990 C   0  0  0  0  0  0  0  0  0  0  0  0
  186.5450  178.2430  138.3160 C   0  0  0  0  0  3  0  0  0  0  0  0
  187.9960  176.9290  136.7720 C   0  0  0  0  0  1  0  0  0  0  0  0
  184.1050  178.0220  138.4030 C   0  0  0  0  0  0  0  0  0  0  0  0
  185.5120  176.4410  137.1060 C   0  0  0  0  0  3  0  0  0  0  0  0
  185.3260  178.6680  138.7680 C   0  0  0  0  0  3  0  0  0  0  0  0
  182.7970  178.4140  138.9390 C   0  0  2  0  0  3  0  0  0  0  0  0
  181.9380  176.2080  138.5150 C   0  0  0  0  0  2  0  0  0  0  0  0
  183.2040  175.7750  137.7720 C   0  0  0  0  0  2  0  0  0  0  0  0
  180.3540  177.7240  139.1410 C   0  0  0  0  0  2  0  0  0  0  0  0
  178.9670  178.4710  138.1930 S   0  0  0  0  0  0  0  0  0  0  0  0
  179.9530  180.9500  139.0030 C   0  0  0  0  0  3  0  0  0  0  0  0
  180.7540  182.5490  137.3620 C   0  0  0  0  0  0  0  0  0  0  0  0
  180.0990  180.3140  136.6600 C   0  0  0  0  0  3  0  0  0  0  0  0
  180.5390  182.1780  138.7130 C   0  0  0  0  0  3  0  0  0  0  0  0
  179.7170  180.0540  137.9300 C   0  0  0  0  0  0  0  0  0  0  0  0
  180.5720  181.5940  136.3530 C   0  0  0  0  0  3  0  0  0  0  0  0
  181.5340  184.9170  136.7590 N   0  0  0  0  0  0  0  0  0  0  0  0
  181.1850  183.8170  136.9380 C   0  0  0  0  0  0  0  0  0  0  0  0
  185.5930  178.6150  142.8400 C   0  0  0  0  0  2  0  0  0  0  0  0
  186.0670  177.3610  143.1600 O   0  0  0  0  0  0  0  0  0  0  0  0
  186.8620  177.3550  144.3260 C   0  0  0  0  0  2  0  0  0  0  0  0
  188.2080  176.8780  143.8650 C   0  0  0  0  0  2  0  0  0  0  0  0
  189.1850  177.9000  143.7460 N   0  0  0  0  0  0  0  0  0  0  0  0
  189.8510  177.7670  142.4180 C   0  0  0  0  0  0  0  0  0  0  0  0
  191.8650  177.4510  141.1710 C   0  0  0  0  0  3  0  0  0  0  0  0
  189.7440  177.4820  140.0480 C   0  0  0  0  0  3  0  0  0  0  0  0
  191.1150  177.2410  140.0420 C   0  0  0  0  0  3  0  0  0  0  0  0
  189.0800  177.7150  141.2750 C   0  0  0  0  0  3  0  0  0  0  0  0
  191.2110  177.7360  142.3880 C   0  0  0  0  0  3  0  0  0  0  0  0
  190.1510  177.9190  144.8410 C   0  0  0  0  0  2  0  0  0  0  0  0
  190.1210  176.7530  145.8630 C   0  0  0  0  0  2  0  0  0  0  0  0
  190.0330  177.1290  147.3330 C   0  0  0  0  0  2  0  0  0  0  0  0
  188.1200  177.8480  148.8520 C   0  0  0  0  0  1  0  0  0  0  0  0
  188.8000  177.9550  147.4850 C   0  0  0  0  0  2  0  0  0  0  0  0
  2 28  1  6  0  0  0
  2  1  1  0  0  0  0
  3  1  1  0  0  0  0
  4  2  1  0  0  0  0
  5  4  1  1  0  0  0
  5  6  1  0  0  0  0
  6  3  1  0  0  0  0
  7 10  1  0  0  0  0
  8 16  1  0  0  0  0
  8 15  1  0  0  0  0
  8 18  1  0  0  0  0
  9 17  1  0  0  0  0
  9 12  2  0  0  0  0
 10 14  2  0  0  0  0
 11  7  1  0  0  0  0
 12 14  1  0  0  0  0
 13  7  2  0  0  0  0
 13  9  1  0  0  0  0
 15 12  1  6  0  0  0
 15  5  1  0  0  0  0
 17 16  1  0  0  0  0
 19 18  1  0  0  0  0
 21 23  2  0  0  0  0
 22 24  1  0  0  0  0
 23 20  1  0  0  0  0
 24 19  1  0  0  0  0
 24 20  2  0  0  0  0
 25 22  2  0  0  0  0
 25 21  1  0  0  0  0
 26 27  3  0  0  0  0
 27 21  1  0  0  0  0
 28 29  1  0  0  0  0
 29 30  1  0  0  0  0
 31 30  1  0  0  0  0
 32 31  1  0  0  0  0
 32 39  1  0  0  0  0
 33 32  1  0  0  0  0
 34 38  2  0  0  0  0
 35 37  1  0  0  0  0
 36 35  2  0  0  0  0
 36 34  1  0  0  0  0
 37 33  2  0  0  0  0
 38 33  1  0  0  0  0
 39 40  1  0  0  0  0
 40 41  1  0  0  0  0
 41 43  1  0  0  0  0
 43 42  1  0  0  0  0
M  END
>  <MODEL>
9

>  <REMARK>
 VINA RESULT:      -6.6      3.160      6.274
  Name = 
  15 active torsions:
  status: ('A' for Active; 'I' for Inactive)
    1  A    between atoms: S_1  and  C_34
    2  A    between atoms: S_1  and  C_35
    3  A    between atoms: C_3  and  C_4
    4  A    between atoms: C_3  and  O_12
    5  A    between atoms: C_4  and  N_14
    6  A    between atoms: C_6  and  C_17
    7  A    between atoms: N_8  and  C_34
    8  A    between atoms: C_10  and  C_22
    9  A    between atoms: C_10  and  C_41
   10  A    between atoms: C_11  and  N_14
   11  A    between atoms: O_12  and  C_17
   12  A    between atoms: N_14  and  C_41
   13  A    between atoms: C_19  and  C_37
   14  A    between atoms: C_22  and  C_42
   15  A    between atoms: C_27  and  C_30
                            x       y       z     vdW  Elec       q    Type
                         _______ _______ _______ _____ _____    ______ ____

>  <TORSDO>
F 15

$$$$
