=
 OpenBabel10262422503D

 37 41  0  0  1  0  0  0  0  0999 V2000
  181.6050  174.0580  136.9470 C   0  0  1  0  0  0  0  0  0  0  0  0
  185.0720  174.2370  136.1970 C   0  0  0  0  0  0  0  0  0  0  0  0
  184.6960  177.0220  138.2580 C   0  0  0  0  0  2  0  0  0  0  0  0
  180.7650  173.0950  137.7480 N   0  0  0  0  0  0  0  0  0  0  0  0
  180.3470  178.3700  137.8070 C   0  0  0  0  0  2  0  0  0  0  0  0
  186.9160  175.7780  137.1040 C   0  0  0  0  0  2  0  0  0  0  0  0
  181.5830  177.8320  135.6890 C   0  0  0  0  0  1  0  0  0  0  0  0
  179.6580  174.9370  138.7400 C   0  0  1  0  0  3  0  0  0  0  0  0
  184.5030  176.6420  136.7970 C   0  0  0  0  0  2  0  0  0  0  0  0
  182.3520  179.5200  138.6270 C   0  0  0  0  0  0  0  0  0  0  0  0
  187.5900  177.1580  137.1520 C   0  0  0  0  0  2  0  0  0  0  0  0
  179.4310  173.6410  137.9860 C   0  0  2  0  0  3  0  0  0  0  0  0
  182.6350  173.3110  136.0660 C   0  0  0  0  0  2  0  0  0  0  0  0
  185.0060  173.6020  137.5900 C   0  0  0  0  0  1  0  0  0  0  0  0
  184.7420  179.5370  138.3370 C   0  0  0  0  0  2  0  0  0  0  0  0
  186.6560  178.3680  137.3010 C   0  0  0  0  0  2  0  0  0  0  0  0
  183.7090  174.2250  135.4640 C   0  0  0  0  0  2  0  0  0  0  0  0
  179.0730  175.8610  137.7040 C   0  0  0  0  0  2  0  0  0  0  0  0
  181.0170  177.2510  136.9830 C   0  0  2  0  0  3  0  0  0  0  0  0
  185.5880  178.2650  138.4040 C   0  0  2  0  0  3  0  0  0  0  0  0
  180.7450  174.9950  136.0130 C   0  0  0  0  0  2  0  0  0  0  0  0
  185.6000  175.6890  136.2900 C   0  0  2  0  0  3  0  0  0  0  0  0
  181.1960  179.5920  138.0120 C   0  0  0  0  0  0  0  0  0  0  0  0
  186.0370  173.4140  135.3620 C   0  0  0  0  0  1  0  0  0  0  0  0
  180.0710  176.1690  136.6460 N   0  0  1  0  0  0  0  0  0  0  0  0
  178.9310  173.7760  139.3980 C   0  0  0  0  0  2  0  0  0  0  0  0
  182.3220  174.8460  137.8510 O   0  0  0  0  0  1  0  0  0  0  0  0
  183.5230  179.4750  139.1980 C   0  0  0  0  0  3  0  0  0  0  0  0
  180.4480  180.8220  135.9670 C   0  0  0  0  0  2  0  0  0  0  0  0
  180.6900  180.8970  137.4770 C   0  0  2  0  0  3  0  0  0  0  0  0
  181.6450  182.0440  137.8190 C   0  0  0  0  0  2  0  0  0  0  0  0
  182.0300  184.4330  137.5850 N   0  0  0  0  0  1  0  0  0  0  0  0
  180.8750  183.2810  135.7820 C   0  0  0  0  0  2  0  0  0  0  0  0
  181.0940  183.3650  137.2900 C   0  0  1  0  0  3  0  0  0  0  0  0
  179.9030  182.1520  135.4540 C   0  0  0  0  0  2  0  0  0  0  0  0
  179.2460  171.6030  136.5860 N   0  0  0  0  0  1  0  0  0  0  0  0
  180.5910  171.7710  137.1250 C   0  0  0  0  0  2  0  0  0  0  0  0
  1  4  1  0  0  0  0
  1 27  1  1  0  0  0
  2 22  1  0  0  0  0
  2 14  1  0  0  0  0
  3 20  1  0  0  0  0
  4 12  1  0  0  0  0
  5 23  1  0  0  0  0
  6 11  1  0  0  0  0
  8 18  1  6  0  0  0
  8 26  1  0  0  0  0
  9  3  1  0  0  0  0
 10 28  2  0  0  0  0
 11 16  1  0  0  0  0
 12  8  1  0  0  0  0
 12 26  1  1  0  0  0
 13  1  1  0  0  0  0
 15 20  1  0  0  0  0
 15 28  1  0  0  0  0
 17 13  1  0  0  0  0
 17  2  1  0  0  0  0
 19  7  1  6  0  0  0
 19  5  1  0  0  0  0
 20 16  1  6  0  0  0
 21  1  1  0  0  0  0
 22  9  1  1  0  0  0
 22  6  1  0  0  0  0
 23 10  2  0  0  0  0
 24  2  1  0  0  0  0
 25 21  1  1  0  0  0
 25 19  1  0  0  0  0
 25 18  1  0  0  0  0
 29 30  1  0  0  0  0
 30 31  1  0  0  0  0
 30 23  1  6  0  0  0
 33 34  1  0  0  0  0
 34 32  1  6  0  0  0
 34 31  1  0  0  0  0
 35 33  1  0  0  0  0
 35 29  1  0  0  0  0
 36 37  1  0  0  0  0
 37  4  1  0  0  0  0
M  END
>  <MODEL>
1

>  <REMARK>
 VINA RESULT:      -6.1      0.000      0.000
  Name = 
  2 active torsions:
  status: ('A' for Active; 'I' for Inactive)
    1  A    between atoms: N_5  and  C_23
    2  A    between atoms: C_6  and  C_31
                            x       y       z     vdW  Elec       q    Type
                         _______ _______ _______ _____ _____    ______ ____

>  <TORSDO>
F 2

$$$$
=
 OpenBabel10262422503D

 37 41  0  0  1  0  0  0  0  0999 V2000
  183.2530  178.3830  140.6120 C   0  0  1  0  0  0  0  0  0  0  0  0
  180.9530  176.9550  138.3130 C   0  0  0  0  0  0  0  0  0  0  0  0
  183.7270  174.8970  137.8400 C   0  0  0  0  0  2  0  0  0  0  0  0
  183.3050  178.4550  142.1180 N   0  0  0  0  0  0  0  0  0  0  0  0
  187.3890  177.4200  138.9170 C   0  0  0  0  0  2  0  0  0  0  0  0
  181.1040  174.8310  136.8760 C   0  0  0  0  0  2  0  0  0  0  0  0
  185.6650  178.5090  137.4530 C   0  0  0  0  0  1  0  0  0  0  0  0
  185.5970  177.8760  142.0340 C   0  0  1  0  0  3  0  0  0  0  0  0
  183.2060  176.2470  137.3670 C   0  0  0  0  0  2  0  0  0  0  0  0
  187.1330  175.3640  137.6060 C   0  0  0  0  0  0  0  0  0  0  0  0
  181.6760  174.0880  135.6590 C   0  0  0  0  0  2  0  0  0  0  0  0
  184.6190  178.9010  142.5730 C   0  0  2  0  0  3  0  0  0  0  0  0
  181.8250  178.6640  140.0840 C   0  0  0  0  0  2  0  0  0  0  0  0
  180.8930  176.0430  139.5420 C   0  0  0  0  0  1  0  0  0  0  0  0
  185.5290  174.2250  136.2170 C   0  0  0  0  0  2  0  0  0  0  0  0
  183.1880  174.2210  135.4270 C   0  0  0  0  0  2  0  0  0  0  0  0
  181.6370  178.3130  138.6020 C   0  0  0  0  0  2  0  0  0  0  0  0
  186.3770  178.8110  141.1470 C   0  0  0  0  0  2  0  0  0  0  0  0
  185.9410  177.9480  138.8450 C   0  0  2  0  0  3  0  0  0  0  0  0
  184.0840  173.9860  136.6560 C   0  0  2  0  0  3  0  0  0  0  0  0
  184.2440  179.3910  139.9140 C   0  0  0  0  0  2  0  0  0  0  0  0
  181.6820  176.2430  137.1470 C   0  0  2  0  0  3  0  0  0  0  0  0
  187.7740  176.4900  137.8020 C   0  0  0  0  0  0  0  0  0  0  0  0
  179.5260  177.2540  137.8910 C   0  0  0  0  0  1  0  0  0  0  0  0
  185.6870  179.0040  139.8450 N   0  0  1  0  0  0  0  0  0  0  0  0
  185.3980  178.0430  143.5310 C   0  0  0  0  0  2  0  0  0  0  0  0
  183.5880  177.0790  140.2400 O   0  0  0  0  0  1  0  0  0  0  0  0
  186.4890  174.2560  137.3610 C   0  0  0  0  0  3  0  0  0  0  0  0
  188.4170  177.1470  135.4770 C   0  0  0  0  0  2  0  0  0  0  0  0
  188.9040  176.8960  136.9060 C   0  0  2  0  0  3  0  0  0  0  0  0
  190.0270  175.8560  136.9240 C   0  0  0  0  0  2  0  0  0  0  0  0
  192.2130  175.2900  136.0230 N   0  0  0  0  0  1  0  0  0  0  0  0
  190.6810  176.5350  134.6030 C   0  0  0  0  0  2  0  0  0  0  0  0
  191.1770  176.3060  136.0280 C   0  0  1  0  0  3  0  0  0  0  0  0
  189.5800  177.5910  134.5940 C   0  0  0  0  0  2  0  0  0  0  0  0
  181.6420  178.7310  143.8630 N   0  0  0  0  0  1  0  0  0  0  0  0
  182.3050  179.3530  142.7220 C   0  0  0  0  0  2  0  0  0  0  0  0
  1 27  1  6  0  0  0
  1  4  1  0  0  0  0
  2 17  1  0  0  0  0
  2 14  1  0  0  0  0
  4 12  1  0  0  0  0
  4 37  1  0  0  0  0
  8 18  1  1  0  0  0
  8 12  1  0  0  0  0
  8 26  1  0  0  0  0
  9  3  1  0  0  0  0
 10 23  2  0  0  0  0
 11  6  1  0  0  0  0
 12 26  1  1  0  0  0
 13  1  1  0  0  0  0
 15 20  1  0  0  0  0
 15 28  1  0  0  0  0
 16 11  1  0  0  0  0
 17 13  1  0  0  0  0
 19  7  1  6  0  0  0
 19  5  1  0  0  0  0
 19 25  1  0  0  0  0
 20 16  1  6  0  0  0
 20  3  1  0  0  0  0
 21  1  1  0  0  0  0
 22  6  1  1  0  0  0
 22  9  1  0  0  0  0
 22  2  1  0  0  0  0
 23  5  1  0  0  0  0
 24  2  1  0  0  0  0
 25 21  1  1  0  0  0
 25 18  1  0  0  0  0
 28 10  2  0  0  0  0
 29 30  1  0  0  0  0
 30 31  1  0  0  0  0
 30 23  1  1  0  0  0
 33 34  1  0  0  0  0
 34 32  1  6  0  0  0
 34 31  1  0  0  0  0
 35 33  1  0  0  0  0
 35 29  1  0  0  0  0
 37 36  1  0  0  0  0
M  END
>  <MODEL>
2

>  <REMARK>
 VINA RESULT:      -5.8      3.565      7.670
  Name = 
  2 active torsions:
  status: ('A' for Active; 'I' for Inactive)
    1  A    between atoms: N_5  and  C_23
    2  A    between atoms: C_6  and  C_31
                            x       y       z     vdW  Elec       q    Type
                         _______ _______ _______ _____ _____    ______ ____

>  <TORSDO>
F 2

$$$$
=
 OpenBabel10262422503D

 37 41  0  0  1  0  0  0  0  0999 V2000
  181.6500  176.9760  138.0720 C   0  0  1  0  0  0  0  0  0  0  0  0
  180.3220  174.2840  136.1730 C   0  0  0  0  0  0  0  0  0  0  0  0
  183.4180  172.9770  137.0980 C   0  0  0  0  0  2  0  0  0  0  0  0
  181.2810  177.5900  139.3990 N   0  0  0  0  0  0  0  0  0  0  0  0
  186.1900  176.5660  137.7090 C   0  0  0  0  0  2  0  0  0  0  0  0
  181.2000  171.9020  135.7810 C   0  0  0  0  0  2  0  0  0  0  0  0
  184.7710  176.5810  135.6380 C   0  0  0  0  0  1  0  0  0  0  0  0
  183.5740  177.6270  139.9820 C   0  0  1  0  0  3  0  0  0  0  0  0
  182.8310  173.8880  136.0300 C   0  0  0  0  0  2  0  0  0  0  0  0
  186.6370  174.1860  137.3270 C   0  0  0  0  0  0  0  0  0  0  0  0
  182.1930  170.9470  135.1000 C   0  0  0  0  0  2  0  0  0  0  0  0
  182.3330  178.4900  139.8660 C   0  0  2  0  0  3  0  0  0  0  0  0
  180.3920  176.6730  137.2220 C   0  0  0  0  0  2  0  0  0  0  0  0
  180.0820  173.8870  137.6330 C   0  0  0  0  0  1  0  0  0  0  0  0
  185.6760  172.2560  136.2530 C   0  0  0  0  0  2  0  0  0  0  0  0
  183.6680  171.3720  135.1160 C   0  0  0  0  0  2  0  0  0  0  0  0
  180.6710  175.7820  136.0040 C   0  0  0  0  0  2  0  0  0  0  0  0
  184.4010  178.3520  138.9500 C   0  0  0  0  0  2  0  0  0  0  0  0
  184.7490  176.6430  137.1630 C   0  0  2  0  0  3  0  0  0  0  0  0
  184.2260  171.8280  136.4770 C   0  0  2  0  0  3  0  0  0  0  0  0
  182.6140  177.8870  137.2180 C   0  0  0  0  0  2  0  0  0  0  0  0
  181.4440  173.4150  135.5550 C   0  0  2  0  0  3  0  0  0  0  0  0
  187.0080  175.4320  137.1610 C   0  0  0  0  0  0  0  0  0  0  0  0
  179.0320  174.0360  135.4110 C   0  0  0  0  0  1  0  0  0  0  0  0
  184.0650  177.8830  137.5800 N   0  0  1  0  0  0  0  0  0  0  0  0
  182.9540  178.2600  141.2160 C   0  0  0  0  0  2  0  0  0  0  0  0
  182.2820  175.7570  138.3320 O   0  0  0  0  0  1  0  0  0  0  0  0
  186.2740  172.9380  137.4400 C   0  0  0  0  0  3  0  0  0  0  0  0
  188.5950  174.6760  135.3830 C   0  0  0  0  0  2  0  0  0  0  0  0
  188.2560  175.7670  136.4020 C   0  0  2  0  0  3  0  0  0  0  0  0
  189.4330  176.0120  137.3500 C   0  0  0  0  0  2  0  0  0  0  0  0
  191.7970  176.5660  137.4650 N   0  0  0  0  0  1  0  0  0  0  0  0
  191.0190  175.2760  135.5570 C   0  0  0  0  0  2  0  0  0  0  0  0
  190.6820  176.3790  136.5550 C   0  0  1  0  0  3  0  0  0  0  0  0
  189.8500  175.0560  134.6020 C   0  0  0  0  0  2  0  0  0  0  0  0
  180.2660  179.7890  139.2760 N   0  0  0  0  0  1  0  0  0  0  0  0
  180.0220  178.3560  139.3900 C   0  0  0  0  0  2  0  0  0  0  0  0
  1 27  1  1  0  0  0
  1  4  1  0  0  0  0
  2 14  1  0  0  0  0
  4 12  1  0  0  0  0
  8 18  1  6  0  0  0
  8 26  1  0  0  0  0
  9  3  1  0  0  0  0
 10 28  2  0  0  0  0
 11 16  1  0  0  0  0
 11  6  1  0  0  0  0
 12  8  1  0  0  0  0
 12 26  1  1  0  0  0
 13  1  1  0  0  0  0
 15 20  1  0  0  0  0
 15 28  1  0  0  0  0
 17  2  1  0  0  0  0
 17 13  1  0  0  0  0
 19  7  1  6  0  0  0
 19 25  1  0  0  0  0
 19  5  1  0  0  0  0
 20 16  1  6  0  0  0
 20  3  1  0  0  0  0
 21  1  1  0  0  0  0
 22  6  1  1  0  0  0
 22  9  1  0  0  0  0
 22  2  1  0  0  0  0
 23 10  2  0  0  0  0
 23  5  1  0  0  0  0
 24  2  1  0  0  0  0
 25 21  1  1  0  0  0
 25 18  1  0  0  0  0
 29 30  1  0  0  0  0
 30 23  1  1  0  0  0
 30 31  1  0  0  0  0
 33 34  1  0  0  0  0
 34 31  1  0  0  0  0
 34 32  1  1  0  0  0
 35 29  1  0  0  0  0
 35 33  1  0  0  0  0
 36 37  1  0  0  0  0
 37  4  1  0  0  0  0
M  END
>  <MODEL>
3

>  <REMARK>
 VINA RESULT:      -5.7      2.874      7.193
  Name = 
  2 active torsions:
  status: ('A' for Active; 'I' for Inactive)
    1  A    between atoms: N_5  and  C_23
    2  A    between atoms: C_6  and  C_31
                            x       y       z     vdW  Elec       q    Type
                         _______ _______ _______ _____ _____    ______ ____

>  <TORSDO>
F 2

$$$$
=
 OpenBabel10262422503D

 37 41  0  0  1  0  0  0  0  0999 V2000
  181.6440  179.3760  140.8780 C   0  0  1  0  0  0  0  0  0  0  0  0
  183.6180  178.6940  143.7520 C   0  0  0  0  0  0  0  0  0  0  0  0
  186.0830  178.9490  141.3010 C   0  0  0  0  0  2  0  0  0  0  0  0
  180.8070  180.5550  140.4510 N   0  0  0  0  0  0  0  0  0  0  0  0
  184.0850  177.7900  137.3510 C   0  0  0  0  0  2  0  0  0  0  0  0
  186.1650  178.6650  144.0800 C   0  0  0  0  0  2  0  0  0  0  0  0
  183.6290  176.3010  139.3210 C   0  0  0  0  0  1  0  0  0  0  0  0
  181.7500  180.3990  138.2860 C   0  0  1  0  0  3  0  0  0  0  0  0
  185.1110  177.9120  141.8460 C   0  0  0  0  0  2  0  0  0  0  0  0
  186.4360  177.8980  138.0380 C   0  0  0  0  0  0  0  0  0  0  0  0
  187.5240  177.9800  143.8690 C   0  0  0  0  0  2  0  0  0  0  0  0
  180.4360  180.4470  139.0420 C   0  0  2  0  0  3  0  0  0  0  0  0
  181.4280  179.0430  142.3740 C   0  0  0  0  0  2  0  0  0  0  0  0
  183.7240  180.2090  143.5560 C   0  0  0  0  0  1  0  0  0  0  0  0
  187.8190  177.6760  139.9970 C   0  0  0  0  0  2  0  0  0  0  0  0
  187.8090  177.4490  142.4580 C   0  0  0  0  0  2  0  0  0  0  0  0
  182.4600  178.0610  142.9430 C   0  0  0  0  0  2  0  0  0  0  0  0
  181.5770  179.0220  137.7000 C   0  0  0  0  0  2  0  0  0  0  0  0
  183.4200  177.6970  138.7400 C   0  0  2  0  0  3  0  0  0  0  0  0
  187.5260  178.4220  141.2990 C   0  0  2  0  0  3  0  0  0  0  0  0
  181.3500  178.0750  140.0360 C   0  0  0  0  0  2  0  0  0  0  0  0
  184.9520  178.0060  143.3750 C   0  0  2  0  0  3  0  0  0  0  0  0
  185.5120  177.3240  137.3070 C   0  0  0  0  0  0  0  0  0  0  0  0
  183.3300  178.4380  145.2200 C   0  0  0  0  0  1  0  0  0  0  0  0
  181.9710  177.9760  138.6800 N   0  0  1  0  0  0  0  0  0  0  0  0
  180.7930  181.5640  138.0990 C   0  0  0  0  0  2  0  0  0  0  0  0
  182.9860  179.7310  140.7190 O   0  0  0  0  0  1  0  0  0  0  0  0
  187.3700  178.4220  138.7830 C   0  0  0  0  0  3  0  0  0  0  0  0
  184.5830  175.5380  135.8230 C   0  0  0  0  0  2  0  0  0  0  0  0
  185.8480  176.1690  136.4130 C   0  0  2  0  0  3  0  0  0  0  0  0
  186.6860  175.1220  137.1500 C   0  0  0  0  0  2  0  0  0  0  0  0
  187.7970  172.9700  136.9360 N   0  0  0  0  0  1  0  0  0  0  0  0
  185.7700  173.3420  135.6450 C   0  0  0  0  0  2  0  0  0  0  0  0
  187.0390  173.9720  136.2100 C   0  0  1  0  0  3  0  0  0  0  0  0
  184.9540  174.3880  134.8920 C   0  0  0  0  0  2  0  0  0  0  0  0
  178.9310  182.0140  140.9340 N   0  0  0  0  0  1  0  0  0  0  0  0
  179.5610  180.7310  141.2180 C   0  0  0  0  0  2  0  0  0  0  0  0
  1 27  1  6  0  0  0
  1 13  1  0  0  0  0
  2 24  1  0  0  0  0
  3  9  1  0  0  0  0
  4  1  1  0  0  0  0
  4 37  1  0  0  0  0
  5 19  1  0  0  0  0
  8 18  1  6  0  0  0
  8 12  1  0  0  0  0
 10 28  2  0  0  0  0
 11  6  1  0  0  0  0
 12 26  1  6  0  0  0
 12  4  1  0  0  0  0
 13 17  1  0  0  0  0
 14  2  1  0  0  0  0
 16 11  1  0  0  0  0
 17  2  1  0  0  0  0
 19  7  1  6  0  0  0
 20 15  1  6  0  0  0
 20  3  1  0  0  0  0
 20 16  1  0  0  0  0
 21  1  1  0  0  0  0
 22  9  1  6  0  0  0
 22  2  1  0  0  0  0
 22  6  1  0  0  0  0
 23  5  1  0  0  0  0
 23 10  2  0  0  0  0
 25 18  1  1  0  0  0
 25 19  1  0  0  0  0
 25 21  1  0  0  0  0
 26  8  1  0  0  0  0
 28 15  1  0  0  0  0
 29 30  1  0  0  0  0
 30 31  1  0  0  0  0
 30 23  1  1  0  0  0
 33 34  1  0  0  0  0
 34 32  1  1  0  0  0
 34 31  1  0  0  0  0
 35 33  1  0  0  0  0
 35 29  1  0  0  0  0
 36 37  1  0  0  0  0
M  END
>  <MODEL>
4

>  <REMARK>
 VINA RESULT:      -5.4      3.499      7.411
  Name = 
  2 active torsions:
  status: ('A' for Active; 'I' for Inactive)
    1  A    between atoms: N_5  and  C_23
    2  A    between atoms: C_6  and  C_31
                            x       y       z     vdW  Elec       q    Type
                         _______ _______ _______ _____ _____    ______ ____

>  <TORSDO>
F 2

$$$$
=
 OpenBabel10262422503D

 37 41  0  0  1  0  0  0  0  0999 V2000
  186.1360  178.4680  141.4600 C   0  0  1  0  0  0  0  0  0  0  0  0
  183.5760  178.7390  139.0120 C   0  0  0  0  0  0  0  0  0  0  0  0
  185.4650  176.1160  137.7080 C   0  0  0  0  0  2  0  0  0  0  0  0
  186.1480  178.0320  142.9040 N   0  0  0  0  0  0  0  0  0  0  0  0
  189.7340  176.7290  139.2370 C   0  0  0  0  0  2  0  0  0  0  0  0
  183.0290  177.2720  136.9760 C   0  0  0  0  0  2  0  0  0  0  0  0
  188.5650  178.7550  138.3230 C   0  0  0  0  0  1  0  0  0  0  0  0
  188.0920  176.7550  142.4670 C   0  0  1  0  0  3  0  0  0  0  0  0
  185.4730  177.6370  137.7230 C   0  0  0  0  0  2  0  0  0  0  0  0
  188.8240  175.4230  137.3720 C   0  0  0  0  0  0  0  0  0  0  0  0
  183.3510  176.8080  135.5480 C   0  0  0  0  0  2  0  0  0  0  0  0
  187.5170  177.8260  143.3740 C   0  0  2  0  0  3  0  0  0  0  0  0
  184.9210  179.3780  141.1570 C   0  0  0  0  0  2  0  0  0  0  0  0
  183.1490  177.5620  139.8950 C   0  0  0  0  0  1  0  0  0  0  0  0
  186.9800  175.4180  135.8230 C   0  0  0  0  0  2  0  0  0  0  0  0
  184.8210  176.4770  135.2540 C   0  0  0  0  0  2  0  0  0  0  0  0
  184.6820  179.6070  139.6590 C   0  0  0  0  0  2  0  0  0  0  0  0
  189.1870  177.5940  141.8610 C   0  0  0  0  0  2  0  0  0  0  0  0
  188.5690  177.7190  139.4450 C   0  0  2  0  0  3  0  0  0  0  0  0
  185.5270  175.5660  136.2750 C   0  0  2  0  0  3  0  0  0  0  0  0
  187.4460  179.2380  141.0380 C   0  0  0  0  0  2  0  0  0  0  0  0
  184.0550  178.2310  137.6300 C   0  0  2  0  0  3  0  0  0  0  0  0
  189.8120  176.1330  137.8610 C   0  0  0  0  0  0  0  0  0  0  0  0
  182.3640  179.6310  138.8160 C   0  0  0  0  0  1  0  0  0  0  0  0
  188.6620  178.4190  140.7410 N   0  0  1  0  0  0  0  0  0  0  0  0
  187.9040  176.4920  143.9520 C   0  0  0  0  0  2  0  0  0  0  0  0
  186.0050  177.3200  140.6740 O   0  0  0  0  0  1  0  0  0  0  0  0
  187.8420  174.7470  136.8420 C   0  0  0  0  0  3  0  0  0  0  0  0
  190.9290  175.7800  135.6520 C   0  0  0  0  0  2  0  0  0  0  0  0
  191.0490  176.3860  137.0530 C   0  0  2  0  0  3  0  0  0  0  0  0
  192.2960  175.8620  137.7690 C   0  0  0  0  0  2  0  0  0  0  0  0
  194.7090  175.6190  137.6130 N   0  0  0  0  0  1  0  0  0  0  0  0
  193.4180  175.5340  135.5540 C   0  0  0  0  0  2  0  0  0  0  0  0
  193.5430  176.1590  136.9400 C   0  0  1  0  0  3  0  0  0  0  0  0
  192.1860  176.0810  134.8400 C   0  0  0  0  0  2  0  0  0  0  0  0
  185.2570  178.3670  145.1350 N   0  0  0  0  0  1  0  0  0  0  0  0
  185.5050  178.9770  143.8340 C   0  0  0  0  0  2  0  0  0  0  0  0
  1 27  1  6  0  0  0
  1  4  1  0  0  0  0
  2 17  1  0  0  0  0
  2 14  1  0  0  0  0
  3  9  1  0  0  0  0
  4 12  1  0  0  0  0
  4 37  1  0  0  0  0
  5 19  1  0  0  0  0
  8 18  1  1  0  0  0
  8 12  1  0  0  0  0
  8 26  1  0  0  0  0
 10 23  2  0  0  0  0
 11  6  1  0  0  0  0
 12 26  1  1  0  0  0
 13  1  1  0  0  0  0
 15 20  1  0  0  0  0
 15 28  1  0  0  0  0
 16 11  1  0  0  0  0
 17 13  1  0  0  0  0
 19  7  1  6  0  0  0
 19 25  1  0  0  0  0
 20 16  1  6  0  0  0
 20  3  1  0  0  0  0
 21  1  1  0  0  0  0
 22  6  1  1  0  0  0
 22  9  1  0  0  0  0
 22  2  1  0  0  0  0
 23  5  1  0  0  0  0
 24  2  1  0  0  0  0
 25 21  1  1  0  0  0
 25 18  1  0  0  0  0
 28 10  2  0  0  0  0
 29 30  1  0  0  0  0
 30 31  1  0  0  0  0
 30 23  1  1  0  0  0
 33 34  1  0  0  0  0
 34 32  1  1  0  0  0
 34 31  1  0  0  0  0
 35 33  1  0  0  0  0
 35 29  1  0  0  0  0
 37 36  1  0  0  0  0
M  END
>  <MODEL>
5

>  <REMARK>
 VINA RESULT:      -5.4      4.877      9.108
  Name = 
  2 active torsions:
  status: ('A' for Active; 'I' for Inactive)
    1  A    between atoms: N_5  and  C_23
    2  A    between atoms: C_6  and  C_31
                            x       y       z     vdW  Elec       q    Type
                         _______ _______ _______ _____ _____    ______ ____

>  <TORSDO>
F 2

$$$$
=
 OpenBabel10262422503D

 37 41  0  0  1  0  0  0  0  0999 V2000
  185.3690  174.4340  136.1970 C   0  0  1  0  0  0  0  0  0  0  0  0
  183.4110  171.4720  136.0740 C   0  0  0  0  0  0  0  0  0  0  0  0
  180.9700  173.9020  135.5360 C   0  0  0  0  0  2  0  0  0  0  0  0
  186.4340  175.0110  135.2980 N   0  0  0  0  0  0  0  0  0  0  0  0
  182.4880  177.7120  137.5660 C   0  0  0  0  0  2  0  0  0  0  0  0
  180.9390  171.1080  135.4770 C   0  0  0  0  0  2  0  0  0  0  0  0
  182.6730  175.5840  138.8860 C   0  0  0  0  0  1  0  0  0  0  0  0
  185.3920  177.1280  135.4770 C   0  0  1  0  0  3  0  0  0  0  0  0
  181.7020  173.2500  136.7010 C   0  0  0  0  0  2  0  0  0  0  0  0
  180.2540  177.0090  136.8400 C   0  0  0  0  0  0  0  0  0  0  0  0
  179.4530  171.2160  135.8490 C   0  0  0  0  0  2  0  0  0  0  0  0
  186.7120  176.4020  135.6480 C   0  0  2  0  0  3  0  0  0  0  0  0
  185.5650  172.9120  136.3980 C   0  0  0  0  0  2  0  0  0  0  0  0
  183.6450  171.8460  134.6070 C   0  0  0  0  0  1  0  0  0  0  0  0
  178.9380  175.0190  136.5130 C   0  0  0  0  0  2  0  0  0  0  0  0
  178.9970  172.5500  136.4570 C   0  0  0  0  0  2  0  0  0  0  0  0
  184.3600  172.2150  137.0450 C   0  0  0  0  0  2  0  0  0  0  0  0
  185.2230  177.5480  136.9140 C   0  0  0  0  0  2  0  0  0  0  0  0
  183.1710  176.3310  137.6510 C   0  0  2  0  0  3  0  0  0  0  0  0
  179.4460  173.8200  135.7130 C   0  0  2  0  0  3  0  0  0  0  0  0
  185.3240  175.1180  137.6170 C   0  0  0  0  0  2  0  0  0  0  0  0
  181.9410  171.7450  136.4740 C   0  0  2  0  0  3  0  0  0  0  0  0
  180.9920  177.6790  137.6920 C   0  0  0  0  0  0  0  0  0  0  0  0
  183.6930  169.9880  136.2210 C   0  0  0  0  0  1  0  0  0  0  0  0
  184.6420  176.4440  137.7230 N   0  0  1  0  0  0  0  0  0  0  0  0
  186.5810  177.4670  134.5940 C   0  0  0  0  0  2  0  0  0  0  0  0
  184.1370  174.6160  135.5610 O   0  0  0  0  0  1  0  0  0  0  0  0
  179.4950  176.3200  136.0340 C   0  0  0  0  0  3  0  0  0  0  0  0
  181.1080  179.7340  139.1120 C   0  0  0  0  0  2  0  0  0  0  0  0
  180.3660  178.4240  138.8310 C   0  0  2  0  0  3  0  0  0  0  0  0
  180.2970  177.5560  140.0900 C   0  0  0  0  0  2  0  0  0  0  0  0
  179.6100  177.5050  142.4210 N   0  0  0  0  0  1  0  0  0  0  0  0
  180.3890  179.6190  141.5070 C   0  0  0  0  0  2  0  0  0  0  0  0
  179.6290  178.3260  141.2260 C   0  0  1  0  0  3  0  0  0  0  0  0
  180.4320  180.4880  140.2540 C   0  0  0  0  0  2  0  0  0  0  0  0
  188.7330  175.0250  136.0710 N   0  0  0  0  0  1  0  0  0  0  0  0
  187.7170  174.2870  135.3290 C   0  0  0  0  0  2  0  0  0  0  0  0
  1 27  1  6  0  0  0
  1 13  1  0  0  0  0
  1 21  1  0  0  0  0
  2 24  1  0  0  0  0
  2 22  1  0  0  0  0
  2 17  1  0  0  0  0
  3  9  1  0  0  0  0
  4 37  1  0  0  0  0
  4 12  1  0  0  0  0
  4  1  1  0  0  0  0
  5 19  1  0  0  0  0
  5 23  1  0  0  0  0
  6 11  1  0  0  0  0
  8 26  1  6  0  0  0
  8 12  1  0  0  0  0
  8 18  1  0  0  0  0
 10 23  2  0  0  0  0
 11 16  1  0  0  0  0
 12 26  1  6  0  0  0
 13 17  1  0  0  0  0
 14  2  1  0  0  0  0
 19 25  1  0  0  0  0
 19  7  1  1  0  0  0
 20  3  1  1  0  0  0
 20 16  1  0  0  0  0
 20 15  1  0  0  0  0
 21 25  1  0  0  0  0
 22  6  1  6  0  0  0
 22  9  1  0  0  0  0
 25 18  1  6  0  0  0
 28 15  1  0  0  0  0
 28 10  2  0  0  0  0
 29 35  1  0  0  0  0
 30 23  1  6  0  0  0
 30 29  1  0  0  0  0
 30 31  1  0  0  0  0
 31 34  1  0  0  0  0
 34 33  1  0  0  0  0
 34 32  1  1  0  0  0
 35 33  1  0  0  0  0
 37 36  1  0  0  0  0
M  END
>  <MODEL>
6

>  <REMARK>
 VINA RESULT:      -5.4      3.019      6.065
  Name = 
  2 active torsions:
  status: ('A' for Active; 'I' for Inactive)
    1  A    between atoms: N_5  and  C_23
    2  A    between atoms: C_6  and  C_31
                            x       y       z     vdW  Elec       q    Type
                         _______ _______ _______ _____ _____    ______ ____

>  <TORSDO>
F 2

$$$$
=
 OpenBabel10262422503D

 37 41  0  0  1  0  0  0  0  0999 V2000
  187.0110  177.9620  139.2870 C   0  0  1  0  0  0  0  0  0  0  0  0
  184.5890  176.8010  136.9620 C   0  0  0  0  0  0  0  0  0  0  0  0
  186.8370  174.1360  136.9630 C   0  0  0  0  0  2  0  0  0  0  0  0
  186.9850  178.2100  140.7740 N   0  0  0  0  0  0  0  0  0  0  0  0
  190.9090  175.8990  138.0800 C   0  0  0  0  0  2  0  0  0  0  0  0
  184.3340  174.5320  135.7840 C   0  0  0  0  0  2  0  0  0  0  0  0
  189.5770  177.1500  136.3580 C   0  0  0  0  0  1  0  0  0  0  0  0
  189.0830  177.1310  140.9570 C   0  0  1  0  0  3  0  0  0  0  0  0
  186.6720  175.4970  136.3020 C   0  0  0  0  0  2  0  0  0  0  0  0
  190.2660  173.8020  136.9830 C   0  0  0  0  0  0  0  0  0  0  0  0
  184.7930  173.5330  134.7110 C   0  0  0  0  0  2  0  0  0  0  0  0
  188.3370  178.4080  141.2920 C   0  0  2  0  0  3  0  0  0  0  0  0
  185.7220  178.4830  138.6060 C   0  0  0  0  0  2  0  0  0  0  0  0
  184.2440  176.0880  138.2730 C   0  0  0  0  0  1  0  0  0  0  0  0
  188.5310  172.8810  135.5900 C   0  0  0  0  0  2  0  0  0  0  0  0
  186.3060  173.2980  134.6010 C   0  0  0  0  0  2  0  0  0  0  0  0
  185.5490  177.9980  137.1610 C   0  0  0  0  0  2  0  0  0  0  0  0
  190.1110  177.7500  140.0460 C   0  0  0  0  0  2  0  0  0  0  0  0
  189.6290  176.7210  137.8220 C   0  0  2  0  0  3  0  0  0  0  0  0
  187.0460  173.0260  135.9230 C   0  0  2  0  0  3  0  0  0  0  0  0
  188.2490  178.6290  138.5730 C   0  0  0  0  0  2  0  0  0  0  0  0
  185.2040  175.8040  135.9500 C   0  0  2  0  0  3  0  0  0  0  0  0
  191.1370  174.7740  137.1110 C   0  0  0  0  0  0  0  0  0  0  0  0
  183.2980  177.3530  136.3850 C   0  0  0  0  0  1  0  0  0  0  0  0
  189.5640  177.9250  138.6750 N   0  0  1  0  0  0  0  0  0  0  0  0
  188.8360  177.5260  142.4040 C   0  0  0  0  0  2  0  0  0  0  0  0
  187.0580  176.5800  139.0900 O   0  0  0  0  0  1  0  0  0  0  0  0
  189.4010  172.8430  136.8040 C   0  0  0  0  0  3  0  0  0  0  0  0
  193.3110  173.6350  136.6310 C   0  0  0  0  0  2  0  0  0  0  0  0
  192.3830  174.8030  136.2800 C   0  0  2  0  0  3  0  0  0  0  0  0
  193.1140  176.1400  136.4210 C   0  0  0  0  0  2  0  0  0  0  0  0
  195.0640  177.4110  135.7220 N   0  0  0  0  0  1  0  0  0  0  0  0
  195.2850  174.9980  135.9170 C   0  0  0  0  0  2  0  0  0  0  0  0
  194.3620  176.1540  135.5440 C   0  0  1  0  0  3  0  0  0  0  0  0
  194.5560  173.6680  135.7490 C   0  0  0  0  0  2  0  0  0  0  0  0
  185.2060  179.0240  142.2080 N   0  0  0  0  0  1  0  0  0  0  0  0
  186.1840  179.3770  141.1860 C   0  0  0  0  0  2  0  0  0  0  0  0
  1 27  1  6  0  0  0
  1  4  1  0  0  0  0
  2 17  1  0  0  0  0
  2 14  1  0  0  0  0
  4 37  1  0  0  0  0
  4 12  1  0  0  0  0
  8 18  1  1  0  0  0
  8 12  1  0  0  0  0
  8 26  1  0  0  0  0
  9  3  1  0  0  0  0
 10 23  2  0  0  0  0
 11  6  1  0  0  0  0
 12 26  1  1  0  0  0
 13  1  1  0  0  0  0
 15 20  1  0  0  0  0
 15 28  1  0  0  0  0
 16 11  1  0  0  0  0
 17 13  1  0  0  0  0
 19  7  1  6  0  0  0
 19  5  1  0  0  0  0
 19 25  1  0  0  0  0
 20 16  1  6  0  0  0
 20  3  1  0  0  0  0
 21  1  1  0  0  0  0
 22  6  1  1  0  0  0
 22  9  1  0  0  0  0
 22  2  1  0  0  0  0
 23  5  1  0  0  0  0
 24  2  1  0  0  0  0
 25 21  1  1  0  0  0
 25 18  1  0  0  0  0
 28 10  2  0  0  0  0
 30 31  1  0  0  0  0
 30 29  1  0  0  0  0
 30 23  1  1  0  0  0
 34 32  1  1  0  0  0
 34 33  1  0  0  0  0
 34 31  1  0  0  0  0
 35 33  1  0  0  0  0
 35 29  1  0  0  0  0
 37 36  1  0  0  0  0
M  END
>  <MODEL>
7

>  <REMARK>
 VINA RESULT:      -5.1      5.046      9.658
  Name = 
  2 active torsions:
  status: ('A' for Active; 'I' for Inactive)
    1  A    between atoms: N_5  and  C_23
    2  A    between atoms: C_6  and  C_31
                            x       y       z     vdW  Elec       q    Type
                         _______ _______ _______ _____ _____    ______ ____

>  <TORSDO>
F 2

$$$$
=
 OpenBabel10262422503D

 37 41  0  0  1  0  0  0  0  0999 V2000
  184.7510  177.3050  137.2240 C   0  0  1  0  0  0  0  0  0  0  0  0
  183.0200  174.7430  135.4760 C   0  0  0  0  0  0  0  0  0  0  0  0
  185.8220  173.0000  136.6020 C   0  0  0  0  0  2  0  0  0  0  0  0
  184.4640  178.0730  138.4900 N   0  0  0  0  0  0  0  0  0  0  0  0
  189.1590  176.0980  137.0540 C   0  0  0  0  0  2  0  0  0  0  0  0
  183.4820  172.2230  135.2860 C   0  0  0  0  0  2  0  0  0  0  0  0
  187.8110  176.1980  134.9370 C   0  0  0  0  0  1  0  0  0  0  0  0
  186.7150  177.7620  139.1500 C   0  0  1  0  0  3  0  0  0  0  0  0
  185.4260  173.9140  135.4510 C   0  0  0  0  0  2  0  0  0  0  0  0
  189.1950  173.6540  136.8580 C   0  0  0  0  0  0  0  0  0  0  0  0
  184.3090  171.0640  134.7110 C   0  0  0  0  0  2  0  0  0  0  0  0
  185.6450  178.8130  138.9290 C   0  0  2  0  0  3  0  0  0  0  0  0
  183.4800  177.1580  136.3530 C   0  0  0  0  0  2  0  0  0  0  0  0
  182.6820  174.5060  136.9510 C   0  0  0  0  0  1  0  0  0  0  0  0
  187.9390  171.8420  135.8910 C   0  0  0  0  0  2  0  0  0  0  0  0
  185.8350  171.2290  134.7490 C   0  0  0  0  0  2  0  0  0  0  0  0
  183.6280  176.1420  135.2130 C   0  0  0  0  0  2  0  0  0  0  0  0
  187.6780  178.2530  138.1000 C   0  0  0  0  0  2  0  0  0  0  0  0
  187.7660  176.3790  136.4520 C   0  0  2  0  0  3  0  0  0  0  0  0
  186.4320  171.6860  136.0930 C   0  0  2  0  0  3  0  0  0  0  0  0
  185.8780  177.9700  136.3430 C   0  0  0  0  0  2  0  0  0  0  0  0
  183.9890  173.6510  134.9610 C   0  0  2  0  0  3  0  0  0  0  0  0
  189.7800  174.8030  136.6170 C   0  0  0  0  0  0  0  0  0  0  0  0
  181.7250  174.6620  134.6880 C   0  0  0  0  0  1  0  0  0  0  0  0
  187.2970  177.7460  136.7560 N   0  0  1  0  0  0  0  0  0  0  0  0
  186.1860  178.5830  140.3140 C   0  0  0  0  0  2  0  0  0  0  0  0
  185.1560  176.0200  137.5930 O   0  0  0  0  0  1  0  0  0  0  0  0
  188.6190  172.4990  137.0470 C   0  0  0  0  0  3  0  0  0  0  0  0
  191.6970  173.4650  135.7300 C   0  0  0  0  0  2  0  0  0  0  0  0
  191.0840  174.8600  135.8820 C   0  0  2  0  0  3  0  0  0  0  0  0
  192.0660  175.8150  136.5670 C   0  0  0  0  0  2  0  0  0  0  0  0
  194.3060  176.7530  136.4680 N   0  0  0  0  0  1  0  0  0  0  0  0
  193.9820  174.4850  135.6550 C   0  0  0  0  0  2  0  0  0  0  0  0
  193.3740  175.8780  135.7830 C   0  0  1  0  0  3  0  0  0  0  0  0
  193.0060  173.5480  134.9490 C   0  0  0  0  0  2  0  0  0  0  0  0
  183.6530  180.2780  139.0930 N   0  0  0  0  0  1  0  0  0  0  0  0
  183.3570  179.0400  138.3810 C   0  0  0  0  0  2  0  0  0  0  0  0
  1 27  1  1  0  0  0
  1  4  1  0  0  0  0
  2 14  1  0  0  0  0
  4 12  1  0  0  0  0
  8 18  1  6  0  0  0
  8 26  1  0  0  0  0
  9  3  1  0  0  0  0
 10 28  2  0  0  0  0
 11 16  1  0  0  0  0
 11  6  1  0  0  0  0
 12  8  1  0  0  0  0
 12 26  1  1  0  0  0
 13  1  1  0  0  0  0
 15 20  1  0  0  0  0
 15 28  1  0  0  0  0
 17  2  1  0  0  0  0
 17 13  1  0  0  0  0
 19  7  1  6  0  0  0
 19 25  1  0  0  0  0
 19  5  1  0  0  0  0
 20 16  1  6  0  0  0
 20  3  1  0  0  0  0
 21  1  1  0  0  0  0
 22  6  1  1  0  0  0
 22  9  1  0  0  0  0
 22  2  1  0  0  0  0
 23 10  2  0  0  0  0
 23  5  1  0  0  0  0
 24  2  1  0  0  0  0
 25 21  1  1  0  0  0
 25 18  1  0  0  0  0
 29 30  1  0  0  0  0
 30 31  1  0  0  0  0
 30 23  1  1  0  0  0
 33 34  1  0  0  0  0
 34 32  1  1  0  0  0
 34 31  1  0  0  0  0
 35 33  1  0  0  0  0
 35 29  1  0  0  0  0
 37  4  1  0  0  0  0
 37 36  1  0  0  0  0
M  END
>  <MODEL>
8

>  <REMARK>
 VINA RESULT:      -5.0      4.053      8.674
  Name = 
  2 active torsions:
  status: ('A' for Active; 'I' for Inactive)
    1  A    between atoms: N_5  and  C_23
    2  A    between atoms: C_6  and  C_31
                            x       y       z     vdW  Elec       q    Type
                         _______ _______ _______ _____ _____    ______ ____

>  <TORSDO>
F 2

$$$$
=
 OpenBabel10262422503D

 37 41  0  0  1  0  0  0  0  0999 V2000
  185.1200  178.0010  138.2810 C   0  0  1  0  0  0  0  0  0  0  0  0
  188.3600  178.1450  136.8330 C   0  0  0  0  0  0  0  0  0  0  0  0
  189.0240  176.3850  139.7680 C   0  0  0  0  0  2  0  0  0  0  0  0
  183.8440  177.2910  137.9000 N   0  0  0  0  0  0  0  0  0  0  0  0
  185.8390  177.6830  142.7860 C   0  0  0  0  0  2  0  0  0  0  0  0
  190.5720  177.0430  137.5360 C   0  0  0  0  0  2  0  0  0  0  0  0
  186.9540  179.5090  141.4720 C   0  0  0  0  0  1  0  0  0  0  0  0
  183.5700  176.6410  140.1590 C   0  0  1  0  0  3  0  0  0  0  0  0
  188.8640  177.8260  139.3060 C   0  0  0  0  0  2  0  0  0  0  0  0
  188.0270  176.6100  143.0580 C   0  0  0  0  0  0  0  0  0  0  0  0
  191.7820  176.9770  138.4800 C   0  0  0  0  0  2  0  0  0  0  0  0
  182.8800  177.3300  138.9970 C   0  0  2  0  0  3  0  0  0  0  0  0
  185.8040  178.6320  137.0450 C   0  0  0  0  0  2  0  0  0  0  0  0
  187.8430  176.7430  136.4940 C   0  0  0  0  0  1  0  0  0  0  0  0
  190.1860  176.4790  141.9980 C   0  0  0  0  0  2  0  0  0  0  0  0
  191.4820  177.0790  139.9820 C   0  0  0  0  0  2  0  0  0  0  0  0
  187.2410  179.1020  137.3080 C   0  0  0  0  0  2  0  0  0  0  0  0
  183.5970  177.8270  141.0880 C   0  0  0  0  0  2  0  0  0  0  0  0
  186.0320  178.2960  141.3830 C   0  0  2  0  0  3  0  0  0  0  0  0
  190.3530  176.1750  140.5090 C   0  0  2  0  0  3  0  0  0  0  0  0
  184.8970  179.1340  139.3540 C   0  0  0  0  0  2  0  0  0  0  0  0
  189.4690  178.0650  137.9100 C   0  0  2  0  0  3  0  0  0  0  0  0
  187.1140  177.4210  143.5350 C   0  0  0  0  0  0  0  0  0  0  0  0
  188.9480  178.7380  135.5650 C   0  0  0  0  0  1  0  0  0  0  0  0
  184.7500  178.7140  140.7810 N   0  0  1  0  0  0  0  0  0  0  0  0
  182.3230  176.0400  139.5330 C   0  0  0  0  0  2  0  0  0  0  0  0
  185.9960  177.0440  138.8000 O   0  0  0  0  0  1  0  0  0  0  0  0
  188.9720  175.8410  142.5920 C   0  0  0  0  0  3  0  0  0  0  0  0
  188.4830  177.5130  145.6260 C   0  0  0  0  0  2  0  0  0  0  0  0
  187.3200  178.1270  144.8410 C   0  0  2  0  0  3  0  0  0  0  0  0
  186.0390  178.1310  145.6790 C   0  0  0  0  0  2  0  0  0  0  0  0
  185.0570  178.8380  147.7860 N   0  0  0  0  0  1  0  0  0  0  0  0
  187.4150  178.2470  147.7670 C   0  0  0  0  0  2  0  0  0  0  0  0
  186.2670  178.8810  146.9880 C   0  0  1  0  0  3  0  0  0  0  0  0
  188.6930  178.2700  146.9340 C   0  0  0  0  0  2  0  0  0  0  0  0
  181.9680  178.5800  137.0630 N   0  0  0  0  0  1  0  0  0  0  0  0
  183.1730  177.8390  136.7080 C   0  0  0  0  0  2  0  0  0  0  0  0
  1 27  1  1  0  0  0
  1 21  1  0  0  0  0
  2 17  1  0  0  0  0
  2 22  1  0  0  0  0
  4  1  1  0  0  0  0
  4 12  1  0  0  0  0
  5 23  1  0  0  0  0
  6 11  1  0  0  0  0
  8 26  1  1  0  0  0
  8 18  1  0  0  0  0
  9  3  1  0  0  0  0
 10 23  2  0  0  0  0
 11 16  1  0  0  0  0
 12 26  1  6  0  0  0
 12  8  1  0  0  0  0
 13 17  1  0  0  0  0
 13  1  1  0  0  0  0
 14  2  1  0  0  0  0
 15 28  1  0  0  0  0
 16 20  1  0  0  0  0
 19  7  1  1  0  0  0
 19  5  1  0  0  0  0
 20  3  1  6  0  0  0
 20 15  1  0  0  0  0
 22  6  1  6  0  0  0
 22  9  1  0  0  0  0
 24  2  1  0  0  0  0
 25 21  1  6  0  0  0
 25 18  1  0  0  0  0
 25 19  1  0  0  0  0
 28 10  2  0  0  0  0
 29 35  1  0  0  0  0
 30 23  1  6  0  0  0
 30 29  1  0  0  0  0
 30 31  1  0  0  0  0
 31 34  1  0  0  0  0
 34 33  1  0  0  0  0
 34 32  1  1  0  0  0
 35 33  1  0  0  0  0
 37 36  1  0  0  0  0
 37  4  1  0  0  0  0
M  END
>  <MODEL>
9

>  <REMARK>
 VINA RESULT:      -4.7      5.012      7.699
  Name = 
  2 active torsions:
  status: ('A' for Active; 'I' for Inactive)
    1  A    between atoms: N_5  and  C_23
    2  A    between atoms: C_6  and  C_31
                            x       y       z     vdW  Elec       q    Type
                         _______ _______ _______ _____ _____    ______ ____

>  <TORSDO>
F 2

$$$$
