=
 OpenBabel10262420563D

 28 32  0  0  1  0  0  0  0  0999 V2000
  186.8730  177.5170  146.0890 C   0  0  2  0  0  3  0  0  0  0  0  0
  188.4050  177.2330  141.1110 C   0  0  0  0  0  3  0  0  0  0  0  0
  191.7590  177.1970  146.1780 O   0  0  0  0  0  0  0  0  0  0  0  0
  190.8230  177.4540  141.2360 C   0  0  0  0  0  0  0  0  0  0  0  0
  189.5250  177.2240  143.2920 C   0  0  0  0  0  0  0  0  0  0  0  0
  189.7110  177.4670  139.0840 C   0  0  0  0  0  0  0  0  0  0  0  0
  189.5740  177.3020  141.8860 C   0  0  0  0  0  0  0  0  0  0  0  0
  191.9500  177.4360  143.3740 C   0  0  0  0  0  3  0  0  0  0  0  0
  190.8820  177.5370  139.8420 C   0  0  0  0  0  3  0  0  0  0  0  0
  189.3600  177.0870  146.2260 C   0  0  1  0  0  3  0  0  0  0  0  0
  188.2140  177.0060  144.0040 C   0  0  0  0  0  2  0  0  0  0  0  0
  191.9990  177.5190  141.9830 C   0  0  0  0  0  3  0  0  0  0  0  0
  188.0580  177.5310  148.3090 C   0  0  0  0  0  2  0  0  0  0  0  0
  190.6840  177.2180  145.5160 C   0  0  0  0  0  0  0  0  0  0  0  0
  189.3890  177.7550  147.6000 C   0  0  0  0  0  2  0  0  0  0  0  0
  189.7730  177.5490  137.7330 F   0  0  0  0  0  0  0  0  0  0  0  0
  188.4740  177.3160  139.7170 C   0  0  0  0  0  3  0  0  0  0  0  0
  190.7250  177.2850  144.0370 C   0  0  0  0  0  0  0  0  0  0  0  0
  186.9200  178.1320  147.4910 C   0  0  0  0  0  2  0  0  0  0  0  0
  188.2260  177.6800  145.3760 C   0  0  1  0  0  3  0  0  0  0  0  0
  185.7480  178.1230  145.3040 C   0  0  0  0  0  0  0  0  0  0  0  0
  185.8570  178.3300  143.9200 C   0  0  0  0  0  3  0  0  0  0  0  0
  183.6150  179.2450  143.8740 C   0  0  0  0  0  0  0  0  0  0  0  0
  184.5700  178.4820  145.9660 C   0  0  0  0  0  3  0  0  0  0  0  0
  184.9600  179.1310  141.4760 Cl  0  0  0  0  0  0  0  0  0  0  0  0
  184.7940  178.8890  143.2050 C   0  0  0  0  0  0  0  0  0  0  0  0
  182.5480  179.8020  143.1780 O   0  0  0  0  0  1  0  0  0  0  0  0
  183.5060  179.0420  145.2530 C   0  0  0  0  0  3  0  0  0  0  0  0
  1 21  1  6  0  0  0
  1 19  1  0  0  0  0
  2  7  1  0  0  0  0
  4  7  2  0  0  0  0
  4 12  1  0  0  0  0
  5 11  1  0  0  0  0
  5 18  2  0  0  0  0
  6 17  1  0  0  0  0
  6  9  2  0  0  0  0
  7  5  1  0  0  0  0
  8 18  1  0  0  0  0
  9  4  1  0  0  0  0
 10 15  1  1  0  0  0
 12  8  2  0  0  0  0
 14  3  2  0  0  0  0
 14 10  1  0  0  0  0
 15 13  1  0  0  0  0
 16  6  1  0  0  0  0
 17  2  2  0  0  0  0
 18 14  1  0  0  0  0
 19 13  1  0  0  0  0
 20 11  1  6  0  0  0
 20  1  1  0  0  0  0
 20 10  1  0  0  0  0
 21 24  1  0  0  0  0
 22 21  2  0  0  0  0
 23 28  1  0  0  0  0
 25 26  1  0  0  0  0
 26 23  2  0  0  0  0
 26 22  1  0  0  0  0
 27 23  1  0  0  0  0
 28 24  2  0  0  0  0
M  END
>  <MODEL>
1

>  <REMARK>
 VINA RESULT:     -12.2      0.000      0.000
  Name = 
  1 active torsions:
  status: ('A' for Active; 'I' for Inactive)
    1  A    between atoms: C_1  and  C_2
                            x       y       z     vdW  Elec       q    Type
                         _______ _______ _______ _____ _____    ______ ____

>  <TORSDO>
F 1

$$$$
=
 OpenBabel10262420563D

 28 32  0  0  1  0  0  0  0  0999 V2000
  186.1610  178.0080  142.4630 C   0  0  2  0  0  3  0  0  0  0  0  0
  190.2580  176.4130  145.2700 C   0  0  0  0  0  3  0  0  0  0  0  0
  185.0980  179.0230  147.1340 O   0  0  0  0  0  0  0  0  0  0  0  0
  189.8110  177.2850  147.4940 C   0  0  0  0  0  0  0  0  0  0  0  0
  188.0960  177.4580  145.7630 C   0  0  0  0  0  0  0  0  0  0  0  0
  191.9470  176.2560  147.0000 C   0  0  0  0  0  0  0  0  0  0  0  0
  189.3840  177.0490  146.1650 C   0  0  0  0  0  0  0  0  0  0  0  0
  187.6820  178.3080  148.0070 C   0  0  0  0  0  3  0  0  0  0  0  0
  191.0880  176.8870  147.9010 C   0  0  0  0  0  3  0  0  0  0  0  0
  185.4300  178.3160  144.8630 C   0  0  1  0  0  3  0  0  0  0  0  0
  187.5980  177.1690  144.3700 C   0  0  0  0  0  2  0  0  0  0  0  0
  188.9580  177.9110  148.4040 C   0  0  0  0  0  3  0  0  0  0  0  0
  183.9630  179.1050  143.0040 C   0  0  0  0  0  2  0  0  0  0  0  0
  185.8890  178.5310  146.2830 C   0  0  0  0  0  0  0  0  0  0  0  0
  184.4560  179.4050  144.4140 C   0  0  0  0  0  2  0  0  0  0  0  0
  193.1840  175.8730  147.3980 F   0  0  0  0  0  0  0  0  0  0  0  0
  191.5330  176.0180  145.6860 C   0  0  0  0  0  3  0  0  0  0  0  0
  187.2400  178.0850  146.6970 C   0  0  0  0  0  0  0  0  0  0  0  0
  185.1380  179.0640  142.0340 C   0  0  0  0  0  2  0  0  0  0  0  0
  186.6310  178.2580  143.9050 C   0  0  1  0  0  3  0  0  0  0  0  0
  187.3070  177.9870  141.4950 C   0  0  0  0  0  0  0  0  0  0  0  0
  188.6040  177.6490  141.9120 C   0  0  0  0  0  3  0  0  0  0  0  0
  189.4160  177.9450  139.6490 C   0  0  0  0  0  0  0  0  0  0  0  0
  187.0740  178.3040  140.1530 C   0  0  0  0  0  3  0  0  0  0  0  0
  191.2660  177.1980  141.5450 Cl  0  0  0  0  0  0  0  0  0  0  0  0
  189.6570  177.6280  140.9930 C   0  0  0  0  0  0  0  0  0  0  0  0
  190.4520  177.9270  138.7220 O   0  0  0  0  0  1  0  0  0  0  0  0
  188.1250  178.2830  139.2330 C   0  0  0  0  0  3  0  0  0  0  0  0
  1 21  1  6  0  0  0
  1 20  1  0  0  0  0
  2 17  2  0  0  0  0
  2  7  1  0  0  0  0
  4  9  1  0  0  0  0
  4 12  1  0  0  0  0
  5  7  1  0  0  0  0
  5 18  2  0  0  0  0
  6 16  1  0  0  0  0
  6  9  2  0  0  0  0
  7  4  2  0  0  0  0
  8 12  2  0  0  0  0
 10 15  1  6  0  0  0
 10 14  1  0  0  0  0
 11  5  1  0  0  0  0
 13 15  1  0  0  0  0
 14 18  1  0  0  0  0
 14  3  2  0  0  0  0
 17  6  1  0  0  0  0
 18  8  1  0  0  0  0
 19  1  1  0  0  0  0
 19 13  1  0  0  0  0
 20 11  1  1  0  0  0
 20 10  1  0  0  0  0
 21 22  1  0  0  0  0
 23 26  1  0  0  0  0
 24 21  2  0  0  0  0
 26 25  1  0  0  0  0
 26 22  2  0  0  0  0
 27 23  1  0  0  0  0
 28 23  2  0  0  0  0
 28 24  1  0  0  0  0
M  END
>  <MODEL>
2

>  <REMARK>
 VINA RESULT:     -12.1      3.068      6.149
  Name = 
  1 active torsions:
  status: ('A' for Active; 'I' for Inactive)
    1  A    between atoms: C_1  and  C_2
                            x       y       z     vdW  Elec       q    Type
                         _______ _______ _______ _____ _____    ______ ____

>  <TORSDO>
F 1

$$$$
=
 OpenBabel10262420563D

 28 32  0  0  1  0  0  0  0  0999 V2000
  185.1260  177.8780  144.3140 C   0  0  2  0  0  3  0  0  0  0  0  0
  189.2810  177.1160  141.2540 C   0  0  0  0  0  3  0  0  0  0  0  0
  189.0340  177.9680  147.2650 O   0  0  0  0  0  0  0  0  0  0  0  0
  191.1690  177.5450  142.7230 C   0  0  0  0  0  0  0  0  0  0  0  0
  188.9120  177.4620  143.6530 C   0  0  0  0  0  0  0  0  0  0  0  0
  191.5280  177.2070  140.3520 C   0  0  0  0  0  0  0  0  0  0  0  0
  189.7750  177.3720  142.5430 C   0  0  0  0  0  0  0  0  0  0  0  0
  190.8310  177.8780  145.0940 C   0  0  0  0  0  3  0  0  0  0  0  0
  192.0340  177.4620  141.6280 C   0  0  0  0  0  3  0  0  0  0  0  0
  187.0600  177.6710  145.9290 C   0  0  1  0  0  3  0  0  0  0  0  0
  187.4320  177.2280  143.4950 C   0  0  0  0  0  2  0  0  0  0  0  0
  191.6860  177.7960  143.9950 C   0  0  0  0  0  3  0  0  0  0  0  0
  184.7880  178.2580  146.7780 C   0  0  0  0  0  2  0  0  0  0  0  0
  188.5500  177.8210  146.1090 C   0  0  0  0  0  0  0  0  0  0  0  0
  186.2830  178.5010  146.9500 C   0  0  0  0  0  2  0  0  0  0  0  0
  192.3690  177.1280  139.2940 F   0  0  0  0  0  0  0  0  0  0  0  0
  190.1530  177.0340  140.1650 C   0  0  0  0  0  3  0  0  0  0  0  0
  189.4490  177.7100  144.9370 C   0  0  0  0  0  0  0  0  0  0  0  0
  184.3470  178.6610  145.3760 C   0  0  0  0  0  2  0  0  0  0  0  0
  186.6410  178.0630  144.5040 C   0  0  1  0  0  3  0  0  0  0  0  0
  184.6780  178.2910  142.9440 C   0  0  0  0  0  0  0  0  0  0  0  0
  183.3140  178.3710  142.6190 C   0  0  0  0  0  3  0  0  0  0  0  0
  183.8840  179.0840  140.3760 C   0  0  0  0  0  0  0  0  0  0  0  0
  185.6380  178.6080  141.9780 C   0  0  0  0  0  3  0  0  0  0  0  0
  181.2060  178.8590  140.9660 Cl  0  0  0  0  0  0  0  0  0  0  0  0
  182.9170  178.7660  141.3390 C   0  0  0  0  0  0  0  0  0  0  0  0
  183.5060  179.4800  139.0980 O   0  0  0  0  0  1  0  0  0  0  0  0
  185.2420  179.0030  140.6980 C   0  0  0  0  0  3  0  0  0  0  0  0
  1 21  1  6  0  0  0
  1 20  1  0  0  0  0
  1 19  1  0  0  0  0
  2  7  1  0  0  0  0
  4 12  1  0  0  0  0
  5 18  2  0  0  0  0
  6  9  2  0  0  0  0
  7  4  2  0  0  0  0
  7  5  1  0  0  0  0
  9  4  1  0  0  0  0
 10 14  1  0  0  0  0
 10 15  1  1  0  0  0
 11  5  1  0  0  0  0
 12  8  2  0  0  0  0
 13 15  1  0  0  0  0
 14  3  2  0  0  0  0
 16  6  1  0  0  0  0
 17  6  1  0  0  0  0
 17  2  2  0  0  0  0
 18  8  1  0  0  0  0
 18 14  1  0  0  0  0
 19 13  1  0  0  0  0
 20 11  1  6  0  0  0
 20 10  1  0  0  0  0
 22 21  1  0  0  0  0
 23 28  2  0  0  0  0
 23 26  1  0  0  0  0
 24 21  2  0  0  0  0
 25 26  1  0  0  0  0
 26 22  2  0  0  0  0
 27 23  1  0  0  0  0
 28 24  1  0  0  0  0
M  END
>  <MODEL>
3

>  <REMARK>
 VINA RESULT:     -11.7      1.804      2.745
  Name = 
  1 active torsions:
  status: ('A' for Active; 'I' for Inactive)
    1  A    between atoms: C_1  and  C_2
                            x       y       z     vdW  Elec       q    Type
                         _______ _______ _______ _____ _____    ______ ____

>  <TORSDO>
F 1

$$$$
=
 OpenBabel10262420563D

 28 32  0  0  1  0  0  0  0  0999 V2000
  188.4510  178.1130  144.6020 C   0  0  2  0  0  3  0  0  0  0  0  0
  184.8410  178.9950  140.9410 C   0  0  0  0  0  3  0  0  0  0  0  0
  184.1830  178.5440  146.9640 O   0  0  0  0  0  0  0  0  0  0  0  0
  182.7380  178.8230  142.1480 C   0  0  0  0  0  0  0  0  0  0  0  0
  184.8450  178.7870  143.3840 C   0  0  0  0  0  0  0  0  0  0  0  0
  182.7410  179.0240  139.7350 C   0  0  0  0  0  0  0  0  0  0  0  0
  184.1540  178.8690  142.1590 C   0  0  0  0  0  0  0  0  0  0  0  0
  182.7170  178.6280  144.5570 C   0  0  0  0  0  3  0  0  0  0  0  0
  182.0430  178.9000  140.9370 C   0  0  0  0  0  3  0  0  0  0  0  0
  186.3400  178.5870  145.9100 C   0  0  1  0  0  3  0  0  0  0  0  0
  186.3480  178.8890  143.4260 C   0  0  0  0  0  2  0  0  0  0  0  0
  182.0320  178.7030  143.3450 C   0  0  0  0  0  3  0  0  0  0  0  0
  188.4120  177.8780  147.1070 C   0  0  0  0  0  2  0  0  0  0  0  0
  184.8330  178.5710  145.8830 C   0  0  0  0  0  0  0  0  0  0  0  0
  186.8920  177.7690  147.0760 C   0  0  0  0  0  2  0  0  0  0  0  0
  182.0640  179.0980  138.5640 F   0  0  0  0  0  0  0  0  0  0  0  0
  184.1380  179.0720  139.7350 C   0  0  0  0  0  3  0  0  0  0  0  0
  184.1170  178.6720  144.5900 C   0  0  0  0  0  0  0  0  0  0  0  0
  189.0030  177.3440  145.8070 C   0  0  0  0  0  2  0  0  0  0  0  0
  186.9140  178.0650  144.5830 C   0  0  1  0  0  3  0  0  0  0  0  0
  189.0450  177.5710  143.3360 C   0  0  0  0  0  0  0  0  0  0  0  0
  188.6990  178.1040  142.0850 C   0  0  0  0  0  3  0  0  0  0  0  0
  190.1920  176.5370  140.9970 C   0  0  0  0  0  0  0  0  0  0  0  0
  189.9630  176.5190  143.4090 C   0  0  0  0  0  3  0  0  0  0  0  0
  188.8210  178.2820  139.3690 Cl  0  0  0  0  0  0  0  0  0  0  0  0
  189.2700  177.5900  140.9170 C   0  0  0  0  0  0  0  0  0  0  0  0
  190.7690  176.0140  139.8450 O   0  0  0  0  0  1  0  0  0  0  0  0
  190.5340  176.0030  142.2430 C   0  0  0  0  0  3  0  0  0  0  0  0
  1 21  1  6  0  0  0
  1 19  1  0  0  0  0
  2  7  1  0  0  0  0
  4  7  2  0  0  0  0
  4 12  1  0  0  0  0
  5 11  1  0  0  0  0
  5 18  2  0  0  0  0
  6 17  1  0  0  0  0
  6  9  2  0  0  0  0
  7  5  1  0  0  0  0
  8 18  1  0  0  0  0
  9  4  1  0  0  0  0
 10 15  1  1  0  0  0
 12  8  2  0  0  0  0
 14 10  1  0  0  0  0
 14  3  2  0  0  0  0
 15 13  1  0  0  0  0
 16  6  1  0  0  0  0
 17  2  2  0  0  0  0
 18 14  1  0  0  0  0
 19 13  1  0  0  0  0
 20 11  1  6  0  0  0
 20  1  1  0  0  0  0
 20 10  1  0  0  0  0
 21 24  1  0  0  0  0
 22 21  2  0  0  0  0
 23 28  1  0  0  0  0
 25 26  1  0  0  0  0
 26 23  2  0  0  0  0
 26 22  1  0  0  0  0
 27 23  1  0  0  0  0
 28 24  2  0  0  0  0
M  END
>  <MODEL>
4

>  <REMARK>
 VINA RESULT:     -11.0      2.759      6.167
  Name = 
  1 active torsions:
  status: ('A' for Active; 'I' for Inactive)
    1  A    between atoms: C_1  and  C_2
                            x       y       z     vdW  Elec       q    Type
                         _______ _______ _______ _____ _____    ______ ____

>  <TORSDO>
F 1

$$$$
=
 OpenBabel10262420563D

 28 32  0  0  1  0  0  0  0  0999 V2000
  184.2410  178.1880  142.5140 C   0  0  2  0  0  3  0  0  0  0  0  0
  189.0890  176.3770  143.1680 C   0  0  0  0  0  3  0  0  0  0  0  0
  185.2360  178.6330  147.2890 O   0  0  0  0  0  0  0  0  0  0  0  0
  189.6270  176.9760  145.4620 C   0  0  0  0  0  0  0  0  0  0  0  0
  187.3540  177.3070  144.6300 C   0  0  0  0  0  0  0  0  0  0  0  0
  191.3370  176.0610  144.0130 C   0  0  0  0  0  0  0  0  0  0  0  0
  188.6810  176.8850  144.4120 C   0  0  0  0  0  0  0  0  0  0  0  0
  187.9300  177.8830  146.9250 C   0  0  0  0  0  3  0  0  0  0  0  0
  190.9460  176.5640  145.2550 C   0  0  0  0  0  3  0  0  0  0  0  0
  184.5780  178.2010  145.0200 C   0  0  1  0  0  3  0  0  0  0  0  0
  186.3160  177.1690  143.5450 C   0  0  0  0  0  2  0  0  0  0  0  0
  189.2440  177.4720  146.7080 C   0  0  0  0  0  3  0  0  0  0  0  0
  182.4950  179.1640  144.0400 C   0  0  0  0  0  2  0  0  0  0  0  0
  185.5900  178.2610  146.1360 C   0  0  0  0  0  0  0  0  0  0  0  0
  183.5360  179.3120  145.1430 C   0  0  0  0  0  2  0  0  0  0  0  0
  192.6180  175.6640  143.8160 F   0  0  0  0  0  0  0  0  0  0  0  0
  190.4110  175.9670  142.9700 C   0  0  0  0  0  3  0  0  0  0  0  0
  186.9780  177.8020  145.8990 C   0  0  0  0  0  0  0  0  0  0  0  0
  183.1610  179.2630  142.6720 C   0  0  0  0  0  2  0  0  0  0  0  0
  185.2730  178.2820  143.6510 C   0  0  1  0  0  3  0  0  0  0  0  0
  184.8830  178.3060  141.1640 C   0  0  0  0  0  0  0  0  0  0  0  0
  186.2770  178.3790  141.0250 C   0  0  0  0  0  3  0  0  0  0  0  0
  186.0390  178.5080  138.6180 C   0  0  0  0  0  0  0  0  0  0  0  0
  184.0730  178.3360  140.0240 C   0  0  0  0  0  3  0  0  0  0  0  0
  188.6020  178.5650  139.6170 Cl  0  0  0  0  0  0  0  0  0  0  0  0
  186.8550  178.4800  139.7570 C   0  0  0  0  0  0  0  0  0  0  0  0
  186.5980  178.6070  137.3490 O   0  0  0  0  0  1  0  0  0  0  0  0
  184.6490  178.4380  138.7550 C   0  0  0  0  0  3  0  0  0  0  0  0
  1 21  1  6  0  0  0
  1 19  1  0  0  0  0
  1 20  1  0  0  0  0
  2  7  1  0  0  0  0
  4 12  1  0  0  0  0
  5 18  2  0  0  0  0
  6  9  2  0  0  0  0
  7  5  1  0  0  0  0
  7  4  2  0  0  0  0
  9  4  1  0  0  0  0
 10 15  1  1  0  0  0
 10 14  1  0  0  0  0
 11  5  1  0  0  0  0
 12  8  2  0  0  0  0
 13 15  1  0  0  0  0
 14  3  2  0  0  0  0
 16  6  1  0  0  0  0
 17  2  2  0  0  0  0
 17  6  1  0  0  0  0
 18 14  1  0  0  0  0
 18  8  1  0  0  0  0
 19 13  1  0  0  0  0
 20 11  1  6  0  0  0
 20 10  1  0  0  0  0
 22 21  1  0  0  0  0
 23 28  2  0  0  0  0
 23 26  1  0  0  0  0
 24 21  2  0  0  0  0
 25 26  1  0  0  0  0
 26 22  2  0  0  0  0
 27 23  1  0  0  0  0
 28 24  1  0  0  0  0
M  END
>  <MODEL>
5

>  <REMARK>
 VINA RESULT:     -10.9      2.750      5.115
  Name = 
  1 active torsions:
  status: ('A' for Active; 'I' for Inactive)
    1  A    between atoms: C_1  and  C_2
                            x       y       z     vdW  Elec       q    Type
                         _______ _______ _______ _____ _____    ______ ____

>  <TORSDO>
F 1

$$$$
=
 OpenBabel10262420563D

 28 32  0  0  1  0  0  0  0  0999 V2000
  190.6070  177.5020  144.5510 C   0  0  2  0  0  3  0  0  0  0  0  0
  185.7910  178.9000  143.1160 C   0  0  0  0  0  3  0  0  0  0  0  0
  187.8740  177.3630  148.6120 O   0  0  0  0  0  0  0  0  0  0  0  0
  184.4440  178.4460  145.0880 C   0  0  0  0  0  0  0  0  0  0  0  0
  186.8760  178.2610  145.2190 C   0  0  0  0  0  0  0  0  0  0  0  0
  183.3770  179.0730  143.0060 C   0  0  0  0  0  0  0  0  0  0  0  0
  185.7150  178.5370  144.4700 C   0  0  0  0  0  0  0  0  0  0  0  0
  185.4920  177.8250  147.1750 C   0  0  0  0  0  3  0  0  0  0  0  0
  183.2860  178.7130  144.3520 C   0  0  0  0  0  3  0  0  0  0  0  0
  189.3310  177.6650  146.7270 C   0  0  1  0  0  3  0  0  0  0  0  0
  188.2420  178.4040  144.6000 C   0  0  0  0  0  2  0  0  0  0  0  0
  184.3420  178.0920  146.4340 C   0  0  0  0  0  3  0  0  0  0  0  0
  191.6810  176.8240  146.7230 C   0  0  0  0  0  2  0  0  0  0  0  0
  187.9720  177.6040  147.3780 C   0  0  0  0  0  0  0  0  0  0  0  0
  190.3040  176.6710  147.3600 C   0  0  0  0  0  2  0  0  0  0  0  0
  182.2520  179.3310  142.2970 F   0  0  0  0  0  0  0  0  0  0  0  0
  184.6270  179.1670  142.3880 C   0  0  0  0  0  3  0  0  0  0  0  0
  186.7600  177.9090  146.5840 C   0  0  0  0  0  0  0  0  0  0  0  0
  191.6000  176.5500  145.2250 C   0  0  0  0  0  2  0  0  0  0  0  0
  189.2240  177.4070  145.2160 C   0  0  1  0  0  3  0  0  0  0  0  0
  190.5430  177.2140  143.0810 C   0  0  0  0  0  0  0  0  0  0  0  0
  191.6600  177.4100  142.2530 C   0  0  0  0  0  3  0  0  0  0  0  0
  190.3840  176.6470  140.3400 C   0  0  0  0  0  0  0  0  0  0  0  0
  189.3500  176.7360  142.5300 C   0  0  0  0  0  3  0  0  0  0  0  0
  192.9970  177.3780  139.8800 Cl  0  0  0  0  0  0  0  0  0  0  0  0
  191.5820  177.1270  140.8860 C   0  0  0  0  0  0  0  0  0  0  0  0
  190.2900  176.3610  138.9830 O   0  0  0  0  0  1  0  0  0  0  0  0
  189.2700  176.4540  141.1630 C   0  0  0  0  0  3  0  0  0  0  0  0
  1 21  1  6  0  0  0
  1 20  1  0  0  0  0
  1 19  1  0  0  0  0
  2  7  1  0  0  0  0
  4 12  1  0  0  0  0
  5 18  2  0  0  0  0
  6  9  2  0  0  0  0
  7  4  2  0  0  0  0
  7  5  1  0  0  0  0
  9  4  1  0  0  0  0
 10 15  1  1  0  0  0
 10 14  1  0  0  0  0
 11  5  1  0  0  0  0
 12  8  2  0  0  0  0
 13 15  1  0  0  0  0
 14  3  2  0  0  0  0
 16  6  1  0  0  0  0
 17  6  1  0  0  0  0
 17  2  2  0  0  0  0
 18  8  1  0  0  0  0
 18 14  1  0  0  0  0
 19 13  1  0  0  0  0
 20 11  1  6  0  0  0
 20 10  1  0  0  0  0
 22 21  2  0  0  0  0
 23 26  2  0  0  0  0
 23 28  1  0  0  0  0
 24 21  1  0  0  0  0
 25 26  1  0  0  0  0
 26 22  1  0  0  0  0
 27 23  1  0  0  0  0
 28 24  2  0  0  0  0
M  END
>  <MODEL>
6

>  <REMARK>
 VINA RESULT:     -10.9      3.052      6.112
  Name = 
  1 active torsions:
  status: ('A' for Active; 'I' for Inactive)
    1  A    between atoms: C_1  and  C_2
                            x       y       z     vdW  Elec       q    Type
                         _______ _______ _______ _____ _____    ______ ____

>  <TORSDO>
F 1

$$$$
=
 OpenBabel10262420563D

 28 32  0  0  1  0  0  0  0  0999 V2000
  186.9350  178.2800  144.9050 C   0  0  2  0  0  3  0  0  0  0  0  0
  187.2660  178.3270  139.6990 C   0  0  0  0  0  3  0  0  0  0  0  0
  182.3840  179.0110  143.2510 O   0  0  0  0  0  0  0  0  0  0  0  0
  184.9470  178.3180  138.9710 C   0  0  0  0  0  0  0  0  0  0  0  0
  185.4660  178.5880  141.3430 C   0  0  0  0  0  0  0  0  0  0  0  0
  186.7290  178.0550  137.3530 C   0  0  0  0  0  0  0  0  0  0  0  0
  185.9000  178.4130  140.0140 C   0  0  0  0  0  0  0  0  0  0  0  0
  183.1560  178.5850  140.5720 C   0  0  0  0  0  3  0  0  0  0  0  0
  185.3670  178.1390  137.6500 C   0  0  0  0  0  3  0  0  0  0  0  0
  184.6140  178.9240  144.1390 C   0  0  1  0  0  3  0  0  0  0  0  0
  186.4620  178.7470  142.4620 C   0  0  0  0  0  2  0  0  0  0  0  0
  183.5840  178.4050  139.2580 C   0  0  0  0  0  3  0  0  0  0  0  0
  185.0580  178.5260  146.5620 C   0  0  0  0  0  2  0  0  0  0  0  0
  183.6130  178.8530  143.0130 C   0  0  0  0  0  0  0  0  0  0  0  0
  184.0410  178.3620  145.4390 C   0  0  0  0  0  2  0  0  0  0  0  0
  187.1320  177.8810  136.0710 F   0  0  0  0  0  0  0  0  0  0  0  0
  187.6780  178.1490  138.3750 C   0  0  0  0  0  3  0  0  0  0  0  0
  184.0830  178.6820  141.6190 C   0  0  0  0  0  0  0  0  0  0  0  0
  186.3400  177.7730  146.2230 C   0  0  0  0  0  2  0  0  0  0  0  0
  185.9050  178.1780  143.7670 C   0  0  1  0  0  3  0  0  0  0  0  0
  188.1930  177.5260  144.5910 C   0  0  0  0  0  0  0  0  0  0  0  0
  189.2860  177.5370  145.4720 C   0  0  0  0  0  3  0  0  0  0  0  0
  190.5190  176.0900  143.9720 C   0  0  0  0  0  0  0  0  0  0  0  0
  188.2730  176.7950  143.4010 C   0  0  0  0  0  3  0  0  0  0  0  0
  191.7930  176.8520  146.2890 Cl  0  0  0  0  0  0  0  0  0  0  0  0
  190.4460  176.8210  145.1650 C   0  0  0  0  0  0  0  0  0  0  0  0
  191.6660  175.3720  143.6510 O   0  0  0  0  0  1  0  0  0  0  0  0
  189.4320  176.0800  143.0920 C   0  0  0  0  0  3  0  0  0  0  0  0
  1 21  1  6  0  0  0
  1 19  1  0  0  0  0
  2  7  1  0  0  0  0
  4 12  2  0  0  0  0
  4  7  1  0  0  0  0
  5 18  1  0  0  0  0
  5 11  1  0  0  0  0
  6  9  2  0  0  0  0
  6 17  1  0  0  0  0
  7  5  2  0  0  0  0
  8 18  2  0  0  0  0
  9  4  1  0  0  0  0
 10 15  1  1  0  0  0
 12  8  1  0  0  0  0
 14  3  2  0  0  0  0
 14 10  1  0  0  0  0
 15 13  1  0  0  0  0
 16  6  1  0  0  0  0
 17  2  2  0  0  0  0
 18 14  1  0  0  0  0
 19 13  1  0  0  0  0
 20 11  1  6  0  0  0
 20 10  1  0  0  0  0
 20  1  1  0  0  0  0
 21 22  1  0  0  0  0
 23 26  1  0  0  0  0
 24 21  2  0  0  0  0
 26 22  2  0  0  0  0
 26 25  1  0  0  0  0
 27 23  1  0  0  0  0
 28 24  1  0  0  0  0
 28 23  2  0  0  0  0
M  END
>  <MODEL>
7

>  <REMARK>
 VINA RESULT:     -10.7      2.627      5.943
  Name = 
  1 active torsions:
  status: ('A' for Active; 'I' for Inactive)
    1  A    between atoms: C_1  and  C_2
                            x       y       z     vdW  Elec       q    Type
                         _______ _______ _______ _____ _____    ______ ____

>  <TORSDO>
F 1

$$$$
=
 OpenBabel10262420563D

 28 32  0  0  1  0  0  0  0  0999 V2000
  187.3210  177.2810  144.7690 C   0  0  2  0  0  3  0  0  0  0  0  0
  187.5620  177.4760  139.5620 C   0  0  0  0  0  3  0  0  0  0  0  0
  192.0670  176.9660  143.6060 O   0  0  0  0  0  0  0  0  0  0  0  0
  189.9390  177.6900  139.1000 C   0  0  0  0  0  0  0  0  0  0  0  0
  189.1880  177.2620  141.3840 C   0  0  0  0  0  0  0  0  0  0  0  0
  188.3280  177.9050  137.3040 C   0  0  0  0  0  0  0  0  0  0  0  0
  188.8880  177.4730  140.0240 C   0  0  0  0  0  0  0  0  0  0  0  0
  191.5610  177.4710  140.8780 C   0  0  0  0  0  3  0  0  0  0  0  0
  189.6520  177.9050  137.7490 C   0  0  0  0  0  3  0  0  0  0  0  0
  189.7550  176.8460  144.2410 C   0  0  1  0  0  3  0  0  0  0  0  0
  188.0910  176.9740  142.3770 C   0  0  0  0  0  2  0  0  0  0  0  0
  191.2650  177.6860  139.5330 C   0  0  0  0  0  3  0  0  0  0  0  0
  189.0200  177.0870  146.6140 C   0  0  0  0  0  2  0  0  0  0  0  0
  190.8630  177.0470  143.2390 C   0  0  0  0  0  0  0  0  0  0  0  0
  190.1380  177.3810  145.6200 C   0  0  0  0  0  2  0  0  0  0  0  0
  188.0540  178.1150  135.9940 F   0  0  0  0  0  0  0  0  0  0  0  0
  187.2840  177.6910  138.2090 C   0  0  0  0  0  3  0  0  0  0  0  0
  190.5360  177.2540  141.8090 C   0  0  0  0  0  0  0  0  0  0  0  0
  187.7280  177.7610  146.1660 C   0  0  0  0  0  2  0  0  0  0  0  0
  188.4570  177.5150  143.7600 C   0  0  1  0  0  3  0  0  0  0  0  0
  186.0500  177.9570  144.3490 C   0  0  0  0  0  0  0  0  0  0  0  0
  185.6850  178.0430  142.9960 C   0  0  0  0  0  3  0  0  0  0  0  0
  183.6560  179.2150  143.6100 C   0  0  0  0  0  0  0  0  0  0  0  0
  185.2120  178.5030  145.3260 C   0  0  0  0  0  3  0  0  0  0  0  0
  184.0630  178.7580  140.9270 Cl  0  0  0  0  0  0  0  0  0  0  0  0
  184.4920  178.6700  142.6260 C   0  0  0  0  0  0  0  0  0  0  0  0
  182.4660  179.8410  143.2600 O   0  0  0  0  0  1  0  0  0  0  0  0
  184.0190  179.1310  144.9580 C   0  0  0  0  0  3  0  0  0  0  0  0
  1 21  1  6  0  0  0
  1 19  1  0  0  0  0
  2  7  1  0  0  0  0
  4 12  2  0  0  0  0
  4  7  1  0  0  0  0
  5 18  1  0  0  0  0
  5 11  1  0  0  0  0
  6  9  2  0  0  0  0
  6 17  1  0  0  0  0
  7  5  2  0  0  0  0
  8 18  2  0  0  0  0
  9  4  1  0  0  0  0
 10 15  1  1  0  0  0
 12  8  1  0  0  0  0
 14  3  2  0  0  0  0
 14 10  1  0  0  0  0
 15 13  1  0  0  0  0
 16  6  1  0  0  0  0
 17  2  2  0  0  0  0
 18 14  1  0  0  0  0
 19 13  1  0  0  0  0
 20 11  1  6  0  0  0
 20 10  1  0  0  0  0
 20  1  1  0  0  0  0
 21 24  1  0  0  0  0
 22 21  2  0  0  0  0
 23 28  1  0  0  0  0
 25 26  1  0  0  0  0
 26 22  1  0  0  0  0
 26 23  2  0  0  0  0
 27 23  1  0  0  0  0
 28 24  2  0  0  0  0
M  END
>  <MODEL>
8

>  <REMARK>
 VINA RESULT:     -10.5      1.162      1.845
  Name = 
  1 active torsions:
  status: ('A' for Active; 'I' for Inactive)
    1  A    between atoms: C_1  and  C_2
                            x       y       z     vdW  Elec       q    Type
                         _______ _______ _______ _____ _____    ______ ____

>  <TORSDO>
F 1

$$$$
=
 OpenBabel10262420563D

 28 32  0  0  1  0  0  0  0  0999 V2000
  185.5960  178.7240  138.7930 C   0  0  2  0  0  3  0  0  0  0  0  0
  184.9240  178.8090  143.9650 C   0  0  0  0  0  3  0  0  0  0  0  0
  189.8240  177.2120  140.7460 O   0  0  0  0  0  0  0  0  0  0  0  0
  186.9110  177.7030  144.8250 C   0  0  0  0  0  0  0  0  0  0  0  0
  186.7610  178.2350  142.4450 C   0  0  0  0  0  0  0  0  0  0  0  0
  185.0910  178.2680  146.3200 C   0  0  0  0  0  0  0  0  0  0  0  0
  186.1940  178.2550  143.7350 C   0  0  0  0  0  0  0  0  0  0  0  0
  188.7390  177.1390  143.3480 C   0  0  0  0  0  3  0  0  0  0  0  0
  186.3550  177.7140  146.1070 C   0  0  0  0  0  3  0  0  0  0  0  0
  187.8840  178.1950  139.7270 C   0  0  1  0  0  3  0  0  0  0  0  0
  186.0420  178.8650  141.2800 C   0  0  0  0  0  2  0  0  0  0  0  0
  188.1760  177.1510  144.6240 C   0  0  0  0  0  3  0  0  0  0  0  0
  187.4950  178.1010  137.2630 C   0  0  0  0  0  2  0  0  0  0  0  0
  188.6480  177.6410  140.9030 C   0  0  0  0  0  0  0  0  0  0  0  0
  188.2300  177.4580  138.4330 C   0  0  0  0  0  2  0  0  0  0  0  0
  184.5560  178.2760  147.5640 F   0  0  0  0  0  0  0  0  0  0  0  0
  184.3760  178.8160  145.2510 C   0  0  0  0  0  3  0  0  0  0  0  0
  188.0470  177.6790  142.2560 C   0  0  0  0  0  0  0  0  0  0  0  0
  185.9880  178.0270  137.4860 C   0  0  0  0  0  2  0  0  0  0  0  0
  186.3700  178.1290  139.9810 C   0  0  1  0  0  3  0  0  0  0  0  0
  184.1120  178.6390  138.9900 C   0  0  0  0  0  0  0  0  0  0  0  0
  183.4740  177.4020  139.1780 C   0  0  0  0  0  3  0  0  0  0  0  0
  181.3370  178.5270  139.3720 C   0  0  0  0  0  0  0  0  0  0  0  0
  183.3550  179.8140  138.9930 C   0  0  0  0  0  3  0  0  0  0  0  0
  181.3240  175.7850  139.6040 Cl  0  0  0  0  0  0  0  0  0  0  0  0
  182.0910  177.3450  139.3690 C   0  0  0  0  0  0  0  0  0  0  0  0
  179.9600  178.4870  139.5620 O   0  0  0  0  0  1  0  0  0  0  0  0
  181.9710  179.7580  139.1830 C   0  0  0  0  0  3  0  0  0  0  0  0
  1 21  1  1  0  0  0
  1 20  1  0  0  0  0
  2 17  1  0  0  0  0
  3 14  2  0  0  0  0
  4  9  2  0  0  0  0
  5  7  1  0  0  0  0
  6 16  1  0  0  0  0
  7  2  2  0  0  0  0
  7  4  1  0  0  0  0
  8 12  2  0  0  0  0
  9  6  1  0  0  0  0
 10 15  1  6  0  0  0
 10 20  1  0  0  0  0
 10 14  1  0  0  0  0
 11  5  1  0  0  0  0
 12  4  1  0  0  0  0
 13 19  1  0  0  0  0
 13 15  1  0  0  0  0
 14 18  1  0  0  0  0
 17  6  2  0  0  0  0
 18  5  2  0  0  0  0
 18  8  1  0  0  0  0
 19  1  1  0  0  0  0
 20 11  1  1  0  0  0
 21 24  2  0  0  0  0
 21 22  1  0  0  0  0
 22 26  2  0  0  0  0
 23 27  1  0  0  0  0
 24 28  1  0  0  0  0
 26 23  1  0  0  0  0
 26 25  1  0  0  0  0
 28 23  2  0  0  0  0
M  END
>  <MODEL>
9

>  <REMARK>
 VINA RESULT:     -10.5      3.755      6.569
  Name = 
  1 active torsions:
  status: ('A' for Active; 'I' for Inactive)
    1  A    between atoms: C_1  and  C_2
                            x       y       z     vdW  Elec       q    Type
                         _______ _______ _______ _____ _____    ______ ____

>  <TORSDO>
F 1

$$$$
