=
 OpenBabel10262421323D

 32 36  0  0  1  0  0  0  0  0999 V2000
  186.5200  178.3170  140.9700 C   0  0  1  0  0  3  0  0  0  0  0  0
  185.2410  178.7760  145.7710 C   0  0  0  0  0  3  0  0  0  0  0  0
  183.8910  178.6630  145.4320 C   0  0  0  0  0  3  0  0  0  0  0  0
  184.6980  178.7450  139.1920 C   0  0  1  0  0  3  0  0  0  0  0  0
  183.7910  177.6240  138.9240 N   0  0  0  0  0  0  0  0  0  0  0  0
  184.8560  177.3730  136.6150 C   0  0  0  0  0  1  0  0  0  0  0  0
  186.2190  178.7310  144.7740 C   0  0  0  0  0  3  0  0  0  0  0  0
  186.8790  178.4950  142.3920 N   0  0  0  0  0  0  0  0  0  0  0  0
  184.4930  178.4800  143.0880 C   0  0  0  0  0  0  0  0  0  0  0  0
  184.1270  178.3210  141.6750 C   0  0  0  0  0  0  0  0  0  0  0  0
  183.1170  175.9710  137.3910 O   0  0  0  0  0  0  0  0  0  0  0  0
  183.8700  176.9470  137.6520 C   0  0  0  0  0  0  0  0  0  0  0  0
  183.5180  178.5120  144.0950 C   0  0  0  0  0  3  0  0  0  0  0  0
  185.8610  178.5820  143.4230 C   0  0  0  0  0  0  0  0  0  0  0  0
  183.0470  177.6230  141.3170 C   0  0  0  0  0  3  0  0  0  0  0  0
  184.0510  180.0480  138.7600 C   0  0  0  0  0  1  0  0  0  0  0  0
  181.7160  176.6570  139.5990 N   0  0  0  0  0  2  0  0  0  0  0  0
  185.1140  178.8480  140.6710 C   0  0  1  0  0  3  0  0  0  0  0  0
  182.7940  177.2960  139.9140 C   0  0  0  0  0  0  0  0  0  0  0  0
  188.1910  178.3130  139.0110 C   0  0  0  0  0  0  0  0  0  0  0  0
  189.0050  178.9750  138.3180 O   0  0  0  0  0  0  0  0  0  0  0  0
  187.9510  176.8800  138.6760 C   0  0  0  0  0  1  0  0  0  0  0  0
  187.5110  178.9550  140.0990 N   0  0  0  0  0  2  0  0  0  0  0  0
  188.2700  178.2550  142.7720 C   0  0  0  0  0  2  0  0  0  0  0  0
  188.6300  176.7980  142.5470 C   0  0  0  0  0  2  0  0  0  0  0  0
  188.9350  176.1710  143.8210 N   0  0  0  0  0  2  0  0  0  0  0  0
  189.1560  177.7680  146.7560 C   0  0  1  0  0  3  0  0  0  0  0  0
  189.5610  177.1880  144.6470 C   0  0  2  0  0  3  0  0  0  0  0  0
  191.3040  176.8170  144.8340 S   0  0  0  0  0  0  0  0  0  0  0  0
  188.1520  177.1760  147.7250 C   0  0  0  0  0  1  0  0  0  0  0  0
  190.5050  177.3730  147.1560 C   0  0  0  0  0  2  0  0  0  0  0  0
  189.8450  176.6240  145.9860 C   0  0  1  0  0  0  0  0  0  0  0  0
  1 23  1  6  0  0  0
  1  8  1  0  0  0  0
  3  2  1  0  0  0  0
  4 16  1  1  0  0  0
  4 18  1  0  0  0  0
  5  4  1  0  0  0  0
  5 19  1  0  0  0  0
  6 12  1  0  0  0  0
  7  2  2  0  0  0  0
  8 24  1  0  0  0  0
  8 14  1  0  0  0  0
  9 14  2  0  0  0  0
  9 13  1  0  0  0  0
 10  9  1  0  0  0  0
 11 12  2  0  0  0  0
 12  5  1  0  0  0  0
 13  3  2  0  0  0  0
 14  7  1  0  0  0  0
 15 10  2  0  0  0  0
 17 19  2  0  0  0  0
 18  1  1  0  0  0  0
 18 10  1  1  0  0  0
 19 15  1  0  0  0  0
 20 23  1  0  0  0  0
 21 20  2  0  0  0  0
 22 20  1  0  0  0  0
 25 24  1  0  0  0  0
 25 26  1  0  0  0  0
 27 31  1  0  0  0  0
 27 30  1  1  0  0  0
 28 26  1  6  0  0  0
 28 29  1  0  0  0  0
 28 32  1  0  0  0  0
 29 32  1  0  0  0  0
 32 27  1  0  0  0  0
 32 31  1  1  0  0  0
M  END
>  <MODEL>
1

>  <REMARK>
 VINA RESULT:      -8.0      0.000      0.000
  Name = 
  5 active torsions:
  status: ('A' for Active; 'I' for Inactive)
    1  A    between atoms: C_2  and  N_12
    2  A    between atoms: C_3  and  N_28
    3  A    between atoms: C_9  and  N_14
    4  A    between atoms: C_9  and  C_21
    5  A    between atoms: N_12  and  C_21
                            x       y       z     vdW  Elec       q    Type
                         _______ _______ _______ _____ _____    ______ ____

>  <TORSDO>
F 5

$$$$
=
 OpenBabel10262421323D

 32 36  0  0  1  0  0  0  0  0999 V2000
  185.0870  178.4960  140.1660 C   0  0  1  0  0  3  0  0  0  0  0  0
  184.8480  179.1030  145.1130 C   0  0  0  0  0  3  0  0  0  0  0  0
  183.4560  179.0090  145.0670 C   0  0  0  0  0  3  0  0  0  0  0  0
  182.9400  178.9170  138.7970 C   0  0  1  0  0  3  0  0  0  0  0  0
  181.9800  177.8080  138.7570 N   0  0  0  0  0  0  0  0  0  0  0  0
  182.5350  177.4770  136.2840 C   0  0  0  0  0  1  0  0  0  0  0  0
  185.5950  179.0130  143.9360 C   0  0  0  0  0  3  0  0  0  0  0  0
  185.7390  178.7030  141.4760 N   0  0  0  0  0  0  0  0  0  0  0  0
  183.5510  178.7550  142.6550 C   0  0  0  0  0  0  0  0  0  0  0  0
  182.8960  178.5670  141.3550 C   0  0  0  0  0  0  0  0  0  0  0  0
  180.9760  176.1310  137.4470 O   0  0  0  0  0  0  0  0  0  0  0  0
  181.7820  177.0970  137.5160 C   0  0  0  0  0  0  0  0  0  0  0  0
  182.8090  178.8320  143.8420 C   0  0  0  0  0  3  0  0  0  0  0  0
  184.9600  178.8370  142.6940 C   0  0  0  0  0  0  0  0  0  0  0  0
  181.7540  177.8820  141.2510 C   0  0  0  0  0  3  0  0  0  0  0  0
  182.2360  180.2220  138.4710 C   0  0  0  0  0  1  0  0  0  0  0  0
  180.0790  176.9010  139.8770 N   0  0  0  0  0  2  0  0  0  0  0  0
  183.6580  179.0480  140.1520 C   0  0  1  0  0  3  0  0  0  0  0  0
  181.2090  177.5260  139.9420 C   0  0  0  0  0  0  0  0  0  0  0  0
  186.2960  178.4140  137.8940 C   0  0  0  0  0  0  0  0  0  0  0  0
  186.9580  179.0410  137.0290 O   0  0  0  0  0  0  0  0  0  0  0  0
  185.9530  176.9840  137.6490 C   0  0  0  0  0  1  0  0  0  0  0  0
  185.8830  179.0920  139.0890 N   0  0  0  0  0  2  0  0  0  0  0  0
  187.1750  178.4440  141.5630 C   0  0  0  0  0  2  0  0  0  0  0  0
  187.4390  177.2570  142.4700 C   0  0  0  0  0  2  0  0  0  0  0  0
  188.8190  176.8290  142.3220 N   0  0  0  0  0  2  0  0  0  0  0  0
  189.2380  177.9820  145.4370 C   0  0  1  0  0  3  0  0  0  0  0  0
  189.5990  177.5960  143.2770 C   0  0  2  0  0  3  0  0  0  0  0  0
  191.2290  176.8710  143.4340 S   0  0  0  0  0  0  0  0  0  0  0  0
  188.1050  177.4840  146.3130 C   0  0  0  0  0  1  0  0  0  0  0  0
  190.4700  177.2850  145.7990 C   0  0  0  0  0  2  0  0  0  0  0  0
  189.7210  176.8280  144.5370 C   0  0  1  0  0  0  0  0  0  0  0  0
  1 23  1  6  0  0  0
  1  8  1  0  0  0  0
  3  2  1  0  0  0  0
  4 16  1  1  0  0  0
  4 18  1  0  0  0  0
  5  4  1  0  0  0  0
  5 19  1  0  0  0  0
  6 12  1  0  0  0  0
  7  2  2  0  0  0  0
  8 24  1  0  0  0  0
  8 14  1  0  0  0  0
  9 14  2  0  0  0  0
  9 13  1  0  0  0  0
 10  9  1  0  0  0  0
 11 12  2  0  0  0  0
 12  5  1  0  0  0  0
 13  3  2  0  0  0  0
 14  7  1  0  0  0  0
 15 10  2  0  0  0  0
 17 19  2  0  0  0  0
 18  1  1  0  0  0  0
 18 10  1  1  0  0  0
 19 15  1  0  0  0  0
 20 23  1  0  0  0  0
 21 20  2  0  0  0  0
 22 20  1  0  0  0  0
 24 25  1  0  0  0  0
 26 25  1  0  0  0  0
 27 31  1  0  0  0  0
 27 30  1  1  0  0  0
 28 26  1  6  0  0  0
 28 29  1  0  0  0  0
 28 32  1  0  0  0  0
 29 32  1  0  0  0  0
 32 27  1  0  0  0  0
 32 31  1  1  0  0  0
M  END
>  <MODEL>
2

>  <REMARK>
 VINA RESULT:      -7.7      1.446      1.626
  Name = 
  5 active torsions:
  status: ('A' for Active; 'I' for Inactive)
    1  A    between atoms: C_2  and  N_12
    2  A    between atoms: C_3  and  N_28
    3  A    between atoms: C_9  and  N_14
    4  A    between atoms: C_9  and  C_21
    5  A    between atoms: N_12  and  C_21
                            x       y       z     vdW  Elec       q    Type
                         _______ _______ _______ _____ _____    ______ ____

>  <TORSDO>
F 5

$$$$
=
 OpenBabel10262421323D

 32 36  0  0  1  0  0  0  0  0999 V2000
  188.9950  177.3020  139.9620 C   0  0  1  0  0  3  0  0  0  0  0  0
  185.4840  178.5590  143.2780 C   0  0  0  0  0  3  0  0  0  0  0  0
  184.6360  178.9550  142.2420 C   0  0  0  0  0  3  0  0  0  0  0  0
  188.8060  178.2780  137.5800 C   0  0  1  0  0  3  0  0  0  0  0  0
  187.8840  177.5810  136.6750 N   0  0  0  0  0  0  0  0  0  0  0  0
  189.8960  176.7740  135.3220 C   0  0  0  0  0  1  0  0  0  0  0  0
  186.7600  178.0680  142.9870 C   0  0  0  0  0  3  0  0  0  0  0  0
  188.5170  177.4270  141.3550 N   0  0  0  0  0  0  0  0  0  0  0  0
  186.3470  178.3880  140.6180 C   0  0  0  0  0  0  0  0  0  0  0  0
  186.8210  178.2850  139.2330 C   0  0  0  0  0  0  0  0  0  0  0  0
  187.6640  176.2160  134.7710 O   0  0  0  0  0  0  0  0  0  0  0  0
  188.4240  176.8380  135.5610 C   0  0  0  0  0  0  0  0  0  0  0  0
  185.0640  178.8670  140.9160 C   0  0  0  0  0  3  0  0  0  0  0  0
  187.2080  177.9750  141.6580 C   0  0  0  0  0  0  0  0  0  0  0  0
  185.9740  178.0370  138.2310 C   0  0  0  0  0  3  0  0  0  0  0  0
  189.0360  179.6960  137.0900 C   0  0  0  0  0  1  0  0  0  0  0  0
  185.6170  177.5460  135.9320 N   0  0  0  0  0  2  0  0  0  0  0  0
  188.3110  178.3150  139.0370 C   0  0  1  0  0  3  0  0  0  0  0  0
  186.4660  177.7360  136.8870 C   0  0  0  0  0  0  0  0  0  0  0  0
  191.3330  176.5870  139.1550 C   0  0  0  0  0  0  0  0  0  0  0  0
  192.5670  176.8240  139.1570 O   0  0  0  0  0  0  0  0  0  0  0  0
  190.8190  175.4250  138.3740 C   0  0  0  0  0  1  0  0  0  0  0  0
  190.4520  177.4430  139.8960 N   0  0  0  0  0  2  0  0  0  0  0  0
  189.2480  176.6920  142.3860 C   0  0  0  0  0  2  0  0  0  0  0  0
  190.1200  177.6410  143.1870 C   0  0  0  0  0  2  0  0  0  0  0  0
  190.9360  176.8830  144.1180 N   0  0  0  0  0  2  0  0  0  0  0  0
  188.9770  177.9700  146.6070 C   0  0  1  0  0  3  0  0  0  0  0  0
  190.8000  177.5270  145.4130 C   0  0  2  0  0  3  0  0  0  0  0  0
  191.6670  176.5670  146.6510 S   0  0  0  0  0  0  0  0  0  0  0  0
  187.5300  177.6500  146.2820 C   0  0  0  0  0  1  0  0  0  0  0  0
  189.4340  177.0970  147.6860 C   0  0  0  0  0  2  0  0  0  0  0  0
  189.8520  176.7530  146.2470 C   0  0  1  0  0  0  0  0  0  0  0  0
  1 23  1  1  0  0  0
  1  8  1  0  0  0  0
  3  2  2  0  0  0  0
  4 16  1  6  0  0  0
  4 18  1  0  0  0  0
  5 19  1  0  0  0  0
  5  4  1  0  0  0  0
  6 12  1  0  0  0  0
  7  2  1  0  0  0  0
  8 14  1  0  0  0  0
  8 24  1  0  0  0  0
  9 13  2  0  0  0  0
  9 14  1  0  0  0  0
 10  9  1  0  0  0  0
 11 12  2  0  0  0  0
 12  5  1  0  0  0  0
 13  3  1  0  0  0  0
 14  7  2  0  0  0  0
 15 10  2  0  0  0  0
 17 19  2  0  0  0  0
 18 10  1  6  0  0  0
 18  1  1  0  0  0  0
 19 15  1  0  0  0  0
 20 21  2  0  0  0  0
 20 23  1  0  0  0  0
 22 20  1  0  0  0  0
 24 25  1  0  0  0  0
 25 26  1  0  0  0  0
 27 30  1  6  0  0  0
 27 31  1  0  0  0  0
 28 26  1  6  0  0  0
 28 32  1  0  0  0  0
 28 29  1  0  0  0  0
 32 27  1  0  0  0  0
 32 29  1  0  0  0  0
 32 31  1  6  0  0  0
M  END
>  <MODEL>
3

>  <REMARK>
 VINA RESULT:      -7.3      2.317      3.455
  Name = 
  5 active torsions:
  status: ('A' for Active; 'I' for Inactive)
    1  A    between atoms: C_2  and  N_12
    2  A    between atoms: C_3  and  N_28
    3  A    between atoms: C_9  and  N_14
    4  A    between atoms: C_9  and  C_21
    5  A    between atoms: N_12  and  C_21
                            x       y       z     vdW  Elec       q    Type
                         _______ _______ _______ _____ _____    ______ ____

>  <TORSDO>
F 5

$$$$
=
 OpenBabel10262421323D

 32 36  0  0  1  0  0  0  0  0999 V2000
  185.3430  177.5940  138.5330 C   0  0  1  0  0  3  0  0  0  0  0  0
  180.8370  177.8720  140.6600 C   0  0  0  0  0  3  0  0  0  0  0  0
  180.4670  176.6700  140.0530 C   0  0  0  0  0  3  0  0  0  0  0  0
  185.6210  176.0250  136.5020 C   0  0  1  0  0  3  0  0  0  0  0  0
  185.8220  174.6060  136.8140 N   0  0  0  0  0  0  0  0  0  0  0  0
  188.2270  174.8100  135.9730 C   0  0  0  0  0  1  0  0  0  0  0  0
  182.1090  178.4050  140.4360 C   0  0  0  0  0  3  0  0  0  0  0  0
  184.3600  178.2820  139.3960 N   0  0  0  0  0  0  0  0  0  0  0  0
  182.6380  176.5400  138.9780 C   0  0  0  0  0  0  0  0  0  0  0  0
  183.6020  175.8590  138.1050 C   0  0  0  0  0  0  0  0  0  0  0  0
  187.3240  172.7940  136.8210 O   0  0  0  0  0  0  0  0  0  0  0  0
  187.1100  174.0070  136.5530 C   0  0  0  0  0  0  0  0  0  0  0  0
  181.3650  176.0040  139.2180 C   0  0  0  0  0  3  0  0  0  0  0  0
  183.0250  177.7490  139.5960 C   0  0  0  0  0  0  0  0  0  0  0  0
  183.6160  174.5280  138.0000 C   0  0  0  0  0  3  0  0  0  0  0  0
  185.1040  176.1730  135.0820 C   0  0  0  0  0  1  0  0  0  0  0  0
  184.6550  172.5560  137.1710 N   0  0  0  0  0  2  0  0  0  0  0  0
  184.6540  176.7270  137.4730 C   0  0  1  0  0  3  0  0  0  0  0  0
  184.6970  173.8410  137.2920 C   0  0  0  0  0  0  0  0  0  0  0  0
  187.6820  178.4930  137.9450 C   0  0  0  0  0  0  0  0  0  0  0  0
  188.3550  179.3690  137.3440 O   0  0  0  0  0  0  0  0  0  0  0  0
  188.3950  177.4070  138.6770 C   0  0  0  0  0  1  0  0  0  0  0  0
  186.2500  178.5580  137.9040 N   0  0  0  0  0  2  0  0  0  0  0  0
  184.8630  179.3220  140.2920 C   0  0  0  0  0  2  0  0  0  0  0  0
  185.5950  178.6950  141.4640 C   0  0  0  0  0  2  0  0  0  0  0  0
  185.3060  179.4430  142.6740 N   0  0  0  0  0  2  0  0  0  0  0  0
  186.0740  177.6800  145.4160 C   0  0  1  0  0  3  0  0  0  0  0  0
  184.9240  178.4720  143.6840 C   0  0  2  0  0  3  0  0  0  0  0  0
  183.5110  179.0850  144.5980 S   0  0  0  0  0  0  0  0  0  0  0  0
  187.4760  178.0390  145.8660 C   0  0  0  0  0  1  0  0  0  0  0  0
  185.1050  178.2420  146.3550 C   0  0  0  0  0  2  0  0  0  0  0  0
  185.3280  178.9700  145.0190 C   0  0  1  0  0  0  0  0  0  0  0  0
  1 23  1  6  0  0  0
  1  8  1  0  0  0  0
  3  2  2  0  0  0  0
  4 16  1  6  0  0  0
  4  5  1  0  0  0  0
  4 18  1  0  0  0  0
  5 19  1  0  0  0  0
  6 12  1  0  0  0  0
  7  2  1  0  0  0  0
  8 14  1  0  0  0  0
  8 24  1  0  0  0  0
  9 13  2  0  0  0  0
  9 14  1  0  0  0  0
 10  9  1  0  0  0  0
 12  5  1  0  0  0  0
 12 11  2  0  0  0  0
 13  3  1  0  0  0  0
 14  7  2  0  0  0  0
 15 10  2  0  0  0  0
 17 19  2  0  0  0  0
 18 10  1  1  0  0  0
 18  1  1  0  0  0  0
 19 15  1  0  0  0  0
 20 22  1  0  0  0  0
 21 20  2  0  0  0  0
 23 20  1  0  0  0  0
 24 25  1  0  0  0  0
 25 26  1  0  0  0  0
 27 30  1  1  0  0  0
 27 31  1  0  0  0  0
 28 26  1  6  0  0  0
 28 29  1  0  0  0  0
 28 32  1  0  0  0  0
 29 32  1  0  0  0  0
 32 27  1  0  0  0  0
 32 31  1  1  0  0  0
M  END
>  <MODEL>
4

>  <REMARK>
 VINA RESULT:      -7.0      2.706      4.684
  Name = 
  5 active torsions:
  status: ('A' for Active; 'I' for Inactive)
    1  A    between atoms: C_2  and  N_12
    2  A    between atoms: C_3  and  N_28
    3  A    between atoms: C_9  and  N_14
    4  A    between atoms: C_9  and  C_21
    5  A    between atoms: N_12  and  C_21
                            x       y       z     vdW  Elec       q    Type
                         _______ _______ _______ _____ _____    ______ ____

>  <TORSDO>
F 5

$$$$
=
 OpenBabel10262421323D

 32 36  0  0  1  0  0  0  0  0999 V2000
  188.5820  177.7900  139.9760 C   0  0  1  0  0  3  0  0  0  0  0  0
  184.1810  179.2780  141.7970 C   0  0  0  0  0  3  0  0  0  0  0  0
  183.5900  179.0950  140.5450 C   0  0  0  0  0  3  0  0  0  0  0  0
  188.8980  177.8240  137.4150 C   0  0  1  0  0  3  0  0  0  0  0  0
  188.3540  176.6720  136.6880 N   0  0  0  0  0  0  0  0  0  0  0  0
  190.7430  175.9260  136.1710 C   0  0  0  0  0  1  0  0  0  0  0  0
  185.5420  179.0180  141.9740 C   0  0  0  0  0  3  0  0  0  0  0  0
  187.7400  178.2720  141.0910 N   0  0  0  0  0  0  0  0  0  0  0  0
  185.7320  178.4090  139.6330 C   0  0  0  0  0  0  0  0  0  0  0  0
  186.5660  177.9480  138.5160 C   0  0  0  0  0  0  0  0  0  0  0  0
  188.8340  174.7260  135.4550 O   0  0  0  0  0  0  0  0  0  0  0  0
  189.2650  175.7350  136.0750 C   0  0  0  0  0  0  0  0  0  0  0  0
  184.3620  178.6590  139.4670 C   0  0  0  0  0  3  0  0  0  0  0  0
  186.3350  178.5800  140.8980 C   0  0  0  0  0  0  0  0  0  0  0  0
  186.0560  177.1890  137.5430 C   0  0  0  0  0  3  0  0  0  0  0  0
  189.0540  179.0030  136.4710 C   0  0  0  0  0  1  0  0  0  0  0  0
  186.3920  175.8750  135.5890 N   0  0  0  0  0  2  0  0  0  0  0  0
  188.0350  178.2440  138.6190 C   0  0  1  0  0  3  0  0  0  0  0  0
  186.9230  176.5660  136.5430 C   0  0  0  0  0  0  0  0  0  0  0  0
  191.1240  177.3850  139.9930 C   0  0  0  0  0  0  0  0  0  0  0  0
  192.2700  177.8800  140.1430 O   0  0  0  0  0  0  0  0  0  0  0  0
  190.9990  175.9390  139.6530 C   0  0  0  0  0  1  0  0  0  0  0  0
  189.9710  178.2240  140.1470 N   0  0  0  0  0  2  0  0  0  0  0  0
  188.2650  178.1180  142.4470 C   0  0  0  0  0  2  0  0  0  0  0  0
  188.2490  176.6560  142.8530 C   0  0  0  0  0  2  0  0  0  0  0  0
  187.3290  176.4700  143.9610 N   0  0  0  0  0  2  0  0  0  0  0  0
  185.6860  178.8970  145.5790 C   0  0  1  0  0  3  0  0  0  0  0  0
  187.3580  177.6960  144.7390 C   0  0  2  0  0  3  0  0  0  0  0  0
  188.2390  177.4100  146.2720 S   0  0  0  0  0  0  0  0  0  0  0  0
  184.1950  178.6290  145.5050 C   0  0  0  0  0  1  0  0  0  0  0  0
  186.1540  178.6530  146.9410 C   0  0  0  0  0  2  0  0  0  0  0  0
  186.4200  177.5750  145.8780 C   0  0  1  0  0  0  0  0  0  0  0  0
  1 23  1  1  0  0  0
  1  8  1  0  0  0  0
  2  7  1  0  0  0  0
  3  2  2  0  0  0  0
  4 16  1  6  0  0  0
  4 18  1  0  0  0  0
  5  4  1  0  0  0  0
  8 24  1  0  0  0  0
  9 14  1  0  0  0  0
 10  9  1  0  0  0  0
 11 12  2  0  0  0  0
 12  6  1  0  0  0  0
 12  5  1  0  0  0  0
 13  9  2  0  0  0  0
 13  3  1  0  0  0  0
 14  8  1  0  0  0  0
 14  7  2  0  0  0  0
 15 10  2  0  0  0  0
 17 19  2  0  0  0  0
 18 10  1  6  0  0  0
 18  1  1  0  0  0  0
 19  5  1  0  0  0  0
 19 15  1  0  0  0  0
 20 21  2  0  0  0  0
 20 23  1  0  0  0  0
 22 20  1  0  0  0  0
 24 25  1  0  0  0  0
 25 26  1  0  0  0  0
 27 30  1  1  0  0  0
 27 32  1  0  0  0  0
 27 31  1  0  0  0  0
 28 26  1  6  0  0  0
 28 32  1  0  0  0  0
 28 29  1  0  0  0  0
 32 29  1  0  0  0  0
 32 31  1  1  0  0  0
M  END
>  <MODEL>
5

>  <REMARK>
 VINA RESULT:      -6.9      2.534      4.115
  Name = 
  5 active torsions:
  status: ('A' for Active; 'I' for Inactive)
    1  A    between atoms: C_2  and  N_12
    2  A    between atoms: C_3  and  N_28
    3  A    between atoms: C_9  and  N_14
    4  A    between atoms: C_9  and  C_21
    5  A    between atoms: N_12  and  C_21
                            x       y       z     vdW  Elec       q    Type
                         _______ _______ _______ _____ _____    ______ ____

>  <TORSDO>
F 5

$$$$
=
 OpenBabel10262421323D

 32 36  0  0  1  0  0  0  0  0999 V2000
  188.6710  177.5360  139.0380 C   0  0  1  0  0  3  0  0  0  0  0  0
  190.4500  178.1540  143.6590 C   0  0  0  0  0  3  0  0  0  0  0  0
  191.6550  177.5570  143.2860 C   0  0  0  0  0  3  0  0  0  0  0  0
  189.8460  175.8130  137.5170 C   0  0  1  0  0  3  0  0  0  0  0  0
  191.0660  176.2780  136.8470 N   0  0  0  0  0  0  0  0  0  0  0  0
  189.8160  176.2000  134.6190 C   0  0  0  0  0  1  0  0  0  0  0  0
  189.4170  178.2910  142.7270 C   0  0  0  0  0  3  0  0  0  0  0  0
  188.5160  178.0020  140.4320 N   0  0  0  0  0  0  0  0  0  0  0  0
  190.7910  177.2100  141.0440 C   0  0  0  0  0  0  0  0  0  0  0  0
  190.9460  176.7280  139.6660 C   0  0  0  0  0  0  0  0  0  0  0  0
  192.0730  176.8810  134.8080 O   0  0  0  0  0  0  0  0  0  0  0  0
  191.0490  176.4700  135.4160 C   0  0  0  0  0  0  0  0  0  0  0  0
  191.8270  177.0890  141.9810 C   0  0  0  0  0  3  0  0  0  0  0  0
  189.5730  177.8240  141.4100 C   0  0  0  0  0  0  0  0  0  0  0  0
  192.1390  176.7340  139.0650 C   0  0  0  0  0  3  0  0  0  0  0  0
  189.8390  174.2960  137.5820 C   0  0  0  0  0  1  0  0  0  0  0  0
  193.4340  176.4150  137.0960 N   0  0  0  0  0  2  0  0  0  0  0  0
  189.6790  176.3850  138.9360 C   0  0  1  0  0  3  0  0  0  0  0  0
  192.2610  176.4450  137.6360 C   0  0  0  0  0  0  0  0  0  0  0  0
  186.8240  177.6470  137.2480 C   0  0  0  0  0  0  0  0  0  0  0  0
  185.7120  177.2140  136.8530 O   0  0  0  0  0  0  0  0  0  0  0  0
  187.5390  178.6660  136.4280 C   0  0  0  0  0  1  0  0  0  0  0  0
  187.3780  177.1440  138.4720 N   0  0  0  0  0  2  0  0  0  0  0  0
  187.4200  178.9280  140.7140 C   0  0  0  0  0  2  0  0  0  0  0  0
  186.3450  178.2340  141.5290 C   0  0  0  0  0  2  0  0  0  0  0  0
  185.9050  179.1100  142.6000 N   0  0  0  0  0  2  0  0  0  0  0  0
  186.2940  177.5600  145.5420 C   0  0  1  0  0  3  0  0  0  0  0  0
  185.3680  178.2570  143.6440 C   0  0  2  0  0  3  0  0  0  0  0  0
  183.9160  179.0270  144.3570 S   0  0  0  0  0  0  0  0  0  0  0  0
  187.6670  177.8810  146.1000 C   0  0  0  0  0  1  0  0  0  0  0  0
  185.2790  178.2570  146.3290 C   0  0  0  0  0  2  0  0  0  0  0  0
  185.6740  178.8490  144.9660 C   0  0  1  0  0  0  0  0  0  0  0  0
  1 23  1  1  0  0  0
  1  8  1  0  0  0  0
  3  2  1  0  0  0  0
  4 16  1  1  0  0  0
  4 18  1  0  0  0  0
  5  4  1  0  0  0  0
  5 19  1  0  0  0  0
  6 12  1  0  0  0  0
  7  2  2  0  0  0  0
  8 24  1  0  0  0  0
  8 14  1  0  0  0  0
  9 14  2  0  0  0  0
  9 13  1  0  0  0  0
 10  9  1  0  0  0  0
 11 12  2  0  0  0  0
 12  5  1  0  0  0  0
 13  3  2  0  0  0  0
 14  7  1  0  0  0  0
 15 10  2  0  0  0  0
 17 19  2  0  0  0  0
 18  1  1  0  0  0  0
 18 10  1  6  0  0  0
 19 15  1  0  0  0  0
 20 23  1  0  0  0  0
 21 20  2  0  0  0  0
 22 20  1  0  0  0  0
 24 25  1  0  0  0  0
 25 26  1  0  0  0  0
 27 30  1  1  0  0  0
 27 31  1  0  0  0  0
 28 26  1  6  0  0  0
 28 29  1  0  0  0  0
 28 32  1  0  0  0  0
 29 32  1  0  0  0  0
 32 27  1  0  0  0  0
 32 31  1  1  0  0  0
M  END
>  <MODEL>
6

>  <REMARK>
 VINA RESULT:      -6.9      3.282      6.203
  Name = 
  5 active torsions:
  status: ('A' for Active; 'I' for Inactive)
    1  A    between atoms: C_2  and  N_12
    2  A    between atoms: C_3  and  N_28
    3  A    between atoms: C_9  and  N_14
    4  A    between atoms: C_9  and  C_21
    5  A    between atoms: N_12  and  C_21
                            x       y       z     vdW  Elec       q    Type
                         _______ _______ _______ _____ _____    ______ ____

>  <TORSDO>
F 5

$$$$
=
 OpenBabel10262421323D

 32 36  0  0  1  0  0  0  0  0999 V2000
  184.8370  178.3910  140.1250 C   0  0  1  0  0  3  0  0  0  0  0  0
  184.8790  178.7090  145.1050 C   0  0  0  0  0  3  0  0  0  0  0  0
  183.4930  178.8780  145.1150 C   0  0  0  0  0  3  0  0  0  0  0  0
  182.7630  179.2900  138.8790 C   0  0  1  0  0  3  0  0  0  0  0  0
  181.6110  178.3830  138.8170 N   0  0  0  0  0  0  0  0  0  0  0  0
  182.0130  178.1160  136.3080 C   0  0  0  0  0  1  0  0  0  0  0  0
  185.5570  178.5590  143.8920 C   0  0  0  0  0  3  0  0  0  0  0  0
  185.5580  178.3880  141.4150 N   0  0  0  0  0  0  0  0  0  0  0  0
  183.4590  178.7670  142.6910 C   0  0  0  0  0  0  0  0  0  0  0  0
  182.7380  178.7890  141.4120 C   0  0  0  0  0  0  0  0  0  0  0  0
  180.2680  177.0090  137.4590 O   0  0  0  0  0  0  0  0  0  0  0  0
  181.2430  177.8040  137.5480 C   0  0  0  0  0  0  0  0  0  0  0  0
  182.7840  178.9030  143.9120 C   0  0  0  0  0  3  0  0  0  0  0  0
  184.8590  178.5840  142.6720 C   0  0  0  0  0  0  0  0  0  0  0  0
  181.4850  178.3360  141.3200 C   0  0  0  0  0  3  0  0  0  0  0  0
  182.3060  180.7210  138.6610 C   0  0  0  0  0  1  0  0  0  0  0  0
  179.6120  177.7730  139.9670 N   0  0  0  0  0  2  0  0  0  0  0  0
  183.5370  179.1980  140.2070 C   0  0  1  0  0  3  0  0  0  0  0  0
  180.8400  178.1720  140.0180 C   0  0  0  0  0  0  0  0  0  0  0  0
  185.9770  178.2080  137.8240 C   0  0  0  0  0  0  0  0  0  0  0  0
  186.7120  178.7590  136.9650 O   0  0  0  0  0  0  0  0  0  0  0  0
  185.4160  176.8570  137.5400 C   0  0  0  0  0  1  0  0  0  0  0  0
  185.6950  178.8970  139.0500 N   0  0  0  0  0  2  0  0  0  0  0  0
  186.9220  177.8620  141.4230 C   0  0  0  0  0  2  0  0  0  0  0  0
  187.9230  179.0000  141.3490 C   0  0  0  0  0  2  0  0  0  0  0  0
  188.6860  178.8960  140.1180 N   0  0  0  0  0  2  0  0  0  0  0  0
  189.5120  176.3460  138.1110 C   0  0  1  0  0  3  0  0  0  0  0  0
  189.0230  177.4940  139.9520 C   0  0  2  0  0  3  0  0  0  0  0  0
  190.5210  177.1280  140.8640 S   0  0  0  0  0  0  0  0  0  0  0  0
  189.6020  176.8430  136.6810 C   0  0  0  0  0  1  0  0  0  0  0  0
  190.8550  176.0590  138.6090 C   0  0  0  0  0  2  0  0  0  0  0  0
  190.1850  177.3730  139.0420 C   0  0  1  0  0  0  0  0  0  0  0  0
  1 23  1  6  0  0  0
  1 18  1  0  0  0  0
  1  8  1  0  0  0  0
  2  3  1  0  0  0  0
  4 16  1  1  0  0  0
  4 18  1  0  0  0  0
  5  4  1  0  0  0  0
  5 19  1  0  0  0  0
  6 12  1  0  0  0  0
  7  2  2  0  0  0  0
  8 24  1  0  0  0  0
  8 14  1  0  0  0  0
  9 13  1  0  0  0  0
 10  9  1  0  0  0  0
 11 12  2  0  0  0  0
 12  5  1  0  0  0  0
 13  3  2  0  0  0  0
 14  9  2  0  0  0  0
 14  7  1  0  0  0  0
 15 10  2  0  0  0  0
 17 19  2  0  0  0  0
 18 10  1  1  0  0  0
 19 15  1  0  0  0  0
 20 23  1  0  0  0  0
 21 20  2  0  0  0  0
 22 20  1  0  0  0  0
 25 24  1  0  0  0  0
 26 25  1  0  0  0  0
 27 30  1  6  0  0  0
 27 31  1  0  0  0  0
 27 32  1  0  0  0  0
 28 26  1  1  0  0  0
 28 29  1  0  0  0  0
 32 31  1  6  0  0  0
 32 28  1  0  0  0  0
 32 29  1  0  0  0  0
M  END
>  <MODEL>
7

>  <REMARK>
 VINA RESULT:      -6.9      2.628      3.913
  Name = 
  5 active torsions:
  status: ('A' for Active; 'I' for Inactive)
    1  A    between atoms: C_2  and  N_12
    2  A    between atoms: C_3  and  N_28
    3  A    between atoms: C_9  and  N_14
    4  A    between atoms: C_9  and  C_21
    5  A    between atoms: N_12  and  C_21
                            x       y       z     vdW  Elec       q    Type
                         _______ _______ _______ _____ _____    ______ ____

>  <TORSDO>
F 5

$$$$
=
 OpenBabel10262421323D

 32 36  0  0  1  0  0  0  0  0999 V2000
  188.4400  177.4910  139.6710 C   0  0  1  0  0  3  0  0  0  0  0  0
  183.8170  179.3690  139.7050 C   0  0  0  0  0  3  0  0  0  0  0  0
  183.5400  178.7320  138.4940 C   0  0  0  0  0  3  0  0  0  0  0  0
  189.3710  176.6240  137.4250 C   0  0  1  0  0  3  0  0  0  0  0  0
  188.9570  175.2700  137.0410 N   0  0  0  0  0  0  0  0  0  0  0  0
  191.3550  174.4770  137.4260 C   0  0  0  0  0  1  0  0  0  0  0  0
  185.0790  179.2380  140.2910 C   0  0  0  0  0  3  0  0  0  0  0  0
  187.3800  178.3060  140.3000 N   0  0  0  0  0  0  0  0  0  0  0  0
  185.7980  177.8440  138.4400 C   0  0  0  0  0  0  0  0  0  0  0  0
  186.8510  177.0470  137.8000 C   0  0  0  0  0  0  0  0  0  0  0  0
  189.6150  173.0320  136.7330 O   0  0  0  0  0  0  0  0  0  0  0  0
  189.9370  174.2110  137.0430 C   0  0  0  0  0  0  0  0  0  0  0  0
  184.5250  177.9690  137.8650 C   0  0  0  0  0  3  0  0  0  0  0  0
  186.0830  178.4750  139.6700 C   0  0  0  0  0  0  0  0  0  0  0  0
  186.5520  175.9730  137.0640 C   0  0  0  0  0  3  0  0  0  0  0  0
  189.8160  177.3960  136.1950 C   0  0  0  0  0  1  0  0  0  0  0  0
  187.2800  174.0640  135.8470 N   0  0  0  0  0  2  0  0  0  0  0  0
  188.2660  177.4130  138.1500 C   0  0  1  0  0  3  0  0  0  0  0  0
  187.6000  175.0680  136.5950 C   0  0  0  0  0  0  0  0  0  0  0  0
  190.6630  177.4170  140.9670 C   0  0  0  0  0  0  0  0  0  0  0  0
  191.7900  177.9410  141.1580 O   0  0  0  0  0  0  0  0  0  0  0  0
  190.2940  176.1920  141.7320 C   0  0  0  0  0  1  0  0  0  0  0  0
  189.7680  178.0070  140.0140 N   0  0  0  0  0  2  0  0  0  0  0  0
  187.5510  178.6640  141.7070 C   0  0  0  0  0  2  0  0  0  0  0  0
  187.1650  177.4960  142.5950 C   0  0  0  0  0  2  0  0  0  0  0  0
  186.4510  177.9860  143.7600 N   0  0  0  0  0  2  0  0  0  0  0  0
  189.0250  177.0830  145.7020 C   0  0  1  0  0  3  0  0  0  0  0  0
  186.9560  177.2450  144.9020 C   0  0  2  0  0  3  0  0  0  0  0  0
  186.1710  177.8430  146.3970 S   0  0  0  0  0  0  0  0  0  0  0  0
  190.2910  177.7490  145.1980 C   0  0  0  0  0  1  0  0  0  0  0  0
  188.6200  177.7040  146.9610 C   0  0  0  0  0  2  0  0  0  0  0  0
  187.8750  178.1090  145.6780 C   0  0  1  0  0  0  0  0  0  0  0  0
  1 23  1  6  0  0  0
  1  8  1  0  0  0  0
  2  7  1  0  0  0  0
  3  2  2  0  0  0  0
  4 16  1  6  0  0  0
  4 18  1  0  0  0  0
  5 12  1  0  0  0  0
  5  4  1  0  0  0  0
  8 24  1  0  0  0  0
  9 14  1  0  0  0  0
 10  9  1  0  0  0  0
 11 12  2  0  0  0  0
 12  6  1  0  0  0  0
 13  9  2  0  0  0  0
 13  3  1  0  0  0  0
 14  7  2  0  0  0  0
 14  8  1  0  0  0  0
 15 10  2  0  0  0  0
 17 19  2  0  0  0  0
 18 10  1  1  0  0  0
 18  1  1  0  0  0  0
 19  5  1  0  0  0  0
 19 15  1  0  0  0  0
 20 21  2  0  0  0  0
 20 22  1  0  0  0  0
 23 20  1  0  0  0  0
 24 25  1  0  0  0  0
 25 26  1  0  0  0  0
 27 30  1  6  0  0  0
 27 31  1  0  0  0  0
 28 26  1  6  0  0  0
 28 32  1  0  0  0  0
 28 29  1  0  0  0  0
 32 27  1  0  0  0  0
 32 29  1  0  0  0  0
 32 31  1  6  0  0  0
M  END
>  <MODEL>
8

>  <REMARK>
 VINA RESULT:      -6.8      2.784      4.828
  Name = 
  5 active torsions:
  status: ('A' for Active; 'I' for Inactive)
    1  A    between atoms: C_2  and  N_12
    2  A    between atoms: C_3  and  N_28
    3  A    between atoms: C_9  and  N_14
    4  A    between atoms: C_9  and  C_21
    5  A    between atoms: N_12  and  C_21
                            x       y       z     vdW  Elec       q    Type
                         _______ _______ _______ _____ _____    ______ ____

>  <TORSDO>
F 5

$$$$
=
 OpenBabel10262421323D

 32 36  0  0  1  0  0  0  0  0999 V2000
  187.0580  178.1990  141.8350 C   0  0  1  0  0  3  0  0  0  0  0  0
  183.0640  178.9970  144.7190 C   0  0  0  0  0  3  0  0  0  0  0  0
  183.8100  178.6820  145.8560 C   0  0  0  0  0  3  0  0  0  0  0  0
  189.0030  176.8230  142.8270 C   0  0  1  0  0  3  0  0  0  0  0  0
  189.9330  177.5600  143.6890 N   0  0  0  0  0  0  0  0  0  0  0  0
  191.7290  177.3080  141.8890 C   0  0  0  0  0  1  0  0  0  0  0  0
  183.6590  178.9490  143.4550 C   0  0  0  0  0  3  0  0  0  0  0  0
  185.6360  178.5670  142.0020 N   0  0  0  0  0  0  0  0  0  0  0  0
  185.7520  178.2490  144.4650 C   0  0  0  0  0  0  0  0  0  0  0  0
  187.1590  177.8650  144.3050 C   0  0  0  0  0  0  0  0  0  0  0  0
  192.1010  178.4410  143.9320 O   0  0  0  0  0  0  0  0  0  0  0  0
  191.2780  177.8000  143.2250 C   0  0  0  0  0  0  0  0  0  0  0  0
  185.1510  178.3120  145.7300 C   0  0  0  0  0  3  0  0  0  0  0  0
  185.0070  178.5770  143.3100 C   0  0  0  0  0  0  0  0  0  0  0  0
  188.0610  178.1450  145.2490 C   0  0  0  0  0  3  0  0  0  0  0  0
  189.0860  175.3370  143.1290 C   0  0  0  0  0  1  0  0  0  0  0  0
  190.3310  178.1830  145.9580 N   0  0  0  0  0  2  0  0  0  0  0  0
  187.5430  177.2910  142.9700 C   0  0  1  0  0  3  0  0  0  0  0  0
  189.4900  177.9440  145.0070 C   0  0  0  0  0  0  0  0  0  0  0  0
  188.3280  177.9120  139.6150 C   0  0  0  0  0  0  0  0  0  0  0  0
  188.4330  177.2770  138.5340 O   0  0  0  0  0  0  0  0  0  0  0  0
  189.3000  179.0020  139.9120 C   0  0  0  0  0  1  0  0  0  0  0  0
  187.2820  177.5650  140.5330 N   0  0  0  0  0  2  0  0  0  0  0  0
  184.9750  179.2300  140.8790 C   0  0  0  0  0  2  0  0  0  0  0  0
  184.0660  178.2530  140.1560 C   0  0  0  0  0  2  0  0  0  0  0  0
  182.7840  178.8840  139.8970 N   0  0  0  0  0  2  0  0  0  0  0  0
  180.2900  178.6610  142.1200 C   0  0  1  0  0  3  0  0  0  0  0  0
  181.7800  178.0830  140.5730 C   0  0  2  0  0  3  0  0  0  0  0  0
  180.6280  177.4260  139.3680 S   0  0  0  0  0  0  0  0  0  0  0  0
  180.0420  180.0250  142.7340 C   0  0  0  0  0  1  0  0  0  0  0  0
  179.1850  178.3260  141.2250 C   0  0  0  0  0  2  0  0  0  0  0  0
  180.4990  178.8250  140.6010 C   0  0  1  0  0  0  0  0  0  0  0  0
  1 23  1  6  0  0  0
  1  8  1  0  0  0  0
  1 18  1  0  0  0  0
  2  3  1  0  0  0  0
  4 18  1  0  0  0  0
  4 16  1  1  0  0  0
  4  5  1  0  0  0  0
  5 19  1  0  0  0  0
  6 12  1  0  0  0  0
  7  2  2  0  0  0  0
  8 14  1  0  0  0  0
  9 13  1  0  0  0  0
 10  9  1  0  0  0  0
 10 15  2  0  0  0  0
 12  5  1  0  0  0  0
 12 11  2  0  0  0  0
 13  3  2  0  0  0  0
 14  7  1  0  0  0  0
 14  9  2  0  0  0  0
 18 10  1  1  0  0  0
 19 15  1  0  0  0  0
 19 17  2  0  0  0  0
 20 22  1  0  0  0  0
 20 23  1  0  0  0  0
 21 20  2  0  0  0  0
 24  8  1  0  0  0  0
 25 24  1  0  0  0  0
 26 25  1  0  0  0  0
 27 30  1  1  0  0  0
 28 26  1  6  0  0  0
 28 32  1  0  0  0  0
 29 28  1  0  0  0  0
 29 32  1  0  0  0  0
 31 27  1  0  0  0  0
 32 31  1  6  0  0  0
 32 27  1  0  0  0  0
M  END
>  <MODEL>
9

>  <REMARK>
 VINA RESULT:      -6.7      3.040      6.994
  Name = 
  5 active torsions:
  status: ('A' for Active; 'I' for Inactive)
    1  A    between atoms: C_2  and  N_12
    2  A    between atoms: C_3  and  N_28
    3  A    between atoms: C_9  and  N_14
    4  A    between atoms: C_9  and  C_21
    5  A    between atoms: N_12  and  C_21
                            x       y       z     vdW  Elec       q    Type
                         _______ _______ _______ _____ _____    ______ ____

>  <TORSDO>
F 5

$$$$
