=
 OpenBabel10262422293D

 43 46  0  0  1  0  0  0  0  0999 V2000
  188.6840  178.0450  138.4670 C   0  0  0  0  0  0  0  0  0  0  0  0
  188.9080  176.5360  141.5020 C   0  0  0  0  0  1  0  0  0  0  0  0
  190.1560  176.0620  138.5140 C   0  0  2  0  0  3  0  0  0  0  0  0
  189.6850  177.4760  140.5940 C   0  0  2  0  0  3  0  0  0  0  0  0
  191.9330  174.5140  136.9120 C   0  0  0  0  0  0  0  0  0  0  0  0
  192.5140  175.2330  138.1110 C   0  0  2  0  0  3  0  0  0  0  0  0
  192.6850  173.5260  136.2930 O   0  0  0  0  0  1  0  0  0  0  0  0
  192.0360  176.8130  140.0170 C   0  0  0  0  0  3  0  0  0  0  0  0
  188.0140  178.9240  137.7760 C   0  0  0  0  0  3  0  0  0  0  0  0
  191.6440  176.3960  138.6180 C   0  0  2  0  0  3  0  0  0  0  0  0
  189.8070  175.8090  137.0480 C   0  0  0  0  0  2  0  0  0  0  0  0
  189.3690  177.1720  139.1610 C   0  0  0  0  0  0  0  0  0  0  0  0
  191.1730  177.3690  140.8870 C   0  0  0  0  0  0  0  0  0  0  0  0
  190.6940  174.7490  136.4650 C   0  0  0  0  0  3  0  0  0  0  0  0
  185.4100  176.8000  136.0430 C   0  0  0  0  0  2  0  0  0  0  0  0
  187.4470  177.3110  134.6340 C   0  0  0  0  0  3  0  0  0  0  0  0
  186.2690  176.3900  134.8460 C   0  0  1  0  0  3  0  0  0  0  0  0
  186.2890  177.2660  137.1920 C   0  0  0  0  0  2  0  0  0  0  0  0
  187.0700  178.4840  136.7170 C   0  0  2  0  0  3  0  0  0  0  0  0
  186.7280  175.0860  135.0260 O   0  0  0  0  0  1  0  0  0  0  0  0
  187.8060  178.2030  135.4980 N   0  0  0  0  0  0  0  0  0  0  0  0
  193.9150  175.6830  137.8300 C   0  0  0  0  0  0  0  0  0  0  0  0
  194.1570  176.4150  136.8290 O   0  0  0  0  0  0  0  0  0  0  0  0
  194.9480  175.2520  138.6650 O   0  0  0  0  0  0  0  0  0  0  0  0
  195.5310  173.9650  138.5270 C   0  0  0  0  0  1  0  0  0  0  0  0
  191.7120  177.8370  142.2110 C   0  0  0  0  0  2  0  0  0  0  0  0
  190.6130  178.0060  143.2730 C   0  0  2  0  0  3  0  0  0  0  0  0
  190.4160  179.3670  143.5300 O   0  0  0  0  0  0  0  0  0  0  0  0
  191.5480  179.7640  144.2430 C   0  0  0  0  0  1  0  0  0  0  0  0
  190.9280  177.2070  144.5540 C   0  0  1  0  0  3  0  0  0  0  0  0
  189.7610  177.2990  146.8610 C   0  0  0  0  0  1  0  0  0  0  0  0
  189.6660  176.8950  145.3910 C   0  0  1  0  0  3  0  0  0  0  0  0
  188.4710  177.3640  144.7990 O   0  0  0  0  0  0  0  0  0  0  0  0
  187.6770  177.9780  145.7870 C   0  0  0  0  0  2  0  0  0  0  0  0
  185.3420  178.9010  146.0320 C   0  0  0  0  0  0  0  0  0  0  0  0
  186.3590  178.2680  145.2460 N   0  0  0  0  0  0  0  0  0  0  0  0
  183.7560  178.6420  144.2140 N   0  0  0  0  0  2  0  0  0  0  0  0
  184.9080  178.6750  143.3160 C   0  0  0  0  0  2  0  0  0  0  0  0
  186.0300  177.8200  143.8980 C   0  0  0  0  0  2  0  0  0  0  0  0
  185.5680  179.2510  147.2210 O   0  0  0  0  0  0  0  0  0  0  0  0
  184.1110  179.1880  145.4390 O   0  0  0  0  0  0  0  0  0  0  0  0
  191.6580  175.9270  144.1580 C   0  0  0  0  0  2  0  0  0  0  0  0
  192.0810  175.2540  145.3050 O   0  0  0  0  0  1  0  0  0  0  0  0
  1 12  2  0  0  0  0
  3 11  1  6  0  0  0
  3 10  1  0  0  0  0
  3 12  1  0  0  0  0
  4 13  1  0  0  0  0
  4  2  1  1  0  0  0
  5  6  1  0  0  0  0
  6 22  1  6  0  0  0
  6 10  1  0  0  0  0
  7  5  1  0  0  0  0
  8 13  2  0  0  0  0
  9  1  2  0  0  0  0
 10  8  1  1  0  0  0
 12  4  1  0  0  0  0
 13 26  1  0  0  0  0
 14  5  2  0  0  0  0
 14 11  1  0  0  0  0
 15 18  1  0  0  0  0
 16 17  1  0  0  0  0
 16 21  2  0  0  0  0
 17 20  1  1  0  0  0
 17 15  1  0  0  0  0
 19 18  1  0  0  0  0
 19  9  1  1  0  0  0
 21 19  1  0  0  0  0
 22 24  1  0  0  0  0
 23 22  2  0  0  0  0
 25 24  1  0  0  0  0
 27 26  1  6  0  0  0
 27 28  1  0  0  0  0
 27 30  1  0  0  0  0
 28 29  1  0  0  0  0
 30 42  1  6  0  0  0
 30 32  1  0  0  0  0
 32 31  1  1  0  0  0
 33 32  1  0  0  0  0
 33 34  1  0  0  0  0
 35 40  2  0  0  0  0
 36 34  1  0  0  0  0
 36 35  1  0  0  0  0
 37 41  1  0  0  0  0
 38 39  1  0  0  0  0
 38 37  1  0  0  0  0
 39 36  1  0  0  0  0
 41 35  1  0  0  0  0
 42 43  1  0  0  0  0
M  END
>  <MODEL>
1

>  <REMARK>
 VINA RESULT:      -7.6      0.000      0.000
  Name = 
  12 active torsions:
  status: ('A' for Active; 'I' for Inactive)
    1  A    between atoms: C_2  and  C_6
    2  A    between atoms: C_2  and  C_38
    3  A    between atoms: C_4  and  C_15
    4  A    between atoms: C_4  and  O_22
    5  A    between atoms: O_5  and  C_18
    6  A    between atoms: C_6  and  O_12
    7  A    between atoms: C_6  and  C_15
    8  A    between atoms: C_10  and  C_15
    9  A    between atoms: N_14  and  C_41
   10  A    between atoms: C_18  and  C_21
   11  A    between atoms: O_22  and  C_41
   12  A    between atoms: C_28  and  C_35
                            x       y       z     vdW  Elec       q    Type
                         _______ _______ _______ _____ _____    ______ ____

>  <TORSDO>
F 12

$$$$
=
 OpenBabel10262422293D

 43 46  0  0  1  0  0  0  0  0999 V2000
  186.7610  174.9230  136.7110 C   0  0  0  0  0  0  0  0  0  0  0  0
  188.6180  177.6040  135.7590 C   0  0  0  0  0  1  0  0  0  0  0  0
  185.6250  177.0990  136.9800 C   0  0  2  0  0  3  0  0  0  0  0  0
  188.1720  176.8650  137.0110 C   0  0  2  0  0  3  0  0  0  0  0  0
  183.2290  178.3070  137.9430 C   0  0  0  0  0  0  0  0  0  0  0  0
  184.5230  178.6600  138.6430 C   0  0  2  0  0  3  0  0  0  0  0  0
  182.1050  179.0860  138.1760 O   0  0  0  0  0  1  0  0  0  0  0  0
  187.0030  178.2170  138.7720 C   0  0  0  0  0  3  0  0  0  0  0  0
  186.6900  173.6230  136.6630 C   0  0  0  0  0  3  0  0  0  0  0  0
  185.6530  177.6410  138.4100 C   0  0  2  0  0  3  0  0  0  0  0  0
  184.2890  176.3940  136.7460 C   0  0  0  0  0  2  0  0  0  0  0  0
  186.8360  176.2290  136.7740 C   0  0  0  0  0  0  0  0  0  0  0  0
  188.1510  177.8170  138.1960 C   0  0  0  0  0  0  0  0  0  0  0  0
  183.1420  177.3100  137.0550 C   0  0  0  0  0  3  0  0  0  0  0  0
  183.4550  171.9820  135.5940 C   0  0  0  0  0  2  0  0  0  0  0  0
  185.5360  170.6660  135.0150 C   0  0  0  0  0  3  0  0  0  0  0  0
  184.0450  170.6140  135.2500 C   0  0  1  0  0  3  0  0  0  0  0  0
  184.3920  172.7470  136.5140 C   0  0  0  0  0  2  0  0  0  0  0  0
  185.7050  172.9580  135.7720 C   0  0  2  0  0  3  0  0  0  0  0  0
  183.7700  169.7150  136.2800 O   0  0  0  0  0  1  0  0  0  0  0  0
  186.2540  171.7030  135.2930 N   0  0  0  0  0  0  0  0  0  0  0  0
  184.2880  178.8870  140.1050 C   0  0  0  0  0  0  0  0  0  0  0  0
  184.9270  179.7890  140.7170 O   0  0  0  0  0  0  0  0  0  0  0  0
  183.3860  178.0650  140.7840 O   0  0  0  0  0  0  0  0  0  0  0  0
  182.3690  178.6010  141.6160 C   0  0  0  0  0  1  0  0  0  0  0  0
  189.4390  178.3920  138.7190 C   0  0  0  0  0  2  0  0  0  0  0  0
  190.1720  177.4350  139.6720 C   0  0  2  0  0  3  0  0  0  0  0  0
  189.8510  176.1120  139.3460 O   0  0  0  0  0  0  0  0  0  0  0  0
  190.9370  175.6550  138.5980 C   0  0  0  0  0  1  0  0  0  0  0  0
  189.8780  177.7630  141.1500 C   0  0  1  0  0  3  0  0  0  0  0  0
  189.6990  175.8000  142.8250 C   0  0  0  0  0  1  0  0  0  0  0  0
  188.9770  176.7060  141.8300 C   0  0  1  0  0  3  0  0  0  0  0  0
  187.7960  177.2500  142.3840 O   0  0  0  0  0  0  0  0  0  0  0  0
  187.6630  176.8050  143.7130 C   0  0  0  0  0  2  0  0  0  0  0  0
  186.7480  177.8710  145.8090 C   0  0  0  0  0  0  0  0  0  0  0  0
  186.6680  177.6100  144.4020 N   0  0  0  0  0  0  0  0  0  0  0  0
  184.6130  179.0200  145.7330 N   0  0  0  0  0  2  0  0  0  0  0  0
  184.9230  179.3260  144.3380 C   0  0  0  0  0  2  0  0  0  0  0  0
  185.5060  178.0870  143.6640 C   0  0  0  0  0  2  0  0  0  0  0  0
  187.7070  177.4260  146.4960 O   0  0  0  0  0  0  0  0  0  0  0  0
  185.7810  178.6850  146.4010 O   0  0  0  0  0  0  0  0  0  0  0  0
  191.2070  177.9110  141.8850 C   0  0  0  0  0  2  0  0  0  0  0  0
  192.2490  177.4880  141.0610 O   0  0  0  0  0  1  0  0  0  0  0  0
  1 12  2  0  0  0  0
  3 11  1  1  0  0  0
  3 10  1  0  0  0  0
  4  2  1  6  0  0  0
  4 13  1  0  0  0  0
  5  7  1  0  0  0  0
  5  6  1  0  0  0  0
  6 22  1  1  0  0  0
  9  1  2  0  0  0  0
 10  6  1  0  0  0  0
 10  8  1  6  0  0  0
 11 14  1  0  0  0  0
 12  3  1  0  0  0  0
 12  4  1  0  0  0  0
 13 26  1  0  0  0  0
 13  8  2  0  0  0  0
 14  5  2  0  0  0  0
 15 18  1  0  0  0  0
 16 17  1  0  0  0  0
 16 21  2  0  0  0  0
 17 15  1  0  0  0  0
 17 20  1  1  0  0  0
 19 18  1  0  0  0  0
 19  9  1  1  0  0  0
 21 19  1  0  0  0  0
 22 23  2  0  0  0  0
 22 24  1  0  0  0  0
 24 25  1  0  0  0  0
 27 26  1  6  0  0  0
 27 30  1  0  0  0  0
 28 27  1  0  0  0  0
 29 28  1  0  0  0  0
 30 32  1  0  0  0  0
 30 42  1  1  0  0  0
 32 33  1  0  0  0  0
 32 31  1  1  0  0  0
 33 34  1  0  0  0  0
 34 36  1  0  0  0  0
 35 41  1  0  0  0  0
 35 40  2  0  0  0  0
 36 35  1  0  0  0  0
 37 41  1  0  0  0  0
 38 37  1  0  0  0  0
 39 38  1  0  0  0  0
 39 36  1  0  0  0  0
 43 42  1  0  0  0  0
M  END
>  <MODEL>
2

>  <REMARK>
 VINA RESULT:      -7.1      3.233      6.233
  Name = 
  12 active torsions:
  status: ('A' for Active; 'I' for Inactive)
    1  A    between atoms: C_2  and  C_6
    2  A    between atoms: C_2  and  C_38
    3  A    between atoms: C_4  and  C_15
    4  A    between atoms: C_4  and  O_22
    5  A    between atoms: O_5  and  C_18
    6  A    between atoms: C_6  and  O_12
    7  A    between atoms: C_6  and  C_15
    8  A    between atoms: C_10  and  C_15
    9  A    between atoms: N_14  and  C_41
   10  A    between atoms: C_18  and  C_21
   11  A    between atoms: O_22  and  C_41
   12  A    between atoms: C_28  and  C_35
                            x       y       z     vdW  Elec       q    Type
                         _______ _______ _______ _____ _____    ______ ____

>  <TORSDO>
F 12

$$$$
=
 OpenBabel10262422293D

 43 46  0  0  1  0  0  0  0  0999 V2000
  188.7760  177.3760  140.5980 C   0  0  0  0  0  0  0  0  0  0  0  0
  187.5700  178.8440  137.7820 C   0  0  0  0  0  1  0  0  0  0  0  0
  190.3230  177.3170  138.6740 C   0  0  2  0  0  3  0  0  0  0  0  0
  187.7840  177.4680  138.3940 C   0  0  2  0  0  3  0  0  0  0  0  0
  192.8620  176.3350  137.8300 C   0  0  0  0  0  0  0  0  0  0  0  0
  191.6330  175.8020  137.1250 C   0  0  2  0  0  3  0  0  0  0  0  0
  194.1090  176.1190  137.2620 O   0  0  0  0  0  1  0  0  0  0  0  0
  189.1120  175.8210  137.0450 C   0  0  0  0  0  3  0  0  0  0  0  0
  188.5780  177.2350  141.8780 C   0  0  0  0  0  3  0  0  0  0  0  0
  190.3310  175.9850  137.9240 C   0  0  2  0  0  3  0  0  0  0  0  0
  191.4940  177.3390  139.6570 C   0  0  0  0  0  2  0  0  0  0  0  0
  188.9690  177.5020  139.3090 C   0  0  0  0  0  0  0  0  0  0  0  0
  187.9390  176.4300  137.2940 C   0  0  0  0  0  0  0  0  0  0  0  0
  192.7880  177.0650  138.9490 C   0  0  0  0  0  3  0  0  0  0  0  0
  191.6850  178.0560  143.8710 C   0  0  0  0  0  2  0  0  0  0  0  0
  189.5900  177.7880  145.2640 C   0  0  0  0  0  3  0  0  0  0  0  0
  191.1000  177.7680  145.2550 C   0  0  1  0  0  3  0  0  0  0  0  0
  190.8610  177.3700  142.7940 C   0  0  0  0  0  2  0  0  0  0  0  0
  189.4500  177.9400  142.8530 C   0  0  2  0  0  3  0  0  0  0  0  0
  191.5490  176.5250  145.7010 O   0  0  0  0  0  1  0  0  0  0  0  0
  188.8830  177.8230  144.1840 N   0  0  0  0  0  0  0  0  0  0  0  0
  191.8310  174.3710  136.7270 C   0  0  0  0  0  0  0  0  0  0  0  0
  192.1160  173.5040  137.6010 O   0  0  0  0  0  0  0  0  0  0  0  0
  191.7340  174.0210  135.3790 O   0  0  0  0  0  0  0  0  0  0  0  0
  191.1480  172.7960  134.9660 C   0  0  0  0  0  1  0  0  0  0  0  0
  186.7720  176.1020  136.4030 C   0  0  0  0  0  2  0  0  0  0  0  0
  185.8060  175.0890  137.0390 C   0  0  2  0  0  3  0  0  0  0  0  0
  186.0030  173.8290  136.4630 O   0  0  0  0  0  0  0  0  0  0  0  0
  185.9640  172.9360  137.5350 C   0  0  0  0  0  1  0  0  0  0  0  0
  184.3400  175.5570  136.9380 C   0  0  1  0  0  3  0  0  0  0  0  0
  182.9230  177.7150  136.7650 C   0  0  0  0  0  1  0  0  0  0  0  0
  184.1510  177.0330  137.3630 C   0  0  1  0  0  3  0  0  0  0  0  0
  184.2240  177.2260  138.7610 O   0  0  0  0  0  0  0  0  0  0  0  0
  183.7350  178.5080  139.0750 C   0  0  0  0  0  2  0  0  0  0  0  0
  184.6880  179.0850  141.3390 C   0  0  0  0  0  0  0  0  0  0  0  0
  183.6010  178.6430  140.5160 N   0  0  0  0  0  0  0  0  0  0  0  0
  183.3530  178.7100  143.3300 N   0  0  0  0  0  2  0  0  0  0  0  0
  182.1830  178.9520  142.4880 C   0  0  0  0  0  2  0  0  0  0  0  0
  182.3580  178.2300  141.1560 C   0  0  0  0  0  2  0  0  0  0  0  0
  185.7990  179.3950  140.8310 O   0  0  0  0  0  0  0  0  0  0  0  0
  184.4800  179.2310  142.7120 O   0  0  0  0  0  0  0  0  0  0  0  0
  183.8570  175.3290  135.5090 C   0  0  0  0  0  2  0  0  0  0  0  0
  182.8440  174.3700  135.5040 O   0  0  0  0  0  1  0  0  0  0  0  0
  1  9  2  0  0  0  0
  3 12  1  0  0  0  0
  3 11  1  1  0  0  0
  4  2  1  6  0  0  0
  4 12  1  0  0  0  0
  5 14  2  0  0  0  0
  6 22  1  1  0  0  0
  6  5  1  0  0  0  0
  6 10  1  0  0  0  0
  7  5  1  0  0  0  0
  8 13  2  0  0  0  0
 10  8  1  6  0  0  0
 10  3  1  0  0  0  0
 12  1  2  0  0  0  0
 13  4  1  0  0  0  0
 14 11  1  0  0  0  0
 15 17  1  0  0  0  0
 17 16  1  0  0  0  0
 17 20  1  6  0  0  0
 18 19  1  0  0  0  0
 18 15  1  0  0  0  0
 19  9  1  6  0  0  0
 19 21  1  0  0  0  0
 21 16  2  0  0  0  0
 22 23  2  0  0  0  0
 24 22  1  0  0  0  0
 25 24  1  0  0  0  0
 26 13  1  0  0  0  0
 27 26  1  6  0  0  0
 28 27  1  0  0  0  0
 28 29  1  0  0  0  0
 30 42  1  6  0  0  0
 30 27  1  0  0  0  0
 30 32  1  0  0  0  0
 32 31  1  1  0  0  0
 32 33  1  0  0  0  0
 33 34  1  0  0  0  0
 34 36  1  0  0  0  0
 35 41  1  0  0  0  0
 36 39  1  0  0  0  0
 36 35  1  0  0  0  0
 38 37  1  0  0  0  0
 39 38  1  0  0  0  0
 40 35  2  0  0  0  0
 41 37  1  0  0  0  0
 43 42  1  0  0  0  0
M  END
>  <MODEL>
3

>  <REMARK>
 VINA RESULT:      -7.0      2.209      7.080
  Name = 
  12 active torsions:
  status: ('A' for Active; 'I' for Inactive)
    1  A    between atoms: C_2  and  C_6
    2  A    between atoms: C_2  and  C_38
    3  A    between atoms: C_4  and  C_15
    4  A    between atoms: C_4  and  O_22
    5  A    between atoms: O_5  and  C_18
    6  A    between atoms: C_6  and  O_12
    7  A    between atoms: C_6  and  C_15
    8  A    between atoms: C_10  and  C_15
    9  A    between atoms: N_14  and  C_41
   10  A    between atoms: C_18  and  C_21
   11  A    between atoms: O_22  and  C_41
   12  A    between atoms: C_28  and  C_35
                            x       y       z     vdW  Elec       q    Type
                         _______ _______ _______ _____ _____    ______ ____

>  <TORSDO>
F 12

$$$$
=
 OpenBabel10262422293D

 43 46  0  0  1  0  0  0  0  0999 V2000
  185.5900  174.2980  137.1090 C   0  0  0  0  0  0  0  0  0  0  0  0
  187.4110  176.6860  135.5210 C   0  0  0  0  0  1  0  0  0  0  0  0
  184.3560  176.3890  136.6530 C   0  0  2  0  0  3  0  0  0  0  0  0
  186.9000  176.3210  136.9070 C   0  0  2  0  0  3  0  0  0  0  0  0
  181.8510  177.6830  137.0670 C   0  0  0  0  0  0  0  0  0  0  0  0
  183.0740  178.3000  137.7090 C   0  0  2  0  0  3  0  0  0  0  0  0
  180.6830  178.4300  136.9910 O   0  0  0  0  0  1  0  0  0  0  0  0
  185.5520  178.0600  138.1140 C   0  0  0  0  0  3  0  0  0  0  0  0
  185.5710  173.0400  137.4440 C   0  0  0  0  0  3  0  0  0  0  0  0
  184.2560  177.3260  137.8570 C   0  0  2  0  0  3  0  0  0  0  0  0
  183.0690  175.5690  136.5570 C   0  0  0  0  0  2  0  0  0  0  0  0
  185.6110  175.5670  136.7870 C   0  0  0  0  0  0  0  0  0  0  0  0
  186.7540  177.5750  137.7530 C   0  0  0  0  0  0  0  0  0  0  0  0
  181.8680  176.4670  136.5100 C   0  0  0  0  0  3  0  0  0  0  0  0
  183.5670  171.5450  134.6070 C   0  0  0  0  0  2  0  0  0  0  0  0
  182.2760  171.8240  136.7650 C   0  0  0  0  0  3  0  0  0  0  0  0
  182.1920  171.6680  135.2650 C   0  0  1  0  0  3  0  0  0  0  0  0
  184.5570  172.4900  135.2670 C   0  0  0  0  0  2  0  0  0  0  0  0
  184.6820  172.0870  136.7310 C   0  0  2  0  0  3  0  0  0  0  0  0
  181.5130  172.7590  134.7240 O   0  0  0  0  0  1  0  0  0  0  0  0
  183.3870  172.0500  137.3850 N   0  0  0  0  0  0  0  0  0  0  0  0
  182.7220  178.9310  139.0220 C   0  0  0  0  0  0  0  0  0  0  0  0
  182.3730  178.2100  139.9980 O   0  0  0  0  0  0  0  0  0  0  0  0
  182.7480  180.3230  139.1350 O   0  0  0  0  0  0  0  0  0  0  0  0
  181.9060  181.1510  138.3490 C   0  0  0  0  0  1  0  0  0  0  0  0
  187.9770  178.3520  138.1600 C   0  0  0  0  0  2  0  0  0  0  0  0
  188.4960  177.9560  139.5510 C   0  0  2  0  0  3  0  0  0  0  0  0
  188.2200  178.9810  140.4630 O   0  0  0  0  0  0  0  0  0  0  0  0
  187.0250  178.6010  141.0770 C   0  0  0  0  0  1  0  0  0  0  0  0
  189.9930  177.5870  139.5190 C   0  0  1  0  0  3  0  0  0  0  0  0
  191.6740  177.3870  141.4760 C   0  0  0  0  0  1  0  0  0  0  0  0
  190.4450  176.8090  140.7770 C   0  0  1  0  0  3  0  0  0  0  0  0
  189.3950  176.5630  141.6910 O   0  0  0  0  0  0  0  0  0  0  0  0
  189.9420  176.1600  142.9240 C   0  0  0  0  0  2  0  0  0  0  0  0
  189.7000  177.1470  145.2330 C   0  0  0  0  0  0  0  0  0  0  0  0
  189.1230  176.6680  144.0120 N   0  0  0  0  0  0  0  0  0  0  0  0
  187.4860  177.4700  146.1710 N   0  0  0  0  0  2  0  0  0  0  0  0
  187.0230  177.6530  144.7970 C   0  0  0  0  0  2  0  0  0  0  0  0
  187.6710  176.6030  143.8990 C   0  0  0  0  0  2  0  0  0  0  0  0
  190.9500  177.1640  145.3950 O   0  0  0  0  0  0  0  0  0  0  0  0
  188.8590  177.6590  146.2230 O   0  0  0  0  0  0  0  0  0  0  0  0
  190.2680  176.7900  138.2480 C   0  0  0  0  0  2  0  0  0  0  0  0
  190.5280  175.4590  138.5760 O   0  0  0  0  0  1  0  0  0  0  0  0
  1  9  2  0  0  0  0
  3 11  1  1  0  0  0
  3 12  1  0  0  0  0
  3 10  1  0  0  0  0
  4  2  1  6  0  0  0
  4 13  1  0  0  0  0
  5  6  1  0  0  0  0
  6 10  1  0  0  0  0
  6 22  1  1  0  0  0
  7  5  1  0  0  0  0
 10  8  1  6  0  0  0
 12  4  1  0  0  0  0
 12  1  2  0  0  0  0
 13  8  2  0  0  0  0
 13 26  1  0  0  0  0
 14 11  1  0  0  0  0
 14  5  2  0  0  0  0
 15 17  1  0  0  0  0
 15 18  1  0  0  0  0
 16 21  2  0  0  0  0
 17 20  1  6  0  0  0
 17 16  1  0  0  0  0
 18 19  1  0  0  0  0
 19 21  1  0  0  0  0
 19  9  1  1  0  0  0
 22 24  1  0  0  0  0
 22 23  2  0  0  0  0
 25 24  1  0  0  0  0
 27 26  1  6  0  0  0
 27 28  1  0  0  0  0
 28 29  1  0  0  0  0
 30 42  1  6  0  0  0
 30 27  1  0  0  0  0
 30 32  1  0  0  0  0
 32 31  1  1  0  0  0
 32 33  1  0  0  0  0
 33 34  1  0  0  0  0
 34 36  1  0  0  0  0
 35 40  2  0  0  0  0
 35 41  1  0  0  0  0
 36 35  1  0  0  0  0
 37 41  1  0  0  0  0
 38 37  1  0  0  0  0
 39 36  1  0  0  0  0
 39 38  1  0  0  0  0
 42 43  1  0  0  0  0
M  END
>  <MODEL>
4

>  <REMARK>
 VINA RESULT:      -7.0      3.690      7.228
  Name = 
  12 active torsions:
  status: ('A' for Active; 'I' for Inactive)
    1  A    between atoms: C_2  and  C_6
    2  A    between atoms: C_2  and  C_38
    3  A    between atoms: C_4  and  C_15
    4  A    between atoms: C_4  and  O_22
    5  A    between atoms: O_5  and  C_18
    6  A    between atoms: C_6  and  O_12
    7  A    between atoms: C_6  and  C_15
    8  A    between atoms: C_10  and  C_15
    9  A    between atoms: N_14  and  C_41
   10  A    between atoms: C_18  and  C_21
   11  A    between atoms: O_22  and  C_41
   12  A    between atoms: C_28  and  C_35
                            x       y       z     vdW  Elec       q    Type
                         _______ _______ _______ _____ _____    ______ ____

>  <TORSDO>
F 12

$$$$
=
 OpenBabel10262422293D

 43 46  0  0  1  0  0  0  0  0999 V2000
  187.0170  177.3030  143.2590 C   0  0  0  0  0  0  0  0  0  0  0  0
  184.9300  179.9830  143.2080 C   0  0  0  0  0  1  0  0  0  0  0  0
  187.0580  178.5890  141.1500 C   0  0  2  0  0  3  0  0  0  0  0  0
  185.0230  178.5520  142.6990 C   0  0  2  0  0  3  0  0  0  0  0  0
  188.1890  178.6270  138.5340 C   0  0  0  0  0  0  0  0  0  0  0  0
  186.6890  178.4620  138.6480 C   0  0  2  0  0  3  0  0  0  0  0  0
  188.7380  178.9480  137.3010 O   0  0  0  0  0  1  0  0  0  0  0  0
  184.7420  178.2040  140.2300 C   0  0  0  0  0  3  0  0  0  0  0  0
  187.5640  176.4110  144.0340 C   0  0  0  0  0  3  0  0  0  0  0  0
  186.2220  177.9700  140.0300 C   0  0  2  0  0  3  0  0  0  0  0  0
  188.5180  178.1750  140.9640 C   0  0  0  0  0  2  0  0  0  0  0  0
  186.4580  178.1890  142.4730 C   0  0  0  0  0  0  0  0  0  0  0  0
  184.1860  178.3930  141.4400 C   0  0  0  0  0  0  0  0  0  0  0  0
  189.0040  178.5390  139.5920 C   0  0  0  0  0  3  0  0  0  0  0  0
  190.8620  178.0150  144.9560 C   0  0  0  0  0  2  0  0  0  0  0  0
  190.9950  176.3920  143.0200 C   0  0  0  0  0  3  0  0  0  0  0  0
  191.6410  177.5640  143.7200 C   0  0  1  0  0  3  0  0  0  0  0  0
  189.3670  177.9560  144.6920 C   0  0  0  0  0  2  0  0  0  0  0  0
  189.0030  176.5080  144.3910 C   0  0  2  0  0  3  0  0  0  0  0  0
  191.7550  178.6300  142.8270 O   0  0  0  0  0  1  0  0  0  0  0  0
  189.8080  175.9700  143.3090 N   0  0  0  0  0  0  0  0  0  0  0  0
  186.1700  177.5810  137.5530 C   0  0  0  0  0  0  0  0  0  0  0  0
  185.2020  177.9640  136.8370 O   0  0  0  0  0  0  0  0  0  0  0  0
  186.7440  176.3220  137.3630 O   0  0  0  0  0  0  0  0  0  0  0  0
  187.3470  175.9550  136.1320 C   0  0  0  0  0  1  0  0  0  0  0  0
  182.6880  178.5090  141.5160 C   0  0  0  0  0  2  0  0  0  0  0  0
  182.0240  178.5440  140.1310 C   0  0  2  0  0  3  0  0  0  0  0  0
  182.0160  179.8580  139.6480 O   0  0  0  0  0  0  0  0  0  0  0  0
  181.7970  179.7330  138.2760 C   0  0  0  0  0  1  0  0  0  0  0  0
  180.6130  177.9210  140.1570 C   0  0  1  0  0  3  0  0  0  0  0  0
  179.5210  176.3550  138.4100 C   0  0  0  0  0  1  0  0  0  0  0  0
  180.5670  176.5160  139.5120 C   0  0  1  0  0  3  0  0  0  0  0  0
  181.8350  176.0480  139.0960 O   0  0  0  0  0  0  0  0  0  0  0  0
  181.7840  175.7360  137.7240 C   0  0  0  0  0  2  0  0  0  0  0  0
  181.7270  173.2650  137.2190 C   0  0  0  0  0  0  0  0  0  0  0  0
  182.4570  174.4700  137.4850 N   0  0  0  0  0  0  0  0  0  0  0  0
  183.7960  171.9980  137.2100 N   0  0  0  0  0  2  0  0  0  0  0  0
  184.4530  173.2340  136.7900 C   0  0  0  0  0  2  0  0  0  0  0  0
  183.9070  174.4020  137.6070 C   0  0  0  0  0  2  0  0  0  0  0  0
  180.4680  173.2700  137.1630 O   0  0  0  0  0  0  0  0  0  0  0  0
  182.4360  172.0910  136.9570 O   0  0  0  0  0  0  0  0  0  0  0  0
  180.1290  177.8800  141.6030 C   0  0  0  0  0  2  0  0  0  0  0  0
  179.3050  176.7700  141.7910 O   0  0  0  0  0  1  0  0  0  0  0  0
  1  9  2  0  0  0  0
  3 11  1  1  0  0  0
  3 12  1  0  0  0  0
  4  2  1  6  0  0  0
  5  6  1  0  0  0  0
  5 14  2  0  0  0  0
  6 22  1  6  0  0  0
  6 10  1  0  0  0  0
  7  5  1  0  0  0  0
  8 13  2  0  0  0  0
 10  8  1  1  0  0  0
 10  3  1  0  0  0  0
 12  4  1  0  0  0  0
 12  1  2  0  0  0  0
 13 26  1  0  0  0  0
 13  4  1  0  0  0  0
 14 11  1  0  0  0  0
 16 21  2  0  0  0  0
 16 17  1  0  0  0  0
 17 20  1  6  0  0  0
 17 15  1  0  0  0  0
 18 15  1  0  0  0  0
 19  9  1  6  0  0  0
 19 18  1  0  0  0  0
 21 19  1  0  0  0  0
 23 22  2  0  0  0  0
 24 22  1  0  0  0  0
 25 24  1  0  0  0  0
 27 30  1  0  0  0  0
 27 26  1  1  0  0  0
 28 27  1  0  0  0  0
 29 28  1  0  0  0  0
 30 42  1  1  0  0  0
 32 31  1  6  0  0  0
 32 30  1  0  0  0  0
 33 32  1  0  0  0  0
 34 33  1  0  0  0  0
 35 36  1  0  0  0  0
 36 39  1  0  0  0  0
 36 34  1  0  0  0  0
 38 37  1  0  0  0  0
 38 39  1  0  0  0  0
 40 35  2  0  0  0  0
 41 37  1  0  0  0  0
 41 35  1  0  0  0  0
 42 43  1  0  0  0  0
M  END
>  <MODEL>
5

>  <REMARK>
 VINA RESULT:      -6.9      3.992      8.910
  Name = 
  12 active torsions:
  status: ('A' for Active; 'I' for Inactive)
    1  A    between atoms: C_2  and  C_6
    2  A    between atoms: C_2  and  C_38
    3  A    between atoms: C_4  and  C_15
    4  A    between atoms: C_4  and  O_22
    5  A    between atoms: O_5  and  C_18
    6  A    between atoms: C_6  and  O_12
    7  A    between atoms: C_6  and  C_15
    8  A    between atoms: C_10  and  C_15
    9  A    between atoms: N_14  and  C_41
   10  A    between atoms: C_18  and  C_21
   11  A    between atoms: O_22  and  C_41
   12  A    between atoms: C_28  and  C_35
                            x       y       z     vdW  Elec       q    Type
                         _______ _______ _______ _____ _____    ______ ____

>  <TORSDO>
F 12

$$$$
=
 OpenBabel10262422293D

 43 46  0  0  1  0  0  0  0  0999 V2000
  181.7240  180.5220  138.6260 C   0  0  0  0  0  0  0  0  0  0  0  0
  181.6060  178.2220  141.1230 C   0  0  0  0  0  1  0  0  0  0  0  0
  182.0140  178.1870  137.8770 C   0  0  2  0  0  3  0  0  0  0  0  0
  182.6070  178.9560  140.2440 C   0  0  2  0  0  3  0  0  0  0  0  0
  182.5460  176.5890  135.5780 C   0  0  0  0  0  0  0  0  0  0  0  0
  183.5700  176.5790  136.6920 C   0  0  2  0  0  3  0  0  0  0  0  0
  182.6140  175.6130  134.5930 O   0  0  0  0  0  1  0  0  0  0  0  0
  184.2130  177.5450  138.9310 C   0  0  0  0  0  3  0  0  0  0  0  0
  181.4840  181.7690  138.3320 C   0  0  0  0  0  3  0  0  0  0  0  0
  183.4710  177.7890  137.6370 C   0  0  2  0  0  3  0  0  0  0  0  0
  181.3800  178.5720  136.5400 C   0  0  0  0  0  2  0  0  0  0  0  0
  181.9800  179.2730  138.9210 C   0  0  0  0  0  0  0  0  0  0  0  0
  183.8720  178.1270  140.0950 C   0  0  0  0  0  0  0  0  0  0  0  0
  181.5350  177.4640  135.5400 C   0  0  0  0  0  3  0  0  0  0  0  0
  179.4570  182.5130  135.2280 C   0  0  0  0  0  2  0  0  0  0  0  0
  179.2880  184.2760  137.0340 C   0  0  0  0  0  3  0  0  0  0  0  0
  179.1290  183.9680  135.5640 C   0  0  1  0  0  3  0  0  0  0  0  0
  180.6620  182.0430  136.0260 C   0  0  0  0  0  2  0  0  0  0  0  0
  180.3050  182.1310  137.5040 C   0  0  2  0  0  3  0  0  0  0  0  0
  179.9520  184.8150  134.8220 O   0  0  0  0  0  1  0  0  0  0  0  0
  179.8500  183.4610  137.8650 N   0  0  0  0  0  0  0  0  0  0  0  0
  184.9540  176.4350  136.1360 C   0  0  0  0  0  0  0  0  0  0  0  0
  185.5550  177.4400  135.6630 O   0  0  0  0  0  0  0  0  0  0  0  0
  185.5490  175.1710  136.1140 O   0  0  0  0  0  0  0  0  0  0  0  0
  186.8330  174.9420  136.6750 C   0  0  0  0  0  1  0  0  0  0  0  0
  184.7550  177.8850  141.2890 C   0  0  0  0  0  2  0  0  0  0  0  0
  184.7570  179.0630  142.2740 C   0  0  2  0  0  3  0  0  0  0  0  0
  185.9640  179.7630  142.1640 O   0  0  0  0  0  0  0  0  0  0  0  0
  186.8140  178.9020  141.4670 C   0  0  0  0  0  1  0  0  0  0  0  0
  184.4770  178.6020  143.7190 C   0  0  1  0  0  3  0  0  0  0  0  0
  185.4580  179.1340  146.0530 C   0  0  0  0  0  1  0  0  0  0  0  0
  185.7300  178.6700  144.6230 C   0  0  1  0  0  3  0  0  0  0  0  0
  186.5030  177.4880  144.5990 O   0  0  0  0  0  0  0  0  0  0  0  0
  187.5240  177.5840  145.5650 C   0  0  0  0  0  2  0  0  0  0  0  0
  189.9550  176.9530  145.7970 C   0  0  0  0  0  0  0  0  0  0  0  0
  188.7830  177.1380  144.9930 N   0  0  0  0  0  0  0  0  0  0  0  0
  191.2560  176.4500  143.8120 N   0  0  0  0  0  2  0  0  0  0  0  0
  190.0070  175.9820  143.2150 C   0  0  0  0  0  2  0  0  0  0  0  0
  188.8860  176.9620  143.5500 C   0  0  0  0  0  2  0  0  0  0  0  0
  189.9240  177.1510  147.0410 O   0  0  0  0  0  0  0  0  0  0  0  0
  191.1220  176.4830  145.1920 O   0  0  0  0  0  0  0  0  0  0  0  0
  183.3410  179.4480  144.2850 C   0  0  0  0  0  2  0  0  0  0  0  0
  182.2640  178.6250  144.6180 O   0  0  0  0  0  1  0  0  0  0  0  0
  1 12  2  0  0  0  0
  3 11  1  6  0  0  0
  3 12  1  0  0  0  0
  4  2  1  1  0  0  0
  5  6  1  0  0  0  0
  6 22  1  6  0  0  0
  6 10  1  0  0  0  0
  7  5  1  0  0  0  0
  8 13  2  0  0  0  0
  9  1  2  0  0  0  0
 10  3  1  0  0  0  0
 10  8  1  1  0  0  0
 12  4  1  0  0  0  0
 13  4  1  0  0  0  0
 13 26  1  0  0  0  0
 14  5  2  0  0  0  0
 14 11  1  0  0  0  0
 15 17  1  0  0  0  0
 15 18  1  0  0  0  0
 16 21  2  0  0  0  0
 17 20  1  6  0  0  0
 17 16  1  0  0  0  0
 18 19  1  0  0  0  0
 19 21  1  0  0  0  0
 19  9  1  1  0  0  0
 23 22  2  0  0  0  0
 24 22  1  0  0  0  0
 24 25  1  0  0  0  0
 27 26  1  6  0  0  0
 27 30  1  0  0  0  0
 28 27  1  0  0  0  0
 29 28  1  0  0  0  0
 30 42  1  1  0  0  0
 30 32  1  0  0  0  0
 32 31  1  1  0  0  0
 33 32  1  0  0  0  0
 33 34  1  0  0  0  0
 35 40  2  0  0  0  0
 36 34  1  0  0  0  0
 36 35  1  0  0  0  0
 37 41  1  0  0  0  0
 38 39  1  0  0  0  0
 38 37  1  0  0  0  0
 39 36  1  0  0  0  0
 41 35  1  0  0  0  0
 42 43  1  0  0  0  0
M  END
>  <MODEL>
6

>  <REMARK>
 VINA RESULT:      -6.8      4.662      7.791
  Name = 
  12 active torsions:
  status: ('A' for Active; 'I' for Inactive)
    1  A    between atoms: C_2  and  C_6
    2  A    between atoms: C_2  and  C_38
    3  A    between atoms: C_4  and  C_15
    4  A    between atoms: C_4  and  O_22
    5  A    between atoms: O_5  and  C_18
    6  A    between atoms: C_6  and  O_12
    7  A    between atoms: C_6  and  C_15
    8  A    between atoms: C_10  and  C_15
    9  A    between atoms: N_14  and  C_41
   10  A    between atoms: C_18  and  C_21
   11  A    between atoms: O_22  and  C_41
   12  A    between atoms: C_28  and  C_35
                            x       y       z     vdW  Elec       q    Type
                         _______ _______ _______ _____ _____    ______ ____

>  <TORSDO>
F 12

$$$$
=
 OpenBabel10262422293D

 43 46  0  0  1  0  0  0  0  0999 V2000
  182.7500  180.0540  139.0170 C   0  0  0  0  0  0  0  0  0  0  0  0
  183.6980  178.0140  141.5630 C   0  0  0  0  0  1  0  0  0  0  0  0
  183.8340  177.9550  138.2940 C   0  0  2  0  0  3  0  0  0  0  0  0
  184.2790  179.0180  140.5780 C   0  0  2  0  0  3  0  0  0  0  0  0
  184.7420  176.5450  135.9900 C   0  0  0  0  0  0  0  0  0  0  0  0
  185.7800  176.9760  137.0030 C   0  0  2  0  0  3  0  0  0  0  0  0
  185.0920  175.6120  135.0250 O   0  0  0  0  0  1  0  0  0  0  0  0
  186.1890  178.2320  139.1520 C   0  0  0  0  0  3  0  0  0  0  0  0
  182.0400  181.1050  138.7200 C   0  0  0  0  0  3  0  0  0  0  0  0
  185.3100  178.1130  137.9280 C   0  0  2  0  0  3  0  0  0  0  0  0
  182.9990  178.0040  137.0150 C   0  0  0  0  0  2  0  0  0  0  0  0
  183.4780  179.0060  139.3130 C   0  0  0  0  0  0  0  0  0  0  0  0
  185.7470  178.7100  140.3300 C   0  0  0  0  0  0  0  0  0  0  0  0
  183.4770  176.9800  136.0280 C   0  0  0  0  0  3  0  0  0  0  0  0
  179.0010  179.3990  137.2540 C   0  0  0  0  0  2  0  0  0  0  0  0
  180.2490  180.8860  135.6320 C   0  0  0  0  0  3  0  0  0  0  0  0
  179.2900  179.7300  135.7890 C   0  0  1  0  0  3  0  0  0  0  0  0
  180.2680  179.5160  138.0840 C   0  0  0  0  0  2  0  0  0  0  0  0
  180.7500  180.9590  137.9980 C   0  0  2  0  0  3  0  0  0  0  0  0
  179.8130  178.6050  135.1520 O   0  0  0  0  0  1  0  0  0  0  0  0
  180.9150  181.3850  136.6200 N   0  0  0  0  0  0  0  0  0  0  0  0
  187.0690  177.3250  136.3240 C   0  0  0  0  0  0  0  0  0  0  0  0
  187.1060  178.2620  135.4780 O   0  0  0  0  0  0  0  0  0  0  0  0
  188.2120  176.5760  136.6120 O   0  0  0  0  0  0  0  0  0  0  0  0
  188.1370  175.2000  136.9510 C   0  0  0  0  0  1  0  0  0  0  0  0
  186.7470  178.8770  141.4410 C   0  0  0  0  0  2  0  0  0  0  0  0
  187.7670  177.7290  141.5000 C   0  0  2  0  0  3  0  0  0  0  0  0
  187.6160  177.0310  142.7040 O   0  0  0  0  0  0  0  0  0  0  0  0
  186.7110  177.7910  143.4470 C   0  0  0  0  0  1  0  0  0  0  0  0
  189.2090  178.2330  141.2920 C   0  0  1  0  0  3  0  0  0  0  0  0
  191.5470  177.3280  141.9320 C   0  0  0  0  0  1  0  0  0  0  0  0
  190.1700  177.7790  142.4160 C   0  0  1  0  0  3  0  0  0  0  0  0
  190.2710  178.7090  143.4760 O   0  0  0  0  0  0  0  0  0  0  0  0
  191.1490  178.2010  144.4530 C   0  0  0  0  0  2  0  0  0  0  0  0
  190.9070  176.7580  146.5080 C   0  0  0  0  0  0  0  0  0  0  0  0
  190.3890  177.7420  145.6040 N   0  0  0  0  0  0  0  0  0  0  0  0
  188.8050  176.7450  147.7200 N   0  0  0  0  0  2  0  0  0  0  0  0
  188.6310  178.1230  147.2650 C   0  0  0  0  0  2  0  0  0  0  0  0
  189.0280  178.2260  145.7950 C   0  0  0  0  0  2  0  0  0  0  0  0
  192.0580  176.2710  146.3450 O   0  0  0  0  0  0  0  0  0  0  0  0
  190.1420  176.3920  147.6180 O   0  0  0  0  0  0  0  0  0  0  0  0
  189.6950  177.7590  139.9260 C   0  0  0  0  0  2  0  0  0  0  0  0
  189.3390  178.6920  138.9520 O   0  0  0  0  0  1  0  0  0  0  0  0
  1 12  2  0  0  0  0
  3 11  1  6  0  0  0
  3 12  1  0  0  0  0
  4  2  1  1  0  0  0
  5 14  2  0  0  0  0
  5  6  1  0  0  0  0
  6 22  1  6  0  0  0
  6 10  1  0  0  0  0
  7  5  1  0  0  0  0
  8 13  2  0  0  0  0
  9  1  2  0  0  0  0
 10  3  1  0  0  0  0
 10  8  1  1  0  0  0
 12  4  1  0  0  0  0
 13  4  1  0  0  0  0
 13 26  1  0  0  0  0
 14 11  1  0  0  0  0
 15 18  1  0  0  0  0
 16 17  1  0  0  0  0
 16 21  2  0  0  0  0
 17 20  1  1  0  0  0
 17 15  1  0  0  0  0
 19 18  1  0  0  0  0
 19  9  1  1  0  0  0
 21 19  1  0  0  0  0
 22 24  1  0  0  0  0
 23 22  2  0  0  0  0
 24 25  1  0  0  0  0
 27 26  1  1  0  0  0
 27 28  1  0  0  0  0
 28 29  1  0  0  0  0
 30 42  1  6  0  0  0
 30 27  1  0  0  0  0
 30 32  1  0  0  0  0
 32 31  1  6  0  0  0
 32 33  1  0  0  0  0
 33 34  1  0  0  0  0
 34 36  1  0  0  0  0
 35 41  1  0  0  0  0
 36 39  1  0  0  0  0
 36 35  1  0  0  0  0
 38 37  1  0  0  0  0
 39 38  1  0  0  0  0
 40 35  2  0  0  0  0
 41 37  1  0  0  0  0
 43 42  1  0  0  0  0
M  END
>  <MODEL>
7

>  <REMARK>
 VINA RESULT:      -6.8      3.673      6.268
  Name = 
  12 active torsions:
  status: ('A' for Active; 'I' for Inactive)
    1  A    between atoms: C_2  and  C_6
    2  A    between atoms: C_2  and  C_38
    3  A    between atoms: C_4  and  C_15
    4  A    between atoms: C_4  and  O_22
    5  A    between atoms: O_5  and  C_18
    6  A    between atoms: C_6  and  O_12
    7  A    between atoms: C_6  and  C_15
    8  A    between atoms: C_10  and  C_15
    9  A    between atoms: N_14  and  C_41
   10  A    between atoms: C_18  and  C_21
   11  A    between atoms: O_22  and  C_41
   12  A    between atoms: C_28  and  C_35
                            x       y       z     vdW  Elec       q    Type
                         _______ _______ _______ _____ _____    ______ ____

>  <TORSDO>
F 12

$$$$
=
 OpenBabel10262422293D

 43 46  0  0  1  0  0  0  0  0999 V2000
  186.7020  177.4340  143.3610 C   0  0  0  0  0  0  0  0  0  0  0  0
  184.5530  180.0420  143.7020 C   0  0  0  0  0  1  0  0  0  0  0  0
  186.2280  178.6460  141.2620 C   0  0  2  0  0  3  0  0  0  0  0  0
  184.5870  178.5980  143.2240 C   0  0  2  0  0  3  0  0  0  0  0  0
  186.7530  178.6290  138.4610 C   0  0  0  0  0  0  0  0  0  0  0  0
  185.3230  178.4200  138.9080 C   0  0  2  0  0  3  0  0  0  0  0  0
  187.0040  178.9250  137.1290 O   0  0  0  0  0  1  0  0  0  0  0  0
  183.7830  178.1560  140.8880 C   0  0  0  0  0  3  0  0  0  0  0  0
  187.4400  176.5860  144.0200 C   0  0  0  0  0  3  0  0  0  0  0  0
  185.1900  177.9630  140.3720 C   0  0  2  0  0  3  0  0  0  0  0  0
  187.6260  178.2720  140.7690 C   0  0  0  0  0  2  0  0  0  0  0  0
  185.9500  178.2730  142.6950 C   0  0  0  0  0  0  0  0  0  0  0  0
  183.5000  178.3690  142.1860 C   0  0  0  0  0  0  0  0  0  0  0  0
  187.7830  178.6040  139.3150 C   0  0  0  0  0  3  0  0  0  0  0  0
  190.8140  178.2440  143.6080 C   0  0  0  0  0  2  0  0  0  0  0  0
  190.6280  175.9690  142.5190 C   0  0  0  0  0  3  0  0  0  0  0  0
  191.3640  177.2870  142.5500 C   0  0  1  0  0  3  0  0  0  0  0  0
  189.2970  178.1650  143.6580 C   0  0  0  0  0  2  0  0  0  0  0  0
  188.9180  176.7420  144.0470 C   0  0  2  0  0  3  0  0  0  0  0  0
  191.2900  177.8880  141.2940 O   0  0  0  0  0  1  0  0  0  0  0  0
  189.5240  175.7670  143.1590 N   0  0  0  0  0  0  0  0  0  0  0  0
  184.6090  177.4860  137.9790 C   0  0  0  0  0  0  0  0  0  0  0  0
  183.5370  177.8470  137.4170 O   0  0  0  0  0  0  0  0  0  0  0  0
  185.1250  176.2040  137.7760 O   0  0  0  0  0  0  0  0  0  0  0  0
  185.2170  175.6340  136.4800 C   0  0  0  0  0  1  0  0  0  0  0  0
  182.0520  178.4400  142.5880 C   0  0  0  0  0  2  0  0  0  0  0  0
  181.3020  179.5940  141.9040 C   0  0  2  0  0  3  0  0  0  0  0  0
  180.6540  180.3700  142.8720 O   0  0  0  0  0  0  0  0  0  0  0  0
  179.4020  180.6520  142.3240 C   0  0  0  0  0  1  0  0  0  0  0  0
  180.3330  179.0820  140.8180 C   0  0  1  0  0  3  0  0  0  0  0  0
  180.2010  178.6040  138.2790 C   0  0  0  0  0  1  0  0  0  0  0  0
  180.7670  179.4870  139.3900 C   0  0  1  0  0  3  0  0  0  0  0  0
  180.5720  180.8590  139.1130 O   0  0  0  0  0  0  0  0  0  0  0  0
  181.2860  181.2010  137.9490 C   0  0  0  0  0  2  0  0  0  0  0  0
  179.5160  182.3090  136.5330 C   0  0  0  0  0  0  0  0  0  0  0  0
  180.6970  182.3830  137.3420 N   0  0  0  0  0  0  0  0  0  0  0  0
  179.6950  184.6750  136.0300 N   0  0  0  0  0  2  0  0  0  0  0  0
  180.3800  184.8110  137.3130 C   0  0  0  0  0  2  0  0  0  0  0  0
  181.3750  183.6650  137.4810 C   0  0  0  0  0  2  0  0  0  0  0  0
  178.9320  181.2090  136.3400 O   0  0  0  0  0  0  0  0  0  0  0  0
  178.9790  183.4880  136.0130 O   0  0  0  0  0  0  0  0  0  0  0  0
  180.2160  177.5660  140.9500 C   0  0  0  0  0  2  0  0  0  0  0  0
  179.0340  177.2440  141.6170 O   0  0  0  0  0  1  0  0  0  0  0  0
  1  9  2  0  0  0  0
  3 11  1  6  0  0  0
  3 12  1  0  0  0  0
  4  2  1  6  0  0  0
  5  6  1  0  0  0  0
  5 14  2  0  0  0  0
  6 22  1  6  0  0  0
  6 10  1  0  0  0  0
  7  5  1  0  0  0  0
  8 13  2  0  0  0  0
 10  8  1  1  0  0  0
 10  3  1  0  0  0  0
 12  4  1  0  0  0  0
 12  1  2  0  0  0  0
 13 26  1  0  0  0  0
 13  4  1  0  0  0  0
 14 11  1  0  0  0  0
 15 18  1  0  0  0  0
 16 17  1  0  0  0  0
 16 21  2  0  0  0  0
 17 20  1  6  0  0  0
 17 15  1  0  0  0  0
 18 19  1  0  0  0  0
 19  9  1  6  0  0  0
 21 19  1  0  0  0  0
 23 22  2  0  0  0  0
 24 22  1  0  0  0  0
 25 24  1  0  0  0  0
 27 26  1  1  0  0  0
 27 28  1  0  0  0  0
 29 28  1  0  0  0  0
 30 42  1  6  0  0  0
 30 27  1  0  0  0  0
 32 31  1  6  0  0  0
 32 30  1  0  0  0  0
 33 32  1  0  0  0  0
 34 33  1  0  0  0  0
 35 36  1  0  0  0  0
 36 39  1  0  0  0  0
 36 34  1  0  0  0  0
 37 38  1  0  0  0  0
 38 39  1  0  0  0  0
 40 35  2  0  0  0  0
 41 37  1  0  0  0  0
 41 35  1  0  0  0  0
 42 43  1  0  0  0  0
M  END
>  <MODEL>
8

>  <REMARK>
 VINA RESULT:      -6.8      5.080      9.375
  Name = 
  12 active torsions:
  status: ('A' for Active; 'I' for Inactive)
    1  A    between atoms: C_2  and  C_6
    2  A    between atoms: C_2  and  C_38
    3  A    between atoms: C_4  and  C_15
    4  A    between atoms: C_4  and  O_22
    5  A    between atoms: O_5  and  C_18
    6  A    between atoms: C_6  and  O_12
    7  A    between atoms: C_6  and  C_15
    8  A    between atoms: C_10  and  C_15
    9  A    between atoms: N_14  and  C_41
   10  A    between atoms: C_18  and  C_21
   11  A    between atoms: O_22  and  C_41
   12  A    between atoms: C_28  and  C_35
                            x       y       z     vdW  Elec       q    Type
                         _______ _______ _______ _____ _____    ______ ____

>  <TORSDO>
F 12

$$$$
=
 OpenBabel10262422293D

 43 46  0  0  1  0  0  0  0  0999 V2000
  188.8350  177.3030  140.5920 C   0  0  0  0  0  0  0  0  0  0  0  0
  187.6260  178.7730  137.7780 C   0  0  0  0  0  1  0  0  0  0  0  0
  190.4020  177.2960  138.6830 C   0  0  2  0  0  3  0  0  0  0  0  0
  187.8640  177.3960  138.3780 C   0  0  2  0  0  3  0  0  0  0  0  0
  192.9700  176.3770  137.8560 C   0  0  0  0  0  0  0  0  0  0  0  0
  191.7610  175.8250  137.1330 C   0  0  2  0  0  3  0  0  0  0  0  0
  194.2270  176.1930  137.2990 O   0  0  0  0  0  1  0  0  0  0  0  0
  189.2410  175.7900  137.0270 C   0  0  0  0  0  3  0  0  0  0  0  0
  188.6270  177.1460  141.8680 C   0  0  0  0  0  3  0  0  0  0  0  0
  190.4460  175.9720  137.9200 C   0  0  2  0  0  3  0  0  0  0  0  0
  191.5620  177.3330  139.6780 C   0  0  0  0  0  2  0  0  0  0  0  0
  189.0390  177.4450  139.3060 C   0  0  0  0  0  0  0  0  0  0  0  0
  188.0520  176.3720  137.2700 C   0  0  0  0  0  0  0  0  0  0  0  0
  192.8690  177.0940  138.9810 C   0  0  0  0  0  3  0  0  0  0  0  0
  191.6890  177.9970  143.9180 C   0  0  0  0  0  2  0  0  0  0  0  0
  189.5720  177.7080  145.2720 C   0  0  0  0  0  3  0  0  0  0  0  0
  191.0820  177.7030  145.2900 C   0  0  1  0  0  3  0  0  0  0  0  0
  190.8910  177.3030  142.8260 C   0  0  0  0  0  2  0  0  0  0  0  0
  189.4740  177.8590  142.8590 C   0  0  2  0  0  3  0  0  0  0  0  0
  191.5350  176.4650  145.7450 O   0  0  0  0  0  1  0  0  0  0  0  0
  188.8830  177.7360  144.1790 N   0  0  0  0  0  0  0  0  0  0  0  0
  191.9930  174.4020  136.7240 C   0  0  0  0  0  0  0  0  0  0  0  0
  192.2770  173.5300  137.5930 O   0  0  0  0  0  0  0  0  0  0  0  0
  191.9290  174.0660  135.3700 O   0  0  0  0  0  0  0  0  0  0  0  0
  191.8270  172.7170  134.9400 C   0  0  0  0  0  1  0  0  0  0  0  0
  186.9020  176.0280  136.3640 C   0  0  0  0  0  2  0  0  0  0  0  0
  185.8720  175.1050  137.0350 C   0  0  2  0  0  3  0  0  0  0  0  0
  186.3280  173.7830  136.9870 O   0  0  0  0  0  0  0  0  0  0  0  0
  185.3180  173.0350  137.5940 C   0  0  0  0  0  1  0  0  0  0  0  0
  184.4700  175.2660  136.4140 C   0  0  1  0  0  3  0  0  0  0  0  0
  182.4320  175.2330  138.0080 C   0  0  0  0  0  1  0  0  0  0  0  0
  183.5050  176.0710  137.3160 C   0  0  1  0  0  3  0  0  0  0  0  0
  184.1690  176.9220  138.2280 O   0  0  0  0  0  0  0  0  0  0  0  0
  183.2550  177.3490  139.2100 C   0  0  0  0  0  2  0  0  0  0  0  0
  183.5780  179.8480  139.0930 C   0  0  0  0  0  0  0  0  0  0  0  0
  182.7730  178.6810  138.8840 N   0  0  0  0  0  0  0  0  0  0  0  0
  181.7280  181.2630  138.4130 N   0  0  0  0  0  2  0  0  0  0  0  0
  181.2690  180.1330  137.6090 C   0  0  0  0  0  2  0  0  0  0  0  0
  181.4010  178.8470  138.4190 C   0  0  0  0  0  2  0  0  0  0  0  0
  184.7490  179.7540  139.5480 O   0  0  0  0  0  0  0  0  0  0  0  0
  183.0700  181.0950  138.7210 O   0  0  0  0  0  0  0  0  0  0  0  0
  184.6190  175.9190  135.0440 C   0  0  0  0  0  2  0  0  0  0  0  0
  183.7760  177.0270  134.9570 O   0  0  0  0  0  1  0  0  0  0  0  0
  1  9  2  0  0  0  0
  3 12  1  0  0  0  0
  3 11  1  1  0  0  0
  4  2  1  6  0  0  0
  4 12  1  0  0  0  0
  5 14  2  0  0  0  0
  6 22  1  1  0  0  0
  6  5  1  0  0  0  0
  6 10  1  0  0  0  0
  7  5  1  0  0  0  0
  8 13  2  0  0  0  0
 10  8  1  6  0  0  0
 10  3  1  0  0  0  0
 12  1  2  0  0  0  0
 13  4  1  0  0  0  0
 14 11  1  0  0  0  0
 15 17  1  0  0  0  0
 16 17  1  0  0  0  0
 17 20  1  6  0  0  0
 18 19  1  0  0  0  0
 18 15  1  0  0  0  0
 19  9  1  6  0  0  0
 19 21  1  0  0  0  0
 21 16  2  0  0  0  0
 22 23  2  0  0  0  0
 24 22  1  0  0  0  0
 25 24  1  0  0  0  0
 26 13  1  0  0  0  0
 27 26  1  6  0  0  0
 28 27  1  0  0  0  0
 28 29  1  0  0  0  0
 30 42  1  6  0  0  0
 30 27  1  0  0  0  0
 30 32  1  0  0  0  0
 32 31  1  1  0  0  0
 32 33  1  0  0  0  0
 33 34  1  0  0  0  0
 35 40  2  0  0  0  0
 36 35  1  0  0  0  0
 36 34  1  0  0  0  0
 37 41  1  0  0  0  0
 38 37  1  0  0  0  0
 38 39  1  0  0  0  0
 39 36  1  0  0  0  0
 41 35  1  0  0  0  0
 43 42  1  0  0  0  0
M  END
>  <MODEL>
9

>  <REMARK>
 VINA RESULT:      -6.7      2.954      7.442
  Name = 
  12 active torsions:
  status: ('A' for Active; 'I' for Inactive)
    1  A    between atoms: C_2  and  C_6
    2  A    between atoms: C_2  and  C_38
    3  A    between atoms: C_4  and  C_15
    4  A    between atoms: C_4  and  O_22
    5  A    between atoms: O_5  and  C_18
    6  A    between atoms: C_6  and  O_12
    7  A    between atoms: C_6  and  C_15
    8  A    between atoms: C_10  and  C_15
    9  A    between atoms: N_14  and  C_41
   10  A    between atoms: C_18  and  C_21
   11  A    between atoms: O_22  and  C_41
   12  A    between atoms: C_28  and  C_35
                            x       y       z     vdW  Elec       q    Type
                         _______ _______ _______ _____ _____    ______ ____

>  <TORSDO>
F 12

$$$$
