=
 OpenBabel10262419293D

 31 34  0  0  1  0  0  0  0  0999 V2000
  193.0440  176.7880  138.1500 C   0  0  0  0  0  0  0  0  0  0  0  0
  189.3130  176.8060  138.8450 C   0  0  0  0  0  0  0  0  0  0  0  0
  190.7860  176.9070  139.0020 C   0  0  0  0  0  0  0  0  0  0  0  0
  193.5230  177.0830  139.3880 N   0  0  0  0  0  0  0  0  0  0  0  0
  189.0430  177.9250  140.9900 C   0  0  1  0  0  3  0  0  0  0  0  0
  193.9460  176.5750  137.0720 N   0  0  0  0  0  1  0  0  0  0  0  0
  190.3880  177.3470  141.4430 C   0  0  0  0  0  2  0  0  0  0  0  0
  188.5390  177.2290  139.8040 N   0  0  0  0  0  0  0  0  0  0  0  0
  191.6670  176.6890  137.9360 C   0  0  0  0  0  3  0  0  0  0  0  0
  191.3070  177.2120  140.2690 C   0  0  0  0  0  0  0  0  0  0  0  0
  192.6910  177.2870  140.4450 C   0  0  0  0  0  3  0  0  0  0  0  0
  188.7020  176.1860  137.6480 C   0  0  0  0  0  0  0  0  0  0  0  0
  188.7590  174.3370  135.9230 C   0  0  0  0  0  2  0  0  0  0  0  0
  189.0650  174.7490  137.3570 C   0  0  0  0  0  2  0  0  0  0  0  0
  187.3280  174.7230  135.5970 C   0  0  0  0  0  2  0  0  0  0  0  0
  187.2000  176.2400  135.6460 C   0  0  0  0  0  2  0  0  0  0  0  0
  187.7770  176.8410  136.9030 C   0  0  0  0  0  0  0  0  0  0  0  0
  187.3440  178.2380  137.2370 C   0  0  0  0  0  2  0  0  0  0  0  0
  185.7500  178.8400  138.9170 O   0  0  0  0  0  1  0  0  0  0  0  0
  185.8780  178.2810  137.6450 C   0  0  0  0  0  2  0  0  0  0  0  0
  188.0150  177.8460  142.1060 C   0  0  0  0  0  2  0  0  0  0  0  0
  188.7590  175.6820  142.7090 O   0  0  0  0  0  0  0  0  0  0  0  0
  188.4110  176.8200  143.1220 C   0  0  0  0  0  0  0  0  0  0  0  0
  188.2700  177.7730  147.3190 C   0  0  0  0  0  0  0  0  0  0  0  0
  187.1800  177.4420  145.1890 C   0  0  0  0  0  3  0  0  0  0  0  0
  190.9410  176.8770  144.8190 C   0  0  0  0  0  1  0  0  0  0  0  0
  188.1970  178.1050  148.7650 C   0  0  0  0  0  1  0  0  0  0  0  0
  187.1100  177.7530  146.5480 C   0  0  0  0  0  3  0  0  0  0  0  0
  189.5840  177.1680  145.3690 C   0  0  0  0  0  0  0  0  0  0  0  0
  188.4090  177.1440  144.5740 C   0  0  0  0  0  0  0  0  0  0  0  0
  189.5010  177.4820  146.7300 C   0  0  0  0  0  3  0  0  0  0  0  0
  1  4  1  0  0  0  0
  2  3  1  0  0  0  0
  2  8  2  0  0  0  0
  3 10  2  0  0  0  0
  4 11  2  0  0  0  0
  5  7  1  0  0  0  0
  5 21  1  1  0  0  0
  6  1  1  0  0  0  0
  8  5  1  0  0  0  0
  9  1  2  0  0  0  0
  9  3  1  0  0  0  0
 10 11  1  0  0  0  0
 10  7  1  0  0  0  0
 12  2  1  0  0  0  0
 13 14  1  0  0  0  0
 14 12  1  0  0  0  0
 15 16  1  0  0  0  0
 15 13  1  0  0  0  0
 16 17  1  0  0  0  0
 17 18  1  0  0  0  0
 17 12  2  0  0  0  0
 18 20  1  0  0  0  0
 20 19  1  0  0  0  0
 21 23  1  0  0  0  0
 22 23  2  0  0  0  0
 23 30  1  0  0  0  0
 24 27  1  0  0  0  0
 25 28  1  0  0  0  0
 26 29  1  0  0  0  0
 28 24  2  0  0  0  0
 29 31  2  0  0  0  0
 30 25  2  0  0  0  0
 30 29  1  0  0  0  0
 31 24  1  0  0  0  0
M  END
>  <MODEL>
1

>  <REMARK>
 VINA RESULT:      -9.2      0.000      0.000
  Name = 
  6 active torsions:
  status: ('A' for Active; 'I' for Inactive)
    1  A    between atoms: C_4  and  C_5
    2  A    between atoms: C_9  and  C_22
    3  A    between atoms: C_9  and  C_23
    4  A    between atoms: C_15  and  C_23
    5  A    between atoms: C_29  and  C_31
    6  A    between atoms: C_30  and  C_31
                            x       y       z     vdW  Elec       q    Type
                         _______ _______ _______ _____ _____    ______ ____

>  <TORSDO>
F 6

$$$$
=
 OpenBabel10262419293D

 31 34  0  0  1  0  0  0  0  0999 V2000
  180.6260  178.6020  143.2260 C   0  0  0  0  0  0  0  0  0  0  0  0
  183.4230  178.6460  140.6610 C   0  0  0  0  0  0  0  0  0  0  0  0
  182.6700  178.6870  141.9400 C   0  0  0  0  0  0  0  0  0  0  0  0
  181.3390  178.8110  144.3650 N   0  0  0  0  0  0  0  0  0  0  0  0
  185.4870  178.3850  141.9250 C   0  0  1  0  0  3  0  0  0  0  0  0
  179.2140  178.4490  143.2900 N   0  0  0  0  0  1  0  0  0  0  0  0
  184.8550  179.1600  143.0870 C   0  0  0  0  0  2  0  0  0  0  0  0
  184.7230  178.5670  140.6890 N   0  0  0  0  0  0  0  0  0  0  0  0
  181.2780  178.5430  141.9920 C   0  0  0  0  0  3  0  0  0  0  0  0
  183.3810  178.8990  143.1320 C   0  0  0  0  0  0  0  0  0  0  0  0
  182.6900  178.9680  144.3440 C   0  0  0  0  0  3  0  0  0  0  0  0
  182.7360  178.7480  139.3540 C   0  0  0  0  0  0  0  0  0  0  0  0
  181.4650  180.1820  137.7030 C   0  0  0  0  0  2  0  0  0  0  0  0
  182.5300  180.1340  138.7920 C   0  0  0  0  0  2  0  0  0  0  0  0
  181.7650  179.1050  136.6770 C   0  0  0  0  0  2  0  0  0  0  0  0
  181.6420  177.7390  137.3410 C   0  0  0  0  0  2  0  0  0  0  0  0
  182.4000  177.6430  138.6420 C   0  0  0  0  0  0  0  0  0  0  0  0
  182.6820  176.2610  139.1520 C   0  0  0  0  0  2  0  0  0  0  0  0
  180.5190  175.7590  140.0440 O   0  0  0  0  0  1  0  0  0  0  0  0
  181.4450  175.3780  139.0720 C   0  0  0  0  0  2  0  0  0  0  0  0
  186.9270  178.8170  141.7060 C   0  0  0  0  0  2  0  0  0  0  0  0
  188.4480  177.0250  141.4390 O   0  0  0  0  0  0  0  0  0  0  0  0
  187.8770  177.7990  142.2530 C   0  0  0  0  0  0  0  0  0  0  0  0
  188.5420  177.5180  146.4980 C   0  0  0  0  0  0  0  0  0  0  0  0
  187.1180  177.2800  144.5620 C   0  0  0  0  0  3  0  0  0  0  0  0
  190.5610  178.5430  143.4890 C   0  0  0  0  0  1  0  0  0  0  0  0
  188.7480  177.4130  147.9650 C   0  0  0  0  0  1  0  0  0  0  0  0
  187.3100  177.1800  145.9410 C   0  0  0  0  0  3  0  0  0  0  0  0
  189.4010  178.0590  144.2920 C   0  0  0  0  0  0  0  0  0  0  0  0
  188.1510  177.7170  143.7130 C   0  0  0  0  0  0  0  0  0  0  0  0
  189.5810  177.9550  145.6760 C   0  0  0  0  0  3  0  0  0  0  0  0
  1  6  1  0  0  0  0
  1  4  1  0  0  0  0
  2  8  2  0  0  0  0
  2  3  1  0  0  0  0
  3  9  1  0  0  0  0
  3 10  2  0  0  0  0
  5 21  1  6  0  0  0
  5  7  1  0  0  0  0
  7 10  1  0  0  0  0
  8  5  1  0  0  0  0
  9  1  2  0  0  0  0
 10 11  1  0  0  0  0
 11  4  2  0  0  0  0
 12  2  1  0  0  0  0
 13 14  1  0  0  0  0
 14 12  1  0  0  0  0
 15 16  1  0  0  0  0
 15 13  1  0  0  0  0
 16 17  1  0  0  0  0
 17 18  1  0  0  0  0
 17 12  2  0  0  0  0
 20 18  1  0  0  0  0
 20 19  1  0  0  0  0
 21 23  1  0  0  0  0
 22 23  2  0  0  0  0
 23 30  1  0  0  0  0
 24 27  1  0  0  0  0
 25 28  2  0  0  0  0
 26 29  1  0  0  0  0
 28 24  1  0  0  0  0
 29 31  1  0  0  0  0
 30 29  2  0  0  0  0
 30 25  1  0  0  0  0
 31 24  2  0  0  0  0
M  END
>  <MODEL>
2

>  <REMARK>
 VINA RESULT:      -9.1      4.458      7.121
  Name = 
  6 active torsions:
  status: ('A' for Active; 'I' for Inactive)
    1  A    between atoms: C_4  and  C_5
    2  A    between atoms: C_9  and  C_22
    3  A    between atoms: C_9  and  C_23
    4  A    between atoms: C_15  and  C_23
    5  A    between atoms: C_29  and  C_31
    6  A    between atoms: C_30  and  C_31
                            x       y       z     vdW  Elec       q    Type
                         _______ _______ _______ _____ _____    ______ ____

>  <TORSDO>
F 6

$$$$
=
 OpenBabel10262419293D

 31 34  0  0  1  0  0  0  0  0999 V2000
  186.1860  178.6390  146.6150 C   0  0  0  0  0  0  0  0  0  0  0  0
  186.5360  177.9340  142.9030 C   0  0  0  0  0  0  0  0  0  0  0  0
  185.9750  178.2600  144.2390 C   0  0  0  0  0  0  0  0  0  0  0  0
  184.8430  178.8390  146.6980 N   0  0  0  0  0  0  0  0  0  0  0  0
  184.4590  178.6900  141.8850 C   0  0  1  0  0  3  0  0  0  0  0  0
  186.9910  178.7300  147.7840 N   0  0  0  0  0  1  0  0  0  0  0  0
  183.7070  178.2900  143.1590 C   0  0  0  0  0  2  0  0  0  0  0  0
  185.7920  178.0860  141.8440 N   0  0  0  0  0  0  0  0  0  0  0  0
  186.7750  178.3390  145.3850 C   0  0  0  0  0  3  0  0  0  0  0  0
  184.5920  178.4730  144.3520 C   0  0  0  0  0  0  0  0  0  0  0  0
  184.0400  178.7550  145.6040 C   0  0  0  0  0  3  0  0  0  0  0  0
  187.9030  177.3880  142.7490 C   0  0  0  0  0  0  0  0  0  0  0  0
  189.9000  176.2660  143.8230 C   0  0  0  0  0  2  0  0  0  0  0  0
  188.3860  176.4310  143.8140 C   0  0  0  0  0  2  0  0  0  0  0  0
  190.3680  175.9550  142.4130 C   0  0  0  0  0  2  0  0  0  0  0  0
  190.0700  177.1500  141.5160 C   0  0  0  0  0  2  0  0  0  0  0  0
  188.6520  177.6500  141.6490 C   0  0  0  0  0  0  0  0  0  0  0  0
  188.1460  178.5280  140.5420 C   0  0  0  0  0  2  0  0  0  0  0  0
  188.9900  179.3710  138.4680 O   0  0  0  0  0  1  0  0  0  0  0  0
  188.8330  178.2080  139.2230 C   0  0  0  0  0  2  0  0  0  0  0  0
  183.6760  178.2870  140.6450 C   0  0  0  0  0  2  0  0  0  0  0  0
  184.5190  180.1710  139.4890 O   0  0  0  0  0  0  0  0  0  0  0  0
  184.2390  178.9450  139.4250 C   0  0  0  0  0  0  0  0  0  0  0  0
  185.0600  176.7100  135.8360 C   0  0  0  0  0  0  0  0  0  0  0  0
  185.8030  177.9820  137.7490 C   0  0  0  0  0  3  0  0  0  0  0  0
  181.9900  177.7400  137.7590 C   0  0  0  0  0  1  0  0  0  0  0  0
  185.3660  175.9420  134.6020 C   0  0  0  0  0  1  0  0  0  0  0  0
  186.0930  177.2610  136.5900 C   0  0  0  0  0  3  0  0  0  0  0  0
  183.4320  177.5990  137.4030 C   0  0  0  0  0  0  0  0  0  0  0  0
  184.4770  178.1650  138.1790 C   0  0  0  0  0  0  0  0  0  0  0  0
  183.7350  176.8790  136.2420 C   0  0  0  0  0  3  0  0  0  0  0  0
  1  4  1  0  0  0  0
  1  6  1  0  0  0  0
  2  3  1  0  0  0  0
  3 10  2  0  0  0  0
  3  9  1  0  0  0  0
  5 21  1  6  0  0  0
  5  7  1  0  0  0  0
  7 10  1  0  0  0  0
  8  5  1  0  0  0  0
  8  2  2  0  0  0  0
  9  1  2  0  0  0  0
 10 11  1  0  0  0  0
 11  4  2  0  0  0  0
 12  2  1  0  0  0  0
 12 14  1  0  0  0  0
 14 13  1  0  0  0  0
 15 13  1  0  0  0  0
 16 17  1  0  0  0  0
 16 15  1  0  0  0  0
 17 12  2  0  0  0  0
 18 17  1  0  0  0  0
 19 20  1  0  0  0  0
 20 18  1  0  0  0  0
 23 22  2  0  0  0  0
 23 21  1  0  0  0  0
 24 31  2  0  0  0  0
 24 28  1  0  0  0  0
 25 30  1  0  0  0  0
 27 24  1  0  0  0  0
 28 25  2  0  0  0  0
 29 26  1  0  0  0  0
 29 30  2  0  0  0  0
 30 23  1  0  0  0  0
 31 29  1  0  0  0  0
M  END
>  <MODEL>
3

>  <REMARK>
 VINA RESULT:      -8.9      3.345      8.394
  Name = 
  6 active torsions:
  status: ('A' for Active; 'I' for Inactive)
    1  A    between atoms: C_4  and  C_5
    2  A    between atoms: C_9  and  C_22
    3  A    between atoms: C_9  and  C_23
    4  A    between atoms: C_15  and  C_23
    5  A    between atoms: C_29  and  C_31
    6  A    between atoms: C_30  and  C_31
                            x       y       z     vdW  Elec       q    Type
                         _______ _______ _______ _____ _____    ______ ____

>  <TORSDO>
F 6

$$$$
=
 OpenBabel10262419293D

 31 34  0  0  1  0  0  0  0  0999 V2000
  188.5180  177.2490  147.0670 C   0  0  0  0  0  0  0  0  0  0  0  0
  187.1580  178.0740  143.6210 C   0  0  0  0  0  0  0  0  0  0  0  0
  188.0740  177.7730  144.7500 C   0  0  0  0  0  0  0  0  0  0  0  0
  189.8530  177.2530  146.8080 N   0  0  0  0  0  0  0  0  0  0  0  0
  188.9990  177.6970  142.0730 C   0  0  1  0  0  3  0  0  0  0  0  0
  188.0500  176.9790  148.3820 N   0  0  0  0  0  1  0  0  0  0  0  0
  189.9830  178.1440  143.1600 C   0  0  0  0  0  2  0  0  0  0  0  0
  187.6280  178.0900  142.4050 N   0  0  0  0  0  0  0  0  0  0  0  0
  187.6040  177.5150  146.0440 C   0  0  0  0  0  3  0  0  0  0  0  0
  189.4570  177.7690  144.5100 C   0  0  0  0  0  0  0  0  0  0  0  0
  190.3380  177.5140  145.5640 C   0  0  0  0  0  3  0  0  0  0  0  0
  185.7350  178.4110  143.8460 C   0  0  0  0  0  0  0  0  0  0  0  0
  183.8340  178.7100  145.4880 C   0  0  0  0  0  2  0  0  0  0  0  0
  185.3350  178.8070  145.2480 C   0  0  0  0  0  2  0  0  0  0  0  0
  183.1120  179.4490  144.3760 C   0  0  0  0  0  2  0  0  0  0  0  0
  183.3830  178.7420  143.0540 C   0  0  0  0  0  2  0  0  0  0  0  0
  184.8470  178.4640  142.8220 C   0  0  0  0  0  0  0  0  0  0  0  0
  185.2550  178.1600  141.4100 C   0  0  0  0  0  2  0  0  0  0  0  0
  184.7330  179.8190  139.7670 O   0  0  0  0  0  1  0  0  0  0  0  0
  184.2340  178.6870  140.4130 C   0  0  0  0  0  2  0  0  0  0  0  0
  189.3840  178.2750  140.7220 C   0  0  0  0  0  2  0  0  0  0  0  0
  190.0970  176.1480  139.9720 O   0  0  0  0  0  0  0  0  0  0  0  0
  189.4640  177.1980  139.6860 C   0  0  0  0  0  0  0  0  0  0  0  0
  187.4250  177.7040  135.9260 C   0  0  0  0  0  0  0  0  0  0  0  0
  187.4570  177.7820  138.3390 C   0  0  0  0  0  3  0  0  0  0  0  0
  190.8650  176.6470  137.0370 C   0  0  0  0  0  1  0  0  0  0  0  0
  186.7020  177.8850  134.6410 C   0  0  0  0  0  1  0  0  0  0  0  0
  186.7760  177.9540  137.1330 C   0  0  0  0  0  3  0  0  0  0  0  0
  189.4490  177.1080  137.1280 C   0  0  0  0  0  0  0  0  0  0  0  0
  188.7980  177.3600  138.3640 C   0  0  0  0  0  0  0  0  0  0  0  0
  188.7560  177.2830  135.9250 C   0  0  0  0  0  3  0  0  0  0  0  0
  1  6  1  0  0  0  0
  2 12  1  0  0  0  0
  2  3  1  0  0  0  0
  3  9  1  0  0  0  0
  4  1  1  0  0  0  0
  5 21  1  6  0  0  0
  5  8  1  0  0  0  0
  5  7  1  0  0  0  0
  7 10  1  0  0  0  0
  8  2  2  0  0  0  0
  9  1  2  0  0  0  0
 10  3  2  0  0  0  0
 10 11  1  0  0  0  0
 11  4  2  0  0  0  0
 12 14  1  0  0  0  0
 14 13  1  0  0  0  0
 15 13  1  0  0  0  0
 16 15  1  0  0  0  0
 17 16  1  0  0  0  0
 17 12  2  0  0  0  0
 18 17  1  0  0  0  0
 19 20  1  0  0  0  0
 20 18  1  0  0  0  0
 23 22  2  0  0  0  0
 23 21  1  0  0  0  0
 24 28  1  0  0  0  0
 25 30  1  0  0  0  0
 26 29  1  0  0  0  0
 27 24  1  0  0  0  0
 28 25  2  0  0  0  0
 29 30  2  0  0  0  0
 30 23  1  0  0  0  0
 31 24  2  0  0  0  0
 31 29  1  0  0  0  0
M  END
>  <MODEL>
4

>  <REMARK>
 VINA RESULT:      -8.8      2.926      7.798
  Name = 
  6 active torsions:
  status: ('A' for Active; 'I' for Inactive)
    1  A    between atoms: C_4  and  C_5
    2  A    between atoms: C_9  and  C_22
    3  A    between atoms: C_9  and  C_23
    4  A    between atoms: C_15  and  C_23
    5  A    between atoms: C_29  and  C_31
    6  A    between atoms: C_30  and  C_31
                            x       y       z     vdW  Elec       q    Type
                         _______ _______ _______ _____ _____    ______ ____

>  <TORSDO>
F 6

$$$$
=
 OpenBabel10262419293D

 31 34  0  0  1  0  0  0  0  0999 V2000
  185.9210  178.6340  146.5460 C   0  0  0  0  0  0  0  0  0  0  0  0
  186.3670  177.9560  142.8390 C   0  0  0  0  0  0  0  0  0  0  0  0
  185.7720  178.2690  144.1630 C   0  0  0  0  0  0  0  0  0  0  0  0
  184.5750  178.8250  146.5970 N   0  0  0  0  0  0  0  0  0  0  0  0
  184.3100  178.7040  141.7750 C   0  0  1  0  0  3  0  0  0  0  0  0
  186.6970  178.7230  147.7350 N   0  0  0  0  0  1  0  0  0  0  0  0
  183.5300  178.2910  143.0280 C   0  0  0  0  0  2  0  0  0  0  0  0
  185.6480  178.1100  141.7630 N   0  0  0  0  0  0  0  0  0  0  0  0
  186.5430  178.3470  145.3290 C   0  0  0  0  0  3  0  0  0  0  0  0
  184.3850  178.4720  144.2440 C   0  0  0  0  0  0  0  0  0  0  0  0
  183.8000  178.7420  145.4830 C   0  0  0  0  0  3  0  0  0  0  0  0
  187.7410  177.4210  142.7150 C   0  0  0  0  0  0  0  0  0  0  0  0
  189.7070  176.2760  143.8220 C   0  0  0  0  0  2  0  0  0  0  0  0
  188.1930  176.4350  143.7670 C   0  0  0  0  0  2  0  0  0  0  0  0
  190.2230  176.0090  142.4200 C   0  0  0  0  0  2  0  0  0  0  0  0
  189.9500  177.2290  141.5500 C   0  0  0  0  0  2  0  0  0  0  0  0
  188.5260  177.7190  141.6490 C   0  0  0  0  0  0  0  0  0  0  0  0
  188.0530  178.6270  140.5530 C   0  0  0  0  0  2  0  0  0  0  0  0
  188.9860  179.3770  138.4810 O   0  0  0  0  0  1  0  0  0  0  0  0
  188.6530  178.2350  139.2110 C   0  0  0  0  0  2  0  0  0  0  0  0
  183.5610  178.3040  140.5140 C   0  0  0  0  0  2  0  0  0  0  0  0
  184.9340  179.7570  139.2500 O   0  0  0  0  0  0  0  0  0  0  0  0
  183.7690  179.3140  139.4300 C   0  0  0  0  0  0  0  0  0  0  0  0
  180.4910  180.7410  137.0300 C   0  0  0  0  0  0  0  0  0  0  0  0
  182.1630  181.0800  138.7380 C   0  0  0  0  0  3  0  0  0  0  0  0
  182.4140  177.5210  137.3720 C   0  0  0  0  0  1  0  0  0  0  0  0
  179.3620  181.2550  136.2130 C   0  0  0  0  0  1  0  0  0  0  0  0
  181.1020  181.5650  137.9710 C   0  0  0  0  0  3  0  0  0  0  0  0
  182.0030  178.9340  137.6170 C   0  0  0  0  0  0  0  0  0  0  0  0
  182.6340  179.7650  138.5790 C   0  0  0  0  0  0  0  0  0  0  0  0
  180.9400  179.4320  136.8540 C   0  0  0  0  0  3  0  0  0  0  0  0
  1  4  1  0  0  0  0
  1  6  1  0  0  0  0
  2  3  1  0  0  0  0
  3 10  2  0  0  0  0
  3  9  1  0  0  0  0
  5 21  1  6  0  0  0
  5  7  1  0  0  0  0
  7 10  1  0  0  0  0
  8  5  1  0  0  0  0
  8  2  2  0  0  0  0
  9  1  2  0  0  0  0
 10 11  1  0  0  0  0
 11  4  2  0  0  0  0
 12  2  1  0  0  0  0
 12 14  1  0  0  0  0
 14 13  1  0  0  0  0
 15 13  1  0  0  0  0
 16 17  1  0  0  0  0
 16 15  1  0  0  0  0
 17 12  2  0  0  0  0
 18 17  1  0  0  0  0
 19 20  1  0  0  0  0
 20 18  1  0  0  0  0
 22 23  2  0  0  0  0
 23 21  1  0  0  0  0
 24 28  1  0  0  0  0
 26 29  1  0  0  0  0
 27 24  1  0  0  0  0
 28 25  2  0  0  0  0
 29 30  2  0  0  0  0
 30 25  1  0  0  0  0
 30 23  1  0  0  0  0
 31 24  2  0  0  0  0
 31 29  1  0  0  0  0
M  END
>  <MODEL>
5

>  <REMARK>
 VINA RESULT:      -8.7      3.903      8.765
  Name = 
  6 active torsions:
  status: ('A' for Active; 'I' for Inactive)
    1  A    between atoms: C_4  and  C_5
    2  A    between atoms: C_9  and  C_22
    3  A    between atoms: C_9  and  C_23
    4  A    between atoms: C_15  and  C_23
    5  A    between atoms: C_29  and  C_31
    6  A    between atoms: C_30  and  C_31
                            x       y       z     vdW  Elec       q    Type
                         _______ _______ _______ _____ _____    ______ ____

>  <TORSDO>
F 6

$$$$
=
 OpenBabel10262419293D

 31 34  0  0  1  0  0  0  0  0999 V2000
  188.8660  177.0850  146.3210 C   0  0  0  0  0  0  0  0  0  0  0  0
  186.9830  178.1240  143.1940 C   0  0  0  0  0  0  0  0  0  0  0  0
  188.0640  177.7560  144.1430 C   0  0  0  0  0  0  0  0  0  0  0  0
  190.1430  177.1160  145.8550 N   0  0  0  0  0  0  0  0  0  0  0  0
  188.5550  177.8630  141.3550 C   0  0  1  0  0  3  0  0  0  0  0  0
  188.6110  176.7240  147.6720 N   0  0  0  0  0  1  0  0  0  0  0  0
  189.6990  178.2460  142.3000 C   0  0  0  0  0  2  0  0  0  0  0  0
  187.2540  178.2230  141.9240 N   0  0  0  0  0  0  0  0  0  0  0  0
  187.8030  177.4100  145.4740 C   0  0  0  0  0  3  0  0  0  0  0  0
  189.3920  177.7780  143.6880 C   0  0  0  0  0  0  0  0  0  0  0  0
  190.4270  177.4610  144.5710 C   0  0  0  0  0  3  0  0  0  0  0  0
  185.6130  178.4340  143.6630 C   0  0  0  0  0  0  0  0  0  0  0  0
  184.0470  178.8170  145.6120 C   0  0  0  0  0  2  0  0  0  0  0  0
  185.4690  178.9400  145.0790 C   0  0  0  0  0  2  0  0  0  0  0  0
  183.0920  179.4320  144.6050 C   0  0  0  0  0  2  0  0  0  0  0  0
  183.1400  178.6200  143.3170 C   0  0  0  0  0  2  0  0  0  0  0  0
  184.5460  178.3690  142.8280 C   0  0  0  0  0  0  0  0  0  0  0  0
  184.6920  177.9540  141.3940 C   0  0  0  0  0  2  0  0  0  0  0  0
  184.9000  179.6360  139.7060 O   0  0  0  0  0  1  0  0  0  0  0  0
  183.9730  178.9180  140.4620 C   0  0  0  0  0  2  0  0  0  0  0  0
  188.7240  178.5320  140.0000 C   0  0  0  0  0  2  0  0  0  0  0  0
  187.3120  177.2560  138.5950 O   0  0  0  0  0  0  0  0  0  0  0  0
  188.5000  177.5520  138.8920 C   0  0  0  0  0  0  0  0  0  0  0  0
  191.8750  175.8000  136.8710 C   0  0  0  0  0  0  0  0  0  0  0  0
  190.6600  176.3220  138.8920 C   0  0  0  0  0  3  0  0  0  0  0  0
  188.7670  177.6710  135.8590 C   0  0  0  0  0  1  0  0  0  0  0  0
  193.0480  175.1890  136.1960 C   0  0  0  0  0  1  0  0  0  0  0  0
  191.7620  175.7460  138.2590 C   0  0  0  0  0  3  0  0  0  0  0  0
  189.7740  177.0100  136.7400 C   0  0  0  0  0  0  0  0  0  0  0  0
  189.6480  176.9610  138.1520 C   0  0  0  0  0  0  0  0  0  0  0  0
  190.8850  176.4300  136.1170 C   0  0  0  0  0  3  0  0  0  0  0  0
  1  6  1  0  0  0  0
  2 12  1  0  0  0  0
  2  3  1  0  0  0  0
  3  9  1  0  0  0  0
  4  1  1  0  0  0  0
  5 21  1  6  0  0  0
  5  8  1  0  0  0  0
  5  7  1  0  0  0  0
  7 10  1  0  0  0  0
  8  2  2  0  0  0  0
  9  1  2  0  0  0  0
 10  3  2  0  0  0  0
 10 11  1  0  0  0  0
 11  4  2  0  0  0  0
 12 14  1  0  0  0  0
 14 13  1  0  0  0  0
 15 13  1  0  0  0  0
 16 15  1  0  0  0  0
 17 16  1  0  0  0  0
 17 12  2  0  0  0  0
 18 17  1  0  0  0  0
 19 20  1  0  0  0  0
 20 18  1  0  0  0  0
 22 23  2  0  0  0  0
 23 21  1  0  0  0  0
 24 28  1  0  0  0  0
 26 29  1  0  0  0  0
 27 24  1  0  0  0  0
 28 25  2  0  0  0  0
 29 30  2  0  0  0  0
 30 25  1  0  0  0  0
 30 23  1  0  0  0  0
 31 29  1  0  0  0  0
 31 24  2  0  0  0  0
M  END
>  <MODEL>
6

>  <REMARK>
 VINA RESULT:      -8.6      2.830      7.729
  Name = 
  6 active torsions:
  status: ('A' for Active; 'I' for Inactive)
    1  A    between atoms: C_4  and  C_5
    2  A    between atoms: C_9  and  C_22
    3  A    between atoms: C_9  and  C_23
    4  A    between atoms: C_15  and  C_23
    5  A    between atoms: C_29  and  C_31
    6  A    between atoms: C_30  and  C_31
                            x       y       z     vdW  Elec       q    Type
                         _______ _______ _______ _____ _____    ______ ____

>  <TORSDO>
F 6

$$$$
=
 OpenBabel10262419293D

 31 34  0  0  1  0  0  0  0  0999 V2000
  184.3860  178.7890  144.4040 C   0  0  0  0  0  0  0  0  0  0  0  0
  188.0320  177.9800  143.7310 C   0  0  0  0  0  0  0  0  0  0  0  0
  186.5880  178.2780  143.5530 C   0  0  0  0  0  0  0  0  0  0  0  0
  183.9000  178.7930  143.1330 N   0  0  0  0  0  0  0  0  0  0  0  0
  188.3720  178.3770  141.3540 C   0  0  1  0  0  3  0  0  0  0  0  0
  183.5150  179.0480  145.4970 N   0  0  0  0  0  1  0  0  0  0  0  0
  186.9310  177.9270  141.0890 C   0  0  0  0  0  2  0  0  0  0  0  0
  188.8160  177.9740  142.6900 N   0  0  0  0  0  0  0  0  0  0  0  0
  185.7370  178.5250  144.6370 C   0  0  0  0  0  3  0  0  0  0  0  0
  186.0610  178.2910  142.2510 C   0  0  0  0  0  0  0  0  0  0  0  0
  184.7010  178.5440  142.0620 C   0  0  0  0  0  3  0  0  0  0  0  0
  188.5930  177.6340  145.0560 C   0  0  0  0  0  0  0  0  0  0  0  0
  188.3120  177.6230  147.5700 C   0  0  0  0  0  2  0  0  0  0  0  0
  187.6250  177.5480  146.2130 C   0  0  0  0  0  2  0  0  0  0  0  0
  189.4480  176.6170  147.6010 C   0  0  0  0  0  2  0  0  0  0  0  0
  190.4930  177.0170  146.5670 C   0  0  0  0  0  2  0  0  0  0  0  0
  189.9010  177.3060  145.2090 C   0  0  0  0  0  0  0  0  0  0  0  0
  190.8520  177.3020  144.0500 C   0  0  0  0  0  2  0  0  0  0  0  0
  190.6070  175.1910  142.9500 O   0  0  0  0  0  1  0  0  0  0  0  0
  191.4310  175.9140  143.8130 C   0  0  0  0  0  2  0  0  0  0  0  0
  189.3180  177.8090  140.3080 C   0  0  0  0  0  2  0  0  0  0  0  0
  188.9240  179.3600  138.5660 O   0  0  0  0  0  0  0  0  0  0  0  0
  188.8550  178.1560  138.9280 C   0  0  0  0  0  0  0  0  0  0  0  0
  187.4960  175.0480  136.2750 C   0  0  0  0  0  0  0  0  0  0  0  0
  189.2000  176.0410  137.6690 C   0  0  0  0  0  3  0  0  0  0  0  0
  186.0500  178.2020  137.7380 C   0  0  0  0  0  1  0  0  0  0  0  0
  187.0500  173.9650  135.3620 C   0  0  0  0  0  1  0  0  0  0  0  0
  188.7820  175.0220  136.8110 C   0  0  0  0  0  3  0  0  0  0  0  0
  187.0370  177.1200  137.4550 C   0  0  0  0  0  0  0  0  0  0  0  0
  188.3440  177.1030  138.0080 C   0  0  0  0  0  0  0  0  0  0  0  0
  186.6290  176.0930  136.5950 C   0  0  0  0  0  3  0  0  0  0  0  0
  1  9  1  0  0  0  0
  1  6  1  0  0  0  0
  2 12  1  0  0  0  0
  3  2  1  0  0  0  0
  3  9  2  0  0  0  0
  4  1  2  0  0  0  0
  5 21  1  6  0  0  0
  5  8  1  0  0  0  0
  7  5  1  0  0  0  0
  7 10  1  0  0  0  0
  8  2  2  0  0  0  0
 10  3  1  0  0  0  0
 11 10  2  0  0  0  0
 11  4  1  0  0  0  0
 12 17  2  0  0  0  0
 12 14  1  0  0  0  0
 13 15  1  0  0  0  0
 14 13  1  0  0  0  0
 16 15  1  0  0  0  0
 17 16  1  0  0  0  0
 18 17  1  0  0  0  0
 19 20  1  0  0  0  0
 20 18  1  0  0  0  0
 22 23  2  0  0  0  0
 23 21  1  0  0  0  0
 24 31  2  0  0  0  0
 24 28  1  0  0  0  0
 25 30  1  0  0  0  0
 27 24  1  0  0  0  0
 28 25  2  0  0  0  0
 29 26  1  0  0  0  0
 29 30  2  0  0  0  0
 30 23  1  0  0  0  0
 31 29  1  0  0  0  0
M  END
>  <MODEL>
7

>  <REMARK>
 VINA RESULT:      -8.5      2.408      8.752
  Name = 
  6 active torsions:
  status: ('A' for Active; 'I' for Inactive)
    1  A    between atoms: C_4  and  C_5
    2  A    between atoms: C_9  and  C_22
    3  A    between atoms: C_9  and  C_23
    4  A    between atoms: C_15  and  C_23
    5  A    between atoms: C_29  and  C_31
    6  A    between atoms: C_30  and  C_31
                            x       y       z     vdW  Elec       q    Type
                         _______ _______ _______ _____ _____    ______ ____

>  <TORSDO>
F 6

$$$$
=
 OpenBabel10262419293D

 31 34  0  0  1  0  0  0  0  0999 V2000
  185.2230  178.7750  146.0410 C   0  0  0  0  0  0  0  0  0  0  0  0
  186.3530  178.1710  142.4690 C   0  0  0  0  0  0  0  0  0  0  0  0
  185.5230  178.4700  143.6630 C   0  0  0  0  0  0  0  0  0  0  0  0
  183.8970  179.0030  145.8400 N   0  0  0  0  0  0  0  0  0  0  0  0
  184.5560  179.0030  141.0540 C   0  0  1  0  0  3  0  0  0  0  0  0
  185.7590  178.8130  147.3570 N   0  0  0  0  0  1  0  0  0  0  0  0
  183.5410  178.5830  142.1230 C   0  0  0  0  0  2  0  0  0  0  0  0
  185.8570  178.3710  141.2800 N   0  0  0  0  0  0  0  0  0  0  0  0
  186.0590  178.4980  144.9560 C   0  0  0  0  0  3  0  0  0  0  0  0
  184.1520  178.7110  143.4840 C   0  0  0  0  0  0  0  0  0  0  0  0
  183.3470  178.9680  144.5960 C   0  0  0  0  0  3  0  0  0  0  0  0
  187.7130  177.6000  142.5930 C   0  0  0  0  0  0  0  0  0  0  0  0
  189.4040  176.3770  144.0230 C   0  0  0  0  0  2  0  0  0  0  0  0
  187.9320  176.5790  143.6850 C   0  0  0  0  0  2  0  0  0  0  0  0
  190.1710  176.1250  142.7370 C   0  0  0  0  0  2  0  0  0  0  0  0
  190.0970  177.3700  141.8630 C   0  0  0  0  0  2  0  0  0  0  0  0
  188.6930  177.8980  141.7040 C   0  0  0  0  0  0  0  0  0  0  0  0
  188.4580  178.8430  140.5620 C   0  0  0  0  0  2  0  0  0  0  0  0
  189.0550  179.2540  138.2820 O   0  0  0  0  0  1  0  0  0  0  0  0
  188.9440  178.2520  139.2460 C   0  0  0  0  0  2  0  0  0  0  0  0
  184.0530  178.6550  139.6630 C   0  0  0  0  0  2  0  0  0  0  0  0
  182.1290  179.9740  139.2670 O   0  0  0  0  0  0  0  0  0  0  0  0
  182.5700  178.8340  139.5730 C   0  0  0  0  0  0  0  0  0  0  0  0
  179.9790  175.4550  140.2180 C   0  0  0  0  0  0  0  0  0  0  0  0
  181.9610  176.4450  139.2560 C   0  0  0  0  0  3  0  0  0  0  0  0
  180.0290  179.0800  141.2380 C   0  0  0  0  0  1  0  0  0  0  0  0
  179.1010  174.2760  140.4270 C   0  0  0  0  0  1  0  0  0  0  0  0
  181.1370  175.3360  139.4520 C   0  0  0  0  0  3  0  0  0  0  0  0
  180.4640  177.8030  140.6000 C   0  0  0  0  0  0  0  0  0  0  0  0
  181.6460  177.6940  139.8220 C   0  0  0  0  0  0  0  0  0  0  0  0
  179.6460  176.6840  140.7880 C   0  0  0  0  0  3  0  0  0  0  0  0
  1  6  1  0  0  0  0
  2 12  1  0  0  0  0
  2  3  1  0  0  0  0
  3  9  1  0  0  0  0
  4  1  1  0  0  0  0
  5 21  1  6  0  0  0
  5  8  1  0  0  0  0
  5  7  1  0  0  0  0
  7 10  1  0  0  0  0
  8  2  2  0  0  0  0
  9  1  2  0  0  0  0
 10  3  2  0  0  0  0
 10 11  1  0  0  0  0
 11  4  2  0  0  0  0
 12 14  1  0  0  0  0
 14 13  1  0  0  0  0
 15 13  1  0  0  0  0
 16 15  1  0  0  0  0
 17 16  1  0  0  0  0
 17 12  2  0  0  0  0
 18 17  1  0  0  0  0
 19 20  1  0  0  0  0
 20 18  1  0  0  0  0
 22 23  2  0  0  0  0
 23 21  1  0  0  0  0
 23 30  1  0  0  0  0
 24 27  1  0  0  0  0
 24 31  1  0  0  0  0
 25 28  1  0  0  0  0
 25 30  2  0  0  0  0
 28 24  2  0  0  0  0
 29 31  2  0  0  0  0
 29 26  1  0  0  0  0
 30 29  1  0  0  0  0
M  END
>  <MODEL>
8

>  <REMARK>
 VINA RESULT:      -8.5      4.456      8.437
  Name = 
  6 active torsions:
  status: ('A' for Active; 'I' for Inactive)
    1  A    between atoms: C_4  and  C_5
    2  A    between atoms: C_9  and  C_22
    3  A    between atoms: C_9  and  C_23
    4  A    between atoms: C_15  and  C_23
    5  A    between atoms: C_29  and  C_31
    6  A    between atoms: C_30  and  C_31
                            x       y       z     vdW  Elec       q    Type
                         _______ _______ _______ _____ _____    ______ ____

>  <TORSDO>
F 6

$$$$
=
 OpenBabel10262419293D

 31 34  0  0  1  0  0  0  0  0999 V2000
  190.7630  177.2060  141.6020 C   0  0  0  0  0  0  0  0  0  0  0  0
  187.7510  177.7590  143.8440 C   0  0  0  0  0  0  0  0  0  0  0  0
  188.6440  177.6840  142.6600 C   0  0  0  0  0  0  0  0  0  0  0  0
  190.2520  177.6070  140.4070 N   0  0  0  0  0  0  0  0  0  0  0  0
  185.8460  177.9990  142.3480 C   0  0  1  0  0  3  0  0  0  0  0  0
  192.1080  176.7530  141.6830 N   0  0  0  0  0  1  0  0  0  0  0  0
  186.7610  178.6610  141.3140 C   0  0  0  0  0  2  0  0  0  0  0  0
  186.4760  177.9650  143.6700 N   0  0  0  0  0  0  0  0  0  0  0  0
  189.9700  177.2430  142.7510 C   0  0  0  0  0  3  0  0  0  0  0  0
  188.1410  178.0900  141.4130 C   0  0  0  0  0  0  0  0  0  0  0  0
  188.9720  178.0520  140.2910 C   0  0  0  0  0  3  0  0  0  0  0  0
  188.2820  177.6600  145.2220 C   0  0  0  0  0  0  0  0  0  0  0  0
  190.2750  177.2800  146.7320 C   0  0  0  0  0  2  0  0  0  0  0  0
  189.7740  177.8160  145.3970 C   0  0  0  0  0  2  0  0  0  0  0  0
  189.4280  177.8680  147.8450 C   0  0  0  0  0  2  0  0  0  0  0  0
  187.9950  177.3730  147.6930 C   0  0  0  0  0  2  0  0  0  0  0  0
  187.4580  177.5400  146.2930 C   0  0  0  0  0  0  0  0  0  0  0  0
  185.9670  177.4750  146.1360 C   0  0  0  0  0  2  0  0  0  0  0  0
  184.1260  179.0030  146.1690 O   0  0  0  0  0  1  0  0  0  0  0  0
  185.2840  178.6290  146.8540 C   0  0  0  0  0  2  0  0  0  0  0  0
  184.5130  178.7240  142.4360 C   0  0  0  0  0  2  0  0  0  0  0  0
  184.3570  179.7320  140.3010 O   0  0  0  0  0  0  0  0  0  0  0  0
  183.8910  178.8600  141.0820 C   0  0  0  0  0  0  0  0  0  0  0  0
  180.7300  176.2260  139.8120 C   0  0  0  0  0  0  0  0  0  0  0  0
  183.0610  176.8530  139.8730 C   0  0  0  0  0  3  0  0  0  0  0  0
  180.9900  179.3780  141.8570 C   0  0  0  0  0  1  0  0  0  0  0  0
  179.6560  175.3030  139.3630 C   0  0  0  0  0  1  0  0  0  0  0  0
  182.0530  175.9850  139.4500 C   0  0  0  0  0  3  0  0  0  0  0  0
  181.4160  178.2120  141.0280 C   0  0  0  0  0  0  0  0  0  0  0  0
  182.7670  177.9770  140.6660 C   0  0  0  0  0  0  0  0  0  0  0  0
  180.4140  177.3350  140.5970 C   0  0  0  0  0  3  0  0  0  0  0  0
  1  6  1  0  0  0  0
  1  9  1  0  0  0  0
  2 12  1  0  0  0  0
  3  9  2  0  0  0  0
  3  2  1  0  0  0  0
  4  1  2  0  0  0  0
  5 21  1  1  0  0  0
  5  8  1  0  0  0  0
  7 10  1  0  0  0  0
  7  5  1  0  0  0  0
  8  2  2  0  0  0  0
 10  3  1  0  0  0  0
 11  4  1  0  0  0  0
 11 10  2  0  0  0  0
 12 14  1  0  0  0  0
 12 17  2  0  0  0  0
 13 15  1  0  0  0  0
 14 13  1  0  0  0  0
 16 15  1  0  0  0  0
 17 16  1  0  0  0  0
 18 17  1  0  0  0  0
 18 20  1  0  0  0  0
 19 20  1  0  0  0  0
 22 23  2  0  0  0  0
 23 21  1  0  0  0  0
 24 31  1  0  0  0  0
 25 30  2  0  0  0  0
 27 24  1  0  0  0  0
 28 24  2  0  0  0  0
 28 25  1  0  0  0  0
 29 26  1  0  0  0  0
 30 29  1  0  0  0  0
 30 23  1  0  0  0  0
 31 29  2  0  0  0  0
M  END
>  <MODEL>
9

>  <REMARK>
 VINA RESULT:      -8.4      3.538      7.924
  Name = 
  6 active torsions:
  status: ('A' for Active; 'I' for Inactive)
    1  A    between atoms: C_4  and  C_5
    2  A    between atoms: C_9  and  C_22
    3  A    between atoms: C_9  and  C_23
    4  A    between atoms: C_15  and  C_23
    5  A    between atoms: C_29  and  C_31
    6  A    between atoms: C_30  and  C_31
                            x       y       z     vdW  Elec       q    Type
                         _______ _______ _______ _____ _____    ______ ____

>  <TORSDO>
F 6

$$$$
