=
 OpenBabel10262420483D

 28 31  0  0  1  0  0  0  0  0999 V2000
  189.7390  178.1540  143.2050 C   0  0  2  0  0  3  0  0  0  0  0  0
  191.2200  176.0680  146.6560 C   0  0  0  0  0  1  0  0  0  0  0  0
  186.8070  178.1210  144.2630 C   0  0  2  0  0  3  0  0  0  0  0  0
  189.2820  177.1600  145.5220 C   0  0  2  0  0  3  0  0  0  0  0  0
  187.5670  176.9320  143.6740 C   0  0  0  0  0  2  0  0  0  0  0  0
  191.6910  177.5340  144.7040 C   0  0  0  0  0  2  0  0  0  0  0  0
  188.4920  178.3370  146.0990 C   0  0  0  0  0  2  0  0  0  0  0  0
  190.7650  177.2990  145.9000 C   0  0  2  0  0  3  0  0  0  0  0  0
  187.0080  178.1990  145.7760 C   0  0  0  0  0  2  0  0  0  0  0  0
  191.1030  178.5870  143.7700 C   0  0  0  0  0  2  0  0  0  0  0  0
  189.0590  177.0230  144.0010 C   0  0  1  0  0  3  0  0  0  0  0  0
  185.0160  177.7330  142.6380 C   0  0  0  0  0  3  0  0  0  0  0  0
  183.2190  179.1030  144.7060 C   0  0  0  0  0  3  0  0  0  0  0  0
  182.9030  178.9210  142.2390 C   0  0  0  0  0  0  0  0  0  0  0  0
  185.3520  178.0790  143.8880 C   0  0  0  0  0  0  0  0  0  0  0  0
  184.6750  178.1280  146.3600 C   0  0  0  0  0  1  0  0  0  0  0  0
  182.6900  179.5410  143.3990 C   0  0  0  0  0  3  0  0  0  0  0  0
  184.3510  178.4220  144.9350 C   0  0  0  0  0  0  0  0  0  0  0  0
  182.3170  179.4920  140.9980 C   0  0  0  0  0  1  0  0  0  0  0  0
  183.6080  177.6090  142.1640 C   0  0  0  0  0  2  0  0  0  0  0  0
  189.8330  177.8190  141.7820 N   0  0  0  0  0  0  0  0  0  0  0  0
  190.8190  176.9770  141.3520 C   0  0  0  0  0  3  0  0  0  0  0  0
  189.0000  178.0090  139.5390 C   0  0  0  0  0  0  0  0  0  0  0  0
  190.9230  176.6310  140.0050 C   0  0  0  0  0  3  0  0  0  0  0  0
  188.0100  179.1100  141.2980 O   0  0  0  0  0  0  0  0  0  0  0  0
  188.9230  178.3370  140.8980 C   0  0  0  0  0  0  0  0  0  0  0  0
  188.1060  178.5140  138.6530 F   0  0  0  0  0  0  0  0  0  0  0  0
  190.0060  177.1520  139.0950 C   0  0  0  0  0  3  0  0  0  0  0  0
  1 21  1  6  0  0  0
  1 10  1  0  0  0  0
  1 11  1  0  0  0  0
  3 15  1  1  0  0  0
  3  9  1  0  0  0  0
  4  8  1  0  0  0  0
  4  7  1  6  0  0  0
  5  3  1  0  0  0  0
  6  8  1  0  0  0  0
  8  2  1  6  0  0  0
  9  7  1  0  0  0  0
 10  6  1  0  0  0  0
 11  5  1  1  0  0  0
 11  4  1  0  0  0  0
 12 15  2  0  0  0  0
 13 18  2  0  0  0  0
 14 17  2  0  0  0  0
 15 18  1  0  0  0  0
 17 13  1  0  0  0  0
 18 16  1  0  0  0  0
 19 14  1  0  0  0  0
 20 14  1  0  0  0  0
 20 12  1  0  0  0  0
 22 21  1  0  0  0  0
 23 26  1  0  0  0  0
 24 22  2  0  0  0  0
 26 25  2  0  0  0  0
 26 21  1  0  0  0  0
 27 23  1  0  0  0  0
 28 23  2  0  0  0  0
 28 24  1  0  0  0  0
M  END
>  <MODEL>
1

>  <REMARK>
 VINA RESULT:      -9.2      0.000      0.000
  Name = 
  2 active torsions:
  status: ('A' for Active; 'I' for Inactive)
    1  A    between atoms: C_1  and  N_2
    2  A    between atoms: C_10  and  C_13
                            x       y       z     vdW  Elec       q    Type
                         _______ _______ _______ _____ _____    ______ ____

>  <TORSDO>
F 2

$$$$
=
 OpenBabel10262420483D

 28 31  0  0  1  0  0  0  0  0999 V2000
  188.3820  178.1510  144.5260 C   0  0  2  0  0  3  0  0  0  0  0  0
  187.7660  176.4910  148.4400 C   0  0  0  0  0  1  0  0  0  0  0  0
  185.3510  178.7820  144.1580 C   0  0  2  0  0  3  0  0  0  0  0  0
  186.7830  177.6680  146.4690 C   0  0  2  0  0  3  0  0  0  0  0  0
  186.0020  177.4000  144.0760 C   0  0  0  0  0  2  0  0  0  0  0  0
  189.3300  177.4950  146.7870 C   0  0  0  0  0  2  0  0  0  0  0  0
  186.1100  179.0400  146.5280 C   0  0  0  0  0  2  0  0  0  0  0  0
  187.9600  177.6270  147.4580 C   0  0  2  0  0  3  0  0  0  0  0  0
  184.9090  179.0910  145.5880 C   0  0  0  0  0  2  0  0  0  0  0  0
  189.4400  178.4490  145.6020 C   0  0  0  0  0  2  0  0  0  0  0  0
  187.1960  177.3040  145.0280 C   0  0  1  0  0  3  0  0  0  0  0  0
  182.9950  179.1950  143.6360 C   0  0  0  0  0  3  0  0  0  0  0  0
  183.7060  178.1170  140.8590 C   0  0  0  0  0  3  0  0  0  0  0  0
  181.4890  178.1520  142.0000 C   0  0  0  0  0  0  0  0  0  0  0  0
  184.2210  178.9120  143.1770 C   0  0  0  0  0  0  0  0  0  0  0  0
  185.8800  179.0880  141.2310 C   0  0  0  0  0  1  0  0  0  0  0  0
  182.3350  177.6330  141.1100 C   0  0  0  0  0  3  0  0  0  0  0  0
  184.5250  178.7220  141.7330 C   0  0  0  0  0  0  0  0  0  0  0  0
  180.1420  177.5430  142.1540 C   0  0  0  0  0  1  0  0  0  0  0  0
  181.8070  179.3960  142.7580 C   0  0  0  0  0  2  0  0  0  0  0  0
  188.9890  177.5610  143.3300 N   0  0  0  0  0  0  0  0  0  0  0  0
  189.5690  176.3270  143.4090 C   0  0  0  0  0  3  0  0  0  0  0  0
  189.5190  177.6760  140.9920 C   0  0  0  0  0  0  0  0  0  0  0  0
  190.1420  175.7360  142.2820 C   0  0  0  0  0  3  0  0  0  0  0  0
  188.4120  179.3780  142.0700 O   0  0  0  0  0  0  0  0  0  0  0  0
  188.9540  178.2410  142.1410 C   0  0  0  0  0  0  0  0  0  0  0  0
  189.4910  178.3370  139.8090 F   0  0  0  0  0  0  0  0  0  0  0  0
  190.1150  176.4180  141.0680 C   0  0  0  0  0  3  0  0  0  0  0  0
  1 21  1  6  0  0  0
  1 11  1  0  0  0  0
  1 10  1  0  0  0  0
  3 15  1  6  0  0  0
  3  9  1  0  0  0  0
  4  7  1  6  0  0  0
  4  8  1  0  0  0  0
  5  3  1  0  0  0  0
  6  8  1  0  0  0  0
  8  2  1  1  0  0  0
  9  7  1  0  0  0  0
 10  6  1  0  0  0  0
 11  5  1  6  0  0  0
 11  4  1  0  0  0  0
 13 17  1  0  0  0  0
 13 18  2  0  0  0  0
 14 19  1  0  0  0  0
 14 20  1  0  0  0  0
 15 12  2  0  0  0  0
 16 18  1  0  0  0  0
 17 14  2  0  0  0  0
 18 15  1  0  0  0  0
 20 12  1  0  0  0  0
 21 22  1  0  0  0  0
 23 28  2  0  0  0  0
 23 26  1  0  0  0  0
 24 22  2  0  0  0  0
 25 26  2  0  0  0  0
 26 21  1  0  0  0  0
 27 23  1  0  0  0  0
 28 24  1  0  0  0  0
M  END
>  <MODEL>
2

>  <REMARK>
 VINA RESULT:      -9.1      1.531      2.646
  Name = 
  2 active torsions:
  status: ('A' for Active; 'I' for Inactive)
    1  A    between atoms: C_1  and  N_2
    2  A    between atoms: C_10  and  C_13
                            x       y       z     vdW  Elec       q    Type
                         _______ _______ _______ _____ _____    ______ ____

>  <TORSDO>
F 2

$$$$
=
 OpenBabel10262420483D

 28 31  0  0  1  0  0  0  0  0999 V2000
  189.7850  177.0070  137.7210 C   0  0  2  0  0  3  0  0  0  0  0  0
  193.1480  174.3810  137.2260 C   0  0  0  0  0  1  0  0  0  0  0  0
  190.5040  177.6020  140.6960 C   0  0  2  0  0  3  0  0  0  0  0  0
  191.9250  175.9860  138.6950 C   0  0  2  0  0  3  0  0  0  0  0  0
  189.8840  176.3110  140.1580 C   0  0  0  0  0  2  0  0  0  0  0  0
  191.4200  175.8300  136.1780 C   0  0  0  0  0  2  0  0  0  0  0  0
  192.5270  177.2730  139.2620 C   0  0  0  0  0  2  0  0  0  0  0  0
  192.4760  175.7370  137.2820 C   0  0  2  0  0  3  0  0  0  0  0  0
  192.0300  177.5190  140.6830 C   0  0  0  0  0  2  0  0  0  0  0  0
  190.5390  177.0580  136.3810 C   0  0  0  0  0  2  0  0  0  0  0  0
  190.3820  176.0180  138.7410 C   0  0  1  0  0  3  0  0  0  0  0  0
  190.8330  178.1640  143.0570 C   0  0  0  0  0  3  0  0  0  0  0  0
  187.8350  177.5930  143.3250 C   0  0  0  0  0  3  0  0  0  0  0  0
  189.6100  177.4750  145.0730 C   0  0  0  0  0  0  0  0  0  0  0  0
  189.9680  177.9380  142.0590 C   0  0  0  0  0  0  0  0  0  0  0  0
  187.6530  178.4240  141.0700 C   0  0  0  0  0  1  0  0  0  0  0  0
  188.4250  177.1060  144.5870 C   0  0  0  0  0  3  0  0  0  0  0  0
  188.4910  178.0070  142.2310 C   0  0  0  0  0  0  0  0  0  0  0  0
  190.0810  176.8840  146.3530 C   0  0  0  0  0  1  0  0  0  0  0  0
  190.4220  178.5520  144.4360 C   0  0  0  0  0  2  0  0  0  0  0  0
  188.3540  176.7650  137.5200 N   0  0  0  0  0  0  0  0  0  0  0  0
  187.9170  175.4980  137.2540 C   0  0  0  0  0  3  0  0  0  0  0  0
  186.0970  177.5740  137.4400 C   0  0  0  0  0  0  0  0  0  0  0  0
  186.5590  175.2360  137.0730 C   0  0  0  0  0  3  0  0  0  0  0  0
  187.8720  178.9710  137.8680 O   0  0  0  0  0  0  0  0  0  0  0  0
  187.4660  177.8030  137.6170 C   0  0  0  0  0  0  0  0  0  0  0  0
  185.2060  178.5930  137.5340 F   0  0  0  0  0  0  0  0  0  0  0  0
  185.6460  176.2840  137.1670 C   0  0  0  0  0  3  0  0  0  0  0  0
  1 10  1  6  0  0  0
  1 11  1  0  0  0  0
  3 15  1  1  0  0  0
  4 11  1  0  0  0  0
  4  7  1  6  0  0  0
  5  3  1  0  0  0  0
  6 10  1  0  0  0  0
  6  8  1  0  0  0  0
  7  9  1  0  0  0  0
  8  2  1  1  0  0  0
  8  4  1  0  0  0  0
  9  3  1  0  0  0  0
 11  5  1  1  0  0  0
 12 20  1  0  0  0  0
 13 17  1  0  0  0  0
 14 19  1  0  0  0  0
 15 18  1  0  0  0  0
 15 12  2  0  0  0  0
 16 18  1  0  0  0  0
 17 14  2  0  0  0  0
 18 13  2  0  0  0  0
 20 14  1  0  0  0  0
 21 26  1  0  0  0  0
 21  1  1  0  0  0  0
 22 21  1  0  0  0  0
 23 27  1  0  0  0  0
 23 26  1  0  0  0  0
 24 28  1  0  0  0  0
 24 22  2  0  0  0  0
 26 25  2  0  0  0  0
 28 23  2  0  0  0  0
M  END
>  <MODEL>
3

>  <REMARK>
 VINA RESULT:      -9.0      2.976      6.337
  Name = 
  2 active torsions:
  status: ('A' for Active; 'I' for Inactive)
    1  A    between atoms: C_1  and  N_2
    2  A    between atoms: C_10  and  C_13
                            x       y       z     vdW  Elec       q    Type
                         _______ _______ _______ _____ _____    ______ ____

>  <TORSDO>
F 2

$$$$
=
 OpenBabel10262420483D

 28 31  0  0  1  0  0  0  0  0999 V2000
  188.5040  178.3410  139.9280 C   0  0  2  0  0  3  0  0  0  0  0  0
  191.5780  175.8240  138.2940 C   0  0  0  0  0  1  0  0  0  0  0  0
  189.2190  177.5570  142.8600 C   0  0  2  0  0  3  0  0  0  0  0  0
  190.5010  176.7870  140.3310 C   0  0  2  0  0  3  0  0  0  0  0  0
  188.4760  176.6830  141.8470 C   0  0  0  0  0  2  0  0  0  0  0  0
  190.0360  177.7520  137.9930 C   0  0  0  0  0  2  0  0  0  0  0  0
  191.2250  177.6470  141.3690 C   0  0  0  0  0  2  0  0  0  0  0  0
  191.0530  177.0950  138.9290 C   0  0  2  0  0  3  0  0  0  0  0  0
  190.7270  177.3260  142.7740 C   0  0  0  0  0  2  0  0  0  0  0  0
  189.2870  178.8680  138.7130 C   0  0  0  0  0  2  0  0  0  0  0  0
  188.9700  176.9590  140.4250 C   0  0  1  0  0  3  0  0  0  0  0  0
  187.3710  177.2200  144.4320 C   0  0  0  0  0  3  0  0  0  0  0  0
  189.4680  177.7920  146.5900 C   0  0  0  0  0  3  0  0  0  0  0  0
  186.9940  178.0840  146.7000 C   0  0  0  0  0  0  0  0  0  0  0  0
  188.6930  177.3460  144.2510 C   0  0  0  0  0  0  0  0  0  0  0  0
  191.0420  176.7530  145.0890 C   0  0  0  0  0  1  0  0  0  0  0  0
  188.2240  178.3980  147.1040 C   0  0  0  0  0  3  0  0  0  0  0  0
  189.6760  177.2820  145.3670 C   0  0  0  0  0  0  0  0  0  0  0  0
  185.8340  178.7960  147.2990 C   0  0  0  0  0  1  0  0  0  0  0  0
  186.7370  176.9590  145.7550 C   0  0  0  0  0  2  0  0  0  0  0  0
  187.0600  178.3570  139.6800 N   0  0  0  0  0  0  0  0  0  0  0  0
  186.5770  177.9000  138.4870 C   0  0  0  0  0  3  0  0  0  0  0  0
  184.8250  178.8160  140.4250 C   0  0  0  0  0  0  0  0  0  0  0  0
  185.2050  177.8910  138.2300 C   0  0  0  0  0  3  0  0  0  0  0  0
  186.6550  179.2280  141.7540 O   0  0  0  0  0  0  0  0  0  0  0  0
  186.2060  178.8120  140.6510 C   0  0  0  0  0  0  0  0  0  0  0  0
  183.9690  179.2630  141.3760 F   0  0  0  0  0  0  0  0  0  0  0  0
  184.3270  178.3530  139.2080 C   0  0  0  0  0  3  0  0  0  0  0  0
  1 10  1  6  0  0  0
  1 11  1  0  0  0  0
  3 15  1  1  0  0  0
  4 11  1  0  0  0  0
  4  7  1  1  0  0  0
  5  3  1  0  0  0  0
  6 10  1  0  0  0  0
  6  8  1  0  0  0  0
  7  9  1  0  0  0  0
  8  2  1  6  0  0  0
  8  4  1  0  0  0  0
  9  3  1  0  0  0  0
 11  5  1  1  0  0  0
 12 20  1  0  0  0  0
 13 17  1  0  0  0  0
 14 17  2  0  0  0  0
 14 19  1  0  0  0  0
 15 12  2  0  0  0  0
 15 18  1  0  0  0  0
 16 18  1  0  0  0  0
 18 13  2  0  0  0  0
 20 14  1  0  0  0  0
 21  1  1  0  0  0  0
 21 26  1  0  0  0  0
 22 21  1  0  0  0  0
 23 26  1  0  0  0  0
 23 27  1  0  0  0  0
 24 22  2  0  0  0  0
 24 28  1  0  0  0  0
 26 25  2  0  0  0  0
 28 23  2  0  0  0  0
M  END
>  <MODEL>
4

>  <REMARK>
 VINA RESULT:      -8.8      2.118      5.270
  Name = 
  2 active torsions:
  status: ('A' for Active; 'I' for Inactive)
    1  A    between atoms: C_1  and  N_2
    2  A    between atoms: C_10  and  C_13
                            x       y       z     vdW  Elec       q    Type
                         _______ _______ _______ _____ _____    ______ ____

>  <TORSDO>
F 2

$$$$
=
 OpenBabel10262420483D

 28 31  0  0  1  0  0  0  0  0999 V2000
  188.1890  177.0370  145.4480 C   0  0  2  0  0  3  0  0  0  0  0  0
  191.6740  177.5710  147.9010 C   0  0  0  0  0  1  0  0  0  0  0  0
  189.8590  177.0610  142.8160 C   0  0  2  0  0  3  0  0  0  0  0  0
  190.7400  177.1990  145.6150 C   0  0  2  0  0  3  0  0  0  0  0  0
  189.5160  178.2770  143.6790 C   0  0  0  0  0  2  0  0  0  0  0  0
  189.3040  176.8390  147.7180 C   0  0  0  0  0  2  0  0  0  0  0  0
  191.0820  176.0030  144.7240 C   0  0  0  0  0  2  0  0  0  0  0  0
  190.6960  176.7520  147.0850 C   0  0  2  0  0  3  0  0  0  0  0  0
  191.1770  176.4310  143.2630 C   0  0  0  0  0  2  0  0  0  0  0  0
  188.2500  176.2650  146.7770 C   0  0  0  0  0  2  0  0  0  0  0  0
  189.4390  177.8900  145.1570 C   0  0  1  0  0  3  0  0  0  0  0  0
  188.7310  177.8290  140.7820 C   0  0  0  0  0  3  0  0  0  0  0  0
  191.2600  176.8670  139.3470 C   0  0  0  0  0  3  0  0  0  0  0  0
  188.9510  177.1220  138.4400 C   0  0  0  0  0  0  0  0  0  0  0  0
  189.8690  177.4150  141.3560 C   0  0  0  0  0  0  0  0  0  0  0  0
  192.4300  177.5030  141.3550 C   0  0  0  0  0  1  0  0  0  0  0  0
  190.1580  176.5570  138.4150 C   0  0  0  0  0  3  0  0  0  0  0  0
  191.1540  177.2900  140.6160 C   0  0  0  0  0  0  0  0  0  0  0  0
  187.9340  176.6930  137.4440 C   0  0  0  0  0  1  0  0  0  0  0  0
  188.6280  178.2530  139.3570 C   0  0  0  0  0  2  0  0  0  0  0  0
  186.9650  177.8360  145.3520 N   0  0  0  0  0  0  0  0  0  0  0  0
  186.5810  178.6090  146.4110 C   0  0  0  0  0  3  0  0  0  0  0  0
  185.0650  178.5920  144.0950 C   0  0  0  0  0  0  0  0  0  0  0  0
  185.4270  179.3910  146.3410 C   0  0  0  0  0  3  0  0  0  0  0  0
  186.5870  177.1090  143.2190 O   0  0  0  0  0  0  0  0  0  0  0  0
  186.2270  177.8190  144.1970 C   0  0  0  0  0  0  0  0  0  0  0  0
  184.3250  178.5840  142.9590 F   0  0  0  0  0  0  0  0  0  0  0  0
  184.6670  179.3800  145.1740 C   0  0  0  0  0  3  0  0  0  0  0  0
  1 21  1  1  0  0  0
  1 10  1  0  0  0  0
  3 15  1  6  0  0  0
  3  9  1  0  0  0  0
  3  5  1  0  0  0  0
  4  7  1  6  0  0  0
  4  8  1  0  0  0  0
  8  6  1  0  0  0  0
  8  2  1  1  0  0  0
  9  7  1  0  0  0  0
 10  6  1  0  0  0  0
 11  5  1  6  0  0  0
 11  1  1  0  0  0  0
 11  4  1  0  0  0  0
 12 15  2  0  0  0  0
 13 18  2  0  0  0  0
 14 20  1  0  0  0  0
 17 14  2  0  0  0  0
 17 13  1  0  0  0  0
 18 16  1  0  0  0  0
 18 15  1  0  0  0  0
 19 14  1  0  0  0  0
 20 12  1  0  0  0  0
 21 22  1  0  0  0  0
 23 26  1  0  0  0  0
 23 28  2  0  0  0  0
 24 22  2  0  0  0  0
 25 26  2  0  0  0  0
 26 21  1  0  0  0  0
 27 23  1  0  0  0  0
 28 24  1  0  0  0  0
M  END
>  <MODEL>
5

>  <REMARK>
 VINA RESULT:      -8.0      2.151      5.833
  Name = 
  2 active torsions:
  status: ('A' for Active; 'I' for Inactive)
    1  A    between atoms: C_1  and  N_2
    2  A    between atoms: C_10  and  C_13
                            x       y       z     vdW  Elec       q    Type
                         _______ _______ _______ _____ _____    ______ ____

>  <TORSDO>
F 2

$$$$
=
 OpenBabel10262420483D

 28 31  0  0  1  0  0  0  0  0999 V2000
  181.4740  177.7340  140.5520 C   0  0  2  0  0  3  0  0  0  0  0  0
  178.9320  180.9360  141.8720 C   0  0  0  0  0  1  0  0  0  0  0  0
  183.6350  178.3670  142.7070 C   0  0  2  0  0  3  0  0  0  0  0  0
  181.0080  179.6000  142.2450 C   0  0  2  0  0  3  0  0  0  0  0  0
  183.3680  179.1710  141.4340 C   0  0  0  0  0  2  0  0  0  0  0  0
  179.1650  178.7830  140.6480 C   0  0  0  0  0  2  0  0  0  0  0  0
  181.3090  178.8030  143.5170 C   0  0  0  0  0  2  0  0  0  0  0  0
  179.5040  179.5350  141.9390 C   0  0  2  0  0  3  0  0  0  0  0  0
  182.7910  178.8900  143.8680 C   0  0  0  0  0  2  0  0  0  0  0  0
  179.9560  177.4820  140.5630 C   0  0  0  0  0  2  0  0  0  0  0  0
  181.8840  179.1290  141.0650 C   0  0  1  0  0  3  0  0  0  0  0  0
  185.9920  178.4120  142.0430 C   0  0  0  0  0  3  0  0  0  0  0  0
  186.5370  177.5450  144.9300 C   0  0  0  0  0  3  0  0  0  0  0  0
  187.9420  177.1910  142.9010 C   0  0  0  0  0  0  0  0  0  0  0  0
  185.1000  178.3430  143.0400 C   0  0  0  0  0  0  0  0  0  0  0  0
  184.5870  178.8410  145.5020 C   0  0  0  0  0  1  0  0  0  0  0  0
  187.5550  176.8400  144.1270 C   0  0  0  0  0  3  0  0  0  0  0  0
  185.4890  178.2470  144.4740 C   0  0  0  0  0  0  0  0  0  0  0  0
  188.9700  176.3700  142.2070 C   0  0  0  0  0  1  0  0  0  0  0  0
  187.4670  178.4460  142.2520 C   0  0  0  0  0  2  0  0  0  0  0  0
  182.0500  177.4630  139.2320 N   0  0  0  0  0  0  0  0  0  0  0  0
  181.9860  178.4210  138.2600 C   0  0  0  0  0  3  0  0  0  0  0  0
  183.2280  176.0040  137.7350 C   0  0  0  0  0  0  0  0  0  0  0  0
  182.5390  178.1940  136.9990 C   0  0  0  0  0  3  0  0  0  0  0  0
  182.7270  175.3820  139.8910 O   0  0  0  0  0  0  0  0  0  0  0  0
  182.6640  176.2620  138.9890 C   0  0  0  0  0  0  0  0  0  0  0  0
  183.8380  174.8200  137.4800 F   0  0  0  0  0  0  0  0  0  0  0  0
  183.1630  176.9770  136.7390 C   0  0  0  0  0  3  0  0  0  0  0  0
  1 21  1  6  0  0  0
  1 10  1  0  0  0  0
  1 11  1  0  0  0  0
  3 15  1  1  0  0  0
  3  9  1  0  0  0  0
  4  7  1  1  0  0  0
  5  3  1  0  0  0  0
  6  8  1  0  0  0  0
  7  9  1  0  0  0  0
  8  2  1  6  0  0  0
  8  4  1  0  0  0  0
 10  6  1  0  0  0  0
 11  5  1  1  0  0  0
 11  4  1  0  0  0  0
 12 20  1  0  0  0  0
 12 15  2  0  0  0  0
 14 17  2  0  0  0  0
 15 18  1  0  0  0  0
 17 13  1  0  0  0  0
 18 13  2  0  0  0  0
 18 16  1  0  0  0  0
 19 14  1  0  0  0  0
 20 14  1  0  0  0  0
 22 21  1  0  0  0  0
 23 26  1  0  0  0  0
 24 22  2  0  0  0  0
 26 21  1  0  0  0  0
 26 25  2  0  0  0  0
 27 23  1  0  0  0  0
 28 24  1  0  0  0  0
 28 23  2  0  0  0  0
M  END
>  <MODEL>
6

>  <REMARK>
 VINA RESULT:      -7.9      3.272      7.577
  Name = 
  2 active torsions:
  status: ('A' for Active; 'I' for Inactive)
    1  A    between atoms: C_1  and  N_2
    2  A    between atoms: C_10  and  C_13
                            x       y       z     vdW  Elec       q    Type
                         _______ _______ _______ _____ _____    ______ ____

>  <TORSDO>
F 2

$$$$
=
 OpenBabel10262420483D

 28 31  0  0  1  0  0  0  0  0999 V2000
  183.0830  179.2210  138.7950 C   0  0  2  0  0  3  0  0  0  0  0  0
  178.9310  180.0270  138.0400 C   0  0  0  0  0  1  0  0  0  0  0  0
  183.1200  176.8010  136.8300 C   0  0  2  0  0  3  0  0  0  0  0  0
  180.9590  178.6880  137.4650 C   0  0  2  0  0  3  0  0  0  0  0  0
  182.4920  176.8220  138.2250 C   0  0  0  0  0  2  0  0  0  0  0  0
  181.1350  180.8460  138.8520 C   0  0  0  0  0  2  0  0  0  0  0  0
  181.5950  178.6340  136.0740 C   0  0  0  0  0  2  0  0  0  0  0  0
  180.4120  180.1000  137.7280 C   0  0  2  0  0  3  0  0  0  0  0  0
  182.1060  177.2290  135.7700 C   0  0  0  0  0  2  0  0  0  0  0  0
  182.6460  180.6940  138.7120 C   0  0  0  0  0  2  0  0  0  0  0  0
  181.9430  178.2120  138.5540 C   0  0  1  0  0  3  0  0  0  0  0  0
  182.9740  174.5370  135.9090 C   0  0  0  0  0  3  0  0  0  0  0  0
  185.6140  174.0620  137.3880 C   0  0  0  0  0  3  0  0  0  0  0  0
  183.8840  172.4000  136.7070 C   0  0  0  0  0  0  0  0  0  0  0  0
  183.7250  175.4600  136.5240 C   0  0  0  0  0  0  0  0  0  0  0  0
  186.0790  176.3840  136.9420 C   0  0  0  0  0  1  0  0  0  0  0  0
  184.8850  172.7830  137.4990 C   0  0  0  0  0  3  0  0  0  0  0  0
  185.1400  175.2260  136.9190 C   0  0  0  0  0  0  0  0  0  0  0  0
  183.2330  171.0860  136.9530 C   0  0  0  0  0  1  0  0  0  0  0  0
  183.4770  173.1910  135.5110 C   0  0  0  0  0  2  0  0  0  0  0  0
  183.7810  178.9430  140.0530 N   0  0  0  0  0  0  0  0  0  0  0  0
  183.0580  178.7460  141.1950 C   0  0  0  0  0  3  0  0  0  0  0  0
  185.8210  178.5830  141.2650 C   0  0  0  0  0  0  0  0  0  0  0  0
  183.6980  178.4650  142.4030 C   0  0  0  0  0  3  0  0  0  0  0  0
  185.8140  179.0390  139.0120 O   0  0  0  0  0  0  0  0  0  0  0  0
  185.1490  178.8630  140.0700 C   0  0  0  0  0  0  0  0  0  0  0  0
  187.1740  178.5010  141.2970 F   0  0  0  0  0  0  0  0  0  0  0  0
  185.0880  178.3840  142.4350 C   0  0  0  0  0  3  0  0  0  0  0  0
  1 10  1  1  0  0  0
  1 21  1  0  0  0  0
  3 15  1  6  0  0  0
  3  5  1  0  0  0  0
  4  7  1  6  0  0  0
  4  8  1  0  0  0  0
  4 11  1  0  0  0  0
  8  2  1  1  0  0  0
  8  6  1  0  0  0  0
  9  7  1  0  0  0  0
  9  3  1  0  0  0  0
 10  6  1  0  0  0  0
 11  5  1  6  0  0  0
 11  1  1  0  0  0  0
 12 15  2  0  0  0  0
 13 17  1  0  0  0  0
 14 19  1  0  0  0  0
 14 17  2  0  0  0  0
 15 18  1  0  0  0  0
 18 16  1  0  0  0  0
 18 13  2  0  0  0  0
 20 12  1  0  0  0  0
 20 14  1  0  0  0  0
 21 26  1  0  0  0  0
 21 22  1  0  0  0  0
 22 24  2  0  0  0  0
 23 27  1  0  0  0  0
 23 28  2  0  0  0  0
 24 28  1  0  0  0  0
 25 26  2  0  0  0  0
 26 23  1  0  0  0  0
M  END
>  <MODEL>
7

>  <REMARK>
 VINA RESULT:      -7.8      4.819      9.064
  Name = 
  2 active torsions:
  status: ('A' for Active; 'I' for Inactive)
    1  A    between atoms: C_1  and  N_2
    2  A    between atoms: C_10  and  C_13
                            x       y       z     vdW  Elec       q    Type
                         _______ _______ _______ _____ _____    ______ ____

>  <TORSDO>
F 2

$$$$
=
 OpenBabel10262420483D

 28 31  0  0  1  0  0  0  0  0999 V2000
  186.2390  178.8710  144.8960 C   0  0  2  0  0  3  0  0  0  0  0  0
  182.2170  177.9220  143.7230 C   0  0  0  0  0  1  0  0  0  0  0  0
  187.2970  178.6570  141.9710 C   0  0  2  0  0  3  0  0  0  0  0  0
  184.5610  178.4080  143.0150 C   0  0  2  0  0  3  0  0  0  0  0  0
  186.9160  177.4880  142.8810 C   0  0  0  0  0  2  0  0  0  0  0  0
  183.7520  178.9290  145.4000 C   0  0  0  0  0  2  0  0  0  0  0  0
  184.9660  179.5580  142.0900 C   0  0  0  0  0  2  0  0  0  0  0  0
  183.3960  178.8530  143.9130 C   0  0  2  0  0  3  0  0  0  0  0  0
  186.0920  179.1260  141.1560 C   0  0  0  0  0  2  0  0  0  0  0  0
  185.0950  179.6260  145.5940 C   0  0  0  0  0  2  0  0  0  0  0  0
  185.7690  177.8770  143.8160 C   0  0  1  0  0  3  0  0  0  0  0  0
  188.3190  178.3500  139.7670 C   0  0  0  0  0  3  0  0  0  0  0  0
  190.5880  176.9930  141.3130 C   0  0  0  0  0  3  0  0  0  0  0  0
  189.9080  176.6720  138.9360 C   0  0  0  0  0  0  0  0  0  0  0  0
  188.4690  178.3090  141.0980 C   0  0  0  0  0  0  0  0  0  0  0  0
  190.0680  178.5380  143.0880 C   0  0  0  0  0  1  0  0  0  0  0  0
  190.4820  176.2300  140.0540 C   0  0  0  0  0  3  0  0  0  0  0  0
  189.7480  177.9380  141.7610 C   0  0  0  0  0  0  0  0  0  0  0  0
  189.8620  175.7790  137.7480 C   0  0  0  0  0  1  0  0  0  0  0  0
  189.4200  178.0750  138.8010 C   0  0  0  0  0  2  0  0  0  0  0  0
  187.1210  178.2210  145.8680 N   0  0  0  0  0  0  0  0  0  0  0  0
  188.1070  177.3840  145.4290 C   0  0  0  0  0  3  0  0  0  0  0  0
  187.8140  177.8670  148.1380 C   0  0  0  0  0  0  0  0  0  0  0  0
  188.9710  176.7640  146.3330 C   0  0  0  0  0  3  0  0  0  0  0  0
  186.0570  179.2510  147.6090 O   0  0  0  0  0  0  0  0  0  0  0  0
  186.9640  178.4730  147.2060 C   0  0  0  0  0  0  0  0  0  0  0  0
  187.6700  178.1060  149.4660 F   0  0  0  0  0  0  0  0  0  0  0  0
  188.8190  177.0090  147.6960 C   0  0  0  0  0  3  0  0  0  0  0  0
  1 10  1  1  0  0  0
  1 21  1  0  0  0  0
  3 15  1  6  0  0  0
  3  5  1  0  0  0  0
  4  7  1  1  0  0  0
  4 11  1  0  0  0  0
  4  8  1  0  0  0  0
  6 10  1  0  0  0  0
  8  2  1  1  0  0  0
  8  6  1  0  0  0  0
  9  3  1  0  0  0  0
  9  7  1  0  0  0  0
 11  5  1  6  0  0  0
 11  1  1  0  0  0  0
 12 15  2  0  0  0  0
 13 18  2  0  0  0  0
 14 17  2  0  0  0  0
 15 18  1  0  0  0  0
 17 13  1  0  0  0  0
 18 16  1  0  0  0  0
 19 14  1  0  0  0  0
 20 14  1  0  0  0  0
 20 12  1  0  0  0  0
 21 26  1  0  0  0  0
 22 21  1  0  0  0  0
 22 24  2  0  0  0  0
 23 27  1  0  0  0  0
 24 28  1  0  0  0  0
 26 25  2  0  0  0  0
 26 23  1  0  0  0  0
 28 23  2  0  0  0  0
M  END
>  <MODEL>
8

>  <REMARK>
 VINA RESULT:      -7.8      2.890      6.777
  Name = 
  2 active torsions:
  status: ('A' for Active; 'I' for Inactive)
    1  A    between atoms: C_1  and  N_2
    2  A    between atoms: C_10  and  C_13
                            x       y       z     vdW  Elec       q    Type
                         _______ _______ _______ _____ _____    ______ ____

>  <TORSDO>
F 2

$$$$
=
 OpenBabel10262420483D

 28 31  0  0  1  0  0  0  0  0999 V2000
  186.5070  178.1830  137.4650 C   0  0  2  0  0  3  0  0  0  0  0  0
  189.3500  176.0510  135.0510 C   0  0  0  0  0  1  0  0  0  0  0  0
  188.4330  178.2710  139.9140 C   0  0  2  0  0  3  0  0  0  0  0  0
  188.8660  177.2160  137.2060 C   0  0  2  0  0  3  0  0  0  0  0  0
  187.6530  177.0500  139.4220 C   0  0  0  0  0  2  0  0  0  0  0  0
  187.3250  177.4910  135.1650 C   0  0  0  0  0  2  0  0  0  0  0  0
  189.6420  178.4260  137.7300 C   0  0  0  0  0  2  0  0  0  0  0  0
  188.7560  177.2970  135.6750 C   0  0  2  0  0  3  0  0  0  0  0  0
  189.8050  178.3460  139.2440 C   0  0  0  0  0  2  0  0  0  0  0  0
  186.6070  178.5630  135.9780 C   0  0  0  0  0  2  0  0  0  0  0  0
  187.4940  177.0830  137.9010 C   0  0  1  0  0  3  0  0  0  0  0  0
  189.7470  178.3630  141.9790 C   0  0  0  0  0  3  0  0  0  0  0  0
  187.1340  177.5450  143.3520 C   0  0  0  0  0  3  0  0  0  0  0  0
  189.4790  177.1980  144.1250 C   0  0  0  0  0  0  0  0  0  0  0  0
  188.5350  178.2850  141.4130 C   0  0  0  0  0  0  0  0  0  0  0  0
  186.0320  178.8020  141.6160 C   0  0  0  0  0  1  0  0  0  0  0  0
  188.1920  176.8540  144.1150 C   0  0  0  0  0  3  0  0  0  0  0  0
  187.2730  178.2170  142.1990 C   0  0  0  0  0  0  0  0  0  0  0  0
  190.4340  176.3920  144.9300 C   0  0  0  0  0  1  0  0  0  0  0  0
  189.9710  178.4340  143.4510 C   0  0  0  0  0  2  0  0  0  0  0  0
  185.1310  177.8400  137.8360 N   0  0  0  0  0  0  0  0  0  0  0  0
  184.6280  176.6160  137.4960 C   0  0  0  0  0  3  0  0  0  0  0  0
  183.0600  178.4100  138.9040 C   0  0  0  0  0  0  0  0  0  0  0  0
  183.3260  176.2590  137.8490 C   0  0  0  0  0  3  0  0  0  0  0  0
  184.8390  179.8660  138.8530 O   0  0  0  0  0  0  0  0  0  0  0  0
  184.3690  178.7390  138.5350 C   0  0  0  0  0  0  0  0  0  0  0  0
  182.2940  179.2900  139.5960 F   0  0  0  0  0  0  0  0  0  0  0  0
  182.5400  177.1650  138.5570 C   0  0  0  0  0  3  0  0  0  0  0  0
  1 10  1  6  0  0  0
  1 21  1  0  0  0  0
  1 11  1  0  0  0  0
  3 15  1  1  0  0  0
  4  7  1  1  0  0  0
  4 11  1  0  0  0  0
  5  3  1  0  0  0  0
  6  8  1  0  0  0  0
  6 10  1  0  0  0  0
  7  9  1  0  0  0  0
  8  2  1  6  0  0  0
  8  4  1  0  0  0  0
  9  3  1  0  0  0  0
 11  5  1  1  0  0  0
 12 20  1  0  0  0  0
 13 17  1  0  0  0  0
 14 19  1  0  0  0  0
 15 12  2  0  0  0  0
 15 18  1  0  0  0  0
 16 18  1  0  0  0  0
 17 14  2  0  0  0  0
 18 13  2  0  0  0  0
 20 14  1  0  0  0  0
 21 26  1  0  0  0  0
 22 21  1  0  0  0  0
 22 24  2  0  0  0  0
 23 27  1  0  0  0  0
 24 28  1  0  0  0  0
 26 25  2  0  0  0  0
 26 23  1  0  0  0  0
 28 23  2  0  0  0  0
M  END
>  <MODEL>
9

>  <REMARK>
 VINA RESULT:      -7.7      3.140      7.063
  Name = 
  2 active torsions:
  status: ('A' for Active; 'I' for Inactive)
    1  A    between atoms: C_1  and  N_2
    2  A    between atoms: C_10  and  C_13
                            x       y       z     vdW  Elec       q    Type
                         _______ _______ _______ _____ _____    ______ ____

>  <TORSDO>
F 2

$$$$
