=
 OpenBabel10262421373D

 32 37  0  0  1  0  0  0  0  0999 V2000
  189.5820  177.2800  145.5300 C   0  0  0  0  0  0  0  0  0  0  0  0
  185.3220  178.8170  143.2030 C   0  0  2  0  0  3  0  0  0  0  0  0
  186.3340  178.1630  138.4550 N   0  0  0  0  0  0  0  0  0  0  0  0
  184.9490  178.3030  138.1140 C   0  0  0  0  0  3  0  0  0  0  0  0
  182.8680  178.7790  143.8730 C   0  0  0  0  0  0  0  0  0  0  0  0
  181.5340  178.7120  143.4910 C   0  0  0  0  0  0  0  0  0  0  0  0
  186.9440  177.8810  144.8070 C   0  0  0  0  0  0  0  0  0  0  0  0
  187.6870  178.5370  142.4880 C   0  0  0  0  0  2  0  0  0  0  0  0
  179.7490  178.6000  142.1680 N   0  0  0  0  0  0  0  0  0  0  0  0
  189.3000  177.7320  144.2360 C   0  0  0  0  0  3  0  0  0  0  0  0
  186.7750  178.3800  139.6580 C   0  0  0  0  0  3  0  0  0  0  0  0
  186.2310  178.2560  142.1020 C   0  0  2  0  0  3  0  0  0  0  0  0
  185.8640  178.8760  140.7550 C   0  0  2  0  0  3  0  0  0  0  0  0
  183.4540  178.6350  141.4860 C   0  0  0  0  0  0  0  0  0  0  0  0
  179.2200  178.7140  143.4730 N   0  0  0  0  0  0  0  0  0  0  0  0
  188.5440  177.1160  146.4550 C   0  0  0  0  0  3  0  0  0  0  0  0
  187.9840  178.0250  143.8670 C   0  0  0  0  0  0  0  0  0  0  0  0
  180.3700  178.7810  144.2990 N   0  0  0  0  0  0  0  0  0  0  0  0
  187.2270  177.4180  146.0940 C   0  0  0  0  0  3  0  0  0  0  0  0
  184.0410  178.5100  139.0640 C   0  0  0  0  0  3  0  0  0  0  0  0
  184.4480  178.6170  140.4380 N   0  0  0  0  0  0  0  0  0  0  0  0
  182.0780  178.5760  141.1610 C   0  0  0  0  0  3  0  0  0  0  0  0
  185.6250  178.1720  144.4420 O   0  0  0  0  0  0  0  0  0  0  0  0
  183.1930  178.9300  145.1820 F   0  0  0  0  0  0  0  0  0  0  0  0
  178.9310  178.6040  140.9690 C   0  0  0  0  0  1  0  0  0  0  0  0
  183.8550  178.7030  142.8570 C   0  0  0  0  0  0  0  0  0  0  0  0
  181.1610  178.6070  142.2050 C   0  0  0  0  0  0  0  0  0  0  0  0
  190.9810  176.9460  145.9120 C   0  0  0  0  0  2  0  0  0  0  0  0
  191.0680  176.6940  147.4070 C   0  0  0  0  0  2  0  0  0  0  0  0
  192.3180  175.9530  147.7210 C   0  0  0  0  0  0  0  0  0  0  0  0
  193.0700  176.2990  148.8370 O   0  0  0  0  0  1  0  0  0  0  0  0
  192.7140  175.0330  146.9590 O   0  0  0  0  0  0  0  0  0  0  0  0
  1 28  1  0  0  0  0
  1 16  1  0  0  0  0
  2 26  1  6  0  0  0
  2 23  1  0  0  0  0
  3 11  2  0  0  0  0
  4  3  1  0  0  0  0
  4 20  2  0  0  0  0
  5 24  1  0  0  0  0
  6  5  1  0  0  0  0
  6 18  1  0  0  0  0
  7 19  1  0  0  0  0
  8 17  1  0  0  0  0
  9 27  1  0  0  0  0
  9 15  1  0  0  0  0
 10  1  2  0  0  0  0
 12  8  1  1  0  0  0
 12  2  1  0  0  0  0
 13 11  1  6  0  0  0
 13 12  1  0  0  0  0
 14 26  1  0  0  0  0
 15 18  2  0  0  0  0
 17 10  1  0  0  0  0
 17  7  2  0  0  0  0
 19 16  2  0  0  0  0
 20 21  1  0  0  0  0
 21 13  1  0  0  0  0
 21 14  1  0  0  0  0
 22 14  2  0  0  0  0
 22 27  1  0  0  0  0
 23  7  1  0  0  0  0
 25  9  1  0  0  0  0
 26  5  2  0  0  0  0
 27  6  2  0  0  0  0
 28 29  1  0  0  0  0
 29 30  1  0  0  0  0
 30 31  1  0  0  0  0
 32 30  2  0  0  0  0
M  END
>  <MODEL>
1

>  <REMARK>
 VINA RESULT:     -10.4      0.000      0.000
  Name = 
  3 active torsions:
  status: ('A' for Active; 'I' for Inactive)
    1  A    between atoms: C_1  and  C_10
    2  A    between atoms: C_2  and  C_24
    3  A    between atoms: C_10  and  C_24
                            x       y       z     vdW  Elec       q    Type
                         _______ _______ _______ _____ _____    ______ ____

>  <TORSDO>
F 3

$$$$
=
 OpenBabel10262421373D

 32 37  0  0  1  0  0  0  0  0999 V2000
  188.9330  177.1620  146.2570 C   0  0  0  0  0  0  0  0  0  0  0  0
  186.5170  178.6620  142.0330 C   0  0  2  0  0  3  0  0  0  0  0  0
  189.6160  177.4000  138.4550 N   0  0  0  0  0  0  0  0  0  0  0  0
  188.5920  177.5790  137.4700 C   0  0  0  0  0  3  0  0  0  0  0  0
  184.0570  178.8450  141.4130 C   0  0  0  0  0  0  0  0  0  0  0  0
  183.0740  178.8120  140.4320 C   0  0  0  0  0  0  0  0  0  0  0  0
  187.0530  177.8260  144.2900 C   0  0  0  0  0  0  0  0  0  0  0  0
  188.8880  178.1630  142.5940 C   0  0  0  0  0  2  0  0  0  0  0  0
  182.1480  178.6500  138.4160 N   0  0  0  0  0  0  0  0  0  0  0  0
  189.3610  177.4750  144.9620 C   0  0  0  0  0  3  0  0  0  0  0  0
  189.4430  177.7300  139.7000 C   0  0  0  0  0  3  0  0  0  0  0  0
  187.7780  177.9240  141.5640 C   0  0  2  0  0  3  0  0  0  0  0  0
  188.1750  178.4030  140.1700 C   0  0  2  0  0  3  0  0  0  0  0  0
  185.7020  178.3890  139.6390 C   0  0  0  0  0  0  0  0  0  0  0  0
  181.0710  178.9470  139.2810 N   0  0  0  0  0  0  0  0  0  0  0  0
  187.5670  177.1680  146.5630 C   0  0  0  0  0  3  0  0  0  0  0  0
  188.4260  177.7990  143.9740 C   0  0  0  0  0  0  0  0  0  0  0  0
  181.6800  179.0420  140.5570 N   0  0  0  0  0  0  0  0  0  0  0  0
  186.6290  177.5020  145.5810 C   0  0  0  0  0  3  0  0  0  0  0  0
  187.3670  177.9480  137.8340 C   0  0  0  0  0  3  0  0  0  0  0  0
  187.0690  178.1920  139.2180 N   0  0  0  0  0  0  0  0  0  0  0  0
  184.6560  178.3730  138.6860 C   0  0  0  0  0  3  0  0  0  0  0  0
  186.1140  178.1500  143.3050 O   0  0  0  0  0  0  0  0  0  0  0  0
  183.7240  179.1290  142.6980 F   0  0  0  0  0  0  0  0  0  0  0  0
  182.0160  178.5610  136.9730 C   0  0  0  0  0  1  0  0  0  0  0  0
  185.3960  178.5940  141.0210 C   0  0  0  0  0  0  0  0  0  0  0  0
  183.3590  178.5790  139.1400 C   0  0  0  0  0  0  0  0  0  0  0  0
  189.9280  176.7930  147.3000 C   0  0  0  0  0  2  0  0  0  0  0  0
  191.3370  177.0170  146.7800 C   0  0  0  0  0  2  0  0  0  0  0  0
  192.1780  175.8280  147.0780 C   0  0  0  0  0  0  0  0  0  0  0  0
  192.3830  174.8610  146.1010 O   0  0  0  0  0  0  0  0  0  0  0  0
  192.6790  175.6800  148.2230 O   0  0  0  0  0  1  0  0  0  0  0  0
  1 16  1  0  0  0  0
  1 28  1  0  0  0  0
  2 26  1  6  0  0  0
  2 23  1  0  0  0  0
  3 11  2  0  0  0  0
  4 20  2  0  0  0  0
  4  3  1  0  0  0  0
  5 24  1  0  0  0  0
  6 18  1  0  0  0  0
  6  5  2  0  0  0  0
  7 19  1  0  0  0  0
  8 17  1  0  0  0  0
  9 27  1  0  0  0  0
  9 15  1  0  0  0  0
 10  1  2  0  0  0  0
 12  2  1  0  0  0  0
 12  8  1  1  0  0  0
 13 11  1  6  0  0  0
 13 12  1  0  0  0  0
 14 26  2  0  0  0  0
 15 18  2  0  0  0  0
 17  7  2  0  0  0  0
 17 10  1  0  0  0  0
 19 16  2  0  0  0  0
 20 21  1  0  0  0  0
 21 14  1  0  0  0  0
 21 13  1  0  0  0  0
 22 27  2  0  0  0  0
 22 14  1  0  0  0  0
 23  7  1  0  0  0  0
 25  9  1  0  0  0  0
 26  5  1  0  0  0  0
 27  6  1  0  0  0  0
 29 30  1  0  0  0  0
 29 28  1  0  0  0  0
 30 32  1  0  0  0  0
 31 30  2  0  0  0  0
M  END
>  <MODEL>
2

>  <REMARK>
 VINA RESULT:      -9.9      1.881      2.728
  Name = 
  3 active torsions:
  status: ('A' for Active; 'I' for Inactive)
    1  A    between atoms: C_1  and  C_10
    2  A    between atoms: C_2  and  C_24
    3  A    between atoms: C_10  and  C_24
                            x       y       z     vdW  Elec       q    Type
                         _______ _______ _______ _____ _____    ______ ____

>  <TORSDO>
F 3

$$$$
=
 OpenBabel10262421373D

 32 37  0  0  1  0  0  0  0  0999 V2000
  183.1000  178.7880  143.3910 C   0  0  0  0  0  0  0  0  0  0  0  0
  187.8140  178.4150  141.5040 C   0  0  2  0  0  3  0  0  0  0  0  0
  190.4210  176.7560  145.3050 N   0  0  0  0  0  0  0  0  0  0  0  0
  191.5130  176.4190  144.4420 C   0  0  0  0  0  3  0  0  0  0  0  0
  188.7180  177.9090  139.1800 C   0  0  0  0  0  0  0  0  0  0  0  0
  189.7320  177.3840  138.3890 C   0  0  0  0  0  0  0  0  0  0  0  0
  185.3640  178.4340  141.7820 C   0  0  0  0  0  0  0  0  0  0  0  0
  186.8710  178.5900  143.7980 C   0  0  0  0  0  2  0  0  0  0  0  0
  191.6670  176.4330  137.8430 N   0  0  0  0  0  0  0  0  0  0  0  0
  184.3720  178.7680  143.9740 C   0  0  0  0  0  3  0  0  0  0  0  0
  189.3820  177.4110  144.8810 C   0  0  0  0  0  3  0  0  0  0  0  0
  187.8750  177.8330  142.9220 C   0  0  2  0  0  3  0  0  0  0  0  0
  189.2990  177.9300  143.4660 C   0  0  2  0  0  3  0  0  0  0  0  0
  190.0550  177.2670  141.1440 C   0  0  0  0  0  0  0  0  0  0  0  0
  191.0690  176.7620  136.6060 N   0  0  0  0  0  0  0  0  0  0  0  0
  182.9610  178.6180  142.0090 C   0  0  0  0  0  3  0  0  0  0  0  0
  185.5050  178.5820  143.1760 C   0  0  0  0  0  0  0  0  0  0  0  0
  189.8390  177.3620  136.9750 N   0  0  0  0  0  0  0  0  0  0  0  0
  184.0920  178.4430  141.2050 C   0  0  0  0  0  3  0  0  0  0  0  0
  191.4250  176.6320  143.1320 C   0  0  0  0  0  3  0  0  0  0  0  0
  190.2390  177.2240  142.5770 N   0  0  0  0  0  0  0  0  0  0  0  0
  191.0550  176.7530  140.2850 C   0  0  0  0  0  3  0  0  0  0  0  0
  186.4950  178.2480  140.9790 O   0  0  0  0  0  0  0  0  0  0  0  0
  187.6420  178.5020  138.6010 F   0  0  0  0  0  0  0  0  0  0  0  0
  193.0050  175.8830  137.9650 C   0  0  0  0  0  1  0  0  0  0  0  0
  188.8600  177.8210  140.5880 C   0  0  0  0  0  0  0  0  0  0  0  0
  190.8360  176.8280  138.9150 C   0  0  0  0  0  0  0  0  0  0  0  0
  181.8940  178.9620  144.2460 C   0  0  0  0  0  2  0  0  0  0  0  0
  180.7070  179.3790  143.3970 C   0  0  0  0  0  2  0  0  0  0  0  0
  179.6170  178.3760  143.5260 C   0  0  0  0  0  0  0  0  0  0  0  0
  179.3310  177.5200  142.4700 O   0  0  0  0  0  0  0  0  0  0  0  0
  178.9330  178.3210  144.5810 O   0  0  0  0  0  1  0  0  0  0  0  0
  1 10  1  0  0  0  0
  1 28  1  0  0  0  0
  2 26  1  6  0  0  0
  2 12  1  0  0  0  0
  4  3  1  0  0  0  0
  5 26  1  0  0  0  0
  6 27  1  0  0  0  0
  6  5  2  0  0  0  0
  7 17  1  0  0  0  0
  9 25  1  0  0  0  0
  9 27  1  0  0  0  0
 11  3  2  0  0  0  0
 12 13  1  0  0  0  0
 12  8  1  1  0  0  0
 13 11  1  1  0  0  0
 14 21  1  0  0  0  0
 15 18  2  0  0  0  0
 15  9  1  0  0  0  0
 16  1  2  0  0  0  0
 17  8  1  0  0  0  0
 17 10  2  0  0  0  0
 18  6  1  0  0  0  0
 19  7  2  0  0  0  0
 19 16  1  0  0  0  0
 20  4  2  0  0  0  0
 21 20  1  0  0  0  0
 21 13  1  0  0  0  0
 22 14  1  0  0  0  0
 23  2  1  0  0  0  0
 23  7  1  0  0  0  0
 24  5  1  0  0  0  0
 26 14  2  0  0  0  0
 27 22  2  0  0  0  0
 29 30  1  0  0  0  0
 29 28  1  0  0  0  0
 30 32  1  0  0  0  0
 31 30  2  0  0  0  0
M  END
>  <MODEL>
3

>  <REMARK>
 VINA RESULT:      -9.3      4.795      8.968
  Name = 
  3 active torsions:
  status: ('A' for Active; 'I' for Inactive)
    1  A    between atoms: C_1  and  C_10
    2  A    between atoms: C_2  and  C_24
    3  A    between atoms: C_10  and  C_24
                            x       y       z     vdW  Elec       q    Type
                         _______ _______ _______ _____ _____    ______ ____

>  <TORSDO>
F 3

$$$$
=
 OpenBabel10262421373D

 32 37  0  0  1  0  0  0  0  0999 V2000
  190.1820  176.7680  136.7910 C   0  0  0  0  0  0  0  0  0  0  0  0
  189.1960  177.9820  141.6360 C   0  0  2  0  0  3  0  0  0  0  0  0
  184.3320  178.5620  141.6850 N   0  0  0  0  0  0  0  0  0  0  0  0
  184.3150  178.5210  143.1170 C   0  0  0  0  0  3  0  0  0  0  0  0
  190.3030  177.3610  143.8410 C   0  0  0  0  0  0  0  0  0  0  0  0
  190.1860  177.1400  145.2070 C   0  0  0  0  0  0  0  0  0  0  0  0
  190.1640  177.0280  139.5790 C   0  0  0  0  0  0  0  0  0  0  0  0
  187.9840  178.2920  139.4880 C   0  0  0  0  0  2  0  0  0  0  0  0
  189.2550  176.9980  147.2220 N   0  0  0  0  0  0  0  0  0  0  0  0
  189.1230  177.4310  137.4220 C   0  0  0  0  0  3  0  0  0  0  0  0
  185.4400  178.5890  141.0070 C   0  0  0  0  0  3  0  0  0  0  0  0
  187.8330  177.8450  140.9460 C   0  0  2  0  0  3  0  0  0  0  0  0
  186.7840  178.6650  141.6920 C   0  0  2  0  0  3  0  0  0  0  0  0
  187.8900  177.8430  143.8140 C   0  0  0  0  0  0  0  0  0  0  0  0
  190.6250  176.7310  147.4420 N   0  0  0  0  0  0  0  0  0  0  0  0
  191.2220  176.2260  137.5550 C   0  0  0  0  0  3  0  0  0  0  0  0
  189.1050  177.5560  138.8140 C   0  0  0  0  0  0  0  0  0  0  0  0
  191.1980  176.8230  146.1500 N   0  0  0  0  0  0  0  0  0  0  0  0
  191.2130  176.3570  138.9470 C   0  0  0  0  0  3  0  0  0  0  0  0
  185.4460  178.3520  143.7970 C   0  0  0  0  0  3  0  0  0  0  0  0
  186.6960  178.2310  143.0990 N   0  0  0  0  0  0  0  0  0  0  0  0
  187.8360  177.6100  145.2090 C   0  0  0  0  0  3  0  0  0  0  0  0
  190.1500  177.1510  140.9730 O   0  0  0  0  0  0  0  0  0  0  0  0
  191.5190  177.2820  143.2420 F   0  0  0  0  0  0  0  0  0  0  0  0
  188.2800  177.1140  148.2910 C   0  0  0  0  0  1  0  0  0  0  0  0
  189.1280  177.6850  143.1170 C   0  0  0  0  0  0  0  0  0  0  0  0
  189.0140  177.2500  145.8540 C   0  0  0  0  0  0  0  0  0  0  0  0
  190.1860  176.6160  135.3110 C   0  0  0  0  0  2  0  0  0  0  0  0
  188.8140  176.1830  134.8260 C   0  0  0  0  0  2  0  0  0  0  0  0
  188.6540  174.7160  135.0110 C   0  0  0  0  0  0  0  0  0  0  0  0
  187.5230  174.2160  135.6450 O   0  0  0  0  0  1  0  0  0  0  0  0
  189.5560  173.9290  134.6230 O   0  0  0  0  0  0  0  0  0  0  0  0
  1 10  2  0  0  0  0
  1 16  1  0  0  0  0
  2 23  1  6  0  0  0
  2 26  1  0  0  0  0
  3  4  1  0  0  0  0
  4 20  2  0  0  0  0
  5  6  1  0  0  0  0
  6 27  2  0  0  0  0
  6 18  1  0  0  0  0
  7 23  1  0  0  0  0
  9 15  1  0  0  0  0
  9 25  1  0  0  0  0
 10 17  1  0  0  0  0
 11  3  2  0  0  0  0
 12  8  1  6  0  0  0
 12  2  1  0  0  0  0
 12 13  1  0  0  0  0
 13 11  1  6  0  0  0
 13 21  1  0  0  0  0
 14 22  2  0  0  0  0
 16 19  2  0  0  0  0
 17  8  1  0  0  0  0
 17  7  2  0  0  0  0
 18 15  2  0  0  0  0
 19  7  1  0  0  0  0
 21 20  1  0  0  0  0
 21 14  1  0  0  0  0
 22 27  1  0  0  0  0
 24  5  1  0  0  0  0
 26 14  1  0  0  0  0
 26  5  2  0  0  0  0
 27  9  1  0  0  0  0
 28  1  1  0  0  0  0
 29 30  1  0  0  0  0
 29 28  1  0  0  0  0
 30 31  1  0  0  0  0
 32 30  2  0  0  0  0
M  END
>  <MODEL>
4

>  <REMARK>
 VINA RESULT:      -9.2      5.057      8.382
  Name = 
  3 active torsions:
  status: ('A' for Active; 'I' for Inactive)
    1  A    between atoms: C_1  and  C_10
    2  A    between atoms: C_2  and  C_24
    3  A    between atoms: C_10  and  C_24
                            x       y       z     vdW  Elec       q    Type
                         _______ _______ _______ _____ _____    ______ ____

>  <TORSDO>
F 3

$$$$
=
 OpenBabel10262421373D

 32 37  0  0  1  0  0  0  0  0999 V2000
  182.2400  178.7600  138.3660 C   0  0  0  0  0  0  0  0  0  0  0  0
  186.0800  178.8390  141.7090 C   0  0  2  0  0  3  0  0  0  0  0  0
  183.8060  178.6290  146.0420 N   0  0  0  0  0  0  0  0  0  0  0  0
  185.0360  178.3080  146.7020 C   0  0  0  0  0  3  0  0  0  0  0  0
  188.4740  177.9820  141.6220 C   0  0  0  0  0  0  0  0  0  0  0  0
  189.5810  177.4840  142.2970 C   0  0  0  0  0  0  0  0  0  0  0  0
  184.6750  178.4670  139.7160 C   0  0  0  0  0  0  0  0  0  0  0  0
  183.6540  179.3670  141.8380 C   0  0  0  0  0  2  0  0  0  0  0  0
  190.8620  176.8090  143.9850 N   0  0  0  0  0  0  0  0  0  0  0  0
  182.3340  179.1140  139.7170 C   0  0  0  0  0  3  0  0  0  0  0  0
  183.7600  178.9610  144.7870 C   0  0  0  0  0  3  0  0  0  0  0  0
  184.8030  178.6270  142.5310 C   0  0  2  0  0  3  0  0  0  0  0  0
  185.0170  179.1110  143.9640 C   0  0  2  0  0  3  0  0  0  0  0  0
  187.3190  178.0760  143.7940 C   0  0  0  0  0  0  0  0  0  0  0  0
  191.6950  176.7220  142.8480 N   0  0  0  0  0  0  0  0  0  0  0  0
  183.3580  178.2490  137.6970 C   0  0  0  0  0  3  0  0  0  0  0  0
  183.5460  178.9600  140.3980 C   0  0  0  0  0  0  0  0  0  0  0  0
  190.8620  177.1520  141.7850 N   0  0  0  0  0  0  0  0  0  0  0  0
  184.5740  178.1040  138.3710 C   0  0  0  0  0  3  0  0  0  0  0  0
  186.1620  178.1890  146.0030 C   0  0  0  0  0  3  0  0  0  0  0  0
  186.1530  178.4040  144.5820 N   0  0  0  0  0  0  0  0  0  0  0  0
  188.4810  177.5710  144.4240 C   0  0  0  0  0  3  0  0  0  0  0  0
  185.8900  178.3120  140.3940 O   0  0  0  0  0  0  0  0  0  0  0  0
  188.5390  178.2120  140.2860 F   0  0  0  0  0  0  0  0  0  0  0  0
  191.3250  176.5600  145.3380 C   0  0  0  0  0  1  0  0  0  0  0  0
  187.3030  178.2520  142.3750 C   0  0  0  0  0  0  0  0  0  0  0  0
  189.5810  177.2810  143.6240 C   0  0  0  0  0  0  0  0  0  0  0  0
  180.9430  178.9010  137.6500 C   0  0  0  0  0  2  0  0  0  0  0  0
  180.2710  180.2060  138.0370 C   0  0  0  0  0  2  0  0  0  0  0  0
  180.7970  181.3130  137.1940 C   0  0  0  0  0  0  0  0  0  0  0  0
  181.2460  182.4860  137.7870 O   0  0  0  0  0  1  0  0  0  0  0  0
  180.8050  181.2000  135.9400 O   0  0  0  0  0  0  0  0  0  0  0  0
  1 10  1  0  0  0  0
  2 23  1  6  0  0  0
  2 26  1  0  0  0  0
  2 12  1  0  0  0  0
  3  4  1  0  0  0  0
  5  6  2  0  0  0  0
  5 26  1  0  0  0  0
  6 27  1  0  0  0  0
  7 23  1  0  0  0  0
  7 17  1  0  0  0  0
  9 25  1  0  0  0  0
 10 17  2  0  0  0  0
 11  3  2  0  0  0  0
 12  8  1  6  0  0  0
 12 13  1  0  0  0  0
 13 21  1  0  0  0  0
 13 11  1  1  0  0  0
 14 22  1  0  0  0  0
 14 21  1  0  0  0  0
 15  9  1  0  0  0  0
 16  1  2  0  0  0  0
 16 19  1  0  0  0  0
 17  8  1  0  0  0  0
 18  6  1  0  0  0  0
 18 15  2  0  0  0  0
 19  7  2  0  0  0  0
 20  4  2  0  0  0  0
 21 20  1  0  0  0  0
 24  5  1  0  0  0  0
 26 14  2  0  0  0  0
 27  9  1  0  0  0  0
 27 22  2  0  0  0  0
 28 29  1  0  0  0  0
 28  1  1  0  0  0  0
 30 31  1  0  0  0  0
 30 29  1  0  0  0  0
 32 30  2  0  0  0  0
M  END
>  <MODEL>
5

>  <REMARK>
 VINA RESULT:      -8.5      3.972      9.484
  Name = 
  3 active torsions:
  status: ('A' for Active; 'I' for Inactive)
    1  A    between atoms: C_1  and  C_10
    2  A    between atoms: C_2  and  C_24
    3  A    between atoms: C_10  and  C_24
                            x       y       z     vdW  Elec       q    Type
                         _______ _______ _______ _____ _____    ______ ____

>  <TORSDO>
F 3

$$$$
=
 OpenBabel10262421373D

 32 37  0  0  1  0  0  0  0  0999 V2000
  190.7080  177.6560  143.8610 C   0  0  0  0  0  0  0  0  0  0  0  0
  188.2710  178.0400  139.4070 C   0  0  2  0  0  3  0  0  0  0  0  0
  191.2770  175.7660  136.2790 N   0  0  0  0  0  0  0  0  0  0  0  0
  190.2440  175.7050  135.2890 C   0  0  0  0  0  3  0  0  0  0  0  0
  185.8070  178.1270  138.7780 C   0  0  0  0  0  0  0  0  0  0  0  0
  184.8090  177.8620  137.8490 C   0  0  0  0  0  0  0  0  0  0  0  0
  188.8170  177.8260  141.8020 C   0  0  0  0  0  0  0  0  0  0  0  0
  190.6350  177.6360  140.0640 C   0  0  0  0  0  2  0  0  0  0  0  0
  183.8480  177.1930  135.9580 N   0  0  0  0  0  0  0  0  0  0  0  0
  191.1240  177.5960  142.5260 C   0  0  0  0  0  3  0  0  0  0  0  0
  191.1330  176.4240  137.3900 C   0  0  0  0  0  3  0  0  0  0  0  0
  189.5030  177.1640  139.1450 C   0  0  2  0  0  3  0  0  0  0  0  0
  189.8920  177.2370  137.6700 C   0  0  2  0  0  3  0  0  0  0  0  0
  187.4110  177.1600  137.1810 C   0  0  0  0  0  0  0  0  0  0  0  0
  182.7930  177.7450  136.7190 N   0  0  0  0  0  0  0  0  0  0  0  0
  189.3470  177.7870  144.1640 C   0  0  0  0  0  3  0  0  0  0  0  0
  190.1840  177.6710  141.4950 C   0  0  0  0  0  0  0  0  0  0  0  0
  183.4240  178.1610  137.9180 N   0  0  0  0  0  0  0  0  0  0  0  0
  188.4040  177.8740  143.1350 C   0  0  0  0  0  3  0  0  0  0  0  0
  189.0350  176.1970  135.5480 C   0  0  0  0  0  3  0  0  0  0  0  0
  188.7660  176.8130  136.8180 N   0  0  0  0  0  0  0  0  0  0  0  0
  186.3510  176.9200  136.2750 C   0  0  0  0  0  3  0  0  0  0  0  0
  187.8730  177.9020  140.7730 O   0  0  0  0  0  0  0  0  0  0  0  0
  185.5030  178.7570  139.9420 F   0  0  0  0  0  0  0  0  0  0  0  0
  183.6900  176.7240  134.5940 C   0  0  0  0  0  1  0  0  0  0  0  0
  187.1330  177.7380  138.4590 C   0  0  0  0  0  0  0  0  0  0  0  0
  185.0670  177.2810  136.6660 C   0  0  0  0  0  0  0  0  0  0  0  0
  191.7080  177.5510  144.9570 C   0  0  0  0  0  2  0  0  0  0  0  0
  191.4160  176.3340  145.8170 C   0  0  0  0  0  2  0  0  0  0  0  0
  191.2470  176.7480  147.2350 C   0  0  0  0  0  0  0  0  0  0  0  0
  192.3270  176.6950  148.1080 O   0  0  0  0  0  1  0  0  0  0  0  0
  190.1190  177.1180  147.6540 O   0  0  0  0  0  0  0  0  0  0  0  0
  1 16  1  0  0  0  0
  1 28  1  0  0  0  0
  2 26  1  6  0  0  0
  2 23  1  0  0  0  0
  3 11  2  0  0  0  0
  4 20  2  0  0  0  0
  4  3  1  0  0  0  0
  5 24  1  0  0  0  0
  6 18  1  0  0  0  0
  6  5  2  0  0  0  0
  7 19  1  0  0  0  0
  8 17  1  0  0  0  0
  9 27  1  0  0  0  0
  9 15  1  0  0  0  0
 10  1  2  0  0  0  0
 12  2  1  0  0  0  0
 12  8  1  1  0  0  0
 13 11  1  1  0  0  0
 13 12  1  0  0  0  0
 14 26  2  0  0  0  0
 15 18  2  0  0  0  0
 17  7  2  0  0  0  0
 17 10  1  0  0  0  0
 19 16  2  0  0  0  0
 20 21  1  0  0  0  0
 21 14  1  0  0  0  0
 21 13  1  0  0  0  0
 22 27  2  0  0  0  0
 22 14  1  0  0  0  0
 23  7  1  0  0  0  0
 25  9  1  0  0  0  0
 26  5  1  0  0  0  0
 27  6  1  0  0  0  0
 28 29  1  0  0  0  0
 29 30  1  0  0  0  0
 30 32  2  0  0  0  0
 30 31  1  0  0  0  0
M  END
>  <MODEL>
6

>  <REMARK>
 VINA RESULT:      -8.3      3.790      5.198
  Name = 
  3 active torsions:
  status: ('A' for Active; 'I' for Inactive)
    1  A    between atoms: C_1  and  C_10
    2  A    between atoms: C_2  and  C_24
    3  A    between atoms: C_10  and  C_24
                            x       y       z     vdW  Elec       q    Type
                         _______ _______ _______ _____ _____    ______ ____

>  <TORSDO>
F 3

$$$$
=
 OpenBabel10262421373D

 32 37  0  0  1  0  0  0  0  0999 V2000
  181.1840  178.3590  139.5620 C   0  0  0  0  0  0  0  0  0  0  0  0
  185.6130  178.7530  142.0430 C   0  0  2  0  0  3  0  0  0  0  0  0
  184.2970  178.4530  146.7510 N   0  0  0  0  0  0  0  0  0  0  0  0
  185.6560  178.2270  147.1440 C   0  0  0  0  0  3  0  0  0  0  0  0
  187.9930  178.0610  141.4660 C   0  0  0  0  0  0  0  0  0  0  0  0
  189.2470  177.6510  141.8990 C   0  0  0  0  0  0  0  0  0  0  0  0
  183.8600  178.2540  140.3820 C   0  0  0  0  0  0  0  0  0  0  0  0
  183.2340  179.1150  142.6680 C   0  0  0  0  0  2  0  0  0  0  0  0
  190.8910  177.0910  143.2880 N   0  0  0  0  0  0  0  0  0  0  0  0
  181.5290  178.7390  140.8640 C   0  0  0  0  0  3  0  0  0  0  0  0
  183.9720  178.7620  145.5320 C   0  0  0  0  0  3  0  0  0  0  0  0
  184.5500  178.4660  143.1110 C   0  0  2  0  0  3  0  0  0  0  0  0
  185.0190  178.9850  144.4680 C   0  0  2  0  0  3  0  0  0  0  0  0
  187.3050  178.1090  143.8290 C   0  0  0  0  0  0  0  0  0  0  0  0
  191.4780  177.0450  142.0040 N   0  0  0  0  0  0  0  0  0  0  0  0
  182.1750  177.9160  138.6770 C   0  0  0  0  0  3  0  0  0  0  0  0
  182.8620  178.6800  141.2810 C   0  0  0  0  0  0  0  0  0  0  0  0
  190.4160  177.4000  141.1350 N   0  0  0  0  0  0  0  0  0  0  0  0
  183.5110  177.8660  139.0870 C   0  0  0  0  0  3  0  0  0  0  0  0
  186.6200  178.1760  146.2280 C   0  0  0  0  0  3  0  0  0  0  0  0
  186.3050  178.3680  144.8400 N   0  0  0  0  0  0  0  0  0  0  0  0
  188.6040  177.6940  144.2070 C   0  0  0  0  0  3  0  0  0  0  0  0
  185.1950  178.1940  140.7950 O   0  0  0  0  0  0  0  0  0  0  0  0
  187.7660  178.2750  140.1450 F   0  0  0  0  0  0  0  0  0  0  0  0
  191.6390  176.8960  144.5170 C   0  0  0  0  0  1  0  0  0  0  0  0
  186.9850  178.2620  142.4440 C   0  0  0  0  0  0  0  0  0  0  0  0
  189.5330  177.4690  143.1990 C   0  0  0  0  0  0  0  0  0  0  0  0
  179.7610  178.3990  139.1280 C   0  0  0  0  0  2  0  0  0  0  0  0
  178.9600  177.3430  139.8660 C   0  0  0  0  0  2  0  0  0  0  0  0
  179.2840  175.9960  139.3270 C   0  0  0  0  0  0  0  0  0  0  0  0
  178.9390  175.6690  138.0210 O   0  0  0  0  0  0  0  0  0  0  0  0
  179.8420  175.1400  140.0620 O   0  0  0  0  0  1  0  0  0  0  0  0
  1 10  1  0  0  0  0
  2 23  1  6  0  0  0
  2 26  1  0  0  0  0
  2 12  1  0  0  0  0
  3  4  1  0  0  0  0
  5  6  2  0  0  0  0
  5 26  1  0  0  0  0
  6 27  1  0  0  0  0
  7 23  1  0  0  0  0
  7 17  1  0  0  0  0
  9 25  1  0  0  0  0
 10 17  2  0  0  0  0
 11  3  2  0  0  0  0
 12  8  1  6  0  0  0
 12 13  1  0  0  0  0
 13 21  1  0  0  0  0
 13 11  1  1  0  0  0
 14 22  1  0  0  0  0
 14 21  1  0  0  0  0
 15  9  1  0  0  0  0
 16 19  1  0  0  0  0
 16  1  2  0  0  0  0
 17  8  1  0  0  0  0
 18  6  1  0  0  0  0
 18 15  2  0  0  0  0
 19  7  2  0  0  0  0
 20  4  2  0  0  0  0
 21 20  1  0  0  0  0
 24  5  1  0  0  0  0
 26 14  2  0  0  0  0
 27  9  1  0  0  0  0
 27 22  2  0  0  0  0
 28  1  1  0  0  0  0
 28 29  1  0  0  0  0
 30 29  1  0  0  0  0
 30 32  1  0  0  0  0
 31 30  2  0  0  0  0
M  END
>  <MODEL>
7

>  <REMARK>
 VINA RESULT:      -8.2      3.952      9.286
  Name = 
  3 active torsions:
  status: ('A' for Active; 'I' for Inactive)
    1  A    between atoms: C_1  and  C_10
    2  A    between atoms: C_2  and  C_24
    3  A    between atoms: C_10  and  C_24
                            x       y       z     vdW  Elec       q    Type
                         _______ _______ _______ _____ _____    ______ ____

>  <TORSDO>
F 3

$$$$
=
 OpenBabel10262421373D

 32 37  0  0  1  0  0  0  0  0999 V2000
  180.6220  179.3750  141.8320 C   0  0  0  0  0  0  0  0  0  0  0  0
  185.3650  177.7170  142.6550 C   0  0  2  0  0  3  0  0  0  0  0  0
  187.6750  178.7910  138.4720 N   0  0  0  0  0  0  0  0  0  0  0  0
  188.9500  178.5790  139.0910 C   0  0  0  0  0  3  0  0  0  0  0  0
  186.8000  177.5310  144.7480 C   0  0  0  0  0  0  0  0  0  0  0  0
  188.0630  177.5310  145.3250 C   0  0  0  0  0  0  0  0  0  0  0  0
  183.0950  178.6440  142.9220 C   0  0  0  0  0  0  0  0  0  0  0  0
  184.0290  178.2160  140.6190 C   0  0  0  0  0  2  0  0  0  0  0  0
  190.2800  177.6140  145.4840 N   0  0  0  0  0  0  0  0  0  0  0  0
  181.6720  179.0010  140.9860 C   0  0  0  0  0  3  0  0  0  0  0  0
  186.5590  178.5170  139.0770 C   0  0  0  0  0  3  0  0  0  0  0  0
  185.3900  178.4210  141.2930 C   0  0  2  0  0  3  0  0  0  0  0  0
  186.5380  177.8780  140.4450 C   0  0  2  0  0  3  0  0  0  0  0  0
  187.9010  177.8930  142.5760 C   0  0  0  0  0  0  0  0  0  0  0  0
  189.8370  177.3660  146.8020 N   0  0  0  0  0  0  0  0  0  0  0  0
  180.8130  179.3960  143.2180 C   0  0  0  0  0  3  0  0  0  0  0  0
  182.9120  178.6440  141.5250 C   0  0  0  0  0  0  0  0  0  0  0  0
  188.4250  177.3200  146.6800 N   0  0  0  0  0  0  0  0  0  0  0  0
  182.0480  179.0290  143.7620 C   0  0  0  0  0  3  0  0  0  0  0  0
  189.0240  178.2380  140.3750 C   0  0  0  0  0  3  0  0  0  0  0  0
  187.8240  178.0580  141.1430 N   0  0  0  0  0  0  0  0  0  0  0  0
  189.1600  177.8780  143.2220 C   0  0  0  0  0  3  0  0  0  0  0  0
  184.3340  178.2870  143.4650 O   0  0  0  0  0  0  0  0  0  0  0  0
  185.7030  177.3060  145.5160 F   0  0  0  0  0  0  0  0  0  0  0  0
  191.6810  177.6410  145.1020 C   0  0  0  0  0  1  0  0  0  0  0  0
  186.7070  177.7510  143.3500 C   0  0  0  0  0  0  0  0  0  0  0  0
  189.1820  177.7050  144.6010 C   0  0  0  0  0  0  0  0  0  0  0  0
  179.3100  179.7780  141.2550 C   0  0  0  0  0  2  0  0  0  0  0  0
  179.3020  181.2690  140.9690 C   0  0  0  0  0  2  0  0  0  0  0  0
  179.3210  181.5000  139.5000 C   0  0  0  0  0  0  0  0  0  0  0  0
  179.3050  182.7960  139.0000 O   0  0  0  0  0  1  0  0  0  0  0  0
  179.3200  180.5210  138.7080 O   0  0  0  0  0  0  0  0  0  0  0  0
  1 16  1  0  0  0  0
  2 26  1  1  0  0  0
  2 23  1  0  0  0  0
  3 11  2  0  0  0  0
  3  4  1  0  0  0  0
  4 20  2  0  0  0  0
  5  6  1  0  0  0  0
  5 24  1  0  0  0  0
  6 18  1  0  0  0  0
  7 23  1  0  0  0  0
  7 19  1  0  0  0  0
  8 17  1  0  0  0  0
  9 15  1  0  0  0  0
 10 17  1  0  0  0  0
 10  1  2  0  0  0  0
 12  8  1  6  0  0  0
 12  2  1  0  0  0  0
 13 11  1  6  0  0  0
 13 21  1  0  0  0  0
 13 12  1  0  0  0  0
 14 22  2  0  0  0  0
 14 26  1  0  0  0  0
 16 19  2  0  0  0  0
 17  7  2  0  0  0  0
 18 15  2  0  0  0  0
 20 21  1  0  0  0  0
 21 14  1  0  0  0  0
 22 27  1  0  0  0  0
 25  9  1  0  0  0  0
 26  5  2  0  0  0  0
 27  6  2  0  0  0  0
 27  9  1  0  0  0  0
 28  1  1  0  0  0  0
 29 28  1  0  0  0  0
 30 29  1  0  0  0  0
 31 30  1  0  0  0  0
 32 30  2  0  0  0  0
M  END
>  <MODEL>
8

>  <REMARK>
 VINA RESULT:      -8.2      3.876      8.632
  Name = 
  3 active torsions:
  status: ('A' for Active; 'I' for Inactive)
    1  A    between atoms: C_1  and  C_10
    2  A    between atoms: C_2  and  C_24
    3  A    between atoms: C_10  and  C_24
                            x       y       z     vdW  Elec       q    Type
                         _______ _______ _______ _____ _____    ______ ____

>  <TORSDO>
F 3

$$$$
=
 OpenBabel10262421373D

 32 37  0  0  1  0  0  0  0  0999 V2000
  191.0580  177.5000  140.3680 C   0  0  0  0  0  0  0  0  0  0  0  0
  186.3750  177.5350  142.3650 C   0  0  2  0  0  3  0  0  0  0  0  0
  187.1890  178.3140  147.1320 N   0  0  0  0  0  0  0  0  0  0  0  0
  185.8070  178.6280  147.3430 C   0  0  0  0  0  3  0  0  0  0  0  0
  184.1050  178.2380  141.4550 C   0  0  0  0  0  0  0  0  0  0  0  0
  182.8320  178.7360  141.6970 C   0  0  0  0  0  0  0  0  0  0  0  0
  188.3180  177.7850  140.8670 C   0  0  0  0  0  0  0  0  0  0  0  0
  188.6540  177.1650  143.2880 C   0  0  0  0  0  2  0  0  0  0  0  0
  181.0750  179.5020  142.8260 N   0  0  0  0  0  0  0  0  0  0  0  0
  190.5590  177.2800  141.6560 C   0  0  0  0  0  3  0  0  0  0  0  0
  187.6290  177.8600  145.9970 C   0  0  0  0  0  3  0  0  0  0  0  0
  187.3290  177.9030  143.5080 C   0  0  2  0  0  3  0  0  0  0  0  0
  186.6930  177.5550  144.8520 C   0  0  2  0  0  3  0  0  0  0  0  0
  184.5320  178.4310  143.8710 C   0  0  0  0  0  0  0  0  0  0  0  0
  180.6330  179.4240  141.4860 N   0  0  0  0  0  0  0  0  0  0  0  0
  190.1910  177.8750  139.3360 C   0  0  0  0  0  3  0  0  0  0  0  0
  189.1930  177.4300  141.9130 C   0  0  0  0  0  0  0  0  0  0  0  0
  181.7650  178.9380  140.7850 N   0  0  0  0  0  0  0  0  0  0  0  0
  188.8220  178.0150  139.5850 C   0  0  0  0  0  3  0  0  0  0  0  0
  184.9510  178.6090  146.3250 C   0  0  0  0  0  3  0  0  0  0  0  0
  185.4040  178.2530  145.0090 N   0  0  0  0  0  0  0  0  0  0  0  0
  183.2200  178.9290  144.0540 C   0  0  0  0  0  3  0  0  0  0  0  0
  186.9500  177.9370  141.1190 O   0  0  0  0  0  0  0  0  0  0  0  0
  184.4630  177.8700  140.1980 F   0  0  0  0  0  0  0  0  0  0  0  0
  180.2090  179.8580  143.9350 C   0  0  0  0  0  1  0  0  0  0  0  0
  184.9910  178.1130  142.5550 C   0  0  0  0  0  0  0  0  0  0  0  0
  182.4160  179.0710  142.9300 C   0  0  0  0  0  0  0  0  0  0  0  0
  192.5170  177.3640  140.1030 C   0  0  0  0  0  2  0  0  0  0  0  0
  192.7590  177.1280  138.6230 C   0  0  0  0  0  2  0  0  0  0  0  0
  193.3340  175.7720  138.4160 C   0  0  0  0  0  0  0  0  0  0  0  0
  194.6770  175.5390  138.6830 O   0  0  0  0  0  1  0  0  0  0  0  0
  192.6120  174.8430  137.9690 O   0  0  0  0  0  0  0  0  0  0  0  0
  1 10  1  0  0  0  0
  2 23  1  6  0  0  0
  2 26  1  0  0  0  0
  2 12  1  0  0  0  0
  3  4  1  0  0  0  0
  5  6  2  0  0  0  0
  5 26  1  0  0  0  0
  6 27  1  0  0  0  0
  7 23  1  0  0  0  0
  7 17  1  0  0  0  0
  9 27  1  0  0  0  0
  9 25  1  0  0  0  0
 10 17  2  0  0  0  0
 11  3  2  0  0  0  0
 12  8  1  6  0  0  0
 12 13  1  0  0  0  0
 13 21  1  0  0  0  0
 13 11  1  1  0  0  0
 14 22  1  0  0  0  0
 14 21  1  0  0  0  0
 15  9  1  0  0  0  0
 16 19  1  0  0  0  0
 16  1  2  0  0  0  0
 17  8  1  0  0  0  0
 18 15  2  0  0  0  0
 18  6  1  0  0  0  0
 19  7  2  0  0  0  0
 20  4  2  0  0  0  0
 21 20  1  0  0  0  0
 24  5  1  0  0  0  0
 26 14  2  0  0  0  0
 27 22  2  0  0  0  0
 28  1  1  0  0  0  0
 29 28  1  0  0  0  0
 30 29  1  0  0  0  0
 30 31  1  0  0  0  0
 32 30  2  0  0  0  0
M  END
>  <MODEL>
9

>  <REMARK>
 VINA RESULT:      -8.1      3.827      5.502
  Name = 
  3 active torsions:
  status: ('A' for Active; 'I' for Inactive)
    1  A    between atoms: C_1  and  C_10
    2  A    between atoms: C_2  and  C_24
    3  A    between atoms: C_10  and  C_24
                            x       y       z     vdW  Elec       q    Type
                         _______ _______ _______ _____ _____    ______ ____

>  <TORSDO>
F 3

$$$$
