=
 OpenBabel10262421593D

 30 35  0  0  1  0  0  0  0  0999 V2000
  191.1310  176.3800  138.5920 C   0  0  2  0  0  3  0  0  0  0  0  0
  193.5430  176.8100  137.8340 C   0  0  0  0  0  2  0  0  0  0  0  0
  189.5080  173.4980  136.6790 C   0  0  0  0  0  2  0  0  0  0  0  0
  189.2500  178.0500  138.6760 C   0  0  0  0  0  0  0  0  0  0  0  0
  190.0620  177.1300  139.2570 N   0  0  0  0  0  0  0  0  0  0  0  0
  187.7880  177.9650  141.8100 C   0  0  0  0  0  3  0  0  0  0  0  0
  187.9120  178.8480  136.6160 C   0  0  0  0  0  2  0  0  0  0  0  0
  188.5210  177.8790  140.6410 C   0  0  0  0  0  0  0  0  0  0  0  0
  189.9790  176.1830  141.5400 C   0  0  0  0  0  3  0  0  0  0  0  0
  188.3280  175.7850  136.7760 C   0  0  2  0  0  3  0  0  0  0  0  0
  188.6710  174.4780  137.5090 C   0  0  1  0  0  3  0  0  0  0  0  0
  189.5830  177.0290  140.5080 C   0  0  0  0  0  0  0  0  0  0  0  0
  188.2970  178.5550  139.5080 N   0  0  0  0  0  0  0  0  0  0  0  0
  193.7880  175.3410  137.5120 C   0  0  0  0  0  2  0  0  0  0  0  0
  187.4820  175.5570  135.5080 C   0  0  0  0  0  2  0  0  0  0  0  0
  185.9800  177.4470  135.8310 O   0  0  0  0  0  0  0  0  0  0  0  0
  189.2780  176.2790  142.7770 C   0  0  0  0  0  3  0  0  0  0  0  0
  192.4920  177.0150  138.9250 C   0  0  0  0  0  2  0  0  0  0  0  0
  190.4900  174.1960  135.7110 C   0  0  0  0  0  2  0  0  0  0  0  0
  193.2140  173.3810  136.0050 C   0  0  0  0  0  1  0  0  0  0  0  0
  188.1830  177.1710  142.9000 C   0  0  0  0  0  3  0  0  0  0  0  0
  190.9160  176.3380  137.0560 C   0  0  2  0  0  3  0  0  0  0  0  0
  189.2020  178.1750  137.1760 C   0  0  2  0  0  3  0  0  0  0  0  0
  187.4960  173.8480  137.9160 O   0  0  0  0  0  1  0  0  0  0  0  0
  189.5010  176.7950  136.5610 C   0  0  2  0  0  3  0  0  0  0  0  0
  186.9330  176.8780  134.9640 C   0  0  0  0  0  2  0  0  0  0  0  0
  185.6540  178.9510  137.6680 C   0  0  0  0  0  1  0  0  0  0  0  0
  192.7420  174.6510  136.6410 C   0  0  0  0  0  0  0  0  0  0  0  0
  191.4500  175.0540  136.4690 C   0  0  0  0  0  0  0  0  0  0  0  0
  186.6250  178.0570  136.9340 C   0  0  2  0  0  3  0  0  0  0  0  0
  1 18  1  6  0  0  0
  1  5  1  0  0  0  0
  2 18  1  0  0  0  0
  3 11  1  0  0  0  0
  4  5  1  0  0  0  0
  4 13  2  0  0  0  0
  5 12  1  0  0  0  0
  6 21  1  0  0  0  0
  7 30  1  0  0  0  0
  8  6  2  0  0  0  0
  9 17  1  0  0  0  0
 10 15  1  6  0  0  0
 10 11  1  0  0  0  0
 11 24  1  6  0  0  0
 12  8  1  0  0  0  0
 12  9  2  0  0  0  0
 13  8  1  0  0  0  0
 14  2  1  0  0  0  0
 16 30  1  0  0  0  0
 17 21  2  0  0  0  0
 19 29  1  0  0  0  0
 19  3  1  0  0  0  0
 20 28  1  0  0  0  0
 22 29  1  1  0  0  0
 22  1  1  0  0  0  0
 23  7  1  1  0  0  0
 23  4  1  0  0  0  0
 25 10  1  0  0  0  0
 25 22  1  0  0  0  0
 25 23  1  0  0  0  0
 26 15  1  0  0  0  0
 26 16  1  0  0  0  0
 28 14  1  0  0  0  0
 29 28  2  0  0  0  0
 30 27  1  0  0  0  0
M  END
>  <MODEL>
1

>  <REMARK>
 VINA RESULT:      -6.3      0.000      0.000
  Name = 
  0 active torsions:
  status: ('A' for Active; 'I' for Inactive)
                            x       y       z     vdW  Elec       q    Type
                         _______ _______ _______ _____ _____    ______ ____

>  <TORSDO>
F 0

$$$$
=
 OpenBabel10262421593D

 30 35  0  0  1  0  0  0  0  0999 V2000
  180.9660  178.3940  136.4100 C   0  0  2  0  0  3  0  0  0  0  0  0
  180.4390  176.1590  135.2690 C   0  0  0  0  0  2  0  0  0  0  0  0
  184.2200  178.2640  138.4100 C   0  0  0  0  0  2  0  0  0  0  0  0
  179.4710  179.6900  137.9660 C   0  0  0  0  0  0  0  0  0  0  0  0
  180.2260  179.5830  136.8420 N   0  0  0  0  0  0  0  0  0  0  0  0
  179.2410  182.9610  136.8670 C   0  0  0  0  0  3  0  0  0  0  0  0
  179.0920  179.1020  140.4530 C   0  0  0  0  0  2  0  0  0  0  0  0
  179.4260  181.6160  137.1250 C   0  0  0  0  0  0  0  0  0  0  0  0
  180.8450  181.3220  135.1970 C   0  0  0  0  0  3  0  0  0  0  0  0
  182.0540  179.0560  139.5550 C   0  0  2  0  0  3  0  0  0  0  0  0
  183.2090  179.4000  138.6010 C   0  0  1  0  0  3  0  0  0  0  0  0
  180.1910  180.8200  136.3190 C   0  0  0  0  0  0  0  0  0  0  0  0
  178.9390  180.9280  138.1630 N   0  0  0  0  0  0  0  0  0  0  0  0
  181.9120  175.8190  135.0770 C   0  0  0  0  0  2  0  0  0  0  0  0
  182.5310  178.7400  140.9860 C   0  0  0  0  0  2  0  0  0  0  0  0
  180.7520  179.9350  142.1440 O   0  0  0  0  0  0  0  0  0  0  0  0
  180.6370  182.6940  134.8740 C   0  0  0  0  0  3  0  0  0  0  0  0
  180.1740  177.6640  135.3120 C   0  0  0  0  0  2  0  0  0  0  0  0
  183.5820  176.8580  138.4780 C   0  0  0  0  0  2  0  0  0  0  0  0
  184.1080  175.2150  136.1980 C   0  0  0  0  0  1  0  0  0  0  0  0
  179.8350  183.5050  135.7170 C   0  0  0  0  0  3  0  0  0  0  0  0
  181.2430  177.4400  137.6020 C   0  0  2  0  0  3  0  0  0  0  0  0
  179.5640  178.6390  139.0410 C   0  0  2  0  0  3  0  0  0  0  0  0
  183.8750  180.5350  139.0640 O   0  0  0  0  0  1  0  0  0  0  0  0
  180.9860  178.0470  139.0240 C   0  0  2  0  0  3  0  0  0  0  0  0
  181.3530  178.6740  141.9600 C   0  0  0  0  0  2  0  0  0  0  0  0
  179.0380  181.4200  141.3690 C   0  0  0  0  0  1  0  0  0  0  0  0
  182.8070  175.9470  136.3070 C   0  0  0  0  0  0  0  0  0  0  0  0
  182.5460  176.7010  137.4130 C   0  0  0  0  0  0  0  0  0  0  0  0
  179.9390  180.2560  141.0300 C   0  0  2  0  0  3  0  0  0  0  0  0
  1 18  1  6  0  0  0
  1  5  1  0  0  0  0
  1 22  1  0  0  0  0
  2 18  1  0  0  0  0
  3 19  1  0  0  0  0
  3 11  1  0  0  0  0
  4 13  2  0  0  0  0
  4 23  1  0  0  0  0
  5  4  1  0  0  0  0
  6  8  1  0  0  0  0
  7 30  1  0  0  0  0
  8 13  1  0  0  0  0
  9 12  1  0  0  0  0
 10 15  1  1  0  0  0
 11 24  1  1  0  0  0
 11 10  1  0  0  0  0
 12  5  1  0  0  0  0
 12  8  2  0  0  0  0
 14  2  1  0  0  0  0
 14 28  1  0  0  0  0
 15 26  1  0  0  0  0
 17  9  2  0  0  0  0
 17 21  1  0  0  0  0
 20 28  1  0  0  0  0
 21  6  2  0  0  0  0
 22 29  1  1  0  0  0
 22 25  1  0  0  0  0
 23  7  1  1  0  0  0
 25 23  1  0  0  0  0
 25 10  1  0  0  0  0
 26 16  1  0  0  0  0
 28 29  2  0  0  0  0
 29 19  1  0  0  0  0
 30 27  1  0  0  0  0
 30 16  1  0  0  0  0
M  END
>  <MODEL>
2

>  <REMARK>
 VINA RESULT:      -5.6      6.591     10.034
  Name = 
  0 active torsions:
  status: ('A' for Active; 'I' for Inactive)
                            x       y       z     vdW  Elec       q    Type
                         _______ _______ _______ _____ _____    ______ ____

>  <TORSDO>
F 0

$$$$
=
 OpenBabel10262421593D

 30 35  0  0  1  0  0  0  0  0999 V2000
  183.2250  179.3000  140.1690 C   0  0  2  0  0  3  0  0  0  0  0  0
  185.6580  179.0250  140.9290 C   0  0  0  0  0  2  0  0  0  0  0  0
  180.7500  178.8130  143.0400 C   0  0  0  0  0  2  0  0  0  0  0  0
  182.0740  178.0700  138.2990 C   0  0  0  0  0  0  0  0  0  0  0  0
  182.4720  179.2130  138.9140 N   0  0  0  0  0  0  0  0  0  0  0  0
  180.5490  180.3540  136.1980 C   0  0  0  0  0  3  0  0  0  0  0  0
  181.2040  175.6430  138.4660 C   0  0  0  0  0  2  0  0  0  0  0  0
  181.2490  179.6070  137.1250 C   0  0  0  0  0  0  0  0  0  0  0  0
  181.9550  181.5630  138.3440 C   0  0  0  0  0  3  0  0  0  0  0  0
  180.4760  177.4430  140.8770 C   0  0  2  0  0  3  0  0  0  0  0  0
  180.2920  178.7980  141.5770 C   0  0  1  0  0  3  0  0  0  0  0  0
  181.9360  180.1840  138.1560 C   0  0  0  0  0  0  0  0  0  0  0  0
  181.3340  178.2720  137.1740 N   0  0  0  0  0  0  0  0  0  0  0  0
  185.3680  179.5710  142.3220 C   0  0  0  0  0  2  0  0  0  0  0  0
  179.6600  176.3120  141.5330 C   0  0  0  0  0  2  0  0  0  0  0  0
  178.9310  175.2550  139.4630 O   0  0  0  0  0  0  0  0  0  0  0  0
  181.2850  182.3690  137.3790 C   0  0  0  0  0  3  0  0  0  0  0  0
  184.7070  179.5720  139.8640 C   0  0  0  0  0  2  0  0  0  0  0  0
  181.9590  177.8890  143.3120 C   0  0  0  0  0  2  0  0  0  0  0  0
  184.1880  179.1950  144.5380 C   0  0  0  0  0  1  0  0  0  0  0  0
  180.5830  181.7540  136.3120 C   0  0  0  0  0  3  0  0  0  0  0  0
  183.0740  178.0030  141.0060 C   0  0  2  0  0  3  0  0  0  0  0  0
  182.1380  176.7560  139.0320 C   0  0  2  0  0  3  0  0  0  0  0  0
  178.9510  179.1790  141.5130 O   0  0  0  0  0  1  0  0  0  0  0  0
  181.9430  177.0260  140.5360 C   0  0  2  0  0  3  0  0  0  0  0  0
  179.6490  175.0570  140.6590 C   0  0  0  0  0  2  0  0  0  0  0  0
  179.0940  175.9240  137.1680 C   0  0  0  0  0  1  0  0  0  0  0  0
  184.1810  178.9570  143.0590 C   0  0  0  0  0  0  0  0  0  0  0  0
  183.1310  178.3030  142.4850 C   0  0  0  0  0  0  0  0  0  0  0  0
  179.7060  176.0060  138.5470 C   0  0  2  0  0  3  0  0  0  0  0  0
  1 18  1  6  0  0  0
  1 22  1  0  0  0  0
  2 14  1  0  0  0  0
  3 19  1  0  0  0  0
  4  5  1  0  0  0  0
  4 23  1  0  0  0  0
  5  1  1  0  0  0  0
  6 21  2  0  0  0  0
  6  8  1  0  0  0  0
  7 30  1  0  0  0  0
  8 13  1  0  0  0  0
  8 12  2  0  0  0  0
 10 15  1  1  0  0  0
 10 11  1  0  0  0  0
 11 24  1  1  0  0  0
 11  3  1  0  0  0  0
 12  9  1  0  0  0  0
 12  5  1  0  0  0  0
 13  4  2  0  0  0  0
 14 28  1  0  0  0  0
 16 26  1  0  0  0  0
 17  9  2  0  0  0  0
 18  2  1  0  0  0  0
 21 17  1  0  0  0  0
 22 29  1  1  0  0  0
 23  7  1  6  0  0  0
 23 25  1  0  0  0  0
 25 10  1  0  0  0  0
 25 22  1  0  0  0  0
 26 15  1  0  0  0  0
 27 30  1  0  0  0  0
 28 20  1  0  0  0  0
 29 28  2  0  0  0  0
 29 19  1  0  0  0  0
 30 16  1  0  0  0  0
M  END
>  <MODEL>
3

>  <REMARK>
 VINA RESULT:      -5.4      6.701      9.560
  Name = 
  0 active torsions:
  status: ('A' for Active; 'I' for Inactive)
                            x       y       z     vdW  Elec       q    Type
                         _______ _______ _______ _____ _____    ______ ____

>  <TORSDO>
F 0

$$$$
=
 OpenBabel10262421593D

 30 35  0  0  1  0  0  0  0  0999 V2000
  189.4170  175.6610  136.3250 C   0  0  2  0  0  3  0  0  0  0  0  0
  191.3440  175.7520  134.6360 C   0  0  0  0  0  2  0  0  0  0  0  0
  187.7810  172.2100  136.4660 C   0  0  0  0  0  2  0  0  0  0  0  0
  187.4080  177.1740  136.4140 C   0  0  0  0  0  0  0  0  0  0  0  0
  188.5090  176.6100  136.9740 N   0  0  0  0  0  0  0  0  0  0  0  0
  187.0740  178.4410  139.6140 C   0  0  0  0  0  3  0  0  0  0  0  0
  185.3610  176.9760  134.8510 C   0  0  0  0  0  2  0  0  0  0  0  0
  187.3930  177.8650  138.3990 C   0  0  0  0  0  0  0  0  0  0  0  0
  189.3310  176.7500  139.3020 C   0  0  0  0  0  3  0  0  0  0  0  0
  186.3230  174.2940  136.0610 C   0  0  2  0  0  3  0  0  0  0  0  0
  187.1030  173.4430  137.0760 C   0  0  1  0  0  3  0  0  0  0  0  0
  188.4840  177.0570  138.2410 C   0  0  0  0  0  0  0  0  0  0  0  0
  186.7030  177.9770  137.2590 N   0  0  0  0  0  0  0  0  0  0  0  0
  191.7200  174.2920  134.8650 C   0  0  0  0  0  2  0  0  0  0  0  0
  185.1650  173.5250  135.3960 C   0  0  0  0  0  2  0  0  0  0  0  0
  183.5480  175.3460  135.4580 O   0  0  0  0  0  0  0  0  0  0  0  0
  189.0610  177.3660  140.5590 C   0  0  0  0  0  3  0  0  0  0  0  0
  190.6830  176.3970  135.8540 C   0  0  0  0  0  2  0  0  0  0  0  0
  188.2630  172.4320  135.0140 C   0  0  0  0  0  2  0  0  0  0  0  0
  191.0340  171.8640  134.5940 C   0  0  0  0  0  1  0  0  0  0  0  0
  187.9290  178.2060  140.7040 C   0  0  0  0  0  3  0  0  0  0  0  0
  188.7280  174.9510  135.1300 C   0  0  2  0  0  3  0  0  0  0  0  0
  186.8570  176.6330  135.1210 C   0  0  2  0  0  3  0  0  0  0  0  0
  186.2470  173.0360  138.1000 O   0  0  0  0  0  1  0  0  0  0  0  0
  187.1730  175.1260  135.0480 C   0  0  2  0  0  3  0  0  0  0  0  0
  184.2530  174.4690  134.6100 C   0  0  0  0  0  2  0  0  0  0  0  0
  183.5810  177.4950  136.5180 C   0  0  0  0  0  1  0  0  0  0  0  0
  190.5820  173.2770  134.7910 C   0  0  0  0  0  0  0  0  0  0  0  0
  189.2550  173.5460  134.9570 C   0  0  0  0  0  0  0  0  0  0  0  0
  184.4010  176.3840  135.9050 C   0  0  2  0  0  3  0  0  0  0  0  0
  1 18  1  6  0  0  0
  1  5  1  0  0  0  0
  2 14  1  0  0  0  0
  2 18  1  0  0  0  0
  3 11  1  0  0  0  0
  4  5  1  0  0  0  0
  4 13  2  0  0  0  0
  5 12  1  0  0  0  0
  6 21  1  0  0  0  0
  7 30  1  0  0  0  0
  8  6  2  0  0  0  0
  9 17  1  0  0  0  0
 10 15  1  6  0  0  0
 10 11  1  0  0  0  0
 11 24  1  1  0  0  0
 12  8  1  0  0  0  0
 12  9  2  0  0  0  0
 13  8  1  0  0  0  0
 16 30  1  0  0  0  0
 17 21  2  0  0  0  0
 19  3  1  0  0  0  0
 20 28  1  0  0  0  0
 22 29  1  1  0  0  0
 22  1  1  0  0  0  0
 23  7  1  1  0  0  0
 23  4  1  0  0  0  0
 25 23  1  0  0  0  0
 25 22  1  0  0  0  0
 25 10  1  0  0  0  0
 26 15  1  0  0  0  0
 26 16  1  0  0  0  0
 28 14  1  0  0  0  0
 28 29  2  0  0  0  0
 29 19  1  0  0  0  0
 30 27  1  0  0  0  0
M  END
>  <MODEL>
4

>  <REMARK>
 VINA RESULT:      -5.2      2.027      2.953
  Name = 
  0 active torsions:
  status: ('A' for Active; 'I' for Inactive)
                            x       y       z     vdW  Elec       q    Type
                         _______ _______ _______ _____ _____    ______ ____

>  <TORSDO>
F 0

$$$$
=
 OpenBabel10262421593D

 30 35  0  0  1  0  0  0  0  0999 V2000
  187.9100  176.8030  136.4840 C   0  0  2  0  0  3  0  0  0  0  0  0
  189.6680  177.4610  134.7370 C   0  0  0  0  0  2  0  0  0  0  0  0
  187.3060  173.0310  136.5790 C   0  0  0  0  0  2  0  0  0  0  0  0
  185.5640  177.6930  136.6800 C   0  0  0  0  0  0  0  0  0  0  0  0
  186.7990  177.4490  137.1890 N   0  0  0  0  0  0  0  0  0  0  0  0
  185.0140  178.7570  139.9250 C   0  0  0  0  0  3  0  0  0  0  0  0
  183.5940  176.9590  135.1790 C   0  0  0  0  0  2  0  0  0  0  0  0
  185.4330  178.3150  138.6840 C   0  0  0  0  0  0  0  0  0  0  0  0
  187.6390  177.7700  139.4920 C   0  0  0  0  0  3  0  0  0  0  0  0
  185.3110  174.6320  136.2810 C   0  0  2  0  0  3  0  0  0  0  0  0
  186.3360  174.0130  137.2450 C   0  0  1  0  0  3  0  0  0  0  0  0
  186.6990  177.8470  138.4680 C   0  0  0  0  0  0  0  0  0  0  0  0
  184.6960  178.2510  137.5700 N   0  0  0  0  0  0  0  0  0  0  0  0
  190.4440  176.1600  134.9120 C   0  0  0  0  0  2  0  0  0  0  0  0
  184.3890  173.5820  135.6310 C   0  0  0  0  0  2  0  0  0  0  0  0
  182.3320  174.8770  135.7970 O   0  0  0  0  0  0  0  0  0  0  0  0
  187.2570  178.2630  140.7740 C   0  0  0  0  0  3  0  0  0  0  0  0
  188.9010  177.8720  135.9940 C   0  0  0  0  0  2  0  0  0  0  0  0
  187.6510  173.4050  135.1190 C   0  0  0  0  0  2  0  0  0  0  0  0
  190.4520  173.6420  134.5940 C   0  0  0  0  0  1  0  0  0  0  0  0
  185.9420  178.7510  140.9800 C   0  0  0  0  0  3  0  0  0  0  0  0
  187.4000  175.9520  135.2920 C   0  0  2  0  0  3  0  0  0  0  0  0
  185.1360  177.0430  135.3900 C   0  0  2  0  0  3  0  0  0  0  0  0
  185.6680  173.3650  138.2840 O   0  0  0  0  0  1  0  0  0  0  0  0
  185.8560  175.6870  135.2650 C   0  0  2  0  0  3  0  0  0  0  0  0
  183.2200  174.2480  134.9020 C   0  0  0  0  0  2  0  0  0  0  0  0
  181.8060  176.9290  136.9160 C   0  0  0  0  0  1  0  0  0  0  0  0
  189.6320  174.8690  134.8470 C   0  0  0  0  0  0  0  0  0  0  0  0
  188.2900  174.7540  135.0620 C   0  0  0  0  0  0  0  0  0  0  0  0
  182.8780  176.1040  136.2460 C   0  0  2  0  0  3  0  0  0  0  0  0
  1 18  1  6  0  0  0
  1  5  1  0  0  0  0
  2 14  1  0  0  0  0
  2 18  1  0  0  0  0
  3 11  1  0  0  0  0
  4  5  1  0  0  0  0
  4 13  2  0  0  0  0
  5 12  1  0  0  0  0
  6 21  1  0  0  0  0
  7 30  1  0  0  0  0
  8  6  2  0  0  0  0
  9 17  1  0  0  0  0
 10 15  1  6  0  0  0
 10 11  1  0  0  0  0
 11 24  1  1  0  0  0
 12  8  1  0  0  0  0
 12  9  2  0  0  0  0
 13  8  1  0  0  0  0
 16 30  1  0  0  0  0
 17 21  2  0  0  0  0
 19  3  1  0  0  0  0
 20 28  1  0  0  0  0
 22 29  1  1  0  0  0
 22  1  1  0  0  0  0
 23  7  1  1  0  0  0
 23  4  1  0  0  0  0
 25 22  1  0  0  0  0
 25 23  1  0  0  0  0
 25 10  1  0  0  0  0
 26 15  1  0  0  0  0
 26 16  1  0  0  0  0
 28 14  1  0  0  0  0
 28 29  2  0  0  0  0
 29 19  1  0  0  0  0
 30 27  1  0  0  0  0
M  END
>  <MODEL>
5

>  <REMARK>
 VINA RESULT:      -4.8      2.675      3.840
  Name = 
  0 active torsions:
  status: ('A' for Active; 'I' for Inactive)
                            x       y       z     vdW  Elec       q    Type
                         _______ _______ _______ _____ _____    ______ ____

>  <TORSDO>
F 0

$$$$
=
 OpenBabel10262421593D

 30 35  0  0  1  0  0  0  0  0999 V2000
  180.7850  177.0450  136.3960 C   0  0  2  0  0  3  0  0  0  0  0  0
  179.5000  178.6170  134.8300 C   0  0  0  0  0  2  0  0  0  0  0  0
  182.0670  178.8430  139.5150 C   0  0  0  0  0  2  0  0  0  0  0  0
  182.7560  175.5960  135.8050 C   0  0  0  0  0  0  0  0  0  0  0  0
  181.5000  175.7700  136.2930 N   0  0  0  0  0  0  0  0  0  0  0  0
  182.1430  172.3550  136.8440 C   0  0  0  0  0  3  0  0  0  0  0  0
  185.1750  176.4610  135.5350 C   0  0  0  0  0  2  0  0  0  0  0  0
  182.1880  173.6860  136.4740 C   0  0  0  0  0  0  0  0  0  0  0  0
  179.9960  174.1320  137.3740 C   0  0  0  0  0  3  0  0  0  0  0  0
  183.7090  177.4990  138.0560 C   0  0  2  0  0  3  0  0  0  0  0  0
  182.5960  177.4610  139.1150 C   0  0  1  0  0  3  0  0  0  0  0  0
  181.1530  174.5440  136.7180 C   0  0  0  0  0  0  0  0  0  0  0  0
  183.2080  174.3140  135.8790 N   0  0  0  0  0  0  0  0  0  0  0  0
  178.9780  179.4680  135.9820 C   0  0  0  0  0  2  0  0  0  0  0  0
  184.9650  178.2530  138.5330 C   0  0  0  0  0  2  0  0  0  0  0  0
  186.5940  176.7040  137.5930 O   0  0  0  0  0  0  0  0  0  0  0  0
  179.8950  172.7560  137.7270 C   0  0  0  0  0  3  0  0  0  0  0  0
  179.7830  177.1710  135.2360 C   0  0  0  0  0  2  0  0  0  0  0  0
  182.0830  179.8650  138.3560 C   0  0  0  0  0  2  0  0  0  0  0  0
  179.5570  181.1000  137.8380 C   0  0  0  0  0  1  0  0  0  0  0  0
  180.9740  171.8770  137.4600 C   0  0  0  0  0  3  0  0  0  0  0  0
  181.7690  178.2440  136.3930 C   0  0  2  0  0  3  0  0  0  0  0  0
  183.6510  176.7870  135.5800 C   0  0  2  0  0  3  0  0  0  0  0  0
  183.0560  176.7980  140.2530 O   0  0  0  0  0  1  0  0  0  0  0  0
  183.2780  177.8780  136.6020 C   0  0  2  0  0  3  0  0  0  0  0  0
  186.1380  178.0370  137.5740 C   0  0  0  0  0  2  0  0  0  0  0  0
  186.3660  174.5410  136.5870 C   0  0  0  0  0  1  0  0  0  0  0  0
  180.0130  179.9490  136.9960 C   0  0  0  0  0  0  0  0  0  0  0  0
  181.2340  179.3860  137.2240 C   0  0  0  0  0  0  0  0  0  0  0  0
  185.7120  175.8760  136.8580 C   0  0  2  0  0  3  0  0  0  0  0  0
  1 18  1  6  0  0  0
  2 18  1  0  0  0  0
  2 14  1  0  0  0  0
  4 13  2  0  0  0  0
  4  5  1  0  0  0  0
  5  1  1  0  0  0  0
  5 12  1  0  0  0  0
  6 21  1  0  0  0  0
  7 30  1  0  0  0  0
  8 12  1  0  0  0  0
  8  6  2  0  0  0  0
  9 17  1  0  0  0  0
 10 15  1  1  0  0  0
 10 11  1  0  0  0  0
 11  3  1  0  0  0  0
 11 24  1  1  0  0  0
 12  9  2  0  0  0  0
 13  8  1  0  0  0  0
 14 28  1  0  0  0  0
 19  3  1  0  0  0  0
 21 17  2  0  0  0  0
 22  1  1  0  0  0  0
 22 25  1  0  0  0  0
 22 29  1  1  0  0  0
 23  7  1  1  0  0  0
 23  4  1  0  0  0  0
 23 25  1  0  0  0  0
 25 10  1  0  0  0  0
 26 16  1  0  0  0  0
 26 15  1  0  0  0  0
 27 30  1  0  0  0  0
 28 29  2  0  0  0  0
 28 20  1  0  0  0  0
 29 19  1  0  0  0  0
 30 16  1  0  0  0  0
M  END
>  <MODEL>
6

>  <REMARK>
 VINA RESULT:      -4.8      5.275      9.412
  Name = 
  0 active torsions:
  status: ('A' for Active; 'I' for Inactive)
                            x       y       z     vdW  Elec       q    Type
                         _______ _______ _______ _____ _____    ______ ____

>  <TORSDO>
F 0

$$$$
=
 OpenBabel10262421593D

 30 35  0  0  1  0  0  0  0  0999 V2000
  182.1880  178.0100  139.4970 C   0  0  2  0  0  3  0  0  0  0  0  0
  181.4320  178.4060  141.9150 C   0  0  0  0  0  2  0  0  0  0  0  0
  179.7880  179.5630  136.9610 C   0  0  0  0  0  2  0  0  0  0  0  0
  182.7010  175.7970  138.4140 C   0  0  0  0  0  0  0  0  0  0  0  0
  183.0410  177.0610  138.7780 N   0  0  0  0  0  0  0  0  0  0  0  0
  185.8080  175.9580  136.9040 C   0  0  0  0  0  3  0  0  0  0  0  0
  180.9130  174.1300  137.5810 C   0  0  0  0  0  2  0  0  0  0  0  0
  184.6170  176.0770  137.5940 C   0  0  0  0  0  0  0  0  0  0  0  0
  185.0780  178.3540  138.2360 C   0  0  0  0  0  3  0  0  0  0  0  0
  180.4120  177.0730  136.7630 C   0  0  2  0  0  3  0  0  0  0  0  0
  180.8410  178.5310  136.5390 C   0  0  1  0  0  3  0  0  0  0  0  0
  184.2630  177.2250  138.2440 C   0  0  0  0  0  0  0  0  0  0  0  0
  183.6610  175.1470  137.6990 N   0  0  0  0  0  0  0  0  0  0  0  0
  180.8010  179.7530  141.5820 C   0  0  0  0  0  2  0  0  0  0  0  0
  179.1620  176.6820  135.9500 C   0  0  0  0  0  2  0  0  0  0  0  0
  179.9370  174.4690  135.2910 O   0  0  0  0  0  0  0  0  0  0  0  0
  186.3370  178.2530  137.5760 C   0  0  0  0  0  3  0  0  0  0  0  0
  182.5870  178.0400  140.9820 C   0  0  0  0  0  2  0  0  0  0  0  0
  178.9460  179.1170  138.1770 C   0  0  0  0  0  2  0  0  0  0  0  0
  178.9450  180.9720  140.3530 C   0  0  0  0  0  1  0  0  0  0  0  0
  186.6900  177.0520  136.9110 C   0  0  0  0  0  3  0  0  0  0  0  0
  180.6880  177.6430  139.3480 C   0  0  2  0  0  3  0  0  0  0  0  0
  181.2640  175.3520  138.4820 C   0  0  2  0  0  3  0  0  0  0  0  0
  181.1580  178.7230  135.1940 O   0  0  0  0  0  1  0  0  0  0  0  0
  180.3620  176.5790  138.2450 C   0  0  2  0  0  3  0  0  0  0  0  0
  178.9310  175.1700  135.9830 C   0  0  0  0  0  2  0  0  0  0  0  0
  182.0600  173.3770  135.5000 C   0  0  0  0  0  1  0  0  0  0  0  0
  179.8520  179.7820  140.3870 C   0  0  0  0  0  0  0  0  0  0  0  0
  179.8230  178.8810  139.3630 C   0  0  0  0  0  0  0  0  0  0  0  0
  181.1140  174.4040  136.0760 C   0  0  2  0  0  3  0  0  0  0  0  0
  1 18  1  1  0  0  0
  3 19  1  0  0  0  0
  4 23  1  0  0  0  0
  4  5  1  0  0  0  0
  5  1  1  0  0  0  0
  6 21  2  0  0  0  0
  6  8  1  0  0  0  0
  8 13  1  0  0  0  0
  8 12  2  0  0  0  0
  9 12  1  0  0  0  0
 10 15  1  1  0  0  0
 10 25  1  0  0  0  0
 11 24  1  6  0  0  0
 11 10  1  0  0  0  0
 11  3  1  0  0  0  0
 12  5  1  0  0  0  0
 13  4  2  0  0  0  0
 14  2  1  0  0  0  0
 15 26  1  0  0  0  0
 16 26  1  0  0  0  0
 16 30  1  0  0  0  0
 17  9  2  0  0  0  0
 18  2  1  0  0  0  0
 19 29  1  0  0  0  0
 20 28  1  0  0  0  0
 21 17  1  0  0  0  0
 22 29  1  6  0  0  0
 22  1  1  0  0  0  0
 23  7  1  6  0  0  0
 25 23  1  0  0  0  0
 25 22  1  0  0  0  0
 27 30  1  0  0  0  0
 28 14  1  0  0  0  0
 29 28  2  0  0  0  0
 30  7  1  0  0  0  0
M  END
>  <MODEL>
7

>  <REMARK>
 VINA RESULT:      -4.5      5.456      9.445
  Name = 
  0 active torsions:
  status: ('A' for Active; 'I' for Inactive)
                            x       y       z     vdW  Elec       q    Type
                         _______ _______ _______ _____ _____    ______ ____

>  <TORSDO>
F 0

$$$$
=
 OpenBabel10262421593D

 30 35  0  0  1  0  0  0  0  0999 V2000
  184.8430  177.6360  138.4030 C   0  0  2  0  0  3  0  0  0  0  0  0
  187.0720  178.2550  137.2950 C   0  0  0  0  0  2  0  0  0  0  0  0
  183.6440  174.1520  137.3890 C   0  0  0  0  0  2  0  0  0  0  0  0
  182.6970  178.9490  138.3250 C   0  0  0  0  0  0  0  0  0  0  0  0
  183.7060  178.3410  139.0010 N   0  0  0  0  0  0  0  0  0  0  0  0
  181.5110  179.3900  141.5440 C   0  0  0  0  0  3  0  0  0  0  0  0
  181.0870  178.9960  136.3060 C   0  0  0  0  0  2  0  0  0  0  0  0
  182.1590  179.1430  140.3480 C   0  0  0  0  0  0  0  0  0  0  0  0
  183.9680  177.9750  141.4320 C   0  0  0  0  0  3  0  0  0  0  0  0
  182.0730  176.1720  137.1030 C   0  0  2  0  0  3  0  0  0  0  0  0
  182.7040  175.1560  138.0670 C   0  0  1  0  0  3  0  0  0  0  0  0
  183.3470  178.4700  140.2890 C   0  0  0  0  0  0  0  0  0  0  0  0
  181.7310  179.4790  139.1260 N   0  0  0  0  0  0  0  0  0  0  0  0
  187.5600  176.8110  137.2870 C   0  0  0  0  0  2  0  0  0  0  0  0
  181.1930  175.5100  136.0250 C   0  0  0  0  0  2  0  0  0  0  0  0
  179.3950  177.1530  136.0840 O   0  0  0  0  0  0  0  0  0  0  0  0
  183.3540  178.2530  142.6880 C   0  0  0  0  0  3  0  0  0  0  0  0
  186.0840  178.5450  138.4250 C   0  0  0  0  0  2  0  0  0  0  0  0
  184.4060  174.7460  136.1830 C   0  0  0  0  0  2  0  0  0  0  0  0
  187.2490  174.4780  136.3370 C   0  0  0  0  0  1  0  0  0  0  0  0
  182.1250  178.9580  142.7320 C   0  0  0  0  0  3  0  0  0  0  0  0
  184.5270  177.1890  136.9510 C   0  0  2  0  0  3  0  0  0  0  0  0
  182.5170  178.6980  136.8510 C   0  0  2  0  0  3  0  0  0  0  0  0
  181.6980  174.4610  138.7390 O   0  0  0  0  0  1  0  0  0  0  0  0
  183.0200  177.2770  136.5330 C   0  0  2  0  0  3  0  0  0  0  0  0
  180.3700  176.5530  135.2650 C   0  0  0  0  0  2  0  0  0  0  0  0
  178.9330  178.9830  137.5600 C   0  0  0  0  0  1  0  0  0  0  0  0
  186.5980  175.7710  136.7210 C   0  0  0  0  0  0  0  0  0  0  0  0
  185.2450  175.9050  136.6120 C   0  0  0  0  0  0  0  0  0  0  0  0
  179.9960  178.1080  136.9400 C   0  0  2  0  0  3  0  0  0  0  0  0
  1 18  1  6  0  0  0
  1  5  1  0  0  0  0
  2 18  1  0  0  0  0
  3 11  1  0  0  0  0
  4  5  1  0  0  0  0
  4 13  2  0  0  0  0
  5 12  1  0  0  0  0
  6 21  1  0  0  0  0
  7 30  1  0  0  0  0
  8  6  2  0  0  0  0
  9 17  1  0  0  0  0
 10 15  1  6  0  0  0
 10 11  1  0  0  0  0
 11 24  1  6  0  0  0
 12  8  1  0  0  0  0
 12  9  2  0  0  0  0
 13  8  1  0  0  0  0
 14  2  1  0  0  0  0
 16 30  1  0  0  0  0
 17 21  2  0  0  0  0
 19 29  1  0  0  0  0
 19  3  1  0  0  0  0
 20 28  1  0  0  0  0
 22 29  1  1  0  0  0
 22  1  1  0  0  0  0
 23  7  1  1  0  0  0
 23  4  1  0  0  0  0
 25 23  1  0  0  0  0
 25 22  1  0  0  0  0
 25 10  1  0  0  0  0
 26 15  1  0  0  0  0
 26 16  1  0  0  0  0
 28 14  1  0  0  0  0
 29 28  2  0  0  0  0
 30 27  1  0  0  0  0
M  END
>  <MODEL>
8

>  <REMARK>
 VINA RESULT:      -4.4      4.395      6.410
  Name = 
  0 active torsions:
  status: ('A' for Active; 'I' for Inactive)
                            x       y       z     vdW  Elec       q    Type
                         _______ _______ _______ _____ _____    ______ ____

>  <TORSDO>
F 0

$$$$
=
 OpenBabel10262421593D

 30 35  0  0  1  0  0  0  0  0999 V2000
  180.9150  180.4030  138.2690 C   0  0  2  0  0  3  0  0  0  0  0  0
  179.4020  182.4640  138.4610 C   0  0  0  0  0  2  0  0  0  0  0  0
  181.3650  179.2720  134.6460 C   0  0  0  0  0  2  0  0  0  0  0  0
  180.6300  178.2000  139.4520 C   0  0  0  0  0  0  0  0  0  0  0  0
  181.3540  179.3050  139.1350 N   0  0  0  0  0  0  0  0  0  0  0  0
  183.5960  177.3520  141.0160 C   0  0  0  0  0  3  0  0  0  0  0  0
  178.9360  176.3780  138.7570 C   0  0  0  0  0  2  0  0  0  0  0  0
  182.4990  177.8770  140.3590 C   0  0  0  0  0  0  0  0  0  0  0  0
  183.7050  179.8480  139.6720 C   0  0  0  0  0  3  0  0  0  0  0  0
  180.5660  177.5820  136.4170 C   0  0  2  0  0  3  0  0  0  0  0  0
  181.7470  178.3640  135.8210 C   0  0  1  0  0  3  0  0  0  0  0  0
  182.5440  179.0820  139.7170 C   0  0  0  0  0  0  0  0  0  0  0  0
  181.2980  177.3020  140.2280 N   0  0  0  0  0  0  0  0  0  0  0  0
  179.8520  183.0190  137.1140 C   0  0  0  0  0  2  0  0  0  0  0  0
  179.9090  176.6230  135.4060 C   0  0  0  0  0  2  0  0  0  0  0  0
  179.5920  174.7640  136.9480 O   0  0  0  0  0  0  0  0  0  0  0  0
  184.8420  179.3620  140.3800 C   0  0  0  0  0  3  0  0  0  0  0  0
  180.4630  181.5930  139.1330 C   0  0  0  0  0  2  0  0  0  0  0  0
  179.9440  179.8680  134.7690 C   0  0  0  0  0  2  0  0  0  0  0  0
  179.8440  182.7200  134.5940 C   0  0  0  0  0  1  0  0  0  0  0  0
  184.7780  178.1120  141.0460 C   0  0  0  0  0  3  0  0  0  0  0  0
  179.7680  179.9520  137.3260 C   0  0  2  0  0  3  0  0  0  0  0  0
  179.3770  177.8720  138.6840 C   0  0  2  0  0  3  0  0  0  0  0  0
  182.7370  177.4730  135.4090 O   0  0  0  0  0  1  0  0  0  0  0  0
  179.5300  178.4060  137.2470 C   0  0  2  0  0  3  0  0  0  0  0  0
  178.9310  175.6730  136.0980 C   0  0  0  0  0  2  0  0  0  0  0  0
  180.3600  174.3770  139.1840 C   0  0  0  0  0  1  0  0  0  0  0  0
  179.8140  182.0520  135.9330 C   0  0  0  0  0  0  0  0  0  0  0  0
  179.8270  180.6910  136.0100 C   0  0  0  0  0  0  0  0  0  0  0  0
  179.9710  175.4080  138.1500 C   0  0  2  0  0  3  0  0  0  0  0  0
  1 18  1  1  0  0  0
  1  5  1  0  0  0  0
  2 18  1  0  0  0  0
  3 19  1  0  0  0  0
  3 11  1  0  0  0  0
  4 13  2  0  0  0  0
  5  4  1  0  0  0  0
  5 12  1  0  0  0  0
  6 21  1  0  0  0  0
  8  6  2  0  0  0  0
  9 12  2  0  0  0  0
  9 17  1  0  0  0  0
 10 15  1  6  0  0  0
 10 25  1  0  0  0  0
 11 24  1  6  0  0  0
 11 10  1  0  0  0  0
 12  8  1  0  0  0  0
 13  8  1  0  0  0  0
 14  2  1  0  0  0  0
 15 26  1  0  0  0  0
 16 30  1  0  0  0  0
 17 21  2  0  0  0  0
 19 29  1  0  0  0  0
 20 28  1  0  0  0  0
 22 29  1  6  0  0  0
 22  1  1  0  0  0  0
 23  7  1  6  0  0  0
 23  4  1  0  0  0  0
 25 22  1  0  0  0  0
 25 23  1  0  0  0  0
 26 16  1  0  0  0  0
 28 29  2  0  0  0  0
 28 14  1  0  0  0  0
 30  7  1  0  0  0  0
 30 27  1  0  0  0  0
M  END
>  <MODEL>
9

>  <REMARK>
 VINA RESULT:      -4.0      6.794      9.968
  Name = 
  0 active torsions:
  status: ('A' for Active; 'I' for Inactive)
                            x       y       z     vdW  Elec       q    Type
                         _______ _______ _______ _____ _____    ______ ____

>  <TORSDO>
F 0

$$$$
