=
 OpenBabel10262419593D

 27 31  0  0  0  0  0  0  0  0999 V2000
  187.6180  178.5090  140.9650 C   0  0  0  0  0  3  0  0  0  0  0  0
  189.5830  177.6110  142.2010 C   0  0  0  0  0  0  0  0  0  0  0  0
  187.6140  177.4080  143.7490 N   0  0  0  0  0  0  0  0  0  0  0  0
  191.9070  177.2610  145.5850 N   0  0  0  0  0  0  0  0  0  0  0  0
  191.0720  176.9500  147.8570 N   0  0  0  0  0  1  0  0  0  0  0  0
  190.9940  177.6820  142.0560 C   0  0  0  0  0  3  0  0  0  0  0  0
  189.6560  177.1510  145.8750 N   0  0  0  0  0  0  0  0  0  0  0  0
  184.2590  178.5740  143.3490 C   0  0  0  0  0  0  0  0  0  0  0  0
  188.3690  177.0330  146.5420 C   0  0  0  0  0  1  0  0  0  0  0  0
  182.7630  178.5270  144.2550 Cl  0  0  0  0  0  0  0  0  0  0  0  0
  189.9140  177.3220  144.5660 C   0  0  0  0  0  0  0  0  0  0  0  0
  188.7620  177.6530  141.0280 N   0  0  0  0  0  0  0  0  0  0  0  0
  190.8770  177.1170  146.4560 C   0  0  0  0  0  0  0  0  0  0  0  0
  191.2710  177.3880  144.4030 C   0  0  0  0  0  0  0  0  0  0  0  0
  186.6550  178.6140  141.8800 C   0  0  0  0  0  0  0  0  0  0  0  0
  189.0220  177.4520  143.4890 C   0  0  0  0  0  0  0  0  0  0  0  0
  185.3750  177.8750  143.8080 C   0  0  0  0  0  3  0  0  0  0  0  0
  191.8530  177.5770  143.1600 C   0  0  0  0  0  3  0  0  0  0  0  0
  184.3540  179.3470  142.1960 C   0  0  0  0  0  3  0  0  0  0  0  0
  185.5410  179.3560  141.4660 C   0  0  0  0  0  3  0  0  0  0  0  0
  186.5930  177.9090  143.1160 C   0  0  0  0  0  0  0  0  0  0  0  0
  190.0550  175.7910  137.4530 C   0  0  0  0  0  3  0  0  0  0  0  0
  189.1870  177.0030  139.8080 C   0  0  0  0  0  0  0  0  0  0  0  0
  190.4080  176.3140  139.7420 C   0  0  0  0  0  3  0  0  0  0  0  0
  190.8100  175.7270  138.5830 N   0  0  0  0  0  0  0  0  0  0  0  0
  188.8380  176.4740  137.4630 C   0  0  0  0  0  3  0  0  0  0  0  0
  188.4080  177.0820  138.6430 C   0  0  0  0  0  3  0  0  0  0  0  0
  1 12  1  0  0  0  0
  1 15  2  0  0  0  0
  2 16  1  0  0  0  0
  4 13  2  0  0  0  0
  6  2  2  0  0  0  0
  6 18  1  0  0  0  0
  7 13  1  0  0  0  0
  7  9  1  0  0  0  0
  8 17  2  0  0  0  0
  8 10  1  0  0  0  0
 11  7  1  0  0  0  0
 12  2  1  0  0  0  0
 13  5  1  0  0  0  0
 14 11  1  0  0  0  0
 14  4  1  0  0  0  0
 15 21  1  0  0  0  0
 16  3  1  0  0  0  0
 16 11  2  0  0  0  0
 18 14  2  0  0  0  0
 19  8  1  0  0  0  0
 20 15  1  0  0  0  0
 20 19  2  0  0  0  0
 21  3  2  0  0  0  0
 21 17  1  0  0  0  0
 22 26  2  0  0  0  0
 22 25  1  0  0  0  0
 23 12  1  0  0  0  0
 24 23  1  0  0  0  0
 25 24  2  0  0  0  0
 26 27  1  0  0  0  0
 27 23  2  0  0  0  0
M  END
>  <MODEL>
1

>  <REMARK>
 VINA RESULT:      -9.2      0.000      0.000
  Name = 
  1 active torsions:
  status: ('A' for Active; 'I' for Inactive)
    1  A    between atoms: C_9  and  N_15
                            x       y       z     vdW  Elec       q    Type
                         _______ _______ _______ _____ _____    ______ ____

>  <TORSDO>
F 1

$$$$
=
 OpenBabel10262419593D

 27 31  0  0  0  0  0  0  0  0999 V2000
  184.9490  177.7630  143.2480 C   0  0  0  0  0  3  0  0  0  0  0  0
  187.4040  177.4060  143.0470 C   0  0  0  0  0  0  0  0  0  0  0  0
  186.6870  178.6180  140.9650 N   0  0  0  0  0  0  0  0  0  0  0  0
  190.7660  176.3430  140.9170 N   0  0  0  0  0  0  0  0  0  0  0  0
  191.2650  177.0050  138.6220 N   0  0  0  0  0  1  0  0  0  0  0  0
  188.3660  176.5760  143.6820 C   0  0  0  0  0  3  0  0  0  0  0  0
  189.2560  177.6620  139.8500 N   0  0  0  0  0  0  0  0  0  0  0  0
  183.4100  179.4940  139.8410 C   0  0  0  0  0  0  0  0  0  0  0  0
  188.6340  178.4500  138.7980 C   0  0  0  0  0  1  0  0  0  0  0  0
  182.6960  180.3320  138.4810 Cl  0  0  0  0  0  0  0  0  0  0  0  0
  188.8060  177.4090  141.0920 C   0  0  0  0  0  0  0  0  0  0  0  0
  186.2670  177.8500  143.7960 N   0  0  0  0  0  0  0  0  0  0  0  0
  190.4370  177.0060  139.7820 C   0  0  0  0  0  0  0  0  0  0  0  0
  189.7220  176.6140  141.7240 C   0  0  0  0  0  0  0  0  0  0  0  0
  184.5630  178.1820  142.0420 C   0  0  0  0  0  0  0  0  0  0  0  0
  187.6110  177.8150  141.7090 C   0  0  0  0  0  0  0  0  0  0  0  0
  184.7960  179.4550  139.9870 C   0  0  0  0  0  3  0  0  0  0  0  0
  189.5340  176.1670  143.0230 C   0  0  0  0  0  3  0  0  0  0  0  0
  182.6000  178.8230  140.7510 C   0  0  0  0  0  3  0  0  0  0  0  0
  183.1750  178.1830  141.8470 C   0  0  0  0  0  3  0  0  0  0  0  0
  185.3990  178.7750  141.0540 C   0  0  0  0  0  0  0  0  0  0  0  0
  186.6540  178.9000  147.8780 C   0  0  0  0  0  3  0  0  0  0  0  0
  186.3940  178.1890  145.1960 C   0  0  0  0  0  0  0  0  0  0  0  0
  185.5180  179.1020  145.8040 C   0  0  0  0  0  3  0  0  0  0  0  0
  185.6620  179.4320  147.1150 N   0  0  0  0  0  0  0  0  0  0  0  0
  187.5580  177.9960  147.3190 C   0  0  0  0  0  3  0  0  0  0  0  0
  187.4260  177.6450  145.9760 C   0  0  0  0  0  3  0  0  0  0  0  0
  1 12  1  0  0  0  0
  2  6  1  0  0  0  0
  2 12  1  0  0  0  0
  3 21  2  0  0  0  0
  3 16  1  0  0  0  0
  4 14  1  0  0  0  0
  5 13  1  0  0  0  0
  7 11  1  0  0  0  0
  8 17  2  0  0  0  0
  8 19  1  0  0  0  0
  9  7  1  0  0  0  0
 10  8  1  0  0  0  0
 11 16  1  0  0  0  0
 11 14  2  0  0  0  0
 12 23  1  0  0  0  0
 13  7  1  0  0  0  0
 13  4  2  0  0  0  0
 14 18  1  0  0  0  0
 15  1  2  0  0  0  0
 16  2  2  0  0  0  0
 17 21  1  0  0  0  0
 18  6  2  0  0  0  0
 19 20  2  0  0  0  0
 20 15  1  0  0  0  0
 21 15  1  0  0  0  0
 23 24  2  0  0  0  0
 23 27  1  0  0  0  0
 24 25  1  0  0  0  0
 25 22  2  0  0  0  0
 26 22  1  0  0  0  0
 27 26  2  0  0  0  0
M  END
>  <MODEL>
2

>  <REMARK>
 VINA RESULT:      -9.2      2.575      5.898
  Name = 
  1 active torsions:
  status: ('A' for Active; 'I' for Inactive)
    1  A    between atoms: C_9  and  N_15
                            x       y       z     vdW  Elec       q    Type
                         _______ _______ _______ _____ _____    ______ ____

>  <TORSDO>
F 1

$$$$
=
 OpenBabel10262419593D

 27 31  0  0  0  0  0  0  0  0999 V2000
  184.8780  179.3030  144.3710 C   0  0  0  0  0  3  0  0  0  0  0  0
  185.6850  178.5950  142.1250 C   0  0  0  0  0  0  0  0  0  0  0  0
  187.1790  177.4730  143.8060 N   0  0  0  0  0  0  0  0  0  0  0  0
  188.6850  177.8560  139.4010 N   0  0  0  0  0  0  0  0  0  0  0  0
  190.7830  176.7020  139.8730 N   0  0  0  0  0  1  0  0  0  0  0  0
  185.5070  179.0500  140.7920 C   0  0  0  0  0  3  0  0  0  0  0  0
  189.0270  177.1170  141.5210 N   0  0  0  0  0  0  0  0  0  0  0  0
  187.3110  177.8420  147.3580 C   0  0  0  0  0  0  0  0  0  0  0  0
  189.6800  176.4970  142.6630 C   0  0  0  0  0  1  0  0  0  0  0  0
  188.2230  177.1670  148.6900 Cl  0  0  0  0  0  0  0  0  0  0  0  0
  187.8250  177.7200  141.4640 C   0  0  0  0  0  0  0  0  0  0  0  0
  184.6210  178.7740  143.0680 N   0  0  0  0  0  0  0  0  0  0  0  0
  189.5130  177.2170  140.2630 C   0  0  0  0  0  0  0  0  0  0  0  0
  187.6310  178.1620  140.1840 C   0  0  0  0  0  0  0  0  0  0  0  0
  185.8230  178.8960  145.2190 C   0  0  0  0  0  0  0  0  0  0  0  0
  186.8830  177.9360  142.4830 C   0  0  0  0  0  0  0  0  0  0  0  0
  187.4800  177.3360  146.0700 C   0  0  0  0  0  3  0  0  0  0  0  0
  186.4840  178.8420  139.8070 C   0  0  0  0  0  3  0  0  0  0  0  0
  186.4530  178.9160  147.5720 C   0  0  0  0  0  3  0  0  0  0  0  0
  185.7100  179.4290  146.5110 C   0  0  0  0  0  3  0  0  0  0  0  0
  186.7790  177.8690  144.9790 C   0  0  0  0  0  0  0  0  0  0  0  0
  180.5930  178.4080  141.8210 C   0  0  0  0  0  3  0  0  0  0  0  0
  183.2410  178.6340  142.6560 C   0  0  0  0  0  0  0  0  0  0  0  0
  182.9120  178.1870  141.3670 C   0  0  0  0  0  3  0  0  0  0  0  0
  181.6120  178.0820  140.9830 N   0  0  0  0  0  0  0  0  0  0  0  0
  180.8670  178.8680  143.1090 C   0  0  0  0  0  3  0  0  0  0  0  0
  182.1940  178.9830  143.5230 C   0  0  0  0  0  3  0  0  0  0  0  0
  1 15  2  0  0  0  0
  2 16  1  0  0  0  0
  2 12  1  0  0  0  0
  3 21  2  0  0  0  0
  4 14  1  0  0  0  0
  4 13  2  0  0  0  0
  5 13  1  0  0  0  0
  6  2  2  0  0  0  0
  7  9  1  0  0  0  0
  8 19  1  0  0  0  0
  8 10  1  0  0  0  0
 11  7  1  0  0  0  0
 11 16  2  0  0  0  0
 12  1  1  0  0  0  0
 13  7  1  0  0  0  0
 14 11  1  0  0  0  0
 15 20  1  0  0  0  0
 16  3  1  0  0  0  0
 17  8  2  0  0  0  0
 18 14  2  0  0  0  0
 18  6  1  0  0  0  0
 20 19  2  0  0  0  0
 21 15  1  0  0  0  0
 21 17  1  0  0  0  0
 22 26  1  0  0  0  0
 23 12  1  0  0  0  0
 23 27  1  0  0  0  0
 24 23  2  0  0  0  0
 25 24  1  0  0  0  0
 25 22  2  0  0  0  0
 26 27  2  0  0  0  0
M  END
>  <MODEL>
3

>  <REMARK>
 VINA RESULT:      -8.9      2.670      6.157
  Name = 
  1 active torsions:
  status: ('A' for Active; 'I' for Inactive)
    1  A    between atoms: C_9  and  N_15
                            x       y       z     vdW  Elec       q    Type
                         _______ _______ _______ _____ _____    ______ ____

>  <TORSDO>
F 1

$$$$
=
 OpenBabel10262419593D

 27 31  0  0  0  0  0  0  0  0999 V2000
  184.8080  179.0770  143.5630 C   0  0  0  0  0  3  0  0  0  0  0  0
  185.9620  178.4080  141.4620 C   0  0  0  0  0  0  0  0  0  0  0  0
  187.3240  177.4670  143.3540 N   0  0  0  0  0  0  0  0  0  0  0  0
  189.3470  177.9120  139.1670 N   0  0  0  0  0  0  0  0  0  0  0  0
  191.4640  176.9740  139.9380 N   0  0  0  0  0  1  0  0  0  0  0  0
  185.9180  178.8190  140.1030 C   0  0  0  0  0  3  0  0  0  0  0  0
  189.4770  177.2490  141.3360 N   0  0  0  0  0  0  0  0  0  0  0  0
  186.9580  177.9140  146.8800 C   0  0  0  0  0  0  0  0  0  0  0  0
  190.0320  176.7160  142.5700 C   0  0  0  0  0  1  0  0  0  0  0  0
  187.7470  177.3560  148.3380 Cl  0  0  0  0  0  0  0  0  0  0  0  0
  188.2430  177.7310  141.1060 C   0  0  0  0  0  0  0  0  0  0  0  0
  184.7730  178.5010  142.2550 N   0  0  0  0  0  0  0  0  0  0  0  0
  190.1120  177.3710  140.1470 C   0  0  0  0  0  0  0  0  0  0  0  0
  188.1770  178.1290  139.7990 C   0  0  0  0  0  0  0  0  0  0  0  0
  185.6680  178.7790  144.5370 C   0  0  0  0  0  0  0  0  0  0  0  0
  187.1600  177.8740  141.9900 C   0  0  0  0  0  0  0  0  0  0  0  0
  187.3390  177.4030  145.6400 C   0  0  0  0  0  3  0  0  0  0  0  0
  187.0290  178.6880  139.2580 C   0  0  0  0  0  3  0  0  0  0  0  0
  185.9830  178.9040  146.9500 C   0  0  0  0  0  3  0  0  0  0  0  0
  185.3390  179.3230  145.7870 C   0  0  0  0  0  3  0  0  0  0  0  0
  186.7390  177.8450  144.4530 C   0  0  0  0  0  0  0  0  0  0  0  0
  180.9670  177.6510  140.6090 C   0  0  0  0  0  3  0  0  0  0  0  0
  183.4780  178.2210  141.6750 C   0  0  0  0  0  0  0  0  0  0  0  0
  182.3050  178.7640  142.2240 C   0  0  0  0  0  3  0  0  0  0  0  0
  181.0910  178.4740  141.6850 N   0  0  0  0  0  0  0  0  0  0  0  0
  182.1010  177.0780  140.0340 C   0  0  0  0  0  3  0  0  0  0  0  0
  183.3560  177.3630  140.5710 C   0  0  0  0  0  3  0  0  0  0  0  0
  1 15  2  0  0  0  0
  2 16  1  0  0  0  0
  2 12  1  0  0  0  0
  3 21  2  0  0  0  0
  4 14  1  0  0  0  0
  4 13  2  0  0  0  0
  5 13  1  0  0  0  0
  6  2  2  0  0  0  0
  7  9  1  0  0  0  0
  8 19  1  0  0  0  0
  8 10  1  0  0  0  0
 11  7  1  0  0  0  0
 11 16  2  0  0  0  0
 12  1  1  0  0  0  0
 13  7  1  0  0  0  0
 14 11  1  0  0  0  0
 15 20  1  0  0  0  0
 16  3  1  0  0  0  0
 17  8  2  0  0  0  0
 18 14  2  0  0  0  0
 18  6  1  0  0  0  0
 20 19  2  0  0  0  0
 21 15  1  0  0  0  0
 21 17  1  0  0  0  0
 22 25  1  0  0  0  0
 23 24  1  0  0  0  0
 23 12  1  0  0  0  0
 25 24  2  0  0  0  0
 26 27  1  0  0  0  0
 26 22  2  0  0  0  0
 27 23  2  0  0  0  0
M  END
>  <MODEL>
4

>  <REMARK>
 VINA RESULT:      -8.9      2.677      5.743
  Name = 
  1 active torsions:
  status: ('A' for Active; 'I' for Inactive)
    1  A    between atoms: C_9  and  N_15
                            x       y       z     vdW  Elec       q    Type
                         _______ _______ _______ _____ _____    ______ ____

>  <TORSDO>
F 1

$$$$
=
 OpenBabel10262419593D

 27 31  0  0  0  0  0  0  0  0999 V2000
  187.1610  178.6630  140.6200 C   0  0  0  0  0  3  0  0  0  0  0  0
  188.6550  177.9640  142.4850 C   0  0  0  0  0  0  0  0  0  0  0  0
  186.2990  177.7080  143.3240 N   0  0  0  0  0  0  0  0  0  0  0  0
  189.7580  177.9440  146.4530 N   0  0  0  0  0  0  0  0  0  0  0  0
  188.2430  177.6930  148.3500 N   0  0  0  0  0  1  0  0  0  0  0  0
  190.0300  178.1230  142.7990 C   0  0  0  0  0  3  0  0  0  0  0  0
  187.5440  177.6970  146.0080 N   0  0  0  0  0  0  0  0  0  0  0  0
  183.2080  178.6220  141.7800 C   0  0  0  0  0  0  0  0  0  0  0  0
  186.1170  177.5260  146.2300 C   0  0  0  0  0  1  0  0  0  0  0  0
  181.5020  178.5210  142.1550 Cl  0  0  0  0  0  0  0  0  0  0  0  0
  188.2070  177.8180  144.8440 C   0  0  0  0  0  0  0  0  0  0  0  0
  188.2600  177.8900  141.1090 N   0  0  0  0  0  0  0  0  0  0  0  0
  188.5090  177.7750  146.9530 C   0  0  0  0  0  0  0  0  0  0  0  0
  189.5380  177.9680  145.1240 C   0  0  0  0  0  0  0  0  0  0  0  0
  185.9480  178.7490  141.1660 C   0  0  0  0  0  0  0  0  0  0  0  0
  187.7110  177.8330  143.5300 C   0  0  0  0  0  0  0  0  0  0  0  0
  184.1450  178.0250  142.6230 C   0  0  0  0  0  3  0  0  0  0  0  0
  190.4860  178.1310  144.1260 C   0  0  0  0  0  3  0  0  0  0  0  0
  183.6380  179.3410  140.6690 C   0  0  0  0  0  3  0  0  0  0  0  0
  184.9960  179.3930  140.3630 C   0  0  0  0  0  3  0  0  0  0  0  0
  185.5190  178.1050  142.3610 C   0  0  0  0  0  0  0  0  0  0  0  0
  190.7350  175.9430  138.2800 C   0  0  0  0  0  3  0  0  0  0  0  0
  189.0910  177.2100  140.1410 C   0  0  0  0  0  0  0  0  0  0  0  0
  190.3460  176.6910  140.5000 C   0  0  0  0  0  3  0  0  0  0  0  0
  191.1290  176.0740  139.5750 N   0  0  0  0  0  0  0  0  0  0  0  0
  189.5020  176.4510  137.8700 C   0  0  0  0  0  3  0  0  0  0  0  0
  188.6830  177.0870  138.8040 C   0  0  0  0  0  3  0  0  0  0  0  0
  1 12  1  0  0  0  0
  1 15  2  0  0  0  0
  2  6  2  0  0  0  0
  2 16  1  0  0  0  0
  3 16  1  0  0  0  0
  4 13  2  0  0  0  0
  6 18  1  0  0  0  0
  7  9  1  0  0  0  0
  7 13  1  0  0  0  0
  8 10  1  0  0  0  0
  8 17  2  0  0  0  0
 11 14  1  0  0  0  0
 11  7  1  0  0  0  0
 12  2  1  0  0  0  0
 13  5  1  0  0  0  0
 14  4  1  0  0  0  0
 15 21  1  0  0  0  0
 16 11  2  0  0  0  0
 18 14  2  0  0  0  0
 19  8  1  0  0  0  0
 20 19  2  0  0  0  0
 20 15  1  0  0  0  0
 21 17  1  0  0  0  0
 21  3  2  0  0  0  0
 22 25  1  0  0  0  0
 23 24  1  0  0  0  0
 23 12  1  0  0  0  0
 25 24  2  0  0  0  0
 26 22  2  0  0  0  0
 26 27  1  0  0  0  0
 27 23  2  0  0  0  0
M  END
>  <MODEL>
5

>  <REMARK>
 VINA RESULT:      -8.4      1.368      1.635
  Name = 
  1 active torsions:
  status: ('A' for Active; 'I' for Inactive)
    1  A    between atoms: C_9  and  N_15
                            x       y       z     vdW  Elec       q    Type
                         _______ _______ _______ _____ _____    ______ ____

>  <TORSDO>
F 1

$$$$
=
 OpenBabel10262419593D

 27 31  0  0  0  0  0  0  0  0999 V2000
  183.4460  178.1200  137.7110 C   0  0  0  0  0  3  0  0  0  0  0  0
  183.2560  178.7780  140.1040 C   0  0  0  0  0  0  0  0  0  0  0  0
  185.7130  178.5770  139.6130 N   0  0  0  0  0  0  0  0  0  0  0  0
  184.3180  178.4350  144.0690 N   0  0  0  0  0  0  0  0  0  0  0  0
  186.5960  178.2120  144.9180 N   0  0  0  0  0  1  0  0  0  0  0  0
  182.2220  178.7800  141.0780 C   0  0  0  0  0  3  0  0  0  0  0  0
  186.0100  178.4150  142.5530 N   0  0  0  0  0  0  0  0  0  0  0  0
  187.3710  177.4360  136.6610 C   0  0  0  0  0  0  0  0  0  0  0  0
  187.3580  178.3460  142.0120 C   0  0  0  0  0  1  0  0  0  0  0  0
  189.0170  177.2380  136.1030 Cl  0  0  0  0  0  0  0  0  0  0  0  0
  184.8440  178.5450  141.8960 C   0  0  0  0  0  0  0  0  0  0  0  0
  182.9120  178.9730  138.7270 N   0  0  0  0  0  0  0  0  0  0  0  0
  185.6550  178.3540  143.8570 C   0  0  0  0  0  0  0  0  0  0  0  0
  183.8330  178.5550  142.8180 C   0  0  0  0  0  0  0  0  0  0  0  0
  184.7270  177.7890  137.5470 C   0  0  0  0  0  0  0  0  0  0  0  0
  184.6000  178.6310  140.5150 C   0  0  0  0  0  0  0  0  0  0  0  0
  187.1180  178.0460  137.8880 C   0  0  0  0  0  3  0  0  0  0  0  0
  182.5010  178.6630  142.4470 C   0  0  0  0  0  3  0  0  0  0  0  0
  186.3130  176.9390  135.9050 C   0  0  0  0  0  3  0  0  0  0  0  0
  185.0030  177.1260  136.3430 C   0  0  0  0  0  3  0  0  0  0  0  0
  185.8120  178.2010  138.3720 C   0  0  0  0  0  0  0  0  0  0  0  0
  179.8290  181.6350  137.5780 C   0  0  0  0  0  3  0  0  0  0  0  0
  181.8560  179.8890  138.3540 C   0  0  0  0  0  0  0  0  0  0  0  0
  180.6530  179.4210  137.8020 C   0  0  0  0  0  3  0  0  0  0  0  0
  179.6770  180.2920  137.4330 N   0  0  0  0  0  0  0  0  0  0  0  0
  181.0090  182.1520  138.1120 C   0  0  0  0  0  3  0  0  0  0  0  0
  182.0230  181.2750  138.4970 C   0  0  0  0  0  3  0  0  0  0  0  0
  1 12  1  0  0  0  0
  2 16  2  0  0  0  0
  2  6  1  0  0  0  0
  3 16  1  0  0  0  0
  6 18  2  0  0  0  0
  7 13  1  0  0  0  0
  8 17  2  0  0  0  0
  9  7  1  0  0  0  0
 10  8  1  0  0  0  0
 11  7  1  0  0  0  0
 11 14  2  0  0  0  0
 12  2  1  0  0  0  0
 13  4  2  0  0  0  0
 13  5  1  0  0  0  0
 14  4  1  0  0  0  0
 15  1  2  0  0  0  0
 15 21  1  0  0  0  0
 16 11  1  0  0  0  0
 17 21  1  0  0  0  0
 18 14  1  0  0  0  0
 19 20  2  0  0  0  0
 19  8  1  0  0  0  0
 20 15  1  0  0  0  0
 21  3  2  0  0  0  0
 22 26  1  0  0  0  0
 23 27  1  0  0  0  0
 23 12  1  0  0  0  0
 24 23  2  0  0  0  0
 25 22  2  0  0  0  0
 25 24  1  0  0  0  0
 26 27  2  0  0  0  0
M  END
>  <MODEL>
6

>  <REMARK>
 VINA RESULT:      -7.7      4.469      7.560
  Name = 
  1 active torsions:
  status: ('A' for Active; 'I' for Inactive)
    1  A    between atoms: C_9  and  N_15
                            x       y       z     vdW  Elec       q    Type
                         _______ _______ _______ _____ _____    ______ ____

>  <TORSDO>
F 1

$$$$
=
 OpenBabel10262419593D

 27 31  0  0  0  0  0  0  0  0999 V2000
  191.2620  177.3770  140.2600 C   0  0  0  0  0  3  0  0  0  0  0  0
  188.8050  177.5420  139.8950 C   0  0  0  0  0  0  0  0  0  0  0  0
  189.6770  175.9350  138.1690 N   0  0  0  0  0  0  0  0  0  0  0  0
  185.5040  177.9110  137.4590 N   0  0  0  0  0  0  0  0  0  0  0  0
  185.1470  176.7230  135.3570 N   0  0  0  0  0  1  0  0  0  0  0  0
  187.7780  178.4380  140.2900 C   0  0  0  0  0  3  0  0  0  0  0  0
  187.1230  176.4720  136.7740 N   0  0  0  0  0  0  0  0  0  0  0  0
  193.0410  175.0140  137.3920 C   0  0  0  0  0  0  0  0  0  0  0  0
  187.8300  175.5030  135.9520 C   0  0  0  0  0  1  0  0  0  0  0  0
  193.8570  173.9330  136.2840 Cl  0  0  0  0  0  0  0  0  0  0  0  0
  187.5010  177.0220  137.9420 C   0  0  0  0  0  0  0  0  0  0  0  0
  189.9250  177.3420  140.7660 N   0  0  0  0  0  0  0  0  0  0  0  0
  185.9170  177.0290  136.5160 C   0  0  0  0  0  0  0  0  0  0  0  0
  186.5200  177.8870  138.3440 C   0  0  0  0  0  0  0  0  0  0  0  0
  191.7240  176.7200  139.1960 C   0  0  0  0  0  0  0  0  0  0  0  0
  188.6820  176.8320  138.6780 C   0  0  0  0  0  0  0  0  0  0  0  0
  191.6490  175.0070  137.4760 C   0  0  0  0  0  3  0  0  0  0  0  0
  186.6240  178.6240  139.5130 C   0  0  0  0  0  3  0  0  0  0  0  0
  193.7750  175.9160  138.1560 C   0  0  0  0  0  3  0  0  0  0  0  0
  193.1190  176.7530  139.0560 C   0  0  0  0  0  3  0  0  0  0  0  0
  190.9650  175.8740  138.3380 C   0  0  0  0  0  0  0  0  0  0  0  0
  189.3420  177.2900  144.9580 C   0  0  0  0  0  3  0  0  0  0  0  0
  189.7460  177.3190  142.2010 C   0  0  0  0  0  0  0  0  0  0  0  0
  188.9020  176.3780  142.8110 C   0  0  0  0  0  3  0  0  0  0  0  0
  188.7220  176.3810  144.1590 N   0  0  0  0  0  0  0  0  0  0  0  0
  190.1830  178.2530  144.4000 C   0  0  0  0  0  3  0  0  0  0  0  0
  190.3810  178.2660  143.0190 C   0  0  0  0  0  3  0  0  0  0  0  0
  1 12  1  0  0  0  0
  2  6  1  0  0  0  0
  2 12  1  0  0  0  0
  3 21  2  0  0  0  0
  3 16  1  0  0  0  0
  4 14  1  0  0  0  0
  5 13  1  0  0  0  0
  7 11  1  0  0  0  0
  8 17  2  0  0  0  0
  8 19  1  0  0  0  0
  9  7  1  0  0  0  0
 10  8  1  0  0  0  0
 11 14  2  0  0  0  0
 11 16  1  0  0  0  0
 12 23  1  0  0  0  0
 13  7  1  0  0  0  0
 13  4  2  0  0  0  0
 14 18  1  0  0  0  0
 15  1  2  0  0  0  0
 16  2  2  0  0  0  0
 17 21  1  0  0  0  0
 18  6  2  0  0  0  0
 19 20  2  0  0  0  0
 20 15  1  0  0  0  0
 21 15  1  0  0  0  0
 23 24  2  0  0  0  0
 23 27  1  0  0  0  0
 24 25  1  0  0  0  0
 25 22  2  0  0  0  0
 26 22  1  0  0  0  0
 27 26  2  0  0  0  0
M  END
>  <MODEL>
7

>  <REMARK>
 VINA RESULT:      -7.7      3.685      8.065
  Name = 
  1 active torsions:
  status: ('A' for Active; 'I' for Inactive)
    1  A    between atoms: C_9  and  N_15
                            x       y       z     vdW  Elec       q    Type
                         _______ _______ _______ _____ _____    ______ ____

>  <TORSDO>
F 1

$$$$
=
 OpenBabel10262419593D

 27 31  0  0  0  0  0  0  0  0999 V2000
  190.0880  177.8720  137.9010 C   0  0  0  0  0  3  0  0  0  0  0  0
  190.8350  177.3430  140.2160 C   0  0  0  0  0  0  0  0  0  0  0  0
  188.3220  177.3340  140.2590 N   0  0  0  0  0  0  0  0  0  0  0  0
  190.6110  177.7880  144.3050 N   0  0  0  0  0  0  0  0  0  0  0  0
  188.5540  177.8780  145.6160 N   0  0  0  0  0  1  0  0  0  0  0  0
  192.0470  177.4650  140.9450 C   0  0  0  0  0  3  0  0  0  0  0  0
  188.6410  177.6100  143.1880 N   0  0  0  0  0  0  0  0  0  0  0  0
  185.9870  178.2070  137.6990 C   0  0  0  0  0  0  0  0  0  0  0  0
  187.2080  177.5500  142.9460 C   0  0  0  0  0  1  0  0  0  0  0  0
  184.2490  178.2530  137.5010 Cl  0  0  0  0  0  0  0  0  0  0  0  0
  189.6480  177.5370  142.2990 C   0  0  0  0  0  0  0  0  0  0  0  0
  190.8940  177.1100  138.8030 N   0  0  0  0  0  0  0  0  0  0  0  0
  189.2570  177.7580  144.3830 C   0  0  0  0  0  0  0  0  0  0  0  0
  190.8280  177.6480  142.9830 C   0  0  0  0  0  0  0  0  0  0  0  0
  188.7780  178.0970  138.0060 C   0  0  0  0  0  0  0  0  0  0  0  0
  189.6000  177.4060  140.9020 C   0  0  0  0  0  0  0  0  0  0  0  0
  186.5440  177.6750  138.8610 C   0  0  0  0  0  3  0  0  0  0  0  0
  192.0550  177.6240  142.3380 C   0  0  0  0  0  3  0  0  0  0  0  0
  186.8150  178.7470  136.7190 C   0  0  0  0  0  3  0  0  0  0  0  0
  188.1980  178.6810  136.8710 C   0  0  0  0  0  3  0  0  0  0  0  0
  187.9310  177.6430  139.0570 C   0  0  0  0  0  0  0  0  0  0  0  0
  193.9000  174.6620  137.1040 C   0  0  0  0  0  3  0  0  0  0  0  0
  191.9210  176.2610  138.2400 C   0  0  0  0  0  0  0  0  0  0  0  0
  193.2120  176.7530  137.9930 C   0  0  0  0  0  3  0  0  0  0  0  0
  194.1630  175.9530  137.4410 N   0  0  0  0  0  0  0  0  0  0  0  0
  192.6290  174.1280  137.3190 C   0  0  0  0  0  3  0  0  0  0  0  0
  191.6400  174.9330  137.8860 C   0  0  0  0  0  3  0  0  0  0  0  0
  1 15  2  0  0  0  0
  1 12  1  0  0  0  0
  2 16  2  0  0  0  0
  2  6  1  0  0  0  0
  3 16  1  0  0  0  0
  4 13  2  0  0  0  0
  6 18  2  0  0  0  0
  7 13  1  0  0  0  0
  8 17  2  0  0  0  0
  9  7  1  0  0  0  0
 10  8  1  0  0  0  0
 11 14  2  0  0  0  0
 11  7  1  0  0  0  0
 12  2  1  0  0  0  0
 13  5  1  0  0  0  0
 14  4  1  0  0  0  0
 15 21  1  0  0  0  0
 16 11  1  0  0  0  0
 17 21  1  0  0  0  0
 18 14  1  0  0  0  0
 19 20  2  0  0  0  0
 19  8  1  0  0  0  0
 20 15  1  0  0  0  0
 21  3  2  0  0  0  0
 22 26  2  0  0  0  0
 22 25  1  0  0  0  0
 23 12  1  0  0  0  0
 24 23  1  0  0  0  0
 25 24  2  0  0  0  0
 26 27  1  0  0  0  0
 27 23  2  0  0  0  0
M  END
>  <MODEL>
8

>  <REMARK>
 VINA RESULT:      -7.6      2.399      3.876
  Name = 
  1 active torsions:
  status: ('A' for Active; 'I' for Inactive)
    1  A    between atoms: C_9  and  N_15
                            x       y       z     vdW  Elec       q    Type
                         _______ _______ _______ _____ _____    ______ ____

>  <TORSDO>
F 1

$$$$
=
 OpenBabel10262419593D

 27 31  0  0  0  0  0  0  0  0999 V2000
  190.5380  177.7950  143.3890 C   0  0  0  0  0  3  0  0  0  0  0  0
  188.6030  177.8430  144.9530 C   0  0  0  0  0  0  0  0  0  0  0  0
  187.6660  177.3410  142.6750 N   0  0  0  0  0  0  0  0  0  0  0  0
  184.7660  178.9490  145.9650 N   0  0  0  0  0  0  0  0  0  0  0  0
  182.8230  178.8570  144.4910 N   0  0  0  0  0  1  0  0  0  0  0  0
  188.3700  178.3300  146.2660 C   0  0  0  0  0  3  0  0  0  0  0  0
  185.0840  178.1870  143.8480 N   0  0  0  0  0  0  0  0  0  0  0  0
  189.2960  177.2660  139.4960 C   0  0  0  0  0  0  0  0  0  0  0  0
  184.7920  177.8020  142.4770 C   0  0  0  0  0  1  0  0  0  0  0  0
  188.8640  176.9290  137.8350 Cl  0  0  0  0  0  0  0  0  0  0  0  0
  186.2630  178.1620  144.4980 C   0  0  0  0  0  0  0  0  0  0  0  0
  189.9140  177.3810  144.6060 N   0  0  0  0  0  0  0  0  0  0  0  0
  184.2080  178.6650  144.7620 C   0  0  0  0  0  0  0  0  0  0  0  0
  186.0590  178.6240  145.7690 C   0  0  0  0  0  0  0  0  0  0  0  0
  189.9960  177.7700  142.1710 C   0  0  0  0  0  0  0  0  0  0  0  0
  187.5320  177.7790  144.0330 C   0  0  0  0  0  0  0  0  0  0  0  0
  188.3640  177.0690  140.5140 C   0  0  0  0  0  3  0  0  0  0  0  0
  187.0930  178.7320  146.6860 C   0  0  0  0  0  3  0  0  0  0  0  0
  190.5540  177.7780  139.8000 C   0  0  0  0  0  3  0  0  0  0  0  0
  190.8990  178.0170  141.1290 C   0  0  0  0  0  3  0  0  0  0  0  0
  188.6730  177.3490  141.8520 C   0  0  0  0  0  0  0  0  0  0  0  0
  192.3080  175.3460  147.4420 C   0  0  0  0  0  3  0  0  0  0  0  0
  190.7220  176.6680  145.5710 C   0  0  0  0  0  0  0  0  0  0  0  0
  190.6590  176.9770  146.9390 C   0  0  0  0  0  3  0  0  0  0  0  0
  191.4400  176.3160  147.8340 N   0  0  0  0  0  0  0  0  0  0  0  0
  192.4170  175.0080  146.0930 C   0  0  0  0  0  3  0  0  0  0  0  0
  191.6230  175.6740  145.1590 C   0  0  0  0  0  3  0  0  0  0  0  0
  1 12  1  0  0  0  0
  2  6  1  0  0  0  0
  3 16  1  0  0  0  0
  5 13  1  0  0  0  0
  6 18  2  0  0  0  0
  7 11  1  0  0  0  0
  7 13  1  0  0  0  0
  8 19  1  0  0  0  0
  8 17  2  0  0  0  0
  9  7  1  0  0  0  0
 10  8  1  0  0  0  0
 11 14  2  0  0  0  0
 12  2  1  0  0  0  0
 12 23  1  0  0  0  0
 13  4  2  0  0  0  0
 14  4  1  0  0  0  0
 14 18  1  0  0  0  0
 15  1  2  0  0  0  0
 16 11  1  0  0  0  0
 16  2  2  0  0  0  0
 17 21  1  0  0  0  0
 19 20  2  0  0  0  0
 20 15  1  0  0  0  0
 21 15  1  0  0  0  0
 21  3  2  0  0  0  0
 22 25  1  0  0  0  0
 23 24  1  0  0  0  0
 24 25  2  0  0  0  0
 26 22  2  0  0  0  0
 27 23  2  0  0  0  0
 27 26  1  0  0  0  0
M  END
>  <MODEL>
9

>  <REMARK>
 VINA RESULT:      -7.5      2.567      6.244
  Name = 
  1 active torsions:
  status: ('A' for Active; 'I' for Inactive)
    1  A    between atoms: C_9  and  N_15
                            x       y       z     vdW  Elec       q    Type
                         _______ _______ _______ _____ _____    ______ ____

>  <TORSDO>
F 1

$$$$
