=
 OpenBabel10262419503D

 25 28  0  0  1  0  0  0  0  0999 V2000
  187.1390  177.9400  145.8960 C   0  0  0  0  0  0  0  0  0  0  0  0
  188.3250  177.4790  145.4950 C   0  0  0  0  0  0  0  0  0  0  0  0
  187.8010  177.9530  148.3100 C   0  0  0  0  0  2  0  0  0  0  0  0
  186.0190  178.2620  145.1690 C   0  0  0  0  0  0  0  0  0  0  0  0
  184.1290  178.8320  144.1390 N   0  0  0  0  0  0  0  0  0  0  0  0
  189.1320  177.4390  147.8050 C   0  0  0  0  0  3  0  0  0  0  0  0
  185.1060  178.6740  146.0350 C   0  0  0  0  0  0  0  0  0  0  0  0
  183.9040  179.0380  145.3830 N   0  0  0  0  0  0  0  0  0  0  0  0
  190.6780  176.7190  146.0210 C   0  0  0  0  0  0  0  0  0  0  0  0
  191.7900  176.4450  146.9760 C   0  0  0  0  0  1  0  0  0  0  0  0
  188.6250  177.2300  144.1250 N   0  0  0  0  0  2  0  0  0  0  0  0
  186.0960  177.9880  142.6650 C   0  0  0  0  0  1  0  0  0  0  0  0
  186.8620  178.1740  147.2080 N   0  0  0  0  0  0  0  0  0  0  0  0
  185.5860  178.6380  147.3280 C   0  0  0  0  0  3  0  0  0  0  0  0
  190.8800  176.5120  144.7520 N   0  0  0  0  0  0  0  0  0  0  0  0
  185.4730  178.3360  143.9710 C   0  0  0  0  0  0  0  0  0  0  0  0
  189.8930  176.7390  143.7740 N   0  0  0  0  0  0  0  0  0  0  0  0
  189.3720  177.2180  146.5010 C   0  0  0  0  0  0  0  0  0  0  0  0
  190.2120  176.5310  142.3740 C   0  0  0  0  0  2  0  0  0  0  0  0
  189.6460  177.6760  141.5420 C   0  0  0  0  0  2  0  0  0  0  0  0
  189.3560  177.2640  140.0960 C   0  0  2  0  0  3  0  0  0  0  0  0
  190.5940  176.6890  139.4300 C   0  0  0  0  0  1  0  0  0  0  0  0
  189.1940  178.5750  138.0280 C   0  0  0  0  0  3  0  0  0  0  0  0
  188.6730  179.6290  137.2890 O   0  0  0  0  0  1  0  0  0  0  0  0
  188.8080  178.3930  139.2840 C   0  0  0  0  0  3  0  0  0  0  0  0
  1 13  1  0  0  0  0
  2  1  2  0  0  0  0
  2 18  1  0  0  0  0
  4  1  1  0  0  0  0
  4  7  1  0  0  0  0
  5  8  2  0  0  0  0
  6  3  1  0  0  0  0
  7 14  2  0  0  0  0
  8  7  1  0  0  0  0
  9 18  1  0  0  0  0
  9 10  1  0  0  0  0
 11  2  1  0  0  0  0
 12 16  1  0  0  0  0
 13 14  1  0  0  0  0
 13  3  1  0  0  0  0
 15  9  2  0  0  0  0
 16  5  1  0  0  0  0
 16  4  2  0  0  0  0
 17 11  1  0  0  0  0
 17 15  1  0  0  0  0
 18  6  2  0  0  0  0
 19 17  1  0  0  0  0
 20 19  1  0  0  0  0
 21 22  1  6  0  0  0
 21 20  1  0  0  0  0
 23 25  2  0  0  0  0
 24 23  1  0  0  0  0
 25 21  1  0  0  0  0
M  END
>  <MODEL>
1

>  <REMARK>
 VINA RESULT:      -9.6      0.000      0.000
  Name = 
  4 active torsions:
  status: ('A' for Active; 'I' for Inactive)
    1  A    between atoms: C_6  and  C_15
    2  A    between atoms: C_6  and  N_23
    3  A    between atoms: C_12  and  C_21
    4  A    between atoms: C_15  and  C_21
                            x       y       z     vdW  Elec       q    Type
                         _______ _______ _______ _____ _____    ______ ____

>  <TORSDO>
F 4

$$$$
=
 OpenBabel10262419503D

 25 28  0  0  1  0  0  0  0  0999 V2000
  187.0840  178.0010  145.8150 C   0  0  0  0  0  0  0  0  0  0  0  0
  188.2560  177.5520  145.3630 C   0  0  0  0  0  0  0  0  0  0  0  0
  187.8370  177.9890  148.2020 C   0  0  0  0  0  2  0  0  0  0  0  0
  185.9350  178.3250  145.1350 C   0  0  0  0  0  0  0  0  0  0  0  0
  184.0040  178.8960  144.1850 N   0  0  0  0  0  0  0  0  0  0  0  0
  189.1510  177.4890  147.6410 C   0  0  0  0  0  3  0  0  0  0  0  0
  185.0540  178.7210  146.0400 C   0  0  0  0  0  0  0  0  0  0  0  0
  183.8250  179.0850  145.4390 N   0  0  0  0  0  0  0  0  0  0  0  0
  190.6320  176.8000  145.7900 C   0  0  0  0  0  0  0  0  0  0  0  0
  191.7810  176.5210  146.6980 C   0  0  0  0  0  1  0  0  0  0  0  0
  188.5050  177.3210  143.9800 N   0  0  0  0  0  2  0  0  0  0  0  0
  185.9170  178.0820  142.6270 C   0  0  0  0  0  1  0  0  0  0  0  0
  186.8560  178.2180  147.1390 N   0  0  0  0  0  0  0  0  0  0  0  0
  185.5830  178.6730  147.3130 C   0  0  0  0  0  3  0  0  0  0  0  0
  190.7870  176.6090  144.5120 N   0  0  0  0  0  0  0  0  0  0  0  0
  185.3430  178.4100  143.9600 C   0  0  0  0  0  0  0  0  0  0  0  0
  189.7610  176.8410  143.5750 N   0  0  0  0  0  0  0  0  0  0  0  0
  189.3420  177.2860  146.3250 C   0  0  0  0  0  0  0  0  0  0  0  0
  190.0280  176.6520  142.1610 C   0  0  0  0  0  2  0  0  0  0  0  0
  189.3450  177.7530  141.3570 C   0  0  0  0  0  2  0  0  0  0  0  0
  189.6590  177.6680  139.8620 C   0  0  2  0  0  3  0  0  0  0  0  0
  188.3860  177.6570  139.0330 C   0  0  0  0  0  1  0  0  0  0  0  0
  190.4540  175.9330  138.3200 C   0  0  0  0  0  3  0  0  0  0  0  0
  191.2490  174.8320  138.0270 O   0  0  0  0  0  1  0  0  0  0  0  0
  190.5050  176.4830  139.5250 C   0  0  0  0  0  3  0  0  0  0  0  0
  1 13  1  0  0  0  0
  2  1  2  0  0  0  0
  2 18  1  0  0  0  0
  4  1  1  0  0  0  0
  4  7  1  0  0  0  0
  5  8  2  0  0  0  0
  6  3  1  0  0  0  0
  7 14  2  0  0  0  0
  8  7  1  0  0  0  0
  9 18  1  0  0  0  0
  9 10  1  0  0  0  0
 11  2  1  0  0  0  0
 12 16  1  0  0  0  0
 13 14  1  0  0  0  0
 13  3  1  0  0  0  0
 15  9  2  0  0  0  0
 16  5  1  0  0  0  0
 16  4  2  0  0  0  0
 17 11  1  0  0  0  0
 17 15  1  0  0  0  0
 18  6  2  0  0  0  0
 19 17  1  0  0  0  0
 20 19  1  0  0  0  0
 21 22  1  6  0  0  0
 21 20  1  0  0  0  0
 23 25  2  0  0  0  0
 24 23  1  0  0  0  0
 25 21  1  0  0  0  0
M  END
>  <MODEL>
2

>  <REMARK>
 VINA RESULT:      -9.4      1.177      1.449
  Name = 
  4 active torsions:
  status: ('A' for Active; 'I' for Inactive)
    1  A    between atoms: C_6  and  C_15
    2  A    between atoms: C_6  and  N_23
    3  A    between atoms: C_12  and  C_21
    4  A    between atoms: C_15  and  C_21
                            x       y       z     vdW  Elec       q    Type
                         _______ _______ _______ _____ _____    ______ ____

>  <TORSDO>
F 4

$$$$
=
 OpenBabel10262419503D

 25 28  0  0  1  0  0  0  0  0999 V2000
  188.5920  177.5800  145.8410 C   0  0  0  0  0  0  0  0  0  0  0  0
  187.9080  177.7840  144.7130 C   0  0  0  0  0  0  0  0  0  0  0  0
  186.5920  177.9720  147.2940 C   0  0  0  0  0  2  0  0  0  0  0  0
  189.9170  177.2690  146.0310 C   0  0  0  0  0  0  0  0  0  0  0  0
  192.0300  176.7600  146.5110 N   0  0  0  0  0  0  0  0  0  0  0  0
  185.8570  178.1880  145.9880 C   0  0  0  0  0  3  0  0  0  0  0  0
  190.1010  177.1700  147.3390 C   0  0  0  0  0  0  0  0  0  0  0  0
  191.4430  176.8460  147.6470 N   0  0  0  0  0  0  0  0  0  0  0  0
  185.7400  178.3120  143.5260 C   0  0  0  0  0  0  0  0  0  0  0  0
  184.2810  178.6240  143.5250 C   0  0  0  0  0  1  0  0  0  0  0  0
  188.5130  177.7050  143.4270 N   0  0  0  0  0  2  0  0  0  0  0  0
  191.3920  177.0120  144.0050 C   0  0  0  0  0  1  0  0  0  0  0  0
  188.0040  177.6580  147.0650 N   0  0  0  0  0  0  0  0  0  0  0  0
  188.9320  177.4050  148.0320 C   0  0  0  0  0  3  0  0  0  0  0  0
  186.3590  178.2260  142.3840 N   0  0  0  0  0  0  0  0  0  0  0  0
  191.0790  177.0260  145.4600 C   0  0  0  0  0  0  0  0  0  0  0  0
  187.7350  177.9390  142.2810 N   0  0  0  0  0  0  0  0  0  0  0  0
  186.4700  178.1020  144.7940 C   0  0  0  0  0  0  0  0  0  0  0  0
  188.3420  177.8110  140.9700 C   0  0  0  0  0  2  0  0  0  0  0  0
  189.4970  176.8180  141.0330 C   0  0  0  0  0  2  0  0  0  0  0  0
  190.4400  176.9380  139.8340 C   0  0  2  0  0  3  0  0  0  0  0  0
  191.8170  177.4140  140.2620 C   0  0  0  0  0  1  0  0  0  0  0  0
  189.7990  177.4120  137.5130 C   0  0  0  0  0  3  0  0  0  0  0  0
  189.2870  178.2570  136.5370 O   0  0  0  0  0  1  0  0  0  0  0  0
  189.8920  177.8310  138.7680 C   0  0  0  0  0  3  0  0  0  0  0  0
  1  4  1  0  0  0  0
  1 13  1  0  0  0  0
  2 18  1  0  0  0  0
  2  1  2  0  0  0  0
  4  7  1  0  0  0  0
  5  8  2  0  0  0  0
  6  3  1  0  0  0  0
  7  8  1  0  0  0  0
  7 14  2  0  0  0  0
  9 18  1  0  0  0  0
 10  9  1  0  0  0  0
 11  2  1  0  0  0  0
 12 16  1  0  0  0  0
 13  3  1  0  0  0  0
 13 14  1  0  0  0  0
 15  9  2  0  0  0  0
 16  4  2  0  0  0  0
 16  5  1  0  0  0  0
 17 15  1  0  0  0  0
 17 11  1  0  0  0  0
 18  6  2  0  0  0  0
 19 20  1  0  0  0  0
 19 17  1  0  0  0  0
 21 22  1  1  0  0  0
 21 20  1  0  0  0  0
 23 25  2  0  0  0  0
 24 23  1  0  0  0  0
 25 21  1  0  0  0  0
M  END
>  <MODEL>
3

>  <REMARK>
 VINA RESULT:      -8.9      1.504      4.295
  Name = 
  4 active torsions:
  status: ('A' for Active; 'I' for Inactive)
    1  A    between atoms: C_6  and  C_15
    2  A    between atoms: C_6  and  N_23
    3  A    between atoms: C_12  and  C_21
    4  A    between atoms: C_15  and  C_21
                            x       y       z     vdW  Elec       q    Type
                         _______ _______ _______ _____ _____    ______ ____

>  <TORSDO>
F 4

$$$$
=
 OpenBabel10262419503D

 25 28  0  0  1  0  0  0  0  0999 V2000
  189.6040  177.4160  144.0550 C   0  0  0  0  0  0  0  0  0  0  0  0
  188.9120  177.7420  142.9620 C   0  0  0  0  0  0  0  0  0  0  0  0
  191.6980  176.9510  142.7650 C   0  0  0  0  0  2  0  0  0  0  0  0
  189.2170  177.3790  145.3730 C   0  0  0  0  0  0  0  0  0  0  0  0
  188.7530  177.2740  147.5480 N   0  0  0  0  0  0  0  0  0  0  0  0
  190.8740  177.3380  141.5560 C   0  0  0  0  0  3  0  0  0  0  0  0
  190.2740  176.9920  146.0710 C   0  0  0  0  0  0  0  0  0  0  0  0
  189.9820  176.9250  147.4540 N   0  0  0  0  0  0  0  0  0  0  0  0
  188.7910  178.0810  140.4600 C   0  0  0  0  0  0  0  0  0  0  0  0
  189.4030  178.0780  139.1000 C   0  0  0  0  0  1  0  0  0  0  0  0
  187.5440  178.1340  143.0120 N   0  0  0  0  0  2  0  0  0  0  0  0
  186.8470  178.0160  145.9450 C   0  0  0  0  0  1  0  0  0  0  0  0
  190.9110  177.0430  143.9970 N   0  0  0  0  0  0  0  0  0  0  0  0
  191.3620  176.7680  145.2540 C   0  0  0  0  0  3  0  0  0  0  0  0
  187.5420  178.4260  140.5810 N   0  0  0  0  0  0  0  0  0  0  0  0
  188.2370  177.5710  146.2340 C   0  0  0  0  0  0  0  0  0  0  0  0
  186.8740  178.4580  141.8210 N   0  0  0  0  0  0  0  0  0  0  0  0
  189.5830  177.7020  141.6490 C   0  0  0  0  0  0  0  0  0  0  0  0
  185.4940  178.9020  141.8780 C   0  0  0  0  0  2  0  0  0  0  0  0
  184.8030  178.2750  143.0840 C   0  0  0  0  0  2  0  0  0  0  0  0
  183.6660  179.1450  143.6260 C   0  0  2  0  0  3  0  0  0  0  0  0
  183.4810  178.9400  145.1190 C   0  0  0  0  0  1  0  0  0  0  0  0
  181.2320  178.8340  143.5730 C   0  0  0  0  0  3  0  0  0  0  0  0
  180.0450  178.6130  142.8880 O   0  0  0  0  0  1  0  0  0  0  0  0
  182.3770  178.9070  142.9080 C   0  0  0  0  0  3  0  0  0  0  0  0
  1  4  1  0  0  0  0
  2 11  1  0  0  0  0
  2  1  2  0  0  0  0
  3 13  1  0  0  0  0
  4  7  1  0  0  0  0
  4 16  2  0  0  0  0
  6 18  2  0  0  0  0
  6  3  1  0  0  0  0
  7  8  1  0  0  0  0
  8  5  2  0  0  0  0
  9 15  2  0  0  0  0
  9 18  1  0  0  0  0
 10  9  1  0  0  0  0
 12 16  1  0  0  0  0
 13  1  1  0  0  0  0
 13 14  1  0  0  0  0
 14  7  2  0  0  0  0
 15 17  1  0  0  0  0
 16  5  1  0  0  0  0
 17 19  1  0  0  0  0
 17 11  1  0  0  0  0
 18  2  1  0  0  0  0
 19 20  1  0  0  0  0
 20 21  1  0  0  0  0
 21 22  1  1  0  0  0
 24 23  1  0  0  0  0
 25 23  2  0  0  0  0
 25 21  1  0  0  0  0
M  END
>  <MODEL>
4

>  <REMARK>
 VINA RESULT:      -8.8      2.854      6.163
  Name = 
  4 active torsions:
  status: ('A' for Active; 'I' for Inactive)
    1  A    between atoms: C_6  and  C_15
    2  A    between atoms: C_6  and  N_23
    3  A    between atoms: C_12  and  C_21
    4  A    between atoms: C_15  and  C_21
                            x       y       z     vdW  Elec       q    Type
                         _______ _______ _______ _____ _____    ______ ____

>  <TORSDO>
F 4

$$$$
=
 OpenBabel10262419503D

 25 28  0  0  1  0  0  0  0  0999 V2000
  185.7790  178.5000  142.9840 C   0  0  0  0  0  0  0  0  0  0  0  0
  187.0090  178.1850  142.5750 C   0  0  0  0  0  0  0  0  0  0  0  0
  184.9660  178.9480  140.6600 C   0  0  0  0  0  2  0  0  0  0  0  0
  185.2460  178.5360  144.2500 C   0  0  0  0  0  0  0  0  0  0  0  0
  184.2300  178.6370  146.2290 N   0  0  0  0  0  0  0  0  0  0  0  0
  186.3730  178.5740  140.2440 C   0  0  0  0  0  3  0  0  0  0  0  0
  183.9820  178.9100  144.1210 C   0  0  0  0  0  0  0  0  0  0  0  0
  183.3340  178.9750  145.3780 N   0  0  0  0  0  0  0  0  0  0  0  0
  188.6880  177.8570  140.7130 C   0  0  0  0  0  0  0  0  0  0  0  0
  189.0730  177.8590  139.2730 C   0  0  0  0  0  1  0  0  0  0  0  0
  188.0430  177.8080  143.4800 N   0  0  0  0  0  2  0  0  0  0  0  0
  186.7280  177.9210  146.1930 C   0  0  0  0  0  1  0  0  0  0  0  0
  184.7980  178.8600  142.1120 N   0  0  0  0  0  0  0  0  0  0  0  0
  183.6520  179.1250  142.8000 C   0  0  0  0  0  3  0  0  0  0  0  0
  189.5830  177.5240  141.5980 N   0  0  0  0  0  0  0  0  0  0  0  0
  185.4640  178.3510  145.5370 C   0  0  0  0  0  0  0  0  0  0  0  0
  189.3170  177.4950  142.9810 N   0  0  0  0  0  0  0  0  0  0  0  0
  187.3180  178.2230  141.1340 C   0  0  0  0  0  0  0  0  0  0  0  0
  190.3550  177.0650  143.8990 C   0  0  0  0  0  2  0  0  0  0  0  0
  190.1760  177.7650  145.2410 C   0  0  0  0  0  2  0  0  0  0  0  0
  190.2470  176.7950  146.4230 C   0  0  2  0  0  3  0  0  0  0  0  0
  189.7810  177.4590  147.7070 C   0  0  0  0  0  1  0  0  0  0  0  0
  192.1620  176.1380  147.8100 C   0  0  0  0  0  3  0  0  0  0  0  0
  193.4340  175.6000  147.9580 O   0  0  0  0  0  1  0  0  0  0  0  0
  191.6140  176.2200  146.6040 C   0  0  0  0  0  3  0  0  0  0  0  0
  1  4  1  0  0  0  0
  2  1  2  0  0  0  0
  2 11  1  0  0  0  0
  3 13  1  0  0  0  0
  4 16  2  0  0  0  0
  6  3  1  0  0  0  0
  6 18  2  0  0  0  0
  7  4  1  0  0  0  0
  7  8  1  0  0  0  0
  8  5  2  0  0  0  0
  9 18  1  0  0  0  0
  9 15  2  0  0  0  0
 10  9  1  0  0  0  0
 13 14  1  0  0  0  0
 13  1  1  0  0  0  0
 14  7  2  0  0  0  0
 15 17  1  0  0  0  0
 16 12  1  0  0  0  0
 16  5  1  0  0  0  0
 17 11  1  0  0  0  0
 17 19  1  0  0  0  0
 18  2  1  0  0  0  0
 19 20  1  0  0  0  0
 20 21  1  0  0  0  0
 21 25  1  0  0  0  0
 21 22  1  1  0  0  0
 23 24  1  0  0  0  0
 25 23  2  0  0  0  0
M  END
>  <MODEL>
5

>  <REMARK>
 VINA RESULT:      -8.8      2.837      5.814
  Name = 
  4 active torsions:
  status: ('A' for Active; 'I' for Inactive)
    1  A    between atoms: C_6  and  C_15
    2  A    between atoms: C_6  and  N_23
    3  A    between atoms: C_12  and  C_21
    4  A    between atoms: C_15  and  C_21
                            x       y       z     vdW  Elec       q    Type
                         _______ _______ _______ _____ _____    ______ ____

>  <TORSDO>
F 4

$$$$
=
 OpenBabel10262419503D

 25 28  0  0  1  0  0  0  0  0999 V2000
  187.2750  178.1210  141.5670 C   0  0  0  0  0  0  0  0  0  0  0  0
  186.5110  178.1830  142.6600 C   0  0  0  0  0  0  0  0  0  0  0  0
  185.3960  178.7680  140.0450 C   0  0  0  0  0  2  0  0  0  0  0  0
  188.6050  177.8070  141.4300 C   0  0  0  0  0  0  0  0  0  0  0  0
  190.7440  177.3280  141.0370 N   0  0  0  0  0  0  0  0  0  0  0  0
  184.5730  178.8320  141.3140 C   0  0  0  0  0  3  0  0  0  0  0  0
  188.8860  177.8900  140.1380 C   0  0  0  0  0  0  0  0  0  0  0  0
  190.2440  177.5860  139.8850 N   0  0  0  0  0  0  0  0  0  0  0  0
  184.2780  178.6280  143.7550 C   0  0  0  0  0  0  0  0  0  0  0  0
  182.8380  179.0140  143.7010 C   0  0  0  0  0  1  0  0  0  0  0  0
  187.0160  177.9020  143.9620 N   0  0  0  0  0  2  0  0  0  0  0  0
  189.9250  177.2450  143.5010 C   0  0  0  0  0  1  0  0  0  0  0  0
  186.7830  178.3910  140.3270 N   0  0  0  0  0  0  0  0  0  0  0  0
  187.7760  178.2530  139.4040 C   0  0  0  0  0  3  0  0  0  0  0  0
  184.8060  178.3550  144.9130 N   0  0  0  0  0  0  0  0  0  0  0  0
  189.7190  177.4610  142.0440 C   0  0  0  0  0  0  0  0  0  0  0  0
  186.1550  177.9790  145.0680 N   0  0  0  0  0  0  0  0  0  0  0  0
  185.0920  178.5590  142.5240 C   0  0  0  0  0  0  0  0  0  0  0  0
  186.6820  177.7390  146.3980 C   0  0  0  0  0  2  0  0  0  0  0  0
  188.2030  177.6540  146.3410 C   0  0  0  0  0  2  0  0  0  0  0  0
  188.8130  177.1620  147.6550 C   0  0  2  0  0  3  0  0  0  0  0  0
  188.2380  177.9120  148.8440 C   0  0  0  0  0  1  0  0  0  0  0  0
  191.0470  176.2690  147.1730 C   0  0  0  0  0  3  0  0  0  0  0  0
  192.4320  176.3740  147.1840 O   0  0  0  0  0  1  0  0  0  0  0  0
  190.3050  177.2550  147.6580 C   0  0  0  0  0  3  0  0  0  0  0  0
  1  2  2  0  0  0  0
  2 11  1  0  0  0  0
  3 13  1  0  0  0  0
  3  6  1  0  0  0  0
  4  1  1  0  0  0  0
  4 16  2  0  0  0  0
  5 16  1  0  0  0  0
  6 18  2  0  0  0  0
  7  4  1  0  0  0  0
  8  7  1  0  0  0  0
  8  5  2  0  0  0  0
  9 15  2  0  0  0  0
 10  9  1  0  0  0  0
 11 17  1  0  0  0  0
 13  1  1  0  0  0  0
 14  7  2  0  0  0  0
 14 13  1  0  0  0  0
 15 17  1  0  0  0  0
 16 12  1  0  0  0  0
 17 19  1  0  0  0  0
 18  2  1  0  0  0  0
 18  9  1  0  0  0  0
 20 19  1  0  0  0  0
 20 21  1  0  0  0  0
 21 25  1  0  0  0  0
 21 22  1  1  0  0  0
 23 24  1  0  0  0  0
 23 25  2  0  0  0  0
M  END
>  <MODEL>
6

>  <REMARK>
 VINA RESULT:      -8.7      2.904      7.108
  Name = 
  4 active torsions:
  status: ('A' for Active; 'I' for Inactive)
    1  A    between atoms: C_6  and  C_15
    2  A    between atoms: C_6  and  N_23
    3  A    between atoms: C_12  and  C_21
    4  A    between atoms: C_15  and  C_21
                            x       y       z     vdW  Elec       q    Type
                         _______ _______ _______ _____ _____    ______ ____

>  <TORSDO>
F 4

$$$$
=
 OpenBabel10262419503D

 25 28  0  0  1  0  0  0  0  0999 V2000
  189.1160  177.7750  141.0180 C   0  0  0  0  0  0  0  0  0  0  0  0
  189.1360  177.5570  142.3350 C   0  0  0  0  0  0  0  0  0  0  0  0
  191.5620  177.3100  140.7600 C   0  0  0  0  0  2  0  0  0  0  0  0
  188.0750  178.1240  140.1920 C   0  0  0  0  0  0  0  0  0  0  0  0
  186.5020  178.6830  138.7190 N   0  0  0  0  0  0  0  0  0  0  0  0
  191.5320  177.0650  142.2540 C   0  0  0  0  0  3  0  0  0  0  0  0
  188.5750  178.2190  138.9690 C   0  0  0  0  0  0  0  0  0  0  0  0
  187.5770  178.5730  138.0310 N   0  0  0  0  0  0  0  0  0  0  0  0
  190.3920  176.9370  144.4390 C   0  0  0  0  0  0  0  0  0  0  0  0
  191.6350  176.5410  145.1620 C   0  0  0  0  0  1  0  0  0  0  0  0
  187.9710  177.6690  143.1460 N   0  0  0  0  0  2  0  0  0  0  0  0
  185.7880  178.4240  141.2040 C   0  0  0  0  0  1  0  0  0  0  0  0
  190.2350  177.6660  140.2520 N   0  0  0  0  0  0  0  0  0  0  0  0
  189.9260  177.9410  138.9530 C   0  0  0  0  0  3  0  0  0  0  0  0
  189.2880  177.0600  145.1180 N   0  0  0  0  0  0  0  0  0  0  0  0
  186.7900  178.4010  140.1050 C   0  0  0  0  0  0  0  0  0  0  0  0
  188.0650  177.4320  144.5270 N   0  0  0  0  0  0  0  0  0  0  0  0
  190.4070  177.1820  142.9810 C   0  0  0  0  0  0  0  0  0  0  0  0
  186.8680  177.5000  145.3430 C   0  0  0  0  0  2  0  0  0  0  0  0
  185.7500  178.1810  144.5620 C   0  0  0  0  0  2  0  0  0  0  0  0
  184.7950  178.9640  145.4660 C   0  0  2  0  0  3  0  0  0  0  0  0
  184.8080  178.4200  146.8830 C   0  0  0  0  0  1  0  0  0  0  0  0
  183.1700  178.9800  143.6270 C   0  0  0  0  0  3  0  0  0  0  0  0
  181.8660  179.0000  143.1510 O   0  0  0  0  0  1  0  0  0  0  0  0
  183.3990  178.9860  144.9330 C   0  0  0  0  0  3  0  0  0  0  0  0
  1  2  2  0  0  0  0
  2 18  1  0  0  0  0
  2 11  1  0  0  0  0
  3  6  1  0  0  0  0
  4  1  1  0  0  0  0
  5 16  1  0  0  0  0
  6 18  2  0  0  0  0
  7  4  1  0  0  0  0
  8  5  2  0  0  0  0
  8  7  1  0  0  0  0
  9 15  2  0  0  0  0
  9 10  1  0  0  0  0
 11 17  1  0  0  0  0
 13  3  1  0  0  0  0
 13  1  1  0  0  0  0
 14  7  2  0  0  0  0
 14 13  1  0  0  0  0
 16  4  2  0  0  0  0
 16 12  1  0  0  0  0
 17 15  1  0  0  0  0
 17 19  1  0  0  0  0
 18  9  1  0  0  0  0
 20 19  1  0  0  0  0
 20 21  1  0  0  0  0
 21 22  1  1  0  0  0
 23 25  2  0  0  0  0
 24 23  1  0  0  0  0
 25 21  1  0  0  0  0
M  END
>  <MODEL>
7

>  <REMARK>
 VINA RESULT:      -8.4      2.882      6.125
  Name = 
  4 active torsions:
  status: ('A' for Active; 'I' for Inactive)
    1  A    between atoms: C_6  and  C_15
    2  A    between atoms: C_6  and  N_23
    3  A    between atoms: C_12  and  C_21
    4  A    between atoms: C_15  and  C_21
                            x       y       z     vdW  Elec       q    Type
                         _______ _______ _______ _____ _____    ______ ____

>  <TORSDO>
F 4

$$$$
=
 OpenBabel10262419503D

 25 28  0  0  1  0  0  0  0  0999 V2000
  187.1220  177.9970  145.0070 C   0  0  0  0  0  0  0  0  0  0  0  0
  188.0000  177.7330  144.0370 C   0  0  0  0  0  0  0  0  0  0  0  0
  188.7310  177.3880  146.8250 C   0  0  0  0  0  2  0  0  0  0  0  0
  185.8240  178.4400  144.9330 C   0  0  0  0  0  0  0  0  0  0  0  0
  183.7170  179.1590  144.9870 N   0  0  0  0  0  0  0  0  0  0  0  0
  189.6940  177.1100  145.6910 C   0  0  0  0  0  3  0  0  0  0  0  0
  185.3850  178.5460  146.1780 C   0  0  0  0  0  0  0  0  0  0  0  0
  184.0460  179.0040  146.2150 N   0  0  0  0  0  0  0  0  0  0  0  0
  190.3030  176.9950  143.3010 C   0  0  0  0  0  0  0  0  0  0  0  0
  191.6920  176.5350  143.5880 C   0  0  0  0  0  1  0  0  0  0  0  0
  187.6830  177.8850  142.6570 N   0  0  0  0  0  2  0  0  0  0  0  0
  184.8290  178.8650  142.6570 C   0  0  0  0  0  1  0  0  0  0  0  0
  187.4340  177.8470  146.3230 N   0  0  0  0  0  0  0  0  0  0  0  0
  186.3570  178.1860  147.0870 C   0  0  0  0  0  3  0  0  0  0  0  0
  189.9430  177.1540  142.0610 N   0  0  0  0  0  0  0  0  0  0  0  0
  184.8330  178.8060  144.1440 C   0  0  0  0  0  0  0  0  0  0  0  0
  188.6530  177.5820  141.6880 N   0  0  0  0  0  0  0  0  0  0  0  0
  189.3520  177.2680  144.4000 C   0  0  0  0  0  0  0  0  0  0  0  0
  188.3450  177.7830  140.2850 C   0  0  0  0  0  2  0  0  0  0  0  0
  189.6380  177.8770  139.4830 C   0  0  0  0  0  2  0  0  0  0  0  0
  189.4110  177.6910  137.9810 C   0  0  2  0  0  3  0  0  0  0  0  0
  189.0550  179.0060  137.3110 C   0  0  0  0  0  1  0  0  0  0  0  0
  187.3280  176.9500  136.9160 C   0  0  0  0  0  3  0  0  0  0  0  0
  186.3690  175.9800  136.6550 O   0  0  0  0  0  1  0  0  0  0  0  0
  188.3680  176.6620  137.6870 C   0  0  0  0  0  3  0  0  0  0  0  0
  1 13  1  0  0  0  0
  2 18  1  0  0  0  0
  2  1  2  0  0  0  0
  4  1  1  0  0  0  0
  4  7  1  0  0  0  0
  5  8  2  0  0  0  0
  6  3  1  0  0  0  0
  7  8  1  0  0  0  0
  7 14  2  0  0  0  0
  9 10  1  0  0  0  0
  9 18  1  0  0  0  0
 11  2  1  0  0  0  0
 12 16  1  0  0  0  0
 13  3  1  0  0  0  0
 13 14  1  0  0  0  0
 15  9  2  0  0  0  0
 16  4  2  0  0  0  0
 16  5  1  0  0  0  0
 17 15  1  0  0  0  0
 17 11  1  0  0  0  0
 18  6  2  0  0  0  0
 19 17  1  0  0  0  0
 20 19  1  0  0  0  0
 21 22  1  1  0  0  0
 21 20  1  0  0  0  0
 23 25  2  0  0  0  0
 24 23  1  0  0  0  0
 25 21  1  0  0  0  0
M  END
>  <MODEL>
8

>  <REMARK>
 VINA RESULT:      -8.4      1.618      2.220
  Name = 
  4 active torsions:
  status: ('A' for Active; 'I' for Inactive)
    1  A    between atoms: C_6  and  C_15
    2  A    between atoms: C_6  and  N_23
    3  A    between atoms: C_12  and  C_21
    4  A    between atoms: C_15  and  C_21
                            x       y       z     vdW  Elec       q    Type
                         _______ _______ _______ _____ _____    ______ ____

>  <TORSDO>
F 4

$$$$
=
 OpenBabel10262419503D

 25 28  0  0  1  0  0  0  0  0999 V2000
  189.2220  177.3740  145.3670 C   0  0  0  0  0  0  0  0  0  0  0  0
  188.9770  177.4870  144.0600 C   0  0  0  0  0  0  0  0  0  0  0  0
  191.5550  176.5450  145.0030 C   0  0  0  0  0  2  0  0  0  0  0  0
  188.4170  177.6430  146.4480 C   0  0  0  0  0  0  0  0  0  0  0  0
  187.2470  178.0350  148.3020 N   0  0  0  0  0  0  0  0  0  0  0  0
  191.2320  176.6970  143.5320 C   0  0  0  0  0  3  0  0  0  0  0  0
  189.1280  177.3680  147.5310 C   0  0  0  0  0  0  0  0  0  0  0  0
  188.3870  177.6160  148.7110 N   0  0  0  0  0  0  0  0  0  0  0  0
  189.7350  177.2790  141.6580 C   0  0  0  0  0  0  0  0  0  0  0  0
  190.7590  176.9520  140.6240 C   0  0  0  0  0  1  0  0  0  0  0  0
  187.7260  177.9420  143.5540 N   0  0  0  0  0  2  0  0  0  0  0  0
  186.0850  178.4970  146.0240 C   0  0  0  0  0  1  0  0  0  0  0  0
  190.4200  176.9380  145.8410 N   0  0  0  0  0  0  0  0  0  0  0  0
  190.3910  176.9220  147.2040 C   0  0  0  0  0  3  0  0  0  0  0  0
  188.5670  177.6990  141.2670 N   0  0  0  0  0  0  0  0  0  0  0  0
  187.2370  178.0620  146.8590 C   0  0  0  0  0  0  0  0  0  0  0  0
  187.5340  178.0300  142.1650 N   0  0  0  0  0  0  0  0  0  0  0  0
  190.0360  177.1320  143.0980 C   0  0  0  0  0  0  0  0  0  0  0  0
  186.2760  178.5390  141.6520 C   0  0  0  0  0  2  0  0  0  0  0  0
  185.1300  178.0740  142.5440 C   0  0  0  0  0  2  0  0  0  0  0  0
  183.8260  178.8240  142.2630 C   0  0  2  0  0  3  0  0  0  0  0  0
  182.9630  178.9110  143.5100 C   0  0  0  0  0  1  0  0  0  0  0  0
  182.5680  178.9690  140.1610 C   0  0  0  0  0  3  0  0  0  0  0  0
  181.8510  178.3840  139.1260 O   0  0  0  0  0  1  0  0  0  0  0  0
  183.0510  178.2150  141.1400 C   0  0  0  0  0  3  0  0  0  0  0  0
  1 13  1  0  0  0  0
  1  4  1  0  0  0  0
  2  1  2  0  0  0  0
  3 13  1  0  0  0  0
  4 16  2  0  0  0  0
  4  7  1  0  0  0  0
  5  8  2  0  0  0  0
  6  3  1  0  0  0  0
  7  8  1  0  0  0  0
  9 18  1  0  0  0  0
 10  9  1  0  0  0  0
 11  2  1  0  0  0  0
 12 16  1  0  0  0  0
 13 14  1  0  0  0  0
 14  7  2  0  0  0  0
 15  9  2  0  0  0  0
 15 17  1  0  0  0  0
 16  5  1  0  0  0  0
 17 11  1  0  0  0  0
 18  6  2  0  0  0  0
 18  2  1  0  0  0  0
 19 17  1  0  0  0  0
 19 20  1  0  0  0  0
 21 20  1  0  0  0  0
 21 22  1  1  0  0  0
 23 25  2  0  0  0  0
 24 23  1  0  0  0  0
 25 21  1  0  0  0  0
M  END
>  <MODEL>
9

>  <REMARK>
 VINA RESULT:      -8.4      2.331      4.946
  Name = 
  4 active torsions:
  status: ('A' for Active; 'I' for Inactive)
    1  A    between atoms: C_6  and  C_15
    2  A    between atoms: C_6  and  N_23
    3  A    between atoms: C_12  and  C_21
    4  A    between atoms: C_15  and  C_21
                            x       y       z     vdW  Elec       q    Type
                         _______ _______ _______ _____ _____    ______ ____

>  <TORSDO>
F 4

$$$$
