=
 OpenBabel10262422003D

 30 34  0  0  1  0  0  0  0  0999 V2000
  182.1700  178.7530  142.2960 C   0  0  0  0  0  0  0  0  0  0  0  0
  179.2840  177.3350  140.2840 C   0  0  0  0  0  2  0  0  0  0  0  0
  182.2370  179.6710  139.2810 N   0  0  0  0  0  2  0  0  0  0  0  0
  183.5550  178.6250  141.9860 C   0  0  0  0  0  0  0  0  0  0  0  0
  181.7640  178.9850  143.6110 C   0  0  0  0  0  3  0  0  0  0  0  0
  188.0260  177.2700  143.0210 C   0  0  0  0  0  2  0  0  0  0  0  0
  184.0610  179.0270  144.3620 C   0  0  0  0  0  0  0  0  0  0  0  0
  185.5390  178.1060  140.4360 C   0  0  0  0  0  2  0  0  0  0  0  0
  184.4790  180.1830  139.0540 O   0  0  0  0  0  0  0  0  0  0  0  0
  182.6940  179.1130  144.6330 C   0  0  0  0  0  3  0  0  0  0  0  0
  184.4980  178.7920  143.0450 C   0  0  0  0  0  0  0  0  0  0  0  0
  179.0540  177.9700  138.9460 C   0  0  0  0  0  3  0  0  0  0  0  0
  186.3350  179.0210  141.3510 C   0  0  2  0  0  3  0  0  0  0  0  0
  188.3550  177.5050  141.5520 C   0  0  0  0  0  2  0  0  0  0  0  0
  180.7420  177.3820  140.6970 C   0  0  0  0  0  2  0  0  0  0  0  0
  181.1840  179.8840  140.2660 C   0  0  2  0  0  3  0  0  0  0  0  0
  179.2840  179.2230  138.6840 N   0  0  0  0  0  0  0  0  0  0  0  0
  181.0660  178.7500  141.2800 C   0  0  2  0  0  3  0  0  0  0  0  0
  183.4330  177.1610  140.1040 O   0  0  0  0  0  1  0  0  0  0  0  0
  183.6100  179.4630  139.6160 C   0  0  0  0  0  0  0  0  0  0  0  0
  184.0230  178.3430  140.5490 C   0  0  1  0  0  0  0  0  0  0  0  0
  187.8390  178.8740  141.1050 C   0  0  0  0  0  2  0  0  0  0  0  0
  186.5180  177.3340  143.2340 C   0  0  0  0  0  2  0  0  0  0  0  0
  179.8870  180.1710  139.5730 C   0  0  0  0  0  0  0  0  0  0  0  0
  179.3910  181.3240  139.6700 O   0  0  0  0  0  0  0  0  0  0  0  0
  185.9820  178.7050  142.8050 C   0  0  2  0  0  3  0  0  0  0  0  0
  185.0040  179.1780  145.3890 O   0  0  0  0  0  0  0  0  0  0  0  0
  185.0360  178.3580  146.5520 C   0  0  0  0  0  2  0  0  0  0  0  0
  186.3440  178.5570  147.2950 C   0  0  0  0  0  2  0  0  0  0  0  0
  187.3950  177.6310  146.7210 C   0  0  0  0  0  1  0  0  0  0  0  0
  1  5  1  0  0  0  0
  2 15  1  0  0  0  0
  3 20  1  0  0  0  0
  4  1  2  0  0  0  0
  4 11  1  0  0  0  0
  5 10  2  0  0  0  0
  6 23  1  0  0  0  0
  7 10  1  0  0  0  0
  7 27  1  0  0  0  0
  8 21  1  0  0  0  0
  9 20  2  0  0  0  0
 11  7  2  0  0  0  0
 12  2  1  0  0  0  0
 13  8  1  6  0  0  0
 13 26  1  0  0  0  0
 14  6  1  0  0  0  0
 16  3  1  6  0  0  0
 16 18  1  0  0  0  0
 17 12  2  0  0  0  0
 17 24  1  0  0  0  0
 18 15  1  6  0  0  0
 18  1  1  0  0  0  0
 20 21  1  0  0  0  0
 21 19  1  6  0  0  0
 21  4  1  0  0  0  0
 22 13  1  0  0  0  0
 22 14  1  0  0  0  0
 24 25  2  0  0  0  0
 24 16  1  0  0  0  0
 26 11  1  0  0  0  0
 26 23  1  6  0  0  0
 27 28  1  0  0  0  0
 28 29  1  0  0  0  0
 30 29  1  0  0  0  0
M  END
>  <MODEL>
1

>  <REMARK>
 VINA RESULT:      -8.4      0.000      0.000
  Name = 
  3 active torsions:
  status: ('A' for Active; 'I' for Inactive)
    1  A    between atoms: O_6  and  C_8
    2  A    between atoms: O_6  and  C_21
    3  A    between atoms: C_9  and  C_21
                            x       y       z     vdW  Elec       q    Type
                         _______ _______ _______ _____ _____    ______ ____

>  <TORSDO>
F 3

$$$$
=
 OpenBabel10262422003D

 30 34  0  0  1  0  0  0  0  0999 V2000
  188.1220  177.8050  142.1580 C   0  0  0  0  0  0  0  0  0  0  0  0
  190.6960  175.2280  143.2190 C   0  0  0  0  0  2  0  0  0  0  0  0
  188.9510  178.1040  145.1850 N   0  0  0  0  0  2  0  0  0  0  0  0
  186.8620  178.0410  142.7810 C   0  0  0  0  0  0  0  0  0  0  0  0
  188.3200  178.1520  140.8220 C   0  0  0  0  0  3  0  0  0  0  0  0
  182.0850  178.3140  142.7200 C   0  0  0  0  0  2  0  0  0  0  0  0
  186.0710  179.0240  140.6670 C   0  0  0  0  0  0  0  0  0  0  0  0
  185.1580  177.8530  144.6960 C   0  0  0  0  0  2  0  0  0  0  0  0
  187.0990  179.2110  146.0140 O   0  0  0  0  0  0  0  0  0  0  0  0
  187.3080  178.7470  140.0810 C   0  0  0  0  0  3  0  0  0  0  0  0
  185.8440  178.6830  142.0130 C   0  0  0  0  0  0  0  0  0  0  0  0
  191.3800  175.4960  144.5240 C   0  0  0  0  0  3  0  0  0  0  0  0
  184.5540  179.1230  144.1200 C   0  0  2  0  0  3  0  0  0  0  0  0
  182.1440  178.3500  144.2420 C   0  0  0  0  0  2  0  0  0  0  0  0
  189.2880  175.7890  143.1840 C   0  0  0  0  0  2  0  0  0  0  0  0
  189.8030  178.1760  144.0040 C   0  0  2  0  0  3  0  0  0  0  0  0
  191.6390  176.6850  144.9830 N   0  0  0  0  0  0  0  0  0  0  0  0
  189.3360  177.2760  142.8650 C   0  0  2  0  0  3  0  0  0  0  0  0
  186.8470  176.2750  144.3870 O   0  0  0  0  0  1  0  0  0  0  0  0
  187.5500  178.3850  145.1740 C   0  0  0  0  0  0  0  0  0  0  0  0
  186.6130  177.6420  144.2450 C   0  0  1  0  0  0  0  0  0  0  0  0
  183.1660  179.3890  144.7080 C   0  0  0  0  0  2  0  0  0  0  0  0
  183.4560  177.9620  142.1520 C   0  0  0  0  0  2  0  0  0  0  0  0
  191.2290  177.9230  144.3880 C   0  0  0  0  0  0  0  0  0  0  0  0
  192.0540  178.8710  144.3100 O   0  0  0  0  0  0  0  0  0  0  0  0
  184.4920  179.0000  142.5970 C   0  0  2  0  0  3  0  0  0  0  0  0
  185.0530  179.6450  139.9280 O   0  0  0  0  0  0  0  0  0  0  0  0
  184.5260  179.1130  138.7170 C   0  0  0  0  0  2  0  0  0  0  0  0
  183.0110  179.0620  138.7860 C   0  0  0  0  0  2  0  0  0  0  0  0
  182.4570  180.4700  138.7310 C   0  0  0  0  0  1  0  0  0  0  0  0
  1  4  1  0  0  0  0
  1 18  1  0  0  0  0
  2 12  1  0  0  0  0
  4 21  1  0  0  0  0
  5  1  2  0  0  0  0
  6 14  1  0  0  0  0
  7 11  1  0  0  0  0
 10  7  2  0  0  0  0
 10  5  1  0  0  0  0
 11 26  1  0  0  0  0
 11  4  2  0  0  0  0
 12 17  2  0  0  0  0
 13  8  1  1  0  0  0
 13 22  1  0  0  0  0
 14 22  1  0  0  0  0
 15  2  1  0  0  0  0
 16 24  1  1  0  0  0
 16  3  1  0  0  0  0
 18 15  1  1  0  0  0
 18 16  1  0  0  0  0
 20  3  1  0  0  0  0
 20  9  2  0  0  0  0
 21 19  1  1  0  0  0
 21  8  1  0  0  0  0
 21 20  1  0  0  0  0
 23  6  1  0  0  0  0
 24 17  1  0  0  0  0
 25 24  2  0  0  0  0
 26 23  1  1  0  0  0
 26 13  1  0  0  0  0
 27  7  1  0  0  0  0
 28 29  1  0  0  0  0
 28 27  1  0  0  0  0
 30 29  1  0  0  0  0
M  END
>  <MODEL>
2

>  <REMARK>
 VINA RESULT:      -6.7      3.432      8.073
  Name = 
  3 active torsions:
  status: ('A' for Active; 'I' for Inactive)
    1  A    between atoms: O_6  and  C_8
    2  A    between atoms: O_6  and  C_21
    3  A    between atoms: C_9  and  C_21
                            x       y       z     vdW  Elec       q    Type
                         _______ _______ _______ _____ _____    ______ ____

>  <TORSDO>
F 3

$$$$
=
 OpenBabel10262422003D

 30 34  0  0  1  0  0  0  0  0999 V2000
  192.3770  176.2170  138.1940 C   0  0  0  0  0  0  0  0  0  0  0  0
  195.3690  175.9000  135.8840 C   0  0  0  0  0  2  0  0  0  0  0  0
  192.2450  173.6290  136.3980 N   0  0  0  0  0  2  0  0  0  0  0  0
  191.0060  176.2060  137.8010 C   0  0  0  0  0  0  0  0  0  0  0  0
  192.7600  176.8280  139.3870 C   0  0  0  0  0  3  0  0  0  0  0  0
  186.6520  178.1740  137.5460 C   0  0  0  0  0  2  0  0  0  0  0  0
  190.4650  177.3990  139.8850 C   0  0  0  0  0  0  0  0  0  0  0  0
  189.0730  175.7660  136.1660 C   0  0  0  0  0  2  0  0  0  0  0  0
  189.9700  173.2210  136.4240 O   0  0  0  0  0  0  0  0  0  0  0  0
  191.8200  177.4190  140.2210 C   0  0  0  0  0  3  0  0  0  0  0  0
  190.0500  176.7900  138.6870 C   0  0  0  0  0  0  0  0  0  0  0  0
  195.5520  174.5590  135.2420 C   0  0  0  0  0  3  0  0  0  0  0  0
  188.2050  175.6680  137.4090 C   0  0  2  0  0  3  0  0  0  0  0  0
  186.3090  177.0960  136.5250 C   0  0  0  0  0  2  0  0  0  0  0  0
  193.9110  176.2070  136.1630 C   0  0  0  0  0  2  0  0  0  0  0  0
  193.2760  174.0120  137.3540 C   0  0  2  0  0  3  0  0  0  0  0  0
  195.2260  173.4310  135.8010 N   0  0  0  0  0  0  0  0  0  0  0  0
  193.4800  175.5210  137.4510 C   0  0  2  0  0  3  0  0  0  0  0  0
  191.2460  176.1720  135.4260 O   0  0  0  0  0  1  0  0  0  0  0  0
  190.8920  174.0810  136.4620 C   0  0  0  0  0  0  0  0  0  0  0  0
  190.5650  175.5600  136.4770 C   0  0  1  0  0  0  0  0  0  0  0  0
  186.7180  175.7190  137.0490 C   0  0  0  0  0  2  0  0  0  0  0  0
  188.1500  178.1670  137.8290 C   0  0  0  0  0  2  0  0  0  0  0  0
  194.5480  173.2790  137.0550 C   0  0  0  0  0  0  0  0  0  0  0  0
  194.9520  172.4100  137.8710 O   0  0  0  0  0  0  0  0  0  0  0  0
  188.5780  176.7970  138.3700 C   0  0  2  0  0  3  0  0  0  0  0  0
  189.5100  177.9760  140.7350 O   0  0  0  0  0  0  0  0  0  0  0  0
  189.5250  177.8250  142.1510 C   0  0  0  0  0  2  0  0  0  0  0  0
  189.1330  176.4080  142.5280 C   0  0  0  0  0  2  0  0  0  0  0  0
  187.9260  176.4460  143.4420 C   0  0  0  0  0  1  0  0  0  0  0  0
  1  5  1  0  0  0  0
  2 15  1  0  0  0  0
  3 20  1  0  0  0  0
  4  1  2  0  0  0  0
  4 11  1  0  0  0  0
  5 10  2  0  0  0  0
  6 23  1  0  0  0  0
  7 10  1  0  0  0  0
  7 27  1  0  0  0  0
  8 21  1  0  0  0  0
  9 20  2  0  0  0  0
 11  7  2  0  0  0  0
 12 17  2  0  0  0  0
 12  2  1  0  0  0  0
 13  8  1  6  0  0  0
 13 26  1  0  0  0  0
 14 22  1  0  0  0  0
 14  6  1  0  0  0  0
 16  3  1  6  0  0  0
 16 18  1  0  0  0  0
 17 24  1  0  0  0  0
 18 15  1  6  0  0  0
 18  1  1  0  0  0  0
 20 21  1  0  0  0  0
 21 19  1  6  0  0  0
 21  4  1  0  0  0  0
 22 13  1  0  0  0  0
 24 16  1  0  0  0  0
 24 25  2  0  0  0  0
 26 23  1  6  0  0  0
 26 11  1  0  0  0  0
 27 28  1  0  0  0  0
 28 29  1  0  0  0  0
 29 30  1  0  0  0  0
M  END
>  <MODEL>
3

>  <REMARK>
 VINA RESULT:      -6.6      6.930     10.688
  Name = 
  3 active torsions:
  status: ('A' for Active; 'I' for Inactive)
    1  A    between atoms: O_6  and  C_8
    2  A    between atoms: O_6  and  C_21
    3  A    between atoms: C_9  and  C_21
                            x       y       z     vdW  Elec       q    Type
                         _______ _______ _______ _____ _____    ______ ____

>  <TORSDO>
F 3

$$$$
=
 OpenBabel10262422003D

 30 34  0  0  1  0  0  0  0  0999 V2000
  187.7340  177.5330  138.3930 C   0  0  0  0  0  0  0  0  0  0  0  0
  190.1400  177.1510  135.4850 C   0  0  0  0  0  2  0  0  0  0  0  0
  186.9890  175.1060  136.5230 N   0  0  0  0  0  2  0  0  0  0  0  0
  186.3170  177.6620  138.3010 C   0  0  0  0  0  0  0  0  0  0  0  0
  188.4120  178.0200  139.5100 C   0  0  0  0  0  3  0  0  0  0  0  0
  182.2110  179.9870  139.0920 C   0  0  0  0  0  2  0  0  0  0  0  0
  186.3350  178.7350  140.5170 C   0  0  0  0  0  0  0  0  0  0  0  0
  184.0550  177.5030  137.0930 C   0  0  0  0  0  2  0  0  0  0  0  0
  184.7410  174.8820  137.0100 O   0  0  0  0  0  0  0  0  0  0  0  0
  187.7260  178.6200  140.5570 C   0  0  0  0  0  3  0  0  0  0  0  0
  185.6250  178.2530  139.4020 C   0  0  0  0  0  0  0  0  0  0  0  0
  190.0590  175.8510  134.7440 C   0  0  0  0  0  3  0  0  0  0  0  0
  183.4580  177.3820  138.4850 C   0  0  2  0  0  3  0  0  0  0  0  0
  181.5640  179.0210  138.1070 C   0  0  0  0  0  2  0  0  0  0  0  0
  188.8070  177.5520  136.0850 C   0  0  0  0  0  2  0  0  0  0  0  0
  188.2280  175.3320  137.2580 C   0  0  2  0  0  3  0  0  0  0  0  0
  189.7490  174.7140  135.2950 N   0  0  0  0  0  0  0  0  0  0  0  0
  188.5890  176.8080  137.3950 C   0  0  2  0  0  3  0  0  0  0  0  0
  186.0560  177.7870  135.9320 O   0  0  0  0  0  1  0  0  0  0  0  0
  185.7280  175.6600  136.8990 C   0  0  0  0  0  0  0  0  0  0  0  0
  185.5530  177.1550  137.0680 C   0  0  1  0  0  0  0  0  0  0  0  0
  181.9400  177.5790  138.4540 C   0  0  0  0  0  2  0  0  0  0  0  0
  183.7270  179.8390  139.0480 C   0  0  0  0  0  2  0  0  0  0  0  0
  189.3350  174.5240  136.6540 C   0  0  0  0  0  0  0  0  0  0  0  0
  189.8150  173.5660  137.3140 O   0  0  0  0  0  0  0  0  0  0  0  0
  184.1270  178.4030  139.4070 C   0  0  2  0  0  3  0  0  0  0  0  0
  185.6350  179.3220  141.5820 O   0  0  0  0  0  0  0  0  0  0  0  0
  185.4220  178.6750  142.8330 C   0  0  0  0  0  2  0  0  0  0  0  0
  183.9390  178.6270  143.1490 C   0  0  0  0  0  2  0  0  0  0  0  0
  183.7210  179.0040  144.5990 C   0  0  0  0  0  1  0  0  0  0  0  0
  1  5  1  0  0  0  0
  2 15  1  0  0  0  0
  3 20  1  0  0  0  0
  4  1  2  0  0  0  0
  4 11  1  0  0  0  0
  5 10  2  0  0  0  0
  7 10  1  0  0  0  0
  7 27  1  0  0  0  0
 11 26  1  0  0  0  0
 11  7  2  0  0  0  0
 12 17  2  0  0  0  0
 12  2  1  0  0  0  0
 13  8  1  6  0  0  0
 13 26  1  0  0  0  0
 14 22  1  0  0  0  0
 14  6  1  0  0  0  0
 16  3  1  6  0  0  0
 16 18  1  0  0  0  0
 17 24  1  0  0  0  0
 18 15  1  6  0  0  0
 18  1  1  0  0  0  0
 20  9  2  0  0  0  0
 20 21  1  0  0  0  0
 21 19  1  6  0  0  0
 21  8  1  0  0  0  0
 21  4  1  0  0  0  0
 22 13  1  0  0  0  0
 23  6  1  0  0  0  0
 24 16  1  0  0  0  0
 24 25  2  0  0  0  0
 26 23  1  6  0  0  0
 27 28  1  0  0  0  0
 28 29  1  0  0  0  0
 29 30  1  0  0  0  0
M  END
>  <MODEL>
4

>  <REMARK>
 VINA RESULT:      -6.3      4.207      7.398
  Name = 
  3 active torsions:
  status: ('A' for Active; 'I' for Inactive)
    1  A    between atoms: O_6  and  C_8
    2  A    between atoms: O_6  and  C_21
    3  A    between atoms: C_9  and  C_21
                            x       y       z     vdW  Elec       q    Type
                         _______ _______ _______ _____ _____    ______ ____

>  <TORSDO>
F 3

$$$$
=
 OpenBabel10262422003D

 30 34  0  0  1  0  0  0  0  0999 V2000
  187.4160  177.9250  139.2120 C   0  0  0  0  0  0  0  0  0  0  0  0
  187.6070  178.9550  135.5660 C   0  0  0  0  0  2  0  0  0  0  0  0
  184.9500  176.8970  137.5380 N   0  0  0  0  0  2  0  0  0  0  0  0
  186.3340  178.1820  140.1030 C   0  0  0  0  0  0  0  0  0  0  0  0
  188.7000  177.7050  139.7120 C   0  0  0  0  0  3  0  0  0  0  0  0
  184.4900  180.0300  144.1130 C   0  0  0  0  0  2  0  0  0  0  0  0
  187.9050  177.9300  141.9830 C   0  0  0  0  0  0  0  0  0  0  0  0
  183.9170  178.8390  140.6760 C   0  0  0  0  0  2  0  0  0  0  0  0
  183.3950  176.6100  139.2240 O   0  0  0  0  0  0  0  0  0  0  0  0
  188.9460  177.7150  141.0780 C   0  0  0  0  0  3  0  0  0  0  0  0
  186.6000  178.1550  141.5060 C   0  0  0  0  0  0  0  0  0  0  0  0
  186.6640  178.2460  134.6430 C   0  0  0  0  0  3  0  0  0  0  0  0
  184.1340  178.0490  141.9550 C   0  0  2  0  0  3  0  0  0  0  0  0
  183.1160  179.7720  143.5090 C   0  0  0  0  0  2  0  0  0  0  0  0
  187.0510  179.0750  136.9710 C   0  0  0  0  0  2  0  0  0  0  0  0
  186.3650  176.6170  137.3260 C   0  0  2  0  0  3  0  0  0  0  0  0
  186.2770  177.0140  134.7990 N   0  0  0  0  0  0  0  0  0  0  0  0
  187.2770  177.7730  137.7250 C   0  0  2  0  0  3  0  0  0  0  0  0
  184.9560  179.5490  138.7130 O   0  0  0  0  0  1  0  0  0  0  0  0
  184.3910  177.2590  138.8020 C   0  0  0  0  0  0  0  0  0  0  0  0
  184.9170  178.4520  139.5730 C   0  0  1  0  0  0  0  0  0  0  0  0
  183.0310  178.3400  142.9770 C   0  0  0  0  0  2  0  0  0  0  0  0
  185.5710  179.8200  143.0590 C   0  0  0  0  0  2  0  0  0  0  0  0
  186.5900  176.1700  135.9140 C   0  0  0  0  0  0  0  0  0  0  0  0
  186.9330  174.9770  135.7040 O   0  0  0  0  0  0  0  0  0  0  0  0
  185.5130  178.3850  142.5230 C   0  0  2  0  0  3  0  0  0  0  0  0
  188.1450  177.9190  143.3650 O   0  0  0  0  0  0  0  0  0  0  0  0
  188.8280  176.8650  144.0350 C   0  0  0  0  0  2  0  0  0  0  0  0
  188.7780  177.0810  145.5360 C   0  0  0  0  0  2  0  0  0  0  0  0
  187.4750  177.7610  145.9030 C   0  0  0  0  0  1  0  0  0  0  0  0
  1  5  2  0  0  0  0
  1  4  1  0  0  0  0
  2 15  1  0  0  0  0
  3 20  1  0  0  0  0
  4 11  2  0  0  0  0
  5 10  1  0  0  0  0
  7 27  1  0  0  0  0
 10  7  2  0  0  0  0
 11  7  1  0  0  0  0
 11 26  1  0  0  0  0
 12 17  2  0  0  0  0
 12  2  1  0  0  0  0
 13  8  1  6  0  0  0
 13 26  1  0  0  0  0
 13 22  1  0  0  0  0
 14  6  1  0  0  0  0
 16 24  1  6  0  0  0
 16  3  1  0  0  0  0
 16 18  1  0  0  0  0
 17 24  1  0  0  0  0
 18 15  1  1  0  0  0
 18  1  1  0  0  0  0
 20  9  2  0  0  0  0
 20 21  1  0  0  0  0
 21 19  1  6  0  0  0
 21  4  1  0  0  0  0
 21  8  1  0  0  0  0
 22 14  1  0  0  0  0
 23  6  1  0  0  0  0
 25 24  2  0  0  0  0
 26 23  1  6  0  0  0
 27 28  1  0  0  0  0
 28 29  1  0  0  0  0
 29 30  1  0  0  0  0
M  END
>  <MODEL>
5

>  <REMARK>
 VINA RESULT:      -5.7      3.014      5.716
  Name = 
  3 active torsions:
  status: ('A' for Active; 'I' for Inactive)
    1  A    between atoms: O_6  and  C_8
    2  A    between atoms: O_6  and  C_21
    3  A    between atoms: C_9  and  C_21
                            x       y       z     vdW  Elec       q    Type
                         _______ _______ _______ _____ _____    ______ ____

>  <TORSDO>
F 3

$$$$
=
 OpenBabel10262422003D

 30 34  0  0  1  0  0  0  0  0999 V2000
  182.7100  177.9650  138.0160 C   0  0  0  0  0  0  0  0  0  0  0  0
  180.1100  180.5360  139.0250 C   0  0  0  0  0  2  0  0  0  0  0  0
  182.8440  178.6740  141.0840 N   0  0  0  0  0  2  0  0  0  0  0  0
  184.1160  178.0610  138.2290 C   0  0  0  0  0  0  0  0  0  0  0  0
  182.2090  177.1590  136.9930 C   0  0  0  0  0  3  0  0  0  0  0  0
  188.6440  178.1640  136.6830 C   0  0  0  0  0  2  0  0  0  0  0  0
  184.4430  176.4690  136.3800 C   0  0  0  0  0  0  0  0  0  0  0  0
  186.2270  179.0390  139.3210 C   0  0  0  0  0  2  0  0  0  0  0  0
  185.0270  178.0760  141.5530 O   0  0  0  0  0  0  0  0  0  0  0  0
  183.0620  176.4250  136.1800 C   0  0  0  0  0  3  0  0  0  0  0  0
  184.9750  177.2740  137.4040 C   0  0  0  0  0  0  0  0  0  0  0  0
  179.8870  180.6870  140.4990 C   0  0  0  0  0  3  0  0  0  0  0  0
  186.8670  177.7010  138.9950 C   0  0  2  0  0  3  0  0  0  0  0  0
  189.0260  178.6560  138.0740 C   0  0  0  0  0  2  0  0  0  0  0  0
  181.5290  180.1120  138.7010 C   0  0  0  0  0  2  0  0  0  0  0  0
  181.7210  178.1280  140.3330 C   0  0  2  0  0  3  0  0  0  0  0  0
  179.9940  179.7150  141.3570 N   0  0  0  0  0  0  0  0  0  0  0  0
  181.6700  178.6090  138.8860 C   0  0  2  0  0  3  0  0  0  0  0  0
  184.2580  180.2720  139.1200 O   0  0  0  0  0  1  0  0  0  0  0  0
  184.2110  178.5190  140.6990 C   0  0  0  0  0  0  0  0  0  0  0  0
  184.6910  178.9640  139.3330 C   0  0  1  0  0  0  0  0  0  0  0  0
  188.3900  177.7680  139.1440 C   0  0  0  0  0  2  0  0  0  0  0  0
  187.1280  178.1860  136.5210 C   0  0  0  0  0  2  0  0  0  0  0  0
  180.4410  178.3850  141.0680 C   0  0  0  0  0  0  0  0  0  0  0  0
  179.8190  177.4070  141.5600 O   0  0  0  0  0  0  0  0  0  0  0  0
  186.4710  177.2890  137.5770 C   0  0  2  0  0  3  0  0  0  0  0  0
  185.3070  175.7120  135.5740 O   0  0  0  0  0  0  0  0  0  0  0  0
  185.3390  174.2890  135.5780 C   0  0  0  0  0  2  0  0  0  0  0  0
  186.0360  173.7860  136.8290 C   0  0  0  0  0  2  0  0  0  0  0  0
  185.0350  173.0660  137.7080 C   0  0  0  0  0  1  0  0  0  0  0  0
  1  4  1  0  0  0  0
  1 18  1  0  0  0  0
  2 12  1  0  0  0  0
  4 21  1  0  0  0  0
  5  1  2  0  0  0  0
  6 14  1  0  0  0  0
  7 11  1  0  0  0  0
  8 21  1  0  0  0  0
 10  7  2  0  0  0  0
 10  5  1  0  0  0  0
 11 26  1  0  0  0  0
 11  4  2  0  0  0  0
 12 17  2  0  0  0  0
 13 22  1  6  0  0  0
 13  8  1  0  0  0  0
 14 22  1  0  0  0  0
 15  2  1  0  0  0  0
 16 24  1  1  0  0  0
 16  3  1  0  0  0  0
 18 15  1  1  0  0  0
 18 16  1  0  0  0  0
 20  3  1  0  0  0  0
 20  9  2  0  0  0  0
 21 19  1  6  0  0  0
 21 20  1  0  0  0  0
 23  6  1  0  0  0  0
 24 17  1  0  0  0  0
 24 25  2  0  0  0  0
 26 23  1  6  0  0  0
 26 13  1  0  0  0  0
 27 28  1  0  0  0  0
 27  7  1  0  0  0  0
 28 29  1  0  0  0  0
 29 30  1  0  0  0  0
M  END
>  <MODEL>
6

>  <REMARK>
 VINA RESULT:      -5.6      3.271      5.790
  Name = 
  3 active torsions:
  status: ('A' for Active; 'I' for Inactive)
    1  A    between atoms: O_6  and  C_8
    2  A    between atoms: O_6  and  C_21
    3  A    between atoms: C_9  and  C_21
                            x       y       z     vdW  Elec       q    Type
                         _______ _______ _______ _____ _____    ______ ____

>  <TORSDO>
F 3

$$$$
=
 OpenBabel10262422003D

 30 34  0  0  1  0  0  0  0  0999 V2000
  187.4080  177.5010  138.5360 C   0  0  0  0  0  0  0  0  0  0  0  0
  187.8020  174.9350  135.7710 C   0  0  0  0  0  2  0  0  0  0  0  0
  190.4040  177.1800  137.6080 N   0  0  0  0  0  2  0  0  0  0  0  0
  188.1000  177.5080  139.7830 C   0  0  0  0  0  0  0  0  0  0  0  0
  186.1790  178.1480  138.4130 C   0  0  0  0  0  3  0  0  0  0  0  0
  188.2230  177.4630  144.5660 C   0  0  0  0  0  2  0  0  0  0  0  0
  186.2790  178.8780  140.7150 C   0  0  0  0  0  0  0  0  0  0  0  0
  189.9680  176.7870  141.3940 C   0  0  0  0  0  2  0  0  0  0  0  0
  191.5060  177.9490  139.4880 O   0  0  0  0  0  0  0  0  0  0  0  0
  185.6150  178.8220  139.4880 C   0  0  0  0  0  3  0  0  0  0  0  0
  187.5210  178.2340  140.8680 C   0  0  0  0  0  0  0  0  0  0  0  0
  189.1170  174.9540  135.0530 C   0  0  0  0  0  3  0  0  0  0  0  0
  189.7050  178.1080  142.0960 C   0  0  2  0  0  3  0  0  0  0  0  0
  189.7120  177.1660  144.4490 C   0  0  0  0  0  2  0  0  0  0  0  0
  187.9290  175.3920  137.2110 C   0  0  0  0  0  2  0  0  0  0  0  0
  189.2480  177.5690  136.8090 C   0  0  2  0  0  3  0  0  0  0  0  0
  189.8220  176.0270  134.8490 N   0  0  0  0  0  0  0  0  0  0  0  0
  187.9490  176.9130  137.2660 C   0  0  2  0  0  3  0  0  0  0  0  0
  189.2720  175.4340  139.6280 O   0  0  0  0  0  1  0  0  0  0  0  0
  190.4920  177.3610  139.0220 C   0  0  0  0  0  0  0  0  0  0  0  0
  189.4440  176.7790  139.9480 C   0  0  1  0  0  0  0  0  0  0  0  0
  190.3730  178.1430  143.4740 C   0  0  0  0  0  2  0  0  0  0  0  0
  187.5560  177.3400  143.2010 C   0  0  0  0  0  2  0  0  0  0  0  0
  189.5290  177.3350  135.3560 C   0  0  0  0  0  0  0  0  0  0  0  0
  189.6440  178.3300  134.5940 O   0  0  0  0  0  0  0  0  0  0  0  0
  188.1950  178.3220  142.2120 C   0  0  2  0  0  3  0  0  0  0  0  0
  185.7230  179.5760  141.7970 O   0  0  0  0  0  0  0  0  0  0  0  0
  184.5570  179.1480  142.4930 C   0  0  0  0  0  2  0  0  0  0  0  0
  184.6500  179.5350  143.9570 C   0  0  0  0  0  2  0  0  0  0  0  0
  183.5230  178.8770  144.7240 C   0  0  0  0  0  1  0  0  0  0  0  0
  1  4  1  0  0  0  0
  2 15  1  0  0  0  0
  3 20  1  0  0  0  0
  4 21  1  0  0  0  0
  4 11  2  0  0  0  0
  5  1  2  0  0  0  0
  5 10  1  0  0  0  0
  7 11  1  0  0  0  0
  7 27  1  0  0  0  0
 10  7  2  0  0  0  0
 11 26  1  0  0  0  0
 12  2  1  0  0  0  0
 13  8  1  1  0  0  0
 13 26  1  0  0  0  0
 13 22  1  0  0  0  0
 14  6  1  0  0  0  0
 16 24  1  6  0  0  0
 16 18  1  0  0  0  0
 16  3  1  0  0  0  0
 17 12  2  0  0  0  0
 17 24  1  0  0  0  0
 18 15  1  1  0  0  0
 18  1  1  0  0  0  0
 20  9  2  0  0  0  0
 20 21  1  0  0  0  0
 21 19  1  6  0  0  0
 21  8  1  0  0  0  0
 22 14  1  0  0  0  0
 23  6  1  0  0  0  0
 25 24  2  0  0  0  0
 26 23  1  1  0  0  0
 27 28  1  0  0  0  0
 28 29  1  0  0  0  0
 29 30  1  0  0  0  0
M  END
>  <MODEL>
7

>  <REMARK>
 VINA RESULT:      -5.6      4.321      6.845
  Name = 
  3 active torsions:
  status: ('A' for Active; 'I' for Inactive)
    1  A    between atoms: O_6  and  C_8
    2  A    between atoms: O_6  and  C_21
    3  A    between atoms: C_9  and  C_21
                            x       y       z     vdW  Elec       q    Type
                         _______ _______ _______ _____ _____    ______ ____

>  <TORSDO>
F 3

$$$$
=
 OpenBabel10262422003D

 30 34  0  0  1  0  0  0  0  0999 V2000
  181.4550  177.4290  139.3440 C   0  0  0  0  0  0  0  0  0  0  0  0
  179.0580  180.1410  140.4790 C   0  0  0  0  0  2  0  0  0  0  0  0
  182.7030  179.2890  141.5630 N   0  0  0  0  0  2  0  0  0  0  0  0
  182.7760  177.6280  138.8460 C   0  0  0  0  0  0  0  0  0  0  0  0
  180.7450  176.2770  139.0070 C   0  0  0  0  0  3  0  0  0  0  0  0
  186.1480  177.2010  135.4780 C   0  0  0  0  0  2  0  0  0  0  0  0
  182.6140  175.4440  137.7210 C   0  0  0  0  0  0  0  0  0  0  0  0
  184.9150  178.9960  138.4480 C   0  0  0  0  0  2  0  0  0  0  0  0
  184.9550  178.9650  141.1580 O   0  0  0  0  0  0  0  0  0  0  0  0
  181.3100  175.2990  138.2000 C   0  0  0  0  0  3  0  0  0  0  0  0
  183.3540  176.5970  138.0450 C   0  0  0  0  0  0  0  0  0  0  0  0
  179.4380  180.8540  141.7410 C   0  0  0  0  0  3  0  0  0  0  0  0
  185.6110  177.6490  138.3450 C   0  0  2  0  0  3  0  0  0  0  0  0
  186.9660  178.2060  136.2780 C   0  0  0  0  0  2  0  0  0  0  0  0
  180.2700  179.6510  139.7110 C   0  0  0  0  0  2  0  0  0  0  0  0
  181.4990  178.4700  141.6430 C   0  0  2  0  0  3  0  0  0  0  0  0
  180.0760  180.3000  142.7290 N   0  0  0  0  0  0  0  0  0  0  0  0
  180.7640  178.3430  140.3120 C   0  0  2  0  0  3  0  0  0  0  0  0
  182.8400  180.0130  138.7580 O   0  0  0  0  0  1  0  0  0  0  0  0
  183.7900  179.0210  140.6770 C   0  0  0  0  0  0  0  0  0  0  0  0
  183.5670  178.9030  139.1830 C   0  0  1  0  0  0  0  0  0  0  0  0
  187.0150  177.7980  137.7520 C   0  0  0  0  0  2  0  0  0  0  0  0
  184.7280  177.1290  136.0270 C   0  0  0  0  0  2  0  0  0  0  0  0
  180.6130  178.9710  142.7420 C   0  0  0  0  0  0  0  0  0  0  0  0
  180.4520  178.2540  143.7640 O   0  0  0  0  0  0  0  0  0  0  0  0
  184.7540  176.7060  137.5010 C   0  0  2  0  0  3  0  0  0  0  0  0
  183.1970  174.4480  136.9240 O   0  0  0  0  0  0  0  0  0  0  0  0
  182.8540  173.0690  137.0140 C   0  0  0  0  0  2  0  0  0  0  0  0
  184.1100  172.2170  136.9960 C   0  0  0  0  0  2  0  0  0  0  0  0
  185.2580  173.0010  137.5950 C   0  0  0  0  0  1  0  0  0  0  0  0
  1 18  1  0  0  0  0
  2 12  1  0  0  0  0
  4 21  1  0  0  0  0
  4  1  2  0  0  0  0
  5  1  1  0  0  0  0
  6 23  1  0  0  0  0
  6 14  1  0  0  0  0
  7 11  2  0  0  0  0
  7 10  1  0  0  0  0
  8 21  1  0  0  0  0
 10  5  2  0  0  0  0
 11  4  1  0  0  0  0
 12 17  2  0  0  0  0
 13 22  1  6  0  0  0
 13  8  1  0  0  0  0
 14 22  1  0  0  0  0
 15  2  1  0  0  0  0
 16  3  1  6  0  0  0
 16 24  1  0  0  0  0
 17 24  1  0  0  0  0
 18 15  1  6  0  0  0
 18 16  1  0  0  0  0
 20  9  2  0  0  0  0
 20  3  1  0  0  0  0
 21 19  1  6  0  0  0
 21 20  1  0  0  0  0
 24 25  2  0  0  0  0
 26 23  1  6  0  0  0
 26 11  1  0  0  0  0
 26 13  1  0  0  0  0
 27 28  1  0  0  0  0
 27  7  1  0  0  0  0
 29 28  1  0  0  0  0
 29 30  1  0  0  0  0
M  END
>  <MODEL>
8

>  <REMARK>
 VINA RESULT:      -5.6      3.390      5.801
  Name = 
  3 active torsions:
  status: ('A' for Active; 'I' for Inactive)
    1  A    between atoms: O_6  and  C_8
    2  A    between atoms: O_6  and  C_21
    3  A    between atoms: C_9  and  C_21
                            x       y       z     vdW  Elec       q    Type
                         _______ _______ _______ _____ _____    ______ ____

>  <TORSDO>
F 3

$$$$
