=
 OpenBabel10262423243D

 34 40  0  0  1  0  0  0  0  0999 V2000
  184.7910  177.8420  142.8030 C   0  0  1  0  0  3  0  0  0  0  0  0
  181.5240  179.1020  141.2720 C   0  0  0  0  0  3  0  0  0  0  0  0
  189.8340  175.9740  142.2730 C   0  0  0  0  0  2  0  0  0  0  0  0
  182.4010  179.4820  143.5730 C   0  0  0  0  0  2  0  0  0  0  0  0
  189.5540  178.8340  142.5130 C   0  0  0  0  0  2  0  0  0  0  0  0
  187.1160  177.7160  142.1140 C   0  0  2  0  0  0  0  0  0  0  0  0
  186.0460  178.5740  142.2990 C   0  0  2  0  0  3  0  0  0  0  0  0
  186.8580  178.4040  144.8190 C   0  0  0  0  0  2  0  0  0  0  0  0
  185.3630  178.1120  146.7210 C   0  0  0  0  0  1  0  0  0  0  0  0
  190.9820  176.7650  142.9210 C   0  0  1  0  0  3  0  0  0  0  0  0
  186.9660  178.4870  143.4160 N   0  0  1  0  0  0  0  0  0  0  0  0
  187.7220  178.4320  141.0320 O   0  0  0  0  0  0  0  0  0  0  0  0
  183.7280  179.5740  144.3170 C   0  0  0  0  0  2  0  0  0  0  0  0
  184.4300  178.2210  144.2860 C   0  0  2  0  0  3  0  0  0  0  0  0
  185.6110  178.2220  145.2590 C   0  0  1  0  0  3  0  0  0  0  0  0
  181.5680  178.5060  140.0020 C   0  0  0  0  0  0  0  0  0  0  0  0
  182.6520  177.6850  139.6730 C   0  0  0  0  0  3  0  0  0  0  0  0
  190.4700  178.1030  143.4950 C   0  0  1  0  0  3  0  0  0  0  0  0
  188.6080  177.8170  141.8710 C   0  0  1  0  0  0  0  0  0  0  0  0
  189.2130  176.7140  141.2500 O   0  0  0  0  0  0  0  0  0  0  0  0
  182.5520  178.8970  142.1960 C   0  0  0  0  0  0  0  0  0  0  0  0
  183.6790  177.4640  140.5930 C   0  0  0  0  0  3  0  0  0  0  0  0
  183.6380  178.0600  141.8590 C   0  0  0  0  0  0  0  0  0  0  0  0
  191.1380  180.2720  144.2980 O   0  0  0  0  0  1  0  0  0  0  0  0
  191.6160  179.0130  143.9260 C   0  0  0  0  0  2  0  0  0  0  0  0
  191.6990  175.9160  143.9770 C   0  0  0  0  0  2  0  0  0  0  0  0
  191.0360  175.9560  145.3530 C   0  0  0  0  0  2  0  0  0  0  0  0
  192.0090  176.4200  146.4190 C   0  0  0  0  0  3  0  0  0  0  0  0
  191.9060  175.4980  147.6180 C   0  0  0  0  0  2  0  0  0  0  0  0
  191.2300  176.8500  147.6450 C   0  0  0  0  0  2  0  0  0  0  0  0
  180.5610  178.6940  139.0430 O   0  0  0  0  0  0  0  0  0  0  0  0
  181.1890  180.8740  138.0190 C   0  0  0  0  0  1  0  0  0  0  0  0
  180.2790  179.0800  136.7660 O   0  0  0  0  0  0  0  0  0  0  0  0
  180.6480  179.4960  137.8960 C   0  0  0  0  0  0  0  0  0  0  0  0
  1 23  1  6  0  0  0
  1 14  1  0  0  0  0
  2 21  1  0  0  0  0
  3 10  1  0  0  0  0
  4 13  1  0  0  0  0
  5 18  1  0  0  0  0
  6 12  1  6  0  0  0
  6  7  1  0  0  0  0
  6 11  1  0  0  0  0
  7  1  1  0  0  0  0
  7 11  1  0  0  0  0
  8 15  1  0  0  0  0
 10 18  1  0  0  0  0
 10 26  1  0  0  0  0
 11  8  1  0  0  0  0
 12 19  1  0  0  0  0
 14 13  1  0  0  0  0
 14 15  1  0  0  0  0
 15  9  1  0  0  0  0
 16  2  2  0  0  0  0
 17 16  1  0  0  0  0
 17 22  2  0  0  0  0
 18 25  1  0  0  0  0
 19  6  1  0  0  0  0
 19  5  1  0  0  0  0
 20 19  1  0  0  0  0
 20  3  1  0  0  0  0
 21  4  1  0  0  0  0
 22 23  1  0  0  0  0
 23 21  2  0  0  0  0
 25 24  1  0  0  0  0
 26 27  1  0  0  0  0
 27 28  1  0  0  0  0
 28 29  1  0  0  0  0
 28 30  1  0  0  0  0
 29 30  1  0  0  0  0
 31 16  1  0  0  0  0
 33 34  2  0  0  0  0
 34 32  1  0  0  0  0
 34 31  1  0  0  0  0
M  END
>  <MODEL>
1

>  <REMARK>
 VINA RESULT:      -7.6      0.000      0.000
  Name = 
  6 active torsions:
  status: ('A' for Active; 'I' for Inactive)
    1  A    between atoms: C_7  and  C_11
    2  A    between atoms: C_7  and  C_14
    3  A    between atoms: C_14  and  C_16
    4  A    between atoms: O_23  and  C_24
    5  A    between atoms: O_23  and  C_25
    6  A    between atoms: C_28  and  C_29
                            x       y       z     vdW  Elec       q    Type
                         _______ _______ _______ _____ _____    ______ ____

>  <TORSDO>
F 6

$$$$
=
 OpenBabel10262423243D

 34 40  0  0  1  0  0  0  0  0999 V2000
  190.5970  175.4410  137.6400 C   0  0  1  0  0  3  0  0  0  0  0  0
  193.3220  175.3210  134.9630 C   0  0  0  0  0  3  0  0  0  0  0  0
  188.9790  176.5590  142.6740 C   0  0  0  0  0  2  0  0  0  0  0  0
  190.8510  175.3730  134.6530 C   0  0  0  0  0  2  0  0  0  0  0  0
  188.7030  178.6850  140.7450 C   0  0  0  0  0  2  0  0  0  0  0  0
  190.2020  176.6910  139.6840 C   0  0  2  0  0  0  0  0  0  0  0  0
  190.4510  176.8090  138.3280 C   0  0  2  0  0  3  0  0  0  0  0  0
  187.8470  176.3140  138.2120 C   0  0  0  0  0  2  0  0  0  0  0  0
  186.8170  174.7690  136.6350 C   0  0  0  0  0  1  0  0  0  0  0  0
  187.8440  177.5760  142.8710 C   0  0  1  0  0  3  0  0  0  0  0  0
  189.0510  176.8560  138.7050 N   0  0  1  0  0  0  0  0  0  0  0  0
  190.8600  177.8990  140.0830 O   0  0  0  0  0  0  0  0  0  0  0  0
  189.5950  175.8780  135.3540 C   0  0  0  0  0  2  0  0  0  0  0  0
  189.4030  175.1290  136.6670 C   0  0  2  0  0  3  0  0  0  0  0  0
  188.0120  175.4200  137.2360 C   0  0  1  0  0  3  0  0  0  0  0  0
  194.4790  175.2370  135.7530 C   0  0  0  0  0  0  0  0  0  0  0  0
  194.3510  175.1990  137.1450 C   0  0  0  0  0  3  0  0  0  0  0  0
  187.4680  178.2460  141.5320 C   0  0  1  0  0  3  0  0  0  0  0  0
  189.7590  177.5810  140.8280 C   0  0  1  0  0  0  0  0  0  0  0  0
  190.1210  177.1650  142.1170 O   0  0  0  0  0  0  0  0  0  0  0  0
  192.0550  175.3830  135.5510 C   0  0  0  0  0  0  0  0  0  0  0  0
  193.0900  175.2480  137.7430 C   0  0  0  0  0  3  0  0  0  0  0  0
  191.9350  175.3350  136.9580 C   0  0  0  0  0  0  0  0  0  0  0  0
  185.5460  179.4520  140.7300 O   0  0  0  0  0  1  0  0  0  0  0  0
  186.5200  179.4240  141.7310 C   0  0  0  0  0  2  0  0  0  0  0  0
  186.6370  176.9190  143.5510 C   0  0  0  0  0  2  0  0  0  0  0  0
  186.6040  177.1140  145.0670 C   0  0  0  0  0  2  0  0  0  0  0  0
  186.2390  178.5400  145.4310 C   0  0  0  0  0  3  0  0  0  0  0  0
  185.4200  178.5290  146.7070 C   0  0  0  0  0  2  0  0  0  0  0  0
  184.7330  178.6930  145.3710 C   0  0  0  0  0  2  0  0  0  0  0  0
  195.7680  175.1820  135.2020 O   0  0  0  0  0  0  0  0  0  0  0  0
  197.4720  173.7880  136.3640 C   0  0  0  0  0  1  0  0  0  0  0  0
  197.6420  176.1460  136.1890 O   0  0  0  0  0  0  0  0  0  0  0  0
  196.9730  175.1140  135.9160 C   0  0  0  0  0  0  0  0  0  0  0  0
  1 23  1  6  0  0  0
  1  7  1  0  0  0  0
  2 21  2  0  0  0  0
  2 16  1  0  0  0  0
  3 10  1  0  0  0  0
  4 13  1  0  0  0  0
  4 21  1  0  0  0  0
  5 19  1  0  0  0  0
  5 18  1  0  0  0  0
  6 12  1  6  0  0  0
  6 19  1  0  0  0  0
  7 11  1  0  0  0  0
  7  6  1  0  0  0  0
  8 11  1  0  0  0  0
  9 15  1  0  0  0  0
 10 26  1  0  0  0  0
 11  6  1  0  0  0  0
 12 19  1  0  0  0  0
 13 14  1  0  0  0  0
 14 15  1  0  0  0  0
 14  1  1  0  0  0  0
 15  8  1  0  0  0  0
 16 17  2  0  0  0  0
 17 22  1  0  0  0  0
 18 25  1  0  0  0  0
 18 10  1  0  0  0  0
 19 20  1  0  0  0  0
 20  3  1  0  0  0  0
 21 23  1  0  0  0  0
 23 22  2  0  0  0  0
 24 25  1  0  0  0  0
 26 27  1  0  0  0  0
 27 28  1  0  0  0  0
 28 29  1  0  0  0  0
 30 28  1  0  0  0  0
 30 29  1  0  0  0  0
 31 16  1  0  0  0  0
 31 34  1  0  0  0  0
 34 33  2  0  0  0  0
 34 32  1  0  0  0  0
M  END
>  <MODEL>
2

>  <REMARK>
 VINA RESULT:      -7.5      5.350      9.630
  Name = 
  6 active torsions:
  status: ('A' for Active; 'I' for Inactive)
    1  A    between atoms: C_7  and  C_11
    2  A    between atoms: C_7  and  C_14
    3  A    between atoms: C_14  and  C_16
    4  A    between atoms: O_23  and  C_24
    5  A    between atoms: O_23  and  C_25
    6  A    between atoms: C_28  and  C_29
                            x       y       z     vdW  Elec       q    Type
                         _______ _______ _______ _____ _____    ______ ____

>  <TORSDO>
F 6

$$$$
=
 OpenBabel10262423243D

 34 40  0  0  1  0  0  0  0  0999 V2000
  186.4670  178.6950  141.6100 C   0  0  1  0  0  3  0  0  0  0  0  0
  189.8530  176.9240  141.5810 C   0  0  0  0  0  3  0  0  0  0  0  0
  182.1880  180.7280  139.0100 C   0  0  0  0  0  2  0  0  0  0  0  0
  188.2210  177.1090  143.4540 C   0  0  0  0  0  2  0  0  0  0  0  0
  181.9810  177.9760  139.8460 C   0  0  0  0  0  2  0  0  0  0  0  0
  184.5410  178.8190  140.1360 C   0  0  2  0  0  0  0  0  0  0  0  0
  185.3630  177.9550  140.8370 C   0  0  2  0  0  3  0  0  0  0  0  0
  183.7930  178.7180  142.8350 C   0  0  0  0  0  2  0  0  0  0  0  0
  184.5990  179.3180  145.0560 C   0  0  0  0  0  1  0  0  0  0  0  0
  180.7940  180.1720  139.3440 C   0  0  1  0  0  3  0  0  0  0  0  0
  184.1450  178.3410  141.5240 N   0  0  1  0  0  0  0  0  0  0  0  0
  184.2370  177.9270  139.0590 O   0  0  0  0  0  0  0  0  0  0  0  0
  186.7230  177.2670  143.6870 C   0  0  0  0  0  2  0  0  0  0  0  0
  186.2620  178.6240  143.1670 C   0  0  2  0  0  3  0  0  0  0  0  0
  184.8360  178.9100  143.6450 C   0  0  1  0  0  3  0  0  0  0  0  0
  190.3130  177.2320  140.2920 C   0  0  0  0  0  0  0  0  0  0  0  0
  189.5220  178.0310  139.4600 C   0  0  0  0  0  3  0  0  0  0  0  0
  180.8990  178.9590  140.2930 C   0  0  1  0  0  3  0  0  0  0  0  0
  183.2150  178.7660  139.4050 C   0  0  1  0  0  0  0  0  0  0  0  0
  183.0050  179.7450  138.4230 O   0  0  0  0  0  0  0  0  0  0  0  0
  188.6150  177.3900  142.0310 C   0  0  0  0  0  0  0  0  0  0  0  0
  188.2890  178.5120  139.9030 C   0  0  0  0  0  3  0  0  0  0  0  0
  187.8260  178.2030  141.1880 C   0  0  0  0  0  0  0  0  0  0  0  0
  179.5720  177.4170  141.5780 O   0  0  0  0  0  1  0  0  0  0  0  0
  179.5630  178.2410  140.4500 C   0  0  0  0  0  2  0  0  0  0  0  0
  179.8900  181.2740  139.9080 C   0  0  0  0  0  2  0  0  0  0  0  0
  178.9940  181.9320  138.8590 C   0  0  0  0  0  2  0  0  0  0  0  0
  179.3120  183.4080  138.7110 C   0  0  0  0  0  3  0  0  0  0  0  0
  178.9310  183.8580  137.3140 C   0  0  0  0  0  2  0  0  0  0  0  0
  180.3780  183.5780  137.6490 C   0  0  0  0  0  2  0  0  0  0  0  0
  191.5460  176.7760  139.8000 O   0  0  0  0  0  0  0  0  0  0  0  0
  192.9630  176.2000  137.8370 C   0  0  0  0  0  1  0  0  0  0  0  0
  190.9100  175.1110  138.3030 O   0  0  0  0  0  0  0  0  0  0  0  0
  191.7420  175.9890  138.6550 C   0  0  0  0  0  0  0  0  0  0  0  0
  1 23  1  1  0  0  0
  1 14  1  0  0  0  0
  2 21  1  0  0  0  0
  3 10  1  0  0  0  0
  4 13  1  0  0  0  0
  5 18  1  0  0  0  0
  6 12  1  6  0  0  0
  6  7  1  0  0  0  0
  6 11  1  0  0  0  0
  7 11  1  0  0  0  0
  7  1  1  0  0  0  0
  8 15  1  0  0  0  0
 10 26  1  0  0  0  0
 10 18  1  0  0  0  0
 11  8  1  0  0  0  0
 12 19  1  0  0  0  0
 14 15  1  0  0  0  0
 14 13  1  0  0  0  0
 15  9  1  0  0  0  0
 16  2  2  0  0  0  0
 17 22  2  0  0  0  0
 17 16  1  0  0  0  0
 18 25  1  0  0  0  0
 19  5  1  0  0  0  0
 19  6  1  0  0  0  0
 20  3  1  0  0  0  0
 20 19  1  0  0  0  0
 21  4  1  0  0  0  0
 22 23  1  0  0  0  0
 23 21  2  0  0  0  0
 25 24  1  0  0  0  0
 27 26  1  0  0  0  0
 28 27  1  0  0  0  0
 29 30  1  0  0  0  0
 29 28  1  0  0  0  0
 30 28  1  0  0  0  0
 31 16  1  0  0  0  0
 32 34  1  0  0  0  0
 33 34  2  0  0  0  0
 34 31  1  0  0  0  0
M  END
>  <MODEL>
3

>  <REMARK>
 VINA RESULT:      -7.2      2.720      9.443
  Name = 
  6 active torsions:
  status: ('A' for Active; 'I' for Inactive)
    1  A    between atoms: C_7  and  C_11
    2  A    between atoms: C_7  and  C_14
    3  A    between atoms: C_14  and  C_16
    4  A    between atoms: O_23  and  C_24
    5  A    between atoms: O_23  and  C_25
    6  A    between atoms: C_28  and  C_29
                            x       y       z     vdW  Elec       q    Type
                         _______ _______ _______ _____ _____    ______ ____

>  <TORSDO>
F 6

$$$$
=
 OpenBabel10262423243D

 34 40  0  0  1  0  0  0  0  0999 V2000
  189.9330  175.3290  137.4330 C   0  0  1  0  0  3  0  0  0  0  0  0
  193.0080  174.8160  135.2230 C   0  0  0  0  0  3  0  0  0  0  0  0
  187.1530  178.2360  141.0420 C   0  0  0  0  0  2  0  0  0  0  0  0
  190.7420  173.8140  134.9740 C   0  0  0  0  0  2  0  0  0  0  0  0
  186.5990  178.7850  138.2650 C   0  0  0  0  0  2  0  0  0  0  0  0
  188.8050  177.2210  138.4550 C   0  0  2  0  0  0  0  0  0  0  0  0
  189.2520  176.6960  137.2550 C   0  0  2  0  0  3  0  0  0  0  0  0
  186.9920  175.3230  137.4730 C   0  0  0  0  0  2  0  0  0  0  0  0
  186.7940  172.9360  137.0260 C   0  0  0  0  0  1  0  0  0  0  0  0
  185.7450  178.7230  140.6630 C   0  0  1  0  0  3  0  0  0  0  0  0
  187.8610  176.4290  137.5660 N   0  0  1  0  0  0  0  0  0  0  0  0
  188.9770  178.6000  138.1110 O   0  0  0  0  0  0  0  0  0  0  0  0
  189.2850  174.1230  135.3010 C   0  0  0  0  0  2  0  0  0  0  0  0
  189.0930  174.1540  136.8130 C   0  0  2  0  0  3  0  0  0  0  0  0
  187.6000  174.1800  137.1500 C   0  0  1  0  0  3  0  0  0  0  0  0
  193.9690  175.5740  135.9090 C   0  0  0  0  0  0  0  0  0  0  0  0
  193.6050  176.2230  137.0930 C   0  0  0  0  0  3  0  0  0  0  0  0
  185.4350  178.4120  139.1840 C   0  0  1  0  0  3  0  0  0  0  0  0
  187.9090  178.3480  138.9260 C   0  0  1  0  0  0  0  0  0  0  0  0
  188.1360  178.8240  140.2250 O   0  0  0  0  0  0  0  0  0  0  0  0
  191.6980  174.7180  135.6990 C   0  0  0  0  0  0  0  0  0  0  0  0
  192.3020  176.1220  137.5850 C   0  0  0  0  0  3  0  0  0  0  0  0
  191.3410  175.3690  136.9000 C   0  0  0  0  0  0  0  0  0  0  0  0
  184.1370  180.4370  139.0940 O   0  0  0  0  0  1  0  0  0  0  0  0
  184.1530  179.0920  138.7160 C   0  0  0  0  0  2  0  0  0  0  0  0
  184.6940  178.1360  141.6130 C   0  0  0  0  0  2  0  0  0  0  0  0
  185.1190  178.1410  143.0810 C   0  0  0  0  0  2  0  0  0  0  0  0
  184.6330  179.3890  143.7910 C   0  0  0  0  0  3  0  0  0  0  0  0
  184.9630  179.2790  145.2670 C   0  0  0  0  0  2  0  0  0  0  0  0
  183.5570  179.0030  144.7850 C   0  0  0  0  0  2  0  0  0  0  0  0
  195.2920  175.7050  135.4580 O   0  0  0  0  0  0  0  0  0  0  0  0
  196.5020  173.8290  136.5590 C   0  0  0  0  0  1  0  0  0  0  0  0
  197.4230  176.0030  136.3470 O   0  0  0  0  0  0  0  0  0  0  0  0
  196.4420  175.2470  136.1180 C   0  0  0  0  0  0  0  0  0  0  0  0
  1 23  1  6  0  0  0
  2 21  2  0  0  0  0
  2 16  1  0  0  0  0
  4 13  1  0  0  0  0
  4 21  1  0  0  0  0
  5 19  1  0  0  0  0
  5 18  1  0  0  0  0
  6 12  1  6  0  0  0
  6 19  1  0  0  0  0
  7  1  1  0  0  0  0
  7 11  1  0  0  0  0
  7  6  1  0  0  0  0
  8 11  1  0  0  0  0
  9 15  1  0  0  0  0
 10  3  1  0  0  0  0
 10 26  1  0  0  0  0
 11  6  1  0  0  0  0
 12 19  1  0  0  0  0
 13 14  1  0  0  0  0
 14 15  1  0  0  0  0
 14  1  1  0  0  0  0
 15  8  1  0  0  0  0
 16 17  2  0  0  0  0
 17 22  1  0  0  0  0
 18 10  1  0  0  0  0
 19 20  1  0  0  0  0
 20  3  1  0  0  0  0
 21 23  1  0  0  0  0
 23 22  2  0  0  0  0
 25 24  1  0  0  0  0
 25 18  1  0  0  0  0
 26 27  1  0  0  0  0
 27 28  1  0  0  0  0
 28 30  1  0  0  0  0
 28 29  1  0  0  0  0
 30 29  1  0  0  0  0
 31 16  1  0  0  0  0
 31 34  1  0  0  0  0
 34 33  2  0  0  0  0
 34 32  1  0  0  0  0
M  END
>  <MODEL>
4

>  <REMARK>
 VINA RESULT:      -7.1      5.442      9.963
  Name = 
  6 active torsions:
  status: ('A' for Active; 'I' for Inactive)
    1  A    between atoms: C_7  and  C_11
    2  A    between atoms: C_7  and  C_14
    3  A    between atoms: C_14  and  C_16
    4  A    between atoms: O_23  and  C_24
    5  A    between atoms: O_23  and  C_25
    6  A    between atoms: C_28  and  C_29
                            x       y       z     vdW  Elec       q    Type
                         _______ _______ _______ _____ _____    ______ ____

>  <TORSDO>
F 6

$$$$
=
 OpenBabel10262423243D

 34 40  0  0  1  0  0  0  0  0999 V2000
  183.3430  178.7700  141.8890 C   0  0  1  0  0  3  0  0  0  0  0  0
  185.6280  178.1470  144.8880 C   0  0  0  0  0  3  0  0  0  0  0  0
  182.1680  178.1570  136.6490 C   0  0  0  0  0  2  0  0  0  0  0  0
  183.2100  178.7460  144.8850 C   0  0  0  0  0  2  0  0  0  0  0  0
  181.0950  176.1640  138.4370 C   0  0  0  0  0  2  0  0  0  0  0  0
  182.9090  177.6840  139.7600 C   0  0  2  0  0  0  0  0  0  0  0  0
  182.9380  177.4940  141.1310 C   0  0  2  0  0  3  0  0  0  0  0  0
  180.5610  178.6580  140.9410 C   0  0  0  0  0  2  0  0  0  0  0  0
  179.7710  180.4090  142.4400 C   0  0  0  0  0  1  0  0  0  0  0  0
  180.8430  177.4760  136.2700 C   0  0  1  0  0  3  0  0  0  0  0  0
  181.6360  177.8210  140.5800 N   0  0  1  0  0  0  0  0  0  0  0  0
  183.2760  176.3490  139.3970 O   0  0  0  0  0  0  0  0  0  0  0  0
  181.9700  178.5950  144.0110 C   0  0  0  0  0  2  0  0  0  0  0  0
  182.1540  179.3790  142.7170 C   0  0  2  0  0  3  0  0  0  0  0  0
  180.8230  179.4700  141.9660 C   0  0  1  0  0  3  0  0  0  0  0  0
  186.8600  177.9290  144.2540 C   0  0  0  0  0  0  0  0  0  0  0  0
  186.9320  178.0090  142.8600 C   0  0  0  0  0  3  0  0  0  0  0  0
  180.1320  176.9200  137.5210 C   0  0  1  0  0  3  0  0  0  0  0  0
  182.4040  176.9510  138.5340 C   0  0  1  0  0  0  0  0  0  0  0  0
  183.0290  177.2670  137.3190 O   0  0  0  0  0  0  0  0  0  0  0  0
  184.4780  178.4250  144.1440 C   0  0  0  0  0  0  0  0  0  0  0  0
  185.7920  178.2990  142.1070 C   0  0  0  0  0  3  0  0  0  0  0  0
  184.5610  178.5140  142.7370 C   0  0  0  0  0  0  0  0  0  0  0  0
  179.3570  174.9450  136.3860 O   0  0  0  0  0  1  0  0  0  0  0  0
  178.9450  176.0360  137.1560 C   0  0  0  0  0  2  0  0  0  0  0  0
  179.9500  178.4340  135.4710 C   0  0  0  0  0  2  0  0  0  0  0  0
  180.5820  179.8040  135.2260 C   0  0  0  0  0  2  0  0  0  0  0  0
  179.8220  180.8980  135.9510 C   0  0  0  0  0  3  0  0  0  0  0  0
  180.3010  182.2470  135.4520 C   0  0  0  0  0  2  0  0  0  0  0  0
  180.7980  181.7120  136.7750 C   0  0  0  0  0  2  0  0  0  0  0  0
  188.0350  177.6370  144.9640 O   0  0  0  0  0  0  0  0  0  0  0  0
  190.2600  178.6220  144.4400 C   0  0  0  0  0  1  0  0  0  0  0  0
  189.6870  176.3850  143.9060 O   0  0  0  0  0  0  0  0  0  0  0  0
  189.3160  177.4750  144.4170 C   0  0  0  0  0  0  0  0  0  0  0  0
  1 14  1  0  0  0  0
  1 23  1  1  0  0  0
  3 20  1  0  0  0  0
  5 19  1  0  0  0  0
  6 12  1  1  0  0  0
  6 11  1  0  0  0  0
  6  7  1  0  0  0  0
  7  1  1  0  0  0  0
  8 15  1  0  0  0  0
 10  3  1  0  0  0  0
 10 18  1  0  0  0  0
 11  8  1  0  0  0  0
 11  7  1  0  0  0  0
 13  4  1  0  0  0  0
 14 13  1  0  0  0  0
 15  9  1  0  0  0  0
 15 14  1  0  0  0  0
 16  2  1  0  0  0  0
 16 31  1  0  0  0  0
 17 16  2  0  0  0  0
 18  5  1  0  0  0  0
 19 12  1  0  0  0  0
 19  6  1  0  0  0  0
 20 19  1  0  0  0  0
 21  4  1  0  0  0  0
 21  2  2  0  0  0  0
 22 23  2  0  0  0  0
 22 17  1  0  0  0  0
 23 21  1  0  0  0  0
 24 25  1  0  0  0  0
 25 18  1  0  0  0  0
 26 10  1  0  0  0  0
 27 26  1  0  0  0  0
 27 28  1  0  0  0  0
 28 30  1  0  0  0  0
 29 28  1  0  0  0  0
 29 30  1  0  0  0  0
 33 34  2  0  0  0  0
 34 32  1  0  0  0  0
 34 31  1  0  0  0  0
M  END
>  <MODEL>
5

>  <REMARK>
 VINA RESULT:      -6.9      2.463      9.713
  Name = 
  6 active torsions:
  status: ('A' for Active; 'I' for Inactive)
    1  A    between atoms: C_7  and  C_11
    2  A    between atoms: C_7  and  C_14
    3  A    between atoms: C_14  and  C_16
    4  A    between atoms: O_23  and  C_24
    5  A    between atoms: O_23  and  C_25
    6  A    between atoms: C_28  and  C_29
                            x       y       z     vdW  Elec       q    Type
                         _______ _______ _______ _____ _____    ______ ____

>  <TORSDO>
F 6

$$$$
=
 OpenBabel10262423243D

 34 40  0  0  1  0  0  0  0  0999 V2000
  187.5680  177.0710  142.7620 C   0  0  1  0  0  3  0  0  0  0  0  0
  184.9580  179.0430  144.7380 C   0  0  0  0  0  3  0  0  0  0  0  0
  189.6970  175.4600  138.0630 C   0  0  0  0  0  2  0  0  0  0  0  0
  187.1970  178.2540  145.4920 C   0  0  0  0  0  2  0  0  0  0  0  0
  190.7900  177.8780  139.1950 C   0  0  0  0  0  2  0  0  0  0  0  0
  188.5390  177.1860  140.5390 C   0  0  2  0  0  0  0  0  0  0  0  0
  188.3140  177.9000  141.7030 C   0  0  2  0  0  3  0  0  0  0  0  0
  190.4450  176.5270  142.4850 C   0  0  0  0  0  2  0  0  0  0  0  0
  190.6490  175.4360  144.6540 C   0  0  0  0  0  1  0  0  0  0  0  0
  191.1660  175.8030  137.7680 C   0  0  1  0  0  3  0  0  0  0  0  0
  189.6110  177.2570  141.6150 N   0  0  1  0  0  0  0  0  0  0  0  0
  188.4810  178.3010  139.6430 O   0  0  0  0  0  0  0  0  0  0  0  0
  188.5740  177.9270  144.9240 C   0  0  0  0  0  2  0  0  0  0  0  0
  188.4740  176.7210  143.9980 C   0  0  2  0  0  3  0  0  0  0  0  0
  189.8750  176.2120  143.6490 C   0  0  1  0  0  3  0  0  0  0  0  0
  183.9080  179.1150  143.8090 C   0  0  0  0  0  0  0  0  0  0  0  0
  184.0590  178.5020  142.5620 C   0  0  0  0  0  3  0  0  0  0  0  0
  191.7440  176.7320  138.8560 C   0  0  1  0  0  3  0  0  0  0  0  0
  189.3650  177.3260  139.2760 C   0  0  1  0  0  0  0  0  0  0  0  0
  188.9080  176.6220  138.1530 O   0  0  0  0  0  0  0  0  0  0  0  0
  186.1490  178.3820  144.4230 C   0  0  0  0  0  0  0  0  0  0  0  0
  185.2400  177.8290  142.2410 C   0  0  0  0  0  3  0  0  0  0  0  0
  186.2900  177.7580  143.1640 C   0  0  0  0  0  0  0  0  0  0  0  0
  193.9300  177.4140  139.5940 O   0  0  0  0  0  1  0  0  0  0  0  0
  193.1130  177.2810  138.4690 C   0  0  0  0  0  2  0  0  0  0  0  0
  191.9970  174.5260  137.5930 C   0  0  0  0  0  2  0  0  0  0  0  0
  192.7670  174.4670  136.2740 C   0  0  0  0  0  2  0  0  0  0  0  0
  194.2630  174.5450  136.5060 C   0  0  0  0  0  3  0  0  0  0  0  0
  194.8660  173.1680  136.3080 C   0  0  0  0  0  2  0  0  0  0  0  0
  194.6200  173.6910  137.7050 C   0  0  0  0  0  2  0  0  0  0  0  0
  182.7010  179.7770  144.0830 O   0  0  0  0  0  0  0  0  0  0  0  0
  180.7330  178.2530  144.1080 C   0  0  0  0  0  1  0  0  0  0  0  0
  180.8890  180.1280  142.6660 O   0  0  0  0  0  0  0  0  0  0  0  0
  181.4390  179.4450  143.5700 C   0  0  0  0  0  0  0  0  0  0  0  0
  1 23  1  1  0  0  0
  1 14  1  0  0  0  0
  3 20  1  0  0  0  0
  5 19  1  0  0  0  0
  6 12  1  6  0  0  0
  6 11  1  0  0  0  0
  6  7  1  0  0  0  0
  7  1  1  0  0  0  0
  8 15  1  0  0  0  0
 10  3  1  0  0  0  0
 10 18  1  0  0  0  0
 11  7  1  0  0  0  0
 11  8  1  0  0  0  0
 13  4  1  0  0  0  0
 14 13  1  0  0  0  0
 15 14  1  0  0  0  0
 15  9  1  0  0  0  0
 16 31  1  0  0  0  0
 16  2  2  0  0  0  0
 17 16  1  0  0  0  0
 18  5  1  0  0  0  0
 19 12  1  0  0  0  0
 19  6  1  0  0  0  0
 20 19  1  0  0  0  0
 21  2  1  0  0  0  0
 21  4  1  0  0  0  0
 22 17  2  0  0  0  0
 22 23  1  0  0  0  0
 23 21  2  0  0  0  0
 25 18  1  0  0  0  0
 25 24  1  0  0  0  0
 26 10  1  0  0  0  0
 27 28  1  0  0  0  0
 27 26  1  0  0  0  0
 28 30  1  0  0  0  0
 29 28  1  0  0  0  0
 29 30  1  0  0  0  0
 33 34  2  0  0  0  0
 34 31  1  0  0  0  0
 34 32  1  0  0  0  0
M  END
>  <MODEL>
6

>  <REMARK>
 VINA RESULT:      -6.7      3.721      5.684
  Name = 
  6 active torsions:
  status: ('A' for Active; 'I' for Inactive)
    1  A    between atoms: C_7  and  C_11
    2  A    between atoms: C_7  and  C_14
    3  A    between atoms: C_14  and  C_16
    4  A    between atoms: O_23  and  C_24
    5  A    between atoms: O_23  and  C_25
    6  A    between atoms: C_28  and  C_29
                            x       y       z     vdW  Elec       q    Type
                         _______ _______ _______ _____ _____    ______ ____

>  <TORSDO>
F 6

$$$$
=
 OpenBabel10262423243D

 34 40  0  0  1  0  0  0  0  0999 V2000
  185.9130  178.7910  142.8140 C   0  0  1  0  0  3  0  0  0  0  0  0
  188.9420  176.9810  144.2790 C   0  0  0  0  0  3  0  0  0  0  0  0
  183.2530  180.8820  138.5990 C   0  0  0  0  0  2  0  0  0  0  0  0
  186.6500  177.1780  145.2320 C   0  0  0  0  0  2  0  0  0  0  0  0
  182.6720  178.1290  139.2340 C   0  0  0  0  0  2  0  0  0  0  0  0
  184.8440  178.9420  140.6390 C   0  0  2  0  0  0  0  0  0  0  0  0
  185.2600  178.0660  141.6250 C   0  0  2  0  0  3  0  0  0  0  0  0
  182.9730  178.8410  142.7230 C   0  0  0  0  0  2  0  0  0  0  0  0
  182.7130  179.4230  145.0750 C   0  0  0  0  0  1  0  0  0  0  0  0
  181.8520  180.3410  138.2750 C   0  0  1  0  0  3  0  0  0  0  0  0
  183.8680  178.4640  141.7020 N   0  0  1  0  0  0  0  0  0  0  0  0
  185.0420  178.0570  139.5310 O   0  0  0  0  0  0  0  0  0  0  0  0
  185.2050  177.3530  144.7770 C   0  0  0  0  0  2  0  0  0  0  0  0
  185.0360  178.7160  144.1170 C   0  0  2  0  0  3  0  0  0  0  0  0
  183.5490  179.0170  143.9140 C   0  0  1  0  0  3  0  0  0  0  0  0
  189.9310  177.2890  143.3310 C   0  0  0  0  0  0  0  0  0  0  0  0
  189.5990  178.0990  142.2410 C   0  0  0  0  0  3  0  0  0  0  0  0
  181.5130  179.1240  139.1620 C   0  0  1  0  0  3  0  0  0  0  0  0
  183.9810  178.9070  139.3940 C   0  0  1  0  0  0  0  0  0  0  0  0
  184.2380  179.8920  138.4290 O   0  0  0  0  0  0  0  0  0  0  0  0
  187.6370  177.4600  144.1350 C   0  0  0  0  0  0  0  0  0  0  0  0
  188.3010  178.5930  142.0940 C   0  0  0  0  0  3  0  0  0  0  0  0
  187.3130  178.2850  143.0360 C   0  0  0  0  0  0  0  0  0  0  0  0
  179.6070  177.7890  139.7750 O   0  0  0  0  0  1  0  0  0  0  0  0
  180.2410  178.4210  138.7020 C   0  0  0  0  0  2  0  0  0  0  0  0
  180.8010  181.4510  138.3870 C   0  0  0  0  0  2  0  0  0  0  0  0
  180.5270  182.1760  137.0690 C   0  0  0  0  0  2  0  0  0  0  0  0
  180.3900  183.6710  137.2810 C   0  0  0  0  0  3  0  0  0  0  0  0
  181.0070  184.3960  136.1010 C   0  0  0  0  0  2  0  0  0  0  0  0
  181.7720  184.2800  137.3990 C   0  0  0  0  0  2  0  0  0  0  0  0
  191.2490  176.8190  143.4350 O   0  0  0  0  0  0  0  0  0  0  0  0
  191.7930  176.5260  145.8460 C   0  0  0  0  0  1  0  0  0  0  0  0
  192.1980  174.8460  144.2230 O   0  0  0  0  0  0  0  0  0  0  0  0
  191.7620  176.0050  144.4550 C   0  0  0  0  0  0  0  0  0  0  0  0
  1 23  1  1  0  0  0
  1 14  1  0  0  0  0
  5 19  1  0  0  0  0
  6 12  1  6  0  0  0
  6  7  1  0  0  0  0
  6 11  1  0  0  0  0
  7 11  1  0  0  0  0
  7  1  1  0  0  0  0
  8 15  1  0  0  0  0
 10 26  1  0  0  0  0
 10  3  1  0  0  0  0
 10 18  1  0  0  0  0
 11  8  1  0  0  0  0
 13  4  1  0  0  0  0
 14 13  1  0  0  0  0
 15 14  1  0  0  0  0
 15  9  1  0  0  0  0
 16 31  1  0  0  0  0
 16  2  2  0  0  0  0
 17 16  1  0  0  0  0
 18  5  1  0  0  0  0
 19 12  1  0  0  0  0
 19  6  1  0  0  0  0
 20  3  1  0  0  0  0
 20 19  1  0  0  0  0
 21  2  1  0  0  0  0
 21  4  1  0  0  0  0
 22 17  2  0  0  0  0
 22 23  1  0  0  0  0
 23 21  2  0  0  0  0
 25 18  1  0  0  0  0
 25 24  1  0  0  0  0
 27 28  1  0  0  0  0
 27 26  1  0  0  0  0
 28 30  1  0  0  0  0
 29 28  1  0  0  0  0
 29 30  1  0  0  0  0
 31 34  1  0  0  0  0
 33 34  2  0  0  0  0
 34 32  1  0  0  0  0
M  END
>  <MODEL>
7

>  <REMARK>
 VINA RESULT:      -6.5      2.064      9.553
  Name = 
  6 active torsions:
  status: ('A' for Active; 'I' for Inactive)
    1  A    between atoms: C_7  and  C_11
    2  A    between atoms: C_7  and  C_14
    3  A    between atoms: C_14  and  C_16
    4  A    between atoms: O_23  and  C_24
    5  A    between atoms: O_23  and  C_25
    6  A    between atoms: C_28  and  C_29
                            x       y       z     vdW  Elec       q    Type
                         _______ _______ _______ _____ _____    ______ ____

>  <TORSDO>
F 6

$$$$
=
 OpenBabel10262423243D

 34 40  0  0  1  0  0  0  0  0999 V2000
  188.4450  177.1620  142.4760 C   0  0  1  0  0  3  0  0  0  0  0  0
  191.0580  177.5500  145.2380 C   0  0  0  0  0  3  0  0  0  0  0  0
  183.3040  177.2080  140.8110 C   0  0  0  0  0  2  0  0  0  0  0  0
  191.3740  177.7350  142.7740 C   0  0  0  0  0  2  0  0  0  0  0  0
  184.7290  179.7080  140.6150 C   0  0  0  0  0  2  0  0  0  0  0  0
  186.1820  177.9510  142.0810 C   0  0  2  0  0  0  0  0  0  0  0  0
  187.4780  178.3520  142.3540 C   0  0  2  0  0  3  0  0  0  0  0  0
  187.7230  177.9650  139.7400 C   0  0  0  0  0  2  0  0  0  0  0  0
  189.6080  176.8250  138.6970 C   0  0  0  0  0  1  0  0  0  0  0  0
  182.9020  178.1900  139.6980 C   0  0  1  0  0  3  0  0  0  0  0  0
  187.1140  178.3550  140.9500 N   0  0  1  0  0  0  0  0  0  0  0  0
  185.5260  179.0260  142.7620 O   0  0  0  0  0  0  0  0  0  0  0  0
  190.5920  178.1100  141.5200 C   0  0  0  0  0  2  0  0  0  0  0  0
  189.4740  177.1000  141.2900 C   0  0  2  0  0  3  0  0  0  0  0  0
  188.8680  177.2980  139.8980 C   0  0  1  0  0  3  0  0  0  0  0  0
  190.2950  177.2650  146.3800 C   0  0  0  0  0  0  0  0  0  0  0  0
  188.9450  176.9310  146.2310 C   0  0  0  0  0  3  0  0  0  0  0  0
  184.0680  179.1420  139.3580 C   0  0  1  0  0  3  0  0  0  0  0  0
  184.8780  178.5840  141.6430 C   0  0  1  0  0  0  0  0  0  0  0  0
  183.7060  177.8890  141.9750 O   0  0  0  0  0  0  0  0  0  0  0  0
  190.4830  177.5180  143.9640 C   0  0  0  0  0  0  0  0  0  0  0  0
  188.3620  176.8840  144.9620 C   0  0  0  0  0  3  0  0  0  0  0  0
  189.1210  177.1700  143.8220 C   0  0  0  0  0  0  0  0  0  0  0  0
  182.4410  180.8540  138.8930 O   0  0  0  0  0  1  0  0  0  0  0  0
  183.6280  180.2750  138.4360 C   0  0  0  0  0  2  0  0  0  0  0  0
  182.3920  177.4340  138.4650 C   0  0  0  0  0  2  0  0  0  0  0  0
  183.4280  176.4970  137.8440 C   0  0  0  0  0  2  0  0  0  0  0  0
  183.8650  176.9890  136.4780 C   0  0  0  0  0  3  0  0  0  0  0  0
  184.7610  175.9460  135.8400 C   0  0  0  0  0  2  0  0  0  0  0  0
  185.3680  177.1740  136.4790 C   0  0  0  0  0  2  0  0  0  0  0  0
  190.8330  177.2960  147.6760 O   0  0  0  0  0  0  0  0  0  0  0  0
  192.4320  175.4000  147.4750 C   0  0  0  0  0  1  0  0  0  0  0  0
  192.7600  177.2040  148.9770 O   0  0  0  0  0  0  0  0  0  0  0  0
  192.0260  176.6890  148.0930 C   0  0  0  0  0  0  0  0  0  0  0  0
  1 23  1  1  0  0  0
  2 16  1  0  0  0  0
  3 20  1  0  0  0  0
  4 21  1  0  0  0  0
  5 19  1  0  0  0  0
  6  7  1  0  0  0  0
  6 12  1  6  0  0  0
  7  1  1  0  0  0  0
  8 15  1  0  0  0  0
  8 11  1  0  0  0  0
  9 15  1  0  0  0  0
 10  3  1  0  0  0  0
 11  6  1  0  0  0  0
 11  7  1  0  0  0  0
 13  4  1  0  0  0  0
 14 13  1  0  0  0  0
 14  1  1  0  0  0  0
 15 14  1  0  0  0  0
 16 31  1  0  0  0  0
 17 16  2  0  0  0  0
 18 10  1  0  0  0  0
 18  5  1  0  0  0  0
 19 20  1  0  0  0  0
 19  6  1  0  0  0  0
 19 12  1  0  0  0  0
 21  2  2  0  0  0  0
 22 17  1  0  0  0  0
 23 21  1  0  0  0  0
 23 22  2  0  0  0  0
 25 24  1  0  0  0  0
 25 18  1  0  0  0  0
 26 10  1  0  0  0  0
 27 26  1  0  0  0  0
 28 30  1  0  0  0  0
 28 27  1  0  0  0  0
 29 28  1  0  0  0  0
 29 30  1  0  0  0  0
 31 34  1  0  0  0  0
 32 34  1  0  0  0  0
 34 33  2  0  0  0  0
M  END
>  <MODEL>
8

>  <REMARK>
 VINA RESULT:      -6.5      2.549      9.390
  Name = 
  6 active torsions:
  status: ('A' for Active; 'I' for Inactive)
    1  A    between atoms: C_7  and  C_11
    2  A    between atoms: C_7  and  C_14
    3  A    between atoms: C_14  and  C_16
    4  A    between atoms: O_23  and  C_24
    5  A    between atoms: O_23  and  C_25
    6  A    between atoms: C_28  and  C_29
                            x       y       z     vdW  Elec       q    Type
                         _______ _______ _______ _____ _____    ______ ____

>  <TORSDO>
F 6

$$$$
=
 OpenBabel10262423243D

 34 40  0  0  1  0  0  0  0  0999 V2000
  186.8960  176.6480  137.4640 C   0  0  1  0  0  3  0  0  0  0  0  0
  190.5900  176.6660  136.4860 C   0  0  0  0  0  3  0  0  0  0  0  0
  182.9470  177.7390  140.9890 C   0  0  0  0  0  2  0  0  0  0  0  0
  188.5970  176.5460  134.9960 C   0  0  0  0  0  2  0  0  0  0  0  0
  183.5530  179.8090  139.0740 C   0  0  0  0  0  2  0  0  0  0  0  0
  185.4800  177.9030  138.9860 C   0  0  2  0  0  0  0  0  0  0  0  0
  186.3600  178.0140  137.9250 C   0  0  2  0  0  3  0  0  0  0  0  0
  184.1830  177.3430  136.5660 C   0  0  0  0  0  2  0  0  0  0  0  0
  184.1470  175.7040  134.7620 C   0  0  0  0  0  1  0  0  0  0  0  0
  181.8130  178.6810  140.5520 C   0  0  1  0  0  3  0  0  0  0  0  0
  184.9570  177.9730  137.5600 N   0  0  1  0  0  0  0  0  0  0  0  0
  185.7930  179.1590  139.5980 O   0  0  0  0  0  0  0  0  0  0  0  0
  187.1350  176.9770  134.9630 C   0  0  0  0  0  2  0  0  0  0  0  0
  186.3560  176.2380  136.0460 C   0  0  2  0  0  3  0  0  0  0  0  0
  184.8530  176.4440  135.8420 C   0  0  1  0  0  3  0  0  0  0  0  0
  191.2080  176.6740  137.7460 C   0  0  0  0  0  0  0  0  0  0  0  0
  190.4110  176.6510  138.8940 C   0  0  0  0  0  3  0  0  0  0  0  0
  182.1150  179.3000  139.1710 C   0  0  1  0  0  3  0  0  0  0  0  0
  184.4850  178.7800  139.7190 C   0  0  1  0  0  0  0  0  0  0  0  0
  184.1820  178.4110  141.0380 O   0  0  0  0  0  0  0  0  0  0  0  0
  189.1970  176.6530  136.3700 C   0  0  0  0  0  0  0  0  0  0  0  0
  189.0180  176.6250  138.7910 C   0  0  0  0  0  3  0  0  0  0  0  0
  188.4000  176.6210  137.5350 C   0  0  0  0  0  0  0  0  0  0  0  0
  181.8120  181.5400  138.3460 O   0  0  0  0  0  1  0  0  0  0  0  0
  181.1350  180.4140  138.8200 C   0  0  0  0  0  2  0  0  0  0  0  0
  180.4630  177.9550  140.5810 C   0  0  0  0  0  2  0  0  0  0  0  0
  179.4690  178.5440  141.5820 C   0  0  0  0  0  2  0  0  0  0  0  0
  180.1850  179.1930  142.7510 C   0  0  0  0  0  3  0  0  0  0  0  0
  180.0630  178.2950  143.9660 C   0  0  0  0  0  2  0  0  0  0  0  0
  179.1730  179.5100  143.8330 C   0  0  0  0  0  2  0  0  0  0  0  0
  192.6020  176.6970  137.9040 O   0  0  0  0  0  0  0  0  0  0  0  0
  193.3900  174.3710  137.5000 C   0  0  0  0  0  1  0  0  0  0  0  0
  194.4540  176.2690  136.5610 O   0  0  0  0  0  0  0  0  0  0  0  0
  193.5210  175.8360  137.2870 C   0  0  0  0  0  0  0  0  0  0  0  0
  1 23  1  6  0  0  0
  1  7  1  0  0  0  0
  2 16  1  0  0  0  0
  3 20  1  0  0  0  0
  4 21  1  0  0  0  0
  5 18  1  0  0  0  0
  5 19  1  0  0  0  0
  6 12  1  6  0  0  0
  6 19  1  0  0  0  0
  7  6  1  0  0  0  0
  8 11  1  0  0  0  0
  9 15  1  0  0  0  0
 10 26  1  0  0  0  0
 10  3  1  0  0  0  0
 11  7  1  0  0  0  0
 11  6  1  0  0  0  0
 12 19  1  0  0  0  0
 13  4  1  0  0  0  0
 13 14  1  0  0  0  0
 14  1  1  0  0  0  0
 15 14  1  0  0  0  0
 15  8  1  0  0  0  0
 16 31  1  0  0  0  0
 16 17  2  0  0  0  0
 18 10  1  0  0  0  0
 19 20  1  0  0  0  0
 21  2  2  0  0  0  0
 21 23  1  0  0  0  0
 22 17  1  0  0  0  0
 23 22  2  0  0  0  0
 24 25  1  0  0  0  0
 25 18  1  0  0  0  0
 26 27  1  0  0  0  0
 27 28  1  0  0  0  0
 28 30  1  0  0  0  0
 28 29  1  0  0  0  0
 30 29  1  0  0  0  0
 33 34  2  0  0  0  0
 34 32  1  0  0  0  0
 34 31  1  0  0  0  0
M  END
>  <MODEL>
9

>  <REMARK>
 VINA RESULT:      -6.2      4.550      9.820
  Name = 
  6 active torsions:
  status: ('A' for Active; 'I' for Inactive)
    1  A    between atoms: C_7  and  C_11
    2  A    between atoms: C_7  and  C_14
    3  A    between atoms: C_14  and  C_16
    4  A    between atoms: O_23  and  C_24
    5  A    between atoms: O_23  and  C_25
    6  A    between atoms: C_28  and  C_29
                            x       y       z     vdW  Elec       q    Type
                         _______ _______ _______ _____ _____    ______ ____

>  <TORSDO>
F 6

$$$$
