=
 OpenBabel10262423043D

 37 38  0  0  1  0  0  0  0  0999 V2000
  188.7950  178.3920  138.7720 C   0  0  0  0  0  0  0  0  0  0  0  0
  191.6060  177.0040  138.4510 C   0  0  0  0  0  2  0  0  0  0  0  0
  189.2640  177.1390  139.4600 C   0  0  1  0  0  3  0  0  0  0  0  0
  188.3170  178.2970  137.3440 C   0  0  1  0  0  3  0  0  0  0  0  0
  190.2410  176.3420  138.5820 C   0  0  1  0  0  3  0  0  0  0  0  0
  188.3760  176.8480  136.8150 C   0  0  2  0  0  3  0  0  0  0  0  0
  191.3210  173.7940  137.0710 S   0  0  0  0  0  0  0  0  0  0  0  0
  192.7030  175.9840  138.1490 C   0  0  0  0  0  2  0  0  0  0  0  0
  188.8350  179.4740  139.3390 O   0  0  0  0  0  0  0  0  0  0  0  0
  189.6990  176.1230  137.1620 C   0  0  2  0  0  3  0  0  0  0  0  0
  192.5020  175.1820  136.8560 C   0  0  2  0  0  3  0  0  0  0  0  0
  189.7120  174.6420  136.7680 C   0  0  2  0  0  3  0  0  0  0  0  0
  192.1890  175.9930  135.7630 O   0  0  0  0  0  0  0  0  0  0  0  0
  193.3500  176.2590  135.2030 O   0  0  0  0  0  1  0  0  0  0  0  0
  188.1340  176.8200  135.3310 C   0  0  0  0  0  0  0  0  0  0  0  0
  188.8180  177.5180  134.5990 O   0  0  0  0  0  0  0  0  0  0  0  0
  187.0550  175.9610  134.7470 C   0  0  0  0  0  2  0  0  0  0  0  0
  185.7960  176.7080  134.6690 C   0  0  0  0  0  0  0  0  0  0  0  0
  184.7600  177.3220  134.6020 C   0  0  0  0  0  3  0  0  0  0  0  0
  190.5370  176.1400  141.4280 C   0  0  0  0  0  1  0  0  0  0  0  0
  189.6170  177.2540  140.9550 C   0  0  2  0  0  3  0  0  0  0  0  0
  188.3630  177.2780  141.8170 C   0  0  0  0  0  2  0  0  0  0  0  0
  188.6580  176.7520  143.2120 C   0  0  0  0  0  2  0  0  0  0  0  0
  190.0840  178.2070  144.4200 F   0  0  0  0  0  0  0  0  0  0  0  0
  188.7520  177.9010  144.1940 C   0  0  2  0  0  3  0  0  0  0  0  0
  188.0870  177.4960  145.4980 C   0  0  0  0  0  2  0  0  0  0  0  0
  186.5720  177.4580  145.3550 C   0  0  0  0  0  2  0  0  0  0  0  0
  185.4260  178.7910  146.9730 O   0  0  0  0  0  1  0  0  0  0  0  0
  185.9510  178.8070  145.6810 C   0  0  0  0  0  2  0  0  0  0  0  0
  188.5950  173.8830  137.4830 C   0  0  0  0  0  2  0  0  0  0  0  0
  187.9280  172.8510  136.5830 C   0  0  0  0  0  0  0  0  0  0  0  0
  188.2020  171.5720  137.0290 F   0  0  0  0  0  0  0  0  0  0  0  0
  188.3770  172.9930  135.2830 F   0  0  0  0  0  0  0  0  0  0  0  0
  186.4300  173.0710  136.6140 C   0  0  0  0  0  1  0  0  0  0  0  0
  186.8920  178.8270  137.2300 C   0  0  0  0  0  2  0  0  0  0  0  0
  185.9820  178.0550  138.1240 C   0  0  0  0  0  3  0  0  0  0  0  0
  184.8220  178.5820  138.5030 C   0  0  0  0  0  2  0  0  0  0  0  0
  1  9  2  0  0  0  0
  1  3  1  0  0  0  0
  3 21  1  1  0  0  0
  4 35  1  1  0  0  0
  4  1  1  0  0  0  0
  5  2  1  6  0  0  0
  5  3  1  0  0  0  0
  6 15  1  6  0  0  0
  6 10  1  0  0  0  0
  6  4  1  0  0  0  0
  8  2  1  0  0  0  0
 10  5  1  0  0  0  0
 11  7  1  0  0  0  0
 11  8  1  0  0  0  0
 12  7  1  0  0  0  0
 12 10  1  0  0  0  0
 12 30  1  0  0  0  0
 13 11  1  0  0  0  0
 14 13  1  0  0  0  0
 16 15  2  0  0  0  0
 17 15  1  0  0  0  0
 18 17  1  0  0  0  0
 19 18  3  0  0  0  0
 21 20  1  0  0  0  0
 21 22  1  0  0  0  0
 22 23  1  0  0  0  0
 23 25  1  0  0  0  0
 25 24  1  0  0  0  0
 25 26  1  0  0  0  0
 27 26  1  0  0  0  0
 27 29  1  0  0  0  0
 29 28  1  0  0  0  0
 31 34  1  0  0  0  0
 31 32  1  0  0  0  0
 31 30  1  0  0  0  0
 33 31  1  0  0  0  0
 35 36  1  0  0  0  0
 36 37  2  0  0  0  0
M  END
>  <MODEL>
1

>  <REMARK>
 VINA RESULT:      -5.0      0.000      0.000
  Name = 
  15 active torsions:
  status: ('A' for Active; 'I' for Inactive)
    1  A    between atoms: C_1  and  C_5
    2  A    between atoms: C_1  and  C_36
    3  A    between atoms: C_2  and  C_18
    4  A    between atoms: C_2  and  C_35
    5  A    between atoms: C_3  and  C_32
    6  A    between atoms: C_6  and  C_31
    7  A    between atoms: C_6  and  C_35
    8  A    between atoms: C_9  and  C_13
    9  A    between atoms: C_9  and  C_16
   10  A    between atoms: C_10  and  C_37
   11  A    between atoms: O_11  and  C_33
   12  A    between atoms: C_18  and  C_19
   13  A    between atoms: C_20  and  C_21
   14  A    between atoms: C_21  and  C_32
   15  A    between atoms: C_31  and  C_37
                            x       y       z     vdW  Elec       q    Type
                         _______ _______ _______ _____ _____    ______ ____

>  <TORSDO>
F 15

$$$$
=
 OpenBabel10262423043D

 37 38  0  0  1  0  0  0  0  0999 V2000
  183.4300  180.0590  138.8910 C   0  0  0  0  0  0  0  0  0  0  0  0
  185.0570  177.7880  137.4340 C   0  0  0  0  0  2  0  0  0  0  0  0
  184.0730  178.8610  139.5320 C   0  0  1  0  0  3  0  0  0  0  0  0
  182.1020  179.8830  138.1990 C   0  0  1  0  0  3  0  0  0  0  0  0
  184.0770  177.6460  138.5900 C   0  0  1  0  0  3  0  0  0  0  0  0
  181.5950  178.4280  138.2930 C   0  0  2  0  0  3  0  0  0  0  0  0
  183.4940  174.6650  137.7470 S   0  0  0  0  0  0  0  0  0  0  0  0
  185.5090  176.4260  136.9060 C   0  0  0  0  0  2  0  0  0  0  0  0
  183.9870  181.1480  138.8920 O   0  0  0  0  0  0  0  0  0  0  0  0
  182.6910  177.3770  137.9860 C   0  0  2  0  0  3  0  0  0  0  0  0
  184.3800  175.5260  136.3890 C   0  0  2  0  0  3  0  0  0  0  0  0
  182.2380  175.9310  138.2160 C   0  0  2  0  0  3  0  0  0  0  0  0
  183.5150  176.1930  135.5180 O   0  0  0  0  0  0  0  0  0  0  0  0
  182.9390  175.2350  134.8220 O   0  0  0  0  0  1  0  0  0  0  0  0
  180.4060  178.2250  137.3940 C   0  0  0  0  0  0  0  0  0  0  0  0
  179.2820  178.2530  137.8700 O   0  0  0  0  0  0  0  0  0  0  0  0
  180.5880  177.9720  135.9290 C   0  0  0  0  0  2  0  0  0  0  0  0
  180.6480  179.2400  135.1960 C   0  0  0  0  0  0  0  0  0  0  0  0
  180.7000  180.2830  134.5940 C   0  0  0  0  0  3  0  0  0  0  0  0
  186.4820  178.1500  139.9680 C   0  0  0  0  0  1  0  0  0  0  0  0
  185.3620  179.1080  140.3410 C   0  0  2  0  0  3  0  0  0  0  0  0
  185.0970  179.0220  141.8380 C   0  0  0  0  0  2  0  0  0  0  0  0
  183.6530  178.6340  142.1080 C   0  0  0  0  0  2  0  0  0  0  0  0
  182.3320  179.4500  143.8970 F   0  0  0  0  0  0  0  0  0  0  0  0
  183.3900  178.6070  143.6000 C   0  0  2  0  0  3  0  0  0  0  0  0
  184.6390  179.0680  144.3320 C   0  0  0  0  0  2  0  0  0  0  0  0
  184.7880  178.3550  145.6690 C   0  0  0  0  0  2  0  0  0  0  0  0
  185.7300  179.7080  147.3980 O   0  0  0  0  0  1  0  0  0  0  0  0
  186.0510  178.7950  146.3930 C   0  0  0  0  0  2  0  0  0  0  0  0
  181.8220  175.7190  139.6700 C   0  0  0  0  0  2  0  0  0  0  0  0
  180.3630  175.3010  139.7990 C   0  0  0  0  0  0  0  0  0  0  0  0
  179.5840  176.3770  140.1790 F   0  0  0  0  0  0  0  0  0  0  0  0
  180.2390  174.2880  140.7320 F   0  0  0  0  0  0  0  0  0  0  0  0
  179.8800  174.7950  138.4560 C   0  0  0  0  0  1  0  0  0  0  0  0
  181.0660  180.8260  138.8010 C   0  0  0  0  0  2  0  0  0  0  0  0
  180.7990  181.9610  137.8730 C   0  0  0  0  0  3  0  0  0  0  0  0
  179.5470  182.3000  137.5820 C   0  0  0  0  0  2  0  0  0  0  0  0
  1  9  2  0  0  0  0
  1  3  1  0  0  0  0
  3 21  1  6  0  0  0
  4  6  1  0  0  0  0
  4 35  1  1  0  0  0
  4  1  1  0  0  0  0
  5  2  1  6  0  0  0
  5  3  1  0  0  0  0
  6 15  1  6  0  0  0
  7 12  1  0  0  0  0
  8  2  1  0  0  0  0
 10 12  1  0  0  0  0
 10  6  1  0  0  0  0
 10  5  1  0  0  0  0
 11  8  1  0  0  0  0
 11  7  1  0  0  0  0
 12 30  1  0  0  0  0
 13 11  1  0  0  0  0
 14 13  1  0  0  0  0
 15 16  2  0  0  0  0
 17 15  1  0  0  0  0
 18 17  1  0  0  0  0
 19 18  3  0  0  0  0
 20 21  1  0  0  0  0
 21 22  1  0  0  0  0
 22 23  1  0  0  0  0
 23 25  1  0  0  0  0
 25 24  1  0  0  0  0
 25 26  1  0  0  0  0
 26 27  1  0  0  0  0
 27 29  1  0  0  0  0
 29 28  1  0  0  0  0
 30 31  1  0  0  0  0
 31 32  1  0  0  0  0
 31 33  1  0  0  0  0
 34 31  1  0  0  0  0
 36 35  1  0  0  0  0
 37 36  2  0  0  0  0
M  END
>  <MODEL>
2

>  <REMARK>
 VINA RESULT:      -4.8      4.987      6.827
  Name = 
  15 active torsions:
  status: ('A' for Active; 'I' for Inactive)
    1  A    between atoms: C_1  and  C_5
    2  A    between atoms: C_1  and  C_36
    3  A    between atoms: C_2  and  C_18
    4  A    between atoms: C_2  and  C_35
    5  A    between atoms: C_3  and  C_32
    6  A    between atoms: C_6  and  C_31
    7  A    between atoms: C_6  and  C_35
    8  A    between atoms: C_9  and  C_13
    9  A    between atoms: C_9  and  C_16
   10  A    between atoms: C_10  and  C_37
   11  A    between atoms: O_11  and  C_33
   12  A    between atoms: C_18  and  C_19
   13  A    between atoms: C_20  and  C_21
   14  A    between atoms: C_21  and  C_32
   15  A    between atoms: C_31  and  C_37
                            x       y       z     vdW  Elec       q    Type
                         _______ _______ _______ _____ _____    ______ ____

>  <TORSDO>
F 15

$$$$
=
 OpenBabel10262423043D

 37 38  0  0  1  0  0  0  0  0999 V2000
  188.6290  178.2960  138.7590 C   0  0  0  0  0  0  0  0  0  0  0  0
  191.4730  176.9930  138.3800 C   0  0  0  0  0  2  0  0  0  0  0  0
  189.1540  177.0650  139.4450 C   0  0  1  0  0  3  0  0  0  0  0  0
  188.1200  178.1740  137.3450 C   0  0  1  0  0  3  0  0  0  0  0  0
  190.1340  176.2900  138.5510 C   0  0  1  0  0  3  0  0  0  0  0  0
  188.2100  176.7220  136.8260 C   0  0  2  0  0  3  0  0  0  0  0  0
  191.2550  173.7630  137.0350 S   0  0  0  0  0  0  0  0  0  0  0  0
  192.5940  176.0050  138.0590 C   0  0  0  0  0  2  0  0  0  0  0  0
  188.6500  179.3840  139.3160 O   0  0  0  0  0  0  0  0  0  0  0  0
  189.5640  176.0420  137.1460 C   0  0  2  0  0  3  0  0  0  0  0  0
  192.3860  175.1860  136.7790 C   0  0  2  0  0  3  0  0  0  0  0  0
  189.6130  174.5580  136.7650 C   0  0  2  0  0  3  0  0  0  0  0  0
  192.0210  175.9760  135.6860 O   0  0  0  0  0  0  0  0  0  0  0  0
  193.1580  176.2660  135.0910 O   0  0  0  0  0  1  0  0  0  0  0  0
  187.9330  176.6720  135.3490 C   0  0  0  0  0  0  0  0  0  0  0  0
  188.5710  177.3900  134.5950 O   0  0  0  0  0  0  0  0  0  0  0  0
  186.8730  175.7690  134.7990 C   0  0  0  0  0  2  0  0  0  0  0  0
  185.7940  175.5950  135.7750 C   0  0  0  0  0  0  0  0  0  0  0  0
  184.9070  175.4510  136.5790 C   0  0  0  0  0  3  0  0  0  0  0  0
  190.5550  176.1620  141.3730 C   0  0  0  0  0  1  0  0  0  0  0  0
  189.5410  177.2050  140.9300 C   0  0  2  0  0  3  0  0  0  0  0  0
  188.3130  177.1330  141.8280 C   0  0  0  0  0  2  0  0  0  0  0  0
  188.5690  177.8430  143.1470 C   0  0  0  0  0  2  0  0  0  0  0  0
  187.0230  176.7820  144.5950 F   0  0  0  0  0  0  0  0  0  0  0  0
  188.3730  176.8830  144.3030 C   0  0  2  0  0  3  0  0  0  0  0  0
  189.1270  177.4050  145.5150 C   0  0  0  0  0  2  0  0  0  0  0  0
  190.5430  177.8230  145.1440 C   0  0  0  0  0  2  0  0  0  0  0  0
  191.8670  176.8570  146.8830 O   0  0  0  0  0  1  0  0  0  0  0  0
  191.5530  176.7530  145.5270 C   0  0  0  0  0  2  0  0  0  0  0  0
  188.5390  173.7720  137.5150 C   0  0  0  0  0  2  0  0  0  0  0  0
  187.9980  172.6060  136.6960 C   0  0  0  0  0  0  0  0  0  0  0  0
  186.6160  172.6070  136.7060 F   0  0  0  0  0  0  0  0  0  0  0  0
  188.4630  171.4090  137.2080 F   0  0  0  0  0  0  0  0  0  0  0  0
  188.4780  172.7500  135.2670 C   0  0  0  0  0  1  0  0  0  0  0  0
  186.6760  178.6570  137.2610 C   0  0  0  0  0  2  0  0  0  0  0  0
  185.8820  178.1100  138.3990 C   0  0  0  0  0  3  0  0  0  0  0  0
  184.8250  178.7770  138.8510 C   0  0  0  0  0  2  0  0  0  0  0  0
  1  9  2  0  0  0  0
  1  3  1  0  0  0  0
  3 21  1  1  0  0  0
  4 35  1  1  0  0  0
  4  1  1  0  0  0  0
  5  2  1  6  0  0  0
  5  3  1  0  0  0  0
  6 15  1  6  0  0  0
  6 10  1  0  0  0  0
  6  4  1  0  0  0  0
  8  2  1  0  0  0  0
 10  5  1  0  0  0  0
 11  7  1  0  0  0  0
 11  8  1  0  0  0  0
 12  7  1  0  0  0  0
 12 10  1  0  0  0  0
 12 30  1  0  0  0  0
 13 11  1  0  0  0  0
 14 13  1  0  0  0  0
 16 15  2  0  0  0  0
 17 15  1  0  0  0  0
 17 18  1  0  0  0  0
 18 19  3  0  0  0  0
 21 20  1  0  0  0  0
 21 22  1  0  0  0  0
 22 23  1  0  0  0  0
 23 25  1  0  0  0  0
 25 24  1  0  0  0  0
 25 26  1  0  0  0  0
 27 26  1  0  0  0  0
 27 29  1  0  0  0  0
 29 28  1  0  0  0  0
 31 32  1  0  0  0  0
 31 33  1  0  0  0  0
 31 30  1  0  0  0  0
 34 31  1  0  0  0  0
 35 36  1  0  0  0  0
 36 37  2  0  0  0  0
M  END
>  <MODEL>
3

>  <REMARK>
 VINA RESULT:      -4.7      1.584      1.936
  Name = 
  15 active torsions:
  status: ('A' for Active; 'I' for Inactive)
    1  A    between atoms: C_1  and  C_5
    2  A    between atoms: C_1  and  C_36
    3  A    between atoms: C_2  and  C_18
    4  A    between atoms: C_2  and  C_35
    5  A    between atoms: C_3  and  C_32
    6  A    between atoms: C_6  and  C_31
    7  A    between atoms: C_6  and  C_35
    8  A    between atoms: C_9  and  C_13
    9  A    between atoms: C_9  and  C_16
   10  A    between atoms: C_10  and  C_37
   11  A    between atoms: O_11  and  C_33
   12  A    between atoms: C_18  and  C_19
   13  A    between atoms: C_20  and  C_21
   14  A    between atoms: C_21  and  C_32
   15  A    between atoms: C_31  and  C_37
                            x       y       z     vdW  Elec       q    Type
                         _______ _______ _______ _____ _____    ______ ____

>  <TORSDO>
F 15

$$$$
=
 OpenBabel10262423043D

 37 38  0  0  1  0  0  0  0  0999 V2000
  184.1370  177.9870  138.3680 C   0  0  0  0  0  0  0  0  0  0  0  0
  182.4000  178.2200  135.7500 C   0  0  0  0  0  2  0  0  0  0  0  0
  184.2630  177.1470  137.1270 C   0  0  1  0  0  3  0  0  0  0  0  0
  183.0420  177.6630  139.3540 C   0  0  1  0  0  3  0  0  0  0  0  0
  182.9070  176.9570  136.4310 C   0  0  1  0  0  3  0  0  0  0  0  0
  182.2080  176.4440  138.9030 C   0  0  2  0  0  3  0  0  0  0  0  0
  180.5360  175.3100  135.1630 S   0  0  0  0  0  0  0  0  0  0  0  0
  181.4520  177.8990  134.5940 C   0  0  0  0  0  2  0  0  0  0  0  0
  184.8790  178.9400  138.5610 O   0  0  0  0  0  0  0  0  0  0  0  0
  181.8140  176.4920  137.4060 C   0  0  2  0  0  3  0  0  0  0  0  0
  180.2000  177.1060  134.9880 C   0  0  2  0  0  3  0  0  0  0  0  0
  181.1120  175.2220  136.9130 C   0  0  2  0  0  3  0  0  0  0  0  0
  179.5480  177.6450  136.1000 O   0  0  0  0  0  0  0  0  0  0  0  0
  178.9340  178.7140  135.6390 O   0  0  0  0  0  1  0  0  0  0  0  0
  180.9850  176.2960  139.7640 C   0  0  0  0  0  0  0  0  0  0  0  0
  180.7840  175.2410  140.3460 O   0  0  0  0  0  0  0  0  0  0  0  0
  180.0030  177.4180  139.8990 C   0  0  0  0  0  2  0  0  0  0  0  0
  179.8860  177.8280  141.3010 C   0  0  0  0  0  0  0  0  0  0  0  0
  179.7920  178.1650  142.4550 C   0  0  0  0  0  3  0  0  0  0  0  0
  185.3480  176.7570  134.8550 C   0  0  0  0  0  1  0  0  0  0  0  0
  185.4730  177.4260  136.2140 C   0  0  2  0  0  3  0  0  0  0  0  0
  186.7740  176.9940  136.8760 C   0  0  0  0  0  2  0  0  0  0  0  0
  187.9360  177.8360  136.3780 C   0  0  0  0  0  2  0  0  0  0  0  0
  189.2660  179.6720  137.0660 F   0  0  0  0  0  0  0  0  0  0  0  0
  188.5920  178.5580  137.5380 C   0  0  2  0  0  3  0  0  0  0  0  0
  189.5680  177.6150  138.2220 C   0  0  0  0  0  2  0  0  0  0  0  0
  189.5610  177.8140  139.7310 C   0  0  0  0  0  2  0  0  0  0  0  0
  188.2720  178.7430  141.5160 O   0  0  0  0  0  1  0  0  0  0  0  0
  188.1800  178.2090  140.2300 C   0  0  0  0  0  2  0  0  0  0  0  0
  182.0130  174.0020  137.0900 C   0  0  0  0  0  2  0  0  0  0  0  0
  181.2230  172.7010  137.1350 C   0  0  0  0  0  0  0  0  0  0  0  0
  181.9890  171.6880  137.6790 F   0  0  0  0  0  0  0  0  0  0  0  0
  180.8220  172.3430  135.8610 F   0  0  0  0  0  0  0  0  0  0  0  0
  179.9950  172.9050  137.9980 C   0  0  0  0  0  1  0  0  0  0  0  0
  183.6370  177.3940  140.7310 C   0  0  0  0  0  2  0  0  0  0  0  0
  183.4440  178.5790  141.6160 C   0  0  0  0  0  3  0  0  0  0  0  0
  183.9570  178.5810  142.8420 C   0  0  0  0  0  2  0  0  0  0  0  0
  1  9  2  0  0  0  0
  1  4  1  0  0  0  0
  3 21  1  6  0  0  0
  3  1  1  0  0  0  0
  4 35  1  1  0  0  0
  5  2  1  1  0  0  0
  5  3  1  0  0  0  0
  5 10  1  0  0  0  0
  6  4  1  0  0  0  0
  6 15  1  1  0  0  0
  7 12  1  0  0  0  0
  8 11  1  0  0  0  0
  8  2  1  0  0  0  0
 10  6  1  0  0  0  0
 11  7  1  0  0  0  0
 11 13  1  0  0  0  0
 12 30  1  0  0  0  0
 12 10  1  0  0  0  0
 14 13  1  0  0  0  0
 15 17  1  0  0  0  0
 15 16  2  0  0  0  0
 17 18  1  0  0  0  0
 18 19  3  0  0  0  0
 20 21  1  0  0  0  0
 21 22  1  0  0  0  0
 23 22  1  0  0  0  0
 23 25  1  0  0  0  0
 24 25  1  0  0  0  0
 25 26  1  0  0  0  0
 26 27  1  0  0  0  0
 27 29  1  0  0  0  0
 29 28  1  0  0  0  0
 30 31  1  0  0  0  0
 31 32  1  0  0  0  0
 31 34  1  0  0  0  0
 33 31  1  0  0  0  0
 35 36  1  0  0  0  0
 36 37  2  0  0  0  0
M  END
>  <MODEL>
4

>  <REMARK>
 VINA RESULT:      -4.1      4.980      8.056
  Name = 
  15 active torsions:
  status: ('A' for Active; 'I' for Inactive)
    1  A    between atoms: C_1  and  C_5
    2  A    between atoms: C_1  and  C_36
    3  A    between atoms: C_2  and  C_18
    4  A    between atoms: C_2  and  C_35
    5  A    between atoms: C_3  and  C_32
    6  A    between atoms: C_6  and  C_31
    7  A    between atoms: C_6  and  C_35
    8  A    between atoms: C_9  and  C_13
    9  A    between atoms: C_9  and  C_16
   10  A    between atoms: C_10  and  C_37
   11  A    between atoms: O_11  and  C_33
   12  A    between atoms: C_18  and  C_19
   13  A    between atoms: C_20  and  C_21
   14  A    between atoms: C_21  and  C_32
   15  A    between atoms: C_31  and  C_37
                            x       y       z     vdW  Elec       q    Type
                         _______ _______ _______ _____ _____    ______ ____

>  <TORSDO>
F 15

$$$$
=
 OpenBabel10262423043D

 37 38  0  0  1  0  0  0  0  0999 V2000
  183.7780  178.9570  140.0200 C   0  0  0  0  0  0  0  0  0  0  0  0
  182.0180  179.8020  137.5470 C   0  0  0  0  0  2  0  0  0  0  0  0
  183.6690  178.2360  138.7050 C   0  0  1  0  0  3  0  0  0  0  0  0
  182.6830  178.7710  141.0400 C   0  0  1  0  0  3  0  0  0  0  0  0
  182.2740  178.4000  138.0820 C   0  0  1  0  0  3  0  0  0  0  0  0
  181.5910  177.8010  140.5380 C   0  0  2  0  0  3  0  0  0  0  0  0
  179.5560  177.4130  136.8270 S   0  0  0  0  0  0  0  0  0  0  0  0
  180.9740  179.8000  136.4300 C   0  0  0  0  0  2  0  0  0  0  0  0
  184.7120  179.7130  140.2480 O   0  0  0  0  0  0  0  0  0  0  0  0
  181.1520  178.0780  139.0790 C   0  0  2  0  0  3  0  0  0  0  0  0
  179.6000  179.2480  136.8310 C   0  0  2  0  0  3  0  0  0  0  0  0
  180.1750  177.0360  138.5230 C   0  0  2  0  0  3  0  0  0  0  0  0
  179.1260  179.7970  138.0250 O   0  0  0  0  0  0  0  0  0  0  0  0
  178.9310  181.0700  137.7500 O   0  0  0  0  0  1  0  0  0  0  0  0
  180.4020  177.8260  141.4590 C   0  0  0  0  0  0  0  0  0  0  0  0
  180.0530  176.7950  142.0140 O   0  0  0  0  0  0  0  0  0  0  0  0
  179.6350  179.0910  141.6850 C   0  0  0  0  0  2  0  0  0  0  0  0
  179.3090  179.2430  143.1060 C   0  0  0  0  0  0  0  0  0  0  0  0
  179.0390  179.3680  144.2740 C   0  0  0  0  0  3  0  0  0  0  0  0
  184.7610  177.4040  136.5580 C   0  0  0  0  0  1  0  0  0  0  0  0
  184.8700  178.3480  137.7450 C   0  0  2  0  0  3  0  0  0  0  0  0
  186.1830  178.0990  138.4740 C   0  0  0  0  0  2  0  0  0  0  0  0
  187.0670  177.1500  137.6830 C   0  0  0  0  0  2  0  0  0  0  0  0
  189.3360  176.7300  137.1470 F   0  0  0  0  0  0  0  0  0  0  0  0
  188.4620  177.7270  137.5470 C   0  0  2  0  0  3  0  0  0  0  0  0
  188.8980  178.2900  138.8890 C   0  0  0  0  0  2  0  0  0  0  0  0
  190.0600  177.4940  139.4680 C   0  0  0  0  0  2  0  0  0  0  0  0
  188.5290  177.4740  141.3030 O   0  0  0  0  0  1  0  0  0  0  0  0
  189.8520  177.2080  140.9470 C   0  0  0  0  0  2  0  0  0  0  0  0
  180.8050  175.6440  138.5360 C   0  0  0  0  0  2  0  0  0  0  0  0
  179.7610  174.5380  138.6300 C   0  0  0  0  0  0  0  0  0  0  0  0
  180.3730  173.3020  138.7110 F   0  0  0  0  0  0  0  0  0  0  0  0
  178.9310  174.5720  137.5250 F   0  0  0  0  0  0  0  0  0  0  0  0
  178.9310  174.7570  139.8770 C   0  0  0  0  0  1  0  0  0  0  0  0
  183.2660  178.2510  142.3490 C   0  0  0  0  0  2  0  0  0  0  0  0
  183.0570  179.2460  143.4400 C   0  0  0  0  0  3  0  0  0  0  0  0
  182.7420  178.8330  144.6630 C   0  0  0  0  0  2  0  0  0  0  0  0
  1  9  2  0  0  0  0
  1  4  1  0  0  0  0
  3 21  1  6  0  0  0
  3  1  1  0  0  0  0
  4 35  1  1  0  0  0
  5  2  1  1  0  0  0
  5  3  1  0  0  0  0
  5 10  1  0  0  0  0
  6  4  1  0  0  0  0
  6 15  1  1  0  0  0
  7 11  1  0  0  0  0
  7 12  1  0  0  0  0
  8 11  1  0  0  0  0
  8  2  1  0  0  0  0
 10  6  1  0  0  0  0
 11 13  1  0  0  0  0
 12 30  1  0  0  0  0
 12 10  1  0  0  0  0
 14 13  1  0  0  0  0
 15 17  1  0  0  0  0
 15 16  2  0  0  0  0
 17 18  1  0  0  0  0
 18 19  3  0  0  0  0
 20 21  1  0  0  0  0
 21 22  1  0  0  0  0
 23 22  1  0  0  0  0
 24 25  1  0  0  0  0
 25 23  1  0  0  0  0
 25 26  1  0  0  0  0
 26 27  1  0  0  0  0
 27 29  1  0  0  0  0
 29 28  1  0  0  0  0
 30 31  1  0  0  0  0
 31 32  1  0  0  0  0
 31 34  1  0  0  0  0
 33 31  1  0  0  0  0
 35 36  1  0  0  0  0
 36 37  2  0  0  0  0
M  END
>  <MODEL>
5

>  <REMARK>
 VINA RESULT:      -4.1      5.422      8.937
  Name = 
  15 active torsions:
  status: ('A' for Active; 'I' for Inactive)
    1  A    between atoms: C_1  and  C_5
    2  A    between atoms: C_1  and  C_36
    3  A    between atoms: C_2  and  C_18
    4  A    between atoms: C_2  and  C_35
    5  A    between atoms: C_3  and  C_32
    6  A    between atoms: C_6  and  C_31
    7  A    between atoms: C_6  and  C_35
    8  A    between atoms: C_9  and  C_13
    9  A    between atoms: C_9  and  C_16
   10  A    between atoms: C_10  and  C_37
   11  A    between atoms: O_11  and  C_33
   12  A    between atoms: C_18  and  C_19
   13  A    between atoms: C_20  and  C_21
   14  A    between atoms: C_21  and  C_32
   15  A    between atoms: C_31  and  C_37
                            x       y       z     vdW  Elec       q    Type
                         _______ _______ _______ _____ _____    ______ ____

>  <TORSDO>
F 15

$$$$
=
 OpenBabel10262423043D

 37 38  0  0  1  0  0  0  0  0999 V2000
  185.8270  178.5550  139.6580 C   0  0  0  0  0  0  0  0  0  0  0  0
  187.6440  178.8460  137.1000 C   0  0  0  0  0  2  0  0  0  0  0  0
  187.1410  177.8690  139.4050 C   0  0  1  0  0  3  0  0  0  0  0  0
  184.5850  178.0000  139.0070 C   0  0  1  0  0  3  0  0  0  0  0  0
  187.3570  177.5900  137.9100 C   0  0  1  0  0  3  0  0  0  0  0  0
  184.8920  176.7420  138.1650 C   0  0  2  0  0  3  0  0  0  0  0  0
  187.9640  175.8080  135.3800 S   0  0  0  0  0  0  0  0  0  0  0  0
  188.4430  178.5340  135.8350 C   0  0  0  0  0  2  0  0  0  0  0  0
  185.7660  179.5650  140.3430 O   0  0  0  0  0  0  0  0  0  0  0  0
  186.1450  176.8980  137.2680 C   0  0  2  0  0  3  0  0  0  0  0  0
  187.7640  177.5590  134.8660 C   0  0  2  0  0  3  0  0  0  0  0  0
  186.5430  175.6100  136.5380 C   0  0  2  0  0  3  0  0  0  0  0  0
  186.4340  177.8970  134.6060 O   0  0  0  0  0  0  0  0  0  0  0  0
  186.4210  179.2130  134.5940 O   0  0  0  0  0  1  0  0  0  0  0  0
  183.6970  176.3590  137.3360 C   0  0  0  0  0  0  0  0  0  0  0  0
  183.0070  175.4120  137.6810 O   0  0  0  0  0  0  0  0  0  0  0  0
  183.3580  177.1120  136.0870 C   0  0  0  0  0  2  0  0  0  0  0  0
  182.0850  177.8210  136.2490 C   0  0  0  0  0  0  0  0  0  0  0  0
  181.0400  178.4060  136.3830 C   0  0  0  0  0  3  0  0  0  0  0  0
  189.5730  177.4780  140.0580 C   0  0  0  0  0  1  0  0  0  0  0  0
  188.3610  178.3860  140.1920 C   0  0  2  0  0  3  0  0  0  0  0  0
  188.0270  178.5740  141.6650 C   0  0  0  0  0  2  0  0  0  0  0  0
  187.8230  177.2320  142.3470 C   0  0  0  0  0  2  0  0  0  0  0  0
  188.7550  176.4900  144.3940 F   0  0  0  0  0  0  0  0  0  0  0  0
  187.8620  177.3990  143.8530 C   0  0  2  0  0  3  0  0  0  0  0  0
  186.4720  177.1570  144.4150 C   0  0  0  0  0  2  0  0  0  0  0  0
  186.3910  177.5690  145.8780 C   0  0  0  0  0  2  0  0  0  0  0  0
  185.5990  179.2410  147.3900 O   0  0  0  0  0  1  0  0  0  0  0  0
  185.6470  178.8850  146.0420 C   0  0  0  0  0  2  0  0  0  0  0  0
  186.8530  174.4960  137.5370 C   0  0  0  0  0  2  0  0  0  0  0  0
  186.1730  173.1840  137.1670 C   0  0  0  0  0  0  0  0  0  0  0  0
  185.2890  173.3740  136.1220 F   0  0  0  0  0  0  0  0  0  0  0  0
  185.4950  172.6750  138.2600 F   0  0  0  0  0  0  0  0  0  0  0  0
  187.2320  172.1900  136.7390 C   0  0  0  0  0  1  0  0  0  0  0  0
  183.5410  177.6640  140.0660 C   0  0  0  0  0  2  0  0  0  0  0  0
  182.2560  178.3580  139.7620 C   0  0  0  0  0  3  0  0  0  0  0  0
  181.9000  179.4310  140.4610 C   0  0  0  0  0  2  0  0  0  0  0  0
  1  9  2  0  0  0  0
  3  1  1  0  0  0  0
  3 21  1  6  0  0  0
  4  1  1  0  0  0  0
  4 35  1  1  0  0  0
  5  2  1  6  0  0  0
  5  3  1  0  0  0  0
  6 15  1  6  0  0  0
  6  4  1  0  0  0  0
  7 12  1  0  0  0  0
  8  2  1  0  0  0  0
 10  5  1  0  0  0  0
 10  6  1  0  0  0  0
 11  7  1  0  0  0  0
 11  8  1  0  0  0  0
 12 10  1  0  0  0  0
 12 30  1  0  0  0  0
 13 11  1  0  0  0  0
 14 13  1  0  0  0  0
 15 16  2  0  0  0  0
 17 18  1  0  0  0  0
 17 15  1  0  0  0  0
 18 19  3  0  0  0  0
 20 21  1  0  0  0  0
 21 22  1  0  0  0  0
 22 23  1  0  0  0  0
 23 25  1  0  0  0  0
 25 24  1  0  0  0  0
 25 26  1  0  0  0  0
 26 27  1  0  0  0  0
 27 29  1  0  0  0  0
 29 28  1  0  0  0  0
 31 30  1  0  0  0  0
 31 33  1  0  0  0  0
 32 31  1  0  0  0  0
 34 31  1  0  0  0  0
 36 35  1  0  0  0  0
 36 37  2  0  0  0  0
M  END
>  <MODEL>
6

>  <REMARK>
 VINA RESULT:      -4.0      2.629      3.755
  Name = 
  15 active torsions:
  status: ('A' for Active; 'I' for Inactive)
    1  A    between atoms: C_1  and  C_5
    2  A    between atoms: C_1  and  C_36
    3  A    between atoms: C_2  and  C_18
    4  A    between atoms: C_2  and  C_35
    5  A    between atoms: C_3  and  C_32
    6  A    between atoms: C_6  and  C_31
    7  A    between atoms: C_6  and  C_35
    8  A    between atoms: C_9  and  C_13
    9  A    between atoms: C_9  and  C_16
   10  A    between atoms: C_10  and  C_37
   11  A    between atoms: O_11  and  C_33
   12  A    between atoms: C_18  and  C_19
   13  A    between atoms: C_20  and  C_21
   14  A    between atoms: C_21  and  C_32
   15  A    between atoms: C_31  and  C_37
                            x       y       z     vdW  Elec       q    Type
                         _______ _______ _______ _____ _____    ______ ____

>  <TORSDO>
F 15

$$$$
=
 OpenBabel10262423043D

 37 38  0  0  1  0  0  0  0  0999 V2000
  185.4440  178.6930  139.5190 C   0  0  0  0  0  0  0  0  0  0  0  0
  187.5790  178.7340  137.2020 C   0  0  0  0  0  2  0  0  0  0  0  0
  186.7070  177.8810  139.4450 C   0  0  1  0  0  3  0  0  0  0  0  0
  184.2430  178.2360  138.7300 C   0  0  1  0  0  3  0  0  0  0  0  0
  187.0760  177.5360  137.9940 C   0  0  1  0  0  3  0  0  0  0  0  0
  184.5280  176.9300  137.9570 C   0  0  2  0  0  3  0  0  0  0  0  0
  187.8120  175.6280  135.5940 S   0  0  0  0  0  0  0  0  0  0  0  0
  188.4920  178.3100  136.0520 C   0  0  0  0  0  2  0  0  0  0  0  0
  185.3980  179.7260  140.1720 O   0  0  0  0  0  0  0  0  0  0  0  0
  185.8900  176.9400  137.2210 C   0  0  2  0  0  3  0  0  0  0  0  0
  187.8450  177.3720  135.0250 C   0  0  2  0  0  3  0  0  0  0  0  0
  186.2480  175.5990  136.5700 C   0  0  2  0  0  3  0  0  0  0  0  0
  186.5950  177.8240  134.5950 O   0  0  0  0  0  0  0  0  0  0  0  0
  186.6910  179.1370  134.6150 O   0  0  0  0  0  1  0  0  0  0  0  0
  183.4120  176.6340  136.9950 C   0  0  0  0  0  0  0  0  0  0  0  0
  183.3720  177.2190  135.9230 O   0  0  0  0  0  0  0  0  0  0  0  0
  182.3410  175.6470  137.3440 C   0  0  0  0  0  2  0  0  0  0  0  0
  181.8410  174.9870  136.1340 C   0  0  0  0  0  0  0  0  0  0  0  0
  181.4290  174.4450  135.1390 C   0  0  0  0  0  3  0  0  0  0  0  0
  189.1470  177.5310  140.0950 C   0  0  0  0  0  1  0  0  0  0  0  0
  187.8670  178.3060  140.3670 C   0  0  2  0  0  3  0  0  0  0  0  0
  187.4860  178.1600  141.8340 C   0  0  0  0  0  2  0  0  0  0  0  0
  188.2700  177.0330  142.4840 C   0  0  0  0  0  2  0  0  0  0  0  0
  187.3800  178.1860  144.3520 F   0  0  0  0  0  0  0  0  0  0  0  0
  188.0140  177.0130  143.9780 C   0  0  2  0  0  3  0  0  0  0  0  0
  189.3420  176.8870  144.7070 C   0  0  0  0  0  2  0  0  0  0  0  0
  189.8850  178.2540  145.1000 C   0  0  0  0  0  2  0  0  0  0  0  0
  191.5800  177.5010  143.5930 O   0  0  0  0  0  1  0  0  0  0  0  0
  191.1020  178.6250  144.2670 C   0  0  0  0  0  2  0  0  0  0  0  0
  186.3250  174.4920  137.6210 C   0  0  0  0  0  2  0  0  0  0  0  0
  185.6020  173.2260  137.1810 C   0  0  0  0  0  0  0  0  0  0  0  0
  184.6770  173.5150  136.1960 F   0  0  0  0  0  0  0  0  0  0  0  0
  184.9630  172.6430  138.2600 F   0  0  0  0  0  0  0  0  0  0  0  0
  186.6200  172.2510  136.6270 C   0  0  0  0  0  1  0  0  0  0  0  0
  183.0500  178.0320  139.6570 C   0  0  0  0  0  2  0  0  0  0  0  0
  183.5150  177.6160  141.0120 C   0  0  0  0  0  3  0  0  0  0  0  0
  183.1030  178.2800  142.0870 C   0  0  0  0  0  2  0  0  0  0  0  0
  1  9  2  0  0  0  0
  3  1  1  0  0  0  0
  3 21  1  6  0  0  0
  4  1  1  0  0  0  0
  4 35  1  1  0  0  0
  5  2  1  6  0  0  0
  5  3  1  0  0  0  0
  6 15  1  6  0  0  0
  6  4  1  0  0  0  0
  7 12  1  0  0  0  0
  8  2  1  0  0  0  0
 10  6  1  0  0  0  0
 10  5  1  0  0  0  0
 11  7  1  0  0  0  0
 11  8  1  0  0  0  0
 12 10  1  0  0  0  0
 12 30  1  0  0  0  0
 13 14  1  0  0  0  0
 13 11  1  0  0  0  0
 15 17  1  0  0  0  0
 16 15  2  0  0  0  0
 18 17  1  0  0  0  0
 19 18  3  0  0  0  0
 20 21  1  0  0  0  0
 21 22  1  0  0  0  0
 22 23  1  0  0  0  0
 23 25  1  0  0  0  0
 25 24  1  0  0  0  0
 25 26  1  0  0  0  0
 26 27  1  0  0  0  0
 28 29  1  0  0  0  0
 29 27  1  0  0  0  0
 31 30  1  0  0  0  0
 31 33  1  0  0  0  0
 32 31  1  0  0  0  0
 34 31  1  0  0  0  0
 35 36  1  0  0  0  0
 36 37  2  0  0  0  0
M  END
>  <MODEL>
7

>  <REMARK>
 VINA RESULT:      -4.0      3.036      4.138
  Name = 
  15 active torsions:
  status: ('A' for Active; 'I' for Inactive)
    1  A    between atoms: C_1  and  C_5
    2  A    between atoms: C_1  and  C_36
    3  A    between atoms: C_2  and  C_18
    4  A    between atoms: C_2  and  C_35
    5  A    between atoms: C_3  and  C_32
    6  A    between atoms: C_6  and  C_31
    7  A    between atoms: C_6  and  C_35
    8  A    between atoms: C_9  and  C_13
    9  A    between atoms: C_9  and  C_16
   10  A    between atoms: C_10  and  C_37
   11  A    between atoms: O_11  and  C_33
   12  A    between atoms: C_18  and  C_19
   13  A    between atoms: C_20  and  C_21
   14  A    between atoms: C_21  and  C_32
   15  A    between atoms: C_31  and  C_37
                            x       y       z     vdW  Elec       q    Type
                         _______ _______ _______ _____ _____    ______ ____

>  <TORSDO>
F 15

$$$$
=
 OpenBabel10262423043D

 37 38  0  0  1  0  0  0  0  0999 V2000
  187.4290  178.4950  141.4590 C   0  0  0  0  0  0  0  0  0  0  0  0
  189.0820  178.7400  138.7880 C   0  0  0  0  0  2  0  0  0  0  0  0
  188.0870  177.3750  140.7030 C   0  0  1  0  0  3  0  0  0  0  0  0
  186.1020  179.0170  140.9680 C   0  0  1  0  0  3  0  0  0  0  0  0
  188.1050  177.6440  139.1900 C   0  0  1  0  0  3  0  0  0  0  0  0
  185.6130  178.2540  139.7170 C   0  0  2  0  0  3  0  0  0  0  0  0
  187.5580  177.0010  136.1520 S   0  0  0  0  0  0  0  0  0  0  0  0
  189.5500  178.5770  137.3420 C   0  0  0  0  0  2  0  0  0  0  0  0
  187.9720  179.0040  142.4290 O   0  0  0  0  0  0  0  0  0  0  0  0
  186.7220  178.0450  138.6570 C   0  0  2  0  0  3  0  0  0  0  0  0
  188.4320  178.6090  136.2930 C   0  0  2  0  0  3  0  0  0  0  0  0
  186.2870  177.1660  137.4780 C   0  0  2  0  0  3  0  0  0  0  0  0
  187.5570  179.6850  136.4700 O   0  0  0  0  0  0  0  0  0  0  0  0
  186.8030  179.6810  135.3910 O   0  0  0  0  0  1  0  0  0  0  0  0
  184.4260  178.9480  139.1080 C   0  0  0  0  0  0  0  0  0  0  0  0
  184.5070  180.1320  138.8190 O   0  0  0  0  0  0  0  0  0  0  0  0
  183.1450  178.2100  138.8720 C   0  0  0  0  0  2  0  0  0  0  0  0
  182.2400  178.3800  140.0120 C   0  0  0  0  0  0  0  0  0  0  0  0
  181.4970  178.5220  140.9510 C   0  0  0  0  0  3  0  0  0  0  0  0
  189.1020  175.9340  142.5440 C   0  0  0  0  0  1  0  0  0  0  0  0
  189.3730  176.7820  141.3110 C   0  0  2  0  0  3  0  0  0  0  0  0
  190.3750  177.8760  141.6560 C   0  0  0  0  0  2  0  0  0  0  0  0
  191.2040  177.4840  142.8670 C   0  0  0  0  0  2  0  0  0  0  0  0
  192.0730  179.2410  144.1970 F   0  0  0  0  0  0  0  0  0  0  0  0
  190.9520  178.4510  144.0070 C   0  0  2  0  0  3  0  0  0  0  0  0
  190.6550  177.6620  145.2700 C   0  0  0  0  0  2  0  0  0  0  0  0
  189.1990  177.8200  145.6880 C   0  0  0  0  0  2  0  0  0  0  0  0
  188.5370  176.6820  147.6830 O   0  0  0  0  0  1  0  0  0  0  0  0
  189.0620  177.8830  147.2010 C   0  0  0  0  0  2  0  0  0  0  0  0
  185.8750  175.7770  137.9630 C   0  0  0  0  0  2  0  0  0  0  0  0
  184.6210  175.2700  137.2630 C   0  0  0  0  0  0  0  0  0  0  0  0
  184.1760  176.1940  136.3370 F   0  0  0  0  0  0  0  0  0  0  0  0
  183.6240  175.0270  138.1900 F   0  0  0  0  0  0  0  0  0  0  0  0
  184.9520  173.9770  136.5460 C   0  0  0  0  0  1  0  0  0  0  0  0
  185.0550  178.9150  142.0710 C   0  0  0  0  0  2  0  0  0  0  0  0
  185.5240  177.9920  143.1440 C   0  0  0  0  0  3  0  0  0  0  0  0
  185.2380  178.2530  144.4160 C   0  0  0  0  0  2  0  0  0  0  0  0
  1  9  2  0  0  0  0
  3 21  1  1  0  0  0
  3  1  1  0  0  0  0
  4  1  1  0  0  0  0
  4 35  1  1  0  0  0
  5  2  1  1  0  0  0
  5  3  1  0  0  0  0
  6 15  1  6  0  0  0
  6  4  1  0  0  0  0
  7 11  1  0  0  0  0
  7 12  1  0  0  0  0
  8  2  1  0  0  0  0
 10  5  1  0  0  0  0
 10  6  1  0  0  0  0
 11 13  1  0  0  0  0
 11  8  1  0  0  0  0
 12 30  1  0  0  0  0
 12 10  1  0  0  0  0
 14 13  1  0  0  0  0
 16 15  2  0  0  0  0
 17 15  1  0  0  0  0
 17 18  1  0  0  0  0
 18 19  3  0  0  0  0
 21 22  1  0  0  0  0
 21 20  1  0  0  0  0
 22 23  1  0  0  0  0
 23 25  1  0  0  0  0
 25 24  1  0  0  0  0
 25 26  1  0  0  0  0
 26 27  1  0  0  0  0
 27 29  1  0  0  0  0
 29 28  1  0  0  0  0
 31 30  1  0  0  0  0
 31 33  1  0  0  0  0
 32 31  1  0  0  0  0
 34 31  1  0  0  0  0
 35 36  1  0  0  0  0
 36 37  2  0  0  0  0
M  END
>  <MODEL>
8

>  <REMARK>
 VINA RESULT:      -3.9      3.146      4.468
  Name = 
  15 active torsions:
  status: ('A' for Active; 'I' for Inactive)
    1  A    between atoms: C_1  and  C_5
    2  A    between atoms: C_1  and  C_36
    3  A    between atoms: C_2  and  C_18
    4  A    between atoms: C_2  and  C_35
    5  A    between atoms: C_3  and  C_32
    6  A    between atoms: C_6  and  C_31
    7  A    between atoms: C_6  and  C_35
    8  A    between atoms: C_9  and  C_13
    9  A    between atoms: C_9  and  C_16
   10  A    between atoms: C_10  and  C_37
   11  A    between atoms: O_11  and  C_33
   12  A    between atoms: C_18  and  C_19
   13  A    between atoms: C_20  and  C_21
   14  A    between atoms: C_21  and  C_32
   15  A    between atoms: C_31  and  C_37
                            x       y       z     vdW  Elec       q    Type
                         _______ _______ _______ _____ _____    ______ ____

>  <TORSDO>
F 15

$$$$
=
 OpenBabel10262423043D

 37 38  0  0  1  0  0  0  0  0999 V2000
  187.0550  178.5410  140.1050 C   0  0  0  0  0  0  0  0  0  0  0  0
  189.7970  177.9060  138.6880 C   0  0  0  0  0  2  0  0  0  0  0  0
  187.9280  177.3380  140.3320 C   0  0  1  0  0  3  0  0  0  0  0  0
  186.1590  178.5660  138.8920 C   0  0  1  0  0  3  0  0  0  0  0  0
  188.6840  176.9360  139.0560 C   0  0  1  0  0  3  0  0  0  0  0  0
  186.2850  177.2710  138.0590 C   0  0  2  0  0  3  0  0  0  0  0  0
  189.6220  174.9760  136.7720 S   0  0  0  0  0  0  0  0  0  0  0  0
  190.8900  177.2270  137.8630 C   0  0  0  0  0  2  0  0  0  0  0  0
  187.0960  179.5000  140.8620 O   0  0  0  0  0  0  0  0  0  0  0  0
  187.7510  176.8250  137.8400 C   0  0  2  0  0  3  0  0  0  0  0  0
  190.4150  176.6150  136.5400 C   0  0  2  0  0  3  0  0  0  0  0  0
  187.8840  175.4670  137.1410 C   0  0  2  0  0  3  0  0  0  0  0  0
  189.6290  177.4940  135.7910 O   0  0  0  0  0  0  0  0  0  0  0  0
  189.5400  176.9320  134.6040 O   0  0  0  0  0  1  0  0  0  0  0  0
  185.5790  177.4230  136.7410 C   0  0  0  0  0  0  0  0  0  0  0  0
  185.9770  178.2530  135.9390 O   0  0  0  0  0  0  0  0  0  0  0  0
  184.3840  176.5820  136.4100 C   0  0  0  0  0  2  0  0  0  0  0  0
  183.5450  177.2560  135.4150 C   0  0  0  0  0  0  0  0  0  0  0  0
  182.8570  177.8120  134.5970 C   0  0  0  0  0  3  0  0  0  0  0  0
  190.0000  176.4700  141.5340 C   0  0  0  0  0  1  0  0  0  0  0  0
  188.7270  177.2930  141.6490 C   0  0  2  0  0  3  0  0  0  0  0  0
  187.8760  176.7570  142.7920 C   0  0  0  0  0  2  0  0  0  0  0  0
  188.1750  177.5030  144.0810 C   0  0  0  0  0  2  0  0  0  0  0  0
  186.5680  177.1790  145.7910 F   0  0  0  0  0  0  0  0  0  0  0  0
  186.8870  177.9890  144.7140 C   0  0  2  0  0  3  0  0  0  0  0  0
  185.7750  177.9350  143.6800 C   0  0  0  0  0  2  0  0  0  0  0  0
  184.9970  179.2430  143.6390 C   0  0  0  0  0  2  0  0  0  0  0  0
  183.7620  179.0060  145.6710 O   0  0  0  0  0  1  0  0  0  0  0  0
  183.6280  179.0920  144.2840 C   0  0  0  0  0  2  0  0  0  0  0  0
  187.2080  174.3690  137.9600 C   0  0  0  0  0  2  0  0  0  0  0  0
  186.8110  173.1720  137.1060 C   0  0  0  0  0  0  0  0  0  0  0  0
  185.7530  172.4960  137.6840 F   0  0  0  0  0  0  0  0  0  0  0  0
  187.8850  172.3130  136.9620 F   0  0  0  0  0  0  0  0  0  0  0  0
  186.3900  173.6670  135.7380 C   0  0  0  0  0  1  0  0  0  0  0  0
  184.7080  178.7650  139.3130 C   0  0  0  0  0  2  0  0  0  0  0  0
  184.2600  177.6310  140.1710 C   0  0  0  0  0  3  0  0  0  0  0  0
  183.0130  177.5990  140.6310 C   0  0  0  0  0  2  0  0  0  0  0  0
  1  3  1  0  0  0  0
  1  9  2  0  0  0  0
  3 21  1  1  0  0  0
  4 35  1  1  0  0  0
  4  1  1  0  0  0  0
  5  2  1  6  0  0  0
  5  3  1  0  0  0  0
  6 15  1  6  0  0  0
  6  4  1  0  0  0  0
  7 12  1  0  0  0  0
  8  2  1  0  0  0  0
 10  6  1  0  0  0  0
 10  5  1  0  0  0  0
 11  7  1  0  0  0  0
 11  8  1  0  0  0  0
 12 10  1  0  0  0  0
 12 30  1  0  0  0  0
 13 11  1  0  0  0  0
 14 13  1  0  0  0  0
 16 15  2  0  0  0  0
 17 15  1  0  0  0  0
 18 17  1  0  0  0  0
 19 18  3  0  0  0  0
 20 21  1  0  0  0  0
 21 22  1  0  0  0  0
 22 23  1  0  0  0  0
 23 25  1  0  0  0  0
 25 24  1  0  0  0  0
 26 25  1  0  0  0  0
 27 26  1  0  0  0  0
 27 29  1  0  0  0  0
 29 28  1  0  0  0  0
 31 32  1  0  0  0  0
 31 30  1  0  0  0  0
 33 31  1  0  0  0  0
 34 31  1  0  0  0  0
 35 36  1  0  0  0  0
 36 37  2  0  0  0  0
M  END
>  <MODEL>
9

>  <REMARK>
 VINA RESULT:      -3.8      1.803      2.414
  Name = 
  15 active torsions:
  status: ('A' for Active; 'I' for Inactive)
    1  A    between atoms: C_1  and  C_5
    2  A    between atoms: C_1  and  C_36
    3  A    between atoms: C_2  and  C_18
    4  A    between atoms: C_2  and  C_35
    5  A    between atoms: C_3  and  C_32
    6  A    between atoms: C_6  and  C_31
    7  A    between atoms: C_6  and  C_35
    8  A    between atoms: C_9  and  C_13
    9  A    between atoms: C_9  and  C_16
   10  A    between atoms: C_10  and  C_37
   11  A    between atoms: O_11  and  C_33
   12  A    between atoms: C_18  and  C_19
   13  A    between atoms: C_20  and  C_21
   14  A    between atoms: C_21  and  C_32
   15  A    between atoms: C_31  and  C_37
                            x       y       z     vdW  Elec       q    Type
                         _______ _______ _______ _____ _____    ______ ____

>  <TORSDO>
F 15

$$$$
