=
 OpenBabel10262422353D

 43 49  0  0  1  0  0  0  0  0999 V2000
  185.8990  178.3370  147.1270 C   0  0  1  0  0  3  0  0  0  0  0  0
  183.5080  178.3970  142.8120 C   0  0  1  0  0  3  0  0  0  0  0  0
  185.2900  179.1210  140.5760 C   0  0  2  0  0  3  0  0  0  0  0  0
  184.3110  179.0070  145.4430 C   0  0  0  0  0  0  0  0  0  0  0  0
  186.5290  177.3240  146.1470 C   0  0  0  0  0  2  0  0  0  0  0  0
  186.7600  179.5020  147.2470 N   0  0  0  0  0  1  0  0  0  0  0  0
  185.4150  178.8230  144.4270 C   0  0  1  0  0  3  0  0  0  0  0  0
  184.5620  178.7520  146.6890 N   0  0  0  0  0  0  0  0  0  0  0  0
  186.0540  177.4590  144.6840 C   0  0  0  0  0  2  0  0  0  0  0  0
  185.8490  178.5990  141.8970 C   0  0  0  0  0  2  0  0  0  0  0  0
  184.8900  179.0280  143.0000 C   0  0  1  0  0  3  0  0  0  0  0  0
  182.5660  179.0150  143.8060 C   0  0  0  0  0  3  0  0  0  0  0  0
  183.0040  178.4840  141.3840 C   0  0  0  0  0  0  0  0  0  0  0  0
  183.8500  178.7190  140.3620 C   0  0  0  0  0  3  0  0  0  0  0  0
  182.9590  179.2540  145.0230 N   0  0  0  0  0  0  0  0  0  0  0  0
  186.1590  178.7230  139.4300 C   0  0  0  0  0  0  0  0  0  0  0  0
  187.4860  178.2690  139.6960 N   0  0  0  0  0  2  0  0  0  0  0  0
  185.7160  178.7500  138.2500 O   0  0  0  0  0  0  0  0  0  0  0  0
  188.5720  177.7050  138.4200 S   0  0  0  0  0  0  0  0  0  0  0  0
  191.1250  176.7980  138.8990 C   0  0  0  0  0  2  0  0  0  0  0  0
  189.5650  177.0090  140.8670 C   0  0  0  0  0  2  0  0  0  0  0  0
  192.0510  177.4640  141.8780 C   0  0  2  0  0  3  0  0  0  0  0  0
  190.0040  177.6180  139.5380 C   0  0  2  0  0  3  0  0  0  0  0  0
  192.3660  176.7400  139.7780 C   0  0  0  0  0  2  0  0  0  0  0  0
  190.5680  177.0970  142.0380 C   0  0  1  0  0  0  0  0  0  0  0  0
  191.0450  178.4720  142.4410 C   0  0  0  0  0  2  0  0  0  0  0  0
  192.4220  177.8790  140.5890 O   0  0  0  0  0  0  0  0  0  0  0  0
  190.3260  176.2390  143.1440 O   0  0  0  0  0  0  0  0  0  0  0  0
  190.5100  176.6730  144.4530 C   0  0  0  0  0  0  0  0  0  0  0  0
  189.9900  177.0720  145.7020 N   0  0  0  0  0  0  0  0  0  0  0  0
  191.3370  177.0150  145.4810 C   0  0  1  0  0  3  0  0  0  0  0  0
  192.3760  174.8400  145.3530 N   0  0  0  0  0  2  0  0  0  0  0  0
  192.1810  175.7250  147.5720 C   0  0  0  0  0  1  0  0  0  0  0  0
  191.9180  175.7760  146.1000 C   0  0  0  0  0  0  0  0  0  0  0  0
  181.6170  178.0250  141.0630 C   0  0  0  0  0  2  0  0  0  0  0  0
  179.9460  176.9990  137.7940 C   0  0  0  0  0  2  0  0  0  0  0  0
  179.5500  175.6190  138.3400 C   0  0  2  0  0  3  0  0  0  0  0  0
  181.6560  175.8970  139.7380 C   0  0  0  0  0  2  0  0  0  0  0  0
  180.3380  177.9490  138.9200 C   0  0  0  0  0  2  0  0  0  0  0  0
  181.5730  177.4290  139.6670 C   0  0  1  0  0  3  0  0  0  0  0  0
  180.2750  175.2460  139.6450 C   0  0  0  0  0  2  0  0  0  0  0  0
  180.6760  175.0770  136.3040 O   0  0  0  0  0  1  0  0  0  0  0  0
  179.8040  174.5720  137.2710 C   0  0  0  0  0  2  0  0  0  0  0  0
  1  6  1  6  0  0  0
  2 11  1  0  0  0  0
  2 12  1  1  0  0  0
  3 16  1  6  0  0  0
  3 10  1  0  0  0  0
  4  8  2  0  0  0  0
  5  1  1  0  0  0  0
  7  9  1  6  0  0  0
  7  4  1  0  0  0  0
  8  1  1  0  0  0  0
  9  5  1  0  0  0  0
 11 10  1  6  0  0  0
 11  7  1  0  0  0  0
 12 15  2  0  0  0  0
 13  2  1  0  0  0  0
 14  3  1  0  0  0  0
 14 13  2  0  0  0  0
 15  4  1  0  0  0  0
 16 17  1  0  0  0  0
 18 16  2  0  0  0  0
 19 17  1  0  0  0  0
 20 23  1  0  0  0  0
 20 24  1  0  0  0  0
 21 25  1  0  0  0  0
 22 25  1  0  0  0  0
 22 26  1  1  0  0  0
 23 19  1  6  0  0  0
 23 21  1  0  0  0  0
 24 27  1  0  0  0  0
 25 26  1  0  0  0  0
 25 28  1  1  0  0  0
 27 22  1  0  0  0  0
 28 29  1  0  0  0  0
 29 31  1  0  0  0  0
 29 30  2  0  0  0  0
 31 30  1  0  0  0  0
 31 34  1  1  0  0  0
 32 34  2  0  0  0  0
 34 33  1  0  0  0  0
 35 13  1  0  0  0  0
 36 37  1  0  0  0  0
 36 39  1  0  0  0  0
 37 43  1  6  0  0  0
 37 41  1  0  0  0  0
 39 40  1  0  0  0  0
 40 38  1  0  0  0  0
 40 35  1  1  0  0  0
 41 38  1  0  0  0  0
 42 43  1  0  0  0  0
M  END
>  <MODEL>
1

>  <REMARK>
 VINA RESULT:      -8.7      0.000      0.000
  Name = 
  9 active torsions:
  status: ('A' for Active; 'I' for Inactive)
    1  A    between atoms: C_1  and  C_34
    2  A    between atoms: C_1  and  C_35
    3  A    between atoms: C_2  and  C_13
    4  A    between atoms: N_6  and  S_17
    5  A    between atoms: C_11  and  O_14
    6  A    between atoms: C_12  and  S_17
    7  A    between atoms: O_14  and  C_22
    8  A    between atoms: C_19  and  C_37
    9  A    between atoms: C_31  and  C_40
                            x       y       z     vdW  Elec       q    Type
                         _______ _______ _______ _____ _____    ______ ____

>  <TORSDO>
F 9

$$$$
=
 OpenBabel10262422353D

 43 49  0  0  1  0  0  0  0  0999 V2000
  191.6890  176.4320  147.1020 C   0  0  1  0  0  3  0  0  0  0  0  0
  189.0850  177.7560  143.1270 C   0  0  1  0  0  3  0  0  0  0  0  0
  186.1790  177.6150  143.6160 C   0  0  2  0  0  3  0  0  0  0  0  0
  190.8240  176.3670  144.8530 C   0  0  0  0  0  0  0  0  0  0  0  0
  190.7950  177.6490  147.4230 C   0  0  0  0  0  2  0  0  0  0  0  0
  191.1230  175.2370  147.7050 N   0  0  0  0  0  1  0  0  0  0  0  0
  189.4880  176.7760  145.4290 C   0  0  1  0  0  3  0  0  0  0  0  0
  191.8350  176.2350  145.6560 N   0  0  0  0  0  0  0  0  0  0  0  0
  189.7300  177.9710  146.3520 C   0  0  0  0  0  2  0  0  0  0  0  0
  187.1740  177.6990  144.7710 C   0  0  0  0  0  2  0  0  0  0  0  0
  188.4610  177.0230  144.3170 C   0  0  1  0  0  3  0  0  0  0  0  0
  190.2260  176.9300  142.6070 C   0  0  0  0  0  3  0  0  0  0  0  0
  188.0750  178.1150  142.0530 C   0  0  0  0  0  0  0  0  0  0  0  0
  186.7550  178.1400  142.3220 C   0  0  0  0  0  3  0  0  0  0  0  0
  191.0310  176.3270  143.4320 N   0  0  0  0  0  0  0  0  0  0  0  0
  184.8910  178.2790  143.9670 C   0  0  0  0  0  0  0  0  0  0  0  0
  183.8540  178.3350  142.9880 N   0  0  0  0  0  2  0  0  0  0  0  0
  184.7050  178.7470  145.1240 O   0  0  0  0  0  0  0  0  0  0  0  0
  182.2640  179.0310  143.3230 S   0  0  0  0  0  0  0  0  0  0  0  0
  180.6330  178.0690  141.3280 C   0  0  0  0  0  2  0  0  0  0  0  0
  183.0010  178.6790  140.7180 C   0  0  0  0  0  2  0  0  0  0  0  0
  181.5440  179.1470  138.4670 C   0  0  2  0  0  3  0  0  0  0  0  0
  181.7870  179.0420  141.5680 C   0  0  2  0  0  3  0  0  0  0  0  0
  180.1650  178.0820  139.8790 C   0  0  0  0  0  2  0  0  0  0  0  0
  182.8730  178.8950  139.1940 C   0  0  1  0  0  0  0  0  0  0  0  0
  182.5350  180.2870  138.7170 C   0  0  0  0  0  2  0  0  0  0  0  0
  180.4350  179.3300  139.3090 O   0  0  0  0  0  0  0  0  0  0  0  0
  183.8340  178.2390  138.3790 O   0  0  0  0  0  0  0  0  0  0  0  0
  183.6550  176.9240  137.9610 C   0  0  0  0  0  0  0  0  0  0  0  0
  182.8910  175.9330  137.3090 N   0  0  0  0  0  0  0  0  0  0  0  0
  184.1000  175.6390  137.8710 C   0  0  1  0  0  3  0  0  0  0  0  0
  185.0940  176.2800  135.7660 N   0  0  0  0  0  2  0  0  0  0  0  0
  186.4130  174.7650  137.0750 C   0  0  0  0  0  1  0  0  0  0  0  0
  185.1620  175.5420  136.8130 C   0  0  0  0  0  0  0  0  0  0  0  0
  188.5480  178.7230  140.7700 C   0  0  0  0  0  2  0  0  0  0  0  0
  190.1140  176.9170  137.8010 C   0  0  0  0  0  2  0  0  0  0  0  0
  189.4360  177.8440  136.7820 C   0  0  2  0  0  3  0  0  0  0  0  0
  187.6240  177.9860  138.5600 C   0  0  0  0  0  2  0  0  0  0  0  0
  190.0680  177.5090  139.2060 C   0  0  0  0  0  2  0  0  0  0  0  0
  188.6190  177.6640  139.6850 C   0  0  1  0  0  3  0  0  0  0  0  0
  188.3020  178.6910  137.3840 C   0  0  0  0  0  2  0  0  0  0  0  0
  187.9850  177.7420  134.8870 O   0  0  0  0  0  1  0  0  0  0  0  0
  188.9230  177.0120  135.6210 C   0  0  0  0  0  2  0  0  0  0  0  0
  1  5  1  0  0  0  0
  1  6  1  6  0  0  0
  2 12  1  6  0  0  0
  2 11  1  0  0  0  0
  3 16  1  1  0  0  0
  3 10  1  0  0  0  0
  4  7  1  0  0  0  0
  4  8  2  0  0  0  0
  7  9  1  6  0  0  0
  8  1  1  0  0  0  0
  9  5  1  0  0  0  0
 11 10  1  1  0  0  0
 11  7  1  0  0  0  0
 12 15  2  0  0  0  0
 13 14  2  0  0  0  0
 13  2  1  0  0  0  0
 14  3  1  0  0  0  0
 15  4  1  0  0  0  0
 16 18  2  0  0  0  0
 17 19  1  0  0  0  0
 17 16  1  0  0  0  0
 20 23  1  0  0  0  0
 21 23  1  0  0  0  0
 22 26  1  1  0  0  0
 22 25  1  0  0  0  0
 22 27  1  0  0  0  0
 23 19  1  1  0  0  0
 24 20  1  0  0  0  0
 25 28  1  6  0  0  0
 25 21  1  0  0  0  0
 26 25  1  0  0  0  0
 27 24  1  0  0  0  0
 29 28  1  0  0  0  0
 30 31  1  0  0  0  0
 30 29  2  0  0  0  0
 31 34  1  6  0  0  0
 31 29  1  0  0  0  0
 32 34  2  0  0  0  0
 34 33  1  0  0  0  0
 35 13  1  0  0  0  0
 36 39  1  0  0  0  0
 37 43  1  6  0  0  0
 37 41  1  0  0  0  0
 37 36  1  0  0  0  0
 38 40  1  0  0  0  0
 39 40  1  0  0  0  0
 40 35  1  1  0  0  0
 41 38  1  0  0  0  0
 42 43  1  0  0  0  0
M  END
>  <MODEL>
2

>  <REMARK>
 VINA RESULT:      -8.6      2.980      8.312
  Name = 
  9 active torsions:
  status: ('A' for Active; 'I' for Inactive)
    1  A    between atoms: C_1  and  C_34
    2  A    between atoms: C_1  and  C_35
    3  A    between atoms: C_2  and  C_13
    4  A    between atoms: N_6  and  S_17
    5  A    between atoms: C_11  and  O_14
    6  A    between atoms: C_12  and  S_17
    7  A    between atoms: O_14  and  C_22
    8  A    between atoms: C_19  and  C_37
    9  A    between atoms: C_31  and  C_40
                            x       y       z     vdW  Elec       q    Type
                         _______ _______ _______ _____ _____    ______ ____

>  <TORSDO>
F 9

$$$$
=
 OpenBabel10262422353D

 43 49  0  0  1  0  0  0  0  0999 V2000
  189.7860  176.6000  135.8990 C   0  0  1  0  0  3  0  0  0  0  0  0
  189.0780  176.9810  140.7660 C   0  0  1  0  0  3  0  0  0  0  0  0
  186.8520  178.8050  141.4160 C   0  0  2  0  0  3  0  0  0  0  0  0
  190.2470  177.1200  138.2070 C   0  0  0  0  0  0  0  0  0  0  0  0
  188.3610  176.1420  136.2740 C   0  0  0  0  0  2  0  0  0  0  0  0
  189.7300  177.9110  135.2730 N   0  0  0  0  0  1  0  0  0  0  0  0
  188.8120  177.5790  138.3170 C   0  0  1  0  0  3  0  0  0  0  0  0
  190.6650  176.6490  137.0720 N   0  0  0  0  0  0  0  0  0  0  0  0
  187.9290  176.4860  137.7160 C   0  0  0  0  0  2  0  0  0  0  0  0
  186.9810  178.1740  140.0320 C   0  0  0  0  0  2  0  0  0  0  0  0
  188.4660  177.9610  139.7630 C   0  0  1  0  0  3  0  0  0  0  0  0
  190.5680  176.9740  140.5720 C   0  0  0  0  0  3  0  0  0  0  0  0
  188.6680  177.2620  142.1990 C   0  0  0  0  0  0  0  0  0  0  0  0
  187.5880  178.0200  142.4760 C   0  0  0  0  0  3  0  0  0  0  0  0
  191.0750  177.0050  139.3750 N   0  0  0  0  0  0  0  0  0  0  0  0
  185.4220  179.0270  141.7740 C   0  0  0  0  0  0  0  0  0  0  0  0
  184.4070  178.5390  140.8970 N   0  0  0  0  0  2  0  0  0  0  0  0
  185.1130  179.6010  142.8540 O   0  0  0  0  0  0  0  0  0  0  0  0
  182.6830  178.6830  141.2620 S   0  0  0  0  0  0  0  0  0  0  0  0
  183.3720  178.0580  138.6720 C   0  0  0  0  0  2  0  0  0  0  0  0
  181.7260  179.9330  139.0320 C   0  0  0  0  0  2  0  0  0  0  0  0
  181.0430  178.8360  136.6360 C   0  0  2  0  0  3  0  0  0  0  0  0
  182.1990  178.5640  139.5130 C   0  0  2  0  0  3  0  0  0  0  0  0
  182.9970  177.8950  137.2060 C   0  0  0  0  0  2  0  0  0  0  0  0
  181.0210  179.9830  137.6580 C   0  0  1  0  0  0  0  0  0  0  0  0
  179.7950  179.1210  137.4760 C   0  0  0  0  0  2  0  0  0  0  0  0
  181.6260  177.6440  137.0960 O   0  0  0  0  0  0  0  0  0  0  0  0
  180.9050  181.2620  137.0520 O   0  0  0  0  0  0  0  0  0  0  0  0
  180.0030  182.2100  137.5270 C   0  0  0  0  0  0  0  0  0  0  0  0
  179.2690  182.7900  138.5830 N   0  0  0  0  0  0  0  0  0  0  0  0
  179.1840  183.2770  137.3100 C   0  0  1  0  0  3  0  0  0  0  0  0
  179.8620  185.4860  138.0110 N   0  0  0  0  0  2  0  0  0  0  0  0
  181.1450  184.5730  136.2040 C   0  0  0  0  0  1  0  0  0  0  0  0
  180.0040  184.5280  137.1700 C   0  0  0  0  0  0  0  0  0  0  0  0
  189.2810  176.4710  143.3100 C   0  0  0  0  0  2  0  0  0  0  0  0
  190.7700  177.3070  146.7180 C   0  0  0  0  0  2  0  0  0  0  0  0
  189.4330  177.0930  147.4410 C   0  0  2  0  0  3  0  0  0  0  0  0
  188.4510  177.8610  145.2240 C   0  0  0  0  0  2  0  0  0  0  0  0
  190.7460  176.7040  145.3180 C   0  0  0  0  0  2  0  0  0  0  0  0
  189.6890  177.3920  144.4450 C   0  0  1  0  0  3  0  0  0  0  0  0
  188.2260  177.0300  146.4890 C   0  0  0  0  0  2  0  0  0  0  0  0
  187.9020  178.5720  148.5250 O   0  0  0  0  0  1  0  0  0  0  0  0
  189.2450  178.1930  148.4700 C   0  0  0  0  0  2  0  0  0  0  0  0
  1  6  1  1  0  0  0
  1  5  1  0  0  0  0
  1  8  1  0  0  0  0
  2 12  1  1  0  0  0
  2 13  1  0  0  0  0
  3 16  1  1  0  0  0
  3 14  1  0  0  0  0
  4  7  1  0  0  0  0
  4 15  1  0  0  0  0
  5  9  1  0  0  0  0
  7  9  1  1  0  0  0
  7 11  1  0  0  0  0
  8  4  2  0  0  0  0
 10  3  1  0  0  0  0
 11 10  1  6  0  0  0
 11  2  1  0  0  0  0
 13 14  2  0  0  0  0
 13 35  1  0  0  0  0
 15 12  2  0  0  0  0
 16 18  2  0  0  0  0
 17 19  1  0  0  0  0
 17 16  1  0  0  0  0
 20 23  1  0  0  0  0
 21 23  1  0  0  0  0
 22 27  1  0  0  0  0
 22 26  1  1  0  0  0
 22 25  1  0  0  0  0
 23 19  1  1  0  0  0
 24 20  1  0  0  0  0
 25 28  1  6  0  0  0
 25 21  1  0  0  0  0
 26 25  1  0  0  0  0
 27 24  1  0  0  0  0
 28 29  1  0  0  0  0
 29 30  2  0  0  0  0
 31 34  1  1  0  0  0
 31 29  1  0  0  0  0
 31 30  1  0  0  0  0
 33 34  1  0  0  0  0
 34 32  2  0  0  0  0
 36 37  1  0  0  0  0
 37 43  1  1  0  0  0
 38 41  1  0  0  0  0
 39 36  1  0  0  0  0
 40 35  1  6  0  0  0
 40 38  1  0  0  0  0
 40 39  1  0  0  0  0
 41 37  1  0  0  0  0
 43 42  1  0  0  0  0
M  END
>  <MODEL>
3

>  <REMARK>
 VINA RESULT:      -8.5      3.899     10.808
  Name = 
  9 active torsions:
  status: ('A' for Active; 'I' for Inactive)
    1  A    between atoms: C_1  and  C_34
    2  A    between atoms: C_1  and  C_35
    3  A    between atoms: C_2  and  C_13
    4  A    between atoms: N_6  and  S_17
    5  A    between atoms: C_11  and  O_14
    6  A    between atoms: C_12  and  S_17
    7  A    between atoms: O_14  and  C_22
    8  A    between atoms: C_19  and  C_37
    9  A    between atoms: C_31  and  C_40
                            x       y       z     vdW  Elec       q    Type
                         _______ _______ _______ _____ _____    ______ ____

>  <TORSDO>
F 9

$$$$
=
 OpenBabel10262422353D

 43 49  0  0  1  0  0  0  0  0999 V2000
  188.1610  178.1570  137.2420 C   0  0  1  0  0  3  0  0  0  0  0  0
  187.6360  177.5740  142.1120 C   0  0  1  0  0  3  0  0  0  0  0  0
  185.3500  179.1120  143.1660 C   0  0  2  0  0  3  0  0  0  0  0  0
  188.6900  178.2580  139.5910 C   0  0  0  0  0  0  0  0  0  0  0  0
  186.7770  177.5550  137.5670 C   0  0  0  0  0  2  0  0  0  0  0  0
  188.0120  179.5560  136.8790 N   0  0  0  0  0  1  0  0  0  0  0  0
  187.2390  178.6060  139.8320 C   0  0  1  0  0  3  0  0  0  0  0  0
  189.0830  178.0340  138.3760 N   0  0  0  0  0  0  0  0  0  0  0  0
  186.3880  177.5960  139.0620 C   0  0  0  0  0  2  0  0  0  0  0  0
  185.4530  178.7620  141.6840 C   0  0  0  0  0  2  0  0  0  0  0  0
  186.9340  178.6880  141.3330 C   0  0  1  0  0  3  0  0  0  0  0  0
  189.1150  177.6890  141.8750 C   0  0  0  0  0  3  0  0  0  0  0  0
  187.2720  177.5570  143.5850 C   0  0  0  0  0  0  0  0  0  0  0  0
  186.1670  178.1850  144.0340 C   0  0  0  0  0  3  0  0  0  0  0  0
  189.5700  177.9740  140.6900 N   0  0  0  0  0  0  0  0  0  0  0  0
  183.9260  179.1800  143.6040 C   0  0  0  0  0  0  0  0  0  0  0  0
  182.8960  179.0010  142.6330 N   0  0  0  0  0  2  0  0  0  0  0  0
  183.6360  179.3540  144.8190 O   0  0  0  0  0  0  0  0  0  0  0  0
  181.1790  178.9890  143.0560 S   0  0  0  0  0  0  0  0  0  0  0  0
  179.6230  178.1520  140.9470 C   0  0  0  0  0  2  0  0  0  0  0  0
  181.8710  179.1620  140.4210 C   0  0  0  0  0  2  0  0  0  0  0  0
  180.2940  179.7880  138.2920 C   0  0  2  0  0  3  0  0  0  0  0  0
  180.6480  179.2190  141.3320 C   0  0  2  0  0  3  0  0  0  0  0  0
  179.1120  178.3350  139.5260 C   0  0  0  0  0  2  0  0  0  0  0  0
  181.6680  179.6020  138.9540 C   0  0  1  0  0  0  0  0  0  0  0  0
  181.1360  180.9950  138.7150 C   0  0  0  0  0  2  0  0  0  0  0  0
  179.1980  179.6840  139.1640 O   0  0  0  0  0  0  0  0  0  0  0  0
  182.6790  179.2210  138.0330 O   0  0  0  0  0  0  0  0  0  0  0  0
  182.6020  178.0240  137.3250 C   0  0  0  0  0  0  0  0  0  0  0  0
  183.0270  177.1890  136.2710 N   0  0  0  0  0  0  0  0  0  0  0  0
  182.0620  176.7860  137.1490 C   0  0  1  0  0  3  0  0  0  0  0  0
  183.7990  175.3230  137.9710 N   0  0  0  0  0  2  0  0  0  0  0  0
  181.9700  175.6550  139.4860 C   0  0  0  0  0  1  0  0  0  0  0  0
  182.6370  175.8330  138.1590 C   0  0  0  0  0  0  0  0  0  0  0  0
  187.9690  176.6070  144.5060 C   0  0  0  0  0  2  0  0  0  0  0  0
  191.5530  176.7520  145.7970 C   0  0  0  0  0  2  0  0  0  0  0  0
  191.1450  176.3010  147.2070 C   0  0  2  0  0  3  0  0  0  0  0  0
  188.9670  177.4820  146.6330 C   0  0  0  0  0  2  0  0  0  0  0  0
  190.4470  176.4760  144.7850 C   0  0  0  0  0  2  0  0  0  0  0  0
  189.1830  177.2750  145.1260 C   0  0  1  0  0  3  0  0  0  0  0  0
  189.6300  176.3780  147.4600 C   0  0  0  0  0  2  0  0  0  0  0  0
  192.9800  176.4020  148.7320 O   0  0  0  0  0  1  0  0  0  0  0  0
  191.9000  177.1300  148.2300 C   0  0  0  0  0  2  0  0  0  0  0  0
  1  6  1  1  0  0  0
  1  5  1  0  0  0  0
  1  8  1  0  0  0  0
  2 12  1  1  0  0  0
  2 13  1  0  0  0  0
  3 16  1  1  0  0  0
  3 14  1  0  0  0  0
  4  7  1  0  0  0  0
  4 15  1  0  0  0  0
  5  9  1  0  0  0  0
  7  9  1  1  0  0  0
  7 11  1  0  0  0  0
  8  4  2  0  0  0  0
 10  3  1  0  0  0  0
 11 10  1  6  0  0  0
 11  2  1  0  0  0  0
 13 14  2  0  0  0  0
 13 35  1  0  0  0  0
 15 12  2  0  0  0  0
 16 18  2  0  0  0  0
 17 19  1  0  0  0  0
 17 16  1  0  0  0  0
 20 23  1  0  0  0  0
 21 23  1  0  0  0  0
 22 26  1  1  0  0  0
 22 25  1  0  0  0  0
 22 27  1  0  0  0  0
 23 19  1  1  0  0  0
 24 20  1  0  0  0  0
 25 28  1  6  0  0  0
 25 21  1  0  0  0  0
 26 25  1  0  0  0  0
 27 24  1  0  0  0  0
 29 28  1  0  0  0  0
 30 31  1  0  0  0  0
 30 29  2  0  0  0  0
 31 29  1  0  0  0  0
 31 34  1  1  0  0  0
 32 34  2  0  0  0  0
 34 33  1  0  0  0  0
 36 37  1  0  0  0  0
 37 41  1  0  0  0  0
 37 43  1  1  0  0  0
 38 41  1  0  0  0  0
 39 40  1  0  0  0  0
 39 36  1  0  0  0  0
 40 35  1  1  0  0  0
 40 38  1  0  0  0  0
 43 42  1  0  0  0  0
M  END
>  <MODEL>
4

>  <REMARK>
 VINA RESULT:      -8.4      3.283     10.060
  Name = 
  9 active torsions:
  status: ('A' for Active; 'I' for Inactive)
    1  A    between atoms: C_1  and  C_34
    2  A    between atoms: C_1  and  C_35
    3  A    between atoms: C_2  and  C_13
    4  A    between atoms: N_6  and  S_17
    5  A    between atoms: C_11  and  O_14
    6  A    between atoms: C_12  and  S_17
    7  A    between atoms: O_14  and  C_22
    8  A    between atoms: C_19  and  C_37
    9  A    between atoms: C_31  and  C_40
                            x       y       z     vdW  Elec       q    Type
                         _______ _______ _______ _____ _____    ______ ____

>  <TORSDO>
F 9

$$$$
=
 OpenBabel10262422353D

 43 49  0  0  1  0  0  0  0  0999 V2000
  187.9340  177.7540  148.6670 C   0  0  1  0  0  3  0  0  0  0  0  0
  186.0650  178.1230  144.1160 C   0  0  1  0  0  3  0  0  0  0  0  0
  188.1750  178.1360  142.0560 C   0  0  2  0  0  3  0  0  0  0  0  0
  186.7640  178.6990  146.7840 C   0  0  0  0  0  0  0  0  0  0  0  0
  188.3360  176.5290  147.8170 C   0  0  0  0  0  2  0  0  0  0  0  0
  189.0770  178.6390  148.8190 N   0  0  0  0  0  1  0  0  0  0  0  0
  187.8570  178.1320  145.9080 C   0  0  1  0  0  3  0  0  0  0  0  0
  186.8170  178.4870  148.0620 N   0  0  0  0  0  0  0  0  0  0  0  0
  188.0550  176.6700  146.3050 C   0  0  0  0  0  2  0  0  0  0  0  0
  188.4390  177.5900  143.4560 C   0  0  0  0  0  2  0  0  0  0  0  0
  187.5460  178.3570  144.4220 C   0  0  1  0  0  3  0  0  0  0  0  0
  185.2510  179.0570  144.9650 C   0  0  0  0  0  3  0  0  0  0  0  0
  185.7390  178.2290  142.6390 C   0  0  0  0  0  0  0  0  0  0  0  0
  186.7070  178.1350  141.7050 C   0  0  0  0  0  3  0  0  0  0  0  0
  185.5830  179.2760  146.2040 N   0  0  0  0  0  0  0  0  0  0  0  0
  188.9960  177.4200  141.0360 C   0  0  0  0  0  0  0  0  0  0  0  0
  188.8260  177.7490  139.6580 N   0  0  0  0  0  2  0  0  0  0  0  0
  189.8550  176.5670  141.3900 O   0  0  0  0  0  0  0  0  0  0  0  0
  189.7980  177.0160  138.3770 S   0  0  0  0  0  0  0  0  0  0  0  0
  187.9660  178.6210  137.0980 C   0  0  0  0  0  2  0  0  0  0  0  0
  187.3500  176.2070  137.4790 C   0  0  0  0  0  2  0  0  0  0  0  0
  186.0680  176.9140  135.1840 C   0  0  2  0  0  3  0  0  0  0  0  0
  188.4760  177.1800  137.1390 C   0  0  2  0  0  3  0  0  0  0  0  0
  186.8900  178.8180  136.0390 C   0  0  0  0  0  2  0  0  0  0  0  0
  186.2600  176.0000  136.4040 C   0  0  1  0  0  0  0  0  0  0  0  0
  186.7100  175.5310  135.0420 C   0  0  0  0  0  2  0  0  0  0  0  0
  187.0670  177.8870  135.0100 O   0  0  0  0  0  0  0  0  0  0  0  0
  185.0510  175.3940  136.8370 O   0  0  0  0  0  0  0  0  0  0  0  0
  185.0040  174.0540  137.2100 C   0  0  0  0  0  0  0  0  0  0  0  0
  184.3130  172.8270  137.3070 N   0  0  0  0  0  0  0  0  0  0  0  0
  185.6020  172.9520  137.7420 C   0  0  1  0  0  3  0  0  0  0  0  0
  186.1150  171.9300  135.6150 N   0  0  0  0  0  2  0  0  0  0  0  0
  188.0290  172.4690  136.9540 C   0  0  0  0  0  1  0  0  0  0  0  0
  186.5530  172.3570  136.7430 C   0  0  0  0  0  0  0  0  0  0  0  0
  184.3130  178.1490  142.1900 C   0  0  0  0  0  2  0  0  0  0  0  0
  183.5880  179.2350  138.6090 C   0  0  0  0  0  2  0  0  0  0  0  0
  182.1300  178.7570  138.6780 C   0  0  2  0  0  3  0  0  0  0  0  0
  183.0780  177.0490  140.3070 C   0  0  0  0  0  2  0  0  0  0  0  0
  184.2020  179.3430  140.0010 C   0  0  0  0  0  2  0  0  0  0  0  0
  184.2480  177.9700  140.6840 C   0  0  1  0  0  3  0  0  0  0  0  0
  181.8410  177.8440  139.8820 C   0  0  0  0  0  2  0  0  0  0  0  0
  182.9170  177.9210  136.5840 O   0  0  0  0  0  1  0  0  0  0  0  0
  181.7770  178.0560  137.3790 C   0  0  0  0  0  2  0  0  0  0  0  0
  1  6  1  6  0  0  0
  2 11  1  0  0  0  0
  2 12  1  1  0  0  0
  3 16  1  6  0  0  0
  3 10  1  0  0  0  0
  4  8  2  0  0  0  0
  5  1  1  0  0  0  0
  7  9  1  6  0  0  0
  7  4  1  0  0  0  0
  8  1  1  0  0  0  0
  9  5  1  0  0  0  0
 11 10  1  6  0  0  0
 11  7  1  0  0  0  0
 12 15  2  0  0  0  0
 13  2  1  0  0  0  0
 14  3  1  0  0  0  0
 14 13  2  0  0  0  0
 15  4  1  0  0  0  0
 16 18  2  0  0  0  0
 17 16  1  0  0  0  0
 19 17  1  0  0  0  0
 20 23  1  0  0  0  0
 22 26  1  6  0  0  0
 22 25  1  0  0  0  0
 23 21  1  0  0  0  0
 23 19  1  1  0  0  0
 24 20  1  0  0  0  0
 25 28  1  1  0  0  0
 25 21  1  0  0  0  0
 26 25  1  0  0  0  0
 27 22  1  0  0  0  0
 27 24  1  0  0  0  0
 28 29  1  0  0  0  0
 29 30  2  0  0  0  0
 29 31  1  0  0  0  0
 30 31  1  0  0  0  0
 31 34  1  6  0  0  0
 32 34  2  0  0  0  0
 34 33  1  0  0  0  0
 35 13  1  0  0  0  0
 36 37  1  0  0  0  0
 36 39  1  0  0  0  0
 37 43  1  6  0  0  0
 37 41  1  0  0  0  0
 38 40  1  0  0  0  0
 39 40  1  0  0  0  0
 40 35  1  1  0  0  0
 41 38  1  0  0  0  0
 42 43  1  0  0  0  0
M  END
>  <MODEL>
5

>  <REMARK>
 VINA RESULT:      -8.2      3.234      5.813
  Name = 
  9 active torsions:
  status: ('A' for Active; 'I' for Inactive)
    1  A    between atoms: C_1  and  C_34
    2  A    between atoms: C_1  and  C_35
    3  A    between atoms: C_2  and  C_13
    4  A    between atoms: N_6  and  S_17
    5  A    between atoms: C_11  and  O_14
    6  A    between atoms: C_12  and  S_17
    7  A    between atoms: O_14  and  C_22
    8  A    between atoms: C_19  and  C_37
    9  A    between atoms: C_31  and  C_40
                            x       y       z     vdW  Elec       q    Type
                         _______ _______ _______ _____ _____    ______ ____

>  <TORSDO>
F 9

$$$$
=
 OpenBabel10262422353D

 43 49  0  0  1  0  0  0  0  0999 V2000
  186.4650  177.0200  136.2230 C   0  0  1  0  0  3  0  0  0  0  0  0
  182.3310  178.5630  138.4280 C   0  0  1  0  0  3  0  0  0  0  0  0
  182.4210  178.1540  141.3490 C   0  0  2  0  0  3  0  0  0  0  0  0
  184.1270  177.1310  136.7980 C   0  0  0  0  0  0  0  0  0  0  0  0
  186.7830  178.1260  137.2530 C   0  0  0  0  0  2  0  0  0  0  0  0
  186.8710  175.7290  136.7520 N   0  0  0  0  0  1  0  0  0  0  0  0
  184.5610  177.3760  138.2250 C   0  0  1  0  0  3  0  0  0  0  0  0
  185.0380  176.9910  135.8850 N   0  0  0  0  0  0  0  0  0  0  0  0
  185.6180  178.4800  138.2030 C   0  0  0  0  0  2  0  0  0  0  0  0
  183.6990  178.1890  140.5140 C   0  0  0  0  0  2  0  0  0  0  0  0
  183.3530  177.6630  139.1270 C   0  0  1  0  0  3  0  0  0  0  0  0
  181.8870  177.8850  137.1640 C   0  0  0  0  0  3  0  0  0  0  0  0
  181.1750  178.9580  139.3270 C   0  0  0  0  0  0  0  0  0  0  0  0
  181.2700  178.8550  140.6680 C   0  0  0  0  0  3  0  0  0  0  0  0
  182.7480  177.2600  136.4170 N   0  0  0  0  0  0  0  0  0  0  0  0
  182.6640  178.6780  142.7240 C   0  0  0  0  0  0  0  0  0  0  0  0
  183.9120  178.4020  143.3580 N   0  0  0  0  0  2  0  0  0  0  0  0
  181.7960  179.3890  143.3010 O   0  0  0  0  0  0  0  0  0  0  0  0
  184.3300  179.0360  144.9540 S   0  0  0  0  0  0  0  0  0  0  0  0
  186.6820  178.5070  146.2790 C   0  0  0  0  0  2  0  0  0  0  0  0
  186.7500  178.6160  143.7620 C   0  0  0  0  0  2  0  0  0  0  0  0
  188.6910  176.8360  144.4490 C   0  0  2  0  0  3  0  0  0  0  0  0
  185.9380  178.1880  144.9820 C   0  0  2  0  0  3  0  0  0  0  0  0
  188.0150  177.7780  146.3690 C   0  0  0  0  0  2  0  0  0  0  0  0
  188.0310  177.8080  143.4600 C   0  0  1  0  0  0  0  0  0  0  0  0
  187.8800  176.3200  143.2570 C   0  0  0  0  0  2  0  0  0  0  0  0
  187.9570  176.5960  145.6220 O   0  0  0  0  0  0  0  0  0  0  0  0
  188.9610  178.4060  142.5680 O   0  0  0  0  0  0  0  0  0  0  0  0
  188.9230  178.1490  141.2000 C   0  0  0  0  0  0  0  0  0  0  0  0
  188.8610  178.6000  139.8650 N   0  0  0  0  0  0  0  0  0  0  0  0
  188.9320  177.2690  140.1610 C   0  0  1  0  0  3  0  0  0  0  0  0
  190.5430  175.8330  139.0760 N   0  0  0  0  0  2  0  0  0  0  0  0
  191.4930  177.4690  140.5490 C   0  0  0  0  0  1  0  0  0  0  0  0
  190.3270  176.7560  139.9410 C   0  0  0  0  0  0  0  0  0  0  0  0
  180.0290  179.7330  138.7570 C   0  0  0  0  0  2  0  0  0  0  0  0
  179.2320  183.4430  138.3880 C   0  0  0  0  0  2  0  0  0  0  0  0
  179.5060  183.4300  136.8780 C   0  0  2  0  0  3  0  0  0  0  0  0
  181.1460  181.5860  137.4900 C   0  0  0  0  0  2  0  0  0  0  0  0
  179.0630  182.0290  138.9330 C   0  0  0  0  0  2  0  0  0  0  0  0
  180.3510  181.2170  138.7520 C   0  0  1  0  0  3  0  0  0  0  0  0
  180.2450  182.1680  136.4000 C   0  0  0  0  0  2  0  0  0  0  0  0
  180.7680  185.3020  137.6580 O   0  0  0  0  0  1  0  0  0  0  0  0
  180.2850  184.6780  136.5050 C   0  0  0  0  0  2  0  0  0  0  0  0
  1  6  1  1  0  0  0
  1  5  1  0  0  0  0
  2 12  1  6  0  0  0
  2 11  1  0  0  0  0
  2 13  1  0  0  0  0
  3 16  1  1  0  0  0
  4  7  1  0  0  0  0
  5  9  1  0  0  0  0
  7  9  1  6  0  0  0
  7 11  1  0  0  0  0
  8  1  1  0  0  0  0
  8  4  2  0  0  0  0
 10  3  1  0  0  0  0
 11 10  1  1  0  0  0
 13 14  2  0  0  0  0
 14  3  1  0  0  0  0
 15  4  1  0  0  0  0
 15 12  2  0  0  0  0
 16 18  2  0  0  0  0
 16 17  1  0  0  0  0
 17 19  1  0  0  0  0
 20 24  1  0  0  0  0
 21 23  1  0  0  0  0
 22 26  1  6  0  0  0
 22 27  1  0  0  0  0
 23 19  1  1  0  0  0
 23 20  1  0  0  0  0
 25 28  1  6  0  0  0
 25 21  1  0  0  0  0
 25 22  1  0  0  0  0
 26 25  1  0  0  0  0
 27 24  1  0  0  0  0
 29 28  1  0  0  0  0
 30 31  1  0  0  0  0
 30 29  2  0  0  0  0
 31 34  1  6  0  0  0
 31 29  1  0  0  0  0
 32 34  2  0  0  0  0
 34 33  1  0  0  0  0
 35 13  1  0  0  0  0
 36 39  1  0  0  0  0
 37 43  1  1  0  0  0
 37 36  1  0  0  0  0
 38 40  1  0  0  0  0
 40 35  1  6  0  0  0
 40 39  1  0  0  0  0
 41 37  1  0  0  0  0
 41 38  1  0  0  0  0
 43 42  1  0  0  0  0
M  END
>  <MODEL>
6

>  <REMARK>
 VINA RESULT:      -8.1      3.602      6.717
  Name = 
  9 active torsions:
  status: ('A' for Active; 'I' for Inactive)
    1  A    between atoms: C_1  and  C_34
    2  A    between atoms: C_1  and  C_35
    3  A    between atoms: C_2  and  C_13
    4  A    between atoms: N_6  and  S_17
    5  A    between atoms: C_11  and  O_14
    6  A    between atoms: C_12  and  S_17
    7  A    between atoms: O_14  and  C_22
    8  A    between atoms: C_19  and  C_37
    9  A    between atoms: C_31  and  C_40
                            x       y       z     vdW  Elec       q    Type
                         _______ _______ _______ _____ _____    ______ ____

>  <TORSDO>
F 9

$$$$
=
 OpenBabel10262422353D

 43 49  0  0  1  0  0  0  0  0999 V2000
  185.1180  178.6540  146.4830 C   0  0  1  0  0  3  0  0  0  0  0  0
  183.2830  178.2070  141.9260 C   0  0  1  0  0  3  0  0  0  0  0  0
  185.2440  178.9920  139.8670 C   0  0  2  0  0  3  0  0  0  0  0  0
  183.6900  179.0500  144.5830 C   0  0  0  0  0  0  0  0  0  0  0  0
  185.9640  177.6620  145.6560 C   0  0  0  0  0  2  0  0  0  0  0  0
  185.8350  179.9110  146.6210 N   0  0  0  0  0  1  0  0  0  0  0  0
  184.9230  178.9300  143.7190 C   0  0  1  0  0  3  0  0  0  0  0  0
  183.8100  178.8950  145.8650 N   0  0  0  0  0  0  0  0  0  0  0  0
  185.6620  177.6600  144.1420 C   0  0  0  0  0  2  0  0  0  0  0  0
  185.6860  178.6110  141.2770 C   0  0  0  0  0  2  0  0  0  0  0  0
  184.5600  178.9940  142.2290 C   0  0  1  0  0  3  0  0  0  0  0  0
  182.1690  178.7730  142.7580 C   0  0  0  0  0  3  0  0  0  0  0  0
  182.9530  178.1560  140.4470 C   0  0  0  0  0  0  0  0  0  0  0  0
  183.8900  178.4240  139.5160 C   0  0  0  0  0  3  0  0  0  0  0  0
  182.3820  179.1220  143.9930 N   0  0  0  0  0  0  0  0  0  0  0  0
  186.2830  178.6280  138.8610 C   0  0  0  0  0  0  0  0  0  0  0  0
  187.5870  178.2680  139.3150 N   0  0  0  0  0  2  0  0  0  0  0  0
  186.0030  178.5990  137.6320 O   0  0  0  0  0  0  0  0  0  0  0  0
  188.8690  177.7480  138.2150 S   0  0  0  0  0  0  0  0  0  0  0  0
  191.3060  176.8170  139.0880 C   0  0  0  0  0  2  0  0  0  0  0  0
  189.4620  177.0600  140.7890 C   0  0  0  0  0  2  0  0  0  0  0  0
  191.7670  177.4940  142.1710 C   0  0  2  0  0  3  0  0  0  0  0  0
  190.1100  177.6540  139.5410 C   0  0  2  0  0  3  0  0  0  0  0  0
  192.3940  176.7510  140.1500 C   0  0  0  0  0  2  0  0  0  0  0  0
  190.2720  177.1450  142.1020 C   0  0  1  0  0  0  0  0  0  0  0  0
  190.6980  178.5170  142.5660 C   0  0  0  0  0  2  0  0  0  0  0  0
  192.3380  177.8950  140.9530 O   0  0  0  0  0  0  0  0  0  0  0  0
  189.8510  176.2980  143.1610 O   0  0  0  0  0  0  0  0  0  0  0  0
  189.7860  176.7560  144.4740 C   0  0  0  0  0  0  0  0  0  0  0  0
  189.1190  176.8480  145.7140 N   0  0  0  0  0  0  0  0  0  0  0  0
  190.3320  177.4420  145.5170 C   0  0  1  0  0  3  0  0  0  0  0  0
  191.6840  176.7530  147.3960 N   0  0  0  0  0  2  0  0  0  0  0  0
  192.0550  175.5020  145.3850 C   0  0  0  0  0  1  0  0  0  0  0  0
  191.4250  176.6250  146.1460 C   0  0  0  0  0  0  0  0  0  0  0  0
  181.6690  177.5310  139.9990 C   0  0  0  0  0  2  0  0  0  0  0  0
  181.2180  180.6920  137.9180 C   0  0  0  0  0  2  0  0  0  0  0  0
  180.6240  181.4760  139.0970 C   0  0  2  0  0  3  0  0  0  0  0  0
  179.7930  179.1840  139.8180 C   0  0  0  0  0  2  0  0  0  0  0  0
  181.9200  179.4250  138.3920 C   0  0  0  0  0  2  0  0  0  0  0  0
  180.9270  178.4700  139.0660 C   0  0  1  0  0  3  0  0  0  0  0  0
  180.2070  180.5830  140.2780 C   0  0  0  0  0  2  0  0  0  0  0  0
  179.8990  183.3920  137.8690 O   0  0  0  0  0  1  0  0  0  0  0  0
  179.4450  182.2950  138.6030 C   0  0  0  0  0  2  0  0  0  0  0  0
  1  6  1  6  0  0  0
  2 11  1  0  0  0  0
  2 12  1  1  0  0  0
  3 16  1  6  0  0  0
  3 10  1  0  0  0  0
  4  8  2  0  0  0  0
  5  1  1  0  0  0  0
  7  9  1  6  0  0  0
  7  4  1  0  0  0  0
  8  1  1  0  0  0  0
  9  5  1  0  0  0  0
 11 10  1  6  0  0  0
 11  7  1  0  0  0  0
 12 15  2  0  0  0  0
 13  2  1  0  0  0  0
 14  3  1  0  0  0  0
 14 13  2  0  0  0  0
 15  4  1  0  0  0  0
 16 17  1  0  0  0  0
 18 16  2  0  0  0  0
 19 17  1  0  0  0  0
 20 23  1  0  0  0  0
 20 24  1  0  0  0  0
 21 25  1  0  0  0  0
 22 26  1  1  0  0  0
 23 19  1  6  0  0  0
 23 21  1  0  0  0  0
 24 27  1  0  0  0  0
 25 22  1  0  0  0  0
 25 26  1  0  0  0  0
 25 28  1  1  0  0  0
 27 22  1  0  0  0  0
 28 29  1  0  0  0  0
 29 31  1  0  0  0  0
 29 30  2  0  0  0  0
 31 30  1  0  0  0  0
 31 34  1  1  0  0  0
 33 34  1  0  0  0  0
 34 32  2  0  0  0  0
 35 13  1  0  0  0  0
 36 39  1  0  0  0  0
 36 37  1  0  0  0  0
 37 43  1  6  0  0  0
 37 41  1  0  0  0  0
 38 41  1  0  0  0  0
 39 40  1  0  0  0  0
 40 38  1  0  0  0  0
 40 35  1  1  0  0  0
 42 43  1  0  0  0  0
M  END
>  <MODEL>
7

>  <REMARK>
 VINA RESULT:      -8.1      1.800      2.501
  Name = 
  9 active torsions:
  status: ('A' for Active; 'I' for Inactive)
    1  A    between atoms: C_1  and  C_34
    2  A    between atoms: C_1  and  C_35
    3  A    between atoms: C_2  and  C_13
    4  A    between atoms: N_6  and  S_17
    5  A    between atoms: C_11  and  O_14
    6  A    between atoms: C_12  and  S_17
    7  A    between atoms: O_14  and  C_22
    8  A    between atoms: C_19  and  C_37
    9  A    between atoms: C_31  and  C_40
                            x       y       z     vdW  Elec       q    Type
                         _______ _______ _______ _____ _____    ______ ____

>  <TORSDO>
F 9

$$$$
=
 OpenBabel10262422353D

 43 49  0  0  1  0  0  0  0  0999 V2000
  189.5990  176.5930  135.7960 C   0  0  1  0  0  3  0  0  0  0  0  0
  189.0450  177.0440  140.6770 C   0  0  1  0  0  3  0  0  0  0  0  0
  186.7720  178.7910  141.3720 C   0  0  2  0  0  3  0  0  0  0  0  0
  190.1180  177.1760  138.0770 C   0  0  0  0  0  0  0  0  0  0  0  0
  188.2070  176.0870  136.2300 C   0  0  0  0  0  2  0  0  0  0  0  0
  189.4690  177.8880  135.1490 N   0  0  0  0  0  1  0  0  0  0  0  0
  188.6710  177.5820  138.2290 C   0  0  1  0  0  3  0  0  0  0  0  0
  190.5150  176.6990  136.9370 N   0  0  0  0  0  0  0  0  0  0  0  0
  187.8120  176.4430  137.6800 C   0  0  0  0  0  2  0  0  0  0  0  0
  186.8780  178.1390  139.9960 C   0  0  0  0  0  2  0  0  0  0  0  0
  188.3600  177.9790  139.6790 C   0  0  1  0  0  3  0  0  0  0  0  0
  190.5260  177.0910  140.4320 C   0  0  0  0  0  3  0  0  0  0  0  0
  188.6730  177.3370  142.1190 C   0  0  0  0  0  0  0  0  0  0  0  0
  187.5740  178.0570  142.4200 C   0  0  0  0  0  3  0  0  0  0  0  0
  190.9900  177.1180  139.2170 N   0  0  0  0  0  0  0  0  0  0  0  0
  185.3470  178.9650  141.7760 C   0  0  0  0  0  0  0  0  0  0  0  0
  184.3200  178.5370  140.8820 N   0  0  0  0  0  2  0  0  0  0  0  0
  185.0550  179.4450  142.9050 O   0  0  0  0  0  0  0  0  0  0  0  0
  182.6030  178.6280  141.2930 S   0  0  0  0  0  0  0  0  0  0  0  0
  180.5620  177.7280  139.6820 C   0  0  0  0  0  2  0  0  0  0  0  0
  182.7790  176.5370  139.5460 C   0  0  0  0  0  2  0  0  0  0  0  0
  181.6960  176.3110  137.0590 C   0  0  2  0  0  3  0  0  0  0  0  0
  182.0820  177.8850  139.7170 C   0  0  2  0  0  3  0  0  0  0  0  0
  180.0750  177.1550  138.3590 C   0  0  0  0  0  2  0  0  0  0  0  0
  182.6790  175.8730  138.1550 C   0  0  1  0  0  0  0  0  0  0  0  0
  183.1840  176.6640  136.9720 C   0  0  0  0  0  2  0  0  0  0  0  0
  180.9770  177.4840  137.3430 O   0  0  0  0  0  0  0  0  0  0  0  0
  183.0040  174.4930  138.0880 O   0  0  0  0  0  0  0  0  0  0  0  0
  184.1840  174.0520  137.4960 C   0  0  0  0  0  0  0  0  0  0  0  0
  185.5630  173.7620  137.5670 N   0  0  0  0  0  0  0  0  0  0  0  0
  184.8560  173.5680  136.4140 C   0  0  1  0  0  3  0  0  0  0  0  0
  185.4380  171.3130  135.7760 N   0  0  0  0  0  2  0  0  0  0  0  0
  183.2760  171.5400  136.7870 C   0  0  0  0  0  1  0  0  0  0  0  0
  184.5420  172.1100  136.2300 C   0  0  0  0  0  0  0  0  0  0  0  0
  189.3550  176.5920  143.2230 C   0  0  0  0  0  2  0  0  0  0  0  0
  190.7090  177.5110  146.6660 C   0  0  0  0  0  2  0  0  0  0  0  0
  189.3830  177.1700  147.3620 C   0  0  2  0  0  3  0  0  0  0  0  0
  188.3740  177.8780  145.1380 C   0  0  0  0  0  2  0  0  0  0  0  0
  190.7610  176.9270  145.2580 C   0  0  0  0  0  2  0  0  0  0  0  0
  189.6620  177.5310  144.3760 C   0  0  1  0  0  3  0  0  0  0  0  0
  188.2030  177.0130  146.3890 C   0  0  0  0  0  2  0  0  0  0  0  0
  187.7320  178.5900  148.3430 O   0  0  0  0  0  1  0  0  0  0  0  0
  189.0820  178.2350  148.4010 C   0  0  0  0  0  2  0  0  0  0  0  0
  1  6  1  1  0  0  0
  1  5  1  0  0  0  0
  1  8  1  0  0  0  0
  2 12  1  1  0  0  0
  2 13  1  0  0  0  0
  3 16  1  1  0  0  0
  3 14  1  0  0  0  0
  4  7  1  0  0  0  0
  4 15  1  0  0  0  0
  5  9  1  0  0  0  0
  7  9  1  1  0  0  0
  7 11  1  0  0  0  0
  8  4  2  0  0  0  0
 10  3  1  0  0  0  0
 11 10  1  6  0  0  0
 11  2  1  0  0  0  0
 13 14  2  0  0  0  0
 13 35  1  0  0  0  0
 15 12  2  0  0  0  0
 16 18  2  0  0  0  0
 17 19  1  0  0  0  0
 17 16  1  0  0  0  0
 20 23  1  0  0  0  0
 21 23  1  0  0  0  0
 22 26  1  6  0  0  0
 22 27  1  0  0  0  0
 22 25  1  0  0  0  0
 23 19  1  1  0  0  0
 24 20  1  0  0  0  0
 25 28  1  6  0  0  0
 25 21  1  0  0  0  0
 26 25  1  0  0  0  0
 27 24  1  0  0  0  0
 29 30  2  0  0  0  0
 29 28  1  0  0  0  0
 31 34  1  1  0  0  0
 31 29  1  0  0  0  0
 31 30  1  0  0  0  0
 32 34  2  0  0  0  0
 34 33  1  0  0  0  0
 36 37  1  0  0  0  0
 37 43  1  1  0  0  0
 38 41  1  0  0  0  0
 39 36  1  0  0  0  0
 40 35  1  6  0  0  0
 40 38  1  0  0  0  0
 40 39  1  0  0  0  0
 41 37  1  0  0  0  0
 42 43  1  0  0  0  0
M  END
>  <MODEL>
8

>  <REMARK>
 VINA RESULT:      -8.0      3.388      9.867
  Name = 
  9 active torsions:
  status: ('A' for Active; 'I' for Inactive)
    1  A    between atoms: C_1  and  C_34
    2  A    between atoms: C_1  and  C_35
    3  A    between atoms: C_2  and  C_13
    4  A    between atoms: N_6  and  S_17
    5  A    between atoms: C_11  and  O_14
    6  A    between atoms: C_12  and  S_17
    7  A    between atoms: O_14  and  C_22
    8  A    between atoms: C_19  and  C_37
    9  A    between atoms: C_31  and  C_40
                            x       y       z     vdW  Elec       q    Type
                         _______ _______ _______ _____ _____    ______ ____

>  <TORSDO>
F 9

$$$$
=
 OpenBabel10262422353D

 43 49  0  0  1  0  0  0  0  0999 V2000
  190.7910  176.5790  144.6470 C   0  0  1  0  0  3  0  0  0  0  0  0
  186.2450  177.8270  143.1940 C   0  0  1  0  0  3  0  0  0  0  0  0
  186.2310  178.9600  140.4700 C   0  0  2  0  0  3  0  0  0  0  0  0
  188.6750  177.7320  144.6150 C   0  0  0  0  0  0  0  0  0  0  0  0
  190.3970  175.7960  143.3760 C   0  0  0  0  0  2  0  0  0  0  0  0
  191.7390  177.6250  144.3030 N   0  0  0  0  0  1  0  0  0  0  0  0
  188.7760  177.7320  143.1080 C   0  0  1  0  0  3  0  0  0  0  0  0
  189.6190  177.1680  145.3030 N   0  0  0  0  0  0  0  0  0  0  0  0
  189.1240  176.3100  142.6690 C   0  0  0  0  0  2  0  0  0  0  0  0
  187.3920  178.1010  140.9650 C   0  0  0  0  0  2  0  0  0  0  0  0
  187.5050  178.3070  142.4700 C   0  0  1  0  0  3  0  0  0  0  0  0
  186.3380  178.2420  144.6340 C   0  0  0  0  0  3  0  0  0  0  0  0
  184.9630  178.2870  142.5260 C   0  0  0  0  0  0  0  0  0  0  0  0
  184.9600  178.7110  141.2460 C   0  0  0  0  0  3  0  0  0  0  0  0
  187.4690  178.1550  145.2710 N   0  0  0  0  0  0  0  0  0  0  0  0
  186.0320  178.7990  139.0010 C   0  0  0  0  0  0  0  0  0  0  0  0
  187.1720  178.5870  138.1690 N   0  0  0  0  0  2  0  0  0  0  0  0
  184.8710  178.8090  138.5060 O   0  0  0  0  0  0  0  0  0  0  0  0
  187.0420  178.3100  136.4280 S   0  0  0  0  0  0  0  0  0  0  0  0
  186.6720  175.6860  137.1660 C   0  0  0  0  0  2  0  0  0  0  0  0
  188.9930  176.6480  137.3660 C   0  0  0  0  0  2  0  0  0  0  0  0
  189.3620  174.0020  136.8410 C   0  0  2  0  0  3  0  0  0  0  0  0
  187.7080  176.6220  136.5430 C   0  0  2  0  0  3  0  0  0  0  0  0
  187.1680  174.2490  137.2370 C   0  0  0  0  0  2  0  0  0  0  0  0
  189.8530  175.3640  137.3540 C   0  0  1  0  0  0  0  0  0  0  0  0
  190.3240  174.8580  136.0130 C   0  0  0  0  0  2  0  0  0  0  0  0
  188.1020  174.0220  136.2210 O   0  0  0  0  0  0  0  0  0  0  0  0
  190.8340  175.2500  138.3750 O   0  0  0  0  0  0  0  0  0  0  0  0
  192.0570  175.9090  138.2830 C   0  0  0  0  0  0  0  0  0  0  0  0
  193.0430  176.7560  138.8310 N   0  0  0  0  0  0  0  0  0  0  0  0
  193.1950  176.1990  137.5930 C   0  0  1  0  0  3  0  0  0  0  0  0
  195.0590  174.9980  138.5490 N   0  0  0  0  0  2  0  0  0  0  0  0
  193.8730  173.8080  136.8390 C   0  0  0  0  0  1  0  0  0  0  0  0
  194.1390  175.0320  137.6560 C   0  0  0  0  0  0  0  0  0  0  0  0
  183.6480  178.0050  143.1810 C   0  0  0  0  0  2  0  0  0  0  0  0
  180.1660  179.5490  143.0220 C   0  0  0  0  0  2  0  0  0  0  0  0
  179.7230  178.6210  141.8820 C   0  0  2  0  0  3  0  0  0  0  0  0
  182.1880  178.6920  141.2620 C   0  0  0  0  0  2  0  0  0  0  0  0
  181.4320  179.0320  143.6970 C   0  0  0  0  0  2  0  0  0  0  0  0
  182.6040  179.0010  142.7090 C   0  0  1  0  0  3  0  0  0  0  0  0
  180.8900  177.8850  141.2030 C   0  0  0  0  0  2  0  0  0  0  0  0
  179.2410  180.7840  140.9920 O   0  0  0  0  0  1  0  0  0  0  0  0
  178.9360  179.4270  140.8650 C   0  0  0  0  0  2  0  0  0  0  0  0
  1  6  1  6  0  0  0
  1  8  1  0  0  0  0
  2 12  1  1  0  0  0
  3 16  1  6  0  0  0
  3 10  1  0  0  0  0
  3 14  1  0  0  0  0
  4 15  1  0  0  0  0
  4  8  2  0  0  0  0
  5  1  1  0  0  0  0
  7  9  1  6  0  0  0
  7  4  1  0  0  0  0
  9  5  1  0  0  0  0
 11 10  1  6  0  0  0
 11  7  1  0  0  0  0
 11  2  1  0  0  0  0
 12 15  2  0  0  0  0
 13 35  1  0  0  0  0
 13  2  1  0  0  0  0
 14 13  2  0  0  0  0
 17 16  1  0  0  0  0
 18 16  2  0  0  0  0
 19 17  1  0  0  0  0
 20 24  1  0  0  0  0
 22 26  1  6  0  0  0
 22 25  1  0  0  0  0
 23 19  1  1  0  0  0
 23 20  1  0  0  0  0
 23 21  1  0  0  0  0
 25 21  1  0  0  0  0
 25 28  1  1  0  0  0
 26 25  1  0  0  0  0
 27 22  1  0  0  0  0
 27 24  1  0  0  0  0
 29 28  1  0  0  0  0
 29 30  2  0  0  0  0
 31 34  1  1  0  0  0
 31 29  1  0  0  0  0
 31 30  1  0  0  0  0
 33 34  1  0  0  0  0
 34 32  2  0  0  0  0
 36 39  1  0  0  0  0
 37 43  1  6  0  0  0
 37 36  1  0  0  0  0
 38 40  1  0  0  0  0
 40 35  1  1  0  0  0
 40 39  1  0  0  0  0
 41 38  1  0  0  0  0
 41 37  1  0  0  0  0
 43 42  1  0  0  0  0
M  END
>  <MODEL>
9

>  <REMARK>
 VINA RESULT:      -8.0      3.021      5.228
  Name = 
  9 active torsions:
  status: ('A' for Active; 'I' for Inactive)
    1  A    between atoms: C_1  and  C_34
    2  A    between atoms: C_1  and  C_35
    3  A    between atoms: C_2  and  C_13
    4  A    between atoms: N_6  and  S_17
    5  A    between atoms: C_11  and  O_14
    6  A    between atoms: C_12  and  S_17
    7  A    between atoms: O_14  and  C_22
    8  A    between atoms: C_19  and  C_37
    9  A    between atoms: C_31  and  C_40
                            x       y       z     vdW  Elec       q    Type
                         _______ _______ _______ _____ _____    ______ ____

>  <TORSDO>
F 9

$$$$
