=
 OpenBabel10262419473D

 25 26  0  0  1  0  0  0  0  0999 V2000
  192.2660  177.4940  140.5520 C   0  0  0  0  0  1  0  0  0  0  0  0
  189.5650  176.0680  142.1510 C   0  0  0  0  0  2  0  0  0  0  0  0
  191.2740  177.8500  141.6430 C   0  0  1  0  0  3  0  0  0  0  0  0
  190.7280  177.3790  144.0750 C   0  0  0  0  0  0  0  0  0  0  0  0
  190.2190  178.7950  144.3250 C   0  0  0  0  0  1  0  0  0  0  0  0
  189.9670  177.2330  141.3640 N   0  0  0  0  0  0  0  0  0  0  0  0
  191.3430  176.8710  145.3620 C   0  0  0  0  0  1  0  0  0  0  0  0
  189.6060  176.3920  143.6480 C   0  0  1  0  0  3  0  0  0  0  0  0
  191.8290  177.4300  143.0100 C   0  0  0  0  0  2  0  0  0  0  0  0
  189.0270  177.8740  140.4720 C   0  0  0  0  0  0  0  0  0  0  0  0
  188.0050  178.5640  140.9740 C   0  0  0  0  0  2  0  0  0  0  0  0
  189.1570  177.7760  138.9980 C   0  0  0  0  0  0  0  0  0  0  0  0
  189.0220  178.9380  138.1830 N   0  0  0  0  0  1  0  0  0  0  0  0
  189.4090  176.6720  138.4470 O   0  0  0  0  0  0  0  0  0  0  0  0
  188.2120  176.6510  144.2270 C   0  0  0  0  0  2  0  0  0  0  0  0
  187.1950  177.8930  146.2010 C   0  0  0  0  0  0  0  0  0  0  0  0
  188.3010  177.2640  145.5480 N   0  0  0  0  0  2  0  0  0  0  0  0
  187.2510  178.0750  147.4460 O   0  0  0  0  0  0  0  0  0  0  0  0
  185.9890  178.3180  145.4650 C   0  0  0  0  0  0  0  0  0  0  0  0
  183.7230  179.0900  143.9990 C   0  0  0  0  0  3  0  0  0  0  0  0
  184.7470  178.4800  146.1100 C   0  0  0  0  0  0  0  0  0  0  0  0
  183.6220  178.8690  145.3750 C   0  0  0  0  0  3  0  0  0  0  0  0
  184.9470  178.9120  143.3510 C   0  0  0  0  0  3  0  0  0  0  0  0
  184.6060  178.2160  147.4320 F   0  0  0  0  0  0  0  0  0  0  0  0
  186.0720  178.5220  144.0800 C   0  0  0  0  0  3  0  0  0  0  0  0
  2  8  1  0  0  0  0
  3  1  1  6  0  0  0
  3  9  1  0  0  0  0
  4  5  1  0  0  0  0
  4  7  1  0  0  0  0
  6  3  1  0  0  0  0
  6  2  1  0  0  0  0
  8  4  1  0  0  0  0
  8 15  1  6  0  0  0
  9  4  1  0  0  0  0
 10 11  2  0  0  0  0
 10  6  1  0  0  0  0
 12 10  1  0  0  0  0
 13 12  1  0  0  0  0
 14 12  2  0  0  0  0
 15 17  1  0  0  0  0
 16 18  2  0  0  0  0
 17 16  1  0  0  0  0
 19 21  1  0  0  0  0
 19 16  1  0  0  0  0
 20 22  1  0  0  0  0
 21 24  1  0  0  0  0
 22 21  2  0  0  0  0
 23 20  2  0  0  0  0
 23 25  1  0  0  0  0
 25 19  2  0  0  0  0
M  END
>  <MODEL>
1

>  <REMARK>
 VINA RESULT:      -8.6      0.000      0.000
  Name = 
  5 active torsions:
  status: ('A' for Active; 'I' for Inactive)
    1  A    between atoms: C_1  and  C_5
    2  A    between atoms: C_2  and  C_21
    3  A    between atoms: N_3  and  C_16
    4  A    between atoms: N_15  and  C_21
    5  A    between atoms: C_16  and  C_23
                            x       y       z     vdW  Elec       q    Type
                         _______ _______ _______ _____ _____    ______ ____

>  <TORSDO>
F 5

$$$$
=
 OpenBabel10262419473D

 25 26  0  0  1  0  0  0  0  0999 V2000
  192.7570  177.3730  140.4900 C   0  0  0  0  0  1  0  0  0  0  0  0
  190.0020  175.9220  141.9710 C   0  0  0  0  0  2  0  0  0  0  0  0
  191.6210  177.7710  141.4140 C   0  0  1  0  0  3  0  0  0  0  0  0
  190.8350  177.5570  143.8160 C   0  0  0  0  0  0  0  0  0  0  0  0
  190.1970  178.9430  143.8220 C   0  0  0  0  0  1  0  0  0  0  0  0
  190.4050  177.0120  141.0840 N   0  0  0  0  0  0  0  0  0  0  0  0
  191.3330  177.2680  145.2170 C   0  0  0  0  0  1  0  0  0  0  0  0
  189.8460  176.4310  143.4090 C   0  0  1  0  0  3  0  0  0  0  0  0
  192.0450  177.5740  142.8760 C   0  0  0  0  0  2  0  0  0  0  0  0
  189.5290  177.4520  140.0210 C   0  0  0  0  0  0  0  0  0  0  0  0
  188.9100  178.6280  140.1190 C   0  0  0  0  0  2  0  0  0  0  0  0
  189.2830  176.6230  138.8170 C   0  0  0  0  0  0  0  0  0  0  0  0
  190.2270  175.6300  138.4200 N   0  0  0  0  0  1  0  0  0  0  0  0
  188.2320  176.7670  138.1400 O   0  0  0  0  0  0  0  0  0  0  0  0
  188.3800  176.6350  143.7990 C   0  0  0  0  0  2  0  0  0  0  0  0
  186.5070  178.0530  142.8210 C   0  0  0  0  0  0  0  0  0  0  0  0
  187.6080  177.1520  142.6740 N   0  0  0  0  0  2  0  0  0  0  0  0
  186.1290  178.7160  141.8190 O   0  0  0  0  0  0  0  0  0  0  0  0
  185.8140  178.2400  144.1110 C   0  0  0  0  0  0  0  0  0  0  0  0
  184.5630  178.6280  146.5930 C   0  0  0  0  0  3  0  0  0  0  0  0
  184.4220  178.4490  144.1800 C   0  0  0  0  0  0  0  0  0  0  0  0
  183.8040  178.6380  145.4200 C   0  0  0  0  0  3  0  0  0  0  0  0
  185.9450  178.4410  146.5290 C   0  0  0  0  0  3  0  0  0  0  0  0
  183.6690  178.5230  143.0550 F   0  0  0  0  0  0  0  0  0  0  0  0
  186.5670  178.2530  145.2940 C   0  0  0  0  0  3  0  0  0  0  0  0
  2  8  1  0  0  0  0
  3  1  1  6  0  0  0
  3  9  1  0  0  0  0
  4  5  1  0  0  0  0
  4  7  1  0  0  0  0
  6  3  1  0  0  0  0
  6  2  1  0  0  0  0
  8 15  1  6  0  0  0
  8  4  1  0  0  0  0
  9  4  1  0  0  0  0
 10 11  2  0  0  0  0
 10  6  1  0  0  0  0
 12 10  1  0  0  0  0
 13 12  1  0  0  0  0
 14 12  2  0  0  0  0
 16 19  1  0  0  0  0
 17 16  1  0  0  0  0
 17 15  1  0  0  0  0
 18 16  2  0  0  0  0
 19 21  2  0  0  0  0
 19 25  1  0  0  0  0
 21 22  1  0  0  0  0
 22 20  2  0  0  0  0
 23 20  1  0  0  0  0
 24 21  1  0  0  0  0
 25 23  2  0  0  0  0
M  END
>  <MODEL>
2

>  <REMARK>
 VINA RESULT:      -8.1      1.854      2.193
  Name = 
  5 active torsions:
  status: ('A' for Active; 'I' for Inactive)
    1  A    between atoms: C_1  and  C_5
    2  A    between atoms: C_2  and  C_21
    3  A    between atoms: N_3  and  C_16
    4  A    between atoms: N_15  and  C_21
    5  A    between atoms: C_16  and  C_23
                            x       y       z     vdW  Elec       q    Type
                         _______ _______ _______ _____ _____    ______ ____

>  <TORSDO>
F 5

$$$$
=
 OpenBabel10262419473D

 25 26  0  0  1  0  0  0  0  0999 V2000
  184.2280  179.9940  143.9560 C   0  0  0  0  0  1  0  0  0  0  0  0
  187.0080  179.2040  142.0760 C   0  0  0  0  0  2  0  0  0  0  0  0
  185.0500  178.7700  143.6020 C   0  0  1  0  0  3  0  0  0  0  0  0
  187.2510  177.6240  144.1300 C   0  0  0  0  0  0  0  0  0  0  0  0
  186.6600  176.2260  143.9740 C   0  0  0  0  0  1  0  0  0  0  0  0
  185.5890  178.8930  142.2390 N   0  0  0  0  0  0  0  0  0  0  0  0
  188.3430  177.5540  145.1760 C   0  0  0  0  0  1  0  0  0  0  0  0
  187.8710  178.1750  142.8160 C   0  0  1  0  0  3  0  0  0  0  0  0
  186.1590  178.5680  144.6440 C   0  0  0  0  0  2  0  0  0  0  0  0
  184.7830  178.5280  141.0950 C   0  0  0  0  0  0  0  0  0  0  0  0
  183.7310  177.7270  141.2550 C   0  0  0  0  0  2  0  0  0  0  0  0
  185.1010  179.0120  139.7300 C   0  0  0  0  0  0  0  0  0  0  0  0
  184.3480  180.0750  139.1470 N   0  0  0  0  0  1  0  0  0  0  0  0
  186.0500  178.5090  139.0730 O   0  0  0  0  0  0  0  0  0  0  0  0
  188.4910  177.1450  141.8680 C   0  0  0  0  0  2  0  0  0  0  0  0
  191.0010  177.5220  141.6860 C   0  0  0  0  0  0  0  0  0  0  0  0
  189.6660  177.6910  141.1990 N   0  0  0  0  0  2  0  0  0  0  0  0
  191.9620  177.7070  140.8950 O   0  0  0  0  0  0  0  0  0  0  0  0
  191.2810  177.1240  143.0790 C   0  0  0  0  0  0  0  0  0  0  0  0
  191.8550  176.3020  145.7020 C   0  0  0  0  0  3  0  0  0  0  0  0
  191.4160  178.0760  144.1090 C   0  0  0  0  0  0  0  0  0  0  0  0
  191.6980  177.6610  145.4140 C   0  0  0  0  0  3  0  0  0  0  0  0
  191.7410  175.3550  144.6820 C   0  0  0  0  0  3  0  0  0  0  0  0
  191.3280  179.4040  143.8490 F   0  0  0  0  0  0  0  0  0  0  0  0
  191.4620  175.7650  143.3770 C   0  0  0  0  0  3  0  0  0  0  0  0
  2  6  1  0  0  0  0
  2  8  1  0  0  0  0
  3  1  1  1  0  0  0
  3  9  1  0  0  0  0
  4  9  1  0  0  0  0
  4  7  1  0  0  0  0
  5  4  1  0  0  0  0
  6  3  1  0  0  0  0
  8 15  1  6  0  0  0
  8  4  1  0  0  0  0
 10 11  2  0  0  0  0
 10  6  1  0  0  0  0
 12 10  1  0  0  0  0
 13 12  1  0  0  0  0
 14 12  2  0  0  0  0
 16 19  1  0  0  0  0
 17 16  1  0  0  0  0
 17 15  1  0  0  0  0
 18 16  2  0  0  0  0
 19 25  2  0  0  0  0
 19 21  1  0  0  0  0
 21 22  2  0  0  0  0
 22 20  1  0  0  0  0
 23 20  2  0  0  0  0
 24 21  1  0  0  0  0
 25 23  1  0  0  0  0
M  END
>  <MODEL>
3

>  <REMARK>
 VINA RESULT:      -8.1      2.916      5.851
  Name = 
  5 active torsions:
  status: ('A' for Active; 'I' for Inactive)
    1  A    between atoms: C_1  and  C_5
    2  A    between atoms: C_2  and  C_21
    3  A    between atoms: N_3  and  C_16
    4  A    between atoms: N_15  and  C_21
    5  A    between atoms: C_16  and  C_23
                            x       y       z     vdW  Elec       q    Type
                         _______ _______ _______ _____ _____    ______ ____

>  <TORSDO>
F 5

$$$$
=
 OpenBabel10262419473D

 25 26  0  0  1  0  0  0  0  0999 V2000
  192.0410  176.1150  146.0910 C   0  0  0  0  0  1  0  0  0  0  0  0
  188.9970  176.5070  144.5210 C   0  0  0  0  0  2  0  0  0  0  0  0
  190.8840  177.0950  146.0850 C   0  0  1  0  0  3  0  0  0  0  0  0
  188.5060  177.3810  146.9230 C   0  0  0  0  0  0  0  0  0  0  0  0
  188.6700  178.8830  147.1380 C   0  0  0  0  0  1  0  0  0  0  0  0
  190.2830  177.1670  144.7440 N   0  0  0  0  0  0  0  0  0  0  0  0
  187.5350  176.8650  147.9640 C   0  0  0  0  0  1  0  0  0  0  0  0
  187.9510  177.0210  145.5180 C   0  0  1  0  0  3  0  0  0  0  0  0
  189.8580  176.6970  147.1560 C   0  0  0  0  0  2  0  0  0  0  0  0
  190.8510  178.0250  143.7290 C   0  0  0  0  0  0  0  0  0  0  0  0
  191.1970  179.2740  144.0360 C   0  0  0  0  0  2  0  0  0  0  0  0
  191.0530  177.5580  142.3360 C   0  0  0  0  0  0  0  0  0  0  0  0
  189.9630  177.5410  141.4160 N   0  0  0  0  0  1  0  0  0  0  0  0
  192.1890  177.1900  141.9390 O   0  0  0  0  0  0  0  0  0  0  0  0
  186.9890  178.0300  144.8850 C   0  0  0  0  0  2  0  0  0  0  0  0
  186.1360  178.5310  142.5400 C   0  0  0  0  0  0  0  0  0  0  0  0
  187.1510  178.0670  143.4360 N   0  0  0  0  0  2  0  0  0  0  0  0
  186.4660  178.8620  141.3710 O   0  0  0  0  0  0  0  0  0  0  0  0
  184.7240  178.6490  142.9510 C   0  0  0  0  0  0  0  0  0  0  0  0
  182.0580  178.9270  143.7860 C   0  0  0  0  0  3  0  0  0  0  0  0
  183.6680  178.4520  142.0380 C   0  0  0  0  0  0  0  0  0  0  0  0
  182.3430  178.5880  142.4610 C   0  0  0  0  0  3  0  0  0  0  0  0
  183.0990  179.1420  144.6900 C   0  0  0  0  0  3  0  0  0  0  0  0
  183.9150  178.1810  140.7320 F   0  0  0  0  0  0  0  0  0  0  0  0
  184.4250  179.0090  144.2730 C   0  0  0  0  0  3  0  0  0  0  0  0
  2  6  1  0  0  0  0
  2  8  1  0  0  0  0
  3  1  1  6  0  0  0
  3  9  1  0  0  0  0
  4  5  1  0  0  0  0
  4  9  1  0  0  0  0
  4  7  1  0  0  0  0
  6  3  1  0  0  0  0
  8 15  1  6  0  0  0
  8  4  1  0  0  0  0
 10 11  2  0  0  0  0
 10  6  1  0  0  0  0
 12 10  1  0  0  0  0
 13 12  1  0  0  0  0
 14 12  2  0  0  0  0
 16 19  1  0  0  0  0
 16 17  1  0  0  0  0
 17 15  1  0  0  0  0
 18 16  2  0  0  0  0
 19 25  1  0  0  0  0
 20 23  1  0  0  0  0
 21 22  1  0  0  0  0
 21 19  2  0  0  0  0
 22 20  2  0  0  0  0
 24 21  1  0  0  0  0
 25 23  2  0  0  0  0
M  END
>  <MODEL>
4

>  <REMARK>
 VINA RESULT:      -8.1      2.651      3.907
  Name = 
  5 active torsions:
  status: ('A' for Active; 'I' for Inactive)
    1  A    between atoms: C_1  and  C_5
    2  A    between atoms: C_2  and  C_21
    3  A    between atoms: N_3  and  C_16
    4  A    between atoms: N_15  and  C_21
    5  A    between atoms: C_16  and  C_23
                            x       y       z     vdW  Elec       q    Type
                         _______ _______ _______ _____ _____    ______ ____

>  <TORSDO>
F 5

$$$$
=
 OpenBabel10262419473D

 25 26  0  0  1  0  0  0  0  0999 V2000
  187.9310  177.2210  145.4710 C   0  0  0  0  0  1  0  0  0  0  0  0
  189.7250  176.1270  142.7380 C   0  0  0  0  0  2  0  0  0  0  0  0
  188.5600  177.8010  144.2190 C   0  0  1  0  0  3  0  0  0  0  0  0
  188.2140  177.9820  141.7120 C   0  0  0  0  0  0  0  0  0  0  0  0
  188.8220  179.3790  141.6420 C   0  0  0  0  0  1  0  0  0  0  0  0
  189.7780  177.0540  143.8670 N   0  0  0  0  0  0  0  0  0  0  0  0
  187.1480  177.8830  140.6420 C   0  0  0  0  0  1  0  0  0  0  0  0
  189.2520  176.8510  141.4720 C   0  0  1  0  0  3  0  0  0  0  0  0
  187.5360  177.8050  143.0750 C   0  0  0  0  0  2  0  0  0  0  0  0
  191.0410  177.3700  144.4970 C   0  0  0  0  0  0  0  0  0  0  0  0
  191.6880  178.4840  144.1610 C   0  0  0  0  0  2  0  0  0  0  0  0
  191.6540  176.4750  145.5080 C   0  0  0  0  0  0  0  0  0  0  0  0
  191.7190  176.8710  146.8770 N   0  0  0  0  0  1  0  0  0  0  0  0
  192.1070  175.3470  145.1800 O   0  0  0  0  0  0  0  0  0  0  0  0
  190.4070  177.1740  140.5200 C   0  0  0  0  0  2  0  0  0  0  0  0
  190.2640  175.9840  138.2750 C   0  0  0  0  0  0  0  0  0  0  0  0
  190.6890  176.0460  139.6400 N   0  0  0  0  0  2  0  0  0  0  0  0
  190.8320  175.1710  137.5000 O   0  0  0  0  0  0  0  0  0  0  0  0
  189.1940  176.8530  137.7480 C   0  0  0  0  0  0  0  0  0  0  0  0
  187.2150  178.5530  136.7120 C   0  0  0  0  0  3  0  0  0  0  0  0
  187.9170  176.3470  137.4320 C   0  0  0  0  0  0  0  0  0  0  0  0
  186.9340  177.2000  136.9200 C   0  0  0  0  0  3  0  0  0  0  0  0
  188.4840  179.0550  137.0050 C   0  0  0  0  0  3  0  0  0  0  0  0
  187.6350  175.0280  137.5670 F   0  0  0  0  0  0  0  0  0  0  0  0
  189.4690  178.2080  137.5150 C   0  0  0  0  0  3  0  0  0  0  0  0
  2  6  1  0  0  0  0
  3  1  1  1  0  0  0
  4  9  1  0  0  0  0
  5  4  1  0  0  0  0
  6  3  1  0  0  0  0
  6 10  1  0  0  0  0
  7  4  1  0  0  0  0
  8 15  1  1  0  0  0
  8  4  1  0  0  0  0
  8  2  1  0  0  0  0
  9  3  1  0  0  0  0
 10 12  1  0  0  0  0
 11 10  2  0  0  0  0
 12 13  1  0  0  0  0
 14 12  2  0  0  0  0
 16 17  1  0  0  0  0
 17 15  1  0  0  0  0
 18 16  2  0  0  0  0
 19 16  1  0  0  0  0
 20 22  2  0  0  0  0
 20 23  1  0  0  0  0
 21 24  1  0  0  0  0
 21 19  2  0  0  0  0
 22 21  1  0  0  0  0
 23 25  2  0  0  0  0
 25 19  1  0  0  0  0
M  END
>  <MODEL>
5

>  <REMARK>
 VINA RESULT:      -7.9      3.282      6.870
  Name = 
  5 active torsions:
  status: ('A' for Active; 'I' for Inactive)
    1  A    between atoms: C_1  and  C_5
    2  A    between atoms: C_2  and  C_21
    3  A    between atoms: N_3  and  C_16
    4  A    between atoms: N_15  and  C_21
    5  A    between atoms: C_16  and  C_23
                            x       y       z     vdW  Elec       q    Type
                         _______ _______ _______ _____ _____    ______ ____

>  <TORSDO>
F 5

$$$$
=
 OpenBabel10262419473D

 25 26  0  0  1  0  0  0  0  0999 V2000
  192.1450  178.4010  144.3660 C   0  0  0  0  0  1  0  0  0  0  0  0
  188.7780  178.6130  145.0760 C   0  0  0  0  0  2  0  0  0  0  0  0
  190.9090  177.5260  144.2830 C   0  0  1  0  0  3  0  0  0  0  0  0
  188.8060  177.1690  142.9110 C   0  0  0  0  0  0  0  0  0  0  0  0
  188.8270  175.6570  143.1130 C   0  0  0  0  0  1  0  0  0  0  0  0
  189.9840  177.8450  145.3820 N   0  0  0  0  0  0  0  0  0  0  0  0
  188.2030  177.4480  141.5500 C   0  0  0  0  0  1  0  0  0  0  0  0
  187.9630  177.9170  143.9800 C   0  0  1  0  0  3  0  0  0  0  0  0
  190.2480  177.6870  142.9070 C   0  0  0  0  0  2  0  0  0  0  0  0
  190.1630  177.2530  146.6880 C   0  0  0  0  0  0  0  0  0  0  0  0
  191.1640  176.3990  146.8960 C   0  0  0  0  0  2  0  0  0  0  0  0
  189.2500  177.5590  147.8160 C   0  0  0  0  0  0  0  0  0  0  0  0
  188.1000  176.7490  148.0540 N   0  0  0  0  0  1  0  0  0  0  0  0
  189.4850  178.5230  148.5910 O   0  0  0  0  0  0  0  0  0  0  0  0
  186.7510  177.1680  144.5420 C   0  0  0  0  0  2  0  0  0  0  0  0
  184.7250  178.5930  145.1240 C   0  0  0  0  0  0  0  0  0  0  0  0
  185.9910  178.0150  145.4540 N   0  0  0  0  0  2  0  0  0  0  0  0
  183.9850  179.0030  146.0560 O   0  0  0  0  0  0  0  0  0  0  0  0
  184.2560  178.7070  143.7290 C   0  0  0  0  0  0  0  0  0  0  0  0
  183.4340  178.8950  141.0520 C   0  0  0  0  0  3  0  0  0  0  0  0
  182.8930  178.5800  143.3930 C   0  0  0  0  0  0  0  0  0  0  0  0
  182.4900  178.6780  142.0580 C   0  0  0  0  0  3  0  0  0  0  0  0
  184.7880  179.0030  141.3760 C   0  0  0  0  0  3  0  0  0  0  0  0
  181.9620  178.3100  144.3410 F   0  0  0  0  0  0  0  0  0  0  0  0
  185.1960  178.9040  142.7080 C   0  0  0  0  0  3  0  0  0  0  0  0
  2  6  1  0  0  0  0
  3  1  1  6  0  0  0
  3  6  1  0  0  0  0
  4  5  1  0  0  0  0
  4  8  1  0  0  0  0
  6 10  1  0  0  0  0
  7  4  1  0  0  0  0
  8 15  1  1  0  0  0
  8  2  1  0  0  0  0
  9  4  1  0  0  0  0
  9  3  1  0  0  0  0
 10 11  2  0  0  0  0
 10 12  1  0  0  0  0
 12 13  1  0  0  0  0
 12 14  2  0  0  0  0
 15 17  1  0  0  0  0
 16 17  1  0  0  0  0
 16 18  2  0  0  0  0
 19 16  1  0  0  0  0
 20 23  2  0  0  0  0
 20 22  1  0  0  0  0
 21 19  1  0  0  0  0
 21 24  1  0  0  0  0
 22 21  2  0  0  0  0
 23 25  1  0  0  0  0
 25 19  2  0  0  0  0
M  END
>  <MODEL>
6

>  <REMARK>
 VINA RESULT:      -7.9      3.068      4.791
  Name = 
  5 active torsions:
  status: ('A' for Active; 'I' for Inactive)
    1  A    between atoms: C_1  and  C_5
    2  A    between atoms: C_2  and  C_21
    3  A    between atoms: N_3  and  C_16
    4  A    between atoms: N_15  and  C_21
    5  A    between atoms: C_16  and  C_23
                            x       y       z     vdW  Elec       q    Type
                         _______ _______ _______ _____ _____    ______ ____

>  <TORSDO>
F 5

$$$$
=
 OpenBabel10262419473D

 25 26  0  0  1  0  0  0  0  0999 V2000
  187.7810  177.2790  146.8510 C   0  0  0  0  0  1  0  0  0  0  0  0
  188.4610  176.3790  143.5930 C   0  0  0  0  0  2  0  0  0  0  0  0
  187.8190  177.9240  145.4780 C   0  0  1  0  0  3  0  0  0  0  0  0
  186.5100  178.0780  143.3100 C   0  0  0  0  0  0  0  0  0  0  0  0
  186.9140  179.5290  143.0690 C   0  0  0  0  0  1  0  0  0  0  0  0
  188.8660  177.3030  144.6520 N   0  0  0  0  0  0  0  0  0  0  0  0
  185.1250  177.8780  142.7320 C   0  0  0  0  0  1  0  0  0  0  0  0
  187.4700  177.0570  142.6400 C   0  0  1  0  0  3  0  0  0  0  0  0
  186.4350  177.8300  144.8210 C   0  0  0  0  0  2  0  0  0  0  0  0
  190.2400  177.7390  144.7570 C   0  0  0  0  0  0  0  0  0  0  0  0
  190.5800  178.9590  144.3420 C   0  0  0  0  0  2  0  0  0  0  0  0
  191.2990  176.8590  145.3060 C   0  0  0  0  0  0  0  0  0  0  0  0
  191.6810  176.9570  146.6760 N   0  0  0  0  0  1  0  0  0  0  0  0
  191.8630  176.0000  144.5780 O   0  0  0  0  0  0  0  0  0  0  0  0
  188.1290  177.4970  141.3300 C   0  0  0  0  0  2  0  0  0  0  0  0
  190.4160  177.4100  140.2180 C   0  0  0  0  0  0  0  0  0  0  0  0
  189.5630  177.2310  141.3520 N   0  0  0  0  0  2  0  0  0  0  0  0
  191.6580  177.5030  140.4030 O   0  0  0  0  0  0  0  0  0  0  0  0
  189.8830  177.5040  138.8450 C   0  0  0  0  0  0  0  0  0  0  0  0
  188.8880  177.7620  136.2330 C   0  0  0  0  0  3  0  0  0  0  0  0
  189.9540  176.4200  137.9470 C   0  0  0  0  0  0  0  0  0  0  0  0
  189.4530  176.5530  136.6490 C   0  0  0  0  0  3  0  0  0  0  0  0
  188.8330  178.8450  137.1120 C   0  0  0  0  0  3  0  0  0  0  0  0
  190.5500  175.2550  138.3030 F   0  0  0  0  0  0  0  0  0  0  0  0
  189.3340  178.7180  138.4090 C   0  0  0  0  0  3  0  0  0  0  0  0
  2  6  1  0  0  0  0
  3  1  1  1  0  0  0
  4  9  1  0  0  0  0
  5  4  1  0  0  0  0
  6 10  1  0  0  0  0
  6  3  1  0  0  0  0
  7  4  1  0  0  0  0
  8 15  1  6  0  0  0
  8  4  1  0  0  0  0
  8  2  1  0  0  0  0
  9  3  1  0  0  0  0
 10 12  1  0  0  0  0
 11 10  2  0  0  0  0
 12 13  1  0  0  0  0
 14 12  2  0  0  0  0
 15 17  1  0  0  0  0
 16 18  2  0  0  0  0
 16 17  1  0  0  0  0
 19 16  1  0  0  0  0
 20 22  2  0  0  0  0
 20 23  1  0  0  0  0
 21 24  1  0  0  0  0
 21 19  2  0  0  0  0
 22 21  1  0  0  0  0
 23 25  2  0  0  0  0
 25 19  1  0  0  0  0
M  END
>  <MODEL>
7

>  <REMARK>
 VINA RESULT:      -7.8      3.039      6.811
  Name = 
  5 active torsions:
  status: ('A' for Active; 'I' for Inactive)
    1  A    between atoms: C_1  and  C_5
    2  A    between atoms: C_2  and  C_21
    3  A    between atoms: N_3  and  C_16
    4  A    between atoms: N_15  and  C_21
    5  A    between atoms: C_16  and  C_23
                            x       y       z     vdW  Elec       q    Type
                         _______ _______ _______ _____ _____    ______ ____

>  <TORSDO>
F 5

$$$$
=
 OpenBabel10262419473D

 25 26  0  0  1  0  0  0  0  0999 V2000
  192.0570  175.7190  146.1640 C   0  0  0  0  0  1  0  0  0  0  0  0
  189.0300  176.7670  144.8890 C   0  0  0  0  0  2  0  0  0  0  0  0
  191.1030  176.8890  146.3160 C   0  0  1  0  0  3  0  0  0  0  0  0
  188.8880  177.5330  147.3720 C   0  0  0  0  0  0  0  0  0  0  0  0
  189.3430  178.9610  147.6610 C   0  0  0  0  0  1  0  0  0  0  0  0
  190.4280  177.1660  145.0390 N   0  0  0  0  0  0  0  0  0  0  0  0
  187.9180  177.1240  148.4600 C   0  0  0  0  0  1  0  0  0  0  0  0
  188.1730  177.3840  146.0010 C   0  0  1  0  0  3  0  0  0  0  0  0
  190.1040  176.6030  147.4460 C   0  0  0  0  0  2  0  0  0  0  0  0
  191.0690  177.9810  144.0310 C   0  0  0  0  0  0  0  0  0  0  0  0
  191.4860  179.2080  144.3390 C   0  0  0  0  0  2  0  0  0  0  0  0
  191.2670  177.4950  142.6440 C   0  0  0  0  0  0  0  0  0  0  0  0
  190.1740  177.4570  141.7290 N   0  0  0  0  0  1  0  0  0  0  0  0
  192.4050  177.1290  142.2480 O   0  0  0  0  0  0  0  0  0  0  0  0
  187.3700  178.5930  145.5150 C   0  0  0  0  0  2  0  0  0  0  0  0
  184.8400  178.5830  145.7880 C   0  0  0  0  0  0  0  0  0  0  0  0
  186.1590  178.7690  146.3090 N   0  0  0  0  0  2  0  0  0  0  0  0
  183.8890  178.4070  146.5940 O   0  0  0  0  0  0  0  0  0  0  0  0
  184.5650  178.5770  144.3380 C   0  0  0  0  0  0  0  0  0  0  0  0
  184.1040  178.5160  141.5690 C   0  0  0  0  0  3  0  0  0  0  0  0
  183.2560  178.7090  143.8320 C   0  0  0  0  0  0  0  0  0  0  0  0
  183.0330  178.6820  142.4520 C   0  0  0  0  0  3  0  0  0  0  0  0
  185.4000  178.3640  142.0650 C   0  0  0  0  0  3  0  0  0  0  0  0
  182.1920  178.8130  144.6650 F   0  0  0  0  0  0  0  0  0  0  0  0
  185.6280  178.3890  143.4430 C   0  0  0  0  0  3  0  0  0  0  0  0
  2  6  1  0  0  0  0
  2  8  1  0  0  0  0
  3  1  1  6  0  0  0
  3  9  1  0  0  0  0
  4  9  1  0  0  0  0
  4  5  1  0  0  0  0
  4  7  1  0  0  0  0
  6  3  1  0  0  0  0
  8 15  1  6  0  0  0
  8  4  1  0  0  0  0
 10 11  2  0  0  0  0
 10  6  1  0  0  0  0
 12 10  1  0  0  0  0
 13 12  1  0  0  0  0
 14 12  2  0  0  0  0
 15 17  1  0  0  0  0
 16 17  1  0  0  0  0
 16 18  2  0  0  0  0
 19 16  1  0  0  0  0
 20 23  2  0  0  0  0
 20 22  1  0  0  0  0
 21 19  1  0  0  0  0
 21 24  1  0  0  0  0
 22 21  2  0  0  0  0
 23 25  1  0  0  0  0
 25 19  2  0  0  0  0
M  END
>  <MODEL>
8

>  <REMARK>
 VINA RESULT:      -7.8      2.287      3.644
  Name = 
  5 active torsions:
  status: ('A' for Active; 'I' for Inactive)
    1  A    between atoms: C_1  and  C_5
    2  A    between atoms: C_2  and  C_21
    3  A    between atoms: N_3  and  C_16
    4  A    between atoms: N_15  and  C_21
    5  A    between atoms: C_16  and  C_23
                            x       y       z     vdW  Elec       q    Type
                         _______ _______ _______ _____ _____    ______ ____

>  <TORSDO>
F 5

$$$$
=
 OpenBabel10262419473D

 25 26  0  0  1  0  0  0  0  0999 V2000
  190.2310  177.7350  146.7080 C   0  0  0  0  0  1  0  0  0  0  0  0
  189.1130  178.7380  143.6050 C   0  0  0  0  0  2  0  0  0  0  0  0
  189.8970  177.1130  145.3660 C   0  0  1  0  0  3  0  0  0  0  0  0
  190.7990  176.8470  143.0100 C   0  0  0  0  0  0  0  0  0  0  0  0
  190.2110  175.4480  142.8490 C   0  0  0  0  0  1  0  0  0  0  0  0
  188.7970  177.8490  144.7230 N   0  0  0  0  0  0  0  0  0  0  0  0
  192.0810  176.9080  142.2060 C   0  0  0  0  0  1  0  0  0  0  0  0
  189.8530  177.9710  142.5040 C   0  0  1  0  0  3  0  0  0  0  0  0
  191.1530  177.0690  144.4850 C   0  0  0  0  0  2  0  0  0  0  0  0
  187.4210  177.5570  145.0600 C   0  0  0  0  0  0  0  0  0  0  0  0
  186.7190  176.7160  144.3030 C   0  0  0  0  0  2  0  0  0  0  0  0
  186.7540  178.1820  146.2280 C   0  0  0  0  0  0  0  0  0  0  0  0
  185.7060  179.1310  146.0380 N   0  0  0  0  0  1  0  0  0  0  0  0
  187.0870  177.8710  147.4010 O   0  0  0  0  0  0  0  0  0  0  0  0
  188.9410  177.6160  141.3260 C   0  0  0  0  0  2  0  0  0  0  0  0
  189.1690  178.4460  138.9310 C   0  0  0  0  0  0  0  0  0  0  0  0
  188.9460  178.6770  140.3240 N   0  0  0  0  0  2  0  0  0  0  0  0
  188.8150  179.3280  138.1060 O   0  0  0  0  0  0  0  0  0  0  0  0
  189.7860  177.2000  138.4330 C   0  0  0  0  0  0  0  0  0  0  0  0
  191.0130  174.8370  137.5450 C   0  0  0  0  0  3  0  0  0  0  0  0
  189.0220  176.1960  137.8040 C   0  0  0  0  0  0  0  0  0  0  0  0
  189.6400  175.0230  137.3610 C   0  0  0  0  0  3  0  0  0  0  0  0
  191.7700  175.8190  138.1840 C   0  0  0  0  0  3  0  0  0  0  0  0
  187.6800  176.3230  137.6650 F   0  0  0  0  0  0  0  0  0  0  0  0
  191.1580  176.9920  138.6310 C   0  0  0  0  0  3  0  0  0  0  0  0
  2  6  1  0  0  0  0
  3  1  1  1  0  0  0
  4  9  1  0  0  0  0
  5  4  1  0  0  0  0
  6 10  1  0  0  0  0
  6  3  1  0  0  0  0
  7  4  1  0  0  0  0
  8 15  1  6  0  0  0
  8  4  1  0  0  0  0
  8  2  1  0  0  0  0
  9  3  1  0  0  0  0
 10 12  1  0  0  0  0
 11 10  2  0  0  0  0
 12 14  2  0  0  0  0
 13 12  1  0  0  0  0
 16 17  1  0  0  0  0
 17 15  1  0  0  0  0
 18 16  2  0  0  0  0
 19 25  1  0  0  0  0
 19 16  1  0  0  0  0
 20 23  1  0  0  0  0
 21 19  2  0  0  0  0
 22 20  2  0  0  0  0
 22 21  1  0  0  0  0
 23 25  2  0  0  0  0
 24 21  1  0  0  0  0
M  END
>  <MODEL>
9

>  <REMARK>
 VINA RESULT:      -7.7      2.792      6.909
  Name = 
  5 active torsions:
  status: ('A' for Active; 'I' for Inactive)
    1  A    between atoms: C_1  and  C_5
    2  A    between atoms: C_2  and  C_21
    3  A    between atoms: N_3  and  C_16
    4  A    between atoms: N_15  and  C_21
    5  A    between atoms: C_16  and  C_23
                            x       y       z     vdW  Elec       q    Type
                         _______ _______ _______ _____ _____    ______ ____

>  <TORSDO>
F 5

$$$$
