=
 OpenBabel10262423193D

 34 39  0  0  1  0  0  0  0  0999 V2000
  190.8190  177.5820  140.3420 C   0  0  1  0  0  3  0  0  0  0  0  0
  189.8910  176.4080  140.4240 C   0  0  1  0  0  3  0  0  0  0  0  0
  190.3530  177.7720  143.1970 C   0  0  2  0  0  0  0  0  0  0  0  0
  191.6260  177.0220  142.6630 C   0  0  0  0  0  2  0  0  0  0  0  0
  192.0880  177.3530  141.2120 C   0  0  0  0  0  2  0  0  0  0  0  0
  189.1860  177.7000  142.3730 O   0  0  0  0  0  0  0  0  0  0  0  0
  189.0930  176.4360  141.7520 C   0  0  0  0  0  2  0  0  0  0  0  0
  190.7040  179.2410  143.3280 C   0  0  0  0  0  1  0  0  0  0  0  0
  189.0140  176.4910  139.3300 O   0  0  0  0  0  0  0  0  0  0  0  0
  191.0070  177.7270  138.8630 C   0  0  0  0  0  2  0  0  0  0  0  0
  189.5890  177.3530  138.3590 C   0  0  1  0  0  0  0  0  0  0  0  0
  188.6440  177.1930  135.9540 C   0  0  0  0  0  2  0  0  0  0  0  0
  190.5420  174.2560  137.6210 C   0  0  0  0  0  2  0  0  0  0  0  0
  193.0220  174.5630  137.5630 C   0  0  0  0  0  3  0  0  0  0  0  0
  188.0050  174.6970  137.4230 C   0  0  0  0  0  2  0  0  0  0  0  0
  186.2290  177.5760  135.4710 C   0  0  0  0  0  2  0  0  0  0  0  0
  184.5150  175.9730  136.3550 C   0  0  0  0  0  3  0  0  0  0  0  0
  193.3140  176.0050  135.8300 N   0  0  0  0  0  0  0  0  0  0  0  0
  184.8210  177.0630  135.6250 C   0  0  0  0  0  3  0  0  0  0  0  0
  186.9540  175.3890  136.5380 C   0  0  2  0  0  3  0  0  0  0  0  0
  187.2220  176.9040  136.4210 C   0  0  1  0  0  3  0  0  0  0  0  0
  185.5560  175.2180  137.1400 C   0  0  0  0  0  2  0  0  0  0  0  0
  191.8340  174.6960  137.0050 C   0  0  0  0  0  0  0  0  0  0  0  0
  193.9310  175.3790  136.7750 C   0  0  0  0  0  3  0  0  0  0  0  0
  191.0820  176.9320  136.2950 C   0  0  0  0  0  2  0  0  0  0  0  0
  191.8920  175.6820  135.8930 C   0  0  1  0  0  3  0  0  0  0  0  0
  189.4150  175.0900  136.9820 C   0  0  1  0  0  3  0  0  0  0  0  0
  189.6880  176.6350  136.9360 C   0  0  1  0  0  0  0  0  0  0  0  0
  187.6860  178.7230  138.9610 O   0  0  0  0  0  1  0  0  0  0  0  0
  189.1220  179.6970  137.4740 O   0  0  0  0  0  0  0  0  0  0  0  0
  188.7640  178.6360  138.2870 C   0  0  0  0  0  0  0  0  0  0  0  0
  189.9570  177.2750  144.5810 C   0  0  0  0  0  0  0  0  0  0  0  0
  190.9520  176.7880  145.4260 O   0  0  0  0  0  1  0  0  0  0  0  0
  188.8890  177.7300  145.0900 O   0  0  0  0  0  0  0  0  0  0  0  0
  1 10  1  6  0  0  0
  1  2  1  0  0  0  0
  1  5  1  0  0  0  0
  2  7  1  1  0  0  0
  3  8  1  1  0  0  0
  3 32  1  0  0  0  0
  4  3  1  0  0  0  0
  5  4  1  0  0  0  0
  6  3  1  0  0  0  0
  7  6  1  0  0  0  0
  9  2  1  0  0  0  0
 11 31  1  6  0  0  0
 11 10  1  0  0  0  0
 11  9  1  0  0  0  0
 12 21  1  0  0  0  0
 16 19  1  0  0  0  0
 17 22  1  0  0  0  0
 18 26  1  0  0  0  0
 18 24  2  0  0  0  0
 19 17  2  0  0  0  0
 20 22  1  1  0  0  0
 20 15  1  0  0  0  0
 21 16  1  6  0  0  0
 21 20  1  0  0  0  0
 23 14  2  0  0  0  0
 23 13  1  0  0  0  0
 24 14  1  0  0  0  0
 25 28  1  0  0  0  0
 26 25  1  1  0  0  0
 26 23  1  0  0  0  0
 27 15  1  1  0  0  0
 27 13  1  0  0  0  0
 28 12  1  6  0  0  0
 28 27  1  0  0  0  0
 28 11  1  0  0  0  0
 30 31  2  0  0  0  0
 31 29  1  0  0  0  0
 32 34  2  0  0  0  0
 32 33  1  0  0  0  0
M  END
>  <MODEL>
1

>  <REMARK>
 VINA RESULT:      -6.3      0.000      0.000
  Name = 
  3 active torsions:
  status: ('A' for Active; 'I' for Inactive)
    1  A    between atoms: C_7  and  C_11
    2  A    between atoms: C_18  and  C_33
    3  A    between atoms: C_33  and  C_34
                            x       y       z     vdW  Elec       q    Type
                         _______ _______ _______ _____ _____    ______ ____

>  <TORSDO>
F 3

$$$$
=
 OpenBabel10262423193D

 34 39  0  0  1  0  0  0  0  0999 V2000
  184.0540  177.5970  137.3070 C   0  0  1  0  0  3  0  0  0  0  0  0
  183.9670  177.5340  138.8020 C   0  0  1  0  0  3  0  0  0  0  0  0
  186.8460  178.2070  137.7940 C   0  0  2  0  0  0  0  0  0  0  0  0
  186.4150  176.7300  137.4770 C   0  0  0  0  0  2  0  0  0  0  0  0
  185.0450  176.5290  136.7610 C   0  0  0  0  0  2  0  0  0  0  0  0
  185.8960  179.0030  138.5060 O   0  0  0  0  0  0  0  0  0  0  0  0
  185.1980  178.2170  139.4500 C   0  0  0  0  0  2  0  0  0  0  0  0
  187.0990  178.9080  136.4740 C   0  0  0  0  0  1  0  0  0  0  0  0
  182.7890  178.2000  139.1800 O   0  0  0  0  0  0  0  0  0  0  0  0
  182.6160  177.4800  136.9060 C   0  0  0  0  0  2  0  0  0  0  0  0
  181.9380  178.2830  138.0460 C   0  0  1  0  0  0  0  0  0  0  0  0
  179.4940  178.7730  138.7460 C   0  0  0  0  0  2  0  0  0  0  0  0
  181.1320  175.3040  139.2790 C   0  0  0  0  0  2  0  0  0  0  0  0
  181.1810  173.9360  137.1870 C   0  0  0  0  0  3  0  0  0  0  0  0
  180.8510  177.2790  140.9190 C   0  0  0  0  0  2  0  0  0  0  0  0
  178.9310  180.6260  140.3150 C   0  0  0  0  0  2  0  0  0  0  0  0
  179.6920  180.5080  142.7010 C   0  0  0  0  0  3  0  0  0  0  0  0
  179.5110  174.8500  135.9450 N   0  0  0  0  0  0  0  0  0  0  0  0
  179.0120  181.1430  141.7280 C   0  0  0  0  0  3  0  0  0  0  0  0
  179.9490  178.4870  141.2280 C   0  0  2  0  0  3  0  0  0  0  0  0
  179.8950  179.4700  140.0410 C   0  0  1  0  0  3  0  0  0  0  0  0
  180.4910  179.2580  142.4350 C   0  0  0  0  0  2  0  0  0  0  0  0
  180.5820  174.8050  137.9780 C   0  0  0  0  0  0  0  0  0  0  0  0
  180.4580  173.9730  135.9260 C   0  0  0  0  0  3  0  0  0  0  0  0
  179.9200  176.9990  137.0730 C   0  0  0  0  0  2  0  0  0  0  0  0
  179.5080  175.5220  137.2410 C   0  0  1  0  0  3  0  0  0  0  0  0
  180.4790  176.6690  139.5670 C   0  0  1  0  0  3  0  0  0  0  0  0
  180.4960  177.6720  138.3600 C   0  0  1  0  0  0  0  0  0  0  0  0
  182.3600  180.6490  138.3350 O   0  0  0  0  0  1  0  0  0  0  0  0
  181.1840  180.1200  136.4490 O   0  0  0  0  0  0  0  0  0  0  0  0
  181.8480  179.7420  137.6020 C   0  0  0  0  0  0  0  0  0  0  0  0
  188.1470  178.2460  138.5840 C   0  0  0  0  0  0  0  0  0  0  0  0
  188.6110  177.0680  139.1670 O   0  0  0  0  0  1  0  0  0  0  0  0
  188.9780  179.1630  138.3120 O   0  0  0  0  0  0  0  0  0  0  0  0
  1  5  1  6  0  0  0
  1  2  1  0  0  0  0
  2  9  1  0  0  0  0
  2  7  1  1  0  0  0
  3  8  1  6  0  0  0
  3  6  1  0  0  0  0
  3 32  1  0  0  0  0
  4  3  1  0  0  0  0
  5  4  1  0  0  0  0
  6  7  1  0  0  0  0
 10  1  1  0  0  0  0
 10 11  1  0  0  0  0
 11 31  1  6  0  0  0
 11 28  1  0  0  0  0
 11  9  1  0  0  0  0
 14 23  2  0  0  0  0
 16 19  1  0  0  0  0
 18 26  1  0  0  0  0
 19 17  2  0  0  0  0
 20 15  1  6  0  0  0
 20 22  1  0  0  0  0
 21 12  1  6  0  0  0
 21 16  1  0  0  0  0
 21 20  1  0  0  0  0
 22 17  1  0  0  0  0
 23 13  1  0  0  0  0
 24 18  2  0  0  0  0
 24 14  1  0  0  0  0
 26 25  1  6  0  0  0
 26 23  1  0  0  0  0
 27 13  1  6  0  0  0
 27 15  1  0  0  0  0
 28 25  1  6  0  0  0
 28 12  1  0  0  0  0
 28 27  1  0  0  0  0
 30 31  2  0  0  0  0
 31 29  1  0  0  0  0
 32 33  1  0  0  0  0
 34 32  2  0  0  0  0
M  END
>  <MODEL>
2

>  <REMARK>
 VINA RESULT:      -5.8      5.512      8.854
  Name = 
  3 active torsions:
  status: ('A' for Active; 'I' for Inactive)
    1  A    between atoms: C_7  and  C_11
    2  A    between atoms: C_18  and  C_33
    3  A    between atoms: C_33  and  C_34
                            x       y       z     vdW  Elec       q    Type
                         _______ _______ _______ _____ _____    ______ ____

>  <TORSDO>
F 3

$$$$
=
 OpenBabel10262423193D

 34 39  0  0  1  0  0  0  0  0999 V2000
  183.0820  177.3600  136.9500 C   0  0  1  0  0  3  0  0  0  0  0  0
  182.1370  176.6270  137.8540 C   0  0  1  0  0  3  0  0  0  0  0  0
  184.3300  174.7620  136.6420 C   0  0  2  0  0  0  0  0  0  0  0  0
  183.2890  175.2580  135.5750 C   0  0  0  0  0  2  0  0  0  0  0  0
  183.0230  176.7920  135.5030 C   0  0  0  0  0  2  0  0  0  0  0  0
  184.1140  175.1990  137.9860 O   0  0  0  0  0  0  0  0  0  0  0  0
  182.7330  175.2590  138.2720 C   0  0  0  0  0  2  0  0  0  0  0  0
  185.6950  175.2770  136.2300 C   0  0  0  0  0  1  0  0  0  0  0  0
  181.9320  177.4330  138.9860 O   0  0  0  0  0  0  0  0  0  0  0  0
  182.6670  178.7840  137.1540 C   0  0  0  0  0  2  0  0  0  0  0  0
  182.3140  178.7630  138.6640 C   0  0  1  0  0  0  0  0  0  0  0  0
  181.1480  180.2540  140.4300 C   0  0  0  0  0  2  0  0  0  0  0  0
  179.3070  178.9810  137.2680 C   0  0  0  0  0  2  0  0  0  0  0  0
  179.8650  180.3190  135.2310 C   0  0  0  0  0  3  0  0  0  0  0  0
  179.3320  178.0360  139.6710 C   0  0  0  0  0  2  0  0  0  0  0  0
  181.0270  179.5890  142.8280 C   0  0  0  0  0  2  0  0  0  0  0  0
  179.6800  177.5800  143.4940 C   0  0  0  0  0  3  0  0  0  0  0  0
  180.5730  182.2960  136.1010 N   0  0  0  0  0  0  0  0  0  0  0  0
  180.4440  178.6350  143.8390 C   0  0  0  0  0  3  0  0  0  0  0  0
  179.5070  178.4510  141.1420 C   0  0  2  0  0  3  0  0  0  0  0  0
  180.8870  179.0970  141.3870 C   0  0  1  0  0  3  0  0  0  0  0  0
  179.4080  177.2250  142.0550 C   0  0  0  0  0  2  0  0  0  0  0  0
  179.6340  180.2410  136.5280 C   0  0  0  0  0  0  0  0  0  0  0  0
  180.4280  181.6390  135.0000 C   0  0  0  0  0  3  0  0  0  0  0  0
  181.3300  181.0830  138.1040 C   0  0  0  0  0  2  0  0  0  0  0  0
  180.1280  181.4640  137.2150 C   0  0  1  0  0  3  0  0  0  0  0  0
  179.6970  179.1940  138.7430 C   0  0  1  0  0  3  0  0  0  0  0  0
  181.1300  179.7930  138.9630 C   0  0  1  0  0  0  0  0  0  0  0  0
  184.2680  180.1280  139.0940 O   0  0  0  0  0  0  0  0  0  0  0  0
  184.0310  178.3420  140.5000 O   0  0  0  0  0  1  0  0  0  0  0  0
  183.5790  179.1150  139.4450 C   0  0  0  0  0  0  0  0  0  0  0  0
  184.4110  173.2410  136.6720 C   0  0  0  0  0  0  0  0  0  0  0  0
  185.0510  172.6280  137.7480 O   0  0  0  0  0  1  0  0  0  0  0  0
  183.5380  172.5890  136.0260 O   0  0  0  0  0  0  0  0  0  0  0  0
  1  5  1  6  0  0  0
  1 10  1  0  0  0  0
  1  2  1  0  0  0  0
  2  7  1  1  0  0  0
  2  9  1  0  0  0  0
  3  8  1  6  0  0  0
  3 32  1  0  0  0  0
  3  6  1  0  0  0  0
  4  3  1  0  0  0  0
  5  4  1  0  0  0  0
  6  7  1  0  0  0  0
 10 11  1  0  0  0  0
 11 28  1  0  0  0  0
 11  9  1  0  0  0  0
 11 31  1  1  0  0  0
 14 23  2  0  0  0  0
 16 19  1  0  0  0  0
 17 19  2  0  0  0  0
 18 26  1  0  0  0  0
 20 15  1  6  0  0  0
 20 21  1  0  0  0  0
 20 22  1  0  0  0  0
 21 12  1  6  0  0  0
 21 16  1  0  0  0  0
 22 17  1  0  0  0  0
 23 26  1  0  0  0  0
 23 13  1  0  0  0  0
 24 14  1  0  0  0  0
 24 18  2  0  0  0  0
 26 25  1  1  0  0  0
 27 13  1  6  0  0  0
 27 28  1  0  0  0  0
 27 15  1  0  0  0  0
 28 25  1  6  0  0  0
 28 12  1  0  0  0  0
 29 31  2  0  0  0  0
 31 30  1  0  0  0  0
 32 33  1  0  0  0  0
 34 32  2  0  0  0  0
M  END
>  <MODEL>
3

>  <REMARK>
 VINA RESULT:      -5.0      6.221      9.978
  Name = 
  3 active torsions:
  status: ('A' for Active; 'I' for Inactive)
    1  A    between atoms: C_7  and  C_11
    2  A    between atoms: C_18  and  C_33
    3  A    between atoms: C_33  and  C_34
                            x       y       z     vdW  Elec       q    Type
                         _______ _______ _______ _____ _____    ______ ____

>  <TORSDO>
F 3

$$$$
=
 OpenBabel10262423193D

 34 39  0  0  1  0  0  0  0  0999 V2000
  181.2900  180.2580  137.8060 C   0  0  1  0  0  3  0  0  0  0  0  0
  180.0320  180.0350  138.5900 C   0  0  1  0  0  3  0  0  0  0  0  0
  180.0860  182.8170  137.1690 C   0  0  2  0  0  0  0  0  0  0  0  0
  181.1150  182.7130  138.3520 C   0  0  0  0  0  2  0  0  0  0  0  0
  182.0760  181.4860  138.3500 C   0  0  0  0  0  2  0  0  0  0  0  0
  179.2720  181.6640  136.9370 O   0  0  0  0  0  0  0  0  0  0  0  0
  178.9350  181.0400  138.1580 C   0  0  0  0  0  2  0  0  0  0  0  0
  180.8700  183.0610  135.8950 C   0  0  0  0  0  1  0  0  0  0  0  0
  179.6110  178.7190  138.3380 O   0  0  0  0  0  0  0  0  0  0  0  0
  181.9510  178.9170  137.8910 C   0  0  0  0  0  2  0  0  0  0  0  0
  180.7140  177.9860  137.8250 C   0  0  1  0  0  0  0  0  0  0  0  0
  180.1840  176.6850  140.0000 C   0  0  0  0  0  2  0  0  0  0  0  0
  183.4290  176.0780  137.9750 C   0  0  0  0  0  2  0  0  0  0  0  0
  183.0540  174.6230  135.9770 C   0  0  0  0  0  3  0  0  0  0  0  0
  183.0170  177.5590  140.0510 C   0  0  0  0  0  2  0  0  0  0  0  0
  179.7390  177.8620  142.1510 C   0  0  0  0  0  2  0  0  0  0  0  0
  181.5770  179.1590  143.2610 C   0  0  0  0  0  3  0  0  0  0  0  0
  181.1580  173.4930  136.5220 N   0  0  0  0  0  0  0  0  0  0  0  0
  180.3120  178.6950  143.2690 C   0  0  0  0  0  3  0  0  0  0  0  0
  182.1230  177.6890  141.2960 C   0  0  2  0  0  3  0  0  0  0  0  0
  180.6350  177.8200  140.9120 C   0  0  1  0  0  3  0  0  0  0  0  0
  182.5020  178.9420  142.0910 C   0  0  0  0  0  2  0  0  0  0  0  0
  182.7940  174.9450  137.2300 C   0  0  0  0  0  0  0  0  0  0  0  0
  182.0180  173.6840  135.5780 C   0  0  0  0  0  3  0  0  0  0  0  0
  180.4680  175.4170  137.8930 C   0  0  0  0  0  2  0  0  0  0  0  0
  181.5230  174.3120  137.6740 C   0  0  1  0  0  3  0  0  0  0  0  0
  182.4740  176.4770  139.1160 C   0  0  1  0  0  3  0  0  0  0  0  0
  180.9780  176.6650  138.6830 C   0  0  1  0  0  0  0  0  0  0  0  0
  181.4260  177.6310  135.5380 O   0  0  0  0  0  0  0  0  0  0  0  0
  179.1730  177.4410  135.8690 O   0  0  0  0  0  1  0  0  0  0  0  0
  180.4500  177.6610  136.3560 C   0  0  0  0  0  0  0  0  0  0  0  0
  179.1450  184.0000  137.3550 C   0  0  0  0  0  0  0  0  0  0  0  0
  178.9660  184.5150  138.6380 O   0  0  0  0  0  1  0  0  0  0  0  0
  178.9370  184.7540  136.3580 O   0  0  0  0  0  0  0  0  0  0  0  0
  1 10  1  1  0  0  0
  1  5  1  0  0  0  0
  1  2  1  0  0  0  0
  2  7  1  6  0  0  0
  3  8  1  6  0  0  0
  3 32  1  0  0  0  0
  3  4  1  0  0  0  0
  5  4  1  0  0  0  0
  6  3  1  0  0  0  0
  6  7  1  0  0  0  0
  9  2  1  0  0  0  0
 11 31  1  6  0  0  0
 11 10  1  0  0  0  0
 11  9  1  0  0  0  0
 11 28  1  0  0  0  0
 14 23  2  0  0  0  0
 16 19  1  0  0  0  0
 17 19  2  0  0  0  0
 18 26  1  0  0  0  0
 20 15  1  6  0  0  0
 20 22  1  0  0  0  0
 21 12  1  6  0  0  0
 21 20  1  0  0  0  0
 21 16  1  0  0  0  0
 22 17  1  0  0  0  0
 23 26  1  0  0  0  0
 23 13  1  0  0  0  0
 24 14  1  0  0  0  0
 24 18  2  0  0  0  0
 26 25  1  6  0  0  0
 27 13  1  6  0  0  0
 27 15  1  0  0  0  0
 28 25  1  6  0  0  0
 28 27  1  0  0  0  0
 28 12  1  0  0  0  0
 29 31  2  0  0  0  0
 30 31  1  0  0  0  0
 32 33  1  0  0  0  0
 34 32  2  0  0  0  0
M  END
>  <MODEL>
4

>  <REMARK>
 VINA RESULT:      -5.0      7.841     10.470
  Name = 
  3 active torsions:
  status: ('A' for Active; 'I' for Inactive)
    1  A    between atoms: C_7  and  C_11
    2  A    between atoms: C_18  and  C_33
    3  A    between atoms: C_33  and  C_34
                            x       y       z     vdW  Elec       q    Type
                         _______ _______ _______ _____ _____    ______ ____

>  <TORSDO>
F 3

$$$$
=
 OpenBabel10262423193D

 34 39  0  0  1  0  0  0  0  0999 V2000
  182.8220  177.9930  138.6870 C   0  0  1  0  0  3  0  0  0  0  0  0
  182.7210  176.5630  139.1250 C   0  0  1  0  0  3  0  0  0  0  0  0
  181.1670  178.5110  141.0090 C   0  0  2  0  0  0  0  0  0  0  0  0
  182.7260  178.6730  141.1120 C   0  0  0  0  0  2  0  0  0  0  0  0
  183.5090  178.8640  139.7780 C   0  0  0  0  0  2  0  0  0  0  0  0
  180.6940  177.5020  140.1140 O   0  0  0  0  0  0  0  0  0  0  0  0
  181.5540  176.3820  140.1290 C   0  0  0  0  0  2  0  0  0  0  0  0
  180.5970  179.8280  140.5210 C   0  0  0  0  0  1  0  0  0  0  0  0
  182.4950  175.7880  137.9750 O   0  0  0  0  0  0  0  0  0  0  0  0
  183.5130  177.8640  137.3640 C   0  0  0  0  0  2  0  0  0  0  0  0
  182.8790  176.5500  136.8400 C   0  0  1  0  0  0  0  0  0  0  0  0
  183.2270  174.8340  134.9340 C   0  0  0  0  0  2  0  0  0  0  0  0
  185.9530  175.5390  137.5940 C   0  0  0  0  0  2  0  0  0  0  0  0
  187.2320  177.6350  137.1220 C   0  0  0  0  0  3  0  0  0  0  0  0
  184.1800  173.6640  137.4870 C   0  0  0  0  0  2  0  0  0  0  0  0
  181.6640  172.9220  134.5940 C   0  0  0  0  0  2  0  0  0  0  0  0
  181.5170  171.1140  136.3250 C   0  0  0  0  0  3  0  0  0  0  0  0
  186.9280  177.9220  134.8880 N   0  0  0  0  0  0  0  0  0  0  0  0
  181.1460  171.6130  135.1310 C   0  0  0  0  0  3  0  0  0  0  0  0
  183.3400  172.8370  136.4980 C   0  0  2  0  0  3  0  0  0  0  0  0
  182.4340  173.7370  135.6340 C   0  0  1  0  0  3  0  0  0  0  0  0
  182.4300  171.8670  137.2590 C   0  0  0  0  0  2  0  0  0  0  0  0
  186.6090  176.5500  136.7040 C   0  0  0  0  0  0  0  0  0  0  0  0
  187.4400  178.4600  135.9440 C   0  0  0  0  0  3  0  0  0  0  0  0
  184.7630  176.7690  135.0880 C   0  0  0  0  0  2  0  0  0  0  0  0
  186.2930  176.6600  135.2550 C   0  0  1  0  0  3  0  0  0  0  0  0
  184.8820  174.8110  136.7590 C   0  0  1  0  0  3  0  0  0  0  0  0
  183.9340  175.7560  135.9410 C   0  0  1  0  0  0  0  0  0  0  0  0
  181.6850  177.8590  135.1900 O   0  0  0  0  0  0  0  0  0  0  0  0
  180.4100  176.2920  136.2590 O   0  0  0  0  0  1  0  0  0  0  0  0
  181.6260  176.9180  136.0470 C   0  0  0  0  0  0  0  0  0  0  0  0
  180.5480  178.2280  142.3720 C   0  0  0  0  0  0  0  0  0  0  0  0
  181.1490  178.7740  143.5040 O   0  0  0  0  0  1  0  0  0  0  0  0
  179.3160  177.9340  142.4130 O   0  0  0  0  0  0  0  0  0  0  0  0
  1 10  1  6  0  0  0
  1  2  1  0  0  0  0
  1  5  1  0  0  0  0
  2  7  1  1  0  0  0
  3  8  1  6  0  0  0
  3  4  1  0  0  0  0
  3 32  1  0  0  0  0
  5  4  1  0  0  0  0
  6  7  1  0  0  0  0
  6  3  1  0  0  0  0
  9  2  1  0  0  0  0
 11 31  1  6  0  0  0
 11 10  1  0  0  0  0
 11  9  1  0  0  0  0
 12 21  1  0  0  0  0
 16 19  1  0  0  0  0
 17 22  1  0  0  0  0
 18 26  1  0  0  0  0
 18 24  2  0  0  0  0
 19 17  2  0  0  0  0
 20 22  1  1  0  0  0
 20 15  1  0  0  0  0
 21 16  1  6  0  0  0
 21 20  1  0  0  0  0
 23 14  2  0  0  0  0
 23 13  1  0  0  0  0
 24 14  1  0  0  0  0
 25 28  1  0  0  0  0
 26 25  1  1  0  0  0
 26 23  1  0  0  0  0
 27 15  1  1  0  0  0
 27 13  1  0  0  0  0
 28 12  1  6  0  0  0
 28 27  1  0  0  0  0
 28 11  1  0  0  0  0
 29 31  2  0  0  0  0
 31 30  1  0  0  0  0
 32 34  2  0  0  0  0
 32 33  1  0  0  0  0
M  END
>  <MODEL>
5

>  <REMARK>
 VINA RESULT:      -4.8      5.394      7.347
  Name = 
  3 active torsions:
  status: ('A' for Active; 'I' for Inactive)
    1  A    between atoms: C_7  and  C_11
    2  A    between atoms: C_18  and  C_33
    3  A    between atoms: C_33  and  C_34
                            x       y       z     vdW  Elec       q    Type
                         _______ _______ _______ _____ _____    ______ ____

>  <TORSDO>
F 3

$$$$
=
 OpenBabel10262423193D

 34 39  0  0  1  0  0  0  0  0999 V2000
  190.7240  177.3970  140.6210 C   0  0  1  0  0  3  0  0  0  0  0  0
  189.7450  176.3200  140.9790 C   0  0  1  0  0  3  0  0  0  0  0  0
  190.6420  178.0020  143.4550 C   0  0  2  0  0  0  0  0  0  0  0  0
  191.7880  177.0910  142.8850 C   0  0  0  0  0  2  0  0  0  0  0  0
  192.0780  177.1880  141.3570 C   0  0  0  0  0  2  0  0  0  0  0  0
  189.3770  177.9120  142.7950 O   0  0  0  0  0  0  0  0  0  0  0  0
  189.1280  176.5870  142.3760 C   0  0  0  0  0  2  0  0  0  0  0  0
  191.0950  179.4430  143.3340 C   0  0  0  0  0  1  0  0  0  0  0  0
  188.7410  176.3250  139.9970 O   0  0  0  0  0  0  0  0  0  0  0  0
  190.7280  177.3280  139.1250 C   0  0  0  0  0  2  0  0  0  0  0  0
  189.2380  177.0010  138.8520 C   0  0  1  0  0  0  0  0  0  0  0  0
  190.0600  174.8870  137.6040 C   0  0  0  0  0  2  0  0  0  0  0  0
  188.4500  177.8800  135.7460 C   0  0  0  0  0  2  0  0  0  0  0  0
  185.9550  177.8790  135.9090 C   0  0  0  0  0  3  0  0  0  0  0  0
  190.9380  177.3000  136.1210 C   0  0  0  0  0  2  0  0  0  0  0  0
  192.4150  174.0930  137.7900 C   0  0  0  0  0  2  0  0  0  0  0  0
  194.2750  175.4890  136.8500 C   0  0  0  0  0  3  0  0  0  0  0  0
  185.4770  175.7010  136.3510 N   0  0  0  0  0  0  0  0  0  0  0  0
  193.8600  174.3600  137.4550 C   0  0  0  0  0  3  0  0  0  0  0  0
  191.8930  176.1140  136.3450 C   0  0  2  0  0  3  0  0  0  0  0  0
  191.5210  175.3220  137.6150 C   0  0  1  0  0  3  0  0  0  0  0  0
  193.3290  176.6160  136.5230 C   0  0  0  0  0  2  0  0  0  0  0  0
  187.1000  177.2330  135.8010 C   0  0  0  0  0  0  0  0  0  0  0  0
  184.9530  176.8740  136.2280 C   0  0  0  0  0  3  0  0  0  0  0  0
  187.6660  175.5000  137.4580 C   0  0  0  0  0  2  0  0  0  0  0  0
  186.9190  175.7960  136.1410 C   0  0  1  0  0  3  0  0  0  0  0  0
  189.4840  176.8380  136.2140 C   0  0  1  0  0  3  0  0  0  0  0  0
  189.1090  176.0940  137.5430 C   0  0  1  0  0  0  0  0  0  0  0  0
  189.1210  179.3570  138.3020 O   0  0  0  0  0  0  0  0  0  0  0  0
  187.1480  178.4520  139.0170 O   0  0  0  0  0  1  0  0  0  0  0  0
  188.4890  178.3240  138.6970 C   0  0  0  0  0  0  0  0  0  0  0  0
  190.3980  177.7270  144.9320 C   0  0  0  0  0  0  0  0  0  0  0  0
  189.1950  178.1450  145.5000 O   0  0  0  0  0  1  0  0  0  0  0  0
  191.0260  176.7650  145.4670 O   0  0  0  0  0  0  0  0  0  0  0  0
  1 10  1  6  0  0  0
  1  2  1  0  0  0  0
  1  5  1  0  0  0  0
  2  7  1  1  0  0  0
  3  8  1  6  0  0  0
  3 32  1  0  0  0  0
  4  3  1  0  0  0  0
  5  4  1  0  0  0  0
  6  3  1  0  0  0  0
  7  6  1  0  0  0  0
  9  2  1  0  0  0  0
 11 31  1  6  0  0  0
 11 10  1  0  0  0  0
 11  9  1  0  0  0  0
 13 23  1  0  0  0  0
 14 24  1  0  0  0  0
 15 27  1  0  0  0  0
 17 19  2  0  0  0  0
 19 16  1  0  0  0  0
 20 15  1  1  0  0  0
 20 22  1  0  0  0  0
 20 21  1  0  0  0  0
 21 12  1  6  0  0  0
 21 16  1  0  0  0  0
 22 17  1  0  0  0  0
 23 14  2  0  0  0  0
 23 26  1  0  0  0  0
 24 18  2  0  0  0  0
 26 18  1  0  0  0  0
 26 25  1  1  0  0  0
 27 13  1  1  0  0  0
 27 28  1  0  0  0  0
 28 25  1  6  0  0  0
 28 12  1  0  0  0  0
 28 11  1  0  0  0  0
 29 31  2  0  0  0  0
 31 30  1  0  0  0  0
 32 34  2  0  0  0  0
 32 33  1  0  0  0  0
M  END
>  <MODEL>
6

>  <REMARK>
 VINA RESULT:      -4.8      1.521      4.572
  Name = 
  3 active torsions:
  status: ('A' for Active; 'I' for Inactive)
    1  A    between atoms: C_7  and  C_11
    2  A    between atoms: C_18  and  C_33
    3  A    between atoms: C_33  and  C_34
                            x       y       z     vdW  Elec       q    Type
                         _______ _______ _______ _____ _____    ______ ____

>  <TORSDO>
F 3

$$$$
=
 OpenBabel10262423193D

 34 39  0  0  1  0  0  0  0  0999 V2000
  184.5720  176.5000  137.3320 C   0  0  1  0  0  3  0  0  0  0  0  0
  184.3740  177.1470  135.9950 C   0  0  1  0  0  3  0  0  0  0  0  0
  187.3120  177.3960  137.0260 C   0  0  2  0  0  0  0  0  0  0  0  0
  186.2960  178.2630  137.8530 C   0  0  0  0  0  2  0  0  0  0  0  0
  185.0250  177.5430  138.3940 C   0  0  0  0  0  2  0  0  0  0  0  0
  186.7660  176.6590  135.9290 O   0  0  0  0  0  0  0  0  0  0  0  0
  185.7370  177.3940  135.3000 C   0  0  0  0  0  2  0  0  0  0  0  0
  187.9280  176.3820  137.9690 C   0  0  0  0  0  1  0  0  0  0  0  0
  183.5870  176.2760  135.2220 O   0  0  0  0  0  0  0  0  0  0  0  0
  183.2570  175.8170  137.5450 C   0  0  0  0  0  2  0  0  0  0  0  0
  182.9310  175.3700  136.0970 C   0  0  1  0  0  0  0  0  0  0  0  0
  180.9310  176.5480  134.9500 C   0  0  0  0  0  2  0  0  0  0  0  0
  180.4930  174.3580  138.1140 C   0  0  0  0  0  2  0  0  0  0  0  0
  180.4800  171.9130  137.5930 C   0  0  0  0  0  3  0  0  0  0  0  0
  180.7300  176.9190  137.8850 C   0  0  0  0  0  2  0  0  0  0  0  0
  180.8950  179.0140  134.5940 C   0  0  0  0  0  2  0  0  0  0  0  0
  180.7920  180.5540  136.5700 C   0  0  0  0  0  3  0  0  0  0  0  0
  179.8790  171.8650  135.4010 N   0  0  0  0  0  0  0  0  0  0  0  0
  180.8060  180.3750  135.2360 C   0  0  0  0  0  3  0  0  0  0  0  0
  180.4660  178.0850  136.9170 C   0  0  2  0  0  3  0  0  0  0  0  0
  181.2270  177.9000  135.5880 C   0  0  1  0  0  3  0  0  0  0  0  0
  180.9390  179.4050  137.5340 C   0  0  0  0  0  2  0  0  0  0  0  0
  180.1690  173.1560  137.2810 C   0  0  0  0  0  0  0  0  0  0  0  0
  180.2550  171.1270  136.3910 C   0  0  0  0  0  3  0  0  0  0  0  0
  180.9190  174.0790  135.1230 C   0  0  0  0  0  2  0  0  0  0  0  0
  179.8260  173.2580  135.8370 C   0  0  1  0  0  3  0  0  0  0  0  0
  180.5160  175.5810  137.1780 C   0  0  1  0  0  3  0  0  0  0  0  0
  181.3510  175.3840  135.8640 C   0  0  1  0  0  0  0  0  0  0  0  0
  183.6090  173.1850  136.8890 O   0  0  0  0  0  1  0  0  0  0  0  0
  184.0030  173.5520  134.6680 O   0  0  0  0  0  0  0  0  0  0  0  0
  183.5190  173.9750  135.8930 C   0  0  0  0  0  0  0  0  0  0  0  0
  188.4470  178.2490  136.4740 C   0  0  0  0  0  0  0  0  0  0  0  0
  188.8410  179.3800  137.1860 O   0  0  0  0  0  1  0  0  0  0  0  0
  189.2790  177.6940  135.6950 O   0  0  0  0  0  0  0  0  0  0  0  0
  1 10  1  1  0  0  0
  1  5  1  0  0  0  0
  2  7  1  6  0  0  0
  2  1  1  0  0  0  0
  3  4  1  0  0  0  0
  3  8  1  1  0  0  0
  4  5  1  0  0  0  0
  6  3  1  0  0  0  0
  7  6  1  0  0  0  0
  9  2  1  0  0  0  0
  9 11  1  0  0  0  0
 11 31  1  6  0  0  0
 11 10  1  0  0  0  0
 12 21  1  0  0  0  0
 16 19  1  0  0  0  0
 17 22  1  0  0  0  0
 18 26  1  0  0  0  0
 18 24  2  0  0  0  0
 19 17  2  0  0  0  0
 20 22  1  1  0  0  0
 20 15  1  0  0  0  0
 21 16  1  6  0  0  0
 21 20  1  0  0  0  0
 23 14  2  0  0  0  0
 23 13  1  0  0  0  0
 24 14  1  0  0  0  0
 25 28  1  0  0  0  0
 26 25  1  6  0  0  0
 26 23  1  0  0  0  0
 27 15  1  1  0  0  0
 27 13  1  0  0  0  0
 28 12  1  6  0  0  0
 28 11  1  0  0  0  0
 28 27  1  0  0  0  0
 30 31  2  0  0  0  0
 31 29  1  0  0  0  0
 32  3  1  0  0  0  0
 32 33  1  0  0  0  0
 34 32  2  0  0  0  0
M  END
>  <MODEL>
7

>  <REMARK>
 VINA RESULT:      -4.6      4.828      8.655
  Name = 
  3 active torsions:
  status: ('A' for Active; 'I' for Inactive)
    1  A    between atoms: C_7  and  C_11
    2  A    between atoms: C_18  and  C_33
    3  A    between atoms: C_33  and  C_34
                            x       y       z     vdW  Elec       q    Type
                         _______ _______ _______ _____ _____    ______ ____

>  <TORSDO>
F 3

$$$$
=
 OpenBabel10262423193D

 34 39  0  0  1  0  0  0  0  0999 V2000
  182.9190  176.0480  138.2020 C   0  0  1  0  0  3  0  0  0  0  0  0
  182.0840  176.0370  136.9570 C   0  0  1  0  0  3  0  0  0  0  0  0
  181.3910  178.4250  138.8490 C   0  0  2  0  0  0  0  0  0  0  0  0
  180.9530  177.0340  139.4330 C   0  0  0  0  0  2  0  0  0  0  0  0
  182.0310  175.9090  139.4720 C   0  0  0  0  0  2  0  0  0  0  0  0
  182.0020  178.4030  137.5570 O   0  0  0  0  0  0  0  0  0  0  0  0
  181.4070  177.4150  136.7430 C   0  0  0  0  0  2  0  0  0  0  0  0
  182.4070  179.0250  139.8010 C   0  0  0  0  0  1  0  0  0  0  0  0
  182.9390  175.7450  135.8820 O   0  0  0  0  0  0  0  0  0  0  0  0
  183.9080  174.9580  137.9220 C   0  0  0  0  0  2  0  0  0  0  0  0
  184.1220  175.1540  136.4000 C   0  0  1  0  0  0  0  0  0  0  0  0
  183.2590  173.3240  134.7840 C   0  0  0  0  0  2  0  0  0  0  0  0
  185.8940  172.5770  137.5220 C   0  0  0  0  0  2  0  0  0  0  0  0
  188.1940  173.3060  136.8630 C   0  0  0  0  0  3  0  0  0  0  0  0
  183.3350  172.2360  137.5420 C   0  0  0  0  0  2  0  0  0  0  0  0
  180.8320  172.7870  134.5950 C   0  0  0  0  0  2  0  0  0  0  0  0
  179.6290  171.7690  136.5450 C   0  0  0  0  0  3  0  0  0  0  0  0
  188.0750  173.3650  134.5940 N   0  0  0  0  0  0  0  0  0  0  0  0
  179.6210  172.1950  135.2680 C   0  0  0  0  0  3  0  0  0  0  0  0
  182.1340  171.9730  136.6170 C   0  0  2  0  0  3  0  0  0  0  0  0
  181.9720  173.0930  135.5680 C   0  0  1  0  0  3  0  0  0  0  0  0
  180.8380  171.9200  137.4320 C   0  0  0  0  0  2  0  0  0  0  0  0
  187.0150  172.8000  136.5540 C   0  0  0  0  0  0  0  0  0  0  0  0
  188.8410  173.6210  135.6000 C   0  0  0  0  0  3  0  0  0  0  0  0
  185.6730  173.8680  134.7850 C   0  0  0  0  0  2  0  0  0  0  0  0
  186.7980  172.8550  135.0830 C   0  0  1  0  0  3  0  0  0  0  0  0
  184.5810  172.5590  136.7180 C   0  0  1  0  0  3  0  0  0  0  0  0
  184.4160  173.7460  135.7050 C   0  0  1  0  0  0  0  0  0  0  0  0
  186.1840  176.2070  137.1090 O   0  0  0  0  0  1  0  0  0  0  0  0
  185.3680  176.9690  135.1150 O   0  0  0  0  0  0  0  0  0  0  0  0
  185.2830  176.1290  136.2110 C   0  0  0  0  0  0  0  0  0  0  0  0
  180.2160  179.3900  138.7750 C   0  0  0  0  0  0  0  0  0  0  0  0
  180.2090  180.3590  137.7720 O   0  0  0  0  0  0  0  0  0  0  0  0
  179.1120  179.0190  139.2740 O   0  0  0  0  0  1  0  0  0  0  0  0
  1 10  1  6  0  0  0
  1  5  1  0  0  0  0
  2  7  1  6  0  0  0
  2  1  1  0  0  0  0
  3  4  1  0  0  0  0
  3  8  1  1  0  0  0
  4  5  1  0  0  0  0
  6  3  1  0  0  0  0
  7  6  1  0  0  0  0
  9 11  1  0  0  0  0
  9  2  1  0  0  0  0
 11 31  1  6  0  0  0
 11 10  1  0  0  0  0
 12 21  1  0  0  0  0
 16 19  1  0  0  0  0
 17 22  1  0  0  0  0
 18 26  1  0  0  0  0
 18 24  2  0  0  0  0
 19 17  2  0  0  0  0
 20 22  1  1  0  0  0
 20 15  1  0  0  0  0
 21 16  1  6  0  0  0
 21 20  1  0  0  0  0
 23 14  2  0  0  0  0
 23 13  1  0  0  0  0
 24 14  1  0  0  0  0
 25 28  1  0  0  0  0
 26 25  1  1  0  0  0
 26 23  1  0  0  0  0
 27 13  1  1  0  0  0
 27 15  1  0  0  0  0
 28 12  1  6  0  0  0
 28 11  1  0  0  0  0
 28 27  1  0  0  0  0
 30 31  2  0  0  0  0
 31 29  1  0  0  0  0
 32  3  1  0  0  0  0
 32 34  1  0  0  0  0
 33 32  2  0  0  0  0
M  END
>  <MODEL>
8

>  <REMARK>
 VINA RESULT:      -4.1      5.258      7.650
  Name = 
  3 active torsions:
  status: ('A' for Active; 'I' for Inactive)
    1  A    between atoms: C_7  and  C_11
    2  A    between atoms: C_18  and  C_33
    3  A    between atoms: C_33  and  C_34
                            x       y       z     vdW  Elec       q    Type
                         _______ _______ _______ _____ _____    ______ ____

>  <TORSDO>
F 3

$$$$
=
 OpenBabel10262423193D

 34 39  0  0  1  0  0  0  0  0999 V2000
  183.7870  177.1850  136.5150 C   0  0  1  0  0  3  0  0  0  0  0  0
  183.8730  175.7920  137.0630 C   0  0  1  0  0  3  0  0  0  0  0  0
  186.4830  176.6650  135.5840 C   0  0  2  0  0  0  0  0  0  0  0  0
  185.2670  176.4540  134.6100 C   0  0  0  0  0  2  0  0  0  0  0  0
  183.9380  177.1850  134.9670 C   0  0  0  0  0  2  0  0  0  0  0  0
  186.2350  176.4050  136.9680 O   0  0  0  0  0  0  0  0  0  0  0  0
  185.3470  175.3180  137.1180 C   0  0  0  0  0  2  0  0  0  0  0  0
  186.9100  178.1160  135.4820 C   0  0  0  0  0  1  0  0  0  0  0  0
  183.3230  175.8170  138.3560 O   0  0  0  0  0  0  0  0  0  0  0  0
  182.4890  177.6650  137.0870 C   0  0  0  0  0  2  0  0  0  0  0  0
  182.5240  176.9840  138.4790 C   0  0  1  0  0  0  0  0  0  0  0  0
  180.8050  175.1020  138.9300 C   0  0  0  0  0  2  0  0  0  0  0  0
  179.7200  178.7370  138.1480 C   0  0  0  0  0  2  0  0  0  0  0  0
  179.9060  180.2410  140.1370 C   0  0  0  0  0  3  0  0  0  0  0  0
  179.9210  176.6890  136.5870 C   0  0  0  0  0  2  0  0  0  0  0  0
  180.7730  173.0090  137.5770 C   0  0  0  0  0  2  0  0  0  0  0  0
  180.1680  173.1110  135.1450 C   0  0  0  0  0  3  0  0  0  0  0  0
  179.8280  178.7850  141.8820 N   0  0  0  0  0  0  0  0  0  0  0  0
  180.4950  172.3870  136.2320 C   0  0  0  0  0  3  0  0  0  0  0  0
  179.8500  175.1530  136.5780 C   0  0  2  0  0  3  0  0  0  0  0  0
  180.9020  174.5320  137.5200 C   0  0  1  0  0  3  0  0  0  0  0  0
  180.1260  174.6170  135.1690 C   0  0  0  0  0  2  0  0  0  0  0  0
  179.6360  179.0630  139.6070 C   0  0  0  0  0  0  0  0  0  0  0  0
  179.9890  180.0280  141.5730 C   0  0  0  0  0  3  0  0  0  0  0  0
  180.8330  177.0720  140.4290 C   0  0  0  0  0  2  0  0  0  0  0  0
  179.6310  178.0110  140.6600 C   0  0  1  0  0  3  0  0  0  0  0  0
  179.9190  177.2140  138.0230 C   0  0  1  0  0  3  0  0  0  0  0  0
  181.0400  176.6210  138.9470 C   0  0  1  0  0  0  0  0  0  0  0  0
  183.2290  179.1910  139.1840 O   0  0  0  0  0  0  0  0  0  0  0  0
  183.8340  177.5050  140.6030 O   0  0  0  0  0  1  0  0  0  0  0  0
  183.2020  177.9460  139.4530 C   0  0  0  0  0  0  0  0  0  0  0  0
  187.6760  175.8120  135.1730 C   0  0  0  0  0  0  0  0  0  0  0  0
  187.4810  174.4470  134.9660 O   0  0  0  0  0  1  0  0  0  0  0  0
  188.6440  176.3880  134.5940 O   0  0  0  0  0  0  0  0  0  0  0  0
  1  5  1  6  0  0  0
  1  2  1  0  0  0  0
  1 10  1  0  0  0  0
  2  7  1  1  0  0  0
  2  9  1  0  0  0  0
  3  8  1  6  0  0  0
  3  6  1  0  0  0  0
  4  5  1  0  0  0  0
  4  3  1  0  0  0  0
  6  7  1  0  0  0  0
  9 11  1  0  0  0  0
 10 11  1  0  0  0  0
 11 28  1  0  0  0  0
 11 31  1  1  0  0  0
 13 23  1  0  0  0  0
 14 24  1  0  0  0  0
 17 22  1  0  0  0  0
 17 19  2  0  0  0  0
 19 16  1  0  0  0  0
 20 22  1  6  0  0  0
 20 15  1  0  0  0  0
 20 21  1  0  0  0  0
 21 16  1  1  0  0  0
 21 12  1  0  0  0  0
 23 14  2  0  0  0  0
 23 26  1  0  0  0  0
 24 18  2  0  0  0  0
 26 25  1  6  0  0  0
 26 18  1  0  0  0  0
 27 15  1  6  0  0  0
 27 13  1  0  0  0  0
 27 28  1  0  0  0  0
 28 12  1  6  0  0  0
 28 25  1  0  0  0  0
 29 31  2  0  0  0  0
 31 30  1  0  0  0  0
 32  3  1  0  0  0  0
 33 32  1  0  0  0  0
 34 32  2  0  0  0  0
M  END
>  <MODEL>
9

>  <REMARK>
 VINA RESULT:      -4.1      5.711      9.400
  Name = 
  3 active torsions:
  status: ('A' for Active; 'I' for Inactive)
    1  A    between atoms: C_7  and  C_11
    2  A    between atoms: C_18  and  C_33
    3  A    between atoms: C_33  and  C_34
                            x       y       z     vdW  Elec       q    Type
                         _______ _______ _______ _____ _____    ______ ____

>  <TORSDO>
F 3

$$$$
