=
 OpenBabel10262419313D

 31 35  0  0  0  0  0  0  0  0999 V2000
  184.8860  178.7400  144.1240 C   0  0  0  0  0  0  0  0  0  0  0  0
  188.4690  177.8330  143.5090 C   0  0  0  0  0  0  0  0  0  0  0  0
  189.0570  177.6250  144.8710 C   0  0  0  0  0  0  0  0  0  0  0  0
  188.8710  176.7910  147.1520 C   0  0  0  0  0  0  0  0  0  0  0  0
  187.1090  178.1750  143.3000 C   0  0  0  0  0  0  0  0  0  0  0  0
  184.4250  178.8760  142.8130 C   0  0  0  0  0  3  0  0  0  0  0  0
  188.2890  177.0960  145.9210 C   0  0  0  0  0  3  0  0  0  0  0  0
  188.7800  177.8510  141.0860 C   0  0  0  0  0  0  0  0  0  0  0  0
  183.7960  179.0030  145.4680 Cl  0  0  0  0  0  0  0  0  0  0  0  0
  191.4800  178.4840  143.7780 S   0  0  0  0  0  0  0  0  0  0  0  0
  188.1090  176.2900  148.1550 F   0  0  0  0  0  0  0  0  0  0  0  0
  187.4700  178.1640  140.9240 N   0  0  0  0  0  0  0  0  0  0  0  0
  189.3100  177.6880  142.3780 C   0  0  0  0  0  0  0  0  0  0  0  0
  186.2180  178.3970  144.3640 C   0  0  0  0  0  3  0  0  0  0  0  0
  190.2390  176.9790  147.3430 C   0  0  0  0  0  3  0  0  0  0  0  0
  186.6320  178.3300  141.9770 C   0  0  0  0  0  0  0  0  0  0  0  0
  185.2960  178.6730  141.7430 C   0  0  0  0  0  3  0  0  0  0  0  0
  190.7620  177.3450  142.5620 C   0  0  0  0  0  2  0  0  0  0  0  0
  190.4410  177.8230  145.0820 C   0  0  0  0  0  0  0  0  0  0  0  0
  191.0240  177.4900  146.3070 C   0  0  0  0  0  3  0  0  0  0  0  0
  189.6430  177.7320  139.8670 C   0  0  0  0  0  2  0  0  0  0  0  0
  188.9850  179.3780  138.2870 O   0  0  0  0  0  0  0  0  0  0  0  0
  188.8910  178.1750  138.6490 C   0  0  0  0  0  0  0  0  0  0  0  0
  186.5430  175.3670  136.4030 C   0  0  0  0  0  0  0  0  0  0  0  0
  188.6340  176.0160  137.4270 C   0  0  0  0  0  3  0  0  0  0  0  0
  186.1070  178.6280  137.9800 F   0  0  0  0  0  0  0  0  0  0  0  0
  185.7940  174.4530  135.6740 O   0  0  0  0  0  1  0  0  0  0  0  0
  187.8800  175.0960  136.6950 C   0  0  0  0  0  3  0  0  0  0  0  0
  186.7080  177.4800  137.5790 C   0  0  0  0  0  0  0  0  0  0  0  0
  188.0630  177.2180  137.8760 C   0  0  0  0  0  0  0  0  0  0  0  0
  185.9600  176.5560  136.8440 C   0  0  0  0  0  3  0  0  0  0  0  0
  1 14  1  0  0  0  0
  1  9  1  0  0  0  0
  2  3  1  0  0  0  0
  3 19  2  0  0  0  0
  3  7  1  0  0  0  0
  4 15  1  0  0  0  0
  4 11  1  0  0  0  0
  5  2  1  0  0  0  0
  5 14  2  0  0  0  0
  6  1  2  0  0  0  0
  7  4  2  0  0  0  0
  8 13  1  0  0  0  0
 10 19  1  0  0  0  0
 12  8  2  0  0  0  0
 12 16  1  0  0  0  0
 13 18  1  0  0  0  0
 13  2  2  0  0  0  0
 16  5  1  0  0  0  0
 17 16  2  0  0  0  0
 17  6  1  0  0  0  0
 18 10  1  0  0  0  0
 19 20  1  0  0  0  0
 20 15  2  0  0  0  0
 21  8  1  0  0  0  0
 22 23  2  0  0  0  0
 23 21  1  0  0  0  0
 24 28  2  0  0  0  0
 24 31  1  0  0  0  0
 25 30  2  0  0  0  0
 27 24  1  0  0  0  0
 28 25  1  0  0  0  0
 29 30  1  0  0  0  0
 29 26  1  0  0  0  0
 30 23  1  0  0  0  0
 31 29  2  0  0  0  0
M  END
>  <MODEL>
1

>  <REMARK>
 VINA RESULT:     -10.2      0.000      0.000
  Name = 
  3 active torsions:
  status: ('A' for Active; 'I' for Inactive)
    1  A    between atoms: C_9  and  C_22
    2  A    between atoms: C_9  and  C_23
    3  A    between atoms: C_15  and  C_23
                            x       y       z     vdW  Elec       q    Type
                         _______ _______ _______ _____ _____    ______ ____

>  <TORSDO>
F 3

$$$$
=
 OpenBabel10262419313D

 31 35  0  0  0  0  0  0  0  0999 V2000
  185.0630  178.8190  143.4790 C   0  0  0  0  0  0  0  0  0  0  0  0
  188.6670  177.8400  143.1810 C   0  0  0  0  0  0  0  0  0  0  0  0
  189.1350  177.6420  144.5910 C   0  0  0  0  0  0  0  0  0  0  0  0
  188.7410  176.8460  146.8600 C   0  0  0  0  0  0  0  0  0  0  0  0
  187.3360  178.2030  142.8530 C   0  0  0  0  0  0  0  0  0  0  0  0
  184.7160  178.9420  142.1320 C   0  0  0  0  0  3  0  0  0  0  0  0
  188.2710  177.1430  145.5790 C   0  0  0  0  0  3  0  0  0  0  0  0
  189.1820  177.8160  140.7930 C   0  0  0  0  0  0  0  0  0  0  0  0
  183.8690  179.1200  144.7220 Cl  0  0  0  0  0  0  0  0  0  0  0  0
  191.6570  178.4430  143.6950 S   0  0  0  0  0  0  0  0  0  0  0  0
  187.8890  176.3740  147.8010 F   0  0  0  0  0  0  0  0  0  0  0  0
  187.8960  178.1490  140.5170 N   0  0  0  0  0  0  0  0  0  0  0  0
  189.5980  177.6640  142.1270 C   0  0  0  0  0  0  0  0  0  0  0  0
  186.3630  178.4560  143.8350 C   0  0  0  0  0  3  0  0  0  0  0  0
  190.0920  177.0130  147.1630 C   0  0  0  0  0  3  0  0  0  0  0  0
  186.9760  178.3460  141.4930 C   0  0  0  0  0  0  0  0  0  0  0  0
  185.6710  178.7080  141.1420 C   0  0  0  0  0  3  0  0  0  0  0  0
  191.0220  177.2990  142.4380 C   0  0  0  0  0  2  0  0  0  0  0  0
  190.4990  177.8200  144.9150 C   0  0  0  0  0  0  0  0  0  0  0  0
  190.9700  177.4950  146.1900 C   0  0  0  0  0  3  0  0  0  0  0  0
  190.1420  177.6640  139.6530 C   0  0  0  0  0  2  0  0  0  0  0  0
  189.1580  178.6740  137.7420 O   0  0  0  0  0  0  0  0  0  0  0  0
  189.4030  177.5990  138.3520 C   0  0  0  0  0  0  0  0  0  0  0  0
  188.1080  173.8480  136.7080 C   0  0  0  0  0  0  0  0  0  0  0  0
  187.6180  176.0760  137.5070 C   0  0  0  0  0  3  0  0  0  0  0  0
  191.2260  175.4240  137.7620 F   0  0  0  0  0  0  0  0  0  0  0  0
  187.6790  172.6390  136.1780 O   0  0  0  0  0  1  0  0  0  0  0  0
  187.1850  174.8600  136.9730 C   0  0  0  0  0  3  0  0  0  0  0  0
  189.9030  175.2690  137.5070 C   0  0  0  0  0  0  0  0  0  0  0  0
  188.9770  176.2980  137.7840 C   0  0  0  0  0  0  0  0  0  0  0  0
  189.4630  174.0530  136.9750 C   0  0  0  0  0  3  0  0  0  0  0  0
  1 14  1  0  0  0  0
  1  9  1  0  0  0  0
  2  3  1  0  0  0  0
  3 19  2  0  0  0  0
  3  7  1  0  0  0  0
  4 15  1  0  0  0  0
  4 11  1  0  0  0  0
  5  2  1  0  0  0  0
  5 14  2  0  0  0  0
  6  1  2  0  0  0  0
  7  4  2  0  0  0  0
  8 13  1  0  0  0  0
 10 19  1  0  0  0  0
 12  8  2  0  0  0  0
 12 16  1  0  0  0  0
 13 18  1  0  0  0  0
 13  2  2  0  0  0  0
 16  5  1  0  0  0  0
 17 16  2  0  0  0  0
 17  6  1  0  0  0  0
 18 10  1  0  0  0  0
 19 20  1  0  0  0  0
 20 15  2  0  0  0  0
 21  8  1  0  0  0  0
 22 23  2  0  0  0  0
 23 21  1  0  0  0  0
 24 28  2  0  0  0  0
 24 31  1  0  0  0  0
 25 30  2  0  0  0  0
 27 24  1  0  0  0  0
 28 25  1  0  0  0  0
 29 26  1  0  0  0  0
 29 30  1  0  0  0  0
 30 23  1  0  0  0  0
 31 29  2  0  0  0  0
M  END
>  <MODEL>
2

>  <REMARK>
 VINA RESULT:      -9.4      1.389      1.721
  Name = 
  3 active torsions:
  status: ('A' for Active; 'I' for Inactive)
    1  A    between atoms: C_9  and  C_22
    2  A    between atoms: C_9  and  C_23
    3  A    between atoms: C_15  and  C_23
                            x       y       z     vdW  Elec       q    Type
                         _______ _______ _______ _____ _____    ______ ____

>  <TORSDO>
F 3

$$$$
=
 OpenBabel10262419313D

 31 35  0  0  0  0  0  0  0  0999 V2000
  188.6470  177.1110  145.6620 C   0  0  0  0  0  0  0  0  0  0  0  0
  186.7280  178.2240  142.6430 C   0  0  0  0  0  0  0  0  0  0  0  0
  185.3110  178.3590  143.1100 C   0  0  0  0  0  0  0  0  0  0  0  0
  183.6970  179.0140  144.8130 C   0  0  0  0  0  0  0  0  0  0  0  0
  187.7900  177.8360  143.5000 C   0  0  0  0  0  0  0  0  0  0  0  0
  189.9410  177.0520  145.1400 C   0  0  0  0  0  3  0  0  0  0  0  0
  185.0140  178.7740  144.4190 C   0  0  0  0  0  3  0  0  0  0  0  0
  188.3470  178.3980  140.8210 C   0  0  0  0  0  0  0  0  0  0  0  0
  188.3610  176.7020  147.3400 Cl  0  0  0  0  0  0  0  0  0  0  0  0
  184.5600  177.6940  140.5030 S   0  0  0  0  0  0  0  0  0  0  0  0
  183.4310  179.4040  146.0830 F   0  0  0  0  0  0  0  0  0  0  0  0
  189.3390  178.0390  141.6740 N   0  0  0  0  0  0  0  0  0  0  0  0
  187.0220  178.4900  141.2820 C   0  0  0  0  0  0  0  0  0  0  0  0
  187.5810  177.4970  144.8480 C   0  0  0  0  0  3  0  0  0  0  0  0
  182.6570  178.8750  143.8950 C   0  0  0  0  0  3  0  0  0  0  0  0
  189.1030  177.7570  142.9790 C   0  0  0  0  0  0  0  0  0  0  0  0
  190.1670  177.3720  143.8010 C   0  0  0  0  0  3  0  0  0  0  0  0
  185.9190  178.8840  140.3410 C   0  0  0  0  0  2  0  0  0  0  0  0
  184.2470  178.2090  142.1920 C   0  0  0  0  0  0  0  0  0  0  0  0
  182.9330  178.4780  142.5850 C   0  0  0  0  0  3  0  0  0  0  0  0
  188.6930  178.6450  139.3850 C   0  0  0  0  0  2  0  0  0  0  0  0
  187.9970  176.5920  138.4170 O   0  0  0  0  0  0  0  0  0  0  0  0
  188.9670  177.3500  138.6830 C   0  0  0  0  0  0  0  0  0  0  0  0
  192.9850  176.2670  137.6230 C   0  0  0  0  0  0  0  0  0  0  0  0
  191.3720  177.0230  139.2560 C   0  0  0  0  0  3  0  0  0  0  0  0
  189.7160  176.4930  136.0180 F   0  0  0  0  0  0  0  0  0  0  0  0
  194.2880  175.9220  137.2900 O   0  0  0  0  0  1  0  0  0  0  0  0
  192.6830  176.6740  138.9230 C   0  0  0  0  0  3  0  0  0  0  0  0
  190.6640  176.5540  136.9870 C   0  0  0  0  0  0  0  0  0  0  0  0
  190.3470  176.9710  138.2970 C   0  0  0  0  0  0  0  0  0  0  0  0
  191.9780  176.2080  136.6580 C   0  0  0  0  0  3  0  0  0  0  0  0
  1  9  1  0  0  0  0
  2  3  1  0  0  0  0
  2  5  1  0  0  0  0
  3  7  1  0  0  0  0
  4 11  1  0  0  0  0
  5 14  1  0  0  0  0
  6  1  1  0  0  0  0
  7  4  2  0  0  0  0
  8 13  1  0  0  0  0
  8 12  2  0  0  0  0
 10 19  1  0  0  0  0
 12 16  1  0  0  0  0
 13  2  2  0  0  0  0
 14  1  2  0  0  0  0
 15  4  1  0  0  0  0
 16  5  2  0  0  0  0
 16 17  1  0  0  0  0
 17  6  2  0  0  0  0
 18 10  1  0  0  0  0
 18 13  1  0  0  0  0
 19 20  1  0  0  0  0
 19  3  2  0  0  0  0
 20 15  2  0  0  0  0
 21  8  1  0  0  0  0
 22 23  2  0  0  0  0
 23 21  1  0  0  0  0
 24 28  1  0  0  0  0
 26 29  1  0  0  0  0
 27 24  1  0  0  0  0
 28 25  2  0  0  0  0
 29 30  2  0  0  0  0
 30 23  1  0  0  0  0
 30 25  1  0  0  0  0
 31 29  1  0  0  0  0
 31 24  2  0  0  0  0
M  END
>  <MODEL>
3

>  <REMARK>
 VINA RESULT:      -9.1      2.981      5.066
  Name = 
  3 active torsions:
  status: ('A' for Active; 'I' for Inactive)
    1  A    between atoms: C_9  and  C_22
    2  A    between atoms: C_9  and  C_23
    3  A    between atoms: C_15  and  C_23
                            x       y       z     vdW  Elec       q    Type
                         _______ _______ _______ _____ _____    ______ ____

>  <TORSDO>
F 3

$$$$
=
 OpenBabel10262419313D

 31 35  0  0  0  0  0  0  0  0999 V2000
  190.7210  177.2990  139.3820 C   0  0  0  0  0  0  0  0  0  0  0  0
  188.2870  178.0010  142.1420 C   0  0  0  0  0  0  0  0  0  0  0  0
  189.0460  177.7390  143.4070 C   0  0  0  0  0  0  0  0  0  0  0  0
  191.1010  177.8720  144.7090 C   0  0  0  0  0  0  0  0  0  0  0  0
  188.8640  177.8680  140.8530 C   0  0  0  0  0  0  0  0  0  0  0  0
  189.9410  177.6040  138.2650 C   0  0  0  0  0  3  0  0  0  0  0  0
  190.4220  178.0030  143.4960 C   0  0  0  0  0  3  0  0  0  0  0  0
  186.1990  178.6730  141.0670 C   0  0  0  0  0  0  0  0  0  0  0  0
  192.3720  176.7560  139.1750 Cl  0  0  0  0  0  0  0  0  0  0  0  0
  186.5950  177.0150  144.5350 S   0  0  0  0  0  0  0  0  0  0  0  0
  192.4300  178.1230  144.7710 F   0  0  0  0  0  0  0  0  0  0  0  0
  186.7890  178.5490  139.8520 N   0  0  0  0  0  0  0  0  0  0  0  0
  186.9280  178.3930  142.2350 C   0  0  0  0  0  0  0  0  0  0  0  0
  190.1850  177.4270  140.6640 C   0  0  0  0  0  3  0  0  0  0  0  0
  190.4060  177.5060  145.8610 C   0  0  0  0  0  3  0  0  0  0  0  0
  188.0800  178.1590  139.7130 C   0  0  0  0  0  0  0  0  0  0  0  0
  188.6230  178.0310  138.4300 C   0  0  0  0  0  3  0  0  0  0  0  0
  186.2770  178.5260  143.5830 C   0  0  0  0  0  2  0  0  0  0  0  0
  188.3560  177.3550  144.5790 C   0  0  0  0  0  0  0  0  0  0  0  0
  189.0340  177.2530  145.7960 C   0  0  0  0  0  3  0  0  0  0  0  0
  184.7540  179.0650  141.1230 C   0  0  0  0  0  2  0  0  0  0  0  0
  184.1310  180.1280  139.0930 O   0  0  0  0  0  0  0  0  0  0  0  0
  184.1550  179.0530  139.7500 C   0  0  0  0  0  0  0  0  0  0  0  0
  182.5450  175.4230  138.1130 C   0  0  0  0  0  0  0  0  0  0  0  0
  182.6090  177.0990  139.8540 C   0  0  0  0  0  3  0  0  0  0  0  0
  185.0460  177.9300  137.2310 F   0  0  0  0  0  0  0  0  0  0  0  0
  182.0200  174.2480  137.5930 O   0  0  0  0  0  1  0  0  0  0  0  0
  182.0790  175.9170  139.3310 C   0  0  0  0  0  3  0  0  0  0  0  0
  184.0740  177.2970  137.9330 C   0  0  0  0  0  0  0  0  0  0  0  0
  183.6120  177.8030  139.1670 C   0  0  0  0  0  0  0  0  0  0  0  0
  183.5400  176.1120  137.4160 C   0  0  0  0  0  3  0  0  0  0  0  0
  1 14  1  0  0  0  0
  2 13  2  0  0  0  0
  2  3  1  0  0  0  0
  3  7  2  0  0  0  0
  3 19  1  0  0  0  0
  4 11  1  0  0  0  0
  4 15  2  0  0  0  0
  5  2  1  0  0  0  0
  6 17  1  0  0  0  0
  6  1  2  0  0  0  0
  7  4  1  0  0  0  0
  8 21  1  0  0  0  0
  8 13  1  0  0  0  0
  9  1  1  0  0  0  0
 10 19  1  0  0  0  0
 12  8  2  0  0  0  0
 13 18  1  0  0  0  0
 14  5  2  0  0  0  0
 16 12  1  0  0  0  0
 16  5  1  0  0  0  0
 17 16  2  0  0  0  0
 18 10  1  0  0  0  0
 19 20  2  0  0  0  0
 20 15  1  0  0  0  0
 22 23  2  0  0  0  0
 23 21  1  0  0  0  0
 24 28  1  0  0  0  0
 26 29  1  0  0  0  0
 27 24  1  0  0  0  0
 28 25  2  0  0  0  0
 29 30  2  0  0  0  0
 30 23  1  0  0  0  0
 30 25  1  0  0  0  0
 31 29  1  0  0  0  0
 31 24  2  0  0  0  0
M  END
>  <MODEL>
4

>  <REMARK>
 VINA RESULT:      -9.0      3.193      4.653
  Name = 
  3 active torsions:
  status: ('A' for Active; 'I' for Inactive)
    1  A    between atoms: C_9  and  C_22
    2  A    between atoms: C_9  and  C_23
    3  A    between atoms: C_15  and  C_23
                            x       y       z     vdW  Elec       q    Type
                         _______ _______ _______ _____ _____    ______ ____

>  <TORSDO>
F 3

$$$$
=
 OpenBabel10262419313D

 31 35  0  0  0  0  0  0  0  0999 V2000
  189.9450  176.7860  144.4640 C   0  0  0  0  0  0  0  0  0  0  0  0
  187.0020  178.1320  142.5780 C   0  0  0  0  0  0  0  0  0  0  0  0
  185.9440  178.3560  143.6150 C   0  0  0  0  0  0  0  0  0  0  0  0
  185.2880  179.0740  145.8490 C   0  0  0  0  0  0  0  0  0  0  0  0
  188.2950  177.6400  142.8880 C   0  0  0  0  0  0  0  0  0  0  0  0
  190.8740  176.6480  143.4310 C   0  0  0  0  0  3  0  0  0  0  0  0
  186.2790  178.7500  144.9210 C   0  0  0  0  0  3  0  0  0  0  0  0
  187.6770  178.2440  140.2330 C   0  0  0  0  0  0  0  0  0  0  0  0
  190.3840  176.3460  146.1010 Cl  0  0  0  0  0  0  0  0  0  0  0  0
  184.0840  177.8310  141.5980 S   0  0  0  0  0  0  0  0  0  0  0  0
  185.6320  179.4430  147.1060 F   0  0  0  0  0  0  0  0  0  0  0  0
  188.9080  177.7850  140.5690 N   0  0  0  0  0  0  0  0  0  0  0  0
  186.6960  178.4180  141.2240 C   0  0  0  0  0  0  0  0  0  0  0  0
  188.6660  177.2750  144.1940 C   0  0  0  0  0  3  0  0  0  0  0  0
  183.9440  179.0420  145.4750 C   0  0  0  0  0  3  0  0  0  0  0  0
  189.2400  177.4810  141.8480 C   0  0  0  0  0  0  0  0  0  0  0  0
  190.5210  176.9930  142.1260 C   0  0  0  0  0  3  0  0  0  0  0  0
  185.3290  178.9230  140.8550 C   0  0  0  0  0  2  0  0  0  0  0  0
  184.5780  178.3140  143.2530 C   0  0  0  0  0  0  0  0  0  0  0  0
  183.5910  178.6670  144.1770 C   0  0  0  0  0  3  0  0  0  0  0  0
  187.3830  178.5100  138.7880 C   0  0  0  0  0  2  0  0  0  0  0  0
  189.1550  179.4990  137.5550 O   0  0  0  0  0  0  0  0  0  0  0  0
  188.6390  178.4290  137.9760 C   0  0  0  0  0  0  0  0  0  0  0  0
  190.5290  174.6660  137.1350 C   0  0  0  0  0  0  0  0  0  0  0  0
  190.6520  176.9610  137.8830 C   0  0  0  0  0  3  0  0  0  0  0  0
  187.1880  176.1250  136.9810 F   0  0  0  0  0  0  0  0  0  0  0  0
  191.1500  173.4540  136.8640 O   0  0  0  0  0  1  0  0  0  0  0  0
  191.2780  175.7420  137.6110 C   0  0  0  0  0  3  0  0  0  0  0  0
  188.5230  176.0250  137.2020 C   0  0  0  0  0  0  0  0  0  0  0  0
  189.2720  177.1220  137.6810 C   0  0  0  0  0  0  0  0  0  0  0  0
  189.1550  174.8080  136.9310 C   0  0  0  0  0  3  0  0  0  0  0  0
  1  9  1  0  0  0  0
  2  5  1  0  0  0  0
  2  3  1  0  0  0  0
  3  7  1  0  0  0  0
  4 11  1  0  0  0  0
  5 14  2  0  0  0  0
  6  1  2  0  0  0  0
  7  4  2  0  0  0  0
  8 12  2  0  0  0  0
  8 13  1  0  0  0  0
 10 19  1  0  0  0  0
 12 16  1  0  0  0  0
 13  2  2  0  0  0  0
 14  1  1  0  0  0  0
 15  4  1  0  0  0  0
 16 17  2  0  0  0  0
 16  5  1  0  0  0  0
 17  6  1  0  0  0  0
 18 13  1  0  0  0  0
 18 10  1  0  0  0  0
 19  3  2  0  0  0  0
 19 20  1  0  0  0  0
 20 15  2  0  0  0  0
 21  8  1  0  0  0  0
 22 23  2  0  0  0  0
 23 21  1  0  0  0  0
 24 28  1  0  0  0  0
 26 29  1  0  0  0  0
 27 24  1  0  0  0  0
 28 25  2  0  0  0  0
 29 30  2  0  0  0  0
 30 25  1  0  0  0  0
 30 23  1  0  0  0  0
 31 24  2  0  0  0  0
 31 29  1  0  0  0  0
M  END
>  <MODEL>
5

>  <REMARK>
 VINA RESULT:      -9.0      2.704      4.367
  Name = 
  3 active torsions:
  status: ('A' for Active; 'I' for Inactive)
    1  A    between atoms: C_9  and  C_22
    2  A    between atoms: C_9  and  C_23
    3  A    between atoms: C_15  and  C_23
                            x       y       z     vdW  Elec       q    Type
                         _______ _______ _______ _____ _____    ______ ____

>  <TORSDO>
F 3

$$$$
=
 OpenBabel10262419313D

 31 35  0  0  0  0  0  0  0  0999 V2000
  189.6640  177.0660  143.1700 C   0  0  0  0  0  0  0  0  0  0  0  0
  186.4720  178.2830  141.6320 C   0  0  0  0  0  0  0  0  0  0  0  0
  185.5310  178.4690  142.7830 C   0  0  0  0  0  0  0  0  0  0  0  0
  185.1050  179.1700  145.0770 C   0  0  0  0  0  0  0  0  0  0  0  0
  187.8110  177.8460  141.7930 C   0  0  0  0  0  0  0  0  0  0  0  0
  190.4740  176.9610  142.0380 C   0  0  0  0  0  3  0  0  0  0  0  0
  185.9960  178.8820  144.0420 C   0  0  0  0  0  3  0  0  0  0  0  0
  186.8700  178.4120  139.2250 C   0  0  0  0  0  0  0  0  0  0  0  0
  190.3040  176.6510  144.7460 Cl  0  0  0  0  0  0  0  0  0  0  0  0
  183.4770  177.8600  140.9910 S   0  0  0  0  0  0  0  0  0  0  0  0
  185.5750  179.5570  146.2870 F   0  0  0  0  0  0  0  0  0  0  0  0
  188.1500  178.0050  139.4190 N   0  0  0  0  0  0  0  0  0  0  0  0
  186.0030  178.5510  140.3220 C   0  0  0  0  0  0  0  0  0  0  0  0
  188.3430  177.5010  143.0470 C   0  0  0  0  0  3  0  0  0  0  0  0
  183.7300  179.0810  144.8590 C   0  0  0  0  0  3  0  0  0  0  0  0
  188.6380  177.7210  140.6510 C   0  0  0  0  0  0  0  0  0  0  0  0
  189.9610  177.2860  140.7810 C   0  0  0  0  0  3  0  0  0  0  0  0
  184.5830  178.9980  140.1110 C   0  0  0  0  0  2  0  0  0  0  0  0
  184.1360  178.3700  142.5790 C   0  0  0  0  0  0  0  0  0  0  0  0
  183.2470  178.6870  143.6100 C   0  0  0  0  0  3  0  0  0  0  0  0
  186.4040  178.6600  137.8230 C   0  0  0  0  0  2  0  0  0  0  0  0
  187.6710  177.7320  136.0430 O   0  0  0  0  0  0  0  0  0  0  0  0
  186.8020  177.5240  136.9310 C   0  0  0  0  0  0  0  0  0  0  0  0
  184.9970  173.6570  137.4090 C   0  0  0  0  0  0  0  0  0  0  0  0
  184.8030  176.0570  137.1960 C   0  0  0  0  0  3  0  0  0  0  0  0
  188.3420  175.0730  137.0640 F   0  0  0  0  0  0  0  0  0  0  0  0
  184.4040  172.4110  137.5660 O   0  0  0  0  0  1  0  0  0  0  0  0
  184.2060  174.8040  137.3530 C   0  0  0  0  0  3  0  0  0  0  0  0
  186.9900  175.0130  137.1480 C   0  0  0  0  0  0  0  0  0  0  0  0
  186.1990  176.1800  137.0950 C   0  0  0  0  0  0  0  0  0  0  0  0
  186.3860  173.7620  137.3070 C   0  0  0  0  0  3  0  0  0  0  0  0
  1  9  1  0  0  0  0
  2  5  1  0  0  0  0
  2  3  1  0  0  0  0
  3  7  1  0  0  0  0
  4 11  1  0  0  0  0
  5 14  2  0  0  0  0
  6  1  2  0  0  0  0
  7  4  2  0  0  0  0
  8 12  2  0  0  0  0
  8 13  1  0  0  0  0
 10 19  1  0  0  0  0
 12 16  1  0  0  0  0
 13  2  2  0  0  0  0
 14  1  1  0  0  0  0
 15  4  1  0  0  0  0
 16 17  2  0  0  0  0
 16  5  1  0  0  0  0
 17  6  1  0  0  0  0
 18 13  1  0  0  0  0
 18 10  1  0  0  0  0
 19  3  2  0  0  0  0
 19 20  1  0  0  0  0
 20 15  2  0  0  0  0
 21  8  1  0  0  0  0
 22 23  2  0  0  0  0
 23 30  1  0  0  0  0
 23 21  1  0  0  0  0
 24 27  1  0  0  0  0
 25 28  2  0  0  0  0
 26 29  1  0  0  0  0
 28 24  1  0  0  0  0
 29 31  1  0  0  0  0
 30 29  2  0  0  0  0
 30 25  1  0  0  0  0
 31 24  2  0  0  0  0
M  END
>  <MODEL>
6

>  <REMARK>
 VINA RESULT:      -8.7      2.932      4.641
  Name = 
  3 active torsions:
  status: ('A' for Active; 'I' for Inactive)
    1  A    between atoms: C_9  and  C_22
    2  A    between atoms: C_9  and  C_23
    3  A    between atoms: C_15  and  C_23
                            x       y       z     vdW  Elec       q    Type
                         _______ _______ _______ _____ _____    ______ ____

>  <TORSDO>
F 3

$$$$
=
 OpenBabel10262419313D

 31 35  0  0  0  0  0  0  0  0999 V2000
  185.5570  178.7460  140.6790 C   0  0  0  0  0  0  0  0  0  0  0  0
  188.9130  177.7810  142.0350 C   0  0  0  0  0  0  0  0  0  0  0  0
  188.7530  177.8010  143.5240 C   0  0  0  0  0  0  0  0  0  0  0  0
  187.4260  177.3470  145.5170 C   0  0  0  0  0  0  0  0  0  0  0  0
  187.8530  178.0730  141.1400 C   0  0  0  0  0  0  0  0  0  0  0  0
  185.7980  178.6620  139.3070 C   0  0  0  0  0  3  0  0  0  0  0  0
  187.5360  177.4430  144.1280 C   0  0  0  0  0  3  0  0  0  0  0  0
  190.3580  177.4070  140.1000 C   0  0  0  0  0  0  0  0  0  0  0  0
  183.9750  179.2130  141.2640 Cl  0  0  0  0  0  0  0  0  0  0  0  0
  191.4570  178.4920  143.6440 S   0  0  0  0  0  0  0  0  0  0  0  0
  186.2410  177.0090  146.0790 F   0  0  0  0  0  0  0  0  0  0  0  0
  189.3160  177.6790  139.2750 N   0  0  0  0  0  0  0  0  0  0  0  0
  190.1840  177.4610  141.4940 C   0  0  0  0  0  0  0  0  0  0  0  0
  186.5770  178.4570  141.5870 C   0  0  0  0  0  3  0  0  0  0  0  0
  188.5410  177.5750  146.3230 C   0  0  0  0  0  3  0  0  0  0  0  0
  188.0880  178.0070  139.7470 C   0  0  0  0  0  0  0  0  0  0  0  0
  187.0610  178.2960  138.8420 C   0  0  0  0  0  3  0  0  0  0  0  0
  191.3360  177.1650  142.4120 C   0  0  0  0  0  2  0  0  0  0  0  0
  189.8720  178.0430  144.3530 C   0  0  0  0  0  0  0  0  0  0  0  0
  189.7630  177.9170  145.7410 C   0  0  0  0  0  3  0  0  0  0  0  0
  191.6920  177.1000  139.4910 C   0  0  0  0  0  2  0  0  0  0  0  0
  190.5820  175.1870  138.6270 O   0  0  0  0  0  0  0  0  0  0  0  0
  191.5780  175.9540  138.5340 C   0  0  0  0  0  0  0  0  0  0  0  0
  194.5950  175.2910  135.5500 C   0  0  0  0  0  0  0  0  0  0  0  0
  193.8800  175.2720  137.8590 C   0  0  0  0  0  3  0  0  0  0  0  0
  191.1260  176.4120  135.7080 F   0  0  0  0  0  0  0  0  0  0  0  0
  195.5780  175.0760  134.5940 O   0  0  0  0  0  1  0  0  0  0  0  0
  194.8690  175.0550  136.8970 C   0  0  0  0  0  3  0  0  0  0  0  0
  192.3360  175.9620  136.1220 C   0  0  0  0  0  0  0  0  0  0  0  0
  192.6040  175.7300  137.4890 C   0  0  0  0  0  0  0  0  0  0  0  0
  193.3310  175.7430  135.1650 C   0  0  0  0  0  3  0  0  0  0  0  0
  1  9  1  0  0  0  0
  1 14  1  0  0  0  0
  2  3  1  0  0  0  0
  3  7  2  0  0  0  0
  3 19  1  0  0  0  0
  4 11  1  0  0  0  0
  4 15  2  0  0  0  0
  5 14  2  0  0  0  0
  5  2  1  0  0  0  0
  6  1  2  0  0  0  0
  7  4  1  0  0  0  0
  8 13  1  0  0  0  0
 10 19  1  0  0  0  0
 12 16  1  0  0  0  0
 12  8  2  0  0  0  0
 13  2  2  0  0  0  0
 13 18  1  0  0  0  0
 16  5  1  0  0  0  0
 17  6  1  0  0  0  0
 17 16  2  0  0  0  0
 18 10  1  0  0  0  0
 19 20  2  0  0  0  0
 20 15  1  0  0  0  0
 21  8  1  0  0  0  0
 23 22  2  0  0  0  0
 23 21  1  0  0  0  0
 24 28  1  0  0  0  0
 26 29  1  0  0  0  0
 27 24  1  0  0  0  0
 28 25  2  0  0  0  0
 29 30  2  0  0  0  0
 30 25  1  0  0  0  0
 30 23  1  0  0  0  0
 31 24  2  0  0  0  0
 31 29  1  0  0  0  0
M  END
>  <MODEL>
7

>  <REMARK>
 VINA RESULT:      -8.7      3.420      4.198
  Name = 
  3 active torsions:
  status: ('A' for Active; 'I' for Inactive)
    1  A    between atoms: C_9  and  C_22
    2  A    between atoms: C_9  and  C_23
    3  A    between atoms: C_15  and  C_23
                            x       y       z     vdW  Elec       q    Type
                         _______ _______ _______ _____ _____    ______ ____

>  <TORSDO>
F 3

$$$$
=
 OpenBabel10262419313D

 31 35  0  0  0  0  0  0  0  0999 V2000
  184.9760  179.0960  142.5650 C   0  0  0  0  0  0  0  0  0  0  0  0
  188.5160  177.8700  142.5270 C   0  0  0  0  0  0  0  0  0  0  0  0
  188.8930  177.7230  143.9700 C   0  0  0  0  0  0  0  0  0  0  0  0
  188.3240  177.0840  146.2510 C   0  0  0  0  0  0  0  0  0  0  0  0
  187.2320  178.2990  142.1050 C   0  0  0  0  0  0  0  0  0  0  0  0
  184.7110  179.1640  141.1960 C   0  0  0  0  0  3  0  0  0  0  0  0
  187.9450  177.3380  144.9320 C   0  0  0  0  0  3  0  0  0  0  0  0
  189.1550  177.6770  140.1770 C   0  0  0  0  0  0  0  0  0  0  0  0
  183.7390  179.5440  143.7200 Cl  0  0  0  0  0  0  0  0  0  0  0  0
  191.5070  178.3060  143.1790 S   0  0  0  0  0  0  0  0  0  0  0  0
  187.3930  176.7230  147.1660 F   0  0  0  0  0  0  0  0  0  0  0  0
  187.9110  178.0770  139.8100 N   0  0  0  0  0  0  0  0  0  0  0  0
  189.4870  177.5740  141.5390 C   0  0  0  0  0  0  0  0  0  0  0  0
  186.2270  178.6700  143.0140 C   0  0  0  0  0  3  0  0  0  0  0  0
  189.6650  177.1800  146.6220 C   0  0  0  0  0  3  0  0  0  0  0  0
  186.9550  178.3880  140.7200 C   0  0  0  0  0  0  0  0  0  0  0  0
  185.6990  178.8130  140.2760 C   0  0  0  0  0  3  0  0  0  0  0  0
  190.8650  177.1360  141.9500 C   0  0  0  0  0  2  0  0  0  0  0  0
  190.2460  177.8300  144.3620 C   0  0  0  0  0  0  0  0  0  0  0  0
  190.6250  177.5480  145.6770 C   0  0  0  0  0  3  0  0  0  0  0  0
  190.1620  177.3990  139.1040 C   0  0  0  0  0  2  0  0  0  0  0  0
  190.2050  175.2190  138.1650 O   0  0  0  0  0  0  0  0  0  0  0  0
  189.6500  176.3500  138.1650 C   0  0  0  0  0  0  0  0  0  0  0  0
  186.3650  177.2130  135.5380 C   0  0  0  0  0  0  0  0  0  0  0  0
  188.4800  177.8280  136.5320 C   0  0  0  0  0  3  0  0  0  0  0  0
  187.4110  174.5470  137.7980 F   0  0  0  0  0  0  0  0  0  0  0  0
  185.3060  177.5030  134.6870 O   0  0  0  0  0  1  0  0  0  0  0  0
  187.4160  178.1200  135.6760 C   0  0  0  0  0  3  0  0  0  0  0  0
  187.4410  175.7160  137.1120 C   0  0  0  0  0  0  0  0  0  0  0  0
  188.5080  176.6290  137.2630 C   0  0  0  0  0  0  0  0  0  0  0  0
  186.3780  176.0150  136.2540 C   0  0  0  0  0  3  0  0  0  0  0  0
  1 14  1  0  0  0  0
  1  9  1  0  0  0  0
  2  3  1  0  0  0  0
  3 19  2  0  0  0  0
  3  7  1  0  0  0  0
  4 15  1  0  0  0  0
  4 11  1  0  0  0  0
  5  2  1  0  0  0  0
  5 14  2  0  0  0  0
  6  1  2  0  0  0  0
  7  4  2  0  0  0  0
  8 13  1  0  0  0  0
 10 19  1  0  0  0  0
 12  8  2  0  0  0  0
 12 16  1  0  0  0  0
 13 18  1  0  0  0  0
 13  2  2  0  0  0  0
 16  5  1  0  0  0  0
 17 16  2  0  0  0  0
 17  6  1  0  0  0  0
 18 10  1  0  0  0  0
 19 20  1  0  0  0  0
 20 15  2  0  0  0  0
 21  8  1  0  0  0  0
 23 22  2  0  0  0  0
 23 21  1  0  0  0  0
 24 28  2  0  0  0  0
 24 31  1  0  0  0  0
 25 30  2  0  0  0  0
 27 24  1  0  0  0  0
 28 25  1  0  0  0  0
 29 30  1  0  0  0  0
 29 26  1  0  0  0  0
 30 23  1  0  0  0  0
 31 29  2  0  0  0  0
M  END
>  <MODEL>
8

>  <REMARK>
 VINA RESULT:      -8.7      1.613      1.841
  Name = 
  3 active torsions:
  status: ('A' for Active; 'I' for Inactive)
    1  A    between atoms: C_9  and  C_22
    2  A    between atoms: C_9  and  C_23
    3  A    between atoms: C_15  and  C_23
                            x       y       z     vdW  Elec       q    Type
                         _______ _______ _______ _____ _____    ______ ____

>  <TORSDO>
F 3

$$$$
=
 OpenBabel10262419313D

 31 35  0  0  0  0  0  0  0  0999 V2000
  188.9600  177.3310  137.6040 C   0  0  0  0  0  0  0  0  0  0  0  0
  185.5960  178.1700  139.0250 C   0  0  0  0  0  0  0  0  0  0  0  0
  184.6200  177.8390  137.9370 C   0  0  0  0  0  0  0  0  0  0  0  0
  183.8840  176.3890  136.1230 C   0  0  0  0  0  0  0  0  0  0  0  0
  186.9940  177.9750  138.8930 C   0  0  0  0  0  0  0  0  0  0  0  0
  189.7820  177.6350  138.6910 C   0  0  0  0  0  3  0  0  0  0  0  0
  184.8500  176.7700  137.0560 C   0  0  0  0  0  3  0  0  0  0  0  0
  185.9890  179.0010  141.2880 C   0  0  0  0  0  0  0  0  0  0  0  0
  189.6590  176.7350  136.1150 Cl  0  0  0  0  0  0  0  0  0  0  0  0
  183.0190  179.8780  138.9760 S   0  0  0  0  0  0  0  0  0  0  0  0
  184.1290  175.3610  135.2760 F   0  0  0  0  0  0  0  0  0  0  0  0
  187.3200  178.7880  141.1310 N   0  0  0  0  0  0  0  0  0  0  0  0
  185.1010  178.7070  140.2390 C   0  0  0  0  0  0  0  0  0  0  0  0
  187.5780  177.5040  137.7040 C   0  0  0  0  0  3  0  0  0  0  0  0
  182.6580  177.0530  136.0770 C   0  0  0  0  0  3  0  0  0  0  0  0
  187.8400  178.2930  139.9810 C   0  0  0  0  0  0  0  0  0  0  0  0
  189.2240  178.1160  139.8750 C   0  0  0  0  0  3  0  0  0  0  0  0
  183.6260  178.9450  140.4080 C   0  0  0  0  0  2  0  0  0  0  0  0
  183.3790  178.5120  137.8710 C   0  0  0  0  0  0  0  0  0  0  0  0
  182.4040  178.1090  136.9540 C   0  0  0  0  0  3  0  0  0  0  0  0
  185.5080  179.5940  142.5760 C   0  0  0  0  0  2  0  0  0  0  0  0
  184.1220  177.9220  143.5360 O   0  0  0  0  0  0  0  0  0  0  0  0
  185.2320  178.5160  143.5790 C   0  0  0  0  0  0  0  0  0  0  0  0
  188.2070  177.4110  146.4730 C   0  0  0  0  0  0  0  0  0  0  0  0
  187.4520  177.5530  144.1810 C   0  0  0  0  0  3  0  0  0  0  0  0
  184.8880  178.9270  146.4270 F   0  0  0  0  0  0  0  0  0  0  0  0
  189.1740  177.0470  147.4000 O   0  0  0  0  0  1  0  0  0  0  0  0
  188.4260  177.1880  145.1130 C   0  0  0  0  0  3  0  0  0  0  0  0
  186.0360  178.3680  145.9710 C   0  0  0  0  0  0  0  0  0  0  0  0
  186.2460  178.1430  144.5930 C   0  0  0  0  0  0  0  0  0  0  0  0
  187.0150  177.9990  146.9000 C   0  0  0  0  0  3  0  0  0  0  0  0
  1 14  2  0  0  0  0
  1  6  1  0  0  0  0
  2 13  1  0  0  0  0
  3  2  1  0  0  0  0
  4  7  1  0  0  0  0
  5  2  2  0  0  0  0
  5 16  1  0  0  0  0
  6 17  2  0  0  0  0
  7  3  2  0  0  0  0
  8 21  1  0  0  0  0
  9  1  1  0  0  0  0
 10 18  1  0  0  0  0
 11  4  1  0  0  0  0
 12  8  1  0  0  0  0
 13 18  1  0  0  0  0
 13  8  2  0  0  0  0
 14  5  1  0  0  0  0
 15  4  2  0  0  0  0
 15 20  1  0  0  0  0
 16 12  2  0  0  0  0
 17 16  1  0  0  0  0
 19  3  1  0  0  0  0
 19 10  1  0  0  0  0
 20 19  2  0  0  0  0
 21 23  1  0  0  0  0
 22 23  2  0  0  0  0
 23 30  1  0  0  0  0
 24 31  1  0  0  0  0
 24 27  1  0  0  0  0
 25 30  2  0  0  0  0
 25 28  1  0  0  0  0
 28 24  2  0  0  0  0
 29 26  1  0  0  0  0
 29 31  2  0  0  0  0
 30 29  1  0  0  0  0
M  END
>  <MODEL>
9

>  <REMARK>
 VINA RESULT:      -8.5      3.961      8.586
  Name = 
  3 active torsions:
  status: ('A' for Active; 'I' for Inactive)
    1  A    between atoms: C_9  and  C_22
    2  A    between atoms: C_9  and  C_23
    3  A    between atoms: C_15  and  C_23
                            x       y       z     vdW  Elec       q    Type
                         _______ _______ _______ _____ _____    ______ ____

>  <TORSDO>
F 3

$$$$
