=
 OpenBabel10262419593D

 27 31  0  0  1  0  0  0  0  0999 V2000
  187.1340  177.2110  144.2950 C   0  0  0  0  0  3  0  0  0  0  0  0
  187.0570  178.0440  141.9540 C   0  0  0  0  0  0  0  0  0  0  0  0
  189.4390  178.1910  142.5930 C   0  0  0  0  0  3  0  0  0  0  0  0
  188.8110  177.8200  137.8440 S   0  0  0  0  0  0  0  0  0  0  0  0
  191.1760  176.4120  137.5590 C   0  0  0  0  0  1  0  0  0  0  0  0
  186.3410  178.6580  140.7970 C   0  0  0  0  0  3  0  0  0  0  0  0
  190.0370  176.8930  139.7500 C   0  0  0  0  0  0  0  0  0  0  0  0
  190.9070  176.3070  140.4530 O   0  0  0  0  0  0  0  0  0  0  0  0
  188.8870  177.4990  140.2980 C   0  0  1  0  0  3  0  0  0  0  0  0
  186.4460  177.8880  143.1590 C   0  0  0  0  0  0  0  0  0  0  0  0
  190.1450  176.9940  138.3990 N   0  0  0  0  0  0  0  0  0  0  0  0
  188.0960  178.0800  139.3280 C   0  0  0  0  0  0  0  0  0  0  0  0
  188.4310  177.2740  144.6370 C   0  0  0  0  0  0  0  0  0  0  0  0
  188.4520  177.4680  141.7360 C   0  0  0  0  0  0  0  0  0  0  0  0
  186.8290  178.6710  139.5950 N   0  0  0  0  0  0  0  0  0  0  0  0
  189.4100  178.1300  143.9260 C   0  0  0  0  0  0  0  0  0  0  0  0
  182.3890  179.1110  143.9710 C   0  0  0  0  0  3  0  0  0  0  0  0
  185.0290  178.2870  143.4240 C   0  0  0  0  0  0  0  0  0  0  0  0
  184.0660  178.3520  142.3990 C   0  0  0  0  0  3  0  0  0  0  0  0
  182.7550  178.7530  142.6710 C   0  0  0  0  0  3  0  0  0  0  0  0
  183.3350  179.0710  144.9960 C   0  0  0  0  0  3  0  0  0  0  0  0
  184.6440  178.6630  144.7230 C   0  0  0  0  0  3  0  0  0  0  0  0
  191.7430  178.9490  143.8160 C   0  0  0  0  0  2  0  0  0  0  0  0
  191.7020  177.8440  144.8460 C   0  0  0  0  0  2  0  0  0  0  0  0
  190.5180  178.7890  144.6990 C   0  0  0  0  0  3  0  0  0  0  0  0
  188.8830  176.5320  145.7310 O   0  0  0  0  0  0  0  0  0  0  0  0
  188.6380  176.9230  146.9900 O   0  0  0  0  0  1  0  0  0  0  0  0
  1 13  1  0  0  0  0
  2 10  1  0  0  0  0
  3 16  1  0  0  0  0
  4 11  1  0  0  0  0
  4 12  1  0  0  0  0
  5 11  1  0  0  0  0
  6  2  2  0  0  0  0
  7  9  1  0  0  0  0
  7  8  2  0  0  0  0
  9 12  1  6  0  0  0
  9 14  1  0  0  0  0
 10 18  1  0  0  0  0
 10  1  2  0  0  0  0
 11  7  1  0  0  0  0
 12 15  2  0  0  0  0
 13 26  1  0  0  0  0
 14  2  1  0  0  0  0
 14  3  2  0  0  0  0
 15  6  1  0  0  0  0
 16 13  2  0  0  0  0
 16 25  1  0  0  0  0
 17 21  1  0  0  0  0
 18 22  1  0  0  0  0
 19 20  1  0  0  0  0
 19 18  2  0  0  0  0
 20 17  2  0  0  0  0
 22 21  2  0  0  0  0
 23 25  1  0  0  0  0
 23 24  1  0  0  0  0
 25 24  1  0  0  0  0
 26 27  1  0  0  0  0
M  END
>  <MODEL>
1

>  <REMARK>
 VINA RESULT:      -9.8      0.000      0.000
  Name = 
  3 active torsions:
  status: ('A' for Active; 'I' for Inactive)
    1  A    between atoms: C_9  and  C_15
    2  A    between atoms: C_18  and  O_22
    3  A    between atoms: C_20  and  C_26
                            x       y       z     vdW  Elec       q    Type
                         _______ _______ _______ _____ _____    ______ ____

>  <TORSDO>
F 3

$$$$
=
 OpenBabel10262419593D

 27 31  0  0  1  0  0  0  0  0999 V2000
  188.0170  176.7630  143.9970 C   0  0  0  0  0  3  0  0  0  0  0  0
  186.0350  178.1980  144.4360 C   0  0  0  0  0  0  0  0  0  0  0  0
  186.4590  178.4390  142.0140 C   0  0  0  0  0  3  0  0  0  0  0  0
  181.8880  179.3290  143.1960 S   0  0  0  0  0  0  0  0  0  0  0  0
  180.9840  178.3420  140.7750 C   0  0  0  0  0  1  0  0  0  0  0  0
  185.1790  179.0210  145.3400 C   0  0  0  0  0  3  0  0  0  0  0  0
  183.3190  178.0600  141.6680 C   0  0  0  0  0  0  0  0  0  0  0  0
  183.7350  177.4080  140.6710 O   0  0  0  0  0  0  0  0  0  0  0  0
  184.1260  178.3520  142.7880 C   0  0  0  0  0  0  0  0  0  0  0  0
  187.1970  177.6430  144.8770 C   0  0  0  0  0  0  0  0  0  0  0  0
  182.0500  178.5440  141.7390 N   0  0  0  0  0  0  0  0  0  0  0  0
  183.4440  179.0820  143.7400 C   0  0  0  0  0  0  0  0  0  0  0  0
  188.2370  176.8800  142.6780 C   0  0  0  0  0  0  0  0  0  0  0  0
  185.5270  177.8730  143.0360 C   0  0  2  0  0  3  0  0  0  0  0  0
  183.9910  179.4240  145.0090 N   0  0  0  0  0  0  0  0  0  0  0  0
  187.7140  178.0080  141.8710 C   0  0  0  0  0  0  0  0  0  0  0  0
  188.7190  178.0970  148.8880 C   0  0  0  0  0  3  0  0  0  0  0  0
  187.7000  177.7850  146.2780 C   0  0  0  0  0  0  0  0  0  0  0  0
  186.8700  178.2190  147.3300 C   0  0  0  0  0  3  0  0  0  0  0  0
  187.3740  178.3660  148.6260 C   0  0  0  0  0  3  0  0  0  0  0  0
  189.5610  177.6840  147.8530 C   0  0  0  0  0  3  0  0  0  0  0  0
  189.0540  177.5310  146.5600 C   0  0  0  0  0  3  0  0  0  0  0  0
  187.7570  178.4440  139.4360 C   0  0  0  0  0  2  0  0  0  0  0  0
  188.8560  177.4510  139.7340 C   0  0  0  0  0  2  0  0  0  0  0  0
  188.5340  178.5520  140.7360 C   0  0  0  0  0  3  0  0  0  0  0  0
  189.0220  175.9220  142.0310 O   0  0  0  0  0  0  0  0  0  0  0  0
  190.2400  175.5940  142.4850 O   0  0  0  0  0  1  0  0  0  0  0  0
  1 10  1  0  0  0  0
  2 10  2  0  0  0  0
  2  6  1  0  0  0  0
  4 12  1  0  0  0  0
  5 11  1  0  0  0  0
  7 11  1  0  0  0  0
  7  9  1  0  0  0  0
  8  7  2  0  0  0  0
  9 14  1  0  0  0  0
  9 12  2  0  0  0  0
 10 18  1  0  0  0  0
 11  4  1  0  0  0  0
 12 15  1  0  0  0  0
 13  1  2  0  0  0  0
 14  3  1  6  0  0  0
 14  2  1  0  0  0  0
 15  6  2  0  0  0  0
 16  3  2  0  0  0  0
 16 13  1  0  0  0  0
 18 22  2  0  0  0  0
 18 19  1  0  0  0  0
 19 20  2  0  0  0  0
 20 17  1  0  0  0  0
 21 17  2  0  0  0  0
 22 21  1  0  0  0  0
 23 24  1  0  0  0  0
 23 25  1  0  0  0  0
 24 25  1  0  0  0  0
 25 16  1  0  0  0  0
 26 27  1  0  0  0  0
 26 13  1  0  0  0  0
M  END
>  <MODEL>
2

>  <REMARK>
 VINA RESULT:      -9.3      3.299      5.851
  Name = 
  3 active torsions:
  status: ('A' for Active; 'I' for Inactive)
    1  A    between atoms: C_9  and  C_15
    2  A    between atoms: C_18  and  O_22
    3  A    between atoms: C_20  and  C_26
                            x       y       z     vdW  Elec       q    Type
                         _______ _______ _______ _____ _____    ______ ____

>  <TORSDO>
F 3

$$$$
=
 OpenBabel10262419593D

 27 31  0  0  1  0  0  0  0  0999 V2000
  186.5050  178.9610  141.9720 C   0  0  0  0  0  3  0  0  0  0  0  0
  186.1060  178.1480  144.2870 C   0  0  0  0  0  0  0  0  0  0  0  0
  188.3020  177.2040  143.6630 C   0  0  0  0  0  3  0  0  0  0  0  0
  187.7590  177.6530  148.4150 S   0  0  0  0  0  0  0  0  0  0  0  0
  190.4590  178.1510  148.7590 C   0  0  0  0  0  1  0  0  0  0  0  0
  185.2030  177.7900  145.4210 C   0  0  0  0  0  3  0  0  0  0  0  0
  189.2620  178.1460  146.5460 C   0  0  0  0  0  0  0  0  0  0  0  0
  190.2920  178.4130  145.8680 O   0  0  0  0  0  0  0  0  0  0  0  0
  187.9830  177.9870  145.9720 C   0  0  0  0  0  0  0  0  0  0  0  0
  185.6070  178.5350  143.0820 C   0  0  0  0  0  0  0  0  0  0  0  0
  189.3050  177.9810  147.8950 N   0  0  0  0  0  0  0  0  0  0  0  0
  187.0240  177.6920  146.9190 C   0  0  0  0  0  0  0  0  0  0  0  0
  187.7070  178.4620  141.6390 C   0  0  0  0  0  0  0  0  0  0  0  0
  187.6100  178.2020  144.5330 C   0  0  2  0  0  3  0  0  0  0  0  0
  185.6350  177.5810  146.6250 N   0  0  0  0  0  0  0  0  0  0  0  0
  188.3190  177.3040  142.3320 C   0  0  0  0  0  0  0  0  0  0  0  0
  181.3900  178.8030  142.2110 C   0  0  0  0  0  3  0  0  0  0  0  0
  184.1440  178.6560  142.7950 C   0  0  0  0  0  0  0  0  0  0  0  0
  183.2120  178.9980  143.7930 C   0  0  0  0  0  3  0  0  0  0  0  0
  181.8470  179.0790  143.5010 C   0  0  0  0  0  3  0  0  0  0  0  0
  182.2980  178.4430  141.2140 C   0  0  0  0  0  3  0  0  0  0  0  0
  183.6620  178.3700  141.5050 C   0  0  0  0  0  3  0  0  0  0  0  0
  190.2650  175.7780  142.4170 C   0  0  0  0  0  2  0  0  0  0  0  0
  190.5680  176.8350  141.3810 C   0  0  0  0  0  2  0  0  0  0  0  0
  189.1440  176.3220  141.5490 C   0  0  0  0  0  3  0  0  0  0  0  0
  188.4060  179.0290  140.5690 O   0  0  0  0  0  0  0  0  0  0  0  0
  188.0980  178.7350  139.2980 O   0  0  0  0  0  1  0  0  0  0  0  0
  1 10  1  0  0  0  0
  2 14  1  0  0  0  0
  2  6  1  0  0  0  0
  6 15  2  0  0  0  0
  7 11  1  0  0  0  0
  8  7  2  0  0  0  0
  9  7  1  0  0  0  0
  9 12  2  0  0  0  0
 10  2  2  0  0  0  0
 11  4  1  0  0  0  0
 11  5  1  0  0  0  0
 12  4  1  0  0  0  0
 13  1  2  0  0  0  0
 13 16  1  0  0  0  0
 14  3  1  6  0  0  0
 14  9  1  0  0  0  0
 15 12  1  0  0  0  0
 16  3  2  0  0  0  0
 17 20  1  0  0  0  0
 18 10  1  0  0  0  0
 18 19  1  0  0  0  0
 20 19  2  0  0  0  0
 21 22  1  0  0  0  0
 21 17  2  0  0  0  0
 22 18  2  0  0  0  0
 24 25  1  0  0  0  0
 24 23  1  0  0  0  0
 25 16  1  0  0  0  0
 25 23  1  0  0  0  0
 26 13  1  0  0  0  0
 27 26  1  0  0  0  0
M  END
>  <MODEL>
3

>  <REMARK>
 VINA RESULT:      -7.5      3.588      5.469
  Name = 
  3 active torsions:
  status: ('A' for Active; 'I' for Inactive)
    1  A    between atoms: C_9  and  C_15
    2  A    between atoms: C_18  and  O_22
    3  A    between atoms: C_20  and  C_26
                            x       y       z     vdW  Elec       q    Type
                         _______ _______ _______ _____ _____    ______ ____

>  <TORSDO>
F 3

$$$$
=
 OpenBabel10262419593D

 27 31  0  0  1  0  0  0  0  0999 V2000
  188.9800  176.3650  143.3300 C   0  0  0  0  0  3  0  0  0  0  0  0
  187.6970  177.7110  141.6800 C   0  0  0  0  0  0  0  0  0  0  0  0
  189.9550  177.5060  140.7000 C   0  0  0  0  0  3  0  0  0  0  0  0
  186.5590  178.2760  137.3900 S   0  0  0  0  0  0  0  0  0  0  0  0
  187.9310  176.7730  135.5140 C   0  0  0  0  0  1  0  0  0  0  0  0
  186.5790  178.6300  141.3140 C   0  0  0  0  0  3  0  0  0  0  0  0
  188.4540  176.8400  137.9740 C   0  0  0  0  0  0  0  0  0  0  0  0
  189.4260  176.0390  137.8980 O   0  0  0  0  0  0  0  0  0  0  0  0
  188.0150  177.4020  139.1920 C   0  0  0  0  0  0  0  0  0  0  0  0
  187.9100  177.3380  142.9710 C   0  0  0  0  0  0  0  0  0  0  0  0
  187.7530  177.2360  136.8790 N   0  0  0  0  0  0  0  0  0  0  0  0
  186.9440  178.2530  139.0120 C   0  0  0  0  0  0  0  0  0  0  0  0
  190.2030  176.2390  142.7890 C   0  0  0  0  0  0  0  0  0  0  0  0
  188.5290  177.0830  140.5670 C   0  0  2  0  0  3  0  0  0  0  0  0
  186.2430  178.8730  140.0840 N   0  0  0  0  0  0  0  0  0  0  0  0
  190.7160  177.1480  141.7370 C   0  0  0  0  0  0  0  0  0  0  0  0
  185.5040  178.6800  146.2910 C   0  0  0  0  0  3  0  0  0  0  0  0
  187.0520  177.7860  144.1110 C   0  0  0  0  0  0  0  0  0  0  0  0
  185.7370  178.2510  143.9200 C   0  0  0  0  0  3  0  0  0  0  0  0
  184.9660  178.6870  145.0020 C   0  0  0  0  0  3  0  0  0  0  0  0
  186.8130  178.2400  146.4970 C   0  0  0  0  0  3  0  0  0  0  0  0
  187.5790  177.7990  145.4150 C   0  0  0  0  0  3  0  0  0  0  0  0
  192.6010  177.8790  140.3100 C   0  0  0  0  0  2  0  0  0  0  0  0
  192.9660  176.5280  140.8790 C   0  0  0  0  0  2  0  0  0  0  0  0
  192.1720  177.5180  141.7210 C   0  0  0  0  0  3  0  0  0  0  0  0
  191.0530  175.2330  143.2560 O   0  0  0  0  0  0  0  0  0  0  0  0
  191.8610  175.4320  144.3070 O   0  0  0  0  0  1  0  0  0  0  0  0
  2 10  2  0  0  0  0
  3 16  2  0  0  0  0
  4 12  1  0  0  0  0
  5 11  1  0  0  0  0
  6  2  1  0  0  0  0
  7  9  1  0  0  0  0
  8  7  2  0  0  0  0
  9 14  1  0  0  0  0
 10  1  1  0  0  0  0
 10 18  1  0  0  0  0
 11  4  1  0  0  0  0
 11  7  1  0  0  0  0
 12  9  2  0  0  0  0
 12 15  1  0  0  0  0
 13 26  1  0  0  0  0
 13  1  2  0  0  0  0
 14  3  1  6  0  0  0
 14  2  1  0  0  0  0
 15  6  2  0  0  0  0
 16 13  1  0  0  0  0
 17 21  1  0  0  0  0
 18 22  1  0  0  0  0
 19 18  2  0  0  0  0
 19 20  1  0  0  0  0
 20 17  2  0  0  0  0
 22 21  2  0  0  0  0
 23 24  1  0  0  0  0
 23 25  1  0  0  0  0
 24 25  1  0  0  0  0
 25 16  1  0  0  0  0
 26 27  1  0  0  0  0
M  END
>  <MODEL>
4

>  <REMARK>
 VINA RESULT:      -7.1      2.188      2.825
  Name = 
  3 active torsions:
  status: ('A' for Active; 'I' for Inactive)
    1  A    between atoms: C_9  and  C_15
    2  A    between atoms: C_18  and  O_22
    3  A    between atoms: C_20  and  C_26
                            x       y       z     vdW  Elec       q    Type
                         _______ _______ _______ _____ _____    ______ ____

>  <TORSDO>
F 3

$$$$
=
 OpenBabel10262419593D

 27 31  0  0  1  0  0  0  0  0999 V2000
  186.0830  179.0840  144.3720 C   0  0  0  0  0  3  0  0  0  0  0  0
  187.8220  177.6570  143.3160 C   0  0  0  0  0  0  0  0  0  0  0  0
  185.9790  177.7150  141.6730 C   0  0  0  0  0  3  0  0  0  0  0  0
  190.2390  176.8010  139.6500 S   0  0  0  0  0  0  0  0  0  0  0  0
  189.5090  178.1110  137.3250 C   0  0  0  0  0  1  0  0  0  0  0  0
  189.0040  176.7480  143.3900 C   0  0  0  0  0  3  0  0  0  0  0  0
  188.2480  178.2170  139.4990 C   0  0  0  0  0  0  0  0  0  0  0  0
  187.3430  178.9790  139.0600 O   0  0  0  0  0  0  0  0  0  0  0  0
  188.2910  177.7640  140.8350 C   0  0  0  0  0  0  0  0  0  0  0  0
  187.2180  178.1210  144.4430 C   0  0  0  0  0  0  0  0  0  0  0  0
  189.2570  177.7610  138.7110 N   0  0  0  0  0  0  0  0  0  0  0  0
  189.3700  176.9360  141.0660 C   0  0  0  0  0  0  0  0  0  0  0  0
  185.0870  179.1300  143.4720 C   0  0  0  0  0  0  0  0  0  0  0  0
  187.3740  178.1710  141.9530 C   0  0  2  0  0  3  0  0  0  0  0  0
  189.7070  176.4220  142.3500 N   0  0  0  0  0  0  0  0  0  0  0  0
  184.9320  178.1280  142.3910 C   0  0  0  0  0  0  0  0  0  0  0  0
  188.6370  177.1990  148.4110 C   0  0  0  0  0  3  0  0  0  0  0  0
  187.6820  177.7890  145.8260 C   0  0  0  0  0  0  0  0  0  0  0  0
  186.9100  178.0850  146.9650 C   0  0  0  0  0  3  0  0  0  0  0  0
  187.3810  177.7860  148.2470 C   0  0  0  0  0  3  0  0  0  0  0  0
  189.4240  176.9160  147.2940 C   0  0  0  0  0  3  0  0  0  0  0  0
  188.9490  177.2090  146.0130 C   0  0  0  0  0  3  0  0  0  0  0  0
  183.5540  177.3900  140.4730 C   0  0  0  0  0  2  0  0  0  0  0  0
  182.9890  178.7070  140.9520 C   0  0  0  0  0  2  0  0  0  0  0  0
  183.5550  177.7130  141.9570 C   0  0  0  0  0  3  0  0  0  0  0  0
  184.1290  180.1430  143.5690 O   0  0  0  0  0  0  0  0  0  0  0  0
  183.0030  179.9740  144.2780 O   0  0  0  0  0  1  0  0  0  0  0  0
  1 10  1  0  0  0  0
  2  6  1  0  0  0  0
  2 10  2  0  0  0  0
  3 16  2  0  0  0  0
  4 12  1  0  0  0  0
  5 11  1  0  0  0  0
  7  9  1  0  0  0  0
  8  7  2  0  0  0  0
  9 12  2  0  0  0  0
  9 14  1  0  0  0  0
 10 18  1  0  0  0  0
 11  7  1  0  0  0  0
 11  4  1  0  0  0  0
 12 15  1  0  0  0  0
 13 26  1  0  0  0  0
 13  1  2  0  0  0  0
 14  3  1  6  0  0  0
 14  2  1  0  0  0  0
 15  6  2  0  0  0  0
 16 13  1  0  0  0  0
 18 22  2  0  0  0  0
 18 19  1  0  0  0  0
 19 20  2  0  0  0  0
 20 17  1  0  0  0  0
 21 17  2  0  0  0  0
 22 21  1  0  0  0  0
 23 24  1  0  0  0  0
 23 25  1  0  0  0  0
 24 25  1  0  0  0  0
 25 16  1  0  0  0  0
 26 27  1  0  0  0  0
M  END
>  <MODEL>
5

>  <REMARK>
 VINA RESULT:      -6.9      2.789      5.069
  Name = 
  3 active torsions:
  status: ('A' for Active; 'I' for Inactive)
    1  A    between atoms: C_9  and  C_15
    2  A    between atoms: C_18  and  O_22
    3  A    between atoms: C_20  and  C_26
                            x       y       z     vdW  Elec       q    Type
                         _______ _______ _______ _____ _____    ______ ____

>  <TORSDO>
F 3

$$$$
=
 OpenBabel10262419593D

 27 31  0  0  1  0  0  0  0  0999 V2000
  184.3580  179.1940  143.2540 C   0  0  0  0  0  3  0  0  0  0  0  0
  186.4630  178.1730  142.4120 C   0  0  0  0  0  0  0  0  0  0  0  0
  184.7900  177.6930  140.6590 C   0  0  0  0  0  3  0  0  0  0  0  0
  189.2880  177.7250  138.9720 S   0  0  0  0  0  0  0  0  0  0  0  0
  188.4480  178.6900  136.5180 C   0  0  0  0  0  1  0  0  0  0  0  0
  187.8170  177.5820  142.6240 C   0  0  0  0  0  3  0  0  0  0  0  0
  187.0350  178.6080  138.5980 C   0  0  0  0  0  0  0  0  0  0  0  0
  186.0120  179.1040  138.0510 O   0  0  0  0  0  0  0  0  0  0  0  0
  187.0810  178.2530  139.9630 C   0  0  0  0  0  0  0  0  0  0  0  0
  185.6810  178.5390  143.4630 C   0  0  0  0  0  0  0  0  0  0  0  0
  188.1810  178.3660  137.9080 N   0  0  0  0  0  0  0  0  0  0  0  0
  188.3060  177.7250  140.3190 C   0  0  0  0  0  0  0  0  0  0  0  0
  183.4530  178.9490  142.2930 C   0  0  0  0  0  0  0  0  0  0  0  0
  186.0110  178.4880  140.9900 C   0  0  2  0  0  3  0  0  0  0  0  0
  188.6550  177.3780  141.6550 N   0  0  0  0  0  0  0  0  0  0  0  0
  183.6230  177.8800  141.2800 C   0  0  0  0  0  0  0  0  0  0  0  0
  186.8120  178.1350  147.6070 C   0  0  0  0  0  3  0  0  0  0  0  0
  186.1030  178.4060  144.8920 C   0  0  0  0  0  0  0  0  0  0  0  0
  187.2300  177.6520  145.2720 C   0  0  0  0  0  3  0  0  0  0  0  0
  187.5860  177.5240  146.6180 C   0  0  0  0  0  3  0  0  0  0  0  0
  185.6810  178.8700  147.2500 C   0  0  0  0  0  3  0  0  0  0  0  0
  185.3300  179.0020  145.9040 C   0  0  0  0  0  3  0  0  0  0  0  0
  182.7340  176.4480  139.4680 C   0  0  0  0  0  2  0  0  0  0  0  0
  181.9080  177.7130  139.4870 C   0  0  0  0  0  2  0  0  0  0  0  0
  182.4210  177.1210  140.7930 C   0  0  0  0  0  3  0  0  0  0  0  0
  182.2770  179.7030  142.2580 O   0  0  0  0  0  0  0  0  0  0  0  0
  181.2890  179.5000  143.1420 O   0  0  0  0  0  1  0  0  0  0  0  0
  1 10  1  0  0  0  0
  2  6  1  0  0  0  0
  2 10  2  0  0  0  0
  3 16  2  0  0  0  0
  4 12  1  0  0  0  0
  5 11  1  0  0  0  0
  7  9  1  0  0  0  0
  8  7  2  0  0  0  0
  9 12  2  0  0  0  0
  9 14  1  0  0  0  0
 10 18  1  0  0  0  0
 11  7  1  0  0  0  0
 11  4  1  0  0  0  0
 12 15  1  0  0  0  0
 13  1  2  0  0  0  0
 14  3  1  6  0  0  0
 14  2  1  0  0  0  0
 15  6  2  0  0  0  0
 16 13  1  0  0  0  0
 18 19  2  0  0  0  0
 18 22  1  0  0  0  0
 19 20  1  0  0  0  0
 20 17  2  0  0  0  0
 21 17  1  0  0  0  0
 22 21  2  0  0  0  0
 23 24  1  0  0  0  0
 23 25  1  0  0  0  0
 24 25  1  0  0  0  0
 25 16  1  0  0  0  0
 26 13  1  0  0  0  0
 26 27  1  0  0  0  0
M  END
>  <MODEL>
6

>  <REMARK>
 VINA RESULT:      -6.8      3.231      5.371
  Name = 
  3 active torsions:
  status: ('A' for Active; 'I' for Inactive)
    1  A    between atoms: C_9  and  C_15
    2  A    between atoms: C_18  and  O_22
    3  A    between atoms: C_20  and  C_26
                            x       y       z     vdW  Elec       q    Type
                         _______ _______ _______ _____ _____    ______ ____

>  <TORSDO>
F 3

$$$$
=
 OpenBabel10262419593D

 27 31  0  0  1  0  0  0  0  0999 V2000
  189.2260  176.6620  140.4950 C   0  0  0  0  0  3  0  0  0  0  0  0
  187.2970  178.1840  140.8660 C   0  0  0  0  0  0  0  0  0  0  0  0
  187.6790  178.2420  138.4260 C   0  0  0  0  0  3  0  0  0  0  0  0
  183.1610  179.3530  139.6220 S   0  0  0  0  0  0  0  0  0  0  0  0
  182.1800  178.2260  137.2930 C   0  0  0  0  0  1  0  0  0  0  0  0
  186.4830  179.0950  141.7240 C   0  0  0  0  0  3  0  0  0  0  0  0
  184.5230  177.9350  138.1630 C   0  0  0  0  0  0  0  0  0  0  0  0
  184.9000  177.2020  137.2070 O   0  0  0  0  0  0  0  0  0  0  0  0
  185.3600  178.2810  139.2450 C   0  0  0  0  0  0  0  0  0  0  0  0
  188.4490  177.6270  141.3240 C   0  0  0  0  0  0  0  0  0  0  0  0
  183.2710  178.4620  138.2210 N   0  0  0  0  0  0  0  0  0  0  0  0
  184.7190  179.0970  140.1540 C   0  0  0  0  0  0  0  0  0  0  0  0
  189.4230  176.6790  139.1660 C   0  0  0  0  0  0  0  0  0  0  0  0
  186.7520  177.7770  139.5010 C   0  0  2  0  0  3  0  0  0  0  0  0
  185.3010  179.5100  141.3860 N   0  0  0  0  0  0  0  0  0  0  0  0
  188.9180  177.7630  138.2910 C   0  0  0  0  0  0  0  0  0  0  0  0
  189.9800  178.1860  145.3180 C   0  0  0  0  0  3  0  0  0  0  0  0
  188.9840  177.8510  142.7030 C   0  0  0  0  0  0  0  0  0  0  0  0
  190.1650  178.5810  142.9370 C   0  0  0  0  0  3  0  0  0  0  0  0
  190.6550  178.7530  144.2350 C   0  0  0  0  0  3  0  0  0  0  0  0
  188.8180  177.4430  145.1030 C   0  0  0  0  0  3  0  0  0  0  0  0
  188.3260  177.2780  143.8050 C   0  0  0  0  0  3  0  0  0  0  0  0
  188.8130  178.6070  135.9670 C   0  0  0  0  0  2  0  0  0  0  0  0
  189.5030  177.2630  135.9270 C   0  0  0  0  0  2  0  0  0  0  0  0
  189.7310  178.2000  137.1060 C   0  0  0  0  0  3  0  0  0  0  0  0
  190.1670  175.6540  138.5760 O   0  0  0  0  0  0  0  0  0  0  0  0
  191.4980  175.5830  138.7200 O   0  0  0  0  0  1  0  0  0  0  0  0
  1 10  1  0  0  0  0
  2 10  2  0  0  0  0
  2  6  1  0  0  0  0
  4 12  1  0  0  0  0
  5 11  1  0  0  0  0
  7 11  1  0  0  0  0
  7  9  1  0  0  0  0
  8  7  2  0  0  0  0
  9 14  1  0  0  0  0
  9 12  2  0  0  0  0
 10 18  1  0  0  0  0
 11  4  1  0  0  0  0
 12 15  1  0  0  0  0
 13  1  2  0  0  0  0
 14  3  1  6  0  0  0
 14  2  1  0  0  0  0
 15  6  2  0  0  0  0
 16  3  2  0  0  0  0
 16 13  1  0  0  0  0
 18 19  2  0  0  0  0
 18 22  1  0  0  0  0
 19 20  1  0  0  0  0
 20 17  2  0  0  0  0
 21 17  1  0  0  0  0
 22 21  2  0  0  0  0
 23 25  1  0  0  0  0
 24 23  1  0  0  0  0
 24 25  1  0  0  0  0
 25 16  1  0  0  0  0
 26 27  1  0  0  0  0
 26 13  1  0  0  0  0
M  END
>  <MODEL>
7

>  <REMARK>
 VINA RESULT:      -6.8      3.400      6.027
  Name = 
  3 active torsions:
  status: ('A' for Active; 'I' for Inactive)
    1  A    between atoms: C_9  and  C_15
    2  A    between atoms: C_18  and  O_22
    3  A    between atoms: C_20  and  C_26
                            x       y       z     vdW  Elec       q    Type
                         _______ _______ _______ _____ _____    ______ ____

>  <TORSDO>
F 3

$$$$
