=
 OpenBabel10262423153D

 34 37  0  0  1  0  0  0  0  0999 V2000
  190.9620  177.1030  138.1020 C   0  0  2  0  0  3  0  0  0  0  0  0
  191.8280  173.7650  136.9760 C   0  0  0  0  0  2  0  0  0  0  0  0
  189.8160  175.0510  136.3640 C   0  0  0  0  0  2  0  0  0  0  0  0
  189.0140  178.5790  137.5350 C   0  0  0  0  0  3  0  0  0  0  0  0
  187.3070  177.8670  135.9710 C   0  0  0  0  0  3  0  0  0  0  0  0
  187.8310  178.8330  136.8360 C   0  0  0  0  0  3  0  0  0  0  0  0
  189.1590  176.3930  136.4890 C   0  0  0  0  0  0  0  0  0  0  0  0
  189.6800  177.3600  137.3660 C   0  0  0  0  0  0  0  0  0  0  0  0
  187.9660  176.6450  135.8030 C   0  0  0  0  0  3  0  0  0  0  0  0
  193.3100  173.4840  136.8960 C   0  0  0  0  0  3  0  0  0  0  0  0
  194.3290  174.3540  136.7170 C   0  0  0  0  0  0  0  0  0  0  0  0
  194.1480  175.8080  136.3810 C   0  0  0  0  0  2  0  0  0  0  0  0
  191.3500  175.1050  136.4250 C   0  0  1  0  0  3  0  0  0  0  0  0
  193.1870  176.5260  137.2780 C   0  0  0  0  0  3  0  0  0  0  0  0
  191.8850  176.2290  137.2970 C   0  0  0  0  0  0  0  0  0  0  0  0
  195.7420  173.8450  136.7090 C   0  0  0  0  0  3  0  0  0  0  0  0
  196.7230  174.9470  136.3530 C   0  0  0  0  0  1  0  0  0  0  0  0
  196.1180  173.2200  138.0430 C   0  0  0  0  0  1  0  0  0  0  0  0
  190.7370  176.5810  139.5210 C   0  0  0  0  0  2  0  0  0  0  0  0
  191.2950  177.4910  140.5200 N   0  0  0  0  0  0  0  0  0  0  0  0
  191.3110  176.7410  141.7850 C   0  0  0  0  0  2  0  0  0  0  0  0
  190.3540  177.8320  141.6240 C   0  0  2  0  0  3  0  0  0  0  0  0
  188.9210  177.3000  141.4540 C   0  0  2  0  0  3  0  0  0  0  0  0
  187.9820  178.4640  141.2030 C   0  0  0  0  0  1  0  0  0  0  0  0
  188.5970  177.0990  143.8640 C   0  0  0  0  0  0  0  0  0  0  0  0
  188.4660  176.5720  142.6770 C   0  0  0  0  0  3  0  0  0  0  0  0
  188.7260  177.6340  145.0480 C   0  0  0  0  0  3  0  0  0  0  0  0
  187.6040  177.7580  145.9880 C   0  0  0  0  0  0  0  0  0  0  0  0
  186.4430  178.2000  145.4850 C   0  0  0  0  0  3  0  0  0  0  0  0
  187.8060  177.4110  147.4470 C   0  0  0  0  0  3  0  0  0  0  0  0
  189.0490  176.5680  147.6760 C   0  0  0  0  0  1  0  0  0  0  0  0
  187.8040  178.6400  148.3380 C   0  0  0  0  0  1  0  0  0  0  0  0
  184.0740  178.8820  145.3710 C   0  0  0  0  0  1  0  0  0  0  0  0
  185.1860  178.3850  146.2730 C   0  0  0  0  0  2  0  0  0  0  0  0
  1 19  1  1  0  0  0
  3  7  1  0  0  0  0
  5  6  1  0  0  0  0
  6  4  2  0  0  0  0
  7  8  2  0  0  0  0
  8  4  1  0  0  0  0
  8  1  1  0  0  0  0
  9  5  2  0  0  0  0
  9  7  1  0  0  0  0
 10  2  1  0  0  0  0
 11 10  2  0  0  0  0
 12 11  1  0  0  0  0
 12 14  1  0  0  0  0
 13  3  1  1  0  0  0
 13  2  1  0  0  0  0
 13 15  1  0  0  0  0
 14 15  2  0  0  0  0
 15  1  1  0  0  0  0
 16 11  1  0  0  0  0
 16 18  1  0  0  0  0
 17 16  1  0  0  0  0
 19 20  1  0  0  0  0
 20 22  1  0  0  0  0
 20 21  1  0  0  0  0
 22 23  1  6  0  0  0
 22 21  1  0  0  0  0
 23 24  1  1  0  0  0
 23 26  1  0  0  0  0
 25 27  2  0  0  0  0
 26 25  2  0  0  0  0
 27 28  1  0  0  0  0
 28 30  1  0  0  0  0
 29 28  2  0  0  0  0
 29 34  1  0  0  0  0
 30 31  1  0  0  0  0
 30 32  1  0  0  0  0
 33 34  1  0  0  0  0
M  END
>  <MODEL>
1

>  <REMARK>
 VINA RESULT:      -8.6      0.000      0.000
  Name = 
  8 active torsions:
  status: ('A' for Active; 'I' for Inactive)
    1  A    between atoms: C_1  and  C_9
    2  A    between atoms: C_3  and  C_25
    3  A    between atoms: C_6  and  C_28
    4  A    between atoms: C_6  and  C_30
    5  A    between atoms: C_7  and  C_11
    6  A    between atoms: C_7  and  C_29
    7  A    between atoms: N_8  and  C_9
    8  A    between atoms: C_14  and  C_16
                            x       y       z     vdW  Elec       q    Type
                         _______ _______ _______ _____ _____    ______ ____

>  <TORSDO>
F 8

$$$$
=
 OpenBabel10262423153D

 34 37  0  0  1  0  0  0  0  0999 V2000
  183.6160  179.0310  138.8060 C   0  0  2  0  0  3  0  0  0  0  0  0
  182.8000  175.5020  138.6020 C   0  0  0  0  0  2  0  0  0  0  0  0
  181.2130  177.3880  138.5450 C   0  0  0  0  0  2  0  0  0  0  0  0
  182.1570  181.0680  138.6960 C   0  0  0  0  0  3  0  0  0  0  0  0
  179.7620  180.8870  138.3800 C   0  0  0  0  0  3  0  0  0  0  0  0
  180.9050  181.6740  138.5480 C   0  0  0  0  0  3  0  0  0  0  0  0
  181.1190  178.8830  138.4900 C   0  0  0  0  0  0  0  0  0  0  0  0
  182.2680  179.6740  138.6700 C   0  0  0  0  0  0  0  0  0  0  0  0
  179.8670  179.4930  138.3580 C   0  0  0  0  0  3  0  0  0  0  0  0
  183.8690  174.6370  137.9780 C   0  0  0  0  0  3  0  0  0  0  0  0
  184.8280  174.9820  137.0900 C   0  0  0  0  0  0  0  0  0  0  0  0
  184.9020  176.3170  136.4040 C   0  0  0  0  0  2  0  0  0  0  0  0
  182.4910  176.8230  137.9050 C   0  0  1  0  0  3  0  0  0  0  0  0
  184.8050  177.4870  137.3350 C   0  0  0  0  0  3  0  0  0  0  0  0
  183.6890  177.7490  138.0220 C   0  0  0  0  0  0  0  0  0  0  0  0
  185.8190  173.9490  136.6340 C   0  0  0  0  0  3  0  0  0  0  0  0
  187.2440  174.4450  136.7900 C   0  0  0  0  0  1  0  0  0  0  0  0
  185.6370  172.6340  137.3750 C   0  0  0  0  0  1  0  0  0  0  0  0
  184.0480  178.8610  140.2630 C   0  0  0  0  0  2  0  0  0  0  0  0
  185.2760  179.6020  140.5470 N   0  0  0  0  0  0  0  0  0  0  0  0
  186.3340  178.5920  140.6850 C   0  0  0  0  0  2  0  0  0  0  0  0
  185.8760  179.2990  141.8770 C   0  0  2  0  0  3  0  0  0  0  0  0
  185.0360  178.3840  142.7830 C   0  0  2  0  0  3  0  0  0  0  0  0
  184.3280  179.2260  143.8260 C   0  0  0  0  0  1  0  0  0  0  0  0
  187.1840  177.5470  143.5810 C   0  0  0  0  0  0  0  0  0  0  0  0
  185.8940  177.3790  143.4800 C   0  0  0  0  0  3  0  0  0  0  0  0
  188.4740  177.7240  143.6820 C   0  0  0  0  0  3  0  0  0  0  0  0
  189.1840  177.6590  144.9660 C   0  0  0  0  0  0  0  0  0  0  0  0
  188.4360  177.4510  146.0580 C   0  0  0  0  0  3  0  0  0  0  0  0
  190.6850  177.8480  145.0040 C   0  0  0  0  0  3  0  0  0  0  0  0
  191.4380  176.5480  144.7770 C   0  0  0  0  0  1  0  0  0  0  0  0
  191.1560  178.9290  144.0490 C   0  0  0  0  0  1  0  0  0  0  0  0
  188.0500  178.0670  148.4170 C   0  0  0  0  0  1  0  0  0  0  0  0
  188.9680  177.3440  147.4510 C   0  0  0  0  0  2  0  0  0  0  0  0
  1 19  1  1  0  0  0
  5  6  1  0  0  0  0
  6  4  2  0  0  0  0
  7  3  1  0  0  0  0
  7  8  2  0  0  0  0
  8  4  1  0  0  0  0
  8  1  1  0  0  0  0
  9  5  2  0  0  0  0
  9  7  1  0  0  0  0
 10  2  1  0  0  0  0
 11 10  2  0  0  0  0
 12 11  1  0  0  0  0
 12 14  1  0  0  0  0
 13 15  1  0  0  0  0
 13  3  1  1  0  0  0
 13  2  1  0  0  0  0
 14 15  2  0  0  0  0
 15  1  1  0  0  0  0
 16 17  1  0  0  0  0
 16 11  1  0  0  0  0
 16 18  1  0  0  0  0
 19 20  1  0  0  0  0
 20 21  1  0  0  0  0
 20 22  1  0  0  0  0
 21 22  1  0  0  0  0
 22 23  1  1  0  0  0
 23 26  1  0  0  0  0
 23 24  1  1  0  0  0
 25 27  2  0  0  0  0
 26 25  2  0  0  0  0
 27 28  1  0  0  0  0
 28 30  1  0  0  0  0
 28 29  2  0  0  0  0
 29 34  1  0  0  0  0
 31 30  1  0  0  0  0
 32 30  1  0  0  0  0
 34 33  1  0  0  0  0
M  END
>  <MODEL>
2

>  <REMARK>
 VINA RESULT:      -8.2      4.498      7.128
  Name = 
  8 active torsions:
  status: ('A' for Active; 'I' for Inactive)
    1  A    between atoms: C_1  and  C_9
    2  A    between atoms: C_3  and  C_25
    3  A    between atoms: C_6  and  C_28
    4  A    between atoms: C_6  and  C_30
    5  A    between atoms: C_7  and  C_11
    6  A    between atoms: C_7  and  C_29
    7  A    between atoms: N_8  and  C_9
    8  A    between atoms: C_14  and  C_16
                            x       y       z     vdW  Elec       q    Type
                         _______ _______ _______ _____ _____    ______ ____

>  <TORSDO>
F 8

$$$$
=
 OpenBabel10262423153D

 34 37  0  0  1  0  0  0  0  0999 V2000
  182.9120  178.2740  139.6580 C   0  0  2  0  0  3  0  0  0  0  0  0
  183.3600  174.9190  138.3510 C   0  0  0  0  0  2  0  0  0  0  0  0
  181.4100  175.7660  139.5980 C   0  0  0  0  0  2  0  0  0  0  0  0
  180.9870  179.3220  140.8770 C   0  0  0  0  0  3  0  0  0  0  0  0
  178.9660  178.0750  141.3520 C   0  0  0  0  0  3  0  0  0  0  0  0
  179.7000  179.2630  141.4200 C   0  0  0  0  0  3  0  0  0  0  0  0
  180.7980  177.0040  140.1820 C   0  0  0  0  0  0  0  0  0  0  0  0
  181.5400  178.1960  140.2590 C   0  0  0  0  0  0  0  0  0  0  0  0
  179.5160  176.9450  140.7400 C   0  0  0  0  0  3  0  0  0  0  0  0
  184.2160  174.8290  137.1090 C   0  0  0  0  0  3  0  0  0  0  0  0
  184.4420  175.7690  136.1660 C   0  0  0  0  0  0  0  0  0  0  0  0
  183.7130  177.0820  136.0910 C   0  0  0  0  0  2  0  0  0  0  0  0
  182.3230  176.0360  138.3920 C   0  0  1  0  0  3  0  0  0  0  0  0
  183.6860  177.8380  137.3830 C   0  0  0  0  0  3  0  0  0  0  0  0
  183.0290  177.3800  138.4530 C   0  0  0  0  0  0  0  0  0  0  0  0
  185.3720  175.4630  135.0260 C   0  0  0  0  0  3  0  0  0  0  0  0
  186.4970  176.4790  134.9460 C   0  0  0  0  0  1  0  0  0  0  0  0
  185.9400  174.0580  135.1300 C   0  0  0  0  0  1  0  0  0  0  0  0
  184.0220  178.0380  140.6820 C   0  0  0  0  0  2  0  0  0  0  0  0
  184.8110  179.2490  140.9040 N   0  0  0  0  0  0  0  0  0  0  0  0
  186.1060  178.7960  141.4330 C   0  0  0  0  0  2  0  0  0  0  0  0
  185.1790  179.4820  142.3290 C   0  0  2  0  0  3  0  0  0  0  0  0
  184.5500  178.5070  143.3380 C   0  0  2  0  0  3  0  0  0  0  0  0
  183.1590  178.9890  143.6970 C   0  0  0  0  0  1  0  0  0  0  0  0
  186.4250  177.6620  144.6510 C   0  0  0  0  0  0  0  0  0  0  0  0
  185.3650  178.4210  144.5870 C   0  0  0  0  0  3  0  0  0  0  0  0
  187.4870  176.9030  144.7070 C   0  0  0  0  0  3  0  0  0  0  0  0
  188.7970  177.4050  145.1420 C   0  0  0  0  0  0  0  0  0  0  0  0
  189.7220  177.5810  144.1880 C   0  0  0  0  0  3  0  0  0  0  0  0
  189.0470  177.6750  146.6100 C   0  0  0  0  0  3  0  0  0  0  0  0
  187.7600  177.9020  147.3840 C   0  0  0  0  0  1  0  0  0  0  0  0
  189.8960  176.5970  147.2590 C   0  0  0  0  0  1  0  0  0  0  0  0
  191.1910  179.5590  144.0600 C   0  0  0  0  0  1  0  0  0  0  0  0
  191.1070  178.0900  144.4250 C   0  0  0  0  0  2  0  0  0  0  0  0
  1  8  1  0  0  0  0
  1 19  1  1  0  0  0
  3  7  1  0  0  0  0
  4  6  1  0  0  0  0
  5  6  2  0  0  0  0
  7  8  1  0  0  0  0
  7  9  2  0  0  0  0
  8  4  2  0  0  0  0
  9  5  1  0  0  0  0
 10  2  1  0  0  0  0
 11 10  2  0  0  0  0
 12 11  1  0  0  0  0
 12 14  1  0  0  0  0
 13  2  1  1  0  0  0
 13 15  1  0  0  0  0
 13  3  1  0  0  0  0
 14 15  2  0  0  0  0
 15  1  1  0  0  0  0
 16 18  1  0  0  0  0
 16 11  1  0  0  0  0
 17 16  1  0  0  0  0
 19 20  1  0  0  0  0
 20 21  1  0  0  0  0
 20 22  1  0  0  0  0
 21 22  1  0  0  0  0
 22 23  1  1  0  0  0
 23 24  1  1  0  0  0
 23 26  1  0  0  0  0
 25 27  2  0  0  0  0
 26 25  2  0  0  0  0
 27 28  1  0  0  0  0
 28 30  1  0  0  0  0
 29 34  1  0  0  0  0
 29 28  2  0  0  0  0
 30 32  1  0  0  0  0
 30 31  1  0  0  0  0
 33 34  1  0  0  0  0
M  END
>  <MODEL>
3

>  <REMARK>
 VINA RESULT:      -7.8      5.003      7.645
  Name = 
  8 active torsions:
  status: ('A' for Active; 'I' for Inactive)
    1  A    between atoms: C_1  and  C_9
    2  A    between atoms: C_3  and  C_25
    3  A    between atoms: C_6  and  C_28
    4  A    between atoms: C_6  and  C_30
    5  A    between atoms: C_7  and  C_11
    6  A    between atoms: C_7  and  C_29
    7  A    between atoms: N_8  and  C_9
    8  A    between atoms: C_14  and  C_16
                            x       y       z     vdW  Elec       q    Type
                         _______ _______ _______ _____ _____    ______ ____

>  <TORSDO>
F 8

$$$$
=
 OpenBabel10262423153D

 34 37  0  0  1  0  0  0  0  0999 V2000
  182.8550  178.5540  140.0770 C   0  0  2  0  0  3  0  0  0  0  0  0
  183.0420  175.2530  138.5850 C   0  0  0  0  0  2  0  0  0  0  0  0
  181.1770  176.1670  139.9120 C   0  0  0  0  0  2  0  0  0  0  0  0
  181.0290  179.6690  141.3860 C   0  0  0  0  0  3  0  0  0  0  0  0
  178.9310  178.5440  141.8310 C   0  0  0  0  0  3  0  0  0  0  0  0
  179.7490  179.6710  141.9480 C   0  0  0  0  0  3  0  0  0  0  0  0
  180.6630  177.4110  140.5720 C   0  0  0  0  0  0  0  0  0  0  0  0
  181.4910  178.5410  140.6990 C   0  0  0  0  0  0  0  0  0  0  0  0
  179.3890  177.4130  141.1500 C   0  0  0  0  0  3  0  0  0  0  0  0
  183.8700  175.1690  137.3250 C   0  0  0  0  0  3  0  0  0  0  0  0
  184.1490  176.1410  136.4280 C   0  0  0  0  0  0  0  0  0  0  0  0
  183.5160  177.5040  136.4370 C   0  0  0  0  0  2  0  0  0  0  0  0
  182.0890  176.4360  138.7050 C   0  0  1  0  0  3  0  0  0  0  0  0
  183.5620  178.1900  137.7680 C   0  0  0  0  0  3  0  0  0  0  0  0
  182.8900  177.7210  138.8240 C   0  0  0  0  0  0  0  0  0  0  0  0
  185.0380  175.8330  135.2570 C   0  0  0  0  0  3  0  0  0  0  0  0
  185.5380  177.1040  134.5950 C   0  0  0  0  0  1  0  0  0  0  0  0
  186.2120  174.9560  135.6610 C   0  0  0  0  0  1  0  0  0  0  0  0
  183.9610  178.1850  141.0660 C   0  0  0  0  0  2  0  0  0  0  0  0
  184.8860  179.2980  141.2740 N   0  0  0  0  0  0  0  0  0  0  0  0
  186.1340  178.6990  141.7690 C   0  0  0  0  0  2  0  0  0  0  0  0
  185.3130  179.4780  142.6900 C   0  0  2  0  0  3  0  0  0  0  0  0
  184.6020  178.5730  143.7110 C   0  0  2  0  0  3  0  0  0  0  0  0
  183.4140  179.3130  144.2930 C   0  0  0  0  0  1  0  0  0  0  0  0
  186.5580  177.4270  144.6100 C   0  0  0  0  0  0  0  0  0  0  0  0
  185.5200  178.1890  144.8240 C   0  0  0  0  0  3  0  0  0  0  0  0
  187.5970  176.6670  144.3890 C   0  0  0  0  0  3  0  0  0  0  0  0
  188.9550  177.0410  144.8070 C   0  0  0  0  0  0  0  0  0  0  0  0
  189.1670  177.1660  146.1240 C   0  0  0  0  0  3  0  0  0  0  0  0
  190.0210  177.2840  143.7610 C   0  0  0  0  0  3  0  0  0  0  0  0
  190.5910  175.9910  143.2030 C   0  0  0  0  0  1  0  0  0  0  0  0
  189.5420  178.1990  142.6490 C   0  0  0  0  0  1  0  0  0  0  0  0
  191.2400  176.2740  147.1210 C   0  0  0  0  0  1  0  0  0  0  0  0
  190.4760  177.5280  146.7480 C   0  0  0  0  0  2  0  0  0  0  0  0
  1  8  1  0  0  0  0
  1 19  1  1  0  0  0
  3  7  1  0  0  0  0
  4  6  1  0  0  0  0
  5  6  2  0  0  0  0
  7  8  1  0  0  0  0
  7  9  2  0  0  0  0
  8  4  2  0  0  0  0
  9  5  1  0  0  0  0
 10  2  1  0  0  0  0
 11 12  1  0  0  0  0
 11 10  2  0  0  0  0
 12 14  1  0  0  0  0
 13  2  1  1  0  0  0
 13 15  1  0  0  0  0
 13  3  1  0  0  0  0
 14 15  2  0  0  0  0
 15  1  1  0  0  0  0
 16 18  1  0  0  0  0
 16 11  1  0  0  0  0
 17 16  1  0  0  0  0
 19 20  1  0  0  0  0
 20 21  1  0  0  0  0
 20 22  1  0  0  0  0
 21 22  1  0  0  0  0
 22 23  1  1  0  0  0
 23 24  1  1  0  0  0
 23 26  1  0  0  0  0
 25 26  2  0  0  0  0
 27 25  2  0  0  0  0
 27 28  1  0  0  0  0
 28 29  2  0  0  0  0
 29 34  1  0  0  0  0
 30 28  1  0  0  0  0
 31 30  1  0  0  0  0
 32 30  1  0  0  0  0
 34 33  1  0  0  0  0
M  END
>  <MODEL>
4

>  <REMARK>
 VINA RESULT:      -7.8      4.701      7.962
  Name = 
  8 active torsions:
  status: ('A' for Active; 'I' for Inactive)
    1  A    between atoms: C_1  and  C_9
    2  A    between atoms: C_3  and  C_25
    3  A    between atoms: C_6  and  C_28
    4  A    between atoms: C_6  and  C_30
    5  A    between atoms: C_7  and  C_11
    6  A    between atoms: C_7  and  C_29
    7  A    between atoms: N_8  and  C_9
    8  A    between atoms: C_14  and  C_16
                            x       y       z     vdW  Elec       q    Type
                         _______ _______ _______ _____ _____    ______ ____

>  <TORSDO>
F 8

$$$$
=
 OpenBabel10262423153D

 34 37  0  0  1  0  0  0  0  0999 V2000
  187.7930  177.1630  137.6140 C   0  0  2  0  0  3  0  0  0  0  0  0
  189.5260  174.0130  137.1250 C   0  0  0  0  0  2  0  0  0  0  0  0
  187.1080  174.4200  136.8710 C   0  0  0  0  0  2  0  0  0  0  0  0
  185.3760  177.7730  137.3360 C   0  0  0  0  0  3  0  0  0  0  0  0
  183.7410  176.1440  136.6010 C   0  0  0  0  0  3  0  0  0  0  0  0
  184.0600  177.4470  136.9980 C   0  0  0  0  0  3  0  0  0  0  0  0
  186.0610  175.4930  136.8630 C   0  0  0  0  0  0  0  0  0  0  0  0
  186.3790  176.8000  137.2720 C   0  0  0  0  0  0  0  0  0  0  0  0
  184.7390  175.1670  136.5400 C   0  0  0  0  0  3  0  0  0  0  0  0
  190.9580  174.1390  136.6610 C   0  0  0  0  0  3  0  0  0  0  0  0
  191.5390  175.1440  135.9690 C   0  0  0  0  0  0  0  0  0  0  0  0
  190.7880  176.2960  135.3620 C   0  0  0  0  0  2  0  0  0  0  0  0
  188.4990  174.9090  136.4400 C   0  0  1  0  0  3  0  0  0  0  0  0
  189.8490  176.9790  136.3090 C   0  0  0  0  0  3  0  0  0  0  0  0
  188.7720  176.3590  136.8020 C   0  0  0  0  0  0  0  0  0  0  0  0
  193.0050  175.0690  135.6500 C   0  0  0  0  0  3  0  0  0  0  0  0
  193.7680  176.2120  136.2940 C   0  0  0  0  0  1  0  0  0  0  0  0
  193.6020  173.7370  136.0710 C   0  0  0  0  0  1  0  0  0  0  0  0
  188.0750  177.1000  139.1150 C   0  0  0  0  0  2  0  0  0  0  0  0
  188.6910  178.3370  139.5950 N   0  0  0  0  0  0  0  0  0  0  0  0
  189.2510  178.0220  140.9180 C   0  0  0  0  0  2  0  0  0  0  0  0
  188.0740  178.8820  140.8370 C   0  0  2  0  0  3  0  0  0  0  0  0
  186.8100  178.1490  141.3190 C   0  0  2  0  0  3  0  0  0  0  0  0
  185.5850  178.8660  140.7880 C   0  0  0  0  0  1  0  0  0  0  0  0
  187.5640  177.3860  143.5100 C   0  0  0  0  0  0  0  0  0  0  0  0
  186.7400  178.1170  142.8100 C   0  0  0  0  0  3  0  0  0  0  0  0
  188.3950  176.6560  144.2040 C   0  0  0  0  0  3  0  0  0  0  0  0
  189.2000  177.2010  145.3050 C   0  0  0  0  0  0  0  0  0  0  0  0
  188.5770  177.3710  146.4800 C   0  0  0  0  0  3  0  0  0  0  0  0
  190.6500  177.5590  145.0680 C   0  0  0  0  0  3  0  0  0  0  0  0
  191.4330  176.4200  144.4380 C   0  0  0  0  0  1  0  0  0  0  0  0
  190.8070  178.8400  144.2700 C   0  0  0  0  0  1  0  0  0  0  0  0
  188.1950  178.0260  148.8280 C   0  0  0  0  0  1  0  0  0  0  0  0
  189.2220  177.9020  147.7200 C   0  0  0  0  0  2  0  0  0  0  0  0
  1 19  1  1  0  0  0
  5  6  1  0  0  0  0
  6  4  2  0  0  0  0
  7  3  1  0  0  0  0
  7  8  2  0  0  0  0
  8  4  1  0  0  0  0
  8  1  1  0  0  0  0
  9  5  2  0  0  0  0
  9  7  1  0  0  0  0
 10  2  1  0  0  0  0
 11 10  2  0  0  0  0
 12 11  1  0  0  0  0
 12 14  1  0  0  0  0
 13 15  1  0  0  0  0
 13  3  1  1  0  0  0
 13  2  1  0  0  0  0
 14 15  2  0  0  0  0
 15  1  1  0  0  0  0
 16 11  1  0  0  0  0
 16 18  1  0  0  0  0
 16 17  1  0  0  0  0
 19 20  1  0  0  0  0
 20 22  1  0  0  0  0
 20 21  1  0  0  0  0
 22 21  1  0  0  0  0
 22 23  1  1  0  0  0
 23 24  1  6  0  0  0
 23 26  1  0  0  0  0
 25 27  2  0  0  0  0
 26 25  2  0  0  0  0
 27 28  1  0  0  0  0
 28 29  2  0  0  0  0
 29 34  1  0  0  0  0
 30 28  1  0  0  0  0
 31 30  1  0  0  0  0
 32 30  1  0  0  0  0
 34 33  1  0  0  0  0
M  END
>  <MODEL>
5

>  <REMARK>
 VINA RESULT:      -7.5      1.948      3.237
  Name = 
  8 active torsions:
  status: ('A' for Active; 'I' for Inactive)
    1  A    between atoms: C_1  and  C_9
    2  A    between atoms: C_3  and  C_25
    3  A    between atoms: C_6  and  C_28
    4  A    between atoms: C_6  and  C_30
    5  A    between atoms: C_7  and  C_11
    6  A    between atoms: C_7  and  C_29
    7  A    between atoms: N_8  and  C_9
    8  A    between atoms: C_14  and  C_16
                            x       y       z     vdW  Elec       q    Type
                         _______ _______ _______ _____ _____    ______ ____

>  <TORSDO>
F 8

$$$$
=
 OpenBabel10262423153D

 34 37  0  0  1  0  0  0  0  0999 V2000
  190.8900  174.6020  137.6170 C   0  0  2  0  0  3  0  0  0  0  0  0
  188.0430  175.8440  135.7440 C   0  0  0  0  0  2  0  0  0  0  0  0
  190.4230  176.1930  135.2100 C   0  0  0  0  0  2  0  0  0  0  0  0
  193.3540  174.7970  137.1900 C   0  0  0  0  0  3  0  0  0  0  0  0
  194.2080  175.9500  135.2380 C   0  0  0  0  0  3  0  0  0  0  0  0
  194.4340  175.2260  136.4130 C   0  0  0  0  0  3  0  0  0  0  0  0
  191.8170  175.8040  135.6040 C   0  0  0  0  0  0  0  0  0  0  0  0
  192.0450  175.0860  136.7910 C   0  0  0  0  0  0  0  0  0  0  0  0
  192.9010  176.2450  134.8380 C   0  0  0  0  0  3  0  0  0  0  0  0
  186.8030  174.9830  135.8240 C   0  0  0  0  0  3  0  0  0  0  0  0
  186.7070  173.6570  136.0630 C   0  0  0  0  0  0  0  0  0  0  0  0
  187.8830  172.7230  136.1280 C   0  0  0  0  0  2  0  0  0  0  0  0
  189.3680  175.1220  135.5270 C   0  0  1  0  0  3  0  0  0  0  0  0
  188.9850  173.1930  137.0280 C   0  0  0  0  0  3  0  0  0  0  0  0
  189.6980  174.2890  136.7540 C   0  0  0  0  0  0  0  0  0  0  0  0
  185.3500  173.0160  136.1360 C   0  0  0  0  0  3  0  0  0  0  0  0
  185.3540  171.6410  135.4940 C   0  0  0  0  0  1  0  0  0  0  0  0
  184.8520  172.9240  137.5690 C   0  0  0  0  0  1  0  0  0  0  0  0
  190.5550  175.5420  138.7750 C   0  0  0  0  0  2  0  0  0  0  0  0
  191.0550  176.8930  138.5290 N   0  0  0  0  0  0  0  0  0  0  0  0
  191.2800  177.4880  139.8540 C   0  0  0  0  0  2  0  0  0  0  0  0
  190.1670  177.9740  139.0440 C   0  0  2  0  0  3  0  0  0  0  0  0
  188.8160  177.5020  139.6060 C   0  0  2  0  0  3  0  0  0  0  0  0
  187.7190  177.8350  138.6150 C   0  0  0  0  0  1  0  0  0  0  0  0
  188.4500  177.4910  142.0180 C   0  0  0  0  0  0  0  0  0  0  0  0
  188.5090  178.1710  140.9060 C   0  0  0  0  0  3  0  0  0  0  0  0
  188.3970  176.8050  143.1290 C   0  0  0  0  0  3  0  0  0  0  0  0
  189.1630  177.1760  144.3260 C   0  0  0  0  0  0  0  0  0  0  0  0
  188.4560  177.4850  145.4220 C   0  0  0  0  0  3  0  0  0  0  0  0
  190.6740  177.2140  144.2670 C   0  0  0  0  0  3  0  0  0  0  0  0
  191.2590  175.9940  143.5770 C   0  0  0  0  0  1  0  0  0  0  0  0
  191.1960  178.4980  143.6480 C   0  0  0  0  0  1  0  0  0  0  0  0
  188.3510  177.1370  147.8620 C   0  0  0  0  0  1  0  0  0  0  0  0
  189.0470  177.8770  146.7380 C   0  0  0  0  0  2  0  0  0  0  0  0
  1 19  1  1  0  0  0
  2 10  1  0  0  0  0
  3  7  1  0  0  0  0
  5  6  1  0  0  0  0
  6  4  2  0  0  0  0
  7  8  2  0  0  0  0
  8  4  1  0  0  0  0
  8  1  1  0  0  0  0
  9  5  2  0  0  0  0
  9  7  1  0  0  0  0
 10 11  2  0  0  0  0
 11 12  1  0  0  0  0
 11 16  1  0  0  0  0
 12 14  1  0  0  0  0
 13  3  1  1  0  0  0
 13  2  1  0  0  0  0
 13 15  1  0  0  0  0
 15 14  2  0  0  0  0
 15  1  1  0  0  0  0
 16 18  1  0  0  0  0
 17 16  1  0  0  0  0
 20 19  1  0  0  0  0
 20 22  1  0  0  0  0
 20 21  1  0  0  0  0
 22 23  1  1  0  0  0
 22 21  1  0  0  0  0
 23 24  1  6  0  0  0
 23 26  1  0  0  0  0
 25 27  2  0  0  0  0
 26 25  2  0  0  0  0
 27 28  1  0  0  0  0
 28 29  2  0  0  0  0
 29 34  1  0  0  0  0
 30 28  1  0  0  0  0
 31 30  1  0  0  0  0
 32 30  1  0  0  0  0
 34 33  1  0  0  0  0
M  END
>  <MODEL>
6

>  <REMARK>
 VINA RESULT:      -7.2      2.159      5.307
  Name = 
  8 active torsions:
  status: ('A' for Active; 'I' for Inactive)
    1  A    between atoms: C_1  and  C_9
    2  A    between atoms: C_3  and  C_25
    3  A    between atoms: C_6  and  C_28
    4  A    between atoms: C_6  and  C_30
    5  A    between atoms: C_7  and  C_11
    6  A    between atoms: C_7  and  C_29
    7  A    between atoms: N_8  and  C_9
    8  A    between atoms: C_14  and  C_16
                            x       y       z     vdW  Elec       q    Type
                         _______ _______ _______ _____ _____    ______ ____

>  <TORSDO>
F 8

$$$$
=
 OpenBabel10262423153D

 34 37  0  0  1  0  0  0  0  0999 V2000
  189.6170  175.1430  137.4030 C   0  0  2  0  0  3  0  0  0  0  0  0
  187.8890  177.8590  135.7320 C   0  0  0  0  0  2  0  0  0  0  0  0
  190.1720  177.0570  135.2660 C   0  0  0  0  0  2  0  0  0  0  0  0
  191.8890  174.1530  137.0200 C   0  0  0  0  0  3  0  0  0  0  0  0
  193.3450  174.9810  135.2690 C   0  0  0  0  0  3  0  0  0  0  0  0
  193.0980  174.0920  136.3210 C   0  0  0  0  0  3  0  0  0  0  0  0
  191.1650  175.9850  135.6010 C   0  0  0  0  0  0  0  0  0  0  0  0
  190.9210  175.0990  136.6650 C   0  0  0  0  0  0  0  0  0  0  0  0
  192.3830  175.9310  134.9140 C   0  0  0  0  0  3  0  0  0  0  0  0
  186.3850  177.7190  135.6760 C   0  0  0  0  0  3  0  0  0  0  0  0
  185.6380  176.5940  135.7090 C   0  0  0  0  0  0  0  0  0  0  0  0
  186.2020  175.2030  135.6360 C   0  0  0  0  0  2  0  0  0  0  0  0
  188.7080  176.6140  135.4120 C   0  0  1  0  0  3  0  0  0  0  0  0
  187.3190  174.9470  136.6000 C   0  0  0  0  0  3  0  0  0  0  0  0
  188.4940  175.5750  136.4990 C   0  0  0  0  0  0  0  0  0  0  0  0
  184.1390  176.7020  135.6800 C   0  0  0  0  0  3  0  0  0  0  0  0
  183.5020  175.3980  135.2360 C   0  0  0  0  0  1  0  0  0  0  0  0
  183.5820  177.1260  137.0290 C   0  0  0  0  0  1  0  0  0  0  0  0
  189.6910  175.9650  138.6900 C   0  0  0  0  0  2  0  0  0  0  0  0
  190.1540  177.3270  138.4280 N   0  0  0  0  0  0  0  0  0  0  0  0
  190.6230  177.8500  139.7200 C   0  0  0  0  0  2  0  0  0  0  0  0
  189.3870  178.3800  139.1520 C   0  0  2  0  0  3  0  0  0  0  0  0
  188.1540  177.8810  139.9250 C   0  0  2  0  0  3  0  0  0  0  0  0
  186.9000  178.2550  139.1610 C   0  0  0  0  0  1  0  0  0  0  0  0
  188.0050  177.7480  142.3560 C   0  0  0  0  0  0  0  0  0  0  0  0
  188.0870  178.4910  141.2860 C   0  0  0  0  0  3  0  0  0  0  0  0
  187.9280  176.9990  143.4230 C   0  0  0  0  0  3  0  0  0  0  0  0
  188.8500  177.1390  144.5580 C   0  0  0  0  0  0  0  0  0  0  0  0
  188.2970  177.3530  145.7600 C   0  0  0  0  0  3  0  0  0  0  0  0
  190.3420  177.0600  144.3260 C   0  0  0  0  0  3  0  0  0  0  0  0
  190.7130  176.0130  143.2900 C   0  0  0  0  0  1  0  0  0  0  0  0
  190.9460  178.4100  143.9820 C   0  0  0  0  0  1  0  0  0  0  0  0
  188.1280  177.9370  148.1520 C   0  0  0  0  0  1  0  0  0  0  0  0
  189.0610  177.5120  147.0350 C   0  0  0  0  0  2  0  0  0  0  0  0
  1 19  1  1  0  0  0
  3  7  1  0  0  0  0
  5  6  1  0  0  0  0
  6  4  2  0  0  0  0
  7  8  2  0  0  0  0
  8  4  1  0  0  0  0
  8  1  1  0  0  0  0
  9  5  2  0  0  0  0
  9  7  1  0  0  0  0
 10 11  2  0  0  0  0
 10  2  1  0  0  0  0
 12 11  1  0  0  0  0
 12 14  1  0  0  0  0
 13  3  1  1  0  0  0
 13  2  1  0  0  0  0
 13 15  1  0  0  0  0
 15 14  2  0  0  0  0
 15  1  1  0  0  0  0
 16 11  1  0  0  0  0
 16 18  1  0  0  0  0
 17 16  1  0  0  0  0
 20 19  1  0  0  0  0
 20 22  1  0  0  0  0
 20 21  1  0  0  0  0
 22 21  1  0  0  0  0
 22 23  1  1  0  0  0
 23 24  1  6  0  0  0
 23 26  1  0  0  0  0
 25 27  2  0  0  0  0
 26 25  2  0  0  0  0
 27 28  1  0  0  0  0
 28 29  2  0  0  0  0
 29 34  1  0  0  0  0
 30 28  1  0  0  0  0
 31 30  1  0  0  0  0
 32 30  1  0  0  0  0
 34 33  1  0  0  0  0
M  END
>  <MODEL>
7

>  <REMARK>
 VINA RESULT:      -7.1      1.876      5.761
  Name = 
  8 active torsions:
  status: ('A' for Active; 'I' for Inactive)
    1  A    between atoms: C_1  and  C_9
    2  A    between atoms: C_3  and  C_25
    3  A    between atoms: C_6  and  C_28
    4  A    between atoms: C_6  and  C_30
    5  A    between atoms: C_7  and  C_11
    6  A    between atoms: C_7  and  C_29
    7  A    between atoms: N_8  and  C_9
    8  A    between atoms: C_14  and  C_16
                            x       y       z     vdW  Elec       q    Type
                         _______ _______ _______ _____ _____    ______ ____

>  <TORSDO>
F 8

$$$$
=
 OpenBabel10262423153D

 34 37  0  0  1  0  0  0  0  0999 V2000
  188.8420  178.5320  141.6150 C   0  0  2  0  0  3  0  0  0  0  0  0
  190.2250  175.5760  143.1990 C   0  0  0  0  0  2  0  0  0  0  0  0
  190.1680  176.0630  140.7830 C   0  0  0  0  0  2  0  0  0  0  0  0
  188.7590  179.2220  139.2050 C   0  0  0  0  0  3  0  0  0  0  0  0
  189.7280  177.8440  137.4650 C   0  0  0  0  0  3  0  0  0  0  0  0
  189.0550  179.0050  137.8560 C   0  0  0  0  0  3  0  0  0  0  0  0
  189.8280  177.1180  139.7750 C   0  0  0  0  0  0  0  0  0  0  0  0
  189.1420  178.2810  140.1670 C   0  0  0  0  0  0  0  0  0  0  0  0
  190.1080  176.8980  138.4220 C   0  0  0  0  0  3  0  0  0  0  0  0
  190.7630  175.7930  144.5940 C   0  0  0  0  0  3  0  0  0  0  0  0
  191.2360  176.9290  145.1520 C   0  0  0  0  0  0  0  0  0  0  0  0
  191.4800  178.2040  144.3930 C   0  0  0  0  0  2  0  0  0  0  0  0
  190.5830  176.6250  142.1520 C   0  0  1  0  0  3  0  0  0  0  0  0
  190.3200  178.6460  143.5550 C   0  0  0  0  0  3  0  0  0  0  0  0
  189.9040  177.9390  142.5000 C   0  0  0  0  0  0  0  0  0  0  0  0
  191.6860  176.9170  146.5850 C   0  0  0  0  0  3  0  0  0  0  0  0
  190.5190  177.1290  147.5310 C   0  0  0  0  0  1  0  0  0  0  0  0
  192.4130  175.6280  146.9310 C   0  0  0  0  0  1  0  0  0  0  0  0
  187.4300  178.1000  142.0110 C   0  0  0  0  0  2  0  0  0  0  0  0
  187.3460  177.7920  143.4380 N   0  0  0  0  0  0  0  0  0  0  0  0
  186.1990  176.8850  143.5890 C   0  0  0  0  0  2  0  0  0  0  0  0
  186.0860  178.2530  144.0880 C   0  0  2  0  0  3  0  0  0  0  0  0
  185.1600  179.0990  143.1970 C   0  0  2  0  0  3  0  0  0  0  0  0
  184.2160  179.8960  144.0750 C   0  0  0  0  0  1  0  0  0  0  0  0
  184.0690  178.6200  141.0690 C   0  0  0  0  0  0  0  0  0  0  0  0
  184.3530  178.2360  142.2840 C   0  0  0  0  0  3  0  0  0  0  0  0
  183.7900  179.0080  139.8540 C   0  0  0  0  0  3  0  0  0  0  0  0
  184.0700  178.1780  138.6740 C   0  0  0  0  0  0  0  0  0  0  0  0
  185.3070  178.2530  138.1640 C   0  0  0  0  0  3  0  0  0  0  0  0
  182.9740  177.3160  138.0880 C   0  0  0  0  0  3  0  0  0  0  0  0
  182.7290  176.0570  138.9020 C   0  0  0  0  0  1  0  0  0  0  0  0
  181.6850  178.0870  137.8690 C   0  0  0  0  0  1  0  0  0  0  0  0
  186.5230  176.2360  137.4280 C   0  0  0  0  0  1  0  0  0  0  0  0
  185.7890  177.4830  136.9770 C   0  0  0  0  0  2  0  0  0  0  0  0
  1 19  1  1  0  0  0
  1 15  1  0  0  0  0
  2 10  1  0  0  0  0
  4  8  1  0  0  0  0
  5  6  1  0  0  0  0
  5  9  2  0  0  0  0
  6  4  2  0  0  0  0
  7  8  2  0  0  0  0
  7  3  1  0  0  0  0
  8  1  1  0  0  0  0
  9  7  1  0  0  0  0
 10 11  2  0  0  0  0
 11 16  1  0  0  0  0
 12 11  1  0  0  0  0
 13  3  1  6  0  0  0
 13 15  1  0  0  0  0
 13  2  1  0  0  0  0
 14 12  1  0  0  0  0
 15 14  2  0  0  0  0
 16 18  1  0  0  0  0
 16 17  1  0  0  0  0
 19 20  1  0  0  0  0
 20 21  1  0  0  0  0
 20 22  1  0  0  0  0
 21 22  1  0  0  0  0
 22 23  1  6  0  0  0
 23 24  1  1  0  0  0
 25 26  2  0  0  0  0
 26 23  1  0  0  0  0
 27 25  2  0  0  0  0
 28 27  1  0  0  0  0
 29 28  2  0  0  0  0
 30 28  1  0  0  0  0
 30 31  1  0  0  0  0
 32 30  1  0  0  0  0
 34 33  1  0  0  0  0
 34 29  1  0  0  0  0
M  END
>  <MODEL>
8

>  <REMARK>
 VINA RESULT:      -7.0      3.262      7.244
  Name = 
  8 active torsions:
  status: ('A' for Active; 'I' for Inactive)
    1  A    between atoms: C_1  and  C_9
    2  A    between atoms: C_3  and  C_25
    3  A    between atoms: C_6  and  C_28
    4  A    between atoms: C_6  and  C_30
    5  A    between atoms: C_7  and  C_11
    6  A    between atoms: C_7  and  C_29
    7  A    between atoms: N_8  and  C_9
    8  A    between atoms: C_14  and  C_16
                            x       y       z     vdW  Elec       q    Type
                         _______ _______ _______ _____ _____    ______ ____

>  <TORSDO>
F 8

$$$$
=
 OpenBabel10262423153D

 34 37  0  0  1  0  0  0  0  0999 V2000
  189.5200  177.1940  136.3000 C   0  0  2  0  0  3  0  0  0  0  0  0
  190.9310  173.9770  137.2070 C   0  0  0  0  0  2  0  0  0  0  0  0
  188.5810  174.4450  136.6270 C   0  0  0  0  0  2  0  0  0  0  0  0
  187.1940  177.8390  135.6180 C   0  0  0  0  0  3  0  0  0  0  0  0
  185.4280  176.1900  135.4460 C   0  0  0  0  0  3  0  0  0  0  0  0
  185.8650  177.5130  135.3310 C   0  0  0  0  0  3  0  0  0  0  0  0
  187.6530  175.5090  136.1210 C   0  0  0  0  0  0  0  0  0  0  0  0
  188.0900  176.8410  136.0160 C   0  0  0  0  0  0  0  0  0  0  0  0
  186.3190  175.1900  135.8480 C   0  0  0  0  0  3  0  0  0  0  0  0
  192.3860  173.7950  136.8450 C   0  0  0  0  0  3  0  0  0  0  0  0
  193.0970  174.3960  135.8650 C   0  0  0  0  0  0  0  0  0  0  0  0
  192.4950  175.2720  134.8020 C   0  0  0  0  0  2  0  0  0  0  0  0
  190.0320  174.6110  136.1500 C   0  0  1  0  0  3  0  0  0  0  0  0
  191.5960  176.3460  135.3340 C   0  0  0  0  0  3  0  0  0  0  0  0
  190.4410  176.0600  135.9420 C   0  0  0  0  0  0  0  0  0  0  0  0
  194.5580  174.0840  135.7150 C   0  0  0  0  0  3  0  0  0  0  0  0
  195.4200  175.2530  136.1560 C   0  0  0  0  0  1  0  0  0  0  0  0
  194.9440  172.8300  136.4830 C   0  0  0  0  0  1  0  0  0  0  0  0
  189.7330  177.7050  137.7250 C   0  0  0  0  0  2  0  0  0  0  0  0
  189.0720  176.8440  138.7050 N   0  0  0  0  0  0  0  0  0  0  0  0
  188.6820  177.7250  139.8160 C   0  0  0  0  0  2  0  0  0  0  0  0
  189.7700  176.7720  140.0200 C   0  0  2  0  0  3  0  0  0  0  0  0
  191.1330  177.4820  140.0800 C   0  0  2  0  0  3  0  0  0  0  0  0
  192.1170  176.7490  139.1900 C   0  0  0  0  0  1  0  0  0  0  0  0
  190.9500  177.9470  142.4680 C   0  0  0  0  0  0  0  0  0  0  0  0
  191.6700  177.5030  141.4740 C   0  0  0  0  0  3  0  0  0  0  0  0
  190.2230  178.3890  143.4590 C   0  0  0  0  0  3  0  0  0  0  0  0
  189.9960  177.6090  144.6840 C   0  0  0  0  0  0  0  0  0  0  0  0
  191.0340  177.4930  145.5240 C   0  0  0  0  0  3  0  0  0  0  0  0
  188.6470  176.9710  144.9270 C   0  0  0  0  0  3  0  0  0  0  0  0
  187.7090  177.8780  145.7060 C   0  0  0  0  0  1  0  0  0  0  0  0
  187.9990  176.4820  143.6450 C   0  0  0  0  0  1  0  0  0  0  0  0
  192.0550  175.6630  146.8260 C   0  0  0  0  0  1  0  0  0  0  0  0
  191.0030  176.7530  146.8220 C   0  0  0  0  0  2  0  0  0  0  0  0
  1 19  1  1  0  0  0
  4  8  1  0  0  0  0
  5  9  2  0  0  0  0
  6  5  1  0  0  0  0
  6  4  2  0  0  0  0
  7  3  1  0  0  0  0
  8  7  2  0  0  0  0
  8  1  1  0  0  0  0
  9  7  1  0  0  0  0
 10  2  1  0  0  0  0
 11 10  2  0  0  0  0
 12 14  1  0  0  0  0
 12 11  1  0  0  0  0
 13  3  1  1  0  0  0
 13  2  1  0  0  0  0
 14 15  2  0  0  0  0
 15 13  1  0  0  0  0
 15  1  1  0  0  0  0
 16 11  1  0  0  0  0
 16 17  1  0  0  0  0
 16 18  1  0  0  0  0
 19 20  1  0  0  0  0
 20 21  1  0  0  0  0
 20 22  1  0  0  0  0
 21 22  1  0  0  0  0
 22 23  1  6  0  0  0
 23 24  1  6  0  0  0
 23 26  1  0  0  0  0
 25 27  2  0  0  0  0
 26 25  2  0  0  0  0
 27 28  1  0  0  0  0
 28 30  1  0  0  0  0
 28 29  2  0  0  0  0
 29 34  1  0  0  0  0
 30 31  1  0  0  0  0
 32 30  1  0  0  0  0
 34 33  1  0  0  0  0
M  END
>  <MODEL>
9

>  <REMARK>
 VINA RESULT:      -6.9      1.618      3.174
  Name = 
  8 active torsions:
  status: ('A' for Active; 'I' for Inactive)
    1  A    between atoms: C_1  and  C_9
    2  A    between atoms: C_3  and  C_25
    3  A    between atoms: C_6  and  C_28
    4  A    between atoms: C_6  and  C_30
    5  A    between atoms: C_7  and  C_11
    6  A    between atoms: C_7  and  C_29
    7  A    between atoms: N_8  and  C_9
    8  A    between atoms: C_14  and  C_16
                            x       y       z     vdW  Elec       q    Type
                         _______ _______ _______ _____ _____    ______ ____

>  <TORSDO>
F 8

$$$$
