=
 OpenBabel10262422003D

 30 34  0  0  1  0  0  0  0  0999 V2000
  181.9140  178.4770  136.6490 C   0  0  0  0  0  2  0  0  0  0  0  0
  179.9620  178.7430  138.1830 C   0  0  0  0  0  0  0  0  0  0  0  0
  183.0780  178.7230  139.5580 C   0  0  0  0  0  2  0  0  0  0  0  0
  182.4300  177.1980  135.9760 C   0  0  2  0  0  3  0  0  0  0  0  0
  181.6080  175.9260  136.2810 C   0  0  2  0  0  3  0  0  0  0  0  0
  184.4290  172.2170  135.8820 C   0  0  0  0  0  2  0  0  0  0  0  0
  182.4160  174.6810  136.2730 N   0  0  0  0  0  0  0  0  0  0  0  0
  185.7490  176.1220  137.2150 O   0  0  0  0  0  0  0  0  0  0  0  0
  184.5130  178.2460  139.3860 C   0  0  0  0  0  2  0  0  0  0  0  0
  180.4300  175.9180  135.3040 C   0  0  0  0  0  1  0  0  0  0  0  0
  182.9340  174.5340  137.6330 C   0  0  0  0  0  2  0  0  0  0  0  0
  179.1990  178.3580  139.4120 C   0  0  0  0  0  2  0  0  0  0  0  0
  185.4470  174.7740  136.9010 C   0  0  2  0  0  3  0  0  0  0  0  0
  185.1340  173.2260  135.0040 C   0  0  0  0  0  3  0  0  0  0  0  0
  179.3960  179.4640  137.3200 O   0  0  0  0  0  0  0  0  0  0  0  0
  182.0970  177.6780  139.0450 C   0  0  2  0  0  3  0  0  0  0  0  0
  180.1370  178.0950  140.5830 C   0  0  0  0  0  2  0  0  0  0  0  0
  181.2870  178.2300  137.9490 N   0  0  0  0  0  0  0  0  0  0  0  0
  183.9560  177.1010  135.9170 C   0  0  0  0  0  2  0  0  0  0  0  0
  184.9080  178.2350  137.9180 C   0  0  0  0  0  2  0  0  0  0  0  0
  184.5750  176.8920  137.2940 C   0  0  2  0  0  3  0  0  0  0  0  0
  185.5580  174.4160  135.4480 C   0  0  0  0  0  3  0  0  0  0  0  0
  184.5050  172.5160  137.3880 C   0  0  0  0  0  2  0  0  0  0  0  0
  181.2530  177.1260  140.1960 C   0  0  1  0  0  3  0  0  0  0  0  0
  180.7010  175.7510  139.8560 C   0  0  0  0  0  1  0  0  0  0  0  0
  184.3830  174.0080  137.7060 C   0  0  2  0  0  3  0  0  0  0  0  0
  181.5540  173.5130  136.0870 C   0  0  0  0  0  2  0  0  0  0  0  0
  180.8220  171.7210  137.4690 O   0  0  0  0  0  0  0  0  0  0  0  0
  179.6400  172.4020  137.1380 C   0  0  0  0  0  2  0  0  0  0  0  0
  180.9020  173.1240  137.4020 C   0  0  2  0  0  3  0  0  0  0  0  0
  1 18  1  0  0  0  0
  2 12  1  0  0  0  0
  4 19  1  1  0  0  0
  4  5  1  0  0  0  0
  4  1  1  0  0  0  0
  5 10  1  6  0  0  0
  6 23  1  0  0  0  0
  7  5  1  0  0  0  0
  7 11  1  0  0  0  0
  8 21  1  0  0  0  0
  9  3  1  0  0  0  0
 11 26  1  0  0  0  0
 12 17  1  0  0  0  0
 13 22  1  6  0  0  0
 13  8  1  0  0  0  0
 13 26  1  0  0  0  0
 14 22  2  0  0  0  0
 14  6  1  0  0  0  0
 15  2  2  0  0  0  0
 16  3  1  1  0  0  0
 16 24  1  0  0  0  0
 18  2  1  0  0  0  0
 18 16  1  0  0  0  0
 20  9  1  0  0  0  0
 21 19  1  6  0  0  0
 21 20  1  0  0  0  0
 24 25  1  6  0  0  0
 24 17  1  0  0  0  0
 26 23  1  6  0  0  0
 27  7  1  0  0  0  0
 29 30  1  0  0  0  0
 29 28  1  0  0  0  0
 30 27  1  6  0  0  0
 30 28  1  0  0  0  0
M  END
>  <MODEL>
1

>  <REMARK>
 VINA RESULT:      -4.6      0.000      0.000
  Name = 
  2 active torsions:
  status: ('A' for Active; 'I' for Inactive)
    1  A    between atoms: C_6  and  N_8
    2  A    between atoms: C_6  and  C_21
                            x       y       z     vdW  Elec       q    Type
                         _______ _______ _______ _____ _____    ______ ____

>  <TORSDO>
F 2

$$$$
=
 OpenBabel10262422003D

 30 34  0  0  1  0  0  0  0  0999 V2000
  181.2400  177.6380  140.6620 C   0  0  0  0  0  2  0  0  0  0  0  0
  180.4060  179.9900  140.5460 C   0  0  0  0  0  0  0  0  0  0  0  0
  178.9330  177.6740  138.5270 C   0  0  0  0  0  2  0  0  0  0  0  0
  182.5210  177.0520  140.0510 C   0  0  2  0  0  3  0  0  0  0  0  0
  183.4040  178.0650  139.2920 C   0  0  2  0  0  3  0  0  0  0  0  0
  185.8470  175.7520  136.0450 C   0  0  0  0  0  2  0  0  0  0  0  0
  184.1670  177.4650  138.1710 N   0  0  0  0  0  0  0  0  0  0  0  0
  181.8720  174.6180  137.3380 O   0  0  0  0  0  0  0  0  0  0  0  0
  179.1260  176.3490  137.8040 C   0  0  0  0  0  2  0  0  0  0  0  0
  184.2720  178.7650  140.3410 C   0  0  0  0  0  1  0  0  0  0  0  0
  183.2850  177.5350  137.0060 C   0  0  0  0  0  2  0  0  0  0  0  0
  180.0230  181.2070  139.7650 C   0  0  0  0  0  2  0  0  0  0  0  0
  183.1190  174.9250  136.7420 C   0  0  2  0  0  3  0  0  0  0  0  0
  185.5540  174.6510  137.0400 C   0  0  0  0  0  3  0  0  0  0  0  0
  180.5510  180.0910  141.7930 O   0  0  0  0  0  0  0  0  0  0  0  0
  180.2180  178.4910  138.5080 C   0  0  2  0  0  3  0  0  0  0  0  0
  179.2720  180.8340  138.4940 C   0  0  0  0  0  2  0  0  0  0  0  0
  180.6860  178.7450  139.8790 N   0  0  0  0  0  0  0  0  0  0  0  0
  182.3440  175.6440  139.4790 C   0  0  0  0  0  2  0  0  0  0  0  0
  180.0230  175.4200  138.6050 C   0  0  0  0  0  2  0  0  0  0  0  0
  181.4770  175.6340  138.2250 C   0  0  2  0  0  3  0  0  0  0  0  0
  184.3140  174.3000  137.4020 C   0  0  0  0  0  3  0  0  0  0  0  0
  184.6270  176.2310  135.2450 C   0  0  0  0  0  2  0  0  0  0  0  0
  180.0250  179.7720  137.6930 C   0  0  1  0  0  3  0  0  0  0  0  0
  181.3560  180.3020  137.1850 C   0  0  0  0  0  1  0  0  0  0  0  0
  183.3510  176.2980  136.0860 C   0  0  2  0  0  3  0  0  0  0  0  0
  185.3060  178.3140  137.8130 C   0  0  0  0  0  2  0  0  0  0  0  0
  187.3600  178.7100  138.9450 O   0  0  0  0  0  0  0  0  0  0  0  0
  187.7490  178.3370  137.6480 C   0  0  0  0  0  2  0  0  0  0  0  0
  186.5980  177.7030  138.3230 C   0  0  2  0  0  3  0  0  0  0  0  0
  2 15  2  0  0  0  0
  4 19  1  6  0  0  0
  4  1  1  0  0  0  0
  5  4  1  0  0  0  0
  5 10  1  1  0  0  0
  6 14  1  0  0  0  0
  7  5  1  0  0  0  0
  8 21  1  0  0  0  0
  9  3  1  0  0  0  0
  9 20  1  0  0  0  0
 11  7  1  0  0  0  0
 12  2  1  0  0  0  0
 13  8  1  0  0  0  0
 13 22  1  1  0  0  0
 14 22  2  0  0  0  0
 16  3  1  1  0  0  0
 16 18  1  0  0  0  0
 17 12  1  0  0  0  0
 18  2  1  0  0  0  0
 18  1  1  0  0  0  0
 21 20  1  1  0  0  0
 21 19  1  0  0  0  0
 23  6  1  0  0  0  0
 24 25  1  1  0  0  0
 24 17  1  0  0  0  0
 24 16  1  0  0  0  0
 26 23  1  1  0  0  0
 26 13  1  0  0  0  0
 26 11  1  0  0  0  0
 27  7  1  0  0  0  0
 29 30  1  0  0  0  0
 29 28  1  0  0  0  0
 30 27  1  6  0  0  0
 30 28  1  0  0  0  0
M  END
>  <MODEL>
2

>  <REMARK>
 VINA RESULT:      -4.3      2.113      4.856
  Name = 
  2 active torsions:
  status: ('A' for Active; 'I' for Inactive)
    1  A    between atoms: C_6  and  N_8
    2  A    between atoms: C_6  and  C_21
                            x       y       z     vdW  Elec       q    Type
                         _______ _______ _______ _____ _____    ______ ____

>  <TORSDO>
F 2

$$$$
=
 OpenBabel10262422003D

 30 34  0  0  1  0  0  0  0  0999 V2000
  181.1570  176.8790  138.4130 C   0  0  0  0  0  2  0  0  0  0  0  0
  180.7130  179.0860  137.3320 C   0  0  0  0  0  0  0  0  0  0  0  0
  179.7160  176.2750  135.6860 C   0  0  0  0  0  2  0  0  0  0  0  0
  182.4820  176.1090  138.4970 C   0  0  2  0  0  3  0  0  0  0  0  0
  183.6880  176.8170  137.8430 C   0  0  2  0  0  3  0  0  0  0  0  0
  186.7600  173.5580  136.4980 C   0  0  0  0  0  2  0  0  0  0  0  0
  184.6990  175.8810  137.2920 N   0  0  0  0  0  0  0  0  0  0  0  0
  182.4710  172.9540  136.5610 O   0  0  0  0  0  0  0  0  0  0  0  0
  179.9690  174.7860  135.4960 C   0  0  0  0  0  2  0  0  0  0  0  0
  184.2390  177.7990  138.8810 C   0  0  0  0  0  1  0  0  0  0  0  0
  184.2720  175.5930  135.9230 C   0  0  0  0  0  2  0  0  0  0  0  0
  180.7700  180.0000  136.1490 C   0  0  0  0  0  2  0  0  0  0  0  0
  183.8740  173.0370  136.3860 C   0  0  2  0  0  3  0  0  0  0  0  0
  186.0160  172.8320  137.5960 C   0  0  0  0  0  3  0  0  0  0  0  0
  180.4460  179.5740  138.4620 O   0  0  0  0  0  0  0  0  0  0  0  0
  181.0270  177.0240  135.8890 C   0  0  2  0  0  3  0  0  0  0  0  0
  180.4430  179.2570  134.8610 C   0  0  0  0  0  2  0  0  0  0  0  0
  181.0390  177.6900  137.2000 N   0  0  0  0  0  0  0  0  0  0  0  0
  182.3290  174.5960  138.3330 C   0  0  0  0  0  2  0  0  0  0  0  0
  180.4230  174.1440  136.7970 C   0  0  0  0  0  2  0  0  0  0  0  0
  181.9360  174.2040  136.9140 C   0  0  2  0  0  3  0  0  0  0  0  0
  184.6910  172.6340  137.5790 C   0  0  0  0  0  3  0  0  0  0  0  0
  185.9470  173.7790  135.2130 C   0  0  0  0  0  2  0  0  0  0  0  0
  181.2790  177.9850  134.7240 C   0  0  1  0  0  3  0  0  0  0  0  0
  182.7590  178.3060  134.5940 C   0  0  0  0  0  1  0  0  0  0  0  0
  184.4830  174.1280  135.4880 C   0  0  2  0  0  3  0  0  0  0  0  0
  185.9890  176.5550  137.1340 C   0  0  0  0  0  2  0  0  0  0  0  0
  187.2750  177.0020  135.1830 O   0  0  0  0  0  0  0  0  0  0  0  0
  187.1570  178.2540  135.8100 C   0  0  0  0  0  2  0  0  0  0  0  0
  186.0430  177.2830  135.8020 C   0  0  2  0  0  3  0  0  0  0  0  0
  1  4  1  0  0  0  0
  2 15  2  0  0  0  0
  4 19  1  6  0  0  0
  5  4  1  0  0  0  0
  5 10  1  1  0  0  0
  6 14  1  0  0  0  0
  7  5  1  0  0  0  0
  8 21  1  0  0  0  0
  9  3  1  0  0  0  0
  9 20  1  0  0  0  0
 11  7  1  0  0  0  0
 12  2  1  0  0  0  0
 13  8  1  0  0  0  0
 13 22  1  1  0  0  0
 16  3  1  6  0  0  0
 16 18  1  0  0  0  0
 17 12  1  0  0  0  0
 18  2  1  0  0  0  0
 18  1  1  0  0  0  0
 21 20  1  1  0  0  0
 21 19  1  0  0  0  0
 22 14  2  0  0  0  0
 23  6  1  0  0  0  0
 24 25  1  1  0  0  0
 24 17  1  0  0  0  0
 24 16  1  0  0  0  0
 26 23  1  1  0  0  0
 26 11  1  0  0  0  0
 26 13  1  0  0  0  0
 27  7  1  0  0  0  0
 28 30  1  0  0  0  0
 28 29  1  0  0  0  0
 30 29  1  0  0  0  0
 30 27  1  1  0  0  0
M  END
>  <MODEL>
3

>  <REMARK>
 VINA RESULT:      -3.6      1.662      4.676
  Name = 
  2 active torsions:
  status: ('A' for Active; 'I' for Inactive)
    1  A    between atoms: C_6  and  N_8
    2  A    between atoms: C_6  and  C_21
                            x       y       z     vdW  Elec       q    Type
                         _______ _______ _______ _____ _____    ______ ____

>  <TORSDO>
F 2

$$$$
=
 OpenBabel10262422003D

 30 34  0  0  1  0  0  0  0  0999 V2000
  182.6950  176.1440  135.0090 C   0  0  0  0  0  2  0  0  0  0  0  0
  183.1770  173.9320  136.0650 C   0  0  0  0  0  0  0  0  0  0  0  0
  179.9220  174.7310  135.4530 C   0  0  0  0  0  2  0  0  0  0  0  0
  182.6960  177.5310  135.6650 C   0  0  2  0  0  3  0  0  0  0  0  0
  183.0670  177.5430  137.1640 C   0  0  2  0  0  3  0  0  0  0  0  0
  181.0520  181.2650  139.1530 C   0  0  0  0  0  2  0  0  0  0  0  0
  182.4130  178.6340  137.9290 N   0  0  0  0  0  0  0  0  0  0  0  0
  179.3360  179.0790  135.8310 O   0  0  0  0  0  0  0  0  0  0  0  0
  178.9320  175.8730  135.2730 C   0  0  0  0  0  2  0  0  0  0  0  0
  184.5960  177.5510  137.2390 C   0  0  0  0  0  1  0  0  0  0  0  0
  181.1260  178.0960  138.3690 C   0  0  0  0  0  2  0  0  0  0  0  0
  182.9340  172.9060  137.1270 C   0  0  0  0  0  2  0  0  0  0  0  0
  179.7170  179.8210  136.9750 C   0  0  2  0  0  3  0  0  0  0  0  0
  181.1330  181.7050  137.7090 C   0  0  0  0  0  3  0  0  0  0  0  0
  184.1970  173.8190  135.3350 O   0  0  0  0  0  0  0  0  0  0  0  0
  180.9590  175.0780  136.5130 C   0  0  2  0  0  3  0  0  0  0  0  0
  181.4500  172.7810  137.4440 C   0  0  0  0  0  2  0  0  0  0  0  0
  182.3090  175.0730  135.9320 N   0  0  0  0  0  0  0  0  0  0  0  0
  181.5780  178.4510  135.1680 C   0  0  0  0  0  2  0  0  0  0  0  0
  179.5940  177.0610  134.5940 C   0  0  0  0  0  2  0  0  0  0  0  0
  180.2010  177.9890  135.6310 C   0  0  2  0  0  3  0  0  0  0  0  0
  180.5690  181.0250  136.7020 C   0  0  0  0  0  3  0  0  0  0  0  0
  180.0210  180.1590  139.4280 C   0  0  0  0  0  2  0  0  0  0  0  0
  180.8220  174.1460  137.7200 C   0  0  1  0  0  3  0  0  0  0  0  0
  181.4070  174.7830  138.9700 C   0  0  0  0  0  1  0  0  0  0  0  0
  179.9640  179.1090  138.3170 C   0  0  2  0  0  3  0  0  0  0  0  0
  183.1410  178.8940  139.1720 C   0  0  0  0  0  2  0  0  0  0  0  0
  182.5680  178.5730  141.4580 O   0  0  0  0  0  0  0  0  0  0  0  0
  183.7640  177.8530  141.3000 C   0  0  0  0  0  2  0  0  0  0  0  0
  182.7370  177.8920  140.2390 C   0  0  2  0  0  3  0  0  0  0  0  0
  1 18  1  0  0  0  0
  2 12  1  0  0  0  0
  4  1  1  1  0  0  0
  4  5  1  0  0  0  0
  5 10  1  6  0  0  0
  5  7  1  0  0  0  0
  6 23  1  0  0  0  0
  7 11  1  0  0  0  0
  7 27  1  0  0  0  0
  8 13  1  0  0  0  0
  9  3  1  0  0  0  0
 12 17  1  0  0  0  0
 13 22  1  6  0  0  0
 13 26  1  0  0  0  0
 14  6  1  0  0  0  0
 15  2  2  0  0  0  0
 16  3  1  6  0  0  0
 16 24  1  0  0  0  0
 17 24  1  0  0  0  0
 18  2  1  0  0  0  0
 18 16  1  0  0  0  0
 19 21  1  0  0  0  0
 19  4  1  0  0  0  0
 20  9  1  0  0  0  0
 21 20  1  6  0  0  0
 21  8  1  0  0  0  0
 22 14  2  0  0  0  0
 24 25  1  1  0  0  0
 26 11  1  6  0  0  0
 26 23  1  0  0  0  0
 29 28  1  0  0  0  0
 30 27  1  6  0  0  0
 30 29  1  0  0  0  0
 30 28  1  0  0  0  0
M  END
>  <MODEL>
4

>  <REMARK>
 VINA RESULT:      -3.5      1.931      6.290
  Name = 
  2 active torsions:
  status: ('A' for Active; 'I' for Inactive)
    1  A    between atoms: C_6  and  N_8
    2  A    between atoms: C_6  and  C_21
                            x       y       z     vdW  Elec       q    Type
                         _______ _______ _______ _____ _____    ______ ____

>  <TORSDO>
F 2

$$$$
=
 OpenBabel10262422003D

 30 34  0  0  1  0  0  0  0  0999 V2000
  184.0570  179.3720  137.7870 C   0  0  0  0  0  2  0  0  0  0  0  0
  185.3550  177.3000  137.2760 C   0  0  0  0  0  0  0  0  0  0  0  0
  182.1950  177.5490  136.0280 C   0  0  0  0  0  2  0  0  0  0  0  0
  183.3480  179.7530  139.0940 C   0  0  2  0  0  3  0  0  0  0  0  0
  183.4860  178.7210  140.2340 C   0  0  2  0  0  3  0  0  0  0  0  0
  179.7750  179.1300  143.0500 C   0  0  0  0  0  2  0  0  0  0  0  0
  182.3200  178.6910  141.1510 N   0  0  0  0  0  0  0  0  0  0  0  0
  179.6600  179.8680  138.7840 O   0  0  0  0  0  0  0  0  0  0  0  0
  180.8250  178.1850  136.2220 C   0  0  0  0  0  2  0  0  0  0  0  0
  184.8230  179.0030  140.9240 C   0  0  0  0  0  1  0  0  0  0  0  0
  181.3740  177.7430  140.5630 C   0  0  0  0  0  2  0  0  0  0  0  0
  185.4750  175.8100  137.2190 C   0  0  0  0  0  2  0  0  0  0  0  0
  179.5190  179.5610  140.1590 C   0  0  2  0  0  3  0  0  0  0  0  0
  179.8250  180.5030  142.4190 C   0  0  0  0  0  3  0  0  0  0  0  0
  186.3970  177.9970  137.1530 O   0  0  0  0  0  0  0  0  0  0  0  0
  182.8220  177.2010  137.3710 C   0  0  2  0  0  3  0  0  0  0  0  0
  184.1820  175.1710  136.7290 C   0  0  0  0  0  2  0  0  0  0  0  0
  184.0880  177.9270  137.5500 N   0  0  0  0  0  0  0  0  0  0  0  0
  182.0050  180.4580  138.8860 C   0  0  0  0  0  2  0  0  0  0  0  0
  180.9540  179.5820  136.8060 C   0  0  0  0  0  2  0  0  0  0  0  0
  180.9420  179.5210  138.3230 C   0  0  2  0  0  3  0  0  0  0  0  0
  179.7590  180.7070  141.0970 C   0  0  0  0  0  3  0  0  0  0  0  0
  179.3320  178.0060  142.1010 C   0  0  0  0  0  2  0  0  0  0  0  0
  182.9750  175.6840  137.5120 C   0  0  1  0  0  3  0  0  0  0  0  0
  183.0490  175.2770  138.9740 C   0  0  0  0  0  1  0  0  0  0  0  0
  179.8950  178.1650  140.6870 C   0  0  2  0  0  3  0  0  0  0  0  0
  182.6910  178.0830  142.4310 C   0  0  0  0  0  2  0  0  0  0  0  0
  184.2760  178.6250  144.1190 O   0  0  0  0  0  0  0  0  0  0  0  0
  183.0400  178.6670  144.7840 C   0  0  0  0  0  2  0  0  0  0  0  0
  183.1890  179.1460  143.3940 C   0  0  2  0  0  3  0  0  0  0  0  0
  2 18  1  0  0  0  0
  3  9  1  0  0  0  0
  4  1  1  6  0  0  0
  4  5  1  0  0  0  0
  5 10  1  1  0  0  0
  5  7  1  0  0  0  0
  7 27  1  0  0  0  0
  8 13  1  0  0  0  0
  9 20  1  0  0  0  0
 11  7  1  0  0  0  0
 12  2  1  0  0  0  0
 13 26  1  0  0  0  0
 13 22  1  1  0  0  0
 14  6  1  0  0  0  0
 15  2  2  0  0  0  0
 16  3  1  6  0  0  0
 16 24  1  0  0  0  0
 16 18  1  0  0  0  0
 17 12  1  0  0  0  0
 17 24  1  0  0  0  0
 18  1  1  0  0  0  0
 19  4  1  0  0  0  0
 21 20  1  6  0  0  0
 21  8  1  0  0  0  0
 21 19  1  0  0  0  0
 22 14  2  0  0  0  0
 23  6  1  0  0  0  0
 24 25  1  1  0  0  0
 26 11  1  1  0  0  0
 26 23  1  0  0  0  0
 28 29  1  0  0  0  0
 30 27  1  6  0  0  0
 30 28  1  0  0  0  0
 30 29  1  0  0  0  0
M  END
>  <MODEL>
5

>  <REMARK>
 VINA RESULT:      -3.4      2.615      6.931
  Name = 
  2 active torsions:
  status: ('A' for Active; 'I' for Inactive)
    1  A    between atoms: C_6  and  N_8
    2  A    between atoms: C_6  and  C_21
                            x       y       z     vdW  Elec       q    Type
                         _______ _______ _______ _____ _____    ______ ____

>  <TORSDO>
F 2

$$$$
=
 OpenBabel10262422003D

 30 34  0  0  1  0  0  0  0  0999 V2000
  184.1740  176.5700  135.1190 C   0  0  0  0  0  2  0  0  0  0  0  0
  186.1240  175.0250  135.3460 C   0  0  0  0  0  0  0  0  0  0  0  0
  183.0930  173.6650  134.5940 C   0  0  0  0  0  2  0  0  0  0  0  0
  183.3610  177.2460  136.2310 C   0  0  2  0  0  3  0  0  0  0  0  0
  183.8400  176.9400  137.6670 C   0  0  2  0  0  3  0  0  0  0  0  0
  180.1910  177.3580  140.5610 C   0  0  0  0  0  2  0  0  0  0  0  0
  182.7500  176.9530  138.6730 N   0  0  0  0  0  0  0  0  0  0  0  0
  179.8730  176.0260  136.4520 O   0  0  0  0  0  0  0  0  0  0  0  0
  181.5850  173.8450  134.7010 C   0  0  0  0  0  2  0  0  0  0  0  0
  184.9850  177.9120  137.9660 C   0  0  0  0  0  1  0  0  0  0  0  0
  182.2040  175.5960  138.6870 C   0  0  0  0  0  2  0  0  0  0  0  0
  186.7610  173.7940  135.9080 C   0  0  0  0  0  2  0  0  0  0  0  0
  179.8330  176.3400  137.8320 C   0  0  2  0  0  3  0  0  0  0  0  0
  179.7620  178.2380  139.4090 C   0  0  0  0  0  3  0  0  0  0  0  0
  186.8550  175.8850  134.7870 O   0  0  0  0  0  0  0  0  0  0  0  0
  183.7870  174.1760  135.8490 C   0  0  2  0  0  3  0  0  0  0  0  0
  185.7820  172.6280  135.9320 C   0  0  0  0  0  2  0  0  0  0  0  0
  184.7150  175.2670  135.5150 N   0  0  0  0  0  0  0  0  0  0  0  0
  181.8590  177.3130  135.9460 C   0  0  0  0  0  2  0  0  0  0  0  0
  181.2070  175.3150  134.6130 C   0  0  0  0  0  2  0  0  0  0  0  0
  181.2000  175.9400  135.9970 C   0  0  2  0  0  3  0  0  0  0  0  0
  179.6440  177.7940  138.1510 C   0  0  0  0  0  3  0  0  0  0  0  0
  180.1840  175.8530  140.2530 C   0  0  0  0  0  2  0  0  0  0  0  0
  184.4620  173.0220  136.5940 C   0  0  1  0  0  3  0  0  0  0  0  0
  184.6590  173.3610  138.0630 C   0  0  0  0  0  1  0  0  0  0  0  0
  180.6700  175.5320  138.8390 C   0  0  2  0  0  3  0  0  0  0  0  0
  183.2960  177.1380  140.0180 C   0  0  0  0  0  2  0  0  0  0  0  0
  184.3560  179.0660  140.9230 O   0  0  0  0  0  0  0  0  0  0  0  0
  183.4270  178.6920  141.9070 C   0  0  0  0  0  2  0  0  0  0  0  0
  183.1170  178.5770  140.4660 C   0  0  2  0  0  3  0  0  0  0  0  0
  1 18  1  0  0  0  0
  2 18  1  0  0  0  0
  2 12  1  0  0  0  0
  3  9  1  0  0  0  0
  4  1  1  6  0  0  0
  4  5  1  0  0  0  0
  5 10  1  1  0  0  0
  5  7  1  0  0  0  0
  7 11  1  0  0  0  0
  7 27  1  0  0  0  0
  8 13  1  0  0  0  0
 12 17  1  0  0  0  0
 13 22  1  6  0  0  0
 13 26  1  0  0  0  0
 14  6  1  0  0  0  0
 15  2  2  0  0  0  0
 16  3  1  6  0  0  0
 16 24  1  0  0  0  0
 17 24  1  0  0  0  0
 18 16  1  0  0  0  0
 19 21  1  0  0  0  0
 19  4  1  0  0  0  0
 20  9  1  0  0  0  0
 21 20  1  6  0  0  0
 21  8  1  0  0  0  0
 22 14  2  0  0  0  0
 23  6  1  0  0  0  0
 24 25  1  1  0  0  0
 26 11  1  1  0  0  0
 26 23  1  0  0  0  0
 28 29  1  0  0  0  0
 30 27  1  6  0  0  0
 30 28  1  0  0  0  0
 30 29  1  0  0  0  0
M  END
>  <MODEL>
6

>  <REMARK>
 VINA RESULT:      -3.4      1.805      6.302
  Name = 
  2 active torsions:
  status: ('A' for Active; 'I' for Inactive)
    1  A    between atoms: C_6  and  N_8
    2  A    between atoms: C_6  and  C_21
                            x       y       z     vdW  Elec       q    Type
                         _______ _______ _______ _____ _____    ______ ____

>  <TORSDO>
F 2

$$$$
=
 OpenBabel10262422003D

 30 34  0  0  1  0  0  0  0  0999 V2000
  182.6740  177.4950  140.1890 C   0  0  0  0  0  2  0  0  0  0  0  0
  183.1690  179.7680  139.2810 C   0  0  0  0  0  0  0  0  0  0  0  0
  179.9810  179.1140  140.2870 C   0  0  0  0  0  2  0  0  0  0  0  0
  182.4780  176.1830  139.4160 C   0  0  2  0  0  3  0  0  0  0  0  0
  182.6340  176.3000  137.8850 C   0  0  2  0  0  3  0  0  0  0  0  0
  180.0860  172.9300  135.8810 C   0  0  0  0  0  2  0  0  0  0  0  0
  181.7990  175.3350  137.1270 N   0  0  0  0  0  0  0  0  0  0  0  0
  179.0210  174.8710  139.6040 O   0  0  0  0  0  0  0  0  0  0  0  0
  178.9420  178.0230  140.5050 C   0  0  0  0  0  2  0  0  0  0  0  0
  184.1330  176.2060  137.5860 C   0  0  0  0  0  1  0  0  0  0  0  0
  180.5080  175.9940  136.9310 C   0  0  0  0  0  2  0  0  0  0  0  0
  182.8590  180.9090  138.3640 C   0  0  0  0  0  2  0  0  0  0  0  0
  179.1810  174.2260  138.3530 C   0  0  2  0  0  3  0  0  0  0  0  0
  180.3340  172.3430  137.2510 C   0  0  0  0  0  3  0  0  0  0  0  0
  184.2870  179.7440  139.8600 O   0  0  0  0  0  0  0  0  0  0  0  0
  180.8300  178.8130  139.0590 C   0  0  2  0  0  3  0  0  0  0  0  0
  181.3580  181.1570  138.2810 C   0  0  0  0  0  2  0  0  0  0  0  0
  182.2450  178.6750  139.4350 N   0  0  0  0  0  0  0  0  0  0  0  0
  181.3740  175.2890  139.9860 C   0  0  0  0  0  2  0  0  0  0  0  0
  179.6010  176.7330  140.9690 C   0  0  0  0  0  2  0  0  0  0  0  0
  179.9850  175.8790  139.7730 C   0  0  2  0  0  3  0  0  0  0  0  0
  179.9690  172.9500  138.3880 C   0  0  0  0  0  3  0  0  0  0  0  0
  179.1130  174.1200  135.8620 C   0  0  0  0  0  2  0  0  0  0  0  0
  180.5960  179.8680  137.9760 C   0  0  1  0  0  3  0  0  0  0  0  0
  180.9520  179.3260  136.6010 C   0  0  0  0  0  1  0  0  0  0  0  0
  179.2910  175.0540  137.0600 C   0  0  2  0  0  3  0  0  0  0  0  0
  182.3240  175.1580  135.7720 C   0  0  0  0  0  2  0  0  0  0  0  0
  184.2130  174.3040  134.6070 O   0  0  0  0  0  0  0  0  0  0  0  0
  183.2970  173.2390  134.6010 C   0  0  0  0  0  2  0  0  0  0  0  0
  183.4420  174.1310  135.7710 C   0  0  2  0  0  3  0  0  0  0  0  0
  2 18  1  0  0  0  0
  2 15  2  0  0  0  0
  3  9  1  0  0  0  0
  4 19  1  6  0  0  0
  4  1  1  0  0  0  0
  5 10  1  1  0  0  0
  5  4  1  0  0  0  0
  6 14  1  0  0  0  0
  7  5  1  0  0  0  0
  8 21  1  0  0  0  0
  9 20  1  0  0  0  0
 11 26  1  0  0  0  0
 11  7  1  0  0  0  0
 12  2  1  0  0  0  0
 13 22  1  1  0  0  0
 13  8  1  0  0  0  0
 14 22  2  0  0  0  0
 16 18  1  0  0  0  0
 16  3  1  1  0  0  0
 17 12  1  0  0  0  0
 18  1  1  0  0  0  0
 21 19  1  1  0  0  0
 21 20  1  0  0  0  0
 23  6  1  0  0  0  0
 24 25  1  6  0  0  0
 24 17  1  0  0  0  0
 24 16  1  0  0  0  0
 26 23  1  6  0  0  0
 26 13  1  0  0  0  0
 27  7  1  0  0  0  0
 28 30  1  0  0  0  0
 29 28  1  0  0  0  0
 29 30  1  0  0  0  0
 30 27  1  6  0  0  0
M  END
>  <MODEL>
7

>  <REMARK>
 VINA RESULT:      -3.4      2.074      4.567
  Name = 
  2 active torsions:
  status: ('A' for Active; 'I' for Inactive)
    1  A    between atoms: C_6  and  N_8
    2  A    between atoms: C_6  and  C_21
                            x       y       z     vdW  Elec       q    Type
                         _______ _______ _______ _____ _____    ______ ____

>  <TORSDO>
F 2

$$$$
=
 OpenBabel10262422003D

 30 34  0  0  1  0  0  0  0  0999 V2000
  183.2930  177.5270  135.5010 C   0  0  0  0  0  2  0  0  0  0  0  0
  181.4160  177.8580  137.1160 C   0  0  0  0  0  0  0  0  0  0  0  0
  184.5780  178.5390  138.1860 C   0  0  0  0  0  2  0  0  0  0  0  0
  183.9490  176.2110  135.0610 C   0  0  2  0  0  3  0  0  0  0  0  0
  183.3420  174.9390  135.6900 C   0  0  2  0  0  3  0  0  0  0  0  0
  186.6450  171.6300  135.8080 C   0  0  0  0  0  2  0  0  0  0  0  0
  184.3200  173.8370  135.8650 N   0  0  0  0  0  0  0  0  0  0  0  0
  187.4570  175.8670  136.1950 O   0  0  0  0  0  0  0  0  0  0  0  0
  186.0540  178.2280  137.9880 C   0  0  0  0  0  2  0  0  0  0  0  0
  182.1220  174.5680  134.8430 C   0  0  0  0  0  1  0  0  0  0  0  0
  184.9340  174.0530  137.1750 C   0  0  0  0  0  2  0  0  0  0  0  0
  180.7920  177.6500  138.4590 C   0  0  0  0  0  2  0  0  0  0  0  0
  187.3370  174.4570  136.1900 C   0  0  2  0  0  3  0  0  0  0  0  0
  187.1430  172.5110  134.6840 C   0  0  0  0  0  3  0  0  0  0  0  0
  180.7010  178.2980  136.1770 O   0  0  0  0  0  0  0  0  0  0  0  0
  183.7310  177.2900  137.9840 C   0  0  2  0  0  3  0  0  0  0  0  0
  181.8250  177.7670  139.5720 C   0  0  0  0  0  2  0  0  0  0  0  0
  182.7860  177.4840  136.8750 N   0  0  0  0  0  0  0  0  0  0  0  0
  185.4670  176.3040  134.8880 C   0  0  0  0  0  2  0  0  0  0  0  0
  186.3590  177.9540  136.5250 C   0  0  0  0  0  2  0  0  0  0  0  0
  186.1900  176.4770  136.2190 C   0  0  2  0  0  3  0  0  0  0  0  0
  187.4140  173.8130  134.8360 C   0  0  0  0  0  3  0  0  0  0  0  0
  186.7650  172.2520  137.2080 C   0  0  0  0  0  2  0  0  0  0  0  0
  183.0460  176.8920  139.2940 C   0  0  1  0  0  3  0  0  0  0  0  0
  182.6810  175.4160  139.2920 C   0  0  0  0  0  1  0  0  0  0  0  0
  186.4450  173.7480  137.2250 C   0  0  2  0  0  3  0  0  0  0  0  0
  183.6290  172.5530  135.9970 C   0  0  0  0  0  2  0  0  0  0  0  0
  182.3050  171.1610  134.5950 O   0  0  0  0  0  0  0  0  0  0  0  0
  183.4670  170.4080  134.8260 C   0  0  0  0  0  2  0  0  0  0  0  0
  183.5180  171.8730  134.6440 C   0  0  2  0  0  3  0  0  0  0  0  0
  1 18  1  0  0  0  0
  2 12  1  0  0  0  0
  4 19  1  1  0  0  0
  4  1  1  0  0  0  0
  4  5  1  0  0  0  0
  5 10  1  6  0  0  0
  5  7  1  0  0  0  0
  6 23  1  0  0  0  0
  7 27  1  0  0  0  0
  7 11  1  0  0  0  0
  8 21  1  0  0  0  0
  9  3  1  0  0  0  0
 12 17  1  0  0  0  0
 13 22  1  6  0  0  0
 13  8  1  0  0  0  0
 13 26  1  0  0  0  0
 14 22  2  0  0  0  0
 14  6  1  0  0  0  0
 15  2  2  0  0  0  0
 16  3  1  1  0  0  0
 16 24  1  0  0  0  0
 18  2  1  0  0  0  0
 18 16  1  0  0  0  0
 20  9  1  0  0  0  0
 21 19  1  6  0  0  0
 21 20  1  0  0  0  0
 23 26  1  0  0  0  0
 24 25  1  6  0  0  0
 24 17  1  0  0  0  0
 26 11  1  6  0  0  0
 28 30  1  0  0  0  0
 28 29  1  0  0  0  0
 30 29  1  0  0  0  0
 30 27  1  1  0  0  0
M  END
>  <MODEL>
8

>  <REMARK>
 VINA RESULT:      -3.2      1.873      2.364
  Name = 
  2 active torsions:
  status: ('A' for Active; 'I' for Inactive)
    1  A    between atoms: C_6  and  N_8
    2  A    between atoms: C_6  and  C_21
                            x       y       z     vdW  Elec       q    Type
                         _______ _______ _______ _____ _____    ______ ____

>  <TORSDO>
F 2

$$$$
=
 OpenBabel10262422003D

 30 34  0  0  1  0  0  0  0  0999 V2000
  179.7240  177.0350  138.9790 C   0  0  0  0  0  2  0  0  0  0  0  0
  179.9170  179.0880  140.3890 C   0  0  0  0  0  0  0  0  0  0  0  0
  178.9380  179.4660  137.1480 C   0  0  0  0  0  2  0  0  0  0  0  0
  180.8490  176.2200  138.3260 C   0  0  2  0  0  3  0  0  0  0  0  0
  182.2760  176.7370  138.6080 C   0  0  2  0  0  3  0  0  0  0  0  0
  185.0370  175.4550  135.0580 C   0  0  0  0  0  2  0  0  0  0  0  0
  183.2330  176.4690  137.5060 N   0  0  0  0  0  0  0  0  0  0  0  0
  180.8300  176.3900  134.6280 O   0  0  0  0  0  0  0  0  0  0  0  0
  178.9940  178.8650  135.7510 C   0  0  0  0  0  2  0  0  0  0  0  0
  182.6950  176.1580  139.9610 C   0  0  0  0  0  1  0  0  0  0  0  0
  183.1230  177.6080  136.5960 C   0  0  0  0  0  2  0  0  0  0  0  0
  180.4110  180.4830  140.6110 C   0  0  0  0  0  2  0  0  0  0  0  0
  182.2270  176.1610  134.5940 C   0  0  2  0  0  3  0  0  0  0  0  0
  183.9370  174.4210  134.9700 C   0  0  0  0  0  3  0  0  0  0  0  0
  179.4550  178.4450  141.3680 O   0  0  0  0  0  0  0  0  0  0  0  0
  180.2560  179.2540  137.8800 C   0  0  2  0  0  3  0  0  0  0  0  0
  180.3060  181.3150  139.3400 C   0  0  0  0  0  2  0  0  0  0  0  0
  180.0430  178.4600  139.0990 N   0  0  0  0  0  0  0  0  0  0  0  0
  180.5060  175.7050  136.9260 C   0  0  0  0  0  2  0  0  0  0  0  0
  179.0010  177.3460  135.8150 C   0  0  0  0  0  2  0  0  0  0  0  0
  180.4260  176.8290  135.9000 C   0  0  2  0  0  3  0  0  0  0  0  0
  182.6450  174.7360  134.8080 C   0  0  0  0  0  3  0  0  0  0  0  0
  184.6170  176.8720  134.6400 C   0  0  0  0  0  2  0  0  0  0  0  0
  180.9400  180.5960  138.1500 C   0  0  1  0  0  3  0  0  0  0  0  0
  182.4360  180.4170  138.3430 C   0  0  0  0  0  1  0  0  0  0  0  0
  183.2040  177.2350  135.1010 C   0  0  2  0  0  3  0  0  0  0  0  0
  184.6110  176.5310  137.9980 C   0  0  0  0  0  2  0  0  0  0  0  0
  186.4270  177.9620  137.4420 O   0  0  0  0  0  0  0  0  0  0  0  0
  186.3030  178.0910  138.8350 C   0  0  0  0  0  2  0  0  0  0  0  0
  185.1190  177.9610  137.9600 C   0  0  2  0  0  3  0  0  0  0  0  0
  1 18  1  0  0  0  0
  2 12  1  0  0  0  0
  2 15  2  0  0  0  0
  4 19  1  6  0  0  0
  4  5  1  0  0  0  0
  4  1  1  0  0  0  0
  5 10  1  1  0  0  0
  7 27  1  0  0  0  0
  7  5  1  0  0  0  0
  8 21  1  0  0  0  0
  9 20  1  0  0  0  0
  9  3  1  0  0  0  0
 11  7  1  0  0  0  0
 13  8  1  0  0  0  0
 13 22  1  1  0  0  0
 13 26  1  0  0  0  0
 14  6  1  0  0  0  0
 16  3  1  1  0  0  0
 16 24  1  0  0  0  0
 16 18  1  0  0  0  0
 17 12  1  0  0  0  0
 18  2  1  0  0  0  0
 21 20  1  6  0  0  0
 21 19  1  0  0  0  0
 22 14  2  0  0  0  0
 23  6  1  0  0  0  0
 24 25  1  1  0  0  0
 24 17  1  0  0  0  0
 26 23  1  1  0  0  0
 26 11  1  0  0  0  0
 28 30  1  0  0  0  0
 28 29  1  0  0  0  0
 30 27  1  1  0  0  0
 30 29  1  0  0  0  0
M  END
>  <MODEL>
9

>  <REMARK>
 VINA RESULT:      -3.1      2.199      4.613
  Name = 
  2 active torsions:
  status: ('A' for Active; 'I' for Inactive)
    1  A    between atoms: C_6  and  N_8
    2  A    between atoms: C_6  and  C_21
                            x       y       z     vdW  Elec       q    Type
                         _______ _______ _______ _____ _____    ______ ____

>  <TORSDO>
F 2

$$$$
