=
 OpenBabel10262420523D

 28 31  0  0  1  0  0  0  0  0999 V2000
  190.1030  176.7820  143.6170 N   0  0  0  0  0  0  0  0  0  0  0  0
  190.0860  176.9020  142.1800 C   0  0  0  0  0  0  0  0  0  0  0  0
  185.1940  178.1220  142.6890 C   0  0  0  0  0  2  0  0  0  0  0  0
  188.3130  177.7560  148.0710 O   0  0  0  0  0  1  0  0  0  0  0  0
  190.8130  176.1470  141.4800 O   0  0  0  0  0  0  0  0  0  0  0  0
  184.3620  178.5910  145.0300 C   0  0  0  0  0  0  0  0  0  0  0  0
  186.6700  177.8690  144.7400 C   0  0  0  0  0  0  0  0  0  0  0  0
  183.0560  179.2370  143.0660 N   0  0  0  0  0  0  0  0  0  0  0  0
  185.4090  178.1670  144.1840 C   0  0  0  0  0  0  0  0  0  0  0  0
  185.8080  178.3750  146.9580 C   0  0  0  0  0  3  0  0  0  0  0  0
  182.9900  178.8510  144.4750 C   0  0  0  0  0  2  0  0  0  0  0  0
  189.1860  177.2820  145.8640 C   0  0  0  0  0  0  0  0  0  0  0  0
  187.7370  177.4700  143.9270 C   0  0  0  0  0  3  0  0  0  0  0  0
  184.5630  178.6760  146.4080 C   0  0  0  0  0  3  0  0  0  0  0  0
  191.6520  176.9680  145.4950 C   0  0  0  0  0  2  0  0  0  0  0  0
  188.1220  177.6720  146.6930 C   0  0  0  0  0  0  0  0  0  0  0  0
  190.4980  176.8810  146.4860 C   0  0  0  0  0  2  0  0  0  0  0  0
  181.6870  179.2990  142.5880 C   0  0  0  0  0  1  0  0  0  0  0  0
  183.7090  178.1580  142.3310 C   0  0  0  0  0  2  0  0  0  0  0  0
  186.8690  177.9750  146.1360 C   0  0  0  0  0  0  0  0  0  0  0  0
  191.2920  176.1970  144.2350 C   0  0  0  0  0  2  0  0  0  0  0  0
  188.9980  177.1810  144.4660 C   0  0  0  0  0  0  0  0  0  0  0  0
  189.2830  177.9630  141.4830 C   0  0  0  0  0  2  0  0  0  0  0  0
  187.3910  178.1230  139.8370 C   0  0  0  0  0  1  0  0  0  0  0  0
  188.7650  177.5210  140.1070 C   0  0  1  0  0  3  0  0  0  0  0  0
  189.7530  177.8180  138.9710 C   0  0  0  0  0  3  0  0  0  0  0  0
  190.1030  176.5480  138.2160 C   0  0  0  0  0  1  0  0  0  0  0  0
  189.1650  178.8090  137.9820 C   0  0  0  0  0  1  0  0  0  0  0  0
  1 21  1  0  0  0  0
  1 22  1  0  0  0  0
  2  1  1  0  0  0  0
  3  9  1  0  0  0  0
  5  2  2  0  0  0  0
  6 14  1  0  0  0  0
  7 20  1  0  0  0  0
  8 11  1  0  0  0  0
  9  7  1  0  0  0  0
  9  6  2  0  0  0  0
 11  6  1  0  0  0  0
 12 17  1  0  0  0  0
 12 16  1  0  0  0  0
 13 22  1  0  0  0  0
 13  7  2  0  0  0  0
 14 10  2  0  0  0  0
 15 17  1  0  0  0  0
 16  4  1  0  0  0  0
 18  8  1  0  0  0  0
 19  3  1  0  0  0  0
 19  8  1  0  0  0  0
 20 16  2  0  0  0  0
 20 10  1  0  0  0  0
 21 15  1  0  0  0  0
 22 12  2  0  0  0  0
 23  2  1  0  0  0  0
 25 24  1  6  0  0  0
 25 23  1  0  0  0  0
 26 25  1  0  0  0  0
 27 26  1  0  0  0  0
 28 26  1  0  0  0  0
M  END
>  <MODEL>
1

>  <REMARK>
 VINA RESULT:     -10.7      0.000      0.000
  Name = 
  3 active torsions:
  status: ('A' for Active; 'I' for Inactive)
    1  A    between atoms: C_2  and  C_3
    2  A    between atoms: C_3  and  C_11
    3  A    between atoms: C_6  and  C_11
                            x       y       z     vdW  Elec       q    Type
                         _______ _______ _______ _____ _____    ______ ____

>  <TORSDO>
F 3

$$$$
=
 OpenBabel10262420523D

 28 31  0  0  1  0  0  0  0  0999 V2000
  189.2730  177.0840  142.9870 N   0  0  0  0  0  0  0  0  0  0  0  0
  189.4080  177.1120  141.5520 C   0  0  0  0  0  0  0  0  0  0  0  0
  184.4540  178.1760  141.4580 C   0  0  0  0  0  2  0  0  0  0  0  0
  186.9850  178.2710  147.1510 O   0  0  0  0  0  1  0  0  0  0  0  0
  190.2280  176.3420  140.9840 O   0  0  0  0  0  0  0  0  0  0  0  0
  183.3610  178.7610  143.6620 C   0  0  0  0  0  0  0  0  0  0  0  0
  185.7080  178.1100  143.6660 C   0  0  0  0  0  0  0  0  0  0  0  0
  182.2550  179.2310  141.5320 N   0  0  0  0  0  0  0  0  0  0  0  0
  184.5060  178.3240  142.9620 C   0  0  0  0  0  0  0  0  0  0  0  0
  184.5970  178.7230  145.7420 C   0  0  0  0  0  3  0  0  0  0  0  0
  182.0490  178.9330  142.9490 C   0  0  0  0  0  2  0  0  0  0  0  0
  188.1050  177.6910  145.0860 C   0  0  0  0  0  0  0  0  0  0  0  0
  186.8680  177.7000  142.9990 C   0  0  0  0  0  3  0  0  0  0  0  0
  183.4090  178.9420  145.0450 C   0  0  0  0  0  3  0  0  0  0  0  0
  190.6050  177.4480  145.0010 C   0  0  0  0  0  2  0  0  0  0  0  0
  186.9470  178.0930  145.7700 C   0  0  0  0  0  0  0  0  0  0  0  0
  189.3530  177.3800  145.8680 C   0  0  0  0  0  2  0  0  0  0  0  0
  180.9440  179.2110  140.9090 C   0  0  0  0  0  1  0  0  0  0  0  0
  183.0160  178.1340  140.9440 C   0  0  0  0  0  2  0  0  0  0  0  0
  185.7520  178.3110  145.0650 C   0  0  0  0  0  0  0  0  0  0  0  0
  190.4070  176.5850  143.7650 C   0  0  0  0  0  2  0  0  0  0  0  0
  188.0720  177.4950  143.6860 C   0  0  0  0  0  0  0  0  0  0  0  0
  188.6520  178.0950  140.7030 C   0  0  0  0  0  2  0  0  0  0  0  0
  187.0840  177.9380  138.7460 C   0  0  0  0  0  1  0  0  0  0  0  0
  188.4930  177.6390  139.2470 C   0  0  1  0  0  3  0  0  0  0  0  0
  189.5660  178.2190  138.3170 C   0  0  0  0  0  3  0  0  0  0  0  0
  190.3850  177.1100  137.6790 C   0  0  0  0  0  1  0  0  0  0  0  0
  188.9370  179.0410  137.2040 C   0  0  0  0  0  1  0  0  0  0  0  0
  1 22  1  0  0  0  0
  1 21  1  0  0  0  0
  2  1  1  0  0  0  0
  3  9  1  0  0  0  0
  5  2  2  0  0  0  0
  6 14  1  0  0  0  0
  7 20  1  0  0  0  0
  8 11  1  0  0  0  0
  9  6  2  0  0  0  0
  9  7  1  0  0  0  0
 11  6  1  0  0  0  0
 12 16  1  0  0  0  0
 12 17  1  0  0  0  0
 13  7  2  0  0  0  0
 13 22  1  0  0  0  0
 14 10  2  0  0  0  0
 15 17  1  0  0  0  0
 16  4  1  0  0  0  0
 18  8  1  0  0  0  0
 19  3  1  0  0  0  0
 19  8  1  0  0  0  0
 20 10  1  0  0  0  0
 20 16  2  0  0  0  0
 21 15  1  0  0  0  0
 22 12  2  0  0  0  0
 23  2  1  0  0  0  0
 25 24  1  6  0  0  0
 25 23  1  0  0  0  0
 26 25  1  0  0  0  0
 27 26  1  0  0  0  0
 28 26  1  0  0  0  0
M  END
>  <MODEL>
2

>  <REMARK>
 VINA RESULT:     -10.7      1.045      1.380
  Name = 
  3 active torsions:
  status: ('A' for Active; 'I' for Inactive)
    1  A    between atoms: C_2  and  C_3
    2  A    between atoms: C_3  and  C_11
    3  A    between atoms: C_6  and  C_11
                            x       y       z     vdW  Elec       q    Type
                         _______ _______ _______ _____ _____    ______ ____

>  <TORSDO>
F 3

$$$$
=
 OpenBabel10262420523D

 28 31  0  0  1  0  0  0  0  0999 V2000
  187.1210  178.3210  146.2620 N   0  0  0  0  0  0  0  0  0  0  0  0
  185.8590  178.6280  145.6360 C   0  0  0  0  0  0  0  0  0  0  0  0
  188.3330  178.1980  141.2350 C   0  0  0  0  0  2  0  0  0  0  0  0
  191.6380  176.4290  146.2120 O   0  0  0  0  0  1  0  0  0  0  0  0
  185.0530  179.4130  146.2040 O   0  0  0  0  0  0  0  0  0  0  0  0
  190.6660  177.2250  141.3160 C   0  0  0  0  0  0  0  0  0  0  0  0
  189.4810  177.5800  143.4150 C   0  0  0  0  0  0  0  0  0  0  0  0
  189.4440  177.4180  139.2060 N   0  0  0  0  0  0  0  0  0  0  0  0
  189.5250  177.6840  142.0090 C   0  0  0  0  0  0  0  0  0  0  0  0
  191.7140  176.6130  143.4090 C   0  0  0  0  0  3  0  0  0  0  0  0
  190.7680  177.3840  139.8250 C   0  0  0  0  0  2  0  0  0  0  0  0
  189.4050  177.3610  146.2230 C   0  0  0  0  0  0  0  0  0  0  0  0
  188.3560  178.0020  144.1310 C   0  0  0  0  0  3  0  0  0  0  0  0
  191.7550  176.7090  142.0190 C   0  0  0  0  0  3  0  0  0  0  0  0
  188.0050  177.3270  148.3090 C   0  0  0  0  0  2  0  0  0  0  0  0
  190.5440  176.9410  145.5180 C   0  0  0  0  0  0  0  0  0  0  0  0
  189.4140  177.3250  147.7280 C   0  0  0  0  0  2  0  0  0  0  0  0
  189.6480  177.7400  137.8060 C   0  0  0  0  0  1  0  0  0  0  0  0
  188.7000  178.5300  139.7890 C   0  0  0  0  0  2  0  0  0  0  0  0
  190.5830  177.0400  144.1180 C   0  0  0  0  0  0  0  0  0  0  0  0
  187.2160  178.4820  147.7120 C   0  0  0  0  0  2  0  0  0  0  0  0
  188.2950  177.8940  145.5270 C   0  0  0  0  0  0  0  0  0  0  0  0
  185.4300  177.9750  144.3530 C   0  0  0  0  0  2  0  0  0  0  0  0
  185.4050  179.2820  142.2070 C   0  0  0  0  0  1  0  0  0  0  0  0
  184.6070  178.9020  143.4490 C   0  0  1  0  0  3  0  0  0  0  0  0
  183.2320  178.3230  143.0910 C   0  0  0  0  0  3  0  0  0  0  0  0
  182.1440  178.9450  143.9500 C   0  0  0  0  0  1  0  0  0  0  0  0
  182.8920  178.5870  141.6340 C   0  0  0  0  0  1  0  0  0  0  0  0
  1 21  1  0  0  0  0
  2  5  2  0  0  0  0
  2  1  1  0  0  0  0
  3  9  1  0  0  0  0
  6  9  2  0  0  0  0
  6 14  1  0  0  0  0
  7 20  2  0  0  0  0
  7 13  1  0  0  0  0
  8 19  1  0  0  0  0
  8 11  1  0  0  0  0
  9  7  1  0  0  0  0
 10 20  1  0  0  0  0
 11  6  1  0  0  0  0
 12 17  1  0  0  0  0
 13 22  2  0  0  0  0
 14 10  2  0  0  0  0
 16  4  1  0  0  0  0
 16 12  2  0  0  0  0
 17 15  1  0  0  0  0
 18  8  1  0  0  0  0
 19  3  1  0  0  0  0
 20 16  1  0  0  0  0
 21 15  1  0  0  0  0
 22 12  1  0  0  0  0
 22  1  1  0  0  0  0
 23  2  1  0  0  0  0
 25 24  1  6  0  0  0
 25 23  1  0  0  0  0
 26 25  1  0  0  0  0
 26 27  1  0  0  0  0
 28 26  1  0  0  0  0
M  END
>  <MODEL>
3

>  <REMARK>
 VINA RESULT:     -10.4      2.036      5.940
  Name = 
  3 active torsions:
  status: ('A' for Active; 'I' for Inactive)
    1  A    between atoms: C_2  and  C_3
    2  A    between atoms: C_3  and  C_11
    3  A    between atoms: C_6  and  C_11
                            x       y       z     vdW  Elec       q    Type
                         _______ _______ _______ _____ _____    ______ ____

>  <TORSDO>
F 3

$$$$
=
 OpenBabel10262420523D

 28 31  0  0  1  0  0  0  0  0999 V2000
  186.8360  178.5080  140.7120 N   0  0  0  0  0  0  0  0  0  0  0  0
  188.0110  178.1740  139.9470 C   0  0  0  0  0  0  0  0  0  0  0  0
  190.2430  177.3020  144.4120 C   0  0  0  0  0  2  0  0  0  0  0  0
  184.1050  178.3120  144.7730 O   0  0  0  0  0  1  0  0  0  0  0  0
  188.2460  178.7750  138.8650 O   0  0  0  0  0  0  0  0  0  0  0  0
  188.7490  177.2360  146.4520 C   0  0  0  0  0  0  0  0  0  0  0  0
  187.7520  177.7850  144.2980 C   0  0  0  0  0  0  0  0  0  0  0  0
  191.0350  176.3710  146.5240 N   0  0  0  0  0  0  0  0  0  0  0  0
  188.8910  177.4730  145.0680 C   0  0  0  0  0  0  0  0  0  0  0  0
  186.3730  177.6650  146.2990 C   0  0  0  0  0  3  0  0  0  0  0  0
  189.9550  176.9680  147.3080 C   0  0  0  0  0  2  0  0  0  0  0  0
  185.4650  178.4020  142.7730 C   0  0  0  0  0  0  0  0  0  0  0  0
  187.8520  178.0000  142.9190 C   0  0  0  0  0  3  0  0  0  0  0  0
  187.4980  177.3490  147.0590 C   0  0  0  0  0  3  0  0  0  0  0  0
  184.4030  178.5260  140.4980 C   0  0  0  0  0  2  0  0  0  0  0  0
  185.3490  178.1970  144.1570 C   0  0  0  0  0  0  0  0  0  0  0  0
  184.2520  178.8220  141.9860 C   0  0  0  0  0  2  0  0  0  0  0  0
  192.1950  176.3090  147.3950 C   0  0  0  0  0  1  0  0  0  0  0  0
  191.3720  177.2910  145.4420 C   0  0  0  0  0  2  0  0  0  0  0  0
  186.4850  177.8800  144.9200 C   0  0  0  0  0  0  0  0  0  0  0  0
  185.7130  179.1160  139.9990 C   0  0  0  0  0  2  0  0  0  0  0  0
  186.7260  178.3000  142.1420 C   0  0  0  0  0  0  0  0  0  0  0  0
  188.9360  177.0630  140.3590 C   0  0  0  0  0  2  0  0  0  0  0  0
  191.3530  177.4280  140.9370 C   0  0  0  0  0  1  0  0  0  0  0  0
  190.3570  177.2230  139.8020 C   0  0  1  0  0  3  0  0  0  0  0  0
  190.7710  176.0700  138.8770 C   0  0  0  0  0  3  0  0  0  0  0  0
  189.7610  175.8870  137.7580 C   0  0  0  0  0  1  0  0  0  0  0  0
  192.1290  176.3370  138.2490 C   0  0  0  0  0  1  0  0  0  0  0  0
  1 22  1  0  0  0  0
  2 23  1  0  0  0  0
  2  1  1  0  0  0  0
  3  9  1  0  0  0  0
  3 19  1  0  0  0  0
  5  2  2  0  0  0  0
  6 14  1  0  0  0  0
  6 11  1  0  0  0  0
  7 20  1  0  0  0  0
  7  9  1  0  0  0  0
  8 11  1  0  0  0  0
  8 18  1  0  0  0  0
  9  6  2  0  0  0  0
 10 14  2  0  0  0  0
 12 16  1  0  0  0  0
 13  7  2  0  0  0  0
 15 17  1  0  0  0  0
 16  4  1  0  0  0  0
 16 20  2  0  0  0  0
 17 12  1  0  0  0  0
 19  8  1  0  0  0  0
 20 10  1  0  0  0  0
 21 15  1  0  0  0  0
 21  1  1  0  0  0  0
 22 12  2  0  0  0  0
 22 13  1  0  0  0  0
 25 23  1  0  0  0  0
 25 24  1  1  0  0  0
 26 25  1  0  0  0  0
 27 26  1  0  0  0  0
 28 26  1  0  0  0  0
M  END
>  <MODEL>
4

>  <REMARK>
 VINA RESULT:     -10.0      2.077      5.390
  Name = 
  3 active torsions:
  status: ('A' for Active; 'I' for Inactive)
    1  A    between atoms: C_2  and  C_3
    2  A    between atoms: C_3  and  C_11
    3  A    between atoms: C_6  and  C_11
                            x       y       z     vdW  Elec       q    Type
                         _______ _______ _______ _____ _____    ______ ____

>  <TORSDO>
F 3

$$$$
=
 OpenBabel10262420523D

 28 31  0  0  1  0  0  0  0  0999 V2000
  188.8360  177.2270  144.8050 N   0  0  0  0  0  0  0  0  0  0  0  0
  189.6220  177.1680  143.5980 C   0  0  0  0  0  0  0  0  0  0  0  0
  185.3010  178.1780  141.1500 C   0  0  0  0  0  2  0  0  0  0  0  0
  184.9000  178.6480  147.3500 O   0  0  0  0  0  1  0  0  0  0  0  0
  190.5970  176.3720  143.5230 O   0  0  0  0  0  0  0  0  0  0  0  0
  183.3220  178.8880  142.5540 C   0  0  0  0  0  0  0  0  0  0  0  0
  185.3850  178.2600  143.6870 C   0  0  0  0  0  0  0  0  0  0  0  0
  183.3410  179.2150  140.1310 N   0  0  0  0  0  0  0  0  0  0  0  0
  184.6520  178.4190  142.4930 C   0  0  0  0  0  0  0  0  0  0  0  0
  183.4500  178.9900  144.9680 C   0  0  0  0  0  3  0  0  0  0  0  0
  182.4950  179.0030  141.3040 C   0  0  0  0  0  2  0  0  0  0  0  0
  186.8400  177.9520  146.0800 C   0  0  0  0  0  0  0  0  0  0  0  0
  186.7140  177.8210  143.6610 C   0  0  0  0  0  3  0  0  0  0  0  0
  182.7260  179.1540  143.7880 C   0  0  0  0  0  3  0  0  0  0  0  0
  189.0870  177.7270  147.1820 C   0  0  0  0  0  2  0  0  0  0  0  0
  185.5040  178.3840  146.1230 C   0  0  0  0  0  0  0  0  0  0  0  0
  187.5750  177.7020  147.3700 C   0  0  0  0  0  2  0  0  0  0  0  0
  182.4700  179.1440  138.9730 C   0  0  0  0  0  1  0  0  0  0  0  0
  184.2660  178.0900  140.0300 C   0  0  0  0  0  2  0  0  0  0  0  0
  184.7780  178.5480  144.9320 C   0  0  0  0  0  0  0  0  0  0  0  0
  189.4680  176.7880  146.0480 C   0  0  0  0  0  2  0  0  0  0  0  0
  187.4560  177.6690  144.8400 C   0  0  0  0  0  0  0  0  0  0  0  0
  189.3670  178.0900  142.4390 C   0  0  0  0  0  2  0  0  0  0  0  0
  188.5840  178.2610  140.0580 C   0  0  0  0  0  1  0  0  0  0  0  0
  189.2250  177.3530  141.1010 C   0  0  1  0  0  3  0  0  0  0  0  0
  190.5470  176.7530  140.6030 C   0  0  0  0  0  3  0  0  0  0  0  0
  190.4490  176.3720  139.1360 C   0  0  0  0  0  1  0  0  0  0  0  0
  191.6870  177.7460  140.7580 C   0  0  0  0  0  1  0  0  0  0  0  0
  1 22  1  0  0  0  0
  1 21  1  0  0  0  0
  2  1  1  0  0  0  0
  3  9  1  0  0  0  0
  5  2  2  0  0  0  0
  6 14  1  0  0  0  0
  7 20  1  0  0  0  0
  8 11  1  0  0  0  0
  9  6  2  0  0  0  0
  9  7  1  0  0  0  0
 11  6  1  0  0  0  0
 12 16  1  0  0  0  0
 12 17  1  0  0  0  0
 13  7  2  0  0  0  0
 13 22  1  0  0  0  0
 14 10  2  0  0  0  0
 15 17  1  0  0  0  0
 16  4  1  0  0  0  0
 18  8  1  0  0  0  0
 19  8  1  0  0  0  0
 19  3  1  0  0  0  0
 20 10  1  0  0  0  0
 20 16  2  0  0  0  0
 21 15  1  0  0  0  0
 22 12  2  0  0  0  0
 23  2  1  0  0  0  0
 25 24  1  6  0  0  0
 25 23  1  0  0  0  0
 26 28  1  0  0  0  0
 26 25  1  0  0  0  0
 27 26  1  0  0  0  0
M  END
>  <MODEL>
5

>  <REMARK>
 VINA RESULT:      -9.8      1.615      2.483
  Name = 
  3 active torsions:
  status: ('A' for Active; 'I' for Inactive)
    1  A    between atoms: C_2  and  C_3
    2  A    between atoms: C_3  and  C_11
    3  A    between atoms: C_6  and  C_11
                            x       y       z     vdW  Elec       q    Type
                         _______ _______ _______ _____ _____    ______ ____

>  <TORSDO>
F 3

$$$$
=
 OpenBabel10262420523D

 28 31  0  0  1  0  0  0  0  0999 V2000
  187.0950  177.7070  145.7260 N   0  0  0  0  0  0  0  0  0  0  0  0
  188.5140  177.4820  145.8490 C   0  0  0  0  0  0  0  0  0  0  0  0
  188.6230  177.6290  140.7850 C   0  0  0  0  0  2  0  0  0  0  0  0
  183.1470  179.2530  143.2740 O   0  0  0  0  0  1  0  0  0  0  0  0
  188.9560  176.7730  146.7920 O   0  0  0  0  0  0  0  0  0  0  0  0
  186.5300  178.4250  139.6110 C   0  0  0  0  0  0  0  0  0  0  0  0
  186.4900  178.2060  142.0370 C   0  0  0  0  0  0  0  0  0  0  0  0
  188.6680  178.2780  138.4320 N   0  0  0  0  0  0  0  0  0  0  0  0
  187.1780  178.0680  140.8130 C   0  0  0  0  0  0  0  0  0  0  0  0
  184.5270  179.0030  140.8390 C   0  0  0  0  0  3  0  0  0  0  0  0
  187.2140  178.2260  138.2870 C   0  0  0  0  0  2  0  0  0  0  0  0
  185.1060  178.4920  144.4740 C   0  0  0  0  0  0  0  0  0  0  0  0
  187.1100  177.8850  143.2490 C   0  0  0  0  0  3  0  0  0  0  0  0
  185.2090  178.8730  139.6300 C   0  0  0  0  0  3  0  0  0  0  0  0
  185.2360  178.6770  146.9760 C   0  0  0  0  0  2  0  0  0  0  0  0
  184.4680  178.8090  143.2640 C   0  0  0  0  0  0  0  0  0  0  0  0
  184.3260  178.5600  145.7600 C   0  0  0  0  0  2  0  0  0  0  0  0
  189.2270  177.9110  137.1450 C   0  0  0  0  0  1  0  0  0  0  0  0
  189.0670  177.2380  139.3760 C   0  0  0  0  0  2  0  0  0  0  0  0
  185.1560  178.6770  142.0480 C   0  0  0  0  0  0  0  0  0  0  0  0
  186.2790  177.5720  146.9320 C   0  0  0  0  0  2  0  0  0  0  0  0
  186.4420  178.0280  144.4720 C   0  0  0  0  0  0  0  0  0  0  0  0
  189.5030  178.1370  144.9280 C   0  0  0  0  0  2  0  0  0  0  0  0
  190.0760  176.0780  143.6080 C   0  0  0  0  0  1  0  0  0  0  0  0
  190.6300  177.1950  144.4830 C   0  0  1  0  0  3  0  0  0  0  0  0
  191.7930  177.9310  143.8040 C   0  0  0  0  0  3  0  0  0  0  0  0
  191.8670  177.5790  142.3280 C   0  0  0  0  0  1  0  0  0  0  0  0
  191.6290  179.4370  143.9230 C   0  0  0  0  0  1  0  0  0  0  0  0
  1  2  1  0  0  0  0
  1 21  1  0  0  0  0
  2  5  2  0  0  0  0
  3  9  1  0  0  0  0
  6 14  2  0  0  0  0
  6  9  1  0  0  0  0
  7 20  1  0  0  0  0
  7 13  1  0  0  0  0
  8 19  1  0  0  0  0
  9  7  2  0  0  0  0
 10 20  2  0  0  0  0
 11  8  1  0  0  0  0
 11  6  1  0  0  0  0
 12 17  1  0  0  0  0
 13 22  2  0  0  0  0
 14 10  1  0  0  0  0
 16  4  1  0  0  0  0
 16 12  2  0  0  0  0
 17 15  1  0  0  0  0
 18  8  1  0  0  0  0
 19  3  1  0  0  0  0
 20 16  1  0  0  0  0
 21 15  1  0  0  0  0
 22 12  1  0  0  0  0
 22  1  1  0  0  0  0
 23  2  1  0  0  0  0
 25 24  1  6  0  0  0
 25 23  1  0  0  0  0
 26 28  1  0  0  0  0
 26 25  1  0  0  0  0
 27 26  1  0  0  0  0
M  END
>  <MODEL>
6

>  <REMARK>
 VINA RESULT:      -9.6      2.274      5.532
  Name = 
  3 active torsions:
  status: ('A' for Active; 'I' for Inactive)
    1  A    between atoms: C_2  and  C_3
    2  A    between atoms: C_3  and  C_11
    3  A    between atoms: C_6  and  C_11
                            x       y       z     vdW  Elec       q    Type
                         _______ _______ _______ _____ _____    ______ ____

>  <TORSDO>
F 3

$$$$
=
 OpenBabel10262420523D

 28 31  0  0  1  0  0  0  0  0999 V2000
  185.2640  178.6280  144.5950 N   0  0  0  0  0  0  0  0  0  0  0  0
  184.3460  178.7410  143.4890 C   0  0  0  0  0  0  0  0  0  0  0  0
  188.3630  177.8800  140.5210 C   0  0  0  0  0  2  0  0  0  0  0  0
  189.4650  177.1130  146.6060 O   0  0  0  0  0  1  0  0  0  0  0  0
  183.3690  179.5330  143.5640 O   0  0  0  0  0  0  0  0  0  0  0  0
  190.4900  177.1160  141.6560 C   0  0  0  0  0  0  0  0  0  0  0  0
  188.5670  177.6750  143.0450 C   0  0  0  0  0  0  0  0  0  0  0  0
  190.1960  176.9070  139.2370 N   0  0  0  0  0  0  0  0  0  0  0  0
  189.1610  177.5790  141.7690 C   0  0  0  0  0  0  0  0  0  0  0  0
  190.6370  176.8970  144.0610 C   0  0  0  0  0  3  0  0  0  0  0  0
  191.1690  177.0670  140.3170 C   0  0  0  0  0  2  0  0  0  0  0  0
  187.3930  177.8570  145.5990 C   0  0  0  0  0  0  0  0  0  0  0  0
  187.2440  178.1050  143.1910 C   0  0  0  0  0  3  0  0  0  0  0  0
  191.2220  176.7950  142.8000 C   0  0  0  0  0  3  0  0  0  0  0  0
  185.2850  178.0120  146.9580 C   0  0  0  0  0  2  0  0  0  0  0  0
  188.7260  177.4320  145.4690 C   0  0  0  0  0  0  0  0  0  0  0  0
  186.8090  178.0390  146.9750 C   0  0  0  0  0  2  0  0  0  0  0  0
  190.9300  177.0390  137.9930 C   0  0  0  0  0  1  0  0  0  0  0  0
  189.2640  178.0290  139.2970 C   0  0  0  0  0  2  0  0  0  0  0  0
  189.3120  177.3310  144.1970 C   0  0  0  0  0  0  0  0  0  0  0  0
  184.7770  179.0030  145.9220 C   0  0  0  0  0  2  0  0  0  0  0  0
  186.6400  178.1950  144.4520 C   0  0  0  0  0  0  0  0  0  0  0  0
  184.4690  177.8780  142.2650 C   0  0  0  0  0  2  0  0  0  0  0  0
  184.9290  179.0030  140.0660 C   0  0  0  0  0  1  0  0  0  0  0  0
  183.8430  178.5100  141.0150 C   0  0  1  0  0  3  0  0  0  0  0  0
  182.8450  177.5800  140.3100 C   0  0  0  0  0  3  0  0  0  0  0  0
  181.4160  178.0080  140.5940 C   0  0  0  0  0  1  0  0  0  0  0  0
  183.0540  177.5980  138.8060 C   0  0  0  0  0  1  0  0  0  0  0  0
  1 21  1  0  0  0  0
  2  5  2  0  0  0  0
  2  1  1  0  0  0  0
  3  9  1  0  0  0  0
  6  9  2  0  0  0  0
  6 14  1  0  0  0  0
  7 13  2  0  0  0  0
  7 20  1  0  0  0  0
  8 19  1  0  0  0  0
  8 11  1  0  0  0  0
  9  7  1  0  0  0  0
 10 20  1  0  0  0  0
 11  6  1  0  0  0  0
 12 17  1  0  0  0  0
 13 22  1  0  0  0  0
 14 10  2  0  0  0  0
 15 17  1  0  0  0  0
 16 12  1  0  0  0  0
 16  4  1  0  0  0  0
 18  8  1  0  0  0  0
 19  3  1  0  0  0  0
 20 16  2  0  0  0  0
 21 15  1  0  0  0  0
 22  1  1  0  0  0  0
 22 12  2  0  0  0  0
 23  2  1  0  0  0  0
 25 24  1  6  0  0  0
 25 23  1  0  0  0  0
 26 27  1  0  0  0  0
 26 25  1  0  0  0  0
 28 26  1  0  0  0  0
M  END
>  <MODEL>
7

>  <REMARK>
 VINA RESULT:      -9.4      2.146      5.986
  Name = 
  3 active torsions:
  status: ('A' for Active; 'I' for Inactive)
    1  A    between atoms: C_2  and  C_3
    2  A    between atoms: C_3  and  C_11
    3  A    between atoms: C_6  and  C_11
                            x       y       z     vdW  Elec       q    Type
                         _______ _______ _______ _____ _____    ______ ____

>  <TORSDO>
F 3

$$$$
=
 OpenBabel10262420523D

 28 31  0  0  1  0  0  0  0  0999 V2000
  186.8800  177.7200  146.1070 N   0  0  0  0  0  0  0  0  0  0  0  0
  188.1380  177.4080  146.7390 C   0  0  0  0  0  0  0  0  0  0  0  0
  189.9890  176.9600  142.0430 C   0  0  0  0  0  2  0  0  0  0  0  0
  184.2030  179.2580  142.3050 O   0  0  0  0  0  1  0  0  0  0  0  0
  188.1510  176.7820  147.8330 O   0  0  0  0  0  0  0  0  0  0  0  0
  188.5240  177.7670  140.1470 C   0  0  0  0  0  0  0  0  0  0  0  0
  187.6330  177.8330  142.4130 C   0  0  0  0  0  0  0  0  0  0  0  0
  190.9070  177.3280  139.8120 N   0  0  0  0  0  0  0  0  0  0  0  0
  188.6780  177.5050  141.5250 C   0  0  0  0  0  0  0  0  0  0  0  0
  186.2970  178.6280  140.5410 C   0  0  0  0  0  3  0  0  0  0  0  0
  189.5930  177.3670  139.1700 C   0  0  0  0  0  2  0  0  0  0  0  0
  185.5380  178.4990  144.1760 C   0  0  0  0  0  0  0  0  0  0  0  0
  187.7620  177.6100  143.7880 C   0  0  0  0  0  3  0  0  0  0  0  0
  187.3330  178.3100  139.6630 C   0  0  0  0  0  3  0  0  0  0  0  0
  184.8230  178.9620  146.5390 C   0  0  0  0  0  2  0  0  0  0  0  0
  185.3910  178.7200  142.7970 C   0  0  0  0  0  0  0  0  0  0  0  0
  184.3770  178.7720  145.0950 C   0  0  0  0  0  2  0  0  0  0  0  0
  191.8290  176.7750  138.8380 C   0  0  0  0  0  1  0  0  0  0  0  0
  190.8420  176.3780  140.9180 C   0  0  0  0  0  2  0  0  0  0  0  0
  186.4350  178.3990  141.9150 C   0  0  0  0  0  0  0  0  0  0  0  0
  185.6920  177.7850  146.9560 C   0  0  0  0  0  2  0  0  0  0  0  0
  186.7340  177.9420  144.6820 C   0  0  0  0  0  0  0  0  0  0  0  0
  189.4480  177.8780  146.1740 C   0  0  0  0  0  2  0  0  0  0  0  0
  191.5320  177.1350  144.9830 C   0  0  0  0  0  1  0  0  0  0  0  0
  190.4760  176.7500  146.0120 C   0  0  1  0  0  3  0  0  0  0  0  0
  191.1040  176.3170  147.3430 C   0  0  0  0  0  3  0  0  0  0  0  0
  192.4300  175.6130  147.1110 C   0  0  0  0  0  1  0  0  0  0  0  0
  191.3570  177.5150  148.2420 C   0  0  0  0  0  1  0  0  0  0  0  0
  1  2  1  0  0  0  0
  1 21  1  0  0  0  0
  2  5  2  0  0  0  0
  4 16  1  0  0  0  0
  6  9  1  0  0  0  0
  7 13  1  0  0  0  0
  8 19  1  0  0  0  0
  9  3  1  0  0  0  0
  9  7  2  0  0  0  0
 10 20  2  0  0  0  0
 11  8  1  0  0  0  0
 11  6  1  0  0  0  0
 12 22  1  0  0  0  0
 12 17  1  0  0  0  0
 13 22  2  0  0  0  0
 14  6  2  0  0  0  0
 14 10  1  0  0  0  0
 15 21  1  0  0  0  0
 16 12  2  0  0  0  0
 17 15  1  0  0  0  0
 18  8  1  0  0  0  0
 19  3  1  0  0  0  0
 20  7  1  0  0  0  0
 20 16  1  0  0  0  0
 22  1  1  0  0  0  0
 23  2  1  0  0  0  0
 25 24  1  6  0  0  0
 25 23  1  0  0  0  0
 25 26  1  0  0  0  0
 26 28  1  0  0  0  0
 27 26  1  0  0  0  0
M  END
>  <MODEL>
8

>  <REMARK>
 VINA RESULT:      -8.8      2.109      6.642
  Name = 
  3 active torsions:
  status: ('A' for Active; 'I' for Inactive)
    1  A    between atoms: C_2  and  C_3
    2  A    between atoms: C_3  and  C_11
    3  A    between atoms: C_6  and  C_11
                            x       y       z     vdW  Elec       q    Type
                         _______ _______ _______ _____ _____    ______ ____

>  <TORSDO>
F 3

$$$$
=
 OpenBabel10262420523D

 28 31  0  0  1  0  0  0  0  0999 V2000
  189.8680  177.9350  142.5180 N   0  0  0  0  0  0  0  0  0  0  0  0
  189.7960  177.7830  143.9500 C   0  0  0  0  0  0  0  0  0  0  0  0
  184.8460  178.7450  143.4520 C   0  0  0  0  0  2  0  0  0  0  0  0
  187.8540  177.9550  138.0530 O   0  0  0  0  0  1  0  0  0  0  0  0
  190.7690  178.1390  144.6670 O   0  0  0  0  0  0  0  0  0  0  0  0
  183.9040  178.7490  141.1050 C   0  0  0  0  0  0  0  0  0  0  0  0
  186.3010  178.4270  141.3950 C   0  0  0  0  0  0  0  0  0  0  0  0
  182.4390  178.6430  143.0610 N   0  0  0  0  0  0  0  0  0  0  0  0
  185.0290  178.6660  141.9540 C   0  0  0  0  0  0  0  0  0  0  0  0
  185.3160  178.4050  139.1700 C   0  0  0  0  0  3  0  0  0  0  0  0
  182.5470  179.0700  141.6660 C   0  0  0  0  0  2  0  0  0  0  0  0
  188.8360  177.9430  140.2650 C   0  0  0  0  0  0  0  0  0  0  0  0
  187.4340  178.3130  142.2090 C   0  0  0  0  0  3  0  0  0  0  0  0
  184.0560  178.6350  139.7230 C   0  0  0  0  0  3  0  0  0  0  0  0
  191.2040  177.1800  140.6180 C   0  0  0  0  0  2  0  0  0  0  0  0
  187.7100  178.0630  139.4350 C   0  0  0  0  0  0  0  0  0  0  0  0
  190.1970  177.7770  139.6430 C   0  0  0  0  0  2  0  0  0  0  0  0
  181.1680  179.1440  143.5500 C   0  0  0  0  0  1  0  0  0  0  0  0
  183.4810  179.3230  143.8240 C   0  0  0  0  0  2  0  0  0  0  0  0
  186.4430  178.2950  139.9940 C   0  0  0  0  0  0  0  0  0  0  0  0
  191.1960  177.9880  141.9070 C   0  0  0  0  0  2  0  0  0  0  0  0
  188.7020  178.0650  141.6670 C   0  0  0  0  0  0  0  0  0  0  0  0
  188.6190  177.1340  144.6200 C   0  0  0  0  0  2  0  0  0  0  0  0
  186.7770  178.2050  145.9510 C   0  0  0  0  0  1  0  0  0  0  0  0
  188.2440  177.7930  145.9540 C   0  0  1  0  0  3  0  0  0  0  0  0
  188.5920  176.9230  147.1700 C   0  0  0  0  0  3  0  0  0  0  0  0
  190.0970  176.7910  147.3260 C   0  0  0  0  0  1  0  0  0  0  0  0
  188.0360  177.5270  148.4490 C   0  0  0  0  0  1  0  0  0  0  0  0
  1  2  1  0  0  0  0
  2 23  1  0  0  0  0
  2  5  2  0  0  0  0
  3 19  1  0  0  0  0
  4 16  1  0  0  0  0
  6 11  1  0  0  0  0
  6  9  1  0  0  0  0
  7  9  2  0  0  0  0
  7 13  1  0  0  0  0
  8 18  1  0  0  0  0
  8 19  1  0  0  0  0
  9  3  1  0  0  0  0
 10 14  1  0  0  0  0
 10 20  2  0  0  0  0
 11  8  1  0  0  0  0
 12 22  1  0  0  0  0
 14  6  2  0  0  0  0
 15 21  1  0  0  0  0
 16 20  1  0  0  0  0
 16 12  2  0  0  0  0
 17 12  1  0  0  0  0
 17 15  1  0  0  0  0
 20  7  1  0  0  0  0
 21  1  1  0  0  0  0
 22 13  2  0  0  0  0
 22  1  1  0  0  0  0
 23 25  1  0  0  0  0
 25 24  1  6  0  0  0
 25 26  1  0  0  0  0
 26 27  1  0  0  0  0
 26 28  1  0  0  0  0
M  END
>  <MODEL>
9

>  <REMARK>
 VINA RESULT:      -8.8      1.725      5.473
  Name = 
  3 active torsions:
  status: ('A' for Active; 'I' for Inactive)
    1  A    between atoms: C_2  and  C_3
    2  A    between atoms: C_3  and  C_11
    3  A    between atoms: C_6  and  C_11
                            x       y       z     vdW  Elec       q    Type
                         _______ _______ _______ _____ _____    ______ ____

>  <TORSDO>
F 3

$$$$
