=
 OpenBabel10262423123D

 34 38  0  0  1  0  0  0  0  0999 V2000
  185.2590  178.8730  140.4080 C   0  0  0  0  0  0  0  0  0  0  0  0
  187.6620  177.1400  138.0490 C   0  0  0  0  0  2  0  0  0  0  0  0
  190.5660  176.9240  139.8980 C   0  0  0  0  0  0  0  0  0  0  0  0
  185.3020  177.7440  137.8320 N   0  0  0  0  0  0  0  0  0  0  0  0
  182.7780  179.2310  140.0750 C   0  0  0  0  0  3  0  0  0  0  0  0
  181.7930  178.0620  138.1680 C   0  0  0  0  0  3  0  0  0  0  0  0
  190.9460  176.8990  141.0990 O   0  0  0  0  0  0  0  0  0  0  0  0
  181.6910  178.7410  139.4760 C   0  0  0  0  0  3  0  0  0  0  0  0
  184.1710  178.2250  138.2550 C   0  0  0  0  0  0  0  0  0  0  0  0
  184.1430  179.1900  139.4260 C   0  0  2  0  0  3  0  0  0  0  0  0
  182.9500  177.8220  137.6250 N   0  0  0  0  0  0  0  0  0  0  0  0
  189.0340  177.7960  138.1110 C   0  0  0  0  0  2  0  0  0  0  0  0
  191.1730  176.0430  138.9580 N   0  0  0  0  0  1  0  0  0  0  0  0
  189.5300  177.8270  139.4830 N   0  0  0  0  0  0  0  0  0  0  0  0
  188.8590  178.6730  140.4640 C   0  0  0  0  0  2  0  0  0  0  0  0
  186.5750  178.1370  138.4370 C   0  0  1  0  0  3  0  0  0  0  0  0
  187.5520  178.0210  140.8900 C   0  0  0  0  0  2  0  0  0  0  0  0
  186.4270  178.3540  139.9390 C   0  0  0  0  0  0  0  0  0  0  0  0
  185.1050  179.2550  141.8570 C   0  0  0  0  0  2  0  0  0  0  0  0
  184.7940  178.0750  142.6510 N   0  0  0  0  0  2  0  0  0  0  0  0
  184.5580  178.5300  144.0110 C   0  0  0  0  0  2  0  0  0  0  0  0
  186.7980  178.0700  147.0360 C   0  0  0  0  0  3  0  0  0  0  0  0
  186.9650  177.8670  144.2380 C   0  0  0  0  0  3  0  0  0  0  0  0
  190.3210  176.9710  146.6210 C   0  0  0  0  0  0  0  0  0  0  0  0
  189.1150  177.3750  147.2220 C   0  0  0  0  0  3  0  0  0  0  0  0
  188.0000  177.6740  146.4340 C   0  0  0  0  0  0  0  0  0  0  0  0
  189.2810  177.1680  144.4270 C   0  0  0  0  0  3  0  0  0  0  0  0
  188.0840  177.5700  145.0240 C   0  0  0  0  0  0  0  0  0  0  0  0
  190.3930  176.8700  145.2230 C   0  0  0  0  0  3  0  0  0  0  0  0
  185.7660  178.2660  144.8440 C   0  0  0  0  0  0  0  0  0  0  0  0
  185.6820  178.3600  146.2420 C   0  0  0  0  0  3  0  0  0  0  0  0
  191.5020  176.6590  147.4520 C   0  0  0  0  0  0  0  0  0  0  0  0
  191.8670  177.4540  148.3590 O   0  0  0  0  0  0  0  0  0  0  0  0
  192.2880  175.4070  147.2380 C   0  0  0  0  0  1  0  0  0  0  0  0
  1 19  1  0  0  0  0
  2 12  1  0  0  0  0
  3  7  2  0  0  0  0
  4  9  2  0  0  0  0
  4 16  1  0  0  0  0
  6  8  1  0  0  0  0
  8  5  2  0  0  0  0
  9 10  1  0  0  0  0
 10  5  1  1  0  0  0
 10  1  1  0  0  0  0
 11  6  2  0  0  0  0
 11  9  1  0  0  0  0
 12 14  1  0  0  0  0
 13  3  1  0  0  0  0
 14  3  1  0  0  0  0
 14 15  1  0  0  0  0
 15 17  1  0  0  0  0
 16  2  1  1  0  0  0
 16 18  1  0  0  0  0
 18  1  2  0  0  0  0
 18 17  1  0  0  0  0
 19 20  1  0  0  0  0
 20 21  1  0  0  0  0
 21 30  1  0  0  0  0
 23 30  2  0  0  0  0
 23 28  1  0  0  0  0
 24 25  1  0  0  0  0
 24 32  1  0  0  0  0
 26 22  1  0  0  0  0
 26 25  2  0  0  0  0
 27 28  2  0  0  0  0
 27 29  1  0  0  0  0
 28 26  1  0  0  0  0
 29 24  2  0  0  0  0
 30 31  1  0  0  0  0
 31 22  2  0  0  0  0
 32 33  2  0  0  0  0
 34 32  1  0  0  0  0
M  END
>  <MODEL>
1

>  <REMARK>
 VINA RESULT:     -10.4      0.000      0.000
  Name = 
  5 active torsions:
  status: ('A' for Active; 'I' for Inactive)
    1  A    between atoms: C_1  and  C_9
    2  A    between atoms: C_7  and  C_11
    3  A    between atoms: N_8  and  C_9
    4  A    between atoms: N_8  and  C_18
    5  A    between atoms: C_18  and  C_30
                            x       y       z     vdW  Elec       q    Type
                         _______ _______ _______ _____ _____    ______ ____

>  <TORSDO>
F 5

$$$$
=
 OpenBabel10262423123D

 34 38  0  0  1  0  0  0  0  0999 V2000
  183.8810  178.1930  138.4380 C   0  0  0  0  0  0  0  0  0  0  0  0
  186.0430  175.4790  136.9220 C   0  0  0  0  0  2  0  0  0  0  0  0
  189.1530  176.9610  136.7320 C   0  0  0  0  0  0  0  0  0  0  0  0
  183.6880  175.5230  137.5790 N   0  0  0  0  0  0  0  0  0  0  0  0
  181.4920  177.9780  139.2410 C   0  0  0  0  0  3  0  0  0  0  0  0
  180.6100  175.7000  139.3170 C   0  0  0  0  0  3  0  0  0  0  0  0
  189.8210  177.8770  137.2810 O   0  0  0  0  0  0  0  0  0  0  0  0
  180.5940  177.1190  139.7260 C   0  0  0  0  0  3  0  0  0  0  0  0
  182.6230  176.0640  138.0900 C   0  0  0  0  0  0  0  0  0  0  0  0
  182.5130  177.5730  138.2020 C   0  0  2  0  0  3  0  0  0  0  0  0
  181.5630  175.2290  138.5690 N   0  0  0  0  0  0  0  0  0  0  0  0
  186.9720  176.0670  135.8680 C   0  0  0  0  0  2  0  0  0  0  0  0
  189.7910  175.7260  136.4200 N   0  0  0  0  0  1  0  0  0  0  0  0
  187.7630  177.1570  136.4280 N   0  0  0  0  0  0  0  0  0  0  0  0
  187.0960  178.3940  136.8180 C   0  0  0  0  0  2  0  0  0  0  0  0
  184.7900  176.3360  137.0660 C   0  0  1  0  0  3  0  0  0  0  0  0
  186.3550  178.1820  138.1300 C   0  0  0  0  0  2  0  0  0  0  0  0
  184.9810  177.5950  137.9050 C   0  0  0  0  0  0  0  0  0  0  0  0
  183.9840  179.5200  139.1450 C   0  0  0  0  0  2  0  0  0  0  0  0
  184.7880  179.3780  140.3510 N   0  0  0  0  0  2  0  0  0  0  0  0
  183.9540  178.7160  141.3400 C   0  0  0  0  0  2  0  0  0  0  0  0
  184.7770  178.6960  145.0420 C   0  0  0  0  0  3  0  0  0  0  0  0
  186.0200  178.0650  142.6020 C   0  0  0  0  0  3  0  0  0  0  0  0
  188.0870  177.5030  146.2300 C   0  0  0  0  0  0  0  0  0  0  0  0
  186.7750  178.0090  146.2350 C   0  0  0  0  0  3  0  0  0  0  0  0
  186.0860  178.1980  145.0330 C   0  0  0  0  0  0  0  0  0  0  0  0
  188.0150  177.3750  143.7980 C   0  0  0  0  0  3  0  0  0  0  0  0
  186.7120  177.8790  143.8040 C   0  0  0  0  0  0  0  0  0  0  0  0
  188.6980  177.1880  145.0050 C   0  0  0  0  0  3  0  0  0  0  0  0
  184.7110  178.5670  142.6160 C   0  0  0  0  0  0  0  0  0  0  0  0
  184.0900  178.8750  143.8360 C   0  0  0  0  0  3  0  0  0  0  0  0
  188.8170  177.3070  147.4980 C   0  0  0  0  0  0  0  0  0  0  0  0
  189.8900  176.6450  147.5160 O   0  0  0  0  0  0  0  0  0  0  0  0
  188.3070  177.8780  148.7810 C   0  0  0  0  0  1  0  0  0  0  0  0
  1 19  1  0  0  0  0
  3  7  2  0  0  0  0
  4  9  2  0  0  0  0
  5  8  2  0  0  0  0
  6  8  1  0  0  0  0
  9 10  1  0  0  0  0
  9 11  1  0  0  0  0
 10  1  1  0  0  0  0
 10  5  1  1  0  0  0
 11  6  2  0  0  0  0
 12 14  1  0  0  0  0
 12  2  1  0  0  0  0
 13  3  1  0  0  0  0
 14  3  1  0  0  0  0
 14 15  1  0  0  0  0
 15 17  1  0  0  0  0
 16  2  1  1  0  0  0
 16  4  1  0  0  0  0
 16 18  1  0  0  0  0
 18 17  1  0  0  0  0
 18  1  2  0  0  0  0
 19 20  1  0  0  0  0
 20 21  1  0  0  0  0
 21 30  1  0  0  0  0
 23 30  2  0  0  0  0
 23 28  1  0  0  0  0
 24 25  1  0  0  0  0
 24 32  1  0  0  0  0
 26 22  1  0  0  0  0
 26 25  2  0  0  0  0
 27 28  2  0  0  0  0
 27 29  1  0  0  0  0
 28 26  1  0  0  0  0
 29 24  2  0  0  0  0
 30 31  1  0  0  0  0
 31 22  2  0  0  0  0
 32 33  2  0  0  0  0
 32 34  1  0  0  0  0
M  END
>  <MODEL>
2

>  <REMARK>
 VINA RESULT:      -9.8      2.056      2.855
  Name = 
  5 active torsions:
  status: ('A' for Active; 'I' for Inactive)
    1  A    between atoms: C_1  and  C_9
    2  A    between atoms: C_7  and  C_11
    3  A    between atoms: N_8  and  C_9
    4  A    between atoms: N_8  and  C_18
    5  A    between atoms: C_18  and  C_30
                            x       y       z     vdW  Elec       q    Type
                         _______ _______ _______ _____ _____    ______ ____

>  <TORSDO>
F 5

$$$$
=
 OpenBabel10262423123D

 34 38  0  0  1  0  0  0  0  0999 V2000
  185.2250  178.2660  138.6060 C   0  0  0  0  0  0  0  0  0  0  0  0
  188.2160  176.5410  137.0530 C   0  0  0  0  0  2  0  0  0  0  0  0
  190.7650  177.2230  139.2760 C   0  0  0  0  0  0  0  0  0  0  0  0
  185.8660  176.6620  136.3880 N   0  0  0  0  0  0  0  0  0  0  0  0
  182.8110  178.1040  137.8700 C   0  0  0  0  0  3  0  0  0  0  0  0
  182.3430  176.4170  136.1660 C   0  0  0  0  0  3  0  0  0  0  0  0
  190.9340  177.5110  140.4910 O   0  0  0  0  0  0  0  0  0  0  0  0
  181.9230  177.3190  137.2580 C   0  0  0  0  0  3  0  0  0  0  0  0
  184.6230  177.0110  136.5330 C   0  0  0  0  0  0  0  0  0  0  0  0
  184.2580  178.1740  137.4370 C   0  0  2  0  0  3  0  0  0  0  0  0
  183.5970  176.2790  135.8530 N   0  0  0  0  0  0  0  0  0  0  0  0
  189.4500  177.4280  137.1480 C   0  0  0  0  0  2  0  0  0  0  0  0
  191.6420  176.2900  138.6530 N   0  0  0  0  0  1  0  0  0  0  0  0
  189.6960  177.8250  138.5300 N   0  0  0  0  0  0  0  0  0  0  0  0
  188.7540  178.7210  139.1910 C   0  0  0  0  0  2  0  0  0  0  0  0
  186.9480  177.3880  137.0520 C   0  0  1  0  0  3  0  0  0  0  0  0
  187.5010  177.9490  139.5750 C   0  0  0  0  0  2  0  0  0  0  0  0
  186.5170  177.8780  138.4310 C   0  0  0  0  0  0  0  0  0  0  0  0
  184.7740  178.9030  139.8960 C   0  0  0  0  0  2  0  0  0  0  0  0
  184.0680  177.9240  140.7110 N   0  0  0  0  0  2  0  0  0  0  0  0
  183.4590  178.6520  141.8120 C   0  0  0  0  0  2  0  0  0  0  0  0
  184.6340  178.8330  145.4130 C   0  0  0  0  0  3  0  0  0  0  0  0
  185.6220  178.0210  142.9110 C   0  0  0  0  0  3  0  0  0  0  0  0
  188.0160  177.6220  146.3540 C   0  0  0  0  0  0  0  0  0  0  0  0
  186.7220  178.1640  146.4520 C   0  0  0  0  0  3  0  0  0  0  0  0
  185.9250  178.2990  145.3120 C   0  0  0  0  0  0  0  0  0  0  0  0
  187.7080  177.3490  143.9530 C   0  0  0  0  0  3  0  0  0  0  0  0
  186.4230  177.8890  144.0510 C   0  0  0  0  0  0  0  0  0  0  0  0
  188.4990  177.2170  145.1000 C   0  0  0  0  0  3  0  0  0  0  0  0
  184.3320  178.5590  143.0170 C   0  0  0  0  0  0  0  0  0  0  0  0
  183.8380  178.9580  144.2680 C   0  0  0  0  0  3  0  0  0  0  0  0
  188.8610  177.4830  147.5580 C   0  0  0  0  0  0  0  0  0  0  0  0
  189.9720  176.8920  147.4870 O   0  0  0  0  0  0  0  0  0  0  0  0
  188.4240  178.0300  148.8770 C   0  0  0  0  0  1  0  0  0  0  0  0
  1 19  1  0  0  0  0
  2 12  1  0  0  0  0
  3  7  2  0  0  0  0
  4  9  2  0  0  0  0
  4 16  1  0  0  0  0
  6  8  1  0  0  0  0
  8  5  2  0  0  0  0
  9 10  1  0  0  0  0
 10  5  1  1  0  0  0
 10  1  1  0  0  0  0
 11  6  2  0  0  0  0
 11  9  1  0  0  0  0
 12 14  1  0  0  0  0
 13  3  1  0  0  0  0
 14 15  1  0  0  0  0
 14  3  1  0  0  0  0
 15 17  1  0  0  0  0
 16  2  1  1  0  0  0
 16 18  1  0  0  0  0
 18  1  2  0  0  0  0
 18 17  1  0  0  0  0
 19 20  1  0  0  0  0
 20 21  1  0  0  0  0
 21 30  1  0  0  0  0
 23 30  2  0  0  0  0
 23 28  1  0  0  0  0
 24 25  1  0  0  0  0
 24 32  1  0  0  0  0
 26 22  1  0  0  0  0
 26 25  2  0  0  0  0
 27 28  2  0  0  0  0
 27 29  1  0  0  0  0
 28 26  1  0  0  0  0
 29 24  2  0  0  0  0
 30 31  1  0  0  0  0
 31 22  2  0  0  0  0
 32 34  1  0  0  0  0
 33 32  2  0  0  0  0
M  END
>  <MODEL>
3

>  <REMARK>
 VINA RESULT:      -9.7      1.507      2.181
  Name = 
  5 active torsions:
  status: ('A' for Active; 'I' for Inactive)
    1  A    between atoms: C_1  and  C_9
    2  A    between atoms: C_7  and  C_11
    3  A    between atoms: N_8  and  C_9
    4  A    between atoms: N_8  and  C_18
    5  A    between atoms: C_18  and  C_30
                            x       y       z     vdW  Elec       q    Type
                         _______ _______ _______ _____ _____    ______ ____

>  <TORSDO>
F 5

$$$$
=
 OpenBabel10262423123D

 34 38  0  0  1  0  0  0  0  0999 V2000
  187.3260  177.7110  144.1620 C   0  0  0  0  0  0  0  0  0  0  0  0
  183.8020  178.7220  145.1100 C   0  0  0  0  0  2  0  0  0  0  0  0
  182.1200  178.6400  142.0990 C   0  0  0  0  0  0  0  0  0  0  0  0
  185.8210  178.3710  146.4440 N   0  0  0  0  0  0  0  0  0  0  0  0
  189.2450  177.1990  145.7270 C   0  0  0  0  0  3  0  0  0  0  0  0
  188.6600  177.0520  148.0950 C   0  0  0  0  0  3  0  0  0  0  0  0
  182.1890  178.0870  140.9690 O   0  0  0  0  0  0  0  0  0  0  0  0
  189.5490  176.7630  146.9510 C   0  0  0  0  0  3  0  0  0  0  0  0
  187.0650  178.0410  146.6240 C   0  0  0  0  0  0  0  0  0  0  0  0
  188.0360  178.0670  145.4580 C   0  0  2  0  0  3  0  0  0  0  0  0
  187.5110  177.6340  147.9220 N   0  0  0  0  0  0  0  0  0  0  0  0
  183.2340  179.6950  144.0860 C   0  0  0  0  0  2  0  0  0  0  0  0
  180.8510  178.7690  142.7330 N   0  0  0  0  0  1  0  0  0  0  0  0
  183.3060  179.1310  142.7420 N   0  0  0  0  0  0  0  0  0  0  0  0
  184.6120  178.9280  142.1240 C   0  0  0  0  0  2  0  0  0  0  0  0
  185.3250  178.8050  145.1380 C   0  0  1  0  0  3  0  0  0  0  0  0
  185.2810  177.7060  142.7350 C   0  0  0  0  0  2  0  0  0  0  0  0
  186.0180  178.0530  144.0080 C   0  0  0  0  0  0  0  0  0  0  0  0
  188.1100  177.1060  143.0260 C   0  0  0  0  0  2  0  0  0  0  0  0
  188.7240  178.1610  142.2300 N   0  0  0  0  0  2  0  0  0  0  0  0
  188.4190  177.8720  140.8380 C   0  0  0  0  0  2  0  0  0  0  0  0
  192.0730  177.1310  140.1430 C   0  0  0  0  0  3  0  0  0  0  0  0
  189.6230  177.1400  138.7650 C   0  0  0  0  0  3  0  0  0  0  0  0
  193.1560  175.9890  136.7800 C   0  0  0  0  0  0  0  0  0  0  0  0
  193.1980  176.3720  138.1320 C   0  0  0  0  0  3  0  0  0  0  0  0
  192.0280  176.7560  138.7940 C   0  0  0  0  0  0  0  0  0  0  0  0
  190.7520  176.3770  136.7570 C   0  0  0  0  0  3  0  0  0  0  0  0
  190.7940  176.7590  138.1000 C   0  0  0  0  0  0  0  0  0  0  0  0
  191.9270  175.9940  136.1010 C   0  0  0  0  0  3  0  0  0  0  0  0
  189.6730  177.5170  140.1140 C   0  0  0  0  0  0  0  0  0  0  0  0
  190.8960  177.5050  140.8030 C   0  0  0  0  0  3  0  0  0  0  0  0
  194.3920  175.5870  136.0780 C   0  0  0  0  0  0  0  0  0  0  0  0
  195.3350  176.4110  135.9330 O   0  0  0  0  0  0  0  0  0  0  0  0
  194.5540  174.2090  135.5240 C   0  0  0  0  0  1  0  0  0  0  0  0
  1 10  1  0  0  0  0
  3 13  1  0  0  0  0
  3 14  1  0  0  0  0
  4  9  2  0  0  0  0
  5  8  2  0  0  0  0
  7  3  2  0  0  0  0
  8  6  1  0  0  0  0
  9 11  1  0  0  0  0
 10  5  1  1  0  0  0
 10  9  1  0  0  0  0
 11  6  2  0  0  0  0
 12  2  1  0  0  0  0
 14 12  1  0  0  0  0
 15 17  1  0  0  0  0
 15 14  1  0  0  0  0
 16  2  1  1  0  0  0
 16  4  1  0  0  0  0
 17 18  1  0  0  0  0
 18  1  2  0  0  0  0
 18 16  1  0  0  0  0
 19  1  1  0  0  0  0
 20 19  1  0  0  0  0
 21 20  1  0  0  0  0
 22 31  1  0  0  0  0
 23 30  1  0  0  0  0
 24 25  2  0  0  0  0
 25 26  1  0  0  0  0
 26 22  2  0  0  0  0
 27 28  1  0  0  0  0
 28 23  2  0  0  0  0
 28 26  1  0  0  0  0
 29 27  2  0  0  0  0
 29 24  1  0  0  0  0
 30 31  2  0  0  0  0
 30 21  1  0  0  0  0
 32 24  1  0  0  0  0
 33 32  2  0  0  0  0
 34 32  1  0  0  0  0
M  END
>  <MODEL>
4

>  <REMARK>
 VINA RESULT:      -9.5      3.376      8.523
  Name = 
  5 active torsions:
  status: ('A' for Active; 'I' for Inactive)
    1  A    between atoms: C_1  and  C_9
    2  A    between atoms: C_7  and  C_11
    3  A    between atoms: N_8  and  C_9
    4  A    between atoms: N_8  and  C_18
    5  A    between atoms: C_18  and  C_30
                            x       y       z     vdW  Elec       q    Type
                         _______ _______ _______ _____ _____    ______ ____

>  <TORSDO>
F 5

$$$$
=
 OpenBabel10262423123D

 34 38  0  0  1  0  0  0  0  0999 V2000
  188.7850  177.6700  144.7680 C   0  0  0  0  0  0  0  0  0  0  0  0
  191.0110  176.8970  141.8030 C   0  0  0  0  0  2  0  0  0  0  0  0
  189.2220  178.1400  139.1270 C   0  0  0  0  0  0  0  0  0  0  0  0
  191.2980  176.5400  144.2050 N   0  0  0  0  0  0  0  0  0  0  0  0
  189.3520  177.4060  147.2180 C   0  0  0  0  0  3  0  0  0  0  0  0
  191.6890  176.8840  147.7060 C   0  0  0  0  0  3  0  0  0  0  0  0
  188.3400  179.0030  138.8730 O   0  0  0  0  0  0  0  0  0  0  0  0
  190.3580  177.3930  148.0940 C   0  0  0  0  0  3  0  0  0  0  0  0
  190.9480  176.6260  145.4540 C   0  0  0  0  0  0  0  0  0  0  0  0
  189.4910  176.8360  145.8240 C   0  0  2  0  0  3  0  0  0  0  0  0
  191.9450  176.5450  146.4780 N   0  0  0  0  0  0  0  0  0  0  0  0
  190.1810  176.3780  140.6370 C   0  0  0  0  0  2  0  0  0  0  0  0
  190.3260  177.9910  138.2400 N   0  0  0  0  0  1  0  0  0  0  0  0
  189.1170  177.3180  140.3010 N   0  0  0  0  0  0  0  0  0  0  0  0
  188.0260  177.5260  141.2460 C   0  0  0  0  0  2  0  0  0  0  0  0
  190.3120  176.6050  143.1270 C   0  0  1  0  0  3  0  0  0  0  0  0
  188.5080  178.3950  142.3980 C   0  0  0  0  0  2  0  0  0  0  0  0
  189.1840  177.5730  143.4700 C   0  0  0  0  0  0  0  0  0  0  0  0
  187.5790  178.4880  145.1500 C   0  0  0  0  0  2  0  0  0  0  0  0
  186.4170  177.6210  145.2930 N   0  0  0  0  0  2  0  0  0  0  0  0
  185.2950  178.4740  145.6500 C   0  0  0  0  0  2  0  0  0  0  0  0
  182.1240  179.0020  143.6380 C   0  0  0  0  0  3  0  0  0  0  0  0
  184.8470  178.4750  143.1840 C   0  0  0  0  0  3  0  0  0  0  0  0
  182.2170  178.9450  139.9260 C   0  0  0  0  0  0  0  0  0  0  0  0
  181.7360  179.0490  141.2430 C   0  0  0  0  0  3  0  0  0  0  0  0
  182.6060  178.8920  142.3270 C   0  0  0  0  0  0  0  0  0  0  0  0
  184.4560  178.5260  140.7900 C   0  0  0  0  0  3  0  0  0  0  0  0
  183.9780  178.6280  142.0980 C   0  0  0  0  0  0  0  0  0  0  0  0
  183.5800  178.6840  139.7100 C   0  0  0  0  0  3  0  0  0  0  0  0
  184.3600  178.5830  144.4940 C   0  0  0  0  0  0  0  0  0  0  0  0
  183.0020  178.8530  144.7190 C   0  0  0  0  0  3  0  0  0  0  0  0
  181.3000  179.1060  138.7800 C   0  0  0  0  0  0  0  0  0  0  0  0
  180.4540  178.2090  138.5150 O   0  0  0  0  0  0  0  0  0  0  0  0
  181.3510  180.3210  137.9130 C   0  0  0  0  0  1  0  0  0  0  0  0
  1 19  1  0  0  0  0
  1 10  1  0  0  0  0
  3 14  1  0  0  0  0
  4  9  2  0  0  0  0
  5  8  2  0  0  0  0
  6  8  1  0  0  0  0
  7  3  2  0  0  0  0
  9 10  1  0  0  0  0
  9 11  1  0  0  0  0
 10  5  1  1  0  0  0
 11  6  2  0  0  0  0
 12  2  1  0  0  0  0
 13  3  1  0  0  0  0
 14 12  1  0  0  0  0
 14 15  1  0  0  0  0
 15 17  1  0  0  0  0
 16  2  1  6  0  0  0
 16 18  1  0  0  0  0
 16  4  1  0  0  0  0
 17 18  1  0  0  0  0
 18  1  2  0  0  0  0
 19 20  1  0  0  0  0
 20 21  1  0  0  0  0
 22 31  1  0  0  0  0
 23 30  1  0  0  0  0
 24 25  2  0  0  0  0
 25 26  1  0  0  0  0
 26 22  2  0  0  0  0
 27 28  1  0  0  0  0
 28 26  1  0  0  0  0
 28 23  2  0  0  0  0
 29 24  1  0  0  0  0
 29 27  2  0  0  0  0
 30 31  2  0  0  0  0
 30 21  1  0  0  0  0
 32 24  1  0  0  0  0
 33 32  2  0  0  0  0
 34 32  1  0  0  0  0
M  END
>  <MODEL>
5

>  <REMARK>
 VINA RESULT:      -9.3      2.866      7.931
  Name = 
  5 active torsions:
  status: ('A' for Active; 'I' for Inactive)
    1  A    between atoms: C_1  and  C_9
    2  A    between atoms: C_7  and  C_11
    3  A    between atoms: N_8  and  C_9
    4  A    between atoms: N_8  and  C_18
    5  A    between atoms: C_18  and  C_30
                            x       y       z     vdW  Elec       q    Type
                         _______ _______ _______ _____ _____    ______ ____

>  <TORSDO>
F 5

$$$$
=
 OpenBabel10262423123D

 34 38  0  0  1  0  0  0  0  0999 V2000
  181.4610  177.6090  140.1040 C   0  0  0  0  0  0  0  0  0  0  0  0
  179.4550  174.4100  139.8120 C   0  0  0  0  0  2  0  0  0  0  0  0
  181.0270  172.7230  137.2450 C   0  0  0  0  0  0  0  0  0  0  0  0
  179.2940  176.3120  141.3410 N   0  0  0  0  0  0  0  0  0  0  0  0
  181.2660  179.3790  141.9000 C   0  0  0  0  0  3  0  0  0  0  0  0
  179.8420  178.7980  143.7990 C   0  0  0  0  0  3  0  0  0  0  0  0
  182.1510  172.6570  136.6800 O   0  0  0  0  0  0  0  0  0  0  0  0
  180.9210  179.5880  143.1710 C   0  0  0  0  0  3  0  0  0  0  0  0
  179.6700  177.4520  141.8380 C   0  0  0  0  0  0  0  0  0  0  0  0
  180.5330  178.3930  141.0180 C   0  0  2  0  0  3  0  0  0  0  0  0
  179.2840  177.8070  143.1700 N   0  0  0  0  0  0  0  0  0  0  0  0
  179.2150  174.0650  138.3480 C   0  0  0  0  0  2  0  0  0  0  0  0
  180.3110  171.5220  137.5120 N   0  0  0  0  0  1  0  0  0  0  0  0
  180.4770  173.9960  137.6200 N   0  0  0  0  0  0  0  0  0  0  0  0
  181.2480  175.2170  137.4140 C   0  0  0  0  0  2  0  0  0  0  0  0
  179.6540  175.9120  139.9800 C   0  0  1  0  0  3  0  0  0  0  0  0
  181.9490  175.6010  138.7080 C   0  0  0  0  0  2  0  0  0  0  0  0
  181.0480  176.4090  139.6120 C   0  0  0  0  0  0  0  0  0  0  0  0
  182.7600  178.2260  139.6560 C   0  0  0  0  0  2  0  0  0  0  0  0
  183.8430  177.7900  140.5270 N   0  0  0  0  0  2  0  0  0  0  0  0
  184.5880  178.9790  140.9040 C   0  0  0  0  0  2  0  0  0  0  0  0
  185.1130  178.7810  144.6550 C   0  0  0  0  0  3  0  0  0  0  0  0
  186.5410  178.2470  142.2940 C   0  0  0  0  0  3  0  0  0  0  0  0
  188.3080  177.4950  146.0440 C   0  0  0  0  0  0  0  0  0  0  0  0
  187.0030  178.0160  145.9690 C   0  0  0  0  0  3  0  0  0  0  0  0
  186.4140  178.2680  144.7260 C   0  0  0  0  0  0  0  0  0  0  0  0
  188.4290  177.4790  143.6110 C   0  0  0  0  0  3  0  0  0  0  0  0
  187.1340  177.9980  143.5370 C   0  0  0  0  0  0  0  0  0  0  0  0
  189.0120  177.2290  144.8590 C   0  0  0  0  0  3  0  0  0  0  0  0
  185.2400  178.7630  142.2280 C   0  0  0  0  0  0  0  0  0  0  0  0
  184.5250  179.0230  143.4070 C   0  0  0  0  0  3  0  0  0  0  0  0
  188.9330  177.2320  147.3560 C   0  0  0  0  0  0  0  0  0  0  0  0
  189.9160  176.4480  147.4440 O   0  0  0  0  0  0  0  0  0  0  0  0
  188.4200  177.8790  148.6010 C   0  0  0  0  0  1  0  0  0  0  0  0
  1 10  1  0  0  0  0
  3 13  1  0  0  0  0
  3 14  1  0  0  0  0
  4  9  2  0  0  0  0
  5  8  2  0  0  0  0
  7  3  2  0  0  0  0
  8  6  1  0  0  0  0
  9 11  1  0  0  0  0
 10  9  1  0  0  0  0
 10  5  1  1  0  0  0
 11  6  2  0  0  0  0
 12  2  1  0  0  0  0
 14 12  1  0  0  0  0
 15 14  1  0  0  0  0
 15 17  1  0  0  0  0
 16  2  1  1  0  0  0
 16  4  1  0  0  0  0
 17 18  1  0  0  0  0
 18 16  1  0  0  0  0
 18  1  2  0  0  0  0
 19  1  1  0  0  0  0
 19 20  1  0  0  0  0
 20 21  1  0  0  0  0
 21 30  1  0  0  0  0
 22 26  1  0  0  0  0
 23 28  1  0  0  0  0
 24 32  1  0  0  0  0
 25 24  1  0  0  0  0
 26 25  2  0  0  0  0
 27 29  1  0  0  0  0
 28 27  2  0  0  0  0
 28 26  1  0  0  0  0
 29 24  2  0  0  0  0
 30 23  2  0  0  0  0
 30 31  1  0  0  0  0
 31 22  2  0  0  0  0
 32 33  2  0  0  0  0
 32 34  1  0  0  0  0
M  END
>  <MODEL>
6

>  <REMARK>
 VINA RESULT:      -9.3      3.565      5.947
  Name = 
  5 active torsions:
  status: ('A' for Active; 'I' for Inactive)
    1  A    between atoms: C_1  and  C_9
    2  A    between atoms: C_7  and  C_11
    3  A    between atoms: N_8  and  C_9
    4  A    between atoms: N_8  and  C_18
    5  A    between atoms: C_18  and  C_30
                            x       y       z     vdW  Elec       q    Type
                         _______ _______ _______ _____ _____    ______ ____

>  <TORSDO>
F 5

$$$$
=
 OpenBabel10262423123D

 34 38  0  0  1  0  0  0  0  0999 V2000
  182.1630  177.7340  140.0800 C   0  0  0  0  0  0  0  0  0  0  0  0
  184.5010  176.1690  137.5450 C   0  0  0  0  0  2  0  0  0  0  0  0
  187.4260  177.9510  137.9640 C   0  0  0  0  0  0  0  0  0  0  0  0
  182.1960  175.6590  138.1830 N   0  0  0  0  0  0  0  0  0  0  0  0
  179.8590  176.9250  140.7420 C   0  0  0  0  0  3  0  0  0  0  0  0
  179.2220  174.7360  139.8650 C   0  0  0  0  0  3  0  0  0  0  0  0
  188.0270  178.6280  138.8400 O   0  0  0  0  0  0  0  0  0  0  0  0
  179.0830  175.8440  140.8310 C   0  0  0  0  0  3  0  0  0  0  0  0
  181.1120  175.8090  138.8840 C   0  0  0  0  0  0  0  0  0  0  0  0
  180.8550  177.1120  139.6180 C   0  0  2  0  0  3  0  0  0  0  0  0
  180.1730  174.7330  138.9790 N   0  0  0  0  0  0  0  0  0  0  0  0
  185.3020  177.2460  136.8260 C   0  0  0  0  0  2  0  0  0  0  0  0
  188.1690  177.0410  137.1570 N   0  0  0  0  0  1  0  0  0  0  0  0
  186.0080  178.0910  137.7830 N   0  0  0  0  0  0  0  0  0  0  0  0
  185.2400  178.9660  138.6620 C   0  0  0  0  0  2  0  0  0  0  0  0
  183.1770  176.7350  138.0480 C   0  0  1  0  0  3  0  0  0  0  0  0
  184.6030  178.1430  139.7710 C   0  0  0  0  0  2  0  0  0  0  0  0
  183.2860  177.5460  139.3350 C   0  0  0  0  0  0  0  0  0  0  0  0
  182.1690  178.6500  141.2770 C   0  0  0  0  0  2  0  0  0  0  0  0
  182.8410  178.0000  142.3940 N   0  0  0  0  0  2  0  0  0  0  0  0
  182.9080  178.9750  143.4710 C   0  0  0  0  0  2  0  0  0  0  0  0
  185.1680  178.5400  146.4850 C   0  0  0  0  0  3  0  0  0  0  0  0
  185.3230  178.3360  143.6860 C   0  0  0  0  0  3  0  0  0  0  0  0
  188.7000  177.4760  146.0540 C   0  0  0  0  0  0  0  0  0  0  0  0
  187.4930  177.8680  146.6600 C   0  0  0  0  0  3  0  0  0  0  0  0
  186.3700  178.1560  145.8780 C   0  0  0  0  0  0  0  0  0  0  0  0
  187.6470  177.6610  143.8650 C   0  0  0  0  0  3  0  0  0  0  0  0
  186.4480  178.0520  144.4680 C   0  0  0  0  0  0  0  0  0  0  0  0
  188.7660  177.3750  144.6560 C   0  0  0  0  0  3  0  0  0  0  0  0
  184.1230  178.7230  144.2980 C   0  0  0  0  0  0  0  0  0  0  0  0
  184.0450  178.8180  145.6960 C   0  0  0  0  0  3  0  0  0  0  0  0
  189.8870  177.1760  146.8790 C   0  0  0  0  0  0  0  0  0  0  0  0
  189.9550  177.5910  148.0680 O   0  0  0  0  0  0  0  0  0  0  0  0
  191.0300  176.3840  146.3310 C   0  0  0  0  0  1  0  0  0  0  0  0
  1 19  1  0  0  0  0
  3  7  2  0  0  0  0
  4  9  2  0  0  0  0
  5  8  2  0  0  0  0
  6  8  1  0  0  0  0
  9 11  1  0  0  0  0
  9 10  1  0  0  0  0
 10  1  1  0  0  0  0
 10  5  1  1  0  0  0
 11  6  2  0  0  0  0
 12  2  1  0  0  0  0
 12 14  1  0  0  0  0
 13  3  1  0  0  0  0
 14  3  1  0  0  0  0
 14 15  1  0  0  0  0
 15 17  1  0  0  0  0
 16  2  1  1  0  0  0
 16  4  1  0  0  0  0
 16 18  1  0  0  0  0
 18 17  1  0  0  0  0
 18  1  2  0  0  0  0
 19 20  1  0  0  0  0
 20 21  1  0  0  0  0
 21 30  1  0  0  0  0
 23 30  2  0  0  0  0
 23 28  1  0  0  0  0
 24 25  1  0  0  0  0
 24 32  1  0  0  0  0
 26 22  1  0  0  0  0
 26 25  2  0  0  0  0
 27 28  2  0  0  0  0
 27 29  1  0  0  0  0
 28 26  1  0  0  0  0
 29 24  2  0  0  0  0
 30 31  1  0  0  0  0
 31 22  2  0  0  0  0
 32 33  2  0  0  0  0
 34 32  1  0  0  0  0
M  END
>  <MODEL>
7

>  <REMARK>
 VINA RESULT:      -9.3      2.081      3.085
  Name = 
  5 active torsions:
  status: ('A' for Active; 'I' for Inactive)
    1  A    between atoms: C_1  and  C_9
    2  A    between atoms: C_7  and  C_11
    3  A    between atoms: N_8  and  C_9
    4  A    between atoms: N_8  and  C_18
    5  A    between atoms: C_18  and  C_30
                            x       y       z     vdW  Elec       q    Type
                         _______ _______ _______ _____ _____    ______ ____

>  <TORSDO>
F 5

$$$$
=
 OpenBabel10262423123D

 34 38  0  0  1  0  0  0  0  0999 V2000
  182.3300  178.7050  138.8470 C   0  0  0  0  0  0  0  0  0  0  0  0
  180.8120  180.5430  135.9050 C   0  0  0  0  0  2  0  0  0  0  0  0
  181.2300  183.8620  136.7470 C   0  0  0  0  0  0  0  0  0  0  0  0
  181.1400  178.1620  136.3580 N   0  0  0  0  0  0  0  0  0  0  0  0
  182.7660  176.2210  139.0410 C   0  0  0  0  0  3  0  0  0  0  0  0
  182.4470  174.9340  136.9890 C   0  0  0  0  0  3  0  0  0  0  0  0
  181.9710  184.5920  137.4580 O   0  0  0  0  0  0  0  0  0  0  0  0
  183.0170  175.1150  138.3390 C   0  0  0  0  0  3  0  0  0  0  0  0
  181.5610  177.1480  137.0520 C   0  0  0  0  0  0  0  0  0  0  0  0
  181.8360  177.3010  138.5370 C   0  0  2  0  0  3  0  0  0  0  0  0
  181.7870  175.8900  136.4060 N   0  0  0  0  0  0  0  0  0  0  0  0
  179.9740  181.7180  136.3880 C   0  0  0  0  0  2  0  0  0  0  0  0
  180.8630  184.3040  135.4440 N   0  0  0  0  0  1  0  0  0  0  0  0
  180.7630  182.5980  137.2440 N   0  0  0  0  0  0  0  0  0  0  0  0
  181.2020  182.1160  138.5490 C   0  0  0  0  0  2  0  0  0  0  0  0
  180.8840  179.4620  136.9780 C   0  0  1  0  0  3  0  0  0  0  0  0
  182.3650  181.1520  138.3700 C   0  0  0  0  0  2  0  0  0  0  0  0
  181.8860  179.7460  138.0930 C   0  0  0  0  0  0  0  0  0  0  0  0
  183.1980  178.9370  140.0570 C   0  0  0  0  0  2  0  0  0  0  0  0
  182.7410  178.1040  141.1620 N   0  0  0  0  0  2  0  0  0  0  0  0
  182.5020  178.9910  142.2890 C   0  0  0  0  0  2  0  0  0  0  0  0
  184.2820  178.8540  145.6340 C   0  0  0  0  0  3  0  0  0  0  0  0
  184.8230  178.2970  142.9330 C   0  0  0  0  0  3  0  0  0  0  0  0
  187.7760  177.6180  145.8600 C   0  0  0  0  0  0  0  0  0  0  0  0
  186.5180  178.1260  146.2300 C   0  0  0  0  0  3  0  0  0  0  0  0
  185.5360  178.3540  145.2620 C   0  0  0  0  0  0  0  0  0  0  0  0
  187.0570  177.5650  143.5330 C   0  0  0  0  0  3  0  0  0  0  0  0
  185.8080  178.0710  143.9010 C   0  0  0  0  0  0  0  0  0  0  0  0
  188.0350  177.3390  144.5090 C   0  0  0  0  0  3  0  0  0  0  0  0
  183.5700  178.8010  143.3110 C   0  0  0  0  0  0  0  0  0  0  0  0
  183.3000  179.0720  144.6610 C   0  0  0  0  0  3  0  0  0  0  0  0
  188.8160  177.3800  146.8820 C   0  0  0  0  0  0  0  0  0  0  0  0
  189.9000  176.8220  146.5640 O   0  0  0  0  0  0  0  0  0  0  0  0
  188.6110  177.7890  148.3040 C   0  0  0  0  0  1  0  0  0  0  0  0
  1 19  1  0  0  0  0
  2 12  1  0  0  0  0
  3 14  1  0  0  0  0
  3  7  2  0  0  0  0
  4 16  1  0  0  0  0
  4  9  2  0  0  0  0
  6  8  1  0  0  0  0
  8  5  2  0  0  0  0
  9 10  1  0  0  0  0
 10  1  1  0  0  0  0
 10  5  1  6  0  0  0
 11  6  2  0  0  0  0
 11  9  1  0  0  0  0
 12 14  1  0  0  0  0
 13  3  1  0  0  0  0
 14 15  1  0  0  0  0
 16  2  1  6  0  0  0
 16 18  1  0  0  0  0
 17 15  1  0  0  0  0
 18 17  1  0  0  0  0
 18  1  2  0  0  0  0
 19 20  1  0  0  0  0
 20 21  1  0  0  0  0
 21 30  1  0  0  0  0
 23 30  2  0  0  0  0
 23 28  1  0  0  0  0
 24 25  1  0  0  0  0
 24 32  1  0  0  0  0
 26 22  1  0  0  0  0
 26 25  2  0  0  0  0
 27 28  2  0  0  0  0
 27 29  1  0  0  0  0
 28 26  1  0  0  0  0
 29 24  2  0  0  0  0
 30 31  1  0  0  0  0
 31 22  2  0  0  0  0
 32 34  1  0  0  0  0
 33 32  2  0  0  0  0
M  END
>  <MODEL>
8

>  <REMARK>
 VINA RESULT:      -9.2      3.422      5.836
  Name = 
  5 active torsions:
  status: ('A' for Active; 'I' for Inactive)
    1  A    between atoms: C_1  and  C_9
    2  A    between atoms: C_7  and  C_11
    3  A    between atoms: N_8  and  C_9
    4  A    between atoms: N_8  and  C_18
    5  A    between atoms: C_18  and  C_30
                            x       y       z     vdW  Elec       q    Type
                         _______ _______ _______ _____ _____    ______ ____

>  <TORSDO>
F 5

$$$$
=
 OpenBabel10262423123D

 34 38  0  0  1  0  0  0  0  0999 V2000
  184.7310  177.9490  138.0830 C   0  0  0  0  0  0  0  0  0  0  0  0
  183.0340  174.9090  136.5950 C   0  0  0  0  0  2  0  0  0  0  0  0
  179.7500  175.2720  137.5880 C   0  0  0  0  0  0  0  0  0  0  0  0
  185.3360  175.7260  136.4720 N   0  0  0  0  0  0  0  0  0  0  0  0
  187.0990  178.7370  137.6700 C   0  0  0  0  0  3  0  0  0  0  0  0
  188.2990  177.5720  135.8890 C   0  0  0  0  0  3  0  0  0  0  0  0
  178.9400  176.1730  137.9320 O   0  0  0  0  0  0  0  0  0  0  0  0
  188.0960  178.7290  136.7840 C   0  0  0  0  0  3  0  0  0  0  0  0
  186.2950  176.5710  136.7070 C   0  0  0  0  0  0  0  0  0  0  0  0
  186.1810  177.5500  137.8610 C   0  0  2  0  0  3  0  0  0  0  0  0
  187.4490  176.5890  135.8600 N   0  0  0  0  0  0  0  0  0  0  0  0
  182.0640  174.2980  137.5970 C   0  0  0  0  0  2  0  0  0  0  0  0
  179.3080  174.2320  136.7220 N   0  0  0  0  0  1  0  0  0  0  0  0
  181.1060  175.2950  138.0620 N   0  0  0  0  0  0  0  0  0  0  0  0
  181.5750  176.4030  138.8870 C   0  0  0  0  0  2  0  0  0  0  0  0
  184.1450  175.6630  137.3190 C   0  0  1  0  0  3  0  0  0  0  0  0
  182.2960  177.4190  138.0140 C   0  0  0  0  0  2  0  0  0  0  0  0
  183.7470  177.0500  137.8120 C   0  0  0  0  0  0  0  0  0  0  0  0
  184.4150  179.2790  138.7180 C   0  0  0  0  0  2  0  0  0  0  0  0
  185.0290  179.3580  140.0360 N   0  0  0  0  0  2  0  0  0  0  0  0
  184.1370  178.6760  140.9590 C   0  0  0  0  0  2  0  0  0  0  0  0
  184.6880  178.5490  144.7090 C   0  0  0  0  0  3  0  0  0  0  0  0
  186.1450  178.1040  142.3470 C   0  0  0  0  0  3  0  0  0  0  0  0
  187.9750  177.5180  146.0970 C   0  0  0  0  0  0  0  0  0  0  0  0
  186.6350  177.9390  146.0220 C   0  0  0  0  0  3  0  0  0  0  0  0
  186.0240  178.1360  144.7800 C   0  0  0  0  0  0  0  0  0  0  0  0
  188.0890  177.4910  143.6630 C   0  0  0  0  0  3  0  0  0  0  0  0
  186.7580  177.9100  143.5900 C   0  0  0  0  0  0  0  0  0  0  0  0
  188.6930  177.2960  144.9110 C   0  0  0  0  0  3  0  0  0  0  0  0
  184.8080  178.5210  142.2820 C   0  0  0  0  0  0  0  0  0  0  0  0
  184.0800  178.7360  143.4620 C   0  0  0  0  0  3  0  0  0  0  0  0
  188.6220  177.3140  147.4080 C   0  0  0  0  0  0  0  0  0  0  0  0
  189.4810  176.4030  147.5560 O   0  0  0  0  0  0  0  0  0  0  0  0
  188.2770  178.1710  148.5830 C   0  0  0  0  0  1  0  0  0  0  0  0
  1 19  1  0  0  0  0
  2 12  1  0  0  0  0
  3  7  2  0  0  0  0
  3 14  1  0  0  0  0
  4  9  2  0  0  0  0
  4 16  1  0  0  0  0
  6  8  1  0  0  0  0
  8  5  2  0  0  0  0
  9 10  1  0  0  0  0
 10  5  1  6  0  0  0
 10  1  1  0  0  0  0
 11  6  2  0  0  0  0
 11  9  1  0  0  0  0
 12 14  1  0  0  0  0
 13  3  1  0  0  0  0
 14 15  1  0  0  0  0
 16  2  1  6  0  0  0
 16 18  1  0  0  0  0
 17 15  1  0  0  0  0
 18 17  1  0  0  0  0
 18  1  2  0  0  0  0
 19 20  1  0  0  0  0
 20 21  1  0  0  0  0
 21 30  1  0  0  0  0
 22 26  1  0  0  0  0
 23 28  1  0  0  0  0
 24 32  1  0  0  0  0
 25 24  1  0  0  0  0
 26 25  2  0  0  0  0
 27 29  1  0  0  0  0
 28 27  2  0  0  0  0
 28 26  1  0  0  0  0
 29 24  2  0  0  0  0
 30 23  2  0  0  0  0
 30 31  1  0  0  0  0
 31 22  2  0  0  0  0
 32 33  2  0  0  0  0
 32 34  1  0  0  0  0
M  END
>  <MODEL>
9

>  <REMARK>
 VINA RESULT:      -9.2      2.999      5.507
  Name = 
  5 active torsions:
  status: ('A' for Active; 'I' for Inactive)
    1  A    between atoms: C_1  and  C_9
    2  A    between atoms: C_7  and  C_11
    3  A    between atoms: N_8  and  C_9
    4  A    between atoms: N_8  and  C_18
    5  A    between atoms: C_18  and  C_30
                            x       y       z     vdW  Elec       q    Type
                         _______ _______ _______ _____ _____    ______ ____

>  <TORSDO>
F 5

$$$$
