=
 OpenBabel10262423023D

 37 45  0  0  1  0  0  0  0  0999 V2000
  190.0280  177.6910  140.6980 O   0  0  0  0  0  0  0  0  0  0  0  0
  191.7340  177.4960  145.0640 C   0  0  0  0  0  2  0  0  0  0  0  0
  187.4840  177.5000  144.4270 C   0  0  0  0  0  0  0  0  0  0  0  0
  190.0910  177.1180  139.4110 C   0  0  0  0  0  0  0  0  0  0  0  0
  185.7120  178.2880  141.0820 C   0  0  0  0  0  2  0  0  0  0  0  0
  189.3450  177.6780  146.0740 C   0  0  1  0  0  3  0  0  0  0  0  0
  187.1730  177.6520  142.9750 C   0  0  1  0  0  3  0  0  0  0  0  0
  190.2100  175.6150  139.2930 C   0  0  0  0  0  2  0  0  0  0  0  0
  188.7840  177.6430  144.6670 C   0  0  0  0  0  0  0  0  0  0  0  0
  185.9360  178.4840  142.5900 C   0  0  2  0  0  3  0  0  0  0  0  0
  188.4500  176.9600  147.0510 C   0  0  0  0  0  3  0  0  0  0  0  0
  189.5450  177.8450  138.3230 O   0  0  0  0  0  0  0  0  0  0  0  0
  189.5410  177.9960  143.4280 C   0  0  2  0  0  3  0  0  0  0  0  0
  191.8080  179.0050  143.1020 C   0  0  0  0  0  2  0  0  0  0  0  0
  185.5400  178.2460  145.7390 C   0  0  0  0  0  3  0  0  0  0  0  0
  191.4340  176.5060  139.1000 C   0  0  0  0  0  2  0  0  0  0  0  0
  187.1550  176.7150  146.7910 C   0  0  0  0  0  3  0  0  0  0  0  0
  190.4210  179.2250  143.6720 C   0  0  2  0  0  3  0  0  0  0  0  0
  188.1860  178.1640  138.5880 C   0  0  2  0  0  3  0  0  0  0  0  0
  186.5730  179.2550  140.2730 C   0  0  0  0  0  2  0  0  0  0  0  0
  186.4900  177.1200  145.4970 C   0  0  2  0  0  3  0  0  0  0  0  0
  188.4320  178.3200  142.4280 C   0  0  1  0  0  3  0  0  0  0  0  0
  190.7800  177.1470  146.2120 C   0  0  0  0  0  2  0  0  0  0  0  0
  184.6700  178.1070  143.3980 C   0  0  1  0  0  3  0  0  0  0  0  0
  191.6140  178.9510  144.6040 C   0  0  1  0  0  3  0  0  0  0  0  0
  188.0070  178.7670  139.9870 C   0  0  1  0  0  3  0  0  0  0  0  0
  188.6630  177.8260  141.0050 C   0  0  1  0  0  3  0  0  0  0  0  0
  184.7140  178.6900  144.7860 C   0  0  0  0  0  3  0  0  0  0  0  0
  183.2320  178.4880  141.3450 C   0  0  0  0  0  3  0  0  0  0  0  0
  183.3900  178.5390  142.7400 C   0  0  0  0  0  0  0  0  0  0  0  0
  182.3340  178.9960  143.5380 C   0  0  0  0  0  3  0  0  0  0  0  0
  180.1130  179.8410  143.7270 F   0  0  0  0  0  0  0  0  0  0  0  0
  180.9790  179.3470  141.5610 C   0  0  0  0  0  3  0  0  0  0  0  0
  181.1310  179.3990  142.9500 C   0  0  0  0  0  0  0  0  0  0  0  0
  182.0300  178.8910  140.7590 C   0  0  0  0  0  3  0  0  0  0  0  0
  187.2710  176.9640  138.3370 C   0  0  0  0  0  2  0  0  0  0  0  0
  186.3970  177.2170  137.1240 C   0  0  0  0  0  1  0  0  0  0  0  0
  1 27  1  0  0  0  0
  2 23  1  0  0  0  0
  3  9  2  0  0  0  0
  3 21  1  0  0  0  0
  4  1  1  0  0  0  0
  6 23  1  6  0  0  0
  6 11  1  0  0  0  0
  7  3  1  1  0  0  0
  8  4  1  0  0  0  0
  9  6  1  0  0  0  0
 10  5  1  6  0  0  0
 10  7  1  0  0  0  0
 10 24  1  0  0  0  0
 12 19  1  0  0  0  0
 12  4  1  0  0  0  0
 13 18  1  0  0  0  0
 13  9  1  1  0  0  0
 14 25  1  0  0  0  0
 16  8  1  0  0  0  0
 16  4  1  0  0  0  0
 17 11  2  0  0  0  0
 18 14  1  6  0  0  0
 18 25  1  0  0  0  0
 19 36  1  1  0  0  0
 19 26  1  0  0  0  0
 20  5  1  0  0  0  0
 21 15  1  1  0  0  0
 21 17  1  0  0  0  0
 22  7  1  0  0  0  0
 22 13  1  0  0  0  0
 24 28  1  0  0  0  0
 25  2  1  0  0  0  0
 26 20  1  0  0  0  0
 26 27  1  0  0  0  0
 27 22  1  0  0  0  0
 28 15  2  0  0  0  0
 29 30  1  0  0  0  0
 30 24  1  0  0  0  0
 30 31  2  0  0  0  0
 33 34  2  0  0  0  0
 34 31  1  0  0  0  0
 34 32  1  0  0  0  0
 35 29  2  0  0  0  0
 35 33  1  0  0  0  0
 37 36  1  0  0  0  0
M  END
>  <MODEL>
1

>  <REMARK>
 VINA RESULT:      -8.9      0.000      0.000
  Name = 
  2 active torsions:
  status: ('A' for Active; 'I' for Inactive)
    1  A    between atoms: C_6  and  C_31
    2  A    between atoms: C_11  and  C_26
                            x       y       z     vdW  Elec       q    Type
                         _______ _______ _______ _____ _____    ______ ____

>  <TORSDO>
F 2

$$$$
=
 OpenBabel10262423023D

 37 45  0  0  1  0  0  0  0  0999 V2000
  190.5910  177.2990  140.0210 O   0  0  0  0  0  0  0  0  0  0  0  0
  191.4920  177.2560  144.6250 C   0  0  0  0  0  2  0  0  0  0  0  0
  187.4360  177.5760  143.2430 C   0  0  0  0  0  0  0  0  0  0  0  0
  190.8200  176.6370  138.7970 C   0  0  0  0  0  0  0  0  0  0  0  0
  186.3490  178.2830  139.6000 C   0  0  0  0  0  2  0  0  0  0  0  0
  188.9930  177.7060  145.1840 C   0  0  1  0  0  3  0  0  0  0  0  0
  187.3950  177.6550  141.7530 C   0  0  1  0  0  3  0  0  0  0  0  0
  190.8140  175.1250  138.7800 C   0  0  0  0  0  2  0  0  0  0  0  0
  188.6820  177.6240  143.7020 C   0  0  0  0  0  0  0  0  0  0  0  0
  186.3280  178.5600  141.1110 C   0  0  2  0  0  3  0  0  0  0  0  0
  187.8790  177.1340  146.0210 C   0  0  0  0  0  3  0  0  0  0  0  0
  190.5410  177.3330  137.5940 O   0  0  0  0  0  0  0  0  0  0  0  0
  189.6720  177.8270  142.6010 C   0  0  2  0  0  3  0  0  0  0  0  0
  192.0470  178.6170  142.6320 C   0  0  0  0  0  2  0  0  0  0  0  0
  185.3740  178.5700  144.1480 C   0  0  0  0  0  3  0  0  0  0  0  0
  192.1320  175.8940  138.7620 C   0  0  0  0  0  2  0  0  0  0  0  0
  186.6310  176.9820  145.5490 C   0  0  0  0  0  3  0  0  0  0  0  0
  190.6090  178.9910  142.9340 C   0  0  2  0  0  3  0  0  0  0  0  0
  189.1930  177.7820  137.5960 C   0  0  2  0  0  3  0  0  0  0  0  0
  187.4250  179.1170  138.9080 C   0  0  0  0  0  2  0  0  0  0  0  0
  186.2400  177.3530  144.1370 C   0  0  2  0  0  3  0  0  0  0  0  0
  188.7880  178.1760  141.4050 C   0  0  1  0  0  3  0  0  0  0  0  0
  190.3260  177.0670  145.6010 C   0  0  0  0  0  2  0  0  0  0  0  0
  184.9120  178.3470  141.7010 C   0  0  1  0  0  3  0  0  0  0  0  0
  191.5920  178.6810  144.0770 C   0  0  1  0  0  3  0  0  0  0  0  0
  188.8340  178.4920  138.9070 C   0  0  1  0  0  3  0  0  0  0  0  0
  189.2120  177.5690  140.0730 C   0  0  1  0  0  3  0  0  0  0  0  0
  184.7710  179.0160  143.0420 C   0  0  0  0  0  3  0  0  0  0  0  0
  184.0860  179.6280  139.6740 C   0  0  0  0  0  3  0  0  0  0  0  0
  183.8110  178.8400  140.8030 C   0  0  0  0  0  0  0  0  0  0  0  0
  182.4860  178.5010  141.1020 C   0  0  0  0  0  3  0  0  0  0  0  0
  180.1640  178.6120  140.5740 F   0  0  0  0  0  0  0  0  0  0  0  0
  181.7230  179.7270  139.1580 C   0  0  0  0  0  3  0  0  0  0  0  0
  181.4450  178.9430  140.2800 C   0  0  0  0  0  0  0  0  0  0  0  0
  183.0440  180.0690  138.8550 C   0  0  0  0  0  3  0  0  0  0  0  0
  188.2250  176.6500  137.2480 C   0  0  0  0  0  2  0  0  0  0  0  0
  187.6050  176.8910  135.8860 C   0  0  0  0  0  1  0  0  0  0  0  0
  1 27  1  0  0  0  0
  2 23  1  0  0  0  0
  3  9  2  0  0  0  0
  3 21  1  0  0  0  0
  4  1  1  0  0  0  0
  6 23  1  6  0  0  0
  6 11  1  0  0  0  0
  7  3  1  1  0  0  0
  8  4  1  0  0  0  0
  9  6  1  0  0  0  0
 10  5  1  6  0  0  0
 10 24  1  0  0  0  0
 10  7  1  0  0  0  0
 12 19  1  0  0  0  0
 12  4  1  0  0  0  0
 13 18  1  0  0  0  0
 13  9  1  1  0  0  0
 14 25  1  0  0  0  0
 16  8  1  0  0  0  0
 16  4  1  0  0  0  0
 17 11  2  0  0  0  0
 18 14  1  6  0  0  0
 18 25  1  0  0  0  0
 19 36  1  1  0  0  0
 19 26  1  0  0  0  0
 20  5  1  0  0  0  0
 21 15  1  1  0  0  0
 21 17  1  0  0  0  0
 22  7  1  0  0  0  0
 22 13  1  0  0  0  0
 24 28  1  0  0  0  0
 25  2  1  0  0  0  0
 26 20  1  0  0  0  0
 26 27  1  0  0  0  0
 27 22  1  0  0  0  0
 28 15  2  0  0  0  0
 29 30  1  0  0  0  0
 30 31  2  0  0  0  0
 30 24  1  0  0  0  0
 33 34  2  0  0  0  0
 34 32  1  0  0  0  0
 34 31  1  0  0  0  0
 35 33  1  0  0  0  0
 35 29  2  0  0  0  0
 37 36  1  0  0  0  0
M  END
>  <MODEL>
2

>  <REMARK>
 VINA RESULT:      -8.1      1.272      1.589
  Name = 
  2 active torsions:
  status: ('A' for Active; 'I' for Inactive)
    1  A    between atoms: C_6  and  C_31
    2  A    between atoms: C_11  and  C_26
                            x       y       z     vdW  Elec       q    Type
                         _______ _______ _______ _____ _____    ______ ____

>  <TORSDO>
F 2

$$$$
=
 OpenBabel10262423023D

 37 45  0  0  1  0  0  0  0  0999 V2000
  185.2140  177.9870  138.0070 O   0  0  0  0  0  0  0  0  0  0  0  0
  189.6650  177.5860  136.5800 C   0  0  0  0  0  2  0  0  0  0  0  0
  188.7230  177.2590  140.7590 C   0  0  0  0  0  0  0  0  0  0  0  0
  183.8950  177.5310  137.8060 C   0  0  0  0  0  0  0  0  0  0  0  0
  185.3270  178.1580  142.3770 C   0  0  0  0  0  2  0  0  0  0  0  0
  190.5100  177.4670  139.0360 C   0  0  1  0  0  3  0  0  0  0  0  0
  187.2680  177.5020  140.9880 C   0  0  1  0  0  3  0  0  0  0  0  0
  183.6720  176.0600  137.5360 C   0  0  0  0  0  2  0  0  0  0  0  0
  189.0670  177.4990  139.4980 C   0  0  0  0  0  0  0  0  0  0  0  0
  186.8580  178.2480  142.2720 C   0  0  2  0  0  3  0  0  0  0  0  0
  191.3610  176.5930  139.9200 C   0  0  0  0  0  3  0  0  0  0  0  0
  182.8300  178.2930  138.3470 O   0  0  0  0  0  0  0  0  0  0  0  0
  187.9170  178.0200  138.6990 C   0  0  2  0  0  3  0  0  0  0  0  0
  187.8350  179.2530  136.5220 C   0  0  0  0  0  2  0  0  0  0  0  0
  189.9420  177.7150  142.8480 C   0  0  0  0  0  3  0  0  0  0  0  0
  183.6370  177.0700  136.3930 C   0  0  0  0  0  2  0  0  0  0  0  0
  190.9900  176.2550  141.1650 C   0  0  0  0  0  3  0  0  0  0  0  0
  188.3170  179.2990  137.9580 C   0  0  2  0  0  3  0  0  0  0  0  0
  183.0180  178.4640  139.7440 C   0  0  2  0  0  3  0  0  0  0  0  0
  184.6590  179.2630  141.5610 C   0  0  0  0  0  2  0  0  0  0  0  0
  189.6850  176.7030  141.7800 C   0  0  2  0  0  3  0  0  0  0  0  0
  186.8670  178.3240  139.7660 C   0  0  1  0  0  3  0  0  0  0  0  0
  190.7110  177.0590  137.5690 C   0  0  0  0  0  2  0  0  0  0  0  0
  187.5410  177.6930  143.5450 C   0  0  1  0  0  3  0  0  0  0  0  0
  189.3100  179.0580  136.8080 C   0  0  1  0  0  3  0  0  0  0  0  0
  184.4420  178.9320  140.0720 C   0  0  1  0  0  3  0  0  0  0  0  0
  185.4300  177.9730  139.3960 C   0  0  1  0  0  3  0  0  0  0  0  0
  188.9690  178.1600  143.6480 C   0  0  0  0  0  3  0  0  0  0  0  0
  185.5070  178.5410  144.7980 C   0  0  0  0  0  3  0  0  0  0  0  0
  186.8260  178.0600  144.8160 C   0  0  0  0  0  0  0  0  0  0  0  0
  187.4920  177.9140  146.0380 C   0  0  0  0  0  3  0  0  0  0  0  0
  187.4960  178.1020  148.4140 F   0  0  0  0  0  0  0  0  0  0  0  0
  185.5340  178.7230  147.2120 C   0  0  0  0  0  3  0  0  0  0  0  0
  186.8470  178.2450  147.2340 C   0  0  0  0  0  0  0  0  0  0  0  0
  184.8640  178.8710  145.9940 C   0  0  0  0  0  3  0  0  0  0  0  0
  182.6100  177.2120  140.5220 C   0  0  0  0  0  2  0  0  0  0  0  0
  181.1730  176.8450  140.2070 C   0  0  0  0  0  1  0  0  0  0  0  0
  1 27  1  0  0  0  0
  2 25  1  0  0  0  0
  2 23  1  0  0  0  0
  3 21  1  0  0  0  0
  4  1  1  0  0  0  0
  4 12  1  0  0  0  0
  6 23  1  6  0  0  0
  6  9  1  0  0  0  0
  6 11  1  0  0  0  0
  7  3  1  1  0  0  0
  7 10  1  0  0  0  0
  8  4  1  0  0  0  0
  9  3  2  0  0  0  0
 10  5  1  1  0  0  0
 10 24  1  0  0  0  0
 11 17  2  0  0  0  0
 12 19  1  0  0  0  0
 13  9  1  1  0  0  0
 13 22  1  0  0  0  0
 14 25  1  0  0  0  0
 15 28  2  0  0  0  0
 16  8  1  0  0  0  0
 16  4  1  0  0  0  0
 18 14  1  6  0  0  0
 18 13  1  0  0  0  0
 19 26  1  0  0  0  0
 19 36  1  1  0  0  0
 20  5  1  0  0  0  0
 21 17  1  6  0  0  0
 21 15  1  0  0  0  0
 22  7  1  0  0  0  0
 24 28  1  0  0  0  0
 24 30  1  0  0  0  0
 25 18  1  0  0  0  0
 26 20  1  0  0  0  0
 27 22  1  0  0  0  0
 27 26  1  0  0  0  0
 29 30  2  0  0  0  0
 29 35  1  0  0  0  0
 30 31  1  0  0  0  0
 31 34  2  0  0  0  0
 33 34  1  0  0  0  0
 34 32  1  0  0  0  0
 35 33  2  0  0  0  0
 37 36  1  0  0  0  0
M  END
>  <MODEL>
3

>  <REMARK>
 VINA RESULT:      -8.0      2.529      5.872
  Name = 
  2 active torsions:
  status: ('A' for Active; 'I' for Inactive)
    1  A    between atoms: C_6  and  C_31
    2  A    between atoms: C_11  and  C_26
                            x       y       z     vdW  Elec       q    Type
                         _______ _______ _______ _____ _____    ______ ____

>  <TORSDO>
F 2

$$$$
=
 OpenBabel10262423023D

 37 45  0  0  1  0  0  0  0  0999 V2000
  188.6950  177.5340  140.6450 O   0  0  0  0  0  0  0  0  0  0  0  0
  185.6170  176.6950  137.2040 C   0  0  0  0  0  2  0  0  0  0  0  0
  189.5450  174.9620  137.0280 C   0  0  0  0  0  0  0  0  0  0  0  0
  188.8920  177.5210  142.0400 C   0  0  0  0  0  0  0  0  0  0  0  0
  192.5290  175.9150  139.2950 C   0  0  0  0  0  2  0  0  0  0  0  0
  187.4090  175.4100  135.8270 C   0  0  1  0  0  3  0  0  0  0  0  0
  190.3760  175.4290  138.1770 C   0  0  1  0  0  3  0  0  0  0  0  0
  188.3130  176.3780  142.8430 C   0  0  0  0  0  2  0  0  0  0  0  0
  188.3780  175.5950  136.9780 C   0  0  0  0  0  0  0  0  0  0  0  0
  191.8750  175.6750  137.9260 C   0  0  2  0  0  3  0  0  0  0  0  0
  187.6020  174.0820  135.1420 C   0  0  0  0  0  3  0  0  0  0  0  0
  189.9980  178.2330  142.5700 O   0  0  0  0  0  0  0  0  0  0  0  0
  188.2720  176.6470  138.0330 C   0  0  2  0  0  3  0  0  0  0  0  0
  186.7560  178.6280  138.2530 C   0  0  0  0  0  2  0  0  0  0  0  0
  191.0390  174.2440  135.2090 C   0  0  0  0  0  3  0  0  0  0  0  0
  187.6200  177.7370  142.8210 C   0  0  0  0  0  2  0  0  0  0  0  0
  188.7370  173.3730  135.2570 C   0  0  0  0  0  3  0  0  0  0  0  0
  187.8420  177.9810  137.4160 C   0  0  2  0  0  3  0  0  0  0  0  0
  191.1990  177.7830  141.9600 C   0  0  2  0  0  3  0  0  0  0  0  0
  192.3930  177.3780  139.7150 C   0  0  0  0  0  2  0  0  0  0  0  0
  189.9070  173.8340  136.0930 C   0  0  2  0  0  3  0  0  0  0  0  0
  189.6990  176.7400  138.5710 C   0  0  1  0  0  3  0  0  0  0  0  0
  185.9280  175.5860  136.1930 C   0  0  0  0  0  2  0  0  0  0  0  0
  192.5660  174.5140  137.1700 C   0  0  1  0  0  3  0  0  0  0  0  0
  186.3830  177.9920  136.9290 C   0  0  1  0  0  3  0  0  0  0  0  0
  191.0750  177.7290  140.4330 C   0  0  1  0  0  3  0  0  0  0  0  0
  189.8240  176.9150  140.0800 C   0  0  1  0  0  3  0  0  0  0  0  0
  192.2430  174.5500  135.7000 C   0  0  0  0  0  3  0  0  0  0  0  0
  194.6810  173.7510  138.3440 C   0  0  0  0  0  3  0  0  0  0  0  0
  194.0610  174.5020  137.3310 C   0  0  0  0  0  0  0  0  0  0  0  0
  194.8460  175.2530  136.4490 C   0  0  0  0  0  3  0  0  0  0  0  0
  196.9940  175.9830  135.7180 F   0  0  0  0  0  0  0  0  0  0  0  0
  196.8510  174.5070  137.5840 C   0  0  0  0  0  3  0  0  0  0  0  0
  196.2390  175.2550  136.5750 C   0  0  0  0  0  0  0  0  0  0  0  0
  196.0720  173.7550  138.4680 C   0  0  0  0  0  3  0  0  0  0  0  0
  191.6730  176.4590  142.5650 C   0  0  0  0  0  2  0  0  0  0  0  0
  191.6800  176.5480  144.0780 C   0  0  0  0  0  1  0  0  0  0  0  0
  1  4  1  0  0  0  0
  4 12  1  0  0  0  0
  4 16  1  0  0  0  0
  4  8  1  0  0  0  0
  5 20  1  0  0  0  0
  6 11  1  1  0  0  0
  6 23  1  0  0  0  0
  6  9  1  0  0  0  0
  7  3  1  6  0  0  0
  7 22  1  0  0  0  0
  9  3  2  0  0  0  0
 10  7  1  0  0  0  0
 10  5  1  1  0  0  0
 11 17  2  0  0  0  0
 13  9  1  6  0  0  0
 13 22  1  0  0  0  0
 15 28  2  0  0  0  0
 16  8  1  0  0  0  0
 17 21  1  0  0  0  0
 18 13  1  0  0  0  0
 18 14  1  1  0  0  0
 19 36  1  1  0  0  0
 19 12  1  0  0  0  0
 20 26  1  0  0  0  0
 21 15  1  6  0  0  0
 21  3  1  0  0  0  0
 22 27  1  0  0  0  0
 23  2  1  0  0  0  0
 24 30  1  0  0  0  0
 24 10  1  0  0  0  0
 25  2  1  0  0  0  0
 25 18  1  0  0  0  0
 25 14  1  0  0  0  0
 26 19  1  0  0  0  0
 27 26  1  0  0  0  0
 27  1  1  0  0  0  0
 28 24  1  0  0  0  0
 29 35  1  0  0  0  0
 30 29  2  0  0  0  0
 31 34  2  0  0  0  0
 31 30  1  0  0  0  0
 32 34  1  0  0  0  0
 33 35  2  0  0  0  0
 34 33  1  0  0  0  0
 36 37  1  0  0  0  0
M  END
>  <MODEL>
4

>  <REMARK>
 VINA RESULT:      -7.9      4.388      9.964
  Name = 
  2 active torsions:
  status: ('A' for Active; 'I' for Inactive)
    1  A    between atoms: C_6  and  C_31
    2  A    between atoms: C_11  and  C_26
                            x       y       z     vdW  Elec       q    Type
                         _______ _______ _______ _____ _____    ______ ____

>  <TORSDO>
F 2

$$$$
=
 OpenBabel10262423023D

 37 45  0  0  1  0  0  0  0  0999 V2000
  183.7600  177.6170  137.9300 O   0  0  0  0  0  0  0  0  0  0  0  0
  180.1440  174.8260  136.8580 C   0  0  0  0  0  2  0  0  0  0  0  0
  184.1470  173.2670  136.7710 C   0  0  0  0  0  0  0  0  0  0  0  0
  184.2720  178.5240  138.8800 C   0  0  0  0  0  0  0  0  0  0  0  0
  187.3850  175.3710  136.9560 C   0  0  0  0  0  2  0  0  0  0  0  0
  181.7490  172.8870  136.2100 C   0  0  1  0  0  3  0  0  0  0  0  0
  185.1360  174.3470  137.0620 C   0  0  1  0  0  3  0  0  0  0  0  0
  184.0770  178.2200  140.3490 C   0  0  0  0  0  2  0  0  0  0  0  0
  182.9150  173.7510  136.6470 C   0  0  0  0  0  0  0  0  0  0  0  0
  186.4800  174.3090  136.3120 C   0  0  2  0  0  3  0  0  0  0  0  0
  181.9830  171.4320  136.5240 C   0  0  0  0  0  3  0  0  0  0  0  0
  185.3450  179.3670  138.4960 O   0  0  0  0  0  0  0  0  0  0  0  0
  182.8920  175.2420  136.7520 C   0  0  2  0  0  3  0  0  0  0  0  0
  181.1780  176.9260  136.0500 C   0  0  0  0  0  2  0  0  0  0  0  0
  185.2760  171.4710  135.5230 C   0  0  0  0  0  3  0  0  0  0  0  0
  183.1940  179.2490  139.6470 C   0  0  0  0  0  2  0  0  0  0  0  0
  183.2100  170.9350  136.7510 C   0  0  0  0  0  3  0  0  0  0  0  0
  182.1300  175.8480  135.5700 C   0  0  2  0  0  3  0  0  0  0  0  0
  186.4290  178.5820  138.0210 C   0  0  2  0  0  3  0  0  0  0  0  0
  187.1240  176.7490  136.3510 C   0  0  0  0  0  2  0  0  0  0  0  0
  184.4550  171.7900  136.7290 C   0  0  2  0  0  3  0  0  0  0  0  0
  184.3720  175.6140  136.6840 C   0  0  1  0  0  3  0  0  0  0  0  0
  180.3820  173.3150  136.7650 C   0  0  0  0  0  2  0  0  0  0  0  0
  187.1510  172.9140  136.3310 C   0  0  1  0  0  3  0  0  0  0  0  0
  180.6150  175.5870  135.6170 C   0  0  1  0  0  3  0  0  0  0  0  0
  185.9680  177.5360  136.9980 C   0  0  1  0  0  3  0  0  0  0  0  0
  184.8110  176.7390  137.6140 C   0  0  1  0  0  3  0  0  0  0  0  0
  186.4990  171.9800  135.3460 C   0  0  0  0  0  3  0  0  0  0  0  0
  189.1500  172.4570  134.8400 C   0  0  0  0  0  3  0  0  0  0  0  0
  188.6260  172.9570  136.0430 C   0  0  0  0  0  0  0  0  0  0  0  0
  189.4900  173.5100  136.9950 C   0  0  0  0  0  3  0  0  0  0  0  0
  191.6970  174.1030  137.6740 F   0  0  0  0  0  0  0  0  0  0  0  0
  191.3820  173.0670  135.5510 C   0  0  0  0  0  3  0  0  0  0  0  0
  190.8650  173.5660  136.7490 C   0  0  0  0  0  0  0  0  0  0  0  0
  190.5250  172.5130  134.5960 C   0  0  0  0  0  3  0  0  0  0  0  0
  187.2280  177.9730  139.1750 C   0  0  0  0  0  2  0  0  0  0  0  0
  188.6450  178.5130  139.1740 C   0  0  0  0  0  1  0  0  0  0  0  0
  1  4  1  0  0  0  0
  4 16  1  0  0  0  0
  4  8  1  0  0  0  0
  6 11  1  1  0  0  0
  6  9  1  0  0  0  0
  6 23  1  0  0  0  0
  7  3  1  6  0  0  0
  9  3  2  0  0  0  0
 10 24  1  0  0  0  0
 10  5  1  1  0  0  0
 10  7  1  0  0  0  0
 11 17  2  0  0  0  0
 12  4  1  0  0  0  0
 13  9  1  6  0  0  0
 16  8  1  0  0  0  0
 18 25  1  0  0  0  0
 18 14  1  1  0  0  0
 18 13  1  0  0  0  0
 19 12  1  0  0  0  0
 19 36  1  1  0  0  0
 20  5  1  0  0  0  0
 20 26  1  0  0  0  0
 21 15  1  6  0  0  0
 21 17  1  0  0  0  0
 21  3  1  0  0  0  0
 22 13  1  0  0  0  0
 22  7  1  0  0  0  0
 22 27  1  0  0  0  0
 23  2  1  0  0  0  0
 25 14  1  0  0  0  0
 25  2  1  0  0  0  0
 26 27  1  0  0  0  0
 26 19  1  0  0  0  0
 27  1  1  0  0  0  0
 28 15  2  0  0  0  0
 28 24  1  0  0  0  0
 29 30  1  0  0  0  0
 30 24  1  0  0  0  0
 30 31  2  0  0  0  0
 33 34  2  0  0  0  0
 34 31  1  0  0  0  0
 34 32  1  0  0  0  0
 35 29  2  0  0  0  0
 35 33  1  0  0  0  0
 37 36  1  0  0  0  0
M  END
>  <MODEL>
5

>  <REMARK>
 VINA RESULT:      -6.9      5.023     10.107
  Name = 
  2 active torsions:
  status: ('A' for Active; 'I' for Inactive)
    1  A    between atoms: C_6  and  C_31
    2  A    between atoms: C_11  and  C_26
                            x       y       z     vdW  Elec       q    Type
                         _______ _______ _______ _____ _____    ______ ____

>  <TORSDO>
F 2

$$$$
=
 OpenBabel10262423023D

 37 45  0  0  1  0  0  0  0  0999 V2000
  183.5650  178.7920  142.0680 O   0  0  0  0  0  0  0  0  0  0  0  0
  179.1830  177.2650  141.3740 C   0  0  0  0  0  2  0  0  0  0  0  0
  182.3340  175.9840  138.7490 C   0  0  0  0  0  0  0  0  0  0  0  0
  184.5940  178.9420  143.0190 C   0  0  0  0  0  0  0  0  0  0  0  0
  185.8890  177.4950  138.5960 C   0  0  0  0  0  2  0  0  0  0  0  0
  179.8810  176.0620  139.1780 C   0  0  1  0  0  3  0  0  0  0  0  0
  183.6180  176.6560  139.1050 C   0  0  1  0  0  3  0  0  0  0  0  0
  184.8300  177.8270  144.0130 C   0  0  0  0  0  2  0  0  0  0  0  0
  181.3150  176.4720  139.4490 C   0  0  0  0  0  0  0  0  0  0  0  0
  184.5670  177.0460  137.9560 C   0  0  2  0  0  3  0  0  0  0  0  0
  179.8000  174.7030  138.5330 C   0  0  0  0  0  3  0  0  0  0  0  0
  185.6630  179.8250  142.7210 O   0  0  0  0  0  0  0  0  0  0  0  0
  181.7370  177.6050  140.3260 C   0  0  2  0  0  3  0  0  0  0  0  0
  180.4170  179.4110  141.4500 C   0  0  0  0  0  2  0  0  0  0  0  0
  182.4400  175.2630  136.3980 C   0  0  0  0  0  3  0  0  0  0  0  0
  184.0810  179.0880  144.4300 C   0  0  0  0  0  2  0  0  0  0  0  0
  180.8460  174.1440  137.9030 C   0  0  0  0  0  3  0  0  0  0  0  0
  180.8180  178.8130  140.1170 C   0  0  2  0  0  3  0  0  0  0  0  0
  186.2650  179.4560  141.4890 C   0  0  2  0  0  3  0  0  0  0  0  0
  185.8270  178.9670  138.9990 C   0  0  0  0  0  2  0  0  0  0  0  0
  182.1940  174.8170  137.8020 C   0  0  2  0  0  3  0  0  0  0  0  0
  183.1490  177.9140  139.8330 C   0  0  1  0  0  3  0  0  0  0  0  0
  178.9540  176.1030  140.4020 C   0  0  0  0  0  2  0  0  0  0  0  0
  184.7960  175.9010  136.9390 C   0  0  1  0  0  3  0  0  0  0  0  0
  179.3970  178.6070  140.6690 C   0  0  1  0  0  3  0  0  0  0  0  0
  185.2190  179.2360  140.3890 C   0  0  1  0  0  3  0  0  0  0  0  0
  184.1660  178.2530  140.9160 C   0  0  1  0  0  3  0  0  0  0  0  0
  183.6210  175.7520  136.0090 C   0  0  0  0  0  3  0  0  0  0  0  0
  186.2540  177.2380  135.3530 C   0  0  0  0  0  3  0  0  0  0  0  0
  186.0400  176.0770  136.1120 C   0  0  0  0  0  0  0  0  0  0  0  0
  187.0020  175.0600  136.1060 C   0  0  0  0  0  3  0  0  0  0  0  0
  189.0970  174.2140  135.3470 F   0  0  0  0  0  0  0  0  0  0  0  0
  188.3790  176.3590  134.5950 C   0  0  0  0  0  3  0  0  0  0  0  0
  188.1690  175.2010  135.3500 C   0  0  0  0  0  0  0  0  0  0  0  0
  187.4210  177.3770  134.5970 C   0  0  0  0  0  3  0  0  0  0  0  0
  187.2070  178.2630  141.6610 C   0  0  0  0  0  2  0  0  0  0  0  0
  188.6110  178.6380  141.2280 C   0  0  0  0  0  1  0  0  0  0  0  0
  1  4  1  0  0  0  0
  3  9  2  0  0  0  0
  4  8  1  0  0  0  0
  4 16  1  0  0  0  0
  5 20  1  0  0  0  0
  6 11  1  1  0  0  0
  6  9  1  0  0  0  0
  6 23  1  0  0  0  0
  7  3  1  6  0  0  0
  7 22  1  0  0  0  0
  8 16  1  0  0  0  0
 10  5  1  1  0  0  0
 10  7  1  0  0  0  0
 12  4  1  0  0  0  0
 13  9  1  6  0  0  0
 17 11  2  0  0  0  0
 18 13  1  0  0  0  0
 18 25  1  0  0  0  0
 18 14  1  1  0  0  0
 19 36  1  1  0  0  0
 19 12  1  0  0  0  0
 20 26  1  0  0  0  0
 21 15  1  6  0  0  0
 21 17  1  0  0  0  0
 21  3  1  0  0  0  0
 22 13  1  0  0  0  0
 22 27  1  0  0  0  0
 23  2  1  0  0  0  0
 24 10  1  0  0  0  0
 25  2  1  0  0  0  0
 25 14  1  0  0  0  0
 26 27  1  0  0  0  0
 26 19  1  0  0  0  0
 27  1  1  0  0  0  0
 28 15  2  0  0  0  0
 28 24  1  0  0  0  0
 29 30  1  0  0  0  0
 30 24  1  0  0  0  0
 31 30  2  0  0  0  0
 32 34  1  0  0  0  0
 33 35  1  0  0  0  0
 33 34  2  0  0  0  0
 34 31  1  0  0  0  0
 35 29  2  0  0  0  0
 37 36  1  0  0  0  0
M  END
>  <MODEL>
6

>  <REMARK>
 VINA RESULT:      -6.5      3.755      8.763
  Name = 
  2 active torsions:
  status: ('A' for Active; 'I' for Inactive)
    1  A    between atoms: C_6  and  C_31
    2  A    between atoms: C_11  and  C_26
                            x       y       z     vdW  Elec       q    Type
                         _______ _______ _______ _____ _____    ______ ____

>  <TORSDO>
F 2

$$$$
=
 OpenBabel10262423023D

 37 45  0  0  1  0  0  0  0  0999 V2000
  187.2450  178.0080  140.6950 O   0  0  0  0  0  0  0  0  0  0  0  0
  183.2210  177.3470  138.3760 C   0  0  0  0  0  2  0  0  0  0  0  0
  186.8550  175.5990  136.8920 C   0  0  0  0  0  0  0  0  0  0  0  0
  187.8740  177.9300  141.9540 C   0  0  0  0  0  0  0  0  0  0  0  0
  190.4210  176.4290  138.1340 C   0  0  0  0  0  2  0  0  0  0  0  0
  184.4580  176.1160  136.4490 C   0  0  1  0  0  3  0  0  0  0  0  0
  188.0160  176.0080  137.7370 C   0  0  1  0  0  3  0  0  0  0  0  0
  187.5550  176.7560  142.8510 C   0  0  0  0  0  2  0  0  0  0  0  0
  185.7450  176.2420  137.2400 C   0  0  0  0  0  0  0  0  0  0  0  0
  189.3630  176.2560  137.0330 C   0  0  2  0  0  3  0  0  0  0  0  0
  184.3970  174.8190  135.6840 C   0  0  0  0  0  3  0  0  0  0  0  0
  189.1050  178.6100  142.1350 O   0  0  0  0  0  0  0  0  0  0  0  0
  186.0000  177.2450  138.3180 C   0  0  2  0  0  3  0  0  0  0  0  0
  184.6720  179.2230  139.0880 C   0  0  0  0  0  2  0  0  0  0  0  0
  187.6810  174.9570  134.6640 C   0  0  0  0  0  3  0  0  0  0  0  0
  186.9180  178.1190  143.1060 C   0  0  0  0  0  2  0  0  0  0  0  0
  185.4950  174.0990  135.4040 C   0  0  0  0  0  3  0  0  0  0  0  0
  185.4240  178.6090  137.9240 C   0  0  2  0  0  3  0  0  0  0  0  0
  190.0420  178.1810  141.1580 C   0  0  2  0  0  3  0  0  0  0  0  0
  190.4560  177.8720  138.6350 C   0  0  0  0  0  2  0  0  0  0  0  0
  186.8790  174.5130  135.8440 C   0  0  2  0  0  3  0  0  0  0  0  0
  187.5250  177.3040  138.3780 C   0  0  1  0  0  3  0  0  0  0  0  0
  183.1730  176.2840  137.2730 C   0  0  0  0  0  2  0  0  0  0  0  0
  189.7550  175.1260  136.0500 C   0  0  1  0  0  3  0  0  0  0  0  0
  183.8860  178.6500  137.9260 C   0  0  1  0  0  3  0  0  0  0  0  0
  189.4400  178.1990  139.7470 C   0  0  1  0  0  3  0  0  0  0  0  0
  188.1250  177.4090  139.7760 C   0  0  1  0  0  3  0  0  0  0  0  0
  188.9850  175.2320  134.7600 C   0  0  0  0  0  3  0  0  0  0  0  0
  191.8040  176.0530  134.8770 C   0  0  0  0  0  3  0  0  0  0  0  0
  191.2240  175.0980  135.7280 C   0  0  0  0  0  0  0  0  0  0  0  0
  192.0250  174.1000  136.2940 C   0  0  0  0  0  3  0  0  0  0  0  0
  194.1660  173.0860  136.5650 F   0  0  0  0  0  0  0  0  0  0  0  0
  193.9670  175.0060  135.1670 C   0  0  0  0  0  3  0  0  0  0  0  0
  193.3940  174.0550  136.0150 C   0  0  0  0  0  0  0  0  0  0  0  0
  193.1720  176.0050  134.5980 C   0  0  0  0  0  3  0  0  0  0  0  0
  190.6550  176.8290  141.5260 C   0  0  0  0  0  2  0  0  0  0  0  0
  191.4010  176.9320  142.8420 C   0  0  0  0  0  1  0  0  0  0  0  0
  1  4  1  0  0  0  0
  3  9  2  0  0  0  0
  4 12  1  0  0  0  0
  4  8  1  0  0  0  0
  4 16  1  0  0  0  0
  5 20  1  0  0  0  0
  6 11  1  1  0  0  0
  6  9  1  0  0  0  0
  6 23  1  0  0  0  0
  7  3  1  6  0  0  0
  7 22  1  0  0  0  0
  8 16  1  0  0  0  0
 10  7  1  0  0  0  0
 10  5  1  1  0  0  0
 13  9  1  6  0  0  0
 13 22  1  0  0  0  0
 15 28  2  0  0  0  0
 17 11  2  0  0  0  0
 17 21  1  0  0  0  0
 18 25  1  0  0  0  0
 18 13  1  0  0  0  0
 18 14  1  1  0  0  0
 19 36  1  1  0  0  0
 19 12  1  0  0  0  0
 20 26  1  0  0  0  0
 21 15  1  6  0  0  0
 21  3  1  0  0  0  0
 22 27  1  0  0  0  0
 23  2  1  0  0  0  0
 24 10  1  0  0  0  0
 25  2  1  0  0  0  0
 25 14  1  0  0  0  0
 26 27  1  0  0  0  0
 26 19  1  0  0  0  0
 27  1  1  0  0  0  0
 28 24  1  0  0  0  0
 29 30  1  0  0  0  0
 30 24  1  0  0  0  0
 30 31  2  0  0  0  0
 33 34  2  0  0  0  0
 34 31  1  0  0  0  0
 34 32  1  0  0  0  0
 35 29  2  0  0  0  0
 35 33  1  0  0  0  0
 36 37  1  0  0  0  0
M  END
>  <MODEL>
7

>  <REMARK>
 VINA RESULT:      -6.5      3.929      9.288
  Name = 
  2 active torsions:
  status: ('A' for Active; 'I' for Inactive)
    1  A    between atoms: C_6  and  C_31
    2  A    between atoms: C_11  and  C_26
                            x       y       z     vdW  Elec       q    Type
                         _______ _______ _______ _____ _____    ______ ____

>  <TORSDO>
F 2

$$$$
=
 OpenBabel10262423023D

 37 45  0  0  1  0  0  0  0  0999 V2000
  191.5630  176.5980  139.8180 O   0  0  0  0  0  0  0  0  0  0  0  0
  190.6300  175.8520  135.2810 C   0  0  0  0  0  2  0  0  0  0  0  0
  187.7430  177.8520  137.7560 C   0  0  0  0  0  0  0  0  0  0  0  0
  192.5080  177.1100  140.7290 C   0  0  0  0  0  0  0  0  0  0  0  0
  187.8590  178.0780  141.6140 C   0  0  0  0  0  2  0  0  0  0  0  0
  188.2170  176.7800  135.5580 C   0  0  1  0  0  3  0  0  0  0  0  0
  188.2130  177.9050  139.1720 C   0  0  1  0  0  3  0  0  0  0  0  0
  193.2390  178.3860  140.3740 C   0  0  0  0  0  2  0  0  0  0  0  0
  188.5460  177.1120  137.0000 C   0  0  0  0  0  0  0  0  0  0  0  0
  187.1590  177.7580  140.2840 C   0  0  2  0  0  3  0  0  0  0  0  0
  187.3000  177.8060  134.9440 C   0  0  0  0  0  3  0  0  0  0  0  0
  192.3880  176.7530  142.0960 O   0  0  0  0  0  0  0  0  0  0  0  0
  189.6380  176.4810  137.8020 C   0  0  2  0  0  3  0  0  0  0  0  0
  191.1400  174.5380  137.3170 C   0  0  0  0  0  2  0  0  0  0  0  0
  185.2910  178.0660  137.7260 C   0  0  0  0  0  3  0  0  0  0  0  0
  193.9250  177.0320  140.2190 C   0  0  0  0  0  2  0  0  0  0  0  0
  186.5490  178.6340  135.6870 C   0  0  0  0  0  3  0  0  0  0  0  0
  189.7030  174.9760  137.5230 C   0  0  2  0  0  3  0  0  0  0  0  0
  191.0960  177.1000  142.5740 C   0  0  2  0  0  3  0  0  0  0  0  0
  188.5660  176.8430  142.1690 C   0  0  0  0  0  2  0  0  0  0  0  0
  186.5720  178.6240  137.1980 C   0  0  2  0  0  3  0  0  0  0  0  0
  189.1990  176.7400  139.2420 C   0  0  1  0  0  3  0  0  0  0  0  0
  189.4360  176.5740  134.6460 C   0  0  0  0  0  2  0  0  0  0  0  0
  185.9180  178.6610  140.0720 C   0  0  1  0  0  3  0  0  0  0  0  0
  190.2220  174.6350  136.1150 C   0  0  1  0  0  3  0  0  0  0  0  0
  189.9910  176.6120  141.6290 C   0  0  1  0  0  3  0  0  0  0  0  0
  190.3140  177.1080  140.2140 C   0  0  1  0  0  3  0  0  0  0  0  0
  184.9960  178.0860  139.0290 C   0  0  0  0  0  3  0  0  0  0  0  0
  185.6970  179.5430  142.4390 C   0  0  0  0  0  3  0  0  0  0  0  0
  185.1290  178.8960  141.3290 C   0  0  0  0  0  0  0  0  0  0  0  0
  183.7990  178.4630  141.3890 C   0  0  0  0  0  3  0  0  0  0  0  0
  181.7550  178.2530  142.5980 F   0  0  0  0  0  0  0  0  0  0  0  0
  183.6110  179.3180  143.6470 C   0  0  0  0  0  3  0  0  0  0  0  0
  183.0420  178.6740  142.5450 C   0  0  0  0  0  0  0  0  0  0  0  0
  184.9390  179.7530  143.5930 C   0  0  0  0  0  3  0  0  0  0  0  0
  190.9960  178.5950  142.8830 C   0  0  0  0  0  2  0  0  0  0  0  0
  191.6810  178.9040  144.2000 C   0  0  0  0  0  1  0  0  0  0  0  0
  1 27  1  0  0  0  0
  1  4  1  0  0  0  0
  2 25  1  0  0  0  0
  4 12  1  0  0  0  0
  5 20  1  0  0  0  0
  6 23  1  6  0  0  0
  6  9  1  0  0  0  0
  7  3  1  6  0  0  0
  7 22  1  0  0  0  0
  7 10  1  0  0  0  0
  8  4  1  0  0  0  0
  9  3  2  0  0  0  0
 10  5  1  1  0  0  0
 11  6  1  0  0  0  0
 11 17  2  0  0  0  0
 12 19  1  0  0  0  0
 13  9  1  6  0  0  0
 13 22  1  0  0  0  0
 15 28  2  0  0  0  0
 16  8  1  0  0  0  0
 16  4  1  0  0  0  0
 18 14  1  1  0  0  0
 18 13  1  0  0  0  0
 19 36  1  6  0  0  0
 21 17  1  6  0  0  0
 21 15  1  0  0  0  0
 21  3  1  0  0  0  0
 22 27  1  0  0  0  0
 23  2  1  0  0  0  0
 24 10  1  0  0  0  0
 24 30  1  0  0  0  0
 25 14  1  0  0  0  0
 25 18  1  0  0  0  0
 26 20  1  0  0  0  0
 26 19  1  0  0  0  0
 27 26  1  0  0  0  0
 28 24  1  0  0  0  0
 29 35  1  0  0  0  0
 30 31  1  0  0  0  0
 30 29  2  0  0  0  0
 31 34  2  0  0  0  0
 34 32  1  0  0  0  0
 34 33  1  0  0  0  0
 35 33  2  0  0  0  0
 36 37  1  0  0  0  0
M  END
>  <MODEL>
8

>  <REMARK>
 VINA RESULT:      -6.4      2.106      6.327
  Name = 
  2 active torsions:
  status: ('A' for Active; 'I' for Inactive)
    1  A    between atoms: C_6  and  C_31
    2  A    between atoms: C_11  and  C_26
                            x       y       z     vdW  Elec       q    Type
                         _______ _______ _______ _____ _____    ______ ____

>  <TORSDO>
F 2

$$$$
=
 OpenBabel10262423023D

 37 45  0  0  1  0  0  0  0  0999 V2000
  183.2480  177.4930  138.1290 O   0  0  0  0  0  0  0  0  0  0  0  0
  181.3240  174.1210  135.4950 C   0  0  0  0  0  2  0  0  0  0  0  0
  185.5240  173.9980  136.3920 C   0  0  0  0  0  0  0  0  0  0  0  0
  183.1420  178.2100  139.3380 C   0  0  0  0  0  0  0  0  0  0  0  0
  187.5750  176.8770  137.9590 C   0  0  0  0  0  2  0  0  0  0  0  0
  183.6520  173.0520  135.0490 C   0  0  1  0  0  3  0  0  0  0  0  0
  185.9300  175.2070  137.1680 C   0  0  1  0  0  3  0  0  0  0  0  0
  182.7480  177.4620  140.5920 C   0  0  0  0  0  2  0  0  0  0  0  0
  184.2650  174.0820  135.9770 C   0  0  0  0  0  0  0  0  0  0  0  0
  187.3190  175.8090  136.8850 C   0  0  2  0  0  3  0  0  0  0  0  0
  184.3470  171.7200  135.1550 C   0  0  0  0  0  3  0  0  0  0  0  0
  183.8670  179.4210  139.4680 O   0  0  0  0  0  0  0  0  0  0  0  0
  183.6490  175.3960  136.3340 C   0  0  2  0  0  3  0  0  0  0  0  0
  181.6310  176.5770  135.4410 C   0  0  0  0  0  2  0  0  0  0  0  0
  187.5080  173.0770  135.2630 C   0  0  0  0  0  3  0  0  0  0  0  0
  181.7250  178.3120  139.8450 C   0  0  0  0  0  2  0  0  0  0  0  0
  185.5840  171.5940  135.6630 C   0  0  0  0  0  3  0  0  0  0  0  0
  183.0050  176.0360  135.1010 C   0  0  2  0  0  3  0  0  0  0  0  0
  185.2470  179.1860  139.2250 C   0  0  2  0  0  3  0  0  0  0  0  0
  186.9520  178.2130  137.5590 C   0  0  0  0  0  2  0  0  0  0  0  0
  186.3760  172.7680  136.1870 C   0  0  2  0  0  3  0  0  0  0  0  0
  184.8470  176.2200  136.8020 C   0  0  1  0  0  3  0  0  0  0  0  0
  182.1380  172.8530  135.2130 C   0  0  0  0  0  2  0  0  0  0  0  0
  188.4490  174.7510  136.8640 C   0  0  1  0  0  3  0  0  0  0  0  0
  181.7380  175.3070  134.6210 C   0  0  1  0  0  3  0  0  0  0  0  0
  185.4680  178.3790  137.9400 C   0  0  1  0  0  3  0  0  0  0  0  0
  184.5980  177.1180  138.0080 C   0  0  1  0  0  3  0  0  0  0  0  0
  188.4480  173.9740  135.5740 C   0  0  0  0  0  3  0  0  0  0  0  0
  190.7290  175.4520  136.0030 C   0  0  0  0  0  3  0  0  0  0  0  0
  189.8190  175.3370  137.0660 C   0  0  0  0  0  0  0  0  0  0  0  0
  190.1880  175.7790  138.3420 C   0  0  0  0  0  3  0  0  0  0  0  0
  191.8070  176.7580  139.7920 F   0  0  0  0  0  0  0  0  0  0  0  0
  192.3580  176.4440  137.4940 C   0  0  0  0  0  3  0  0  0  0  0  0
  191.4550  176.3320  138.5550 C   0  0  0  0  0  0  0  0  0  0  0  0
  191.9940  176.0040  136.2180 C   0  0  0  0  0  3  0  0  0  0  0  0
  185.9320  178.5640  140.4430 C   0  0  0  0  0  2  0  0  0  0  0  0
  185.6320  179.3780  141.6860 C   0  0  0  0  0  1  0  0  0  0  0  0
  1  4  1  0  0  0  0
  4 12  1  0  0  0  0
  4 16  1  0  0  0  0
  4  8  1  0  0  0  0
  6 11  1  1  0  0  0
  6 23  1  0  0  0  0
  6  9  1  0  0  0  0
  7  3  1  6  0  0  0
  9  3  2  0  0  0  0
 10  7  1  0  0  0  0
 10  5  1  1  0  0  0
 11 17  2  0  0  0  0
 13  9  1  6  0  0  0
 13 22  1  0  0  0  0
 15 28  2  0  0  0  0
 16  8  1  0  0  0  0
 17 21  1  0  0  0  0
 18 14  1  1  0  0  0
 18 13  1  0  0  0  0
 19 12  1  0  0  0  0
 19 36  1  1  0  0  0
 20 26  1  0  0  0  0
 20  5  1  0  0  0  0
 21 15  1  6  0  0  0
 21  3  1  0  0  0  0
 22  7  1  0  0  0  0
 22 27  1  0  0  0  0
 23  2  1  0  0  0  0
 24 10  1  0  0  0  0
 24 30  1  0  0  0  0
 25 18  1  0  0  0  0
 25 14  1  0  0  0  0
 25  2  1  0  0  0  0
 26 27  1  0  0  0  0
 26 19  1  0  0  0  0
 27  1  1  0  0  0  0
 28 24  1  0  0  0  0
 29 35  2  0  0  0  0
 29 30  1  0  0  0  0
 30 31  2  0  0  0  0
 31 34  1  0  0  0  0
 33 34  2  0  0  0  0
 34 32  1  0  0  0  0
 35 33  1  0  0  0  0
 36 37  1  0  0  0  0
M  END
>  <MODEL>
9

>  <REMARK>
 VINA RESULT:      -6.4      4.461      9.814
  Name = 
  2 active torsions:
  status: ('A' for Active; 'I' for Inactive)
    1  A    between atoms: C_6  and  C_31
    2  A    between atoms: C_11  and  C_26
                            x       y       z     vdW  Elec       q    Type
                         _______ _______ _______ _____ _____    ______ ____

>  <TORSDO>
F 2

$$$$
