=
 OpenBabel10262420083D

 27 31  0  0  1  0  0  0  0  0999 V2000
  187.5140  178.5490  141.9970 O   0  0  0  0  0  0  0  0  0  0  0  0
  187.9120  177.6130  144.1560 C   0  0  0  0  0  0  0  0  0  0  0  0
  189.6520  176.5190  142.6450 N   0  0  0  0  0  2  0  0  0  0  0  0
  190.4400  177.0790  147.3880 C   0  0  0  0  0  3  0  0  0  0  0  0
  192.5070  176.1930  148.4070 O   0  0  0  0  0  1  0  0  0  0  0  0
  187.5720  178.0630  145.3760 C   0  0  0  0  0  3  0  0  0  0  0  0
  191.3970  176.0930  144.8100 C   0  0  0  0  0  2  0  0  0  0  0  0
  190.1330  177.1680  139.0250 C   0  0  0  0  0  0  0  0  0  0  0  0
  192.1660  175.9220  146.0950 C   0  0  0  0  0  3  0  0  0  0  0  0
  190.9800  176.6910  137.9870 N   0  0  0  0  0  1  0  0  0  0  0  0
  190.0540  176.7610  144.9950 C   0  0  0  0  0  0  0  0  0  0  0  0
  186.9680  177.7100  142.9970 C   0  0  1  0  0  3  0  0  0  0  0  0
  191.7310  176.3810  147.2720 C   0  0  0  0  0  0  0  0  0  0  0  0
  189.6530  177.2560  146.3290 C   0  0  0  0  0  0  0  0  0  0  0  0
  188.4510  178.0950  141.0710 C   0  0  0  0  0  0  0  0  0  0  0  0
  189.2340  176.9680  143.9450 C   0  0  0  0  0  0  0  0  0  0  0  0
  190.2080  176.6060  140.3000 C   0  0  0  0  0  3  0  0  0  0  0  0
  188.4320  177.9140  146.4690 O   0  0  0  0  0  0  0  0  0  0  0  0
  189.2500  178.2180  138.7790 C   0  0  0  0  0  3  0  0  0  0  0  0
  188.4160  178.6760  139.7970 C   0  0  0  0  0  3  0  0  0  0  0  0
  189.3880  177.0620  141.3410 C   0  0  0  0  0  0  0  0  0  0  0  0
  182.9450  178.8970  143.9600 C   0  0  0  0  0  3  0  0  0  0  0  0
  185.5710  178.1400  143.3460 C   0  0  0  0  0  0  0  0  0  0  0  0
  184.6150  178.2510  142.3290 C   0  0  0  0  0  3  0  0  0  0  0  0
  183.3050  178.6320  142.6350 C   0  0  0  0  0  3  0  0  0  0  0  0
  183.8940  178.7810  144.9790 C   0  0  0  0  0  3  0  0  0  0  0  0
  185.2040  178.4020  144.6740 C   0  0  0  0  0  3  0  0  0  0  0  0
  1 12  1  0  0  0  0
  2  6  2  0  0  0  0
  3 16  1  0  0  0  0
  6 18  1  0  0  0  0
  7 11  1  0  0  0  0
  7  9  1  0  0  0  0
  8 17  1  0  0  0  0
  9 13  2  0  0  0  0
 10  8  1  0  0  0  0
 11 14  1  0  0  0  0
 12 23  1  1  0  0  0
 12  2  1  0  0  0  0
 13  4  1  0  0  0  0
 13  5  1  0  0  0  0
 14 18  1  0  0  0  0
 14  4  2  0  0  0  0
 15 21  1  0  0  0  0
 15  1  1  0  0  0  0
 16  2  1  0  0  0  0
 16 11  2  0  0  0  0
 17 21  2  0  0  0  0
 19  8  2  0  0  0  0
 19 20  1  0  0  0  0
 20 15  2  0  0  0  0
 21  3  1  0  0  0  0
 22 26  1  0  0  0  0
 23 27  1  0  0  0  0
 24 25  1  0  0  0  0
 24 23  2  0  0  0  0
 25 22  2  0  0  0  0
 27 26  2  0  0  0  0
M  END
>  <MODEL>
1

>  <REMARK>
 VINA RESULT:     -11.5      0.000      0.000
  Name = 
  1 active torsions:
  status: ('A' for Active; 'I' for Inactive)
    1  A    between atoms: C_9  and  C_15
                            x       y       z     vdW  Elec       q    Type
                         _______ _______ _______ _____ _____    ______ ____

>  <TORSDO>
F 1

$$$$
=
 OpenBabel10262420083D

 27 31  0  0  1  0  0  0  0  0999 V2000
  186.7870  178.8000  140.5010 O   0  0  0  0  0  0  0  0  0  0  0  0
  186.0310  178.2630  142.7000 C   0  0  0  0  0  0  0  0  0  0  0  0
  188.2710  177.0650  142.4750 N   0  0  0  0  0  2  0  0  0  0  0  0
  186.5890  178.4530  146.7960 C   0  0  0  0  0  3  0  0  0  0  0  0
  187.8490  177.8990  148.8450 O   0  0  0  0  0  1  0  0  0  0  0  0
  185.1350  178.8830  143.4880 C   0  0  0  0  0  3  0  0  0  0  0  0
  188.6880  177.1280  145.2570 C   0  0  0  0  0  2  0  0  0  0  0  0
  190.5140  177.1420  139.5210 C   0  0  0  0  0  0  0  0  0  0  0  0
  188.7060  177.2270  146.7600 C   0  0  0  0  0  3  0  0  0  0  0  0
  191.7560  176.5630  139.1450 N   0  0  0  0  0  1  0  0  0  0  0  0
  187.4470  177.7190  144.6270 C   0  0  0  0  0  0  0  0  0  0  0  0
  185.7970  178.1000  141.2300 C   0  0  1  0  0  3  0  0  0  0  0  0
  187.7500  177.8410  147.4630 C   0  0  0  0  0  0  0  0  0  0  0  0
  186.4420  178.3960  145.4740 C   0  0  0  0  0  0  0  0  0  0  0  0
  188.0520  178.2690  140.2600 C   0  0  0  0  0  0  0  0  0  0  0  0
  187.2670  177.6900  143.2920 C   0  0  0  0  0  0  0  0  0  0  0  0
  189.9280  176.8040  140.7420 C   0  0  0  0  0  3  0  0  0  0  0  0
  185.3280  178.9790  144.8700 O   0  0  0  0  0  0  0  0  0  0  0  0
  189.8940  178.0700  138.6870 C   0  0  0  0  0  3  0  0  0  0  0  0
  188.6710  178.6280  139.0570 C   0  0  0  0  0  3  0  0  0  0  0  0
  188.7070  177.3650  141.1380 C   0  0  0  0  0  0  0  0  0  0  0  0
  181.8780  179.1780  139.8150 C   0  0  0  0  0  3  0  0  0  0  0  0
  184.4210  178.4800  140.7560 C   0  0  0  0  0  0  0  0  0  0  0  0
  184.2880  179.3780  139.6910 C   0  0  0  0  0  3  0  0  0  0  0  0
  183.0180  179.7290  139.2220 C   0  0  0  0  0  3  0  0  0  0  0  0
  182.0060  178.2760  140.8740 C   0  0  0  0  0  3  0  0  0  0  0  0
  183.2750  177.9250  141.3440 C   0  0  0  0  0  3  0  0  0  0  0  0
  1 12  1  0  0  0  0
  2 16  1  0  0  0  0
  2  6  2  0  0  0  0
  3 16  1  0  0  0  0
  4 13  1  0  0  0  0
  6 18  1  0  0  0  0
  7  9  1  0  0  0  0
  8 17  1  0  0  0  0
  9 13  2  0  0  0  0
 10  8  1  0  0  0  0
 11  7  1  0  0  0  0
 11 14  1  0  0  0  0
 12 23  1  1  0  0  0
 12  2  1  0  0  0  0
 13  5  1  0  0  0  0
 14  4  2  0  0  0  0
 15  1  1  0  0  0  0
 15 21  1  0  0  0  0
 16 11  2  0  0  0  0
 17 21  2  0  0  0  0
 18 14  1  0  0  0  0
 19 20  1  0  0  0  0
 19  8  2  0  0  0  0
 20 15  2  0  0  0  0
 21  3  1  0  0  0  0
 22 26  1  0  0  0  0
 23 27  1  0  0  0  0
 24 23  2  0  0  0  0
 25 24  1  0  0  0  0
 25 22  2  0  0  0  0
 26 27  2  0  0  0  0
M  END
>  <MODEL>
2

>  <REMARK>
 VINA RESULT:     -10.6      1.912      2.954
  Name = 
  1 active torsions:
  status: ('A' for Active; 'I' for Inactive)
    1  A    between atoms: C_9  and  C_15
                            x       y       z     vdW  Elec       q    Type
                         _______ _______ _______ _____ _____    ______ ____

>  <TORSDO>
F 1

$$$$
=
 OpenBabel10262420083D

 27 31  0  0  1  0  0  0  0  0999 V2000
  189.3930  176.7270  142.8390 O   0  0  0  0  0  0  0  0  0  0  0  0
  187.5920  177.7660  144.0120 C   0  0  0  0  0  0  0  0  0  0  0  0
  187.4130  178.6580  141.6290 N   0  0  0  0  0  2  0  0  0  0  0  0
  183.5220  178.3390  144.4900 C   0  0  0  0  0  3  0  0  0  0  0  0
  181.3340  179.1570  143.6900 O   0  0  0  0  0  1  0  0  0  0  0  0
  186.9770  177.4120  145.1540 C   0  0  0  0  0  3  0  0  0  0  0  0
  184.6500  179.1070  141.9070 C   0  0  0  0  0  2  0  0  0  0  0  0
  189.6140  177.7630  138.7800 C   0  0  0  0  0  0  0  0  0  0  0  0
  183.2000  179.3080  142.2660 C   0  0  0  0  0  3  0  0  0  0  0  0
  189.7390  178.1250  137.4110 N   0  0  0  0  0  1  0  0  0  0  0  0
  185.4770  178.5340  143.0350 C   0  0  0  0  0  0  0  0  0  0  0  0
  189.0780  177.6570  143.8590 C   0  0  1  0  0  3  0  0  0  0  0  0
  182.6830  178.9480  143.4450 C   0  0  0  0  0  0  0  0  0  0  0  0
  184.8260  178.1470  144.3050 C   0  0  0  0  0  0  0  0  0  0  0  0
  189.3760  177.0670  141.4880 C   0  0  0  0  0  0  0  0  0  0  0  0
  186.7980  178.3150  142.8820 C   0  0  0  0  0  0  0  0  0  0  0  0
  188.6650  178.3960  139.5840 C   0  0  0  0  0  3  0  0  0  0  0  0
  185.5980  177.5730  145.3150 O   0  0  0  0  0  0  0  0  0  0  0  0
  190.4160  176.7570  139.3130 C   0  0  0  0  0  3  0  0  0  0  0  0
  190.2950  176.4130  140.6590 C   0  0  0  0  0  3  0  0  0  0  0  0
  188.5180  178.0540  140.9350 C   0  0  0  0  0  0  0  0  0  0  0  0
  191.2780  176.7550  147.4460 C   0  0  0  0  0  3  0  0  0  0  0  0
  189.8290  177.3340  145.1200 C   0  0  0  0  0  0  0  0  0  0  0  0
  191.0710  176.6970  145.0340 C   0  0  0  0  0  3  0  0  0  0  0  0
  191.7940  176.4060  146.1950 C   0  0  0  0  0  3  0  0  0  0  0  0
  190.0400  177.3980  147.5370 C   0  0  0  0  0  3  0  0  0  0  0  0
  189.3170  177.6890  146.3770 C   0  0  0  0  0  3  0  0  0  0  0  0
  1 12  1  0  0  0  0
  2  6  2  0  0  0  0
  3 16  1  0  0  0  0
  6 18  1  0  0  0  0
  7  9  1  0  0  0  0
  7 11  1  0  0  0  0
  8 19  2  0  0  0  0
  8 17  1  0  0  0  0
  9 13  2  0  0  0  0
 10  8  1  0  0  0  0
 11 14  1  0  0  0  0
 12  2  1  0  0  0  0
 12 23  1  1  0  0  0
 13  5  1  0  0  0  0
 13  4  1  0  0  0  0
 14  4  2  0  0  0  0
 14 18  1  0  0  0  0
 15  1  1  0  0  0  0
 16 11  2  0  0  0  0
 16  2  1  0  0  0  0
 17 21  2  0  0  0  0
 19 20  1  0  0  0  0
 20 15  2  0  0  0  0
 21 15  1  0  0  0  0
 21  3  1  0  0  0  0
 22 26  1  0  0  0  0
 23 27  1  0  0  0  0
 24 23  2  0  0  0  0
 24 25  1  0  0  0  0
 25 22  2  0  0  0  0
 27 26  2  0  0  0  0
M  END
>  <MODEL>
3

>  <REMARK>
 VINA RESULT:     -10.2      1.735      5.866
  Name = 
  1 active torsions:
  status: ('A' for Active; 'I' for Inactive)
    1  A    between atoms: C_9  and  C_15
                            x       y       z     vdW  Elec       q    Type
                         _______ _______ _______ _____ _____    ______ ____

>  <TORSDO>
F 1

$$$$
=
 OpenBabel10262420083D

 27 31  0  0  1  0  0  0  0  0999 V2000
  189.9700  178.0400  142.7140 O   0  0  0  0  0  0  0  0  0  0  0  0
  188.2150  177.8270  141.1090 C   0  0  0  0  0  0  0  0  0  0  0  0
  187.0980  177.3650  143.3560 N   0  0  0  0  0  2  0  0  0  0  0  0
  184.5840  179.1350  139.6170 C   0  0  0  0  0  3  0  0  0  0  0  0
  182.1510  179.4960  139.8290 O   0  0  0  0  0  1  0  0  0  0  0  0
  188.1190  178.3040  139.8560 C   0  0  0  0  0  3  0  0  0  0  0  0
  184.5940  178.2050  142.3860 C   0  0  0  0  0  3  0  0  0  0  0  0
  188.7430  177.4390  146.6790 C   0  0  0  0  0  0  0  0  0  0  0  0
  183.3460  178.6540  141.6720 C   0  0  0  0  0  3  0  0  0  0  0  0
  188.3670  177.2030  148.0300 N   0  0  0  0  0  1  0  0  0  0  0  0
  185.8270  178.2160  141.5120 C   0  0  0  0  0  0  0  0  0  0  0  0
  189.4990  177.2590  141.6310 C   0  0  1  0  0  3  0  0  0  0  0  0
  183.3440  179.0880  140.4090 C   0  0  0  0  0  0  0  0  0  0  0  0
  185.7440  178.7260  140.1260 C   0  0  2  0  0  3  0  0  0  0  0  0
  189.4870  177.8860  144.0110 C   0  0  0  0  0  0  0  0  0  0  0  0
  187.0220  177.8200  141.9940 C   0  0  0  0  0  0  0  0  0  0  0  0
  187.8210  177.2320  145.6520 C   0  0  0  0  0  3  0  0  0  0  0  0
  186.9030  178.7760  139.3520 O   0  0  0  0  0  0  0  0  0  0  0  0
  190.0210  177.9060  146.3820 C   0  0  0  0  0  3  0  0  0  0  0  0
  190.3880  178.1270  145.0550 C   0  0  0  0  0  3  0  0  0  0  0  0
  188.1650  177.4630  144.3140 C   0  0  0  0  0  0  0  0  0  0  0  0
  192.6310  176.7020  138.7330 C   0  0  0  0  0  3  0  0  0  0  0  0
  190.5800  177.0700  140.6030 C   0  0  0  0  0  0  0  0  0  0  0  0
  191.8610  177.5710  140.8580 C   0  0  0  0  0  3  0  0  0  0  0  0
  192.8850  177.3890  139.9230 C   0  0  0  0  0  3  0  0  0  0  0  0
  191.3540  176.1940  138.4770 C   0  0  0  0  0  3  0  0  0  0  0  0
  190.3300  176.3760  139.4110 C   0  0  0  0  0  3  0  0  0  0  0  0
  1 15  1  0  0  0  0
  2 12  1  0  0  0  0
  2 16  1  0  0  0  0
  3 21  1  0  0  0  0
  4 13  2  0  0  0  0
  5 13  1  0  0  0  0
  6  2  2  0  0  0  0
  8 10  1  0  0  0  0
  9  7  2  0  0  0  0
 11 16  2  0  0  0  0
 11  7  1  0  0  0  0
 12 23  1  6  0  0  0
 12  1  1  0  0  0  0
 13  9  1  0  0  0  0
 14  4  1  1  0  0  0
 14 11  1  0  0  0  0
 15 21  2  0  0  0  0
 15 20  1  0  0  0  0
 16  3  1  0  0  0  0
 17  8  2  0  0  0  0
 18  6  1  0  0  0  0
 18 14  1  0  0  0  0
 19  8  1  0  0  0  0
 20 19  2  0  0  0  0
 21 17  1  0  0  0  0
 22 25  1  0  0  0  0
 23 24  1  0  0  0  0
 25 24  2  0  0  0  0
 26 22  2  0  0  0  0
 26 27  1  0  0  0  0
 27 23  2  0  0  0  0
M  END
>  <MODEL>
4

>  <REMARK>
 VINA RESULT:      -9.9      2.513      7.658
  Name = 
  1 active torsions:
  status: ('A' for Active; 'I' for Inactive)
    1  A    between atoms: C_9  and  C_15
                            x       y       z     vdW  Elec       q    Type
                         _______ _______ _______ _____ _____    ______ ____

>  <TORSDO>
F 1

$$$$
=
 OpenBabel10262420083D

 27 31  0  0  1  0  0  0  0  0999 V2000
  188.0530  177.0670  143.1440 O   0  0  0  0  0  0  0  0  0  0  0  0
  185.9840  178.2570  143.1600 C   0  0  0  0  0  0  0  0  0  0  0  0
  186.9770  178.7160  140.8560 N   0  0  0  0  0  2  0  0  0  0  0  0
  182.1950  178.8200  141.5950 C   0  0  0  0  0  3  0  0  0  0  0  0
  180.6760  179.4410  139.7500 O   0  0  0  0  0  1  0  0  0  0  0  0
  184.8920  178.0950  143.9270 C   0  0  0  0  0  3  0  0  0  0  0  0
  184.4300  179.1500  139.7430 C   0  0  0  0  0  2  0  0  0  0  0  0
  190.1800  177.3830  139.5430 C   0  0  0  0  0  0  0  0  0  0  0  0
  182.9930  179.3800  139.3510 C   0  0  0  0  0  3  0  0  0  0  0  0
  190.9440  177.5030  138.3490 N   0  0  0  0  0  1  0  0  0  0  0  0
  184.6080  178.7990  141.2030 C   0  0  0  0  0  0  0  0  0  0  0  0
  187.3640  178.1530  143.7330 C   0  0  1  0  0  3  0  0  0  0  0  0
  181.9710  179.2200  140.1960 C   0  0  0  0  0  0  0  0  0  0  0  0
  183.4230  178.6260  142.0700 C   0  0  0  0  0  0  0  0  0  0  0  0
  188.6810  177.1650  141.9040 C   0  0  0  0  0  0  0  0  0  0  0  0
  185.8350  178.5840  141.7180 C   0  0  0  0  0  0  0  0  0  0  0  0
  189.0100  178.1270  139.6990 C   0  0  0  0  0  3  0  0  0  0  0  0
  183.6060  178.2530  143.4020 O   0  0  0  0  0  0  0  0  0  0  0  0
  190.5830  176.5020  140.5440 C   0  0  0  0  0  3  0  0  0  0  0  0
  189.8350  176.3960  141.7160 C   0  0  0  0  0  3  0  0  0  0  0  0
  188.2370  178.0230  140.8630 C   0  0  0  0  0  0  0  0  0  0  0  0
  187.6060  177.9370  148.0250 C   0  0  0  0  0  3  0  0  0  0  0  0
  187.4280  178.0710  145.2330 C   0  0  0  0  0  0  0  0  0  0  0  0
  188.5290  177.4560  145.8390 C   0  0  0  0  0  3  0  0  0  0  0  0
  188.6180  177.3860  147.2320 C   0  0  0  0  0  3  0  0  0  0  0  0
  186.5080  178.5590  147.4250 C   0  0  0  0  0  3  0  0  0  0  0  0
  186.4190  178.6280  146.0320 C   0  0  0  0  0  3  0  0  0  0  0  0
  1 12  1  0  0  0  0
  2 12  1  0  0  0  0
  2  6  2  0  0  0  0
  3 21  1  0  0  0  0
  3 16  1  0  0  0  0
  4 14  2  0  0  0  0
  5 13  1  0  0  0  0
  7 11  1  0  0  0  0
  8 17  2  0  0  0  0
  8 19  1  0  0  0  0
  9  7  1  0  0  0  0
  9 13  2  0  0  0  0
 10  8  1  0  0  0  0
 11 16  2  0  0  0  0
 11 14  1  0  0  0  0
 12 23  1  1  0  0  0
 13  4  1  0  0  0  0
 14 18  1  0  0  0  0
 15  1  1  0  0  0  0
 16  2  1  0  0  0  0
 17 21  1  0  0  0  0
 18  6  1  0  0  0  0
 19 20  2  0  0  0  0
 20 15  1  0  0  0  0
 21 15  2  0  0  0  0
 23 24  2  0  0  0  0
 23 27  1  0  0  0  0
 24 25  1  0  0  0  0
 25 22  2  0  0  0  0
 26 22  1  0  0  0  0
 27 26  2  0  0  0  0
M  END
>  <MODEL>
5

>  <REMARK>
 VINA RESULT:      -9.9      2.323      6.300
  Name = 
  1 active torsions:
  status: ('A' for Active; 'I' for Inactive)
    1  A    between atoms: C_9  and  C_15
                            x       y       z     vdW  Elec       q    Type
                         _______ _______ _______ _____ _____    ______ ____

>  <TORSDO>
F 1

$$$$
=
 OpenBabel10262420083D

 27 31  0  0  1  0  0  0  0  0999 V2000
  189.6950  178.2530  142.0130 O   0  0  0  0  0  0  0  0  0  0  0  0
  187.3640  178.0670  141.5320 C   0  0  0  0  0  0  0  0  0  0  0  0
  187.5830  177.3390  143.9670 N   0  0  0  0  0  2  0  0  0  0  0  0
  183.4740  179.2620  142.2810 C   0  0  0  0  0  3  0  0  0  0  0  0
  181.5020  179.4440  143.7570 O   0  0  0  0  0  1  0  0  0  0  0  0
  186.6250  178.6450  140.5690 C   0  0  0  0  0  3  0  0  0  0  0  0
  184.9320  178.0950  144.5270 C   0  0  0  0  0  3  0  0  0  0  0  0
  190.7160  177.2290  145.9500 C   0  0  0  0  0  0  0  0  0  0  0  0
  183.4900  178.5230  144.6140 C   0  0  0  0  0  3  0  0  0  0  0  0
  191.1000  176.8520  147.2660 N   0  0  0  0  0  1  0  0  0  0  0  0
  185.5300  178.2640  143.1490 C   0  0  0  0  0  0  0  0  0  0  0  0
  188.7370  177.5410  141.2510 C   0  0  1  0  0  3  0  0  0  0  0  0
  182.8260  179.0650  143.5890 C   0  0  0  0  0  0  0  0  0  0  0  0
  184.7330  178.8870  142.0700 C   0  0  2  0  0  3  0  0  0  0  0  0
  189.9590  177.9560  143.3480 C   0  0  0  0  0  0  0  0  0  0  0  0
  186.8050  177.9060  142.9000 C   0  0  0  0  0  0  0  0  0  0  0  0
  189.3970  177.0540  145.5310 C   0  0  0  0  0  3  0  0  0  0  0  0
  185.3190  179.0800  140.8190 O   0  0  0  0  0  0  0  0  0  0  0  0
  191.6480  177.8030  145.0880 C   0  0  0  0  0  3  0  0  0  0  0  0
  191.2690  178.1630  143.7960 C   0  0  0  0  0  3  0  0  0  0  0  0
  188.9920  177.4230  144.2410 C   0  0  0  0  0  0  0  0  0  0  0  0
  189.8240  177.4120  137.0890 C   0  0  0  0  0  3  0  0  0  0  0  0
  189.1280  177.5140  139.8000 C   0  0  0  0  0  0  0  0  0  0  0  0
  189.5970  176.3210  139.2390 C   0  0  0  0  0  3  0  0  0  0  0  0
  189.9470  176.2710  137.8860 C   0  0  0  0  0  3  0  0  0  0  0  0
  189.3490  178.6040  137.6430 C   0  0  0  0  0  3  0  0  0  0  0  0
  189.0000  178.6560  138.9960 C   0  0  0  0  0  3  0  0  0  0  0  0
  1 15  1  0  0  0  0
  2 16  1  0  0  0  0
  3 21  1  0  0  0  0
  4 13  2  0  0  0  0
  6 18  1  0  0  0  0
  6  2  2  0  0  0  0
  7  9  2  0  0  0  0
  8 10  1  0  0  0  0
 11  7  1  0  0  0  0
 12 23  1  6  0  0  0
 12  2  1  0  0  0  0
 12  1  1  0  0  0  0
 13  5  1  0  0  0  0
 13  9  1  0  0  0  0
 14  4  1  1  0  0  0
 14 11  1  0  0  0  0
 15 20  2  0  0  0  0
 15 21  1  0  0  0  0
 16 11  2  0  0  0  0
 16  3  1  0  0  0  0
 17  8  1  0  0  0  0
 18 14  1  0  0  0  0
 19  8  2  0  0  0  0
 20 19  1  0  0  0  0
 21 17  2  0  0  0  0
 22 26  2  0  0  0  0
 22 25  1  0  0  0  0
 24 23  1  0  0  0  0
 25 24  2  0  0  0  0
 26 27  1  0  0  0  0
 27 23  2  0  0  0  0
M  END
>  <MODEL>
6

>  <REMARK>
 VINA RESULT:      -9.8      2.435      6.794
  Name = 
  1 active torsions:
  status: ('A' for Active; 'I' for Inactive)
    1  A    between atoms: C_9  and  C_15
                            x       y       z     vdW  Elec       q    Type
                         _______ _______ _______ _____ _____    ______ ____

>  <TORSDO>
F 1

$$$$
=
 OpenBabel10262420083D

 27 31  0  0  1  0  0  0  0  0999 V2000
  189.4950  176.9370  140.7600 O   0  0  0  0  0  0  0  0  0  0  0  0
  187.7270  178.0160  141.9480 C   0  0  0  0  0  0  0  0  0  0  0  0
  187.3340  178.6280  139.5020 N   0  0  0  0  0  2  0  0  0  0  0  0
  183.6760  178.4500  142.6670 C   0  0  0  0  0  3  0  0  0  0  0  0
  181.3960  179.0710  141.9520 O   0  0  0  0  0  1  0  0  0  0  0  0
  187.2150  177.7630  143.1640 C   0  0  0  0  0  3  0  0  0  0  0  0
  184.5770  178.9770  139.9390 C   0  0  0  0  0  2  0  0  0  0  0  0
  189.3750  177.5240  136.6090 C   0  0  0  0  0  0  0  0  0  0  0  0
  183.1470  179.1490  140.3830 C   0  0  0  0  0  3  0  0  0  0  0  0
  189.3840  177.7350  135.2030 N   0  0  0  0  0  1  0  0  0  0  0  0
  185.5110  178.5720  141.0560 C   0  0  0  0  0  0  0  0  0  0  0  0
  189.2030  177.9590  141.6950 C   0  0  1  0  0  3  0  0  0  0  0  0
  182.7340  178.8990  141.6290 C   0  0  0  0  0  0  0  0  0  0  0  0
  184.9730  178.2990  142.4060 C   0  0  0  0  0  0  0  0  0  0  0  0
  189.3650  177.1230  139.3860 C   0  0  0  0  0  0  0  0  0  0  0  0
  186.8280  178.3990  140.8280 C   0  0  0  0  0  0  0  0  0  0  0  0
  188.4520  178.1980  137.4090 C   0  0  0  0  0  3  0  0  0  0  0  0
  185.8430  177.8780  143.4110 O   0  0  0  0  0  0  0  0  0  0  0  0
  190.2660  176.6210  137.1850 C   0  0  0  0  0  3  0  0  0  0  0  0
  190.2590  176.4240  138.5650 C   0  0  0  0  0  3  0  0  0  0  0  0
  188.4190  178.0020  138.7970 C   0  0  0  0  0  0  0  0  0  0  0  0
  191.6810  177.5030  145.1840 C   0  0  0  0  0  3  0  0  0  0  0  0
  190.0570  177.8140  142.9240 C   0  0  0  0  0  0  0  0  0  0  0  0
  190.3740  176.5340  143.3900 C   0  0  0  0  0  3  0  0  0  0  0  0
  191.1830  176.3780  144.5200 C   0  0  0  0  0  3  0  0  0  0  0  0
  191.3710  178.7840  144.7180 C   0  0  0  0  0  3  0  0  0  0  0  0
  190.5620  178.9400  143.5900 C   0  0  0  0  0  3  0  0  0  0  0  0
  1 12  1  0  0  0  0
  2  6  2  0  0  0  0
  3 16  1  0  0  0  0
  6 18  1  0  0  0  0
  7  9  1  0  0  0  0
  7 11  1  0  0  0  0
  8 19  2  0  0  0  0
  8 17  1  0  0  0  0
  9 13  2  0  0  0  0
 10  8  1  0  0  0  0
 11 14  1  0  0  0  0
 12  2  1  0  0  0  0
 12 23  1  1  0  0  0
 13  5  1  0  0  0  0
 13  4  1  0  0  0  0
 14  4  2  0  0  0  0
 14 18  1  0  0  0  0
 15  1  1  0  0  0  0
 16 11  2  0  0  0  0
 16  2  1  0  0  0  0
 17 21  2  0  0  0  0
 19 20  1  0  0  0  0
 20 15  2  0  0  0  0
 21 15  1  0  0  0  0
 21  3  1  0  0  0  0
 23 24  2  0  0  0  0
 23 27  1  0  0  0  0
 24 25  1  0  0  0  0
 25 22  2  0  0  0  0
 26 22  1  0  0  0  0
 27 26  2  0  0  0  0
M  END
>  <MODEL>
7

>  <REMARK>
 VINA RESULT:      -9.7      2.534      6.315
  Name = 
  1 active torsions:
  status: ('A' for Active; 'I' for Inactive)
    1  A    between atoms: C_9  and  C_15
                            x       y       z     vdW  Elec       q    Type
                         _______ _______ _______ _____ _____    ______ ____

>  <TORSDO>
F 1

$$$$
=
 OpenBabel10262420083D

 27 31  0  0  1  0  0  0  0  0999 V2000
  187.3660  177.3260  142.0210 O   0  0  0  0  0  0  0  0  0  0  0  0
  189.5570  177.2580  142.9660 C   0  0  0  0  0  0  0  0  0  0  0  0
  188.0880  178.2400  144.8060 N   0  0  0  0  0  2  0  0  0  0  0  0
  192.1380  175.8060  145.8560 C   0  0  0  0  0  3  0  0  0  0  0  0
  192.8770  175.5980  148.2030 O   0  0  0  0  0  1  0  0  0  0  0  0
  190.6310  176.5250  142.6230 C   0  0  0  0  0  3  0  0  0  0  0  0
  189.8260  177.3120  146.8140 C   0  0  0  0  0  3  0  0  0  0  0  0
  184.4290  178.8190  144.6160 C   0  0  0  0  0  0  0  0  0  0  0  0
  190.8930  176.7700  147.7300 C   0  0  0  0  0  3  0  0  0  0  0  0
  183.4180  179.3570  145.4580 N   0  0  0  0  0  1  0  0  0  0  0  0
  190.1020  177.0620  145.3490 C   0  0  0  0  0  0  0  0  0  0  0  0
  188.6690  177.8730  141.9290 C   0  0  1  0  0  3  0  0  0  0  0  0
  191.9460  176.0730  147.2910 C   0  0  0  0  0  0  0  0  0  0  0  0
  191.2830  176.2680  144.9470 C   0  0  2  0  0  3  0  0  0  0  0  0
  186.4310  177.7760  142.9500 C   0  0  0  0  0  0  0  0  0  0  0  0
  189.2540  177.5040  144.4000 C   0  0  0  0  0  0  0  0  0  0  0  0
  185.7620  178.8360  145.0290 C   0  0  0  0  0  3  0  0  0  0  0  0
  191.4930  176.0050  143.5930 O   0  0  0  0  0  0  0  0  0  0  0  0
  184.0880  178.2480  143.3920 C   0  0  0  0  0  3  0  0  0  0  0  0
  185.0850  177.7310  142.5670 C   0  0  0  0  0  3  0  0  0  0  0  0
  186.7770  178.3080  144.2200 C   0  0  0  0  0  0  0  0  0  0  0  0
  190.1320  177.5770  137.8920 C   0  0  0  0  0  3  0  0  0  0  0  0
  189.1800  177.7910  140.5180 C   0  0  0  0  0  0  0  0  0  0  0  0
  190.2100  176.8930  140.2140 C   0  0  0  0  0  3  0  0  0  0  0  0
  190.6870  176.7880  138.9040 C   0  0  0  0  0  3  0  0  0  0  0  0
  189.0990  178.4710  138.1900 C   0  0  0  0  0  3  0  0  0  0  0  0
  188.6220  178.5770  139.5000 C   0  0  0  0  0  3  0  0  0  0  0  0
  1 15  1  0  0  0  0
  2 16  1  0  0  0  0
  4 13  2  0  0  0  0
  6  2  2  0  0  0  0
  6 18  1  0  0  0  0
  7  9  2  0  0  0  0
  8 17  1  0  0  0  0
  8 10  1  0  0  0  0
 11  7  1  0  0  0  0
 12 23  1  6  0  0  0
 12  1  1  0  0  0  0
 12  2  1  0  0  0  0
 13  9  1  0  0  0  0
 13  5  1  0  0  0  0
 14 11  1  0  0  0  0
 14  4  1  1  0  0  0
 15 21  1  0  0  0  0
 16  3  1  0  0  0  0
 16 11  2  0  0  0  0
 18 14  1  0  0  0  0
 19  8  2  0  0  0  0
 20 15  2  0  0  0  0
 20 19  1  0  0  0  0
 21  3  1  0  0  0  0
 21 17  2  0  0  0  0
 22 26  2  0  0  0  0
 22 25  1  0  0  0  0
 24 23  1  0  0  0  0
 25 24  2  0  0  0  0
 26 27  1  0  0  0  0
 27 23  2  0  0  0  0
M  END
>  <MODEL>
8

>  <REMARK>
 VINA RESULT:      -9.7      1.978      5.255
  Name = 
  1 active torsions:
  status: ('A' for Active; 'I' for Inactive)
    1  A    between atoms: C_9  and  C_15
                            x       y       z     vdW  Elec       q    Type
                         _______ _______ _______ _____ _____    ______ ____

>  <TORSDO>
F 1

$$$$
=
 OpenBabel10262420083D

 27 31  0  0  1  0  0  0  0  0999 V2000
  184.6060  177.8660  141.0850 O   0  0  0  0  0  0  0  0  0  0  0  0
  186.4240  178.2090  142.5940 C   0  0  0  0  0  0  0  0  0  0  0  0
  184.3850  179.1400  143.8130 N   0  0  0  0  0  2  0  0  0  0  0  0
  188.2060  177.4340  146.2470 C   0  0  0  0  0  3  0  0  0  0  0  0
  188.2550  177.5630  148.7120 O   0  0  0  0  0  1  0  0  0  0  0  0
  187.6260  177.6110  142.6590 C   0  0  0  0  0  3  0  0  0  0  0  0
  185.5620  178.6730  146.3260 C   0  0  0  0  0  3  0  0  0  0  0  0
  180.8960  179.1600  142.5550 C   0  0  0  0  0  0  0  0  0  0  0  0
  186.3740  178.3820  147.5620 C   0  0  0  0  0  3  0  0  0  0  0  0
  179.6310  179.6240  143.0080 N   0  0  0  0  0  1  0  0  0  0  0  0
  186.2760  178.3250  145.0390 C   0  0  0  0  0  0  0  0  0  0  0  0
  185.8090  178.5850  141.2810 C   0  0  1  0  0  3  0  0  0  0  0  0
  187.5790  177.8070  147.5250 C   0  0  0  0  0  0  0  0  0  0  0  0
  187.6040  177.6760  145.0850 C   0  0  2  0  0  3  0  0  0  0  0  0
  183.3980  178.2630  141.6540 C   0  0  0  0  0  0  0  0  0  0  0  0
  185.6940  178.5450  143.8440 C   0  0  0  0  0  0  0  0  0  0  0  0
  182.0430  179.4110  143.3110 C   0  0  0  0  0  3  0  0  0  0  0  0
  188.2240  177.3170  143.8880 O   0  0  0  0  0  0  0  0  0  0  0  0
  180.9890  178.4300  141.3720 C   0  0  0  0  0  3  0  0  0  0  0  0
  182.2340  177.9850  140.9280 C   0  0  0  0  0  3  0  0  0  0  0  0
  183.3000  178.9590  142.8880 C   0  0  0  0  0  0  0  0  0  0  0  0
  188.3590  178.2140  137.8340 C   0  0  0  0  0  3  0  0  0  0  0  0
  186.7120  178.4420  140.0880 C   0  0  0  0  0  0  0  0  0  0  0  0
  186.1500  178.2250  138.8250 C   0  0  0  0  0  3  0  0  0  0  0  0
  186.9720  178.1080  137.7000 C   0  0  0  0  0  3  0  0  0  0  0  0
  188.9250  178.4380  139.0920 C   0  0  0  0  0  3  0  0  0  0  0  0
  188.1040  178.5530  140.2170 C   0  0  0  0  0  3  0  0  0  0  0  0
  1 12  1  0  0  0  0
  1 15  1  0  0  0  0
  2  6  2  0  0  0  0
  2 16  1  0  0  0  0
  3 16  1  0  0  0  0
  4 13  2  0  0  0  0
  6 18  1  0  0  0  0
  7  9  2  0  0  0  0
  8 10  1  0  0  0  0
  8 17  1  0  0  0  0
 11 14  1  0  0  0  0
 11  7  1  0  0  0  0
 12 23  1  6  0  0  0
 12  2  1  0  0  0  0
 13  9  1  0  0  0  0
 13  5  1  0  0  0  0
 14  4  1  1  0  0  0
 15 21  1  0  0  0  0
 16 11  2  0  0  0  0
 18 14  1  0  0  0  0
 19  8  2  0  0  0  0
 20 19  1  0  0  0  0
 20 15  2  0  0  0  0
 21 17  2  0  0  0  0
 21  3  1  0  0  0  0
 22 26  1  0  0  0  0
 23 27  1  0  0  0  0
 24 23  2  0  0  0  0
 25 22  2  0  0  0  0
 25 24  1  0  0  0  0
 26 27  2  0  0  0  0
M  END
>  <MODEL>
9

>  <REMARK>
 VINA RESULT:      -9.4      2.998      6.058
  Name = 
  1 active torsions:
  status: ('A' for Active; 'I' for Inactive)
    1  A    between atoms: C_9  and  C_15
                            x       y       z     vdW  Elec       q    Type
                         _______ _______ _______ _____ _____    ______ ____

>  <TORSDO>
F 1

$$$$
