=
 OpenBabel10262422053D

 43 49  0  0  1  0  0  0  0  0999 V2000
  191.2170  176.3830  147.0300 C   0  0  1  0  0  3  0  0  0  0  0  0
  187.0620  177.8400  144.3690 C   0  0  0  0  0  0  0  0  0  0  0  0
  187.9480  178.2790  141.7930 C   0  0  0  0  0  0  0  0  0  0  0  0
  188.9190  177.1700  146.3600 C   0  0  0  0  0  0  0  0  0  0  0  0
  191.6720  176.9010  145.6910 C   0  0  0  0  0  3  0  0  0  0  0  0
  192.1200  176.7610  148.0220 O   0  0  0  0  0  1  0  0  0  0  0  0
  189.3590  177.3860  145.0440 C   0  0  0  0  0  0  0  0  0  0  0  0
  189.8740  176.8490  147.3740 N   0  0  0  0  0  2  0  0  0  0  0  0
  190.8070  177.3230  144.7640 C   0  0  0  0  0  3  0  0  0  0  0  0
  188.8380  177.9480  142.7660 N   0  0  0  0  0  0  0  0  0  0  0  0
  188.4320  177.7260  144.0430 C   0  0  0  0  0  0  0  0  0  0  0  0
  186.6390  177.6290  145.6890 C   0  0  0  0  0  3  0  0  0  0  0  0
  186.1580  178.1760  143.3510 C   0  0  0  0  0  0  0  0  0  0  0  0
  186.6250  178.3820  142.0890 N   0  0  0  0  0  0  0  0  0  0  0  0
  187.5660  177.3000  146.6820 C   0  0  0  0  0  3  0  0  0  0  0  0
  188.4260  178.4860  140.3950 C   0  0  2  0  0  3  0  0  0  0  0  0
  188.8740  177.1990  139.8190 C   0  0  2  0  0  3  0  0  0  0  0  0
  189.7900  178.1530  140.2960 O   0  0  0  0  0  0  0  0  0  0  0  0
  188.8170  177.2660  138.3070 C   0  0  1  0  0  3  0  0  0  0  0  0
  190.0910  177.0370  137.7840 O   0  0  0  0  0  1  0  0  0  0  0  0
  187.8570  176.2080  137.7930 C   0  0  0  0  0  2  0  0  0  0  0  0
  187.0150  176.7660  136.7320 N   0  0  0  0  0  0  0  0  0  0  0  0
  184.7770  176.7040  137.6090 C   0  0  0  0  0  2  0  0  0  0  0  0
  186.6820  178.1220  137.1630 C   0  0  0  0  0  2  0  0  0  0  0  0
  185.7240  176.0620  136.6130 C   0  0  1  0  0  0  0  0  0  0  0  0
  185.1830  176.2860  135.2050 C   0  0  0  0  0  1  0  0  0  0  0  0
  185.3100  178.1000  137.8170 C   0  0  0  0  0  2  0  0  0  0  0  0
  185.8410  174.5430  136.8490 C   0  0  0  0  0  2  0  0  0  0  0  0
  184.7830  173.8090  136.1670 N   0  0  0  0  0  0  0  0  0  0  0  0
  184.9670  170.3810  135.4180 O   0  0  0  0  0  0  0  0  0  0  0  0
  183.7300  171.7390  136.9170 C   0  0  0  0  0  2  0  0  0  0  0  0
  184.7290  171.4860  135.8750 C   0  0  0  0  0  0  0  0  0  0  0  0
  183.9340  173.2160  137.2100 C   0  0  0  0  0  2  0  0  0  0  0  0
  185.4220  172.7120  135.4450 C   0  0  0  0  0  2  0  0  0  0  0  0
  184.7570  178.3030  143.6470 N   0  0  0  0  0  2  0  0  0  0  0  0
  182.7020  178.0380  140.5120 C   0  0  0  0  0  3  0  0  0  0  0  0
  181.5060  178.6210  140.9410 C   0  0  0  0  0  0  0  0  0  0  0  0
  182.4750  178.9880  143.1300 C   0  0  0  0  0  3  0  0  0  0  0  0
  183.7790  177.9240  141.3950 C   0  0  0  0  0  3  0  0  0  0  0  0
  183.6720  178.3950  142.7130 C   0  0  0  0  0  0  0  0  0  0  0  0
  181.3950  179.1030  142.2490 C   0  0  0  0  0  3  0  0  0  0  0  0
  180.7650  178.3820  138.7140 O   0  0  0  0  0  1  0  0  0  0  0  0
  180.3670  178.7670  139.9940 C   0  0  0  0  0  2  0  0  0  0  0  0
  1  8  1  0  0  0  0
  1  6  1  1  0  0  0
  2 12  1  0  0  0  0
  3 14  1  0  0  0  0
  3 10  2  0  0  0  0
  4 15  1  0  0  0  0
  4  8  1  0  0  0  0
  5  1  1  0  0  0  0
  7  4  2  0  0  0  0
  9  7  1  0  0  0  0
  9  5  2  0  0  0  0
 10 11  1  0  0  0  0
 11  2  2  0  0  0  0
 11  7  1  0  0  0  0
 12 15  2  0  0  0  0
 13 35  1  0  0  0  0
 13  2  1  0  0  0  0
 14 13  2  0  0  0  0
 16  3  1  1  0  0  0
 17 19  1  6  0  0  0
 17 18  1  0  0  0  0
 17 16  1  0  0  0  0
 18 16  1  0  0  0  0
 19 20  1  6  0  0  0
 21 19  1  0  0  0  0
 22 24  1  0  0  0  0
 22 21  1  0  0  0  0
 23 27  1  0  0  0  0
 24 27  1  0  0  0  0
 25 26  1  6  0  0  0
 25 22  1  0  0  0  0
 25 28  1  0  0  0  0
 25 23  1  0  0  0  0
 29 28  1  0  0  0  0
 29 33  1  0  0  0  0
 30 32  2  0  0  0  0
 31 33  1  0  0  0  0
 32 31  1  0  0  0  0
 34 32  1  0  0  0  0
 34 29  1  0  0  0  0
 36 37  2  0  0  0  0
 36 39  1  0  0  0  0
 37 41  1  0  0  0  0
 39 40  2  0  0  0  0
 40 38  1  0  0  0  0
 40 35  1  0  0  0  0
 41 38  2  0  0  0  0
 42 43  1  0  0  0  0
 43 37  1  0  0  0  0
M  END
>  <MODEL>
1

>  <REMARK>
 VINA RESULT:      -9.6      0.000      0.000
  Name = 
  9 active torsions:
  status: ('A' for Active; 'I' for Inactive)
    1  A    between atoms: N_1  and  C_34
    2  A    between atoms: N_1  and  C_35
    3  A    between atoms: C_2  and  C_13
    4  A    between atoms: C_3  and  N_4
    5  A    between atoms: C_3  and  C_12
    6  A    between atoms: C_6  and  C_12
    7  A    between atoms: N_11  and  C_14
    8  A    between atoms: C_14  and  C_22
    9  A    between atoms: C_19  and  C_37
                            x       y       z     vdW  Elec       q    Type
                         _______ _______ _______ _____ _____    ______ ____

>  <TORSDO>
F 9

$$$$
=
 OpenBabel10262422053D

 43 49  0  0  1  0  0  0  0  0999 V2000
  191.3300  176.3400  146.8330 C   0  0  1  0  0  3  0  0  0  0  0  0
  186.9860  177.8740  144.5440 C   0  0  0  0  0  0  0  0  0  0  0  0
  187.6730  178.3930  141.9220 C   0  0  0  0  0  0  0  0  0  0  0  0
  188.9890  177.1450  146.3650 C   0  0  0  0  0  0  0  0  0  0  0  0
  191.6820  176.9000  145.4800 C   0  0  0  0  0  3  0  0  0  0  0  0
  192.3070  176.6880  147.7640 O   0  0  0  0  0  1  0  0  0  0  0  0
  189.3270  177.4020  145.0270 C   0  0  0  0  0  0  0  0  0  0  0  0
  190.0180  176.7950  147.2930 N   0  0  0  0  0  2  0  0  0  0  0  0
  190.7490  177.3490  144.6350 C   0  0  0  0  0  3  0  0  0  0  0  0
  188.6340  178.0330  142.8130 N   0  0  0  0  0  0  0  0  0  0  0  0
  188.3270  177.7710  144.1110 C   0  0  0  0  0  0  0  0  0  0  0  0
  186.6650  177.6230  145.8850 C   0  0  0  0  0  3  0  0  0  0  0  0
  186.0070  178.2410  143.6090 C   0  0  0  0  0  0  0  0  0  0  0  0
  186.3770  178.4850  142.3210 N   0  0  0  0  0  0  0  0  0  0  0  0
  187.6640  177.2640  146.7930 C   0  0  0  0  0  3  0  0  0  0  0  0
  188.0420  178.6430  140.4990 C   0  0  2  0  0  3  0  0  0  0  0  0
  188.1710  177.3580  139.7770 C   0  0  2  0  0  3  0  0  0  0  0  0
  189.2980  178.0730  140.2170 O   0  0  0  0  0  0  0  0  0  0  0  0
  187.9800  177.5820  138.2910 C   0  0  1  0  0  3  0  0  0  0  0  0
  189.0460  178.3340  137.7940 O   0  0  0  0  0  1  0  0  0  0  0  0
  187.9290  176.2390  137.5830 C   0  0  0  0  0  2  0  0  0  0  0  0
  188.4530  176.3680  136.2220 N   0  0  0  0  0  0  0  0  0  0  0  0
  188.9580  174.1220  135.5290 C   0  0  0  0  0  2  0  0  0  0  0  0
  187.3720  175.9340  135.3390 C   0  0  0  0  0  2  0  0  0  0  0  0
  189.5700  175.4410  135.9610 C   0  0  1  0  0  0  0  0  0  0  0  0
  190.3990  175.9990  134.8100 C   0  0  0  0  0  1  0  0  0  0  0  0
  187.6070  174.4810  134.9620 C   0  0  0  0  0  2  0  0  0  0  0  0
  190.4970  175.2560  137.1790 C   0  0  0  0  0  2  0  0  0  0  0  0
  191.7840  175.9090  136.9800 N   0  0  0  0  0  0  0  0  0  0  0  0
  193.8730  176.9330  139.6130 O   0  0  0  0  0  0  0  0  0  0  0  0
  193.9220  175.2420  137.9510 C   0  0  0  0  0  2  0  0  0  0  0  0
  193.3340  176.3750  138.6730 C   0  0  0  0  0  0  0  0  0  0  0  0
  192.8060  174.8530  136.9960 C   0  0  0  0  0  2  0  0  0  0  0  0
  192.0150  176.7610  138.1440 C   0  0  0  0  0  2  0  0  0  0  0  0
  184.6330  178.3570  144.0150 N   0  0  0  0  0  2  0  0  0  0  0  0
  181.1730  179.2480  142.8500 C   0  0  0  0  0  3  0  0  0  0  0  0
  181.3050  179.0380  141.4730 C   0  0  0  0  0  0  0  0  0  0  0  0
  183.6130  178.3800  141.8000 C   0  0  0  0  0  3  0  0  0  0  0  0
  182.2630  179.0310  143.6970 C   0  0  0  0  0  3  0  0  0  0  0  0
  183.4930  178.5980  143.1780 C   0  0  0  0  0  0  0  0  0  0  0  0
  182.5240  178.5960  140.9500 C   0  0  0  0  0  3  0  0  0  0  0  0
  180.0060  180.6000  140.2750 O   0  0  0  0  0  1  0  0  0  0  0  0
  180.1390  179.2440  140.5720 C   0  0  0  0  0  2  0  0  0  0  0  0
  1  8  1  0  0  0  0
  1  6  1  1  0  0  0
  2 12  1  0  0  0  0
  3 14  1  0  0  0  0
  3 10  2  0  0  0  0
  4 15  1  0  0  0  0
  4  8  1  0  0  0  0
  5  1  1  0  0  0  0
  7  4  2  0  0  0  0
  9  7  1  0  0  0  0
  9  5  2  0  0  0  0
 10 11  1  0  0  0  0
 11  2  2  0  0  0  0
 11  7  1  0  0  0  0
 12 15  2  0  0  0  0
 13 35  1  0  0  0  0
 13  2  1  0  0  0  0
 14 13  2  0  0  0  0
 16  3  1  1  0  0  0
 17 19  1  6  0  0  0
 17 18  1  0  0  0  0
 17 16  1  0  0  0  0
 18 16  1  0  0  0  0
 19 20  1  6  0  0  0
 21 19  1  0  0  0  0
 22 21  1  0  0  0  0
 23 25  1  0  0  0  0
 24 22  1  0  0  0  0
 25 26  1  6  0  0  0
 25 22  1  0  0  0  0
 25 28  1  0  0  0  0
 27 24  1  0  0  0  0
 27 23  1  0  0  0  0
 29 33  1  0  0  0  0
 29 28  1  0  0  0  0
 29 34  1  0  0  0  0
 31 32  1  0  0  0  0
 32 30  2  0  0  0  0
 33 31  1  0  0  0  0
 34 32  1  0  0  0  0
 36 39  1  0  0  0  0
 37 36  2  0  0  0  0
 38 40  1  0  0  0  0
 40 39  2  0  0  0  0
 40 35  1  0  0  0  0
 41 37  1  0  0  0  0
 41 38  2  0  0  0  0
 42 43  1  0  0  0  0
 43 37  1  0  0  0  0
M  END
>  <MODEL>
2

>  <REMARK>
 VINA RESULT:      -9.1      2.334      4.139
  Name = 
  9 active torsions:
  status: ('A' for Active; 'I' for Inactive)
    1  A    between atoms: N_1  and  C_34
    2  A    between atoms: N_1  and  C_35
    3  A    between atoms: C_2  and  C_13
    4  A    between atoms: C_3  and  N_4
    5  A    between atoms: C_3  and  C_12
    6  A    between atoms: C_6  and  C_12
    7  A    between atoms: N_11  and  C_14
    8  A    between atoms: C_14  and  C_22
    9  A    between atoms: C_19  and  C_37
                            x       y       z     vdW  Elec       q    Type
                         _______ _______ _______ _____ _____    ______ ____

>  <TORSDO>
F 9

$$$$
=
 OpenBabel10262422053D

 43 49  0  0  1  0  0  0  0  0999 V2000
  181.1250  179.9040  139.5170 C   0  0  1  0  0  3  0  0  0  0  0  0
  185.0380  178.4290  142.5130 C   0  0  0  0  0  0  0  0  0  0  0  0
  187.2790  178.5260  140.9060 C   0  0  0  0  0  0  0  0  0  0  0  0
  182.5260  178.9750  141.3930 C   0  0  0  0  0  0  0  0  0  0  0  0
  182.3270  179.6690  138.6410 C   0  0  0  0  0  3  0  0  0  0  0  0
  179.9680  179.4760  138.8670 O   0  0  0  0  0  1  0  0  0  0  0  0
  183.6730  179.0310  140.5860 C   0  0  0  0  0  0  0  0  0  0  0  0
  181.2470  179.2340  140.8120 N   0  0  0  0  0  2  0  0  0  0  0  0
  183.5100  179.3070  139.1450 C   0  0  0  0  0  3  0  0  0  0  0  0
  186.0560  178.7940  140.3760 N   0  0  0  0  0  0  0  0  0  0  0  0
  184.9350  178.7550  141.1420 C   0  0  0  0  0  0  0  0  0  0  0  0
  183.8820  178.3700  143.3050 C   0  0  0  0  0  3  0  0  0  0  0  0
  186.3080  178.1620  143.0430 C   0  0  0  0  0  0  0  0  0  0  0  0
  187.3960  178.2230  142.2260 N   0  0  0  0  0  0  0  0  0  0  0  0
  182.6310  178.6370  142.7450 C   0  0  0  0  0  3  0  0  0  0  0  0
  188.4920  178.6080  140.0420 C   0  0  2  0  0  3  0  0  0  0  0  0
  188.5770  177.4110  139.1770 C   0  0  2  0  0  3  0  0  0  0  0  0
  189.3660  177.5430  140.3330 O   0  0  0  0  0  0  0  0  0  0  0  0
  189.4180  177.7190  137.9550 C   0  0  1  0  0  3  0  0  0  0  0  0
  190.6970  177.1880  138.1250 O   0  0  0  0  0  1  0  0  0  0  0  0
  188.7680  177.1020  136.7280 C   0  0  0  0  0  2  0  0  0  0  0  0
  188.6170  175.6580  136.9130 N   0  0  0  0  0  0  0  0  0  0  0  0
  187.3340  174.9150  135.0200 C   0  0  0  0  0  2  0  0  0  0  0  0
  189.5500  175.0390  135.9730 C   0  0  0  0  0  2  0  0  0  0  0  0
  187.2800  175.1790  136.5120 C   0  0  1  0  0  0  0  0  0  0  0  0
  187.0050  173.8640  137.2340 C   0  0  0  0  0  1  0  0  0  0  0  0
  188.7880  174.6490  134.7180 C   0  0  0  0  0  2  0  0  0  0  0  0
  186.1540  176.1700  136.8670 C   0  0  0  0  0  2  0  0  0  0  0  0
  184.8930  175.8010  136.2360 N   0  0  0  0  0  0  0  0  0  0  0  0
  181.7510  176.3240  137.7180 O   0  0  0  0  0  0  0  0  0  0  0  0
  182.9560  177.2460  135.8960 C   0  0  0  0  0  2  0  0  0  0  0  0
  182.7680  176.3570  137.0470 C   0  0  0  0  0  0  0  0  0  0  0  0
  184.4080  176.9910  135.5240 C   0  0  0  0  0  2  0  0  0  0  0  0
  183.9460  175.5140  137.3110 C   0  0  0  0  0  2  0  0  0  0  0  0
  186.4510  177.8260  144.4340 N   0  0  0  0  0  2  0  0  0  0  0  0
  190.0410  177.0480  145.2250 C   0  0  0  0  0  3  0  0  0  0  0  0
  190.0030  177.0620  146.6220 C   0  0  0  0  0  0  0  0  0  0  0  0
  187.6360  177.5680  146.5490 C   0  0  0  0  0  3  0  0  0  0  0  0
  188.8780  177.3030  144.4920 C   0  0  0  0  0  3  0  0  0  0  0  0
  187.6670  177.5670  145.1490 C   0  0  0  0  0  0  0  0  0  0  0  0
  188.7980  177.3140  147.2840 C   0  0  0  0  0  3  0  0  0  0  0  0
  192.0590  175.9060  146.6780 O   0  0  0  0  0  1  0  0  0  0  0  0
  191.2350  176.7670  147.4040 C   0  0  0  0  0  2  0  0  0  0  0  0
  1  6  1  6  0  0  0
  1  8  1  0  0  0  0
  2 13  1  0  0  0  0
  2 12  1  0  0  0  0
  3 14  1  0  0  0  0
  4 15  1  0  0  0  0
  5  9  2  0  0  0  0
  5  1  1  0  0  0  0
  7 11  1  0  0  0  0
  7  4  2  0  0  0  0
  8  4  1  0  0  0  0
  9  7  1  0  0  0  0
 10  3  2  0  0  0  0
 10 11  1  0  0  0  0
 11  2  2  0  0  0  0
 13 35  1  0  0  0  0
 14 13  2  0  0  0  0
 15 12  2  0  0  0  0
 16 18  1  0  0  0  0
 16  3  1  1  0  0  0
 17 19  1  6  0  0  0
 17 16  1  0  0  0  0
 17 18  1  0  0  0  0
 19 20  1  1  0  0  0
 21 22  1  0  0  0  0
 21 19  1  0  0  0  0
 23 25  1  0  0  0  0
 24 22  1  0  0  0  0
 25 28  1  0  0  0  0
 25 22  1  0  0  0  0
 25 26  1  1  0  0  0
 27 23  1  0  0  0  0
 27 24  1  0  0  0  0
 29 28  1  0  0  0  0
 29 34  1  0  0  0  0
 31 32  1  0  0  0  0
 32 34  1  0  0  0  0
 32 30  2  0  0  0  0
 33 31  1  0  0  0  0
 33 29  1  0  0  0  0
 35 40  1  0  0  0  0
 36 37  1  0  0  0  0
 37 41  2  0  0  0  0
 37 43  1  0  0  0  0
 38 41  1  0  0  0  0
 39 40  1  0  0  0  0
 39 36  2  0  0  0  0
 40 38  2  0  0  0  0
 42 43  1  0  0  0  0
M  END
>  <MODEL>
3

>  <REMARK>
 VINA RESULT:      -8.9      1.993      6.785
  Name = 
  9 active torsions:
  status: ('A' for Active; 'I' for Inactive)
    1  A    between atoms: N_1  and  C_34
    2  A    between atoms: N_1  and  C_35
    3  A    between atoms: C_2  and  C_13
    4  A    between atoms: C_3  and  N_4
    5  A    between atoms: C_3  and  C_12
    6  A    between atoms: C_6  and  C_12
    7  A    between atoms: N_11  and  C_14
    8  A    between atoms: C_14  and  C_22
    9  A    between atoms: C_19  and  C_37
                            x       y       z     vdW  Elec       q    Type
                         _______ _______ _______ _____ _____    ______ ____

>  <TORSDO>
F 9

$$$$
=
 OpenBabel10262422053D

 43 49  0  0  1  0  0  0  0  0999 V2000
  191.2160  176.3780  146.9660 C   0  0  1  0  0  3  0  0  0  0  0  0
  187.0740  177.8730  144.3080 C   0  0  0  0  0  0  0  0  0  0  0  0
  187.9780  178.3830  141.7510 C   0  0  0  0  0  0  0  0  0  0  0  0
  188.9190  177.1660  146.2960 C   0  0  0  0  0  0  0  0  0  0  0  0
  191.6790  176.9330  145.6450 C   0  0  0  0  0  3  0  0  0  0  0  0
  192.1090  176.7370  147.9750 O   0  0  0  0  0  1  0  0  0  0  0  0
  189.3680  177.4180  144.9910 C   0  0  0  0  0  0  0  0  0  0  0  0
  189.8670  176.8270  147.3110 N   0  0  0  0  0  2  0  0  0  0  0  0
  190.8190  177.3720  144.7210 C   0  0  0  0  0  3  0  0  0  0  0  0
  188.8620  178.0340  142.7230 N   0  0  0  0  0  0  0  0  0  0  0  0
  188.4470  177.7760  143.9910 C   0  0  0  0  0  0  0  0  0  0  0  0
  186.6410  177.6260  145.6180 C   0  0  0  0  0  3  0  0  0  0  0  0
  186.1760  178.2290  143.2910 C   0  0  0  0  0  0  0  0  0  0  0  0
  186.6520  178.4690  142.0380 N   0  0  0  0  0  0  0  0  0  0  0  0
  187.5620  177.2790  146.6100 C   0  0  0  0  0  3  0  0  0  0  0  0
  188.4660  178.6280  140.3630 C   0  0  2  0  0  3  0  0  0  0  0  0
  187.9770  177.5630  139.4600 C   0  0  2  0  0  3  0  0  0  0  0  0
  189.2950  177.5700  139.9470 O   0  0  0  0  0  0  0  0  0  0  0  0
  187.9640  178.0660  138.0310 C   0  0  1  0  0  3  0  0  0  0  0  0
  189.1760  177.7480  137.4160 O   0  0  0  0  0  1  0  0  0  0  0  0
  186.8210  177.4090  137.2770 C   0  0  0  0  0  2  0  0  0  0  0  0
  187.0420  175.9640  137.1880 N   0  0  0  0  0  0  0  0  0  0  0  0
  185.6890  175.2360  135.3380 C   0  0  0  0  0  2  0  0  0  0  0  0
  187.9360  175.7710  136.0470 C   0  0  0  0  0  2  0  0  0  0  0  0
  185.8090  175.2280  136.8500 C   0  0  1  0  0  0  0  0  0  0  0  0
  185.9640  173.7870  137.3240 C   0  0  0  0  0  1  0  0  0  0  0  0
  187.1000  175.4080  134.8320 C   0  0  0  0  0  2  0  0  0  0  0  0
  184.5510  175.8220  137.5160 C   0  0  0  0  0  2  0  0  0  0  0  0
  183.4900  176.0590  136.5460 N   0  0  0  0  0  0  0  0  0  0  0  0
  180.0690  175.9270  137.3370 O   0  0  0  0  0  0  0  0  0  0  0  0
  181.6300  177.6220  136.7750 C   0  0  0  0  0  2  0  0  0  0  0  0
  181.2130  176.2460  137.0610 C   0  0  0  0  0  0  0  0  0  0  0  0
  183.1370  177.4820  136.6390 C   0  0  0  0  0  2  0  0  0  0  0  0
  182.3290  175.2890  136.9870 C   0  0  0  0  0  2  0  0  0  0  0  0
  184.7710  178.3380  143.5780 N   0  0  0  0  0  2  0  0  0  0  0  0
  182.7400  178.0400  140.4300 C   0  0  0  0  0  3  0  0  0  0  0  0
  181.5330  178.6080  140.8510 C   0  0  0  0  0  0  0  0  0  0  0  0
  182.4840  178.9910  143.0450 C   0  0  0  0  0  3  0  0  0  0  0  0
  183.8130  177.9410  141.3210 C   0  0  0  0  0  3  0  0  0  0  0  0
  183.6920  178.4140  142.6360 C   0  0  0  0  0  0  0  0  0  0  0  0
  181.4080  179.0910  142.1570 C   0  0  0  0  0  3  0  0  0  0  0  0
  179.4820  177.7080  140.1120 O   0  0  0  0  0  1  0  0  0  0  0  0
  180.3980  178.7370  139.8970 C   0  0  0  0  0  2  0  0  0  0  0  0
  1  8  1  0  0  0  0
  1  6  1  1  0  0  0
  2 12  1  0  0  0  0
  3 14  1  0  0  0  0
  3 10  2  0  0  0  0
  4 15  1  0  0  0  0
  4  8  1  0  0  0  0
  5  1  1  0  0  0  0
  7  4  2  0  0  0  0
  9  7  1  0  0  0  0
  9  5  2  0  0  0  0
 10 11  1  0  0  0  0
 11  2  2  0  0  0  0
 11  7  1  0  0  0  0
 12 15  2  0  0  0  0
 13 35  1  0  0  0  0
 13  2  1  0  0  0  0
 14 13  2  0  0  0  0
 16  3  1  1  0  0  0
 17 19  1  6  0  0  0
 17 18  1  0  0  0  0
 17 16  1  0  0  0  0
 18 16  1  0  0  0  0
 19 20  1  6  0  0  0
 21 19  1  0  0  0  0
 22 21  1  0  0  0  0
 23 25  1  0  0  0  0
 24 22  1  0  0  0  0
 25 22  1  0  0  0  0
 25 26  1  1  0  0  0
 25 28  1  0  0  0  0
 27 23  1  0  0  0  0
 27 24  1  0  0  0  0
 29 33  1  0  0  0  0
 29 34  1  0  0  0  0
 29 28  1  0  0  0  0
 31 32  1  0  0  0  0
 32 30  2  0  0  0  0
 33 31  1  0  0  0  0
 34 32  1  0  0  0  0
 36 37  2  0  0  0  0
 36 39  1  0  0  0  0
 37 41  1  0  0  0  0
 39 40  2  0  0  0  0
 40 38  1  0  0  0  0
 40 35  1  0  0  0  0
 41 38  2  0  0  0  0
 43 42  1  0  0  0  0
 43 37  1  0  0  0  0
M  END
>  <MODEL>
4

>  <REMARK>
 VINA RESULT:      -8.7      1.618      2.376
  Name = 
  9 active torsions:
  status: ('A' for Active; 'I' for Inactive)
    1  A    between atoms: N_1  and  C_34
    2  A    between atoms: N_1  and  C_35
    3  A    between atoms: C_2  and  C_13
    4  A    between atoms: C_3  and  N_4
    5  A    between atoms: C_3  and  C_12
    6  A    between atoms: C_6  and  C_12
    7  A    between atoms: N_11  and  C_14
    8  A    between atoms: C_14  and  C_22
    9  A    between atoms: C_19  and  C_37
                            x       y       z     vdW  Elec       q    Type
                         _______ _______ _______ _____ _____    ______ ____

>  <TORSDO>
F 9

$$$$
=
 OpenBabel10262422053D

 43 49  0  0  1  0  0  0  0  0999 V2000
  188.2450  177.5390  147.0350 C   0  0  1  0  0  3  0  0  0  0  0  0
  188.5250  178.0310  141.9210 C   0  0  0  0  0  0  0  0  0  0  0  0
  185.9640  178.6420  141.0950 C   0  0  0  0  0  0  0  0  0  0  0  0
  188.9930  177.4760  144.6290 C   0  0  0  0  0  0  0  0  0  0  0  0
  186.8420  177.6000  146.4890 C   0  0  0  0  0  3  0  0  0  0  0  0
  188.3080  176.6340  148.0930 O   0  0  0  0  0  1  0  0  0  0  0  0
  187.6950  177.7970  144.2010 C   0  0  0  0  0  0  0  0  0  0  0  0
  189.2210  177.1730  146.0070 N   0  0  0  0  0  2  0  0  0  0  0  0
  186.5960  177.7610  145.1860 C   0  0  0  0  0  3  0  0  0  0  0  0
  186.2050  178.3760  142.4060 N   0  0  0  0  0  0  0  0  0  0  0  0
  187.4550  178.0730  142.8430 C   0  0  0  0  0  0  0  0  0  0  0  0
  189.8140  177.7010  142.3630 C   0  0  0  0  0  3  0  0  0  0  0  0
  188.2580  178.3140  140.5740 C   0  0  0  0  0  0  0  0  0  0  0  0
  186.9850  178.6170  140.1980 N   0  0  0  0  0  0  0  0  0  0  0  0
  190.0450  177.4200  143.7120 C   0  0  0  0  0  3  0  0  0  0  0  0
  184.5840  179.0010  140.6550 C   0  0  2  0  0  3  0  0  0  0  0  0
  184.3020  178.3950  139.3350 C   0  0  2  0  0  3  0  0  0  0  0  0
  184.6360  179.7540  139.4660 O   0  0  0  0  0  0  0  0  0  0  0  0
  182.8050  178.2610  139.1420 C   0  0  1  0  0  3  0  0  0  0  0  0
  182.4270  178.9180  137.9710 O   0  0  0  0  0  1  0  0  0  0  0  0
  182.4410  176.7890  139.0420 C   0  0  0  0  0  2  0  0  0  0  0  0
  181.6200  176.5550  137.8530 N   0  0  0  0  0  0  0  0  0  0  0  0
  181.5580  174.1650  137.5940 C   0  0  0  0  0  2  0  0  0  0  0  0
  180.3230  176.0990  138.3510 C   0  0  0  0  0  2  0  0  0  0  0  0
  182.1350  175.4470  137.0250 C   0  0  1  0  0  0  0  0  0  0  0  0
  181.6180  175.6300  135.6020 C   0  0  0  0  0  1  0  0  0  0  0  0
  180.2900  174.5800  138.2970 C   0  0  0  0  0  2  0  0  0  0  0  0
  183.6750  175.3970  136.9770 C   0  0  0  0  0  2  0  0  0  0  0  0
  184.1890  175.8490  135.6900 N   0  0  0  0  0  0  0  0  0  0  0  0
  187.0260  177.8910  135.3380 O   0  0  0  0  0  0  0  0  0  0  0  0
  186.4790  175.6300  134.8780 C   0  0  0  0  0  2  0  0  0  0  0  0
  186.2120  176.9840  135.3720 C   0  0  0  0  0  0  0  0  0  0  0  0
  185.2170  174.8840  135.2790 C   0  0  0  0  0  2  0  0  0  0  0  0
  184.8540  177.1280  135.9220 C   0  0  0  0  0  2  0  0  0  0  0  0
  189.3230  178.2800  139.6080 N   0  0  0  0  0  2  0  0  0  0  0  0
  189.3750  175.3660  137.2360 C   0  0  0  0  0  3  0  0  0  0  0  0
  190.7050  174.9540  137.3670 C   0  0  0  0  0  0  0  0  0  0  0  0
  191.0920  176.7280  138.9700 C   0  0  0  0  0  3  0  0  0  0  0  0
  188.9090  176.4630  137.9650 C   0  0  0  0  0  3  0  0  0  0  0  0
  189.7650  177.1540  138.8360 C   0  0  0  0  0  0  0  0  0  0  0  0
  191.5610  175.6310  138.2410 C   0  0  0  0  0  3  0  0  0  0  0  0
  190.1170  173.0810  136.0590 O   0  0  0  0  0  1  0  0  0  0  0  0
  191.1970  173.7710  136.6100 C   0  0  0  0  0  2  0  0  0  0  0  0
  1  6  1  1  0  0  0
  2 12  2  0  0  0  0
  2 11  1  0  0  0  0
  3 10  2  0  0  0  0
  4  8  1  0  0  0  0
  5  1  1  0  0  0  0
  7  4  1  0  0  0  0
  7  9  1  0  0  0  0
  8  1  1  0  0  0  0
  9  5  2  0  0  0  0
 10 11  1  0  0  0  0
 11  7  2  0  0  0  0
 12 15  1  0  0  0  0
 13  2  1  0  0  0  0
 14 13  2  0  0  0  0
 14  3  1  0  0  0  0
 15  4  2  0  0  0  0
 16  3  1  6  0  0  0
 17 19  1  1  0  0  0
 17 18  1  0  0  0  0
 17 16  1  0  0  0  0
 18 16  1  0  0  0  0
 19 20  1  6  0  0  0
 21 19  1  0  0  0  0
 22 24  1  0  0  0  0
 22 21  1  0  0  0  0
 23 27  1  0  0  0  0
 25 26  1  6  0  0  0
 25 23  1  0  0  0  0
 25 22  1  0  0  0  0
 27 24  1  0  0  0  0
 28 25  1  0  0  0  0
 29 34  1  0  0  0  0
 29 28  1  0  0  0  0
 30 32  2  0  0  0  0
 31 33  1  0  0  0  0
 31 32  1  0  0  0  0
 32 34  1  0  0  0  0
 33 29  1  0  0  0  0
 35 13  1  0  0  0  0
 36 37  2  0  0  0  0
 36 39  1  0  0  0  0
 37 41  1  0  0  0  0
 39 40  2  0  0  0  0
 40 38  1  0  0  0  0
 40 35  1  0  0  0  0
 41 38  2  0  0  0  0
 42 43  1  0  0  0  0
 43 37  1  0  0  0  0
M  END
>  <MODEL>
5

>  <REMARK>
 VINA RESULT:      -8.7      2.424      5.856
  Name = 
  9 active torsions:
  status: ('A' for Active; 'I' for Inactive)
    1  A    between atoms: N_1  and  C_34
    2  A    between atoms: N_1  and  C_35
    3  A    between atoms: C_2  and  C_13
    4  A    between atoms: C_3  and  N_4
    5  A    between atoms: C_3  and  C_12
    6  A    between atoms: C_6  and  C_12
    7  A    between atoms: N_11  and  C_14
    8  A    between atoms: C_14  and  C_22
    9  A    between atoms: C_19  and  C_37
                            x       y       z     vdW  Elec       q    Type
                         _______ _______ _______ _____ _____    ______ ____

>  <TORSDO>
F 9

$$$$
=
 OpenBabel10262422053D

 43 49  0  0  1  0  0  0  0  0999 V2000
  181.3650  179.5970  140.2540 C   0  0  1  0  0  3  0  0  0  0  0  0
  185.5130  178.4400  143.0690 C   0  0  0  0  0  0  0  0  0  0  0  0
  187.6310  178.4380  141.3010 C   0  0  0  0  0  0  0  0  0  0  0  0
  182.9170  178.8500  142.0930 C   0  0  0  0  0  0  0  0  0  0  0  0
  182.5080  179.3090  139.3150 C   0  0  0  0  0  3  0  0  0  0  0  0
  180.1750  179.0980  139.7270 O   0  0  0  0  0  1  0  0  0  0  0  0
  184.0020  178.8570  141.2030 C   0  0  0  0  0  0  0  0  0  0  0  0
  181.5940  179.0390  141.5870 N   0  0  0  0  0  2  0  0  0  0  0  0
  183.7310  179.0100  139.7600 C   0  0  0  0  0  3  0  0  0  0  0  0
  186.3690  178.6410  140.8410 N   0  0  0  0  0  0  0  0  0  0  0  0
  185.3060  178.6480  141.6870 C   0  0  0  0  0  0  0  0  0  0  0  0
  184.4180  178.4280  143.9450 C   0  0  0  0  0  3  0  0  0  0  0  0
  186.8230  178.2380  143.5250 C   0  0  0  0  0  0  0  0  0  0  0  0
  187.8480  178.2480  142.6290 N   0  0  0  0  0  0  0  0  0  0  0  0
  183.1240  178.6280  143.4570 C   0  0  0  0  0  3  0  0  0  0  0  0
  188.7780  178.4670  140.3470 C   0  0  2  0  0  3  0  0  0  0  0  0
  189.1330  177.0890  139.9430 C   0  0  2  0  0  3  0  0  0  0  0  0
  189.8840  177.7930  140.9000 O   0  0  0  0  0  0  0  0  0  0  0  0
  189.8590  177.1150  138.6130 C   0  0  1  0  0  3  0  0  0  0  0  0
  191.2270  176.9350  138.8280 O   0  0  0  0  0  1  0  0  0  0  0  0
  189.3310  175.9980  137.7290 C   0  0  0  0  0  2  0  0  0  0  0  0
  188.8330  176.5490  136.4670 N   0  0  0  0  0  0  0  0  0  0  0  0
  186.7070  177.5340  137.0080 C   0  0  0  0  0  2  0  0  0  0  0  0
  189.0360  177.9930  136.5590 C   0  0  0  0  0  2  0  0  0  0  0  0
  187.3770  176.3650  136.3110 C   0  0  1  0  0  0  0  0  0  0  0  0
  187.0430  176.4210  134.8250 C   0  0  0  0  0  1  0  0  0  0  0  0
  187.7330  178.6390  136.9990 C   0  0  0  0  0  2  0  0  0  0  0  0
  186.8770  175.0170  136.8680 C   0  0  0  0  0  2  0  0  0  0  0  0
  185.6610  174.5760  136.1980 N   0  0  0  0  0  0  0  0  0  0  0  0
  184.0860  171.5030  136.8520 O   0  0  0  0  0  0  0  0  0  0  0  0
  183.6120  173.7900  137.2660 C   0  0  0  0  0  2  0  0  0  0  0  0
  184.4220  172.6730  136.7710 C   0  0  0  0  0  0  0  0  0  0  0  0
  184.5330  174.9790  137.0500 C   0  0  0  0  0  2  0  0  0  0  0  0
  185.6930  173.1160  136.1740 C   0  0  0  0  0  2  0  0  0  0  0  0
  187.0710  178.0210  144.9250 N   0  0  0  0  0  2  0  0  0  0  0  0
  190.6420  176.9630  145.4300 C   0  0  0  0  0  3  0  0  0  0  0  0
  190.6720  176.8250  146.8210 C   0  0  0  0  0  0  0  0  0  0  0  0
  188.3400  177.4660  146.9320 C   0  0  0  0  0  3  0  0  0  0  0  0
  189.4630  177.3610  144.7940 C   0  0  0  0  0  3  0  0  0  0  0  0
  188.3030  177.6180  145.5410 C   0  0  0  0  0  0  0  0  0  0  0  0
  189.5180  177.0690  147.5710 C   0  0  0  0  0  3  0  0  0  0  0  0
  192.4320  175.2540  146.8480 O   0  0  0  0  0  1  0  0  0  0  0  0
  191.9200  176.3770  147.4990 C   0  0  0  0  0  2  0  0  0  0  0  0
  1  6  1  6  0  0  0
  1  8  1  0  0  0  0
  2 13  1  0  0  0  0
  2 12  1  0  0  0  0
  3 14  1  0  0  0  0
  4 15  1  0  0  0  0
  5  9  2  0  0  0  0
  5  1  1  0  0  0  0
  7 11  1  0  0  0  0
  7  4  2  0  0  0  0
  8  4  1  0  0  0  0
  9  7  1  0  0  0  0
 10  3  2  0  0  0  0
 10 11  1  0  0  0  0
 11  2  2  0  0  0  0
 13 35  1  0  0  0  0
 14 13  2  0  0  0  0
 15 12  2  0  0  0  0
 16 18  1  0  0  0  0
 16  3  1  1  0  0  0
 17 19  1  6  0  0  0
 17 16  1  0  0  0  0
 17 18  1  0  0  0  0
 19 20  1  1  0  0  0
 21 19  1  0  0  0  0
 22 24  1  0  0  0  0
 22 21  1  0  0  0  0
 24 27  1  0  0  0  0
 25 26  1  6  0  0  0
 25 22  1  0  0  0  0
 25 28  1  0  0  0  0
 25 23  1  0  0  0  0
 27 23  1  0  0  0  0
 29 28  1  0  0  0  0
 29 33  1  0  0  0  0
 32 30  2  0  0  0  0
 32 31  1  0  0  0  0
 33 31  1  0  0  0  0
 34 29  1  0  0  0  0
 34 32  1  0  0  0  0
 35 40  1  0  0  0  0
 36 37  1  0  0  0  0
 37 43  1  0  0  0  0
 37 41  2  0  0  0  0
 38 41  1  0  0  0  0
 39 36  2  0  0  0  0
 39 40  1  0  0  0  0
 40 38  2  0  0  0  0
 42 43  1  0  0  0  0
M  END
>  <MODEL>
6

>  <REMARK>
 VINA RESULT:      -8.7      1.413      6.402
  Name = 
  9 active torsions:
  status: ('A' for Active; 'I' for Inactive)
    1  A    between atoms: N_1  and  C_34
    2  A    between atoms: N_1  and  C_35
    3  A    between atoms: C_2  and  C_13
    4  A    between atoms: C_3  and  N_4
    5  A    between atoms: C_3  and  C_12
    6  A    between atoms: C_6  and  C_12
    7  A    between atoms: N_11  and  C_14
    8  A    between atoms: C_14  and  C_22
    9  A    between atoms: C_19  and  C_37
                            x       y       z     vdW  Elec       q    Type
                         _______ _______ _______ _____ _____    ______ ____

>  <TORSDO>
F 9

$$$$
=
 OpenBabel10262422053D

 43 49  0  0  1  0  0  0  0  0999 V2000
  188.4840  176.9630  146.6380 C   0  0  1  0  0  3  0  0  0  0  0  0
  186.0130  178.4960  142.3940 C   0  0  0  0  0  0  0  0  0  0  0  0
  187.8450  178.2580  140.3440 C   0  0  0  0  0  0  0  0  0  0  0  0
  186.8240  177.9550  145.0220 C   0  0  0  0  0  0  0  0  0  0  0  0
  189.4960  177.1210  145.5340 C   0  0  0  0  0  3  0  0  0  0  0  0
  189.0280  177.3850  147.8500 O   0  0  0  0  0  1  0  0  0  0  0  0
  187.7460  177.8280  143.9720 C   0  0  0  0  0  0  0  0  0  0  0  0
  187.2490  177.6980  146.3630 N   0  0  0  0  0  2  0  0  0  0  0  0
  189.1430  177.4790  144.2960 C   0  0  0  0  0  3  0  0  0  0  0  0
  188.2240  177.9930  141.6220 N   0  0  0  0  0  0  0  0  0  0  0  0
  187.3450  178.1010  142.6520 C   0  0  0  0  0  0  0  0  0  0  0  0
  185.1060  178.6280  143.4550 C   0  0  0  0  0  3  0  0  0  0  0  0
  185.6390  178.7600  141.0680 C   0  0  0  0  0  0  0  0  0  0  0  0
  186.5640  178.6280  140.0780 N   0  0  0  0  0  0  0  0  0  0  0  0
  185.5120  178.3620  144.7650 C   0  0  0  0  0  3  0  0  0  0  0  0
  188.8290  178.0990  139.2330 C   0  0  2  0  0  3  0  0  0  0  0  0
  188.4690  176.9270  138.4050 C   0  0  2  0  0  3  0  0  0  0  0  0
  189.5020  176.8690  139.3560 O   0  0  0  0  0  0  0  0  0  0  0  0
  189.0670  177.0740  137.0210 C   0  0  1  0  0  3  0  0  0  0  0  0
  190.4520  176.9210  137.0940 O   0  0  0  0  0  1  0  0  0  0  0  0
  188.4830  176.0110  136.1050 C   0  0  0  0  0  2  0  0  0  0  0  0
  188.1560  174.8090  136.8750 N   0  0  0  0  0  0  0  0  0  0  0  0
  187.7950  173.0920  135.2320 C   0  0  0  0  0  2  0  0  0  0  0  0
  189.3600  173.9810  136.8440 C   0  0  0  0  0  2  0  0  0  0  0  0
  187.1040  174.0000  136.2300 C   0  0  1  0  0  0  0  0  0  0  0  0
  186.4380  173.1400  137.2990 C   0  0  0  0  0  1  0  0  0  0  0  0
  189.2070  172.9440  135.7430 C   0  0  0  0  0  2  0  0  0  0  0  0
  186.0170  174.8560  135.5510 C   0  0  0  0  0  2  0  0  0  0  0  0
  184.8390  175.0010  136.3970 N   0  0  0  0  0  0  0  0  0  0  0  0
  182.8250  177.8790  136.4480 O   0  0  0  0  0  0  0  0  0  0  0  0
  182.5990  175.6480  135.6770 C   0  0  0  0  0  2  0  0  0  0  0  0
  183.3130  176.7740  136.2880 C   0  0  0  0  0  0  0  0  0  0  0  0
  183.6820  174.5850  135.5930 C   0  0  0  0  0  2  0  0  0  0  0  0
  184.6890  176.4270  136.6790 C   0  0  0  0  0  2  0  0  0  0  0  0
  184.2930  179.1660  140.7690 N   0  0  0  0  0  2  0  0  0  0  0  0
  182.0690  176.3050  139.7680 C   0  0  0  0  0  3  0  0  0  0  0  0
  180.8490  176.7340  140.2980 C   0  0  0  0  0  0  0  0  0  0  0  0
  181.9160  178.7490  141.1160 C   0  0  0  0  0  3  0  0  0  0  0  0
  183.2130  177.0960  139.9200 C   0  0  0  0  0  3  0  0  0  0  0  0
  183.1440  178.3230  140.5980 C   0  0  0  0  0  0  0  0  0  0  0  0
  180.7710  177.9600  140.9660 C   0  0  0  0  0  3  0  0  0  0  0  0
  178.9770  175.7460  141.3400 O   0  0  0  0  0  1  0  0  0  0  0  0
  179.6250  175.9060  140.1160 C   0  0  0  0  0  2  0  0  0  0  0  0
  1  6  1  1  0  0  0
  2 11  2  0  0  0  0
  2 12  1  0  0  0  0
  3 10  2  0  0  0  0
  4  8  1  0  0  0  0
  5  1  1  0  0  0  0
  7  9  1  0  0  0  0
  7  4  2  0  0  0  0
  8  1  1  0  0  0  0
  9  5  2  0  0  0  0
 10 11  1  0  0  0  0
 11  7  1  0  0  0  0
 12 15  2  0  0  0  0
 13  2  1  0  0  0  0
 14  3  1  0  0  0  0
 14 13  2  0  0  0  0
 15  4  1  0  0  0  0
 16 18  1  0  0  0  0
 16  3  1  1  0  0  0
 17 19  1  6  0  0  0
 17 16  1  0  0  0  0
 17 18  1  0  0  0  0
 19 20  1  1  0  0  0
 21 22  1  0  0  0  0
 21 19  1  0  0  0  0
 23 27  1  0  0  0  0
 23 25  1  0  0  0  0
 24 22  1  0  0  0  0
 25 22  1  0  0  0  0
 25 26  1  1  0  0  0
 27 24  1  0  0  0  0
 28 25  1  0  0  0  0
 28 29  1  0  0  0  0
 29 34  1  0  0  0  0
 31 32  1  0  0  0  0
 32 30  2  0  0  0  0
 32 34  1  0  0  0  0
 33 31  1  0  0  0  0
 33 29  1  0  0  0  0
 35 13  1  0  0  0  0
 36 39  2  0  0  0  0
 36 37  1  0  0  0  0
 37 41  2  0  0  0  0
 39 40  1  0  0  0  0
 40 35  1  0  0  0  0
 40 38  2  0  0  0  0
 41 38  1  0  0  0  0
 43 37  1  0  0  0  0
 43 42  1  0  0  0  0
M  END
>  <MODEL>
7

>  <REMARK>
 VINA RESULT:      -8.7      2.106      3.109
  Name = 
  9 active torsions:
  status: ('A' for Active; 'I' for Inactive)
    1  A    between atoms: N_1  and  C_34
    2  A    between atoms: N_1  and  C_35
    3  A    between atoms: C_2  and  C_13
    4  A    between atoms: C_3  and  N_4
    5  A    between atoms: C_3  and  C_12
    6  A    between atoms: C_6  and  C_12
    7  A    between atoms: N_11  and  C_14
    8  A    between atoms: C_14  and  C_22
    9  A    between atoms: C_19  and  C_37
                            x       y       z     vdW  Elec       q    Type
                         _______ _______ _______ _____ _____    ______ ____

>  <TORSDO>
F 9

$$$$
=
 OpenBabel10262422053D

 43 49  0  0  1  0  0  0  0  0999 V2000
  191.3150  176.8220  146.9770 C   0  0  1  0  0  3  0  0  0  0  0  0
  189.0450  177.8840  142.4840 C   0  0  0  0  0  0  0  0  0  0  0  0
  186.3680  178.2140  143.0660 C   0  0  0  0  0  0  0  0  0  0  0  0
  190.8050  177.1170  144.5270 C   0  0  0  0  0  0  0  0  0  0  0  0
  189.8230  176.7430  147.1720 C   0  0  0  0  0  3  0  0  0  0  0  0
  191.9480  175.8290  147.7230 O   0  0  0  0  0  1  0  0  0  0  0  0
  189.4430  177.2970  144.8160 C   0  0  0  0  0  0  0  0  0  0  0  0
  191.6940  176.7060  145.5680 N   0  0  0  0  0  2  0  0  0  0  0  0
  188.9660  177.0050  146.1820 C   0  0  0  0  0  3  0  0  0  0  0  0
  187.2330  177.8480  144.0490 N   0  0  0  0  0  0  0  0  0  0  0  0
  188.5560  177.6780  143.7940 C   0  0  0  0  0  0  0  0  0  0  0  0
  190.4070  177.6920  142.2100 C   0  0  0  0  0  3  0  0  0  0  0  0
  188.1390  178.2660  141.4840 C   0  0  0  0  0  0  0  0  0  0  0  0
  186.8260  178.4270  141.8040 N   0  0  0  0  0  0  0  0  0  0  0  0
  191.2830  177.3060  143.2280 C   0  0  0  0  0  3  0  0  0  0  0  0
  184.9270  178.4220  143.3900 C   0  0  2  0  0  3  0  0  0  0  0  0
  184.1820  178.7840  142.1640 C   0  0  2  0  0  3  0  0  0  0  0  0
  184.5560  179.7510  143.1130 O   0  0  0  0  0  0  0  0  0  0  0  0
  182.7150  178.4490  142.3370 C   0  0  1  0  0  3  0  0  0  0  0  0
  182.1230  179.3790  143.1930 O   0  0  0  0  0  1  0  0  0  0  0  0
  182.0260  178.4920  140.9840 C   0  0  0  0  0  2  0  0  0  0  0  0
  183.0240  178.5260  139.9130 N   0  0  0  0  0  0  0  0  0  0  0  0
  181.7830  178.1580  137.8870 C   0  0  0  0  0  2  0  0  0  0  0  0
  182.8630  179.8250  139.2620 C   0  0  0  0  0  2  0  0  0  0  0  0
  182.7540  177.5240  138.8640 C   0  0  1  0  0  0  0  0  0  0  0  0
  184.0610  177.2280  138.1350 C   0  0  0  0  0  1  0  0  0  0  0  0
  181.9940  179.6450  138.0290 C   0  0  0  0  0  2  0  0  0  0  0  0
  182.2020  176.1980  139.4240 C   0  0  0  0  0  2  0  0  0  0  0  0
  180.9050  175.8690  138.8480 N   0  0  0  0  0  0  0  0  0  0  0  0
  179.9430  172.6090  137.9580 O   0  0  0  0  0  0  0  0  0  0  0  0
  179.3480  174.1670  139.6430 C   0  0  0  0  0  2  0  0  0  0  0  0
  180.1070  173.6980  138.4800 C   0  0  0  0  0  0  0  0  0  0  0  0
  180.0270  175.4880  139.9630 C   0  0  0  0  0  2  0  0  0  0  0  0
  181.0960  174.6840  138.0150 C   0  0  0  0  0  2  0  0  0  0  0  0
  188.6020  178.4830  140.1400 N   0  0  0  0  0  2  0  0  0  0  0  0
  190.0090  175.8590  137.8470 C   0  0  0  0  0  3  0  0  0  0  0  0
  188.9060  175.6260  137.0190 C   0  0  0  0  0  0  0  0  0  0  0  0
  187.6360  177.2780  138.2530 C   0  0  0  0  0  3  0  0  0  0  0  0
  189.9190  176.7940  138.8820 C   0  0  0  0  0  3  0  0  0  0  0  0
  188.7310  177.5090  139.0940 C   0  0  0  0  0  0  0  0  0  0  0  0
  187.7220  176.3430  137.2180 C   0  0  0  0  0  3  0  0  0  0  0  0
  190.1210  173.8320  136.0880 O   0  0  0  0  0  1  0  0  0  0  0  0
  189.0070  174.6490  135.9010 C   0  0  0  0  0  2  0  0  0  0  0  0
  1  5  1  0  0  0  0
  1  6  1  1  0  0  0
  2 11  1  0  0  0  0
  3 10  2  0  0  0  0
  4  7  1  0  0  0  0
  4  8  1  0  0  0  0
  7  9  1  0  0  0  0
  8  1  1  0  0  0  0
  9  5  2  0  0  0  0
 11 10  1  0  0  0  0
 11  7  2  0  0  0  0
 12  2  2  0  0  0  0
 12 15  1  0  0  0  0
 13 14  2  0  0  0  0
 13  2  1  0  0  0  0
 14  3  1  0  0  0  0
 15  4  2  0  0  0  0
 16  3  1  6  0  0  0
 17 19  1  1  0  0  0
 17 18  1  0  0  0  0
 17 16  1  0  0  0  0
 18 16  1  0  0  0  0
 19 20  1  1  0  0  0
 21 19  1  0  0  0  0
 22 21  1  0  0  0  0
 23 27  1  0  0  0  0
 23 25  1  0  0  0  0
 24 22  1  0  0  0  0
 25 26  1  6  0  0  0
 25 28  1  0  0  0  0
 25 22  1  0  0  0  0
 27 24  1  0  0  0  0
 29 28  1  0  0  0  0
 29 33  1  0  0  0  0
 30 32  2  0  0  0  0
 31 33  1  0  0  0  0
 32 31  1  0  0  0  0
 34 32  1  0  0  0  0
 34 29  1  0  0  0  0
 35 13  1  0  0  0  0
 36 39  1  0  0  0  0
 37 41  1  0  0  0  0
 37 36  2  0  0  0  0
 38 40  1  0  0  0  0
 39 40  2  0  0  0  0
 40 35  1  0  0  0  0
 41 38  2  0  0  0  0
 43 42  1  0  0  0  0
 43 37  1  0  0  0  0
M  END
>  <MODEL>
8

>  <REMARK>
 VINA RESULT:      -8.4      2.634      5.520
  Name = 
  9 active torsions:
  status: ('A' for Active; 'I' for Inactive)
    1  A    between atoms: N_1  and  C_34
    2  A    between atoms: N_1  and  C_35
    3  A    between atoms: C_2  and  C_13
    4  A    between atoms: C_3  and  N_4
    5  A    between atoms: C_3  and  C_12
    6  A    between atoms: C_6  and  C_12
    7  A    between atoms: N_11  and  C_14
    8  A    between atoms: C_14  and  C_22
    9  A    between atoms: C_19  and  C_37
                            x       y       z     vdW  Elec       q    Type
                         _______ _______ _______ _____ _____    ______ ____

>  <TORSDO>
F 9

$$$$
=
 OpenBabel10262422053D

 43 49  0  0  1  0  0  0  0  0999 V2000
  191.3480  176.7970  147.0310 C   0  0  1  0  0  3  0  0  0  0  0  0
  188.8990  177.9980  142.6690 C   0  0  0  0  0  0  0  0  0  0  0  0
  186.2370  178.2360  143.3560 C   0  0  0  0  0  0  0  0  0  0  0  0
  190.7470  177.1870  144.6150 C   0  0  0  0  0  0  0  0  0  0  0  0
  189.8670  176.6720  147.2720 C   0  0  0  0  0  3  0  0  0  0  0  0
  192.0300  175.7880  147.7100 O   0  0  0  0  0  1  0  0  0  0  0  0
  189.3920  177.3200  144.9570 C   0  0  0  0  0  0  0  0  0  0  0  0
  191.6810  176.7530  145.6070 N   0  0  0  0  0  2  0  0  0  0  0  0
  188.9690  176.9560  146.3240 C   0  0  0  0  0  3  0  0  0  0  0  0
  187.1440  177.8490  144.2920 N   0  0  0  0  0  0  0  0  0  0  0  0
  188.4610  177.7230  143.9840 C   0  0  0  0  0  0  0  0  0  0  0  0
  190.2550  177.8530  142.3410 C   0  0  0  0  0  3  0  0  0  0  0  0
  187.9510  178.4020  141.7190 C   0  0  0  0  0  0  0  0  0  0  0  0
  186.6450  178.5160  142.0890 N   0  0  0  0  0  0  0  0  0  0  0  0
  191.1740  177.4440  143.3100 C   0  0  0  0  0  3  0  0  0  0  0  0
  184.8030  178.3930  143.7370 C   0  0  2  0  0  3  0  0  0  0  0  0
  184.0440  178.9780  142.6100 C   0  0  2  0  0  3  0  0  0  0  0  0
  184.4430  179.7540  143.7120 O   0  0  0  0  0  0  0  0  0  0  0  0
  182.5750  178.6290  142.7450 C   0  0  1  0  0  3  0  0  0  0  0  0
  181.8730  179.7430  143.2060 O   0  0  0  0  0  1  0  0  0  0  0  0
  182.0320  178.2070  141.3900 C   0  0  0  0  0  2  0  0  0  0  0  0
  181.7340  179.3890  140.5790 N   0  0  0  0  0  0  0  0  0  0  0  0
  180.5050  178.5560  138.6870 C   0  0  0  0  0  2  0  0  0  0  0  0
  180.3220  179.6850  140.8160 C   0  0  0  0  0  2  0  0  0  0  0  0
  181.8420  179.1170  139.1330 C   0  0  1  0  0  0  0  0  0  0  0  0
  182.0850  180.4390  138.4120 C   0  0  0  0  0  1  0  0  0  0  0  0
  179.5040  179.0820  139.6860 C   0  0  0  0  0  2  0  0  0  0  0  0
  182.9970  178.1570  138.7840 C   0  0  0  0  0  2  0  0  0  0  0  0
  182.5320  177.0120  138.0130 N   0  0  0  0  0  0  0  0  0  0  0  0
  184.4640  175.4080  135.5550 O   0  0  0  0  0  0  0  0  0  0  0  0
  183.6850  174.8800  137.7310 C   0  0  0  0  0  2  0  0  0  0  0  0
  183.8550  175.7410  136.5570 C   0  0  0  0  0  0  0  0  0  0  0  0
  182.9930  175.8070  138.7160 C   0  0  0  0  0  2  0  0  0  0  0  0
  183.2180  177.0580  136.7240 C   0  0  0  0  0  2  0  0  0  0  0  0
  188.3610  178.6890  140.3710 N   0  0  0  0  0  2  0  0  0  0  0  0
  187.0780  177.0220  137.2570 C   0  0  0  0  0  3  0  0  0  0  0  0
  188.1140  176.1160  137.0080 C   0  0  0  0  0  0  0  0  0  0  0  0
  189.2800  176.9150  138.9740 C   0  0  0  0  0  3  0  0  0  0  0  0
  187.1500  177.8780  138.3590 C   0  0  0  0  0  3  0  0  0  0  0  0
  188.2540  177.8330  139.2250 C   0  0  0  0  0  0  0  0  0  0  0  0
  189.2110  176.0570  137.8720 C   0  0  0  0  0  3  0  0  0  0  0  0
  188.7190  174.0080  136.1370 O   0  0  0  0  0  1  0  0  0  0  0  0
  188.0280  175.1850  135.8490 C   0  0  0  0  0  2  0  0  0  0  0  0
  1  5  1  0  0  0  0
  1  6  1  1  0  0  0
  2 11  1  0  0  0  0
  3 10  2  0  0  0  0
  4  7  1  0  0  0  0
  4  8  1  0  0  0  0
  7  9  1  0  0  0  0
  8  1  1  0  0  0  0
  9  5  2  0  0  0  0
 11 10  1  0  0  0  0
 11  7  2  0  0  0  0
 12  2  2  0  0  0  0
 12 15  1  0  0  0  0
 13 14  2  0  0  0  0
 13  2  1  0  0  0  0
 14  3  1  0  0  0  0
 15  4  2  0  0  0  0
 16  3  1  6  0  0  0
 17 19  1  1  0  0  0
 17 18  1  0  0  0  0
 17 16  1  0  0  0  0
 18 16  1  0  0  0  0
 19 20  1  6  0  0  0
 21 19  1  0  0  0  0
 22 24  1  0  0  0  0
 22 21  1  0  0  0  0
 23 25  1  0  0  0  0
 23 27  1  0  0  0  0
 25 26  1  6  0  0  0
 25 22  1  0  0  0  0
 27 24  1  0  0  0  0
 28 25  1  0  0  0  0
 29 33  1  0  0  0  0
 29 28  1  0  0  0  0
 30 32  2  0  0  0  0
 31 33  1  0  0  0  0
 32 34  1  0  0  0  0
 32 31  1  0  0  0  0
 34 29  1  0  0  0  0
 35 13  1  0  0  0  0
 36 39  1  0  0  0  0
 37 36  2  0  0  0  0
 37 41  1  0  0  0  0
 38 40  1  0  0  0  0
 39 40  2  0  0  0  0
 40 35  1  0  0  0  0
 41 38  2  0  0  0  0
 43 42  1  0  0  0  0
 43 37  1  0  0  0  0
M  END
>  <MODEL>
9

>  <REMARK>
 VINA RESULT:      -8.4      2.373      5.483
  Name = 
  9 active torsions:
  status: ('A' for Active; 'I' for Inactive)
    1  A    between atoms: N_1  and  C_34
    2  A    between atoms: N_1  and  C_35
    3  A    between atoms: C_2  and  C_13
    4  A    between atoms: C_3  and  N_4
    5  A    between atoms: C_3  and  C_12
    6  A    between atoms: C_6  and  C_12
    7  A    between atoms: N_11  and  C_14
    8  A    between atoms: C_14  and  C_22
    9  A    between atoms: C_19  and  C_37
                            x       y       z     vdW  Elec       q    Type
                         _______ _______ _______ _____ _____    ______ ____

>  <TORSDO>
F 9

$$$$
