=
 OpenBabel10262421303D

 32 34  0  0  1  0  0  0  0  0999 V2000
  187.3880  177.8930  142.4910 C   0  0  0  0  0  0  0  0  0  0  0  0
  183.4400  178.8080  145.1470 C   0  0  0  0  0  2  0  0  0  0  0  0
  184.2140  178.4200  146.4230 C   0  0  0  0  0  2  0  0  0  0  0  0
  189.3840  176.7580  143.6310 C   0  0  0  0  0  0  0  0  0  0  0  0
  190.3270  176.7860  144.8140 C   0  0  2  0  0  3  0  0  0  0  0  0
  184.2890  179.5160  144.0870 C   0  0  0  0  0  2  0  0  0  0  0  0
  186.1330  178.5560  142.6220 C   0  0  0  0  0  0  0  0  0  0  0  0
  186.3060  178.4290  145.0480 C   0  0  0  0  0  0  0  0  0  0  0  0
  187.5420  177.7830  144.9370 C   0  0  0  0  0  0  0  0  0  0  0  0
  185.7090  178.7590  146.3880 C   0  0  0  0  0  2  0  0  0  0  0  0
  185.6040  178.8080  143.9010 C   0  0  0  0  0  0  0  0  0  0  0  0
  188.2730  177.3420  146.1720 C   0  0  0  0  0  2  0  0  0  0  0  0
  189.6910  176.0450  142.6380 O   0  0  0  0  0  0  0  0  0  0  0  0
  188.0800  177.4860  143.6670 C   0  0  0  0  0  0  0  0  0  0  0  0
  189.7660  177.5770  146.0090 C   0  0  1  0  0  3  0  0  0  0  0  0
  188.7040  178.5290  140.4450 C   0  0  0  0  0  3  0  0  0  0  0  0
  188.0360  177.6430  141.1730 C   0  0  0  0  0  3  0  0  0  0  0  0
  190.4360  177.1620  139.3860 C   0  0  0  0  0  1  0  0  0  0  0  0
  189.2970  178.1290  139.1440 C   0  0  0  0  0  2  0  0  0  0  0  0
  190.9090  176.0590  147.4150 O   0  0  0  0  0  0  0  0  0  0  0  0
  190.4520  177.1820  147.2780 C   0  0  0  0  0  3  0  0  0  0  0  0
  191.5050  178.8210  143.9690 C   0  0  0  0  0  1  0  0  0  0  0  0
  191.6700  177.3760  144.4000 C   0  0  0  0  0  2  0  0  0  0  0  0
  185.3140  178.9500  141.4280 C   0  0  0  0  0  2  0  0  0  0  0  0
  184.2900  177.9490  141.1860 N   0  0  0  0  0  2  0  0  0  0  0  0
  183.2420  178.6020  140.4220 C   0  0  0  0  0  2  0  0  0  0  0  0
  182.8370  177.7300  139.2450 C   0  0  0  0  0  2  0  0  0  0  0  0
  183.3990  178.2540  138.0090 N   0  0  0  0  0  2  0  0  0  0  0  0
  184.2440  177.2190  137.4400 C   0  0  0  0  0  2  0  0  0  0  0  0
  185.6740  177.5730  137.6440 C   0  0  0  0  0  0  0  0  0  0  0  0
  186.0200  178.8540  138.0510 O   0  0  0  0  0  1  0  0  0  0  0  0
  186.5720  176.7240  137.4090 O   0  0  0  0  0  0  0  0  0  0  0  0
  1  7  2  0  0  0  0
  1 14  1  0  0  0  0
  2  3  1  0  0  0  0
  4 14  1  0  0  0  0
  4  5  1  0  0  0  0
  5 23  1  6  0  0  0
  5 15  1  0  0  0  0
  6  2  1  0  0  0  0
  7 11  1  0  0  0  0
  8 10  1  0  0  0  0
  9  8  1  0  0  0  0
  9 12  1  0  0  0  0
 10  3  1  0  0  0  0
 11  6  1  0  0  0  0
 11  8  2  0  0  0  0
 13  4  2  0  0  0  0
 14  9  2  0  0  0  0
 15 12  1  0  0  0  0
 15 21  1  1  0  0  0
 16 17  2  0  0  0  0
 17  1  1  0  0  0  0
 19 18  1  0  0  0  0
 19 16  1  0  0  0  0
 21 20  2  0  0  0  0
 22 23  1  0  0  0  0
 24  7  1  0  0  0  0
 25 24  1  0  0  0  0
 26 25  1  0  0  0  0
 27 26  1  0  0  0  0
 28 27  1  0  0  0  0
 29 30  1  0  0  0  0
 29 28  1  0  0  0  0
 30 31  1  0  0  0  0
 32 30  2  0  0  0  0
M  END
>  <MODEL>
1

>  <REMARK>
 VINA RESULT:      -8.3      0.000      0.000
  Name = 
  11 active torsions:
  status: ('A' for Active; 'I' for Inactive)
    1  A    between atoms: C_1  and  C_24
    2  A    between atoms: C_2  and  N_10
    3  A    between atoms: C_2  and  C_12
    4  A    between atoms: C_3  and  C_28
    5  A    between atoms: C_7  and  C_22
    6  A    between atoms: C_8  and  C_23
    7  A    between atoms: C_9  and  C_14
    8  A    between atoms: C_9  and  N_21
    9  A    between atoms: N_10  and  C_24
   10  A    between atoms: C_12  and  N_21
   11  A    between atoms: C_30  and  C_32
                            x       y       z     vdW  Elec       q    Type
                         _______ _______ _______ _____ _____    ______ ____

>  <TORSDO>
F 11

$$$$
=
 OpenBabel10262421303D

 32 34  0  0  1  0  0  0  0  0999 V2000
  186.6040  178.2250  142.1210 C   0  0  0  0  0  0  0  0  0  0  0  0
  186.8640  178.4850  146.9530 C   0  0  0  0  0  2  0  0  0  0  0  0
  185.3820  178.9090  147.0050 C   0  0  0  0  0  2  0  0  0  0  0  0
  184.5000  179.1230  140.9670 C   0  0  0  0  0  0  0  0  0  0  0  0
  182.9870  179.0980  140.9350 C   0  0  2  0  0  3  0  0  0  0  0  0
  187.1910  177.4770  145.8470 C   0  0  0  0  0  2  0  0  0  0  0  0
  187.2530  177.8380  143.3310 C   0  0  0  0  0  0  0  0  0  0  0  0
  185.2160  178.2970  144.5840 C   0  0  0  0  0  0  0  0  0  0  0  0
  184.5630  178.6740  143.4050 C   0  0  0  0  0  0  0  0  0  0  0  0
  184.5050  178.2930  145.9080 C   0  0  0  0  0  2  0  0  0  0  0  0
  186.5510  177.8880  144.5480 C   0  0  0  0  0  0  0  0  0  0  0  0
  183.1410  179.1520  143.4540 C   0  0  0  0  0  2  0  0  0  0  0  0
  185.1110  179.6070  139.9760 O   0  0  0  0  0  0  0  0  0  0  0  0
  185.2530  178.6680  142.1750 C   0  0  0  0  0  0  0  0  0  0  0  0
  182.3670  178.6180  142.2580 C   0  0  1  0  0  3  0  0  0  0  0  0
  188.4730  178.6030  140.4820 C   0  0  0  0  0  3  0  0  0  0  0  0
  187.2660  178.1450  140.7890 C   0  0  0  0  0  3  0  0  0  0  0  0
  190.1380  177.4510  139.1070 C   0  0  0  0  0  1  0  0  0  0  0  0
  189.0000  178.4500  139.1030 C   0  0  0  0  0  2  0  0  0  0  0  0
  180.6670  180.1260  142.9090 O   0  0  0  0  0  0  0  0  0  0  0  0
  180.9440  179.0650  142.3740 C   0  0  0  0  0  3  0  0  0  0  0  0
  182.9280  176.7720  140.0240 C   0  0  0  0  0  1  0  0  0  0  0  0
  182.5020  178.2100  139.7950 C   0  0  0  0  0  2  0  0  0  0  0  0
  188.6960  177.4290  143.3630 C   0  0  0  0  0  2  0  0  0  0  0  0
  188.8050  176.0030  143.1100 N   0  0  0  0  0  2  0  0  0  0  0  0
  190.1940  175.7450  142.7740 C   0  0  0  0  0  2  0  0  0  0  0  0
  191.0960  176.7230  143.5070 C   0  0  0  0  0  2  0  0  0  0  0  0
  191.7410  176.0700  144.6370 N   0  0  0  0  0  2  0  0  0  0  0  0
  191.3500  176.7900  145.8370 C   0  0  0  0  0  2  0  0  0  0  0  0
  192.0510  176.2140  147.0150 C   0  0  0  0  0  0  0  0  0  0  0  0
  192.1420  176.9430  148.1930 O   0  0  0  0  0  1  0  0  0  0  0  0
  192.5960  175.0820  146.9330 O   0  0  0  0  0  0  0  0  0  0  0  0
  1 14  2  0  0  0  0
  1  7  1  0  0  0  0
  2  3  1  0  0  0  0
  4 14  1  0  0  0  0
  5 23  1  6  0  0  0
  5  4  1  0  0  0  0
  5 15  1  0  0  0  0
  6  2  1  0  0  0  0
  7 24  1  0  0  0  0
  7 11  2  0  0  0  0
  8 10  1  0  0  0  0
  9 12  1  0  0  0  0
  9  8  2  0  0  0  0
 10  3  1  0  0  0  0
 11  8  1  0  0  0  0
 11  6  1  0  0  0  0
 13  4  2  0  0  0  0
 14  9  1  0  0  0  0
 15 21  1  1  0  0  0
 15 12  1  0  0  0  0
 16 17  2  0  0  0  0
 17  1  1  0  0  0  0
 19 18  1  0  0  0  0
 19 16  1  0  0  0  0
 21 20  2  0  0  0  0
 23 22  1  0  0  0  0
 25 24  1  0  0  0  0
 26 25  1  0  0  0  0
 26 27  1  0  0  0  0
 27 28  1  0  0  0  0
 28 29  1  0  0  0  0
 29 30  1  0  0  0  0
 30 31  1  0  0  0  0
 32 30  2  0  0  0  0
M  END
>  <MODEL>
2

>  <REMARK>
 VINA RESULT:      -8.3      2.522      7.120
  Name = 
  11 active torsions:
  status: ('A' for Active; 'I' for Inactive)
    1  A    between atoms: C_1  and  C_24
    2  A    between atoms: C_2  and  N_10
    3  A    between atoms: C_2  and  C_12
    4  A    between atoms: C_3  and  C_28
    5  A    between atoms: C_7  and  C_22
    6  A    between atoms: C_8  and  C_23
    7  A    between atoms: C_9  and  C_14
    8  A    between atoms: C_9  and  N_21
    9  A    between atoms: N_10  and  C_24
   10  A    between atoms: C_12  and  N_21
   11  A    between atoms: C_30  and  C_32
                            x       y       z     vdW  Elec       q    Type
                         _______ _______ _______ _____ _____    ______ ____

>  <TORSDO>
F 11

$$$$
=
 OpenBabel10262421303D

 32 34  0  0  1  0  0  0  0  0999 V2000
  187.2910  177.9340  142.3040 C   0  0  0  0  0  0  0  0  0  0  0  0
  183.2000  178.8730  144.7250 C   0  0  0  0  0  2  0  0  0  0  0  0
  183.8960  178.4810  146.0440 C   0  0  0  0  0  2  0  0  0  0  0  0
  189.2100  176.7870  143.5570 C   0  0  0  0  0  0  0  0  0  0  0  0
  190.0830  176.8110  144.7940 C   0  0  2  0  0  3  0  0  0  0  0  0
  184.1140  179.5750  143.7150 C   0  0  0  0  0  2  0  0  0  0  0  0
  186.0340  178.6040  142.3610 C   0  0  0  0  0  0  0  0  0  0  0  0
  186.0650  178.4770  144.7930 C   0  0  0  0  0  0  0  0  0  0  0  0
  187.3020  177.8240  144.7540 C   0  0  0  0  0  0  0  0  0  0  0  0
  185.3930  178.8120  146.0960 C   0  0  0  0  0  2  0  0  0  0  0  0
  185.4330  178.8590  143.6060 C   0  0  0  0  0  0  0  0  0  0  0  0
  187.9560  177.3790  146.0290 C   0  0  0  0  0  2  0  0  0  0  0  0
  189.5710  176.0720  142.5840 O   0  0  0  0  0  0  0  0  0  0  0  0
  187.9100  177.5230  143.5180 C   0  0  0  0  0  0  0  0  0  0  0  0
  189.4580  177.6060  145.9530 C   0  0  1  0  0  3  0  0  0  0  0  0
  188.6660  178.5770  140.2990 C   0  0  0  0  0  3  0  0  0  0  0  0
  188.0130  177.6790  141.0250 C   0  0  0  0  0  3  0  0  0  0  0  0
  190.4600  177.2030  139.3590 C   0  0  0  0  0  1  0  0  0  0  0  0
  189.3400  178.1710  139.0400 C   0  0  0  0  0  2  0  0  0  0  0  0
  189.7470  177.7740  148.2940 O   0  0  0  0  0  0  0  0  0  0  0  0
  190.0660  177.2070  147.2610 C   0  0  0  0  0  3  0  0  0  0  0  0
  191.3150  178.8200  143.9650 C   0  0  0  0  0  1  0  0  0  0  0  0
  191.4510  177.3930  144.4580 C   0  0  0  0  0  2  0  0  0  0  0  0
  185.2880  179.0020  141.1210 C   0  0  0  0  0  2  0  0  0  0  0  0
  184.2760  178.0060  140.8190 N   0  0  0  0  0  2  0  0  0  0  0  0
  183.1510  178.7180  140.2400 C   0  0  0  0  0  2  0  0  0  0  0  0
  181.8660  178.3250  140.9500 C   0  0  0  0  0  2  0  0  0  0  0  0
  180.8110  179.2840  140.6560 N   0  0  0  0  0  2  0  0  0  0  0  0
  179.6010  178.8140  141.3100 C   0  0  0  0  0  2  0  0  0  0  0  0
  179.5220  179.3830  142.6810 C   0  0  0  0  0  0  0  0  0  0  0  0
  180.0630  180.6330  142.9470 O   0  0  0  0  0  0  0  0  0  0  0  0
  178.9980  178.7150  143.6110 O   0  0  0  0  0  1  0  0  0  0  0  0
  1  7  2  0  0  0  0
  1 14  1  0  0  0  0
  2  3  1  0  0  0  0
  3 10  1  0  0  0  0
  4  5  1  0  0  0  0
  5 23  1  6  0  0  0
  5 15  1  0  0  0  0
  6  2  1  0  0  0  0
  7 11  1  0  0  0  0
  8 10  1  0  0  0  0
  9  8  1  0  0  0  0
  9 12  1  0  0  0  0
 11  6  1  0  0  0  0
 11  8  2  0  0  0  0
 13  4  2  0  0  0  0
 14  4  1  0  0  0  0
 14  9  2  0  0  0  0
 15 12  1  0  0  0  0
 15 21  1  1  0  0  0
 16 17  2  0  0  0  0
 17  1  1  0  0  0  0
 19 18  1  0  0  0  0
 19 16  1  0  0  0  0
 21 20  2  0  0  0  0
 22 23  1  0  0  0  0
 24  7  1  0  0  0  0
 25 24  1  0  0  0  0
 26 25  1  0  0  0  0
 26 27  1  0  0  0  0
 28 27  1  0  0  0  0
 28 29  1  0  0  0  0
 29 30  1  0  0  0  0
 30 31  2  0  0  0  0
 30 32  1  0  0  0  0
M  END
>  <MODEL>
3

>  <REMARK>
 VINA RESULT:      -8.2      2.502      3.033
  Name = 
  11 active torsions:
  status: ('A' for Active; 'I' for Inactive)
    1  A    between atoms: C_1  and  C_24
    2  A    between atoms: C_2  and  N_10
    3  A    between atoms: C_2  and  C_12
    4  A    between atoms: C_3  and  C_28
    5  A    between atoms: C_7  and  C_22
    6  A    between atoms: C_8  and  C_23
    7  A    between atoms: C_9  and  C_14
    8  A    between atoms: C_9  and  N_21
    9  A    between atoms: N_10  and  C_24
   10  A    between atoms: C_12  and  N_21
   11  A    between atoms: C_30  and  C_32
                            x       y       z     vdW  Elec       q    Type
                         _______ _______ _______ _____ _____    ______ ____

>  <TORSDO>
F 11

$$$$
=
 OpenBabel10262421303D

 32 34  0  0  1  0  0  0  0  0999 V2000
  187.3610  177.8860  142.2210 C   0  0  0  0  0  0  0  0  0  0  0  0
  183.2350  178.8860  144.5580 C   0  0  0  0  0  2  0  0  0  0  0  0
  183.9090  178.5170  145.8950 C   0  0  0  0  0  2  0  0  0  0  0  0
  189.2560  176.7580  143.5280 C   0  0  0  0  0  0  0  0  0  0  0  0
  190.1080  176.8010  144.7770 C   0  0  2  0  0  3  0  0  0  0  0  0
  184.1680  179.5660  143.5500 C   0  0  0  0  0  2  0  0  0  0  0  0
  186.1060  178.5620  142.2460 C   0  0  0  0  0  0  0  0  0  0  0  0
  186.0970  178.4820  144.6800 C   0  0  0  0  0  0  0  0  0  0  0  0
  187.3320  177.8240  144.6730 C   0  0  0  0  0  0  0  0  0  0  0  0
  185.4060  178.8430  145.9650 C   0  0  0  0  0  2  0  0  0  0  0  0
  185.4860  178.8430  143.4760 C   0  0  0  0  0  0  0  0  0  0  0  0
  187.9640  177.4010  145.9670 C   0  0  0  0  0  2  0  0  0  0  0  0
  189.6290  176.0220  142.5740 O   0  0  0  0  0  0  0  0  0  0  0  0
  187.9590  177.4970  143.4530 C   0  0  0  0  0  0  0  0  0  0  0  0
  189.4680  177.6210  145.9110 C   0  0  1  0  0  3  0  0  0  0  0  0
  188.7450  178.4920  140.2110 C   0  0  0  0  0  3  0  0  0  0  0  0
  188.1030  177.6050  140.9600 C   0  0  0  0  0  3  0  0  0  0  0  0
  189.0020  178.9310  137.8170 C   0  0  0  0  0  1  0  0  0  0  0  0
  189.4410  178.0590  138.9740 C   0  0  0  0  0  2  0  0  0  0  0  0
  189.6510  177.7660  148.2640 O   0  0  0  0  0  0  0  0  0  0  0  0
  190.0540  177.2450  147.2360 C   0  0  0  0  0  3  0  0  0  0  0  0
  191.3680  178.8160  144.0030 C   0  0  0  0  0  1  0  0  0  0  0  0
  191.4840  177.3720  144.4530 C   0  0  0  0  0  2  0  0  0  0  0  0
  185.3810  178.9390  140.9870 C   0  0  0  0  0  2  0  0  0  0  0  0
  184.3800  177.9330  140.6800 N   0  0  0  0  0  2  0  0  0  0  0  0
  183.9440  178.1820  139.3170 C   0  0  0  0  0  2  0  0  0  0  0  0
  185.1390  178.1620  138.3780 C   0  0  0  0  0  2  0  0  0  0  0  0
  184.7760  177.5520  137.1080 N   0  0  0  0  0  2  0  0  0  0  0  0
  185.2660  176.1850  137.1250 C   0  0  0  0  0  2  0  0  0  0  0  0
  186.7000  176.1620  136.7320 C   0  0  0  0  0  0  0  0  0  0  0  0
  187.1160  176.8290  135.5880 O   0  0  0  0  0  0  0  0  0  0  0  0
  187.5300  175.5060  137.4150 O   0  0  0  0  0  1  0  0  0  0  0  0
  1  7  2  0  0  0  0
  1 14  1  0  0  0  0
  2  3  1  0  0  0  0
  3 10  1  0  0  0  0
  4  5  1  0  0  0  0
  5 23  1  6  0  0  0
  5 15  1  0  0  0  0
  6  2  1  0  0  0  0
  7 11  1  0  0  0  0
  8 10  1  0  0  0  0
  9  8  1  0  0  0  0
  9 12  1  0  0  0  0
 11  6  1  0  0  0  0
 11  8  2  0  0  0  0
 13  4  2  0  0  0  0
 14  4  1  0  0  0  0
 14  9  2  0  0  0  0
 15 12  1  0  0  0  0
 15 21  1  1  0  0  0
 16 17  2  0  0  0  0
 17  1  1  0  0  0  0
 18 19  1  0  0  0  0
 19 16  1  0  0  0  0
 21 20  2  0  0  0  0
 22 23  1  0  0  0  0
 24  7  1  0  0  0  0
 25 24  1  0  0  0  0
 26 25  1  0  0  0  0
 27 26  1  0  0  0  0
 28 29  1  0  0  0  0
 28 27  1  0  0  0  0
 30 29  1  0  0  0  0
 30 32  1  0  0  0  0
 31 30  2  0  0  0  0
M  END
>  <MODEL>
4

>  <REMARK>
 VINA RESULT:      -7.9      1.033      1.217
  Name = 
  11 active torsions:
  status: ('A' for Active; 'I' for Inactive)
    1  A    between atoms: C_1  and  C_24
    2  A    between atoms: C_2  and  N_10
    3  A    between atoms: C_2  and  C_12
    4  A    between atoms: C_3  and  C_28
    5  A    between atoms: C_7  and  C_22
    6  A    between atoms: C_8  and  C_23
    7  A    between atoms: C_9  and  C_14
    8  A    between atoms: C_9  and  N_21
    9  A    between atoms: N_10  and  C_24
   10  A    between atoms: C_12  and  N_21
   11  A    between atoms: C_30  and  C_32
                            x       y       z     vdW  Elec       q    Type
                         _______ _______ _______ _____ _____    ______ ____

>  <TORSDO>
F 11

$$$$
=
 OpenBabel10262421303D

 32 34  0  0  1  0  0  0  0  0999 V2000
  187.3260  177.9010  142.4280 C   0  0  0  0  0  0  0  0  0  0  0  0
  183.3470  178.8450  145.0280 C   0  0  0  0  0  2  0  0  0  0  0  0
  184.1050  178.4650  146.3170 C   0  0  0  0  0  2  0  0  0  0  0  0
  189.3050  176.7700  143.6000 C   0  0  0  0  0  0  0  0  0  0  0  0
  190.2330  176.8050  144.7950 C   0  0  2  0  0  3  0  0  0  0  0  0
  184.2110  179.5430  143.9730 C   0  0  0  0  0  2  0  0  0  0  0  0
  186.0700  178.5670  142.5380 C   0  0  0  0  0  0  0  0  0  0  0  0
  186.2130  178.4590  144.9670 C   0  0  0  0  0  0  0  0  0  0  0  0
  187.4490  177.8100  144.8760 C   0  0  0  0  0  0  0  0  0  0  0  0
  185.6020  178.8010  146.2970 C   0  0  0  0  0  2  0  0  0  0  0  0
  185.5270  178.8300  143.8080 C   0  0  0  0  0  0  0  0  0  0  0  0
  188.1640  177.3760  146.1230 C   0  0  0  0  0  2  0  0  0  0  0  0
  189.6220  176.0480  142.6160 O   0  0  0  0  0  0  0  0  0  0  0  0
  188.0020  177.5010  143.6150 C   0  0  0  0  0  0  0  0  0  0  0  0
  189.6600  177.6070  145.9760 C   0  0  1  0  0  3  0  0  0  0  0  0
  188.6820  178.5130  140.4010 C   0  0  0  0  0  3  0  0  0  0  0  0
  187.9890  177.6390  141.1190 C   0  0  0  0  0  3  0  0  0  0  0  0
  190.4960  177.2310  139.3740 C   0  0  0  0  0  1  0  0  0  0  0  0
  189.2870  178.1030  139.1090 C   0  0  0  0  0  2  0  0  0  0  0  0
  190.8020  176.1040  147.3990 O   0  0  0  0  0  0  0  0  0  0  0  0
  190.3290  177.2200  147.2570 C   0  0  0  0  0  3  0  0  0  0  0  0
  191.4280  178.8330  143.9550 C   0  0  0  0  0  1  0  0  0  0  0  0
  191.5820  177.3890  144.3920 C   0  0  0  0  0  2  0  0  0  0  0  0
  185.2670  178.9540  141.3310 C   0  0  0  0  0  2  0  0  0  0  0  0
  184.2200  177.9730  141.1060 N   0  0  0  0  0  2  0  0  0  0  0  0
  183.1440  178.6620  140.4160 C   0  0  0  0  0  2  0  0  0  0  0  0
  182.4820  177.7250  139.4200 C   0  0  0  0  0  2  0  0  0  0  0  0
  182.7460  176.3380  139.7760 N   0  0  0  0  0  2  0  0  0  0  0  0
  182.8990  175.5930  138.5390 C   0  0  0  0  0  2  0  0  0  0  0  0
  181.5680  175.1200  138.0720 C   0  0  0  0  0  0  0  0  0  0  0  0
  180.6000  174.7500  138.9950 O   0  0  0  0  0  1  0  0  0  0  0  0
  181.3330  175.0190  136.8400 O   0  0  0  0  0  0  0  0  0  0  0  0
  1  7  2  0  0  0  0
  1 14  1  0  0  0  0
  2  3  1  0  0  0  0
  4 14  1  0  0  0  0
  4  5  1  0  0  0  0
  5 23  1  6  0  0  0
  5 15  1  0  0  0  0
  6  2  1  0  0  0  0
  7 11  1  0  0  0  0
  8 10  1  0  0  0  0
  9  8  1  0  0  0  0
  9 12  1  0  0  0  0
 10  3  1  0  0  0  0
 11  6  1  0  0  0  0
 11  8  2  0  0  0  0
 13  4  2  0  0  0  0
 14  9  2  0  0  0  0
 15 12  1  0  0  0  0
 15 21  1  1  0  0  0
 16 17  2  0  0  0  0
 17  1  1  0  0  0  0
 19 18  1  0  0  0  0
 19 16  1  0  0  0  0
 21 20  2  0  0  0  0
 22 23  1  0  0  0  0
 24  7  1  0  0  0  0
 25 24  1  0  0  0  0
 26 25  1  0  0  0  0
 27 28  1  0  0  0  0
 27 26  1  0  0  0  0
 29 28  1  0  0  0  0
 30 29  1  0  0  0  0
 30 31  1  0  0  0  0
 32 30  2  0  0  0  0
M  END
>  <MODEL>
5

>  <REMARK>
 VINA RESULT:      -7.8      1.724      1.889
  Name = 
  11 active torsions:
  status: ('A' for Active; 'I' for Inactive)
    1  A    between atoms: C_1  and  C_24
    2  A    between atoms: C_2  and  N_10
    3  A    between atoms: C_2  and  C_12
    4  A    between atoms: C_3  and  C_28
    5  A    between atoms: C_7  and  C_22
    6  A    between atoms: C_8  and  C_23
    7  A    between atoms: C_9  and  C_14
    8  A    between atoms: C_9  and  N_21
    9  A    between atoms: N_10  and  C_24
   10  A    between atoms: C_12  and  N_21
   11  A    between atoms: C_30  and  C_32
                            x       y       z     vdW  Elec       q    Type
                         _______ _______ _______ _____ _____    ______ ____

>  <TORSDO>
F 11

$$$$
=
 OpenBabel10262421303D

 32 34  0  0  1  0  0  0  0  0999 V2000
  186.9660  178.0180  142.6930 C   0  0  0  0  0  0  0  0  0  0  0  0
  187.5340  178.4030  147.4900 C   0  0  0  0  0  2  0  0  0  0  0  0
  186.0710  178.8730  147.6200 C   0  0  0  0  0  2  0  0  0  0  0  0
  184.8210  178.9470  141.6440 C   0  0  0  0  0  0  0  0  0  0  0  0
  183.3080  178.9660  141.7060 C   0  0  2  0  0  3  0  0  0  0  0  0
  187.7630  177.3560  146.3950 C   0  0  0  0  0  2  0  0  0  0  0  0
  187.6780  177.6460  143.8710 C   0  0  0  0  0  0  0  0  0  0  0  0
  185.7370  178.2000  145.2320 C   0  0  0  0  0  0  0  0  0  0  0  0
  185.0230  178.5630  144.0850 C   0  0  0  0  0  0  0  0  0  0  0  0
  185.1100  178.2530  146.5980 C   0  0  0  0  0  2  0  0  0  0  0  0
  187.0550  177.7500  145.1270 C   0  0  0  0  0  0  0  0  0  0  0  0
  183.6200  179.0860  144.2080 C   0  0  0  0  0  2  0  0  0  0  0  0
  185.3820  179.3840  140.6030 O   0  0  0  0  0  0  0  0  0  0  0  0
  185.6340  178.5030  142.8160 C   0  0  0  0  0  0  0  0  0  0  0  0
  182.7590  178.5410  143.0780 C   0  0  1  0  0  3  0  0  0  0  0  0
  188.4290  178.6920  140.7610 C   0  0  0  0  0  3  0  0  0  0  0  0
  187.5410  177.8820  141.3250 C   0  0  0  0  0  3  0  0  0  0  0  0
  187.8970  177.5700  138.6520 C   0  0  0  0  0  1  0  0  0  0  0  0
  188.9110  178.4250  139.3830 C   0  0  0  0  0  2  0  0  0  0  0  0
  181.0200  180.1250  142.8380 O   0  0  0  0  0  0  0  0  0  0  0  0
  181.3590  179.0340  143.2680 C   0  0  0  0  0  3  0  0  0  0  0  0
  182.1010  178.8890  139.5190 C   0  0  0  0  0  1  0  0  0  0  0  0
  182.7290  178.0620  140.6250 C   0  0  0  0  0  2  0  0  0  0  0  0
  189.1080  177.1940  143.8260 C   0  0  0  0  0  2  0  0  0  0  0  0
  189.9860  178.3320  144.0370 N   0  0  0  0  0  2  0  0  0  0  0  0
  191.3180  177.9090  143.6390 C   0  0  0  0  0  2  0  0  0  0  0  0
  191.2480  177.1390  142.3310 C   0  0  0  0  0  2  0  0  0  0  0  0
  192.2130  177.6680  141.3780 N   0  0  0  0  0  2  0  0  0  0  0  0
  191.9540  177.0350  140.0970 C   0  0  0  0  0  2  0  0  0  0  0  0
  193.2350  176.8440  139.3660 C   0  0  0  0  0  0  0  0  0  0  0  0
  193.2320  176.7170  137.9840 O   0  0  0  0  0  0  0  0  0  0  0  0
  194.3170  176.7580  140.0030 O   0  0  0  0  0  1  0  0  0  0  0  0
  1 14  2  0  0  0  0
  1  7  1  0  0  0  0
  2  3  1  0  0  0  0
  4  5  1  0  0  0  0
  4 14  1  0  0  0  0
  5 23  1  6  0  0  0
  5 15  1  0  0  0  0
  6  2  1  0  0  0  0
  7 11  2  0  0  0  0
  8 10  1  0  0  0  0
  9 12  1  0  0  0  0
  9  8  2  0  0  0  0
 10  3  1  0  0  0  0
 11  8  1  0  0  0  0
 11  6  1  0  0  0  0
 13  4  2  0  0  0  0
 14  9  1  0  0  0  0
 15 21  1  1  0  0  0
 15 12  1  0  0  0  0
 16 17  2  0  0  0  0
 17  1  1  0  0  0  0
 18 19  1  0  0  0  0
 19 16  1  0  0  0  0
 20 21  2  0  0  0  0
 22 23  1  0  0  0  0
 24  7  1  0  0  0  0
 24 25  1  0  0  0  0
 26 25  1  0  0  0  0
 27 26  1  0  0  0  0
 28 27  1  0  0  0  0
 29 28  1  0  0  0  0
 30 32  1  0  0  0  0
 30 29  1  0  0  0  0
 31 30  2  0  0  0  0
M  END
>  <MODEL>
6

>  <REMARK>
 VINA RESULT:      -7.7      3.005      6.371
  Name = 
  11 active torsions:
  status: ('A' for Active; 'I' for Inactive)
    1  A    between atoms: C_1  and  C_24
    2  A    between atoms: C_2  and  N_10
    3  A    between atoms: C_2  and  C_12
    4  A    between atoms: C_3  and  C_28
    5  A    between atoms: C_7  and  C_22
    6  A    between atoms: C_8  and  C_23
    7  A    between atoms: C_9  and  C_14
    8  A    between atoms: C_9  and  N_21
    9  A    between atoms: N_10  and  C_24
   10  A    between atoms: C_12  and  N_21
   11  A    between atoms: C_30  and  C_32
                            x       y       z     vdW  Elec       q    Type
                         _______ _______ _______ _____ _____    ______ ____

>  <TORSDO>
F 11

$$$$
=
 OpenBabel10262421303D

 32 34  0  0  1  0  0  0  0  0999 V2000
  187.3030  177.9050  142.5480 C   0  0  0  0  0  0  0  0  0  0  0  0
  183.4630  178.6630  145.4050 C   0  0  0  0  0  2  0  0  0  0  0  0
  184.3010  178.2520  146.6320 C   0  0  0  0  0  2  0  0  0  0  0  0
  189.3690  176.7760  143.5620 C   0  0  0  0  0  0  0  0  0  0  0  0
  190.3640  176.7880  144.7020 C   0  0  2  0  0  3  0  0  0  0  0  0
  184.2500  179.4180  144.3290 C   0  0  0  0  0  2  0  0  0  0  0  0
  186.0430  178.5380  142.7550 C   0  0  0  0  0  0  0  0  0  0  0  0
  186.3280  178.3430  145.1660 C   0  0  0  0  0  0  0  0  0  0  0  0
  187.5700  177.7260  144.9790 C   0  0  0  0  0  0  0  0  0  0  0  0
  185.7870  178.6220  146.5400 C   0  0  0  0  0  2  0  0  0  0  0  0
  185.5680  178.7420  144.0630 C   0  0  0  0  0  0  0  0  0  0  0  0
  188.3630  177.2620  146.1660 C   0  0  0  0  0  2  0  0  0  0  0  0
  189.6440  176.0980  142.5350 O   0  0  0  0  0  0  0  0  0  0  0  0
  188.0540  177.4770  143.6790 C   0  0  0  0  0  0  0  0  0  0  0  0
  189.8440  177.5320  145.9440 C   0  0  1  0  0  3  0  0  0  0  0  0
  188.4920  178.6320  140.4550 C   0  0  0  0  0  3  0  0  0  0  0  0
  187.8950  177.7070  141.1950 C   0  0  0  0  0  3  0  0  0  0  0  0
  189.8620  177.0190  139.2270 C   0  0  0  0  0  1  0  0  0  0  0  0
  189.0350  178.2820  139.1180 C   0  0  0  0  0  2  0  0  0  0  0  0
  191.0320  175.9790  147.2730 O   0  0  0  0  0  0  0  0  0  0  0  0
  190.5930  177.1130  147.1690 C   0  0  0  0  0  3  0  0  0  0  0  0
  191.4980  178.9030  144.0090 C   0  0  0  0  0  1  0  0  0  0  0  0
  191.6750  177.4160  144.2460 C   0  0  0  0  0  2  0  0  0  0  0  0
  185.1630  178.9510  141.6110 C   0  0  0  0  0  2  0  0  0  0  0  0
  184.2270  177.8840  141.3060 N   0  0  0  0  0  2  0  0  0  0  0  0
  182.9600  178.5210  140.9880 C   0  0  0  0  0  2  0  0  0  0  0  0
  182.5250  178.1370  139.5830 C   0  0  0  0  0  2  0  0  0  0  0  0
  181.3270  178.8730  139.2050 N   0  0  0  0  0  2  0  0  0  0  0  0
  181.5670  179.4520  137.8950 C   0  0  0  0  0  2  0  0  0  0  0  0
  181.5490  180.9360  137.9940 C   0  0  0  0  0  0  0  0  0  0  0  0
  180.6010  181.6670  137.2910 O   0  0  0  0  0  0  0  0  0  0  0  0
  182.4160  181.5320  138.6850 O   0  0  0  0  0  1  0  0  0  0  0  0
  1  7  2  0  0  0  0
  1 14  1  0  0  0  0
  2  3  1  0  0  0  0
  4 14  1  0  0  0  0
  4  5  1  0  0  0  0
  5 23  1  6  0  0  0
  5 15  1  0  0  0  0
  6  2  1  0  0  0  0
  7 11  1  0  0  0  0
  8 10  1  0  0  0  0
  9  8  1  0  0  0  0
  9 12  1  0  0  0  0
 10  3  1  0  0  0  0
 11  6  1  0  0  0  0
 11  8  2  0  0  0  0
 13  4  2  0  0  0  0
 14  9  2  0  0  0  0
 15 12  1  0  0  0  0
 15 21  1  1  0  0  0
 16 17  2  0  0  0  0
 17  1  1  0  0  0  0
 19 18  1  0  0  0  0
 19 16  1  0  0  0  0
 21 20  2  0  0  0  0
 22 23  1  0  0  0  0
 24  7  1  0  0  0  0
 25 24  1  0  0  0  0
 26 25  1  0  0  0  0
 27 26  1  0  0  0  0
 28 27  1  0  0  0  0
 29 30  1  0  0  0  0
 29 28  1  0  0  0  0
 30 32  1  0  0  0  0
 31 30  2  0  0  0  0
M  END
>  <MODEL>
7

>  <REMARK>
 VINA RESULT:      -7.6      1.650      2.006
  Name = 
  11 active torsions:
  status: ('A' for Active; 'I' for Inactive)
    1  A    between atoms: C_1  and  C_24
    2  A    between atoms: C_2  and  N_10
    3  A    between atoms: C_2  and  C_12
    4  A    between atoms: C_3  and  C_28
    5  A    between atoms: C_7  and  C_22
    6  A    between atoms: C_8  and  C_23
    7  A    between atoms: C_9  and  C_14
    8  A    between atoms: C_9  and  N_21
    9  A    between atoms: N_10  and  C_24
   10  A    between atoms: C_12  and  N_21
   11  A    between atoms: C_30  and  C_32
                            x       y       z     vdW  Elec       q    Type
                         _______ _______ _______ _____ _____    ______ ____

>  <TORSDO>
F 11

$$$$
=
 OpenBabel10262421303D

 32 34  0  0  1  0  0  0  0  0999 V2000
  186.6710  178.1180  142.5260 C   0  0  0  0  0  0  0  0  0  0  0  0
  187.3690  178.4900  147.3060 C   0  0  0  0  0  2  0  0  0  0  0  0
  185.9010  178.9300  147.4810 C   0  0  0  0  0  2  0  0  0  0  0  0
  184.4780  179.0090  141.5440 C   0  0  0  0  0  0  0  0  0  0  0  0
  182.9680  178.9980  141.6490 C   0  0  2  0  0  3  0  0  0  0  0  0
  187.5870  177.4530  146.2000 C   0  0  0  0  0  2  0  0  0  0  0  0
  187.4240  177.7540  143.6810 C   0  0  0  0  0  0  0  0  0  0  0  0
  185.5120  178.2620  145.1000 C   0  0  0  0  0  0  0  0  0  0  0  0
  184.7580  178.6170  143.9760 C   0  0  0  0  0  0  0  0  0  0  0  0
  184.9240  178.2960  146.4840 C   0  0  0  0  0  2  0  0  0  0  0  0
  186.8350  177.8390  144.9550 C   0  0  0  0  0  0  0  0  0  0  0  0
  183.3500  179.1110  144.1420 C   0  0  0  0  0  2  0  0  0  0  0  0
  185.0000  179.4630  140.4900 O   0  0  0  0  0  0  0  0  0  0  0  0
  185.3330  178.5760  142.6900 C   0  0  0  0  0  0  0  0  0  0  0  0
  182.4670  178.5550  143.0350 C   0  0  1  0  0  3  0  0  0  0  0  0
  188.2750  178.6250  140.6560 C   0  0  0  0  0  3  0  0  0  0  0  0
  187.2090  178.0000  141.1410 C   0  0  0  0  0  3  0  0  0  0  0  0
  187.5310  177.8260  138.4650 C   0  0  0  0  0  1  0  0  0  0  0  0
  188.6900  178.4060  139.2480 C   0  0  0  0  0  2  0  0  0  0  0  0
  180.5150  178.8280  144.3410 O   0  0  0  0  0  0  0  0  0  0  0  0
  181.0640  179.0180  143.2670 C   0  0  0  0  0  3  0  0  0  0  0  0
  181.4310  178.8650  139.6830 C   0  0  0  0  0  1  0  0  0  0  0  0
  182.3750  178.0880  140.5800 C   0  0  0  0  0  2  0  0  0  0  0  0
  188.8610  177.3310  143.5920 C   0  0  0  0  0  2  0  0  0  0  0  0
  188.9360  175.9370  143.1930 N   0  0  0  0  0  2  0  0  0  0  0  0
  190.3220  175.6780  142.8450 C   0  0  0  0  0  2  0  0  0  0  0  0
  191.1620  176.9180  143.1000 C   0  0  0  0  0  2  0  0  0  0  0  0
  192.2530  176.9980  142.1400 N   0  0  0  0  0  2  0  0  0  0  0  0
  191.7180  177.5750  140.9190 C   0  0  0  0  0  2  0  0  0  0  0  0
  192.5620  177.1690  139.7640 C   0  0  0  0  0  0  0  0  0  0  0  0
  193.9350  177.3660  139.8040 O   0  0  0  0  0  1  0  0  0  0  0  0
  192.0260  176.6840  138.7330 O   0  0  0  0  0  0  0  0  0  0  0  0
  1 14  2  0  0  0  0
  1  7  1  0  0  0  0
  2  3  1  0  0  0  0
  4  5  1  0  0  0  0
  4 14  1  0  0  0  0
  5 23  1  6  0  0  0
  5 15  1  0  0  0  0
  6  2  1  0  0  0  0
  7 11  2  0  0  0  0
  8 10  1  0  0  0  0
  9 12  1  0  0  0  0
  9  8  2  0  0  0  0
 10  3  1  0  0  0  0
 11  8  1  0  0  0  0
 11  6  1  0  0  0  0
 13  4  2  0  0  0  0
 14  9  1  0  0  0  0
 15 21  1  1  0  0  0
 15 12  1  0  0  0  0
 16 17  2  0  0  0  0
 17  1  1  0  0  0  0
 18 19  1  0  0  0  0
 19 16  1  0  0  0  0
 21 20  2  0  0  0  0
 22 23  1  0  0  0  0
 24  7  1  0  0  0  0
 25 24  1  0  0  0  0
 26 27  1  0  0  0  0
 26 25  1  0  0  0  0
 28 27  1  0  0  0  0
 29 28  1  0  0  0  0
 30 31  1  0  0  0  0
 30 29  1  0  0  0  0
 32 30  2  0  0  0  0
M  END
>  <MODEL>
8

>  <REMARK>
 VINA RESULT:      -7.6      2.917      6.346
  Name = 
  11 active torsions:
  status: ('A' for Active; 'I' for Inactive)
    1  A    between atoms: C_1  and  C_24
    2  A    between atoms: C_2  and  N_10
    3  A    between atoms: C_2  and  C_12
    4  A    between atoms: C_3  and  C_28
    5  A    between atoms: C_7  and  C_22
    6  A    between atoms: C_8  and  C_23
    7  A    between atoms: C_9  and  C_14
    8  A    between atoms: C_9  and  N_21
    9  A    between atoms: N_10  and  C_24
   10  A    between atoms: C_12  and  N_21
   11  A    between atoms: C_30  and  C_32
                            x       y       z     vdW  Elec       q    Type
                         _______ _______ _______ _____ _____    ______ ____

>  <TORSDO>
F 11

$$$$
=
 OpenBabel10262421303D

 32 34  0  0  1  0  0  0  0  0999 V2000
  188.3970  177.7030  141.4110 C   0  0  0  0  0  0  0  0  0  0  0  0
  191.2000  177.1990  145.3320 C   0  0  0  0  0  2  0  0  0  0  0  0
  190.0050  177.5820  146.2290 C   0  0  0  0  0  2  0  0  0  0  0  0
  186.0690  178.7330  141.7050 C   0  0  0  0  0  0  0  0  0  0  0  0
  184.7720  178.6840  142.4850 C   0  0  2  0  0  3  0  0  0  0  0  0
  190.8190  176.3850  144.0910 C   0  0  0  0  0  2  0  0  0  0  0  0
  189.5610  177.1420  142.0150 C   0  0  0  0  0  0  0  0  0  0  0  0
  188.5370  177.3580  144.2140 C   0  0  0  0  0  0  0  0  0  0  0  0
  187.3850  177.9040  143.6360 C   0  0  0  0  0  0  0  0  0  0  0  0
  188.6390  177.1300  145.6970 C   0  0  0  0  0  2  0  0  0  0  0  0
  189.6180  176.9850  143.4120 C   0  0  0  0  0  0  0  0  0  0  0  0
  186.2430  178.3420  144.5070 C   0  0  0  0  0  2  0  0  0  0  0  0
  186.0920  179.3790  140.6230 O   0  0  0  0  0  0  0  0  0  0  0  0
  187.3140  178.1070  142.2420 C   0  0  0  0  0  0  0  0  0  0  0  0
  184.9180  177.9880  143.8490 C   0  0  1  0  0  3  0  0  0  0  0  0
  189.0070  178.5790  139.1340 C   0  0  0  0  0  3  0  0  0  0  0  0
  188.2430  177.8480  139.9360 C   0  0  0  0  0  3  0  0  0  0  0  0
  187.9010  177.4200  137.2850 C   0  0  0  0  0  1  0  0  0  0  0  0
  188.7280  178.6260  137.6770 C   0  0  0  0  0  2  0  0  0  0  0  0
  183.9090  179.3760  145.4750 O   0  0  0  0  0  0  0  0  0  0  0  0
  183.8080  178.3840  144.7700 C   0  0  0  0  0  3  0  0  0  0  0  0
  182.5020  178.8900  141.4610 C   0  0  0  0  0  1  0  0  0  0  0  0
  183.6960  177.9790  141.6670 C   0  0  0  0  0  2  0  0  0  0  0  0
  190.7680  176.7600  141.2110 C   0  0  0  0  0  2  0  0  0  0  0  0
  191.7490  177.8300  141.2650 N   0  0  0  0  0  2  0  0  0  0  0  0
  192.8840  177.3950  140.4700 C   0  0  0  0  0  2  0  0  0  0  0  0
  192.4080  176.8960  139.1160 C   0  0  0  0  0  2  0  0  0  0  0  0
  193.5260  176.3690  138.3480 N   0  0  0  0  0  2  0  0  0  0  0  0
  193.0500  176.1200  136.9990 C   0  0  0  0  0  2  0  0  0  0  0  0
  194.2010  176.0930  136.0580 C   0  0  0  0  0  0  0  0  0  0  0  0
  194.4440  174.9630  135.2890 O   0  0  0  0  0  0  0  0  0  0  0  0
  194.9800  177.0800  135.9890 O   0  0  0  0  0  1  0  0  0  0  0  0
  1  7  2  0  0  0  0
  1 14  1  0  0  0  0
  2  3  1  0  0  0  0
  4 14  1  0  0  0  0
  4  5  1  0  0  0  0
  5 23  1  6  0  0  0
  5 15  1  0  0  0  0
  6  2  1  0  0  0  0
  7 11  1  0  0  0  0
  8 10  1  0  0  0  0
  9  8  1  0  0  0  0
  9 12  1  0  0  0  0
 10  3  1  0  0  0  0
 11  6  1  0  0  0  0
 11  8  2  0  0  0  0
 13  4  2  0  0  0  0
 14  9  2  0  0  0  0
 15 12  1  0  0  0  0
 15 21  1  1  0  0  0
 16 17  2  0  0  0  0
 17  1  1  0  0  0  0
 18 19  1  0  0  0  0
 19 16  1  0  0  0  0
 21 20  2  0  0  0  0
 22 23  1  0  0  0  0
 24 25  1  0  0  0  0
 24  7  1  0  0  0  0
 26 25  1  0  0  0  0
 27 26  1  0  0  0  0
 28 27  1  0  0  0  0
 29 28  1  0  0  0  0
 30 29  1  0  0  0  0
 31 30  2  0  0  0  0
 32 30  1  0  0  0  0
M  END
>  <MODEL>
9

>  <REMARK>
 VINA RESULT:      -7.0      3.675      6.445
  Name = 
  11 active torsions:
  status: ('A' for Active; 'I' for Inactive)
    1  A    between atoms: C_1  and  C_24
    2  A    between atoms: C_2  and  N_10
    3  A    between atoms: C_2  and  C_12
    4  A    between atoms: C_3  and  C_28
    5  A    between atoms: C_7  and  C_22
    6  A    between atoms: C_8  and  C_23
    7  A    between atoms: C_9  and  C_14
    8  A    between atoms: C_9  and  N_21
    9  A    between atoms: N_10  and  C_24
   10  A    between atoms: C_12  and  N_21
   11  A    between atoms: C_30  and  C_32
                            x       y       z     vdW  Elec       q    Type
                         _______ _______ _______ _____ _____    ______ ____

>  <TORSDO>
F 11

$$$$
