=
 OpenBabel10262422063D

 43 48  0  0  1  0  0  0  0  0999 V2000
  184.7870  178.5680  144.0930 C   0  0  0  0  0  3  0  0  0  0  0  0
  191.3320  176.3380  146.8030 C   0  0  0  0  0  0  0  0  0  0  0  0
  187.0920  177.9350  144.6080 C   0  0  0  0  0  0  0  0  0  0  0  0
  187.7230  178.5520  141.8840 C   0  0  2  0  0  3  0  0  0  0  0  0
  189.0910  177.1460  146.3690 C   0  0  0  0  0  0  0  0  0  0  0  0
  191.5950  176.3230  145.4300 C   0  0  0  0  0  3  0  0  0  0  0  0
  192.3830  175.9160  147.7640 C   0  0  0  0  0  1  0  0  0  0  0  0
  189.3490  177.1360  144.9800 C   0  0  0  0  0  0  0  0  0  0  0  0
  190.0810  176.7480  147.2730 C   0  0  0  0  0  3  0  0  0  0  0  0
  190.6090  176.7190  144.5210 C   0  0  0  0  0  3  0  0  0  0  0  0
  188.5380  177.4690  142.5950 C   0  0  0  0  0  2  0  0  0  0  0  0
  188.3410  177.5420  144.0880 C   0  0  0  0  0  0  0  0  0  0  0  0
  186.8760  177.9290  145.9530 N   0  0  0  0  0  0  0  0  0  0  0  0
  186.0360  178.3650  143.6710 C   0  0  0  0  0  0  0  0  0  0  0  0
  186.3650  178.5380  142.3220 O   0  0  0  0  0  0  0  0  0  0  0  0
  187.8390  177.5480  146.8330 C   0  0  0  0  0  3  0  0  0  0  0  0
  182.3880  178.4090  141.1300 C   0  0  0  0  0  2  0  0  0  0  0  0
  181.2060  178.2980  141.9870 N   0  0  0  0  0  0  0  0  0  0  0  0
  182.3530  178.9350  143.9100 C   0  0  0  0  0  2  0  0  0  0  0  0
  183.6340  178.0870  141.9470 C   0  0  0  0  0  2  0  0  0  0  0  0
  183.6880  178.9940  143.1750 C   0  0  2  0  0  3  0  0  0  0  0  0
  181.2770  179.2930  142.9850 N   0  0  0  0  0  2  0  0  0  0  0  0
  178.9650  177.7000  141.5290 O   0  0  0  0  0  1  0  0  0  0  0  0
  180.0170  178.5530  141.1750 C   0  0  0  0  0  2  0  0  0  0  0  0
  187.7790  178.3520  140.4100 C   0  0  0  0  0  0  0  0  0  0  0  0
  186.7620  178.6110  139.7110 O   0  0  0  0  0  0  0  0  0  0  0  0
  188.9530  177.8790  139.8210 O   0  0  0  0  0  0  0  0  0  0  0  0
  189.0330  177.5440  138.4420 C   0  0  1  0  0  3  0  0  0  0  0  0
  189.7410  178.5230  137.7670 F   0  0  0  0  0  0  0  0  0  0  0  0
  189.7490  176.2140  138.2740 C   0  0  0  0  0  2  0  0  0  0  0  0
  189.2090  175.4470  137.0740 C   0  0  2  0  0  3  0  0  0  0  0  0
  187.9830  176.2230  135.2670 O   0  0  0  0  0  0  0  0  0  0  0  0
  190.0780  175.5670  135.9890 O   0  0  0  0  0  0  0  0  0  0  0  0
  187.9000  176.0380  136.6430 C   0  0  1  0  0  3  0  0  0  0  0  0
  189.3610  176.2880  135.0190 C   0  0  0  0  0  2  0  0  0  0  0  0
  185.4430  175.6270  137.1860 N   0  0  0  0  0  0  0  0  0  0  0  0
  186.7680  175.1150  136.9840 C   0  0  0  0  0  0  0  0  0  0  0  0
  183.2400  175.3820  138.2170 C   0  0  0  0  0  2  0  0  0  0  0  0
  183.9740  177.4720  137.8290 C   0  0  0  0  0  2  0  0  0  0  0  0
  182.8860  176.6070  137.6230 O   0  0  0  0  0  0  0  0  0  0  0  0
  185.1530  177.0440  136.9560 C   0  0  0  0  0  2  0  0  0  0  0  0
  184.3280  174.7000  137.3890 C   0  0  0  0  0  2  0  0  0  0  0  0
  186.9980  173.8830  137.1310 O   0  0  0  0  0  0  0  0  0  0  0  0
  2  9  1  0  0  0  0
  2  7  1  0  0  0  0
  3 13  1  0  0  0  0
  4 25  1  6  0  0  0
  4 15  1  0  0  0  0
  4 11  1  0  0  0  0
  5 16  1  0  0  0  0
  5  9  2  0  0  0  0
  6  2  2  0  0  0  0
  8  5  1  0  0  0  0
 10  8  2  0  0  0  0
 10  6  1  0  0  0  0
 11 12  1  0  0  0  0
 12  3  2  0  0  0  0
 12  8  1  0  0  0  0
 13 16  2  0  0  0  0
 14  1  2  0  0  0  0
 14  3  1  0  0  0  0
 15 14  1  0  0  0  0
 17 20  1  0  0  0  0
 17 18  1  0  0  0  0
 18 22  1  0  0  0  0
 20 21  1  0  0  0  0
 21 19  1  0  0  0  0
 21  1  1  1  0  0  0
 22 19  1  0  0  0  0
 24 23  1  0  0  0  0
 24 18  1  0  0  0  0
 26 25  2  0  0  0  0
 27 25  1  0  0  0  0
 28 29  1  6  0  0  0
 28 27  1  0  0  0  0
 30 28  1  0  0  0  0
 31 30  1  1  0  0  0
 32 34  1  0  0  0  0
 33 31  1  0  0  0  0
 34 37  1  6  0  0  0
 34 31  1  0  0  0  0
 35 32  1  0  0  0  0
 35 33  1  0  0  0  0
 36 42  1  0  0  0  0
 37 43  2  0  0  0  0
 37 36  1  0  0  0  0
 40 39  1  0  0  0  0
 40 38  1  0  0  0  0
 41 36  1  0  0  0  0
 41 39  1  0  0  0  0
 42 38  1  0  0  0  0
M  END
>  <MODEL>
1

>  <REMARK>
 VINA RESULT:     -10.4      0.000      0.000
  Name = 
  8 active torsions:
  status: ('A' for Active; 'I' for Inactive)
    1  A    between atoms: C_1  and  C_35
    2  A    between atoms: C_2  and  O_6
    3  A    between atoms: C_2  and  C_13
    4  A    between atoms: C_3  and  C_4
    5  A    between atoms: C_3  and  C_12
    6  A    between atoms: O_6  and  C_12
    7  A    between atoms: C_14  and  C_22
    8  A    between atoms: N_19  and  C_37
                            x       y       z     vdW  Elec       q    Type
                         _______ _______ _______ _____ _____    ______ ____

>  <TORSDO>
F 8

$$$$
=
 OpenBabel10262422063D

 43 48  0  0  1  0  0  0  0  0999 V2000
  189.1900  177.7790  139.8280 C   0  0  0  0  0  3  0  0  0  0  0  0
  191.2940  176.4750  146.8300 C   0  0  0  0  0  0  0  0  0  0  0  0
  189.4750  177.3810  142.2240 C   0  0  0  0  0  0  0  0  0  0  0  0
  186.6610  177.8370  142.4940 C   0  0  2  0  0  3  0  0  0  0  0  0
  191.0010  176.6710  144.4350 C   0  0  0  0  0  0  0  0  0  0  0  0
  190.0130  176.9990  147.0320 C   0  0  0  0  0  3  0  0  0  0  0  0
  192.1310  176.0940  147.9960 C   0  0  0  0  0  1  0  0  0  0  0  0
  189.7050  177.1990  144.6290 C   0  0  0  0  0  0  0  0  0  0  0  0
  191.7890  176.3130  145.5330 C   0  0  0  0  0  3  0  0  0  0  0  0
  189.2220  177.3600  145.9370 C   0  0  0  0  0  3  0  0  0  0  0  0
  187.5750  178.1960  143.6670 C   0  0  0  0  0  2  0  0  0  0  0  0
  188.9290  177.5510  143.5110 C   0  0  0  0  0  0  0  0  0  0  0  0
  190.7310  176.8720  142.0730 N   0  0  0  0  0  0  0  0  0  0  0  0
  188.6580  177.7460  141.0510 C   0  0  0  0  0  0  0  0  0  0  0  0
  187.3130  178.0800  141.2480 O   0  0  0  0  0  0  0  0  0  0  0  0
  191.4940  176.5170  143.1390 C   0  0  0  0  0  3  0  0  0  0  0  0
  188.5210  178.7830  136.2080 C   0  0  0  0  0  2  0  0  0  0  0  0
  187.7980  177.5440  135.9120 N   0  0  0  0  0  0  0  0  0  0  0  0
  187.5730  176.9600  138.1540 C   0  0  0  0  0  2  0  0  0  0  0  0
  189.3270  178.6000  137.4890 C   0  0  0  0  0  2  0  0  0  0  0  0
  188.4000  178.1540  138.6180 C   0  0  2  0  0  3  0  0  0  0  0  0
  186.8510  177.3190  136.9320 N   0  0  0  0  0  2  0  0  0  0  0  0
  185.6980  177.5500  134.8260 O   0  0  0  0  0  1  0  0  0  0  0  0
  187.0770  177.7160  134.6510 C   0  0  0  0  0  2  0  0  0  0  0  0
  185.4010  178.6250  142.5640 C   0  0  0  0  0  0  0  0  0  0  0  0
  185.3530  179.7680  142.0350 O   0  0  0  0  0  0  0  0  0  0  0  0
  184.2880  178.0900  143.2170 O   0  0  0  0  0  0  0  0  0  0  0  0
  183.5920  178.7930  144.2390 C   0  0  1  0  0  3  0  0  0  0  0  0
  183.9040  180.1390  144.1700 F   0  0  0  0  0  0  0  0  0  0  0  0
  182.0930  178.6240  144.0530 C   0  0  0  0  0  2  0  0  0  0  0  0
  181.6020  179.3840  142.8280 C   0  0  2  0  0  3  0  0  0  0  0  0
  179.6120  179.1620  141.6630 O   0  0  0  0  0  0  0  0  0  0  0  0
  180.7650  180.4330  143.2100 O   0  0  0  0  0  0  0  0  0  0  0  0
  180.7830  178.4740  141.9630 C   0  0  1  0  0  3  0  0  0  0  0  0
  179.5000  180.1010  142.6970 C   0  0  0  0  0  2  0  0  0  0  0  0
  181.1570  176.9830  139.9290 N   0  0  0  0  0  0  0  0  0  0  0  0
  181.5290  178.1290  140.7080 C   0  0  0  0  0  0  0  0  0  0  0  0
  181.7940  175.2380  138.3390 C   0  0  0  0  0  2  0  0  0  0  0  0
  180.1590  174.7540  139.8050 C   0  0  0  0  0  2  0  0  0  0  0  0
  180.4810  174.7450  138.4370 O   0  0  0  0  0  0  0  0  0  0  0  0
  179.9780  176.1930  140.2880 C   0  0  0  0  0  2  0  0  0  0  0  0
  181.8090  176.7360  138.6410 C   0  0  0  0  0  2  0  0  0  0  0  0
  182.5140  178.8360  140.3600 O   0  0  0  0  0  0  0  0  0  0  0  0
  1 14  2  0  0  0  0
  2  6  1  0  0  0  0
  2  7  1  0  0  0  0
  3 12  1  0  0  0  0
  4 25  1  6  0  0  0
  4 11  1  0  0  0  0
  5  8  1  0  0  0  0
  5  9  1  0  0  0  0
  8 10  1  0  0  0  0
  9  2  2  0  0  0  0
 10  6  2  0  0  0  0
 12 11  1  0  0  0  0
 12  8  2  0  0  0  0
 13  3  2  0  0  0  0
 13 16  1  0  0  0  0
 14 15  1  0  0  0  0
 14  3  1  0  0  0  0
 15  4  1  0  0  0  0
 16  5  2  0  0  0  0
 17 20  1  0  0  0  0
 18 17  1  0  0  0  0
 18 22  1  0  0  0  0
 19 21  1  0  0  0  0
 20 21  1  0  0  0  0
 21  1  1  1  0  0  0
 22 19  1  0  0  0  0
 24 23  1  0  0  0  0
 24 18  1  0  0  0  0
 25 27  1  0  0  0  0
 26 25  2  0  0  0  0
 27 28  1  0  0  0  0
 28 29  1  6  0  0  0
 30 28  1  0  0  0  0
 31 33  1  0  0  0  0
 31 30  1  1  0  0  0
 32 34  1  0  0  0  0
 32 35  1  0  0  0  0
 34 37  1  6  0  0  0
 34 31  1  0  0  0  0
 35 33  1  0  0  0  0
 36 41  1  0  0  0  0
 36 37  1  0  0  0  0
 38 40  1  0  0  0  0
 38 42  1  0  0  0  0
 39 41  1  0  0  0  0
 40 39  1  0  0  0  0
 42 36  1  0  0  0  0
 43 37  2  0  0  0  0
M  END
>  <MODEL>
2

>  <REMARK>
 VINA RESULT:      -9.7      2.555      6.598
  Name = 
  8 active torsions:
  status: ('A' for Active; 'I' for Inactive)
    1  A    between atoms: C_1  and  C_35
    2  A    between atoms: C_2  and  O_6
    3  A    between atoms: C_2  and  C_13
    4  A    between atoms: C_3  and  C_4
    5  A    between atoms: C_3  and  C_12
    6  A    between atoms: O_6  and  C_12
    7  A    between atoms: C_14  and  C_22
    8  A    between atoms: N_19  and  C_37
                            x       y       z     vdW  Elec       q    Type
                         _______ _______ _______ _____ _____    ______ ____

>  <TORSDO>
F 8

$$$$
=
 OpenBabel10262422063D

 43 48  0  0  1  0  0  0  0  0999 V2000
  189.3270  177.7990  140.1580 C   0  0  0  0  0  3  0  0  0  0  0  0
  191.5630  176.2430  147.0660 C   0  0  0  0  0  0  0  0  0  0  0  0
  189.6570  177.3130  142.5310 C   0  0  0  0  0  0  0  0  0  0  0  0
  186.8480  177.7520  142.8700 C   0  0  2  0  0  3  0  0  0  0  0  0
  191.2260  176.5260  144.6860 C   0  0  0  0  0  0  0  0  0  0  0  0
  190.2860  176.7550  147.3110 C   0  0  0  0  0  3  0  0  0  0  0  0
  192.4230  175.8200  148.2010 C   0  0  0  0  0  1  0  0  0  0  0  0
  189.9320  177.0430  144.9230 C   0  0  0  0  0  0  0  0  0  0  0  0
  192.0340  176.1300  145.7550 C   0  0  0  0  0  3  0  0  0  0  0  0
  189.4730  177.1550  146.2450 C   0  0  0  0  0  3  0  0  0  0  0  0
  187.7830  178.0700  144.0390 C   0  0  0  0  0  2  0  0  0  0  0  0
  189.1350  177.4350  143.8330 C   0  0  0  0  0  0  0  0  0  0  0  0
  190.9110  176.8140  142.3380 N   0  0  0  0  0  0  0  0  0  0  0  0
  188.8170  177.7200  141.3880 C   0  0  0  0  0  0  0  0  0  0  0  0
  187.4760  178.0430  141.6220 O   0  0  0  0  0  0  0  0  0  0  0  0
  191.6950  176.4220  143.3760 C   0  0  0  0  0  3  0  0  0  0  0  0
  188.5860  178.9040  136.5810 C   0  0  0  0  0  2  0  0  0  0  0  0
  187.8350  177.6840  136.2720 N   0  0  0  0  0  0  0  0  0  0  0  0
  187.6550  177.0480  138.5040 C   0  0  0  0  0  2  0  0  0  0  0  0
  189.4200  178.6770  137.8360 C   0  0  0  0  0  2  0  0  0  0  0  0
  188.5130  178.2170  138.9770 C   0  0  2  0  0  3  0  0  0  0  0  0
  186.9090  177.4490  137.3100 N   0  0  0  0  0  2  0  0  0  0  0  0
  185.7740  177.4240  135.1430 O   0  0  0  0  0  1  0  0  0  0  0  0
  187.0870  177.9000  135.0350 C   0  0  0  0  0  2  0  0  0  0  0  0
  185.5870  178.5330  142.9930 C   0  0  0  0  0  0  0  0  0  0  0  0
  185.3030  179.3930  142.1160 O   0  0  0  0  0  0  0  0  0  0  0  0
  184.7370  178.3060  144.0770 O   0  0  0  0  0  0  0  0  0  0  0  0
  183.5240  179.0250  144.2590 C   0  0  1  0  0  3  0  0  0  0  0  0
  183.8040  180.3690  144.4340 F   0  0  0  0  0  0  0  0  0  0  0  0
  182.6370  178.8600  143.0370 C   0  0  0  0  0  2  0  0  0  0  0  0
  181.2230  179.3510  143.3140 C   0  0  2  0  0  3  0  0  0  0  0  0
  179.1960  178.4270  142.6760 O   0  0  0  0  0  0  0  0  0  0  0  0
  180.6870  178.6930  144.4210 O   0  0  0  0  0  0  0  0  0  0  0  0
  180.3360  179.0250  142.1500 C   0  0  1  0  0  3  0  0  0  0  0  0
  179.6190  177.9320  143.9170 C   0  0  0  0  0  2  0  0  0  0  0  0
  180.4410  180.4710  140.0520 N   0  0  0  0  0  0  0  0  0  0  0  0
  179.9780  180.2710  141.3960 C   0  0  0  0  0  0  0  0  0  0  0  0
  181.0290  182.0130  138.2490 C   0  0  0  0  0  2  0  0  0  0  0  0
  182.1010  180.0380  138.3100 C   0  0  0  0  0  2  0  0  0  0  0  0
  181.3640  180.8910  137.4710 O   0  0  0  0  0  0  0  0  0  0  0  0
  181.1790  179.4140  139.3580 C   0  0  0  0  0  2  0  0  0  0  0  0
  179.9750  181.6280  139.2860 C   0  0  0  0  0  2  0  0  0  0  0  0
  179.2950  181.1650  141.9670 O   0  0  0  0  0  0  0  0  0  0  0  0
  1 14  2  0  0  0  0
  2  6  1  0  0  0  0
  2  7  1  0  0  0  0
  3 12  1  0  0  0  0
  4 25  1  1  0  0  0
  4 11  1  0  0  0  0
  5  8  1  0  0  0  0
  5  9  1  0  0  0  0
  8 10  1  0  0  0  0
  9  2  2  0  0  0  0
 10  6  2  0  0  0  0
 12 11  1  0  0  0  0
 12  8  2  0  0  0  0
 13  3  2  0  0  0  0
 13 16  1  0  0  0  0
 14 15  1  0  0  0  0
 14  3  1  0  0  0  0
 15  4  1  0  0  0  0
 16  5  2  0  0  0  0
 17 20  1  0  0  0  0
 18 17  1  0  0  0  0
 18 22  1  0  0  0  0
 19 21  1  0  0  0  0
 20 21  1  0  0  0  0
 21  1  1  1  0  0  0
 22 19  1  0  0  0  0
 24 23  1  0  0  0  0
 24 18  1  0  0  0  0
 25 27  1  0  0  0  0
 26 25  2  0  0  0  0
 27 28  1  0  0  0  0
 28 29  1  6  0  0  0
 30 28  1  0  0  0  0
 31 30  1  6  0  0  0
 31 33  1  0  0  0  0
 32 35  1  0  0  0  0
 34 37  1  1  0  0  0
 34 32  1  0  0  0  0
 34 31  1  0  0  0  0
 35 33  1  0  0  0  0
 36 37  1  0  0  0  0
 37 43  2  0  0  0  0
 38 42  1  0  0  0  0
 39 41  1  0  0  0  0
 40 38  1  0  0  0  0
 40 39  1  0  0  0  0
 41 36  1  0  0  0  0
 42 36  1  0  0  0  0
M  END
>  <MODEL>
3

>  <REMARK>
 VINA RESULT:      -9.7      2.770      7.039
  Name = 
  8 active torsions:
  status: ('A' for Active; 'I' for Inactive)
    1  A    between atoms: C_1  and  C_35
    2  A    between atoms: C_2  and  O_6
    3  A    between atoms: C_2  and  C_13
    4  A    between atoms: C_3  and  C_4
    5  A    between atoms: C_3  and  C_12
    6  A    between atoms: O_6  and  C_12
    7  A    between atoms: C_14  and  C_22
    8  A    between atoms: N_19  and  C_37
                            x       y       z     vdW  Elec       q    Type
                         _______ _______ _______ _____ _____    ______ ____

>  <TORSDO>
F 8

$$$$
=
 OpenBabel10262422063D

 43 48  0  0  1  0  0  0  0  0999 V2000
  187.9200  178.1840  146.0770 C   0  0  0  0  0  3  0  0  0  0  0  0
  181.4970  178.9750  142.4350 C   0  0  0  0  0  0  0  0  0  0  0  0
  186.0100  178.2780  144.5530 C   0  0  0  0  0  0  0  0  0  0  0  0
  187.7640  177.2930  142.5150 C   0  0  2  0  0  3  0  0  0  0  0  0
  183.3190  178.7030  144.0040 C   0  0  0  0  0  0  0  0  0  0  0  0
  182.3860  178.8070  141.3690 C   0  0  0  0  0  3  0  0  0  0  0  0
  180.0540  179.2090  142.1670 C   0  0  0  0  0  1  0  0  0  0  0  0
  184.2250  178.5310  142.9340 C   0  0  0  0  0  0  0  0  0  0  0  0
  181.9620  178.9250  143.7520 C   0  0  0  0  0  3  0  0  0  0  0  0
  183.7440  178.5870  141.6160 C   0  0  0  0  0  3  0  0  0  0  0  0
  186.6040  178.2020  142.1030 C   0  0  0  0  0  2  0  0  0  0  0  0
  185.5860  178.3080  143.2100 C   0  0  0  0  0  0  0  0  0  0  0  0
  185.1100  178.4520  145.5610 N   0  0  0  0  0  0  0  0  0  0  0  0
  187.4370  178.0390  144.8410 C   0  0  0  0  0  0  0  0  0  0  0  0
  188.2840  177.6760  143.7880 O   0  0  0  0  0  0  0  0  0  0  0  0
  183.7900  178.6610  145.3170 C   0  0  0  0  0  3  0  0  0  0  0  0
  190.9720  177.3130  148.1950 C   0  0  0  0  0  2  0  0  0  0  0  0
  191.3000  176.1360  147.3870 N   0  0  0  0  0  0  0  0  0  0  0  0
  189.8810  176.7480  145.6460 C   0  0  0  0  0  2  0  0  0  0  0  0
  189.5360  177.7360  147.9080 C   0  0  0  0  0  2  0  0  0  0  0  0
  189.3590  177.9620  146.4080 C   0  0  2  0  0  3  0  0  0  0  0  0
  191.2730  176.5030  146.0240 N   0  0  0  0  0  2  0  0  0  0  0  0
  193.1700  176.4300  148.8030 O   0  0  0  0  0  1  0  0  0  0  0  0
  192.6590  175.7100  147.7170 C   0  0  0  0  0  2  0  0  0  0  0  0
  188.8460  177.3460  141.4940 C   0  0  0  0  0  0  0  0  0  0  0  0
  189.8930  176.6650  141.6640 O   0  0  0  0  0  0  0  0  0  0  0  0
  188.6880  178.1490  140.3620 O   0  0  0  0  0  0  0  0  0  0  0  0
  188.4240  177.6090  139.0740 C   0  0  1  0  0  3  0  0  0  0  0  0
  187.3840  178.3050  138.4840 F   0  0  0  0  0  0  0  0  0  0  0  0
  189.6590  177.7330  138.1980 C   0  0  0  0  0  2  0  0  0  0  0  0
  190.4680  176.4430  138.2040 C   0  0  2  0  0  3  0  0  0  0  0  0
  191.6160  175.4220  136.4690 O   0  0  0  0  0  0  0  0  0  0  0  0
  191.8260  176.7200  138.3680 O   0  0  0  0  0  0  0  0  0  0  0  0
  190.3290  175.7520  136.8800 C   0  0  1  0  0  3  0  0  0  0  0  0
  192.4330  176.3230  137.1660 C   0  0  0  0  0  2  0  0  0  0  0  0
  188.0870  174.5510  136.6950 N   0  0  0  0  0  0  0  0  0  0  0  0
  189.4860  174.5190  137.0160 C   0  0  0  0  0  0  0  0  0  0  0  0
  185.8460  173.6280  137.0140 C   0  0  0  0  0  2  0  0  0  0  0  0
  186.0010  175.8100  136.4940 C   0  0  0  0  0  2  0  0  0  0  0  0
  185.3750  174.6080  136.1230 O   0  0  0  0  0  0  0  0  0  0  0  0
  187.4850  175.7590  136.1280 C   0  0  0  0  0  2  0  0  0  0  0  0
  187.3090  173.3110  136.7080 C   0  0  0  0  0  2  0  0  0  0  0  0
  190.0090  173.4580  137.4530 O   0  0  0  0  0  0  0  0  0  0  0  0
  2  9  1  0  0  0  0
  3 14  1  0  0  0  0
  3 13  1  0  0  0  0
  4 25  1  6  0  0  0
  4 15  1  0  0  0  0
  5 16  1  0  0  0  0
  6 10  1  0  0  0  0
  6  2  2  0  0  0  0
  7  2  1  0  0  0  0
  8 12  1  0  0  0  0
  8  5  1  0  0  0  0
  9  5  2  0  0  0  0
 10  8  2  0  0  0  0
 11  4  1  0  0  0  0
 11 12  1  0  0  0  0
 12  3  2  0  0  0  0
 14  1  2  0  0  0  0
 15 14  1  0  0  0  0
 16 13  2  0  0  0  0
 18 24  1  0  0  0  0
 18 17  1  0  0  0  0
 19 22  1  0  0  0  0
 19 21  1  0  0  0  0
 20 17  1  0  0  0  0
 21  1  1  1  0  0  0
 21 20  1  0  0  0  0
 22 18  1  0  0  0  0
 24 23  1  0  0  0  0
 25 26  2  0  0  0  0
 27 25  1  0  0  0  0
 28 29  1  6  0  0  0
 28 27  1  0  0  0  0
 30 28  1  0  0  0  0
 31 30  1  6  0  0  0
 31 33  1  0  0  0  0
 32 34  1  0  0  0  0
 32 35  1  0  0  0  0
 34 37  1  1  0  0  0
 34 31  1  0  0  0  0
 35 33  1  0  0  0  0
 36 42  1  0  0  0  0
 36 37  1  0  0  0  0
 37 43  2  0  0  0  0
 40 39  1  0  0  0  0
 40 38  1  0  0  0  0
 41 39  1  0  0  0  0
 41 36  1  0  0  0  0
 42 38  1  0  0  0  0
M  END
>  <MODEL>
4

>  <REMARK>
 VINA RESULT:      -9.7      2.394      6.619
  Name = 
  8 active torsions:
  status: ('A' for Active; 'I' for Inactive)
    1  A    between atoms: C_1  and  C_35
    2  A    between atoms: C_2  and  O_6
    3  A    between atoms: C_2  and  C_13
    4  A    between atoms: C_3  and  C_4
    5  A    between atoms: C_3  and  C_12
    6  A    between atoms: O_6  and  C_12
    7  A    between atoms: C_14  and  C_22
    8  A    between atoms: N_19  and  C_37
                            x       y       z     vdW  Elec       q    Type
                         _______ _______ _______ _____ _____    ______ ____

>  <TORSDO>
F 8

$$$$
=
 OpenBabel10262422063D

 43 48  0  0  1  0  0  0  0  0999 V2000
  183.1760  178.6450  141.8810 C   0  0  0  0  0  3  0  0  0  0  0  0
  187.8770  177.8690  147.5770 C   0  0  0  0  0  0  0  0  0  0  0  0
  185.0240  178.4410  143.4690 C   0  0  0  0  0  0  0  0  0  0  0  0
  186.7920  178.6450  141.2260 C   0  0  2  0  0  3  0  0  0  0  0  0
  186.0420  178.2660  146.0490 C   0  0  0  0  0  0  0  0  0  0  0  0
  188.7340  177.6460  146.4950 C   0  0  0  0  0  3  0  0  0  0  0  0
  188.3970  177.7750  148.9660 C   0  0  0  0  0  1  0  0  0  0  0  0
  186.9020  178.0440  144.9490 C   0  0  0  0  0  0  0  0  0  0  0  0
  186.5320  178.1760  147.3550 C   0  0  0  0  0  3  0  0  0  0  0  0
  188.2490  177.7320  145.1860 C   0  0  0  0  0  3  0  0  0  0  0  0
  187.2440  177.8310  142.4400 C   0  0  0  0  0  2  0  0  0  0  0  0
  186.3890  178.1400  143.6430 C   0  0  0  0  0  0  0  0  0  0  0  0
  184.2230  178.6450  144.5530 N   0  0  0  0  0  0  0  0  0  0  0  0
  184.4890  178.5460  142.0980 C   0  0  0  0  0  0  0  0  0  0  0  0
  185.3850  178.5200  141.0240 O   0  0  0  0  0  0  0  0  0  0  0  0
  184.6990  178.5650  145.8230 C   0  0  0  0  0  3  0  0  0  0  0  0
  182.0890  177.5010  138.4070 C   0  0  0  0  0  2  0  0  0  0  0  0
  180.6690  177.7280  138.6860 N   0  0  0  0  0  0  0  0  0  0  0  0
  181.0900  178.9780  140.6040 C   0  0  0  0  0  2  0  0  0  0  0  0
  182.8600  177.4610  139.7210 C   0  0  0  0  0  2  0  0  0  0  0  0
  182.5940  178.7430  140.5090 C   0  0  2  0  0  3  0  0  0  0  0  0
  180.5210  179.0100  139.2560 N   0  0  0  0  0  2  0  0  0  0  0  0
  179.7250  179.0000  136.9310 O   0  0  0  0  0  1  0  0  0  0  0  0
  179.9370  177.7050  137.4200 C   0  0  0  0  0  2  0  0  0  0  0  0
  187.5170  178.1960  140.0070 C   0  0  0  0  0  0  0  0  0  0  0  0
  187.2630  178.7400  138.8980 O   0  0  0  0  0  0  0  0  0  0  0  0
  188.4670  177.1770  140.1050 O   0  0  0  0  0  0  0  0  0  0  0  0
  189.8480  177.4390  140.3150 C   0  0  1  0  0  3  0  0  0  0  0  0
  190.4200  176.3860  141.0080 F   0  0  0  0  0  0  0  0  0  0  0  0
  190.5550  177.5910  138.9790 C   0  0  0  0  0  2  0  0  0  0  0  0
  191.2330  176.2920  138.5650 C   0  0  2  0  0  3  0  0  0  0  0  0
  191.9720  175.6240  136.4730 O   0  0  0  0  0  0  0  0  0  0  0  0
  192.6180  176.4550  138.5290 O   0  0  0  0  0  0  0  0  0  0  0  0
  190.8090  175.9210  137.1750 C   0  0  1  0  0  3  0  0  0  0  0  0
  192.9740  176.3040  137.1790 C   0  0  0  0  0  2  0  0  0  0  0  0
  188.5080  174.8700  136.8540 N   0  0  0  0  0  0  0  0  0  0  0  0
  189.8930  174.7330  137.2040 C   0  0  0  0  0  0  0  0  0  0  0  0
  186.2090  174.0630  137.0550 C   0  0  0  0  0  2  0  0  0  0  0  0
  186.5040  176.2620  136.6930 C   0  0  0  0  0  2  0  0  0  0  0  0
  185.8200  175.1280  136.2240 O   0  0  0  0  0  0  0  0  0  0  0  0
  187.9910  176.1480  136.3590 C   0  0  0  0  0  2  0  0  0  0  0  0
  187.6590  173.6810  136.7620 C   0  0  0  0  0  2  0  0  0  0  0  0
  190.3410  173.6150  137.5780 O   0  0  0  0  0  0  0  0  0  0  0  0
  1 14  2  0  0  0  0
  2  7  1  0  0  0  0
  3 12  2  0  0  0  0
  3 13  1  0  0  0  0
  4 25  1  6  0  0  0
  4 11  1  0  0  0  0
  5  9  2  0  0  0  0
  6  2  2  0  0  0  0
  8 10  2  0  0  0  0
  8  5  1  0  0  0  0
  9  2  1  0  0  0  0
 10  6  1  0  0  0  0
 11 12  1  0  0  0  0
 12  8  1  0  0  0  0
 13 16  2  0  0  0  0
 14  3  1  0  0  0  0
 15  4  1  0  0  0  0
 15 14  1  0  0  0  0
 16  5  1  0  0  0  0
 17 18  1  0  0  0  0
 17 20  1  0  0  0  0
 18 22  1  0  0  0  0
 20 21  1  0  0  0  0
 21 19  1  0  0  0  0
 21  1  1  1  0  0  0
 22 19  1  0  0  0  0
 23 24  1  0  0  0  0
 24 18  1  0  0  0  0
 25 27  1  0  0  0  0
 26 25  2  0  0  0  0
 27 28  1  0  0  0  0
 28 29  1  6  0  0  0
 30 28  1  0  0  0  0
 31 30  1  6  0  0  0
 32 34  1  0  0  0  0
 32 35  1  0  0  0  0
 33 31  1  0  0  0  0
 34 37  1  1  0  0  0
 34 31  1  0  0  0  0
 35 33  1  0  0  0  0
 36 37  1  0  0  0  0
 37 43  2  0  0  0  0
 40 39  1  0  0  0  0
 40 38  1  0  0  0  0
 41 39  1  0  0  0  0
 41 36  1  0  0  0  0
 42 36  1  0  0  0  0
 42 38  1  0  0  0  0
M  END
>  <MODEL>
5

>  <REMARK>
 VINA RESULT:      -9.6      2.171      3.095
  Name = 
  8 active torsions:
  status: ('A' for Active; 'I' for Inactive)
    1  A    between atoms: C_1  and  C_35
    2  A    between atoms: C_2  and  O_6
    3  A    between atoms: C_2  and  C_13
    4  A    between atoms: C_3  and  C_4
    5  A    between atoms: C_3  and  C_12
    6  A    between atoms: O_6  and  C_12
    7  A    between atoms: C_14  and  C_22
    8  A    between atoms: N_19  and  C_37
                            x       y       z     vdW  Elec       q    Type
                         _______ _______ _______ _____ _____    ______ ____

>  <TORSDO>
F 8

$$$$
=
 OpenBabel10262422063D

 43 48  0  0  1  0  0  0  0  0999 V2000
  187.9970  178.1120  146.0340 C   0  0  0  0  0  3  0  0  0  0  0  0
  181.5430  179.0060  142.4700 C   0  0  0  0  0  0  0  0  0  0  0  0
  186.0750  178.2510  144.5290 C   0  0  0  0  0  0  0  0  0  0  0  0
  187.8140  177.3350  142.4460 C   0  0  2  0  0  3  0  0  0  0  0  0
  183.3790  178.6880  144.0160 C   0  0  0  0  0  0  0  0  0  0  0  0
  182.4240  178.8740  141.3930 C   0  0  0  0  0  3  0  0  0  0  0  0
  180.0980  179.2460  142.2220 C   0  0  0  0  0  1  0  0  0  0  0  0
  184.2760  178.5520  142.9330 C   0  0  0  0  0  0  0  0  0  0  0  0
  182.0190  178.9150  143.7810 C   0  0  0  0  0  3  0  0  0  0  0  0
  183.7850  178.6490  141.6220 C   0  0  0  0  0  3  0  0  0  0  0  0
  186.6490  178.2540  142.0730 C   0  0  0  0  0  2  0  0  0  0  0  0
  185.6390  178.3230  143.1910 C   0  0  0  0  0  0  0  0  0  0  0  0
  185.1820  178.3910  145.5490 N   0  0  0  0  0  0  0  0  0  0  0  0
  187.5040  178.0060  144.7980 C   0  0  0  0  0  0  0  0  0  0  0  0
  188.3430  177.6790  143.7270 O   0  0  0  0  0  0  0  0  0  0  0  0
  183.8600  178.6040  145.3220 C   0  0  0  0  0  3  0  0  0  0  0  0
  191.0750  177.2620  148.1220 C   0  0  0  0  0  2  0  0  0  0  0  0
  191.3760  176.0610  147.3390 N   0  0  0  0  0  0  0  0  0  0  0  0
  189.9340  176.6430  145.6070 C   0  0  0  0  0  2  0  0  0  0  0  0
  189.6390  177.6940  147.8490 C   0  0  0  0  0  2  0  0  0  0  0  0
  189.4390  177.8830  146.3460 C   0  0  2  0  0  3  0  0  0  0  0  0
  191.3300  176.3920  145.9690 N   0  0  0  0  0  2  0  0  0  0  0  0
  193.2140  176.2570  148.8130 O   0  0  0  0  0  1  0  0  0  0  0  0
  192.7360  175.6280  147.6570 C   0  0  0  0  0  2  0  0  0  0  0  0
  188.8870  177.4230  141.4190 C   0  0  0  0  0  0  0  0  0  0  0  0
  189.8940  176.6700  141.5090 O   0  0  0  0  0  0  0  0  0  0  0  0
  188.7670  178.3380  140.3710 O   0  0  0  0  0  0  0  0  0  0  0  0
  188.2960  177.9650  139.0830 C   0  0  1  0  0  3  0  0  0  0  0  0
  186.9290  178.1670  139.0120 F   0  0  0  0  0  0  0  0  0  0  0  0
  188.9740  178.8120  138.0190 C   0  0  0  0  0  2  0  0  0  0  0  0
  188.7840  178.2100  136.6330 C   0  0  2  0  0  3  0  0  0  0  0  0
  187.9340  176.1390  136.0370 O   0  0  0  0  0  0  0  0  0  0  0  0
  187.4720  178.3970  136.1980 O   0  0  0  0  0  0  0  0  0  0  0  0
  189.0110  176.7290  136.6890 C   0  0  1  0  0  3  0  0  0  0  0  0
  186.9230  177.1070  136.1140 C   0  0  0  0  0  2  0  0  0  0  0  0
  191.5050  176.2070  136.7750 N   0  0  0  0  0  0  0  0  0  0  0  0
  190.3000  176.3680  136.0130 C   0  0  0  0  0  0  0  0  0  0  0  0
  193.9470  176.2570  136.8630 C   0  0  0  0  0  2  0  0  0  0  0  0
  192.8350  176.7520  138.7530 C   0  0  0  0  0  2  0  0  0  0  0  0
  193.8510  175.9360  138.2280 O   0  0  0  0  0  0  0  0  0  0  0  0
  191.4740  176.2860  138.2370 C   0  0  0  0  0  2  0  0  0  0  0  0
  192.7230  175.7280  136.1180 C   0  0  0  0  0  2  0  0  0  0  0  0
  190.3260  176.2440  134.7570 O   0  0  0  0  0  0  0  0  0  0  0  0
  2  9  1  0  0  0  0
  3 14  1  0  0  0  0
  3 13  1  0  0  0  0
  4 25  1  6  0  0  0
  4 15  1  0  0  0  0
  5 16  1  0  0  0  0
  6 10  1  0  0  0  0
  6  2  2  0  0  0  0
  7  2  1  0  0  0  0
  8 12  1  0  0  0  0
  8  5  1  0  0  0  0
  9  5  2  0  0  0  0
 10  8  2  0  0  0  0
 11  4  1  0  0  0  0
 11 12  1  0  0  0  0
 12  3  2  0  0  0  0
 14  1  2  0  0  0  0
 15 14  1  0  0  0  0
 16 13  2  0  0  0  0
 18 24  1  0  0  0  0
 18 17  1  0  0  0  0
 19 22  1  0  0  0  0
 19 21  1  0  0  0  0
 20 17  1  0  0  0  0
 21  1  1  1  0  0  0
 21 20  1  0  0  0  0
 22 18  1  0  0  0  0
 24 23  1  0  0  0  0
 25 26  2  0  0  0  0
 27 25  1  0  0  0  0
 28 29  1  1  0  0  0
 28 27  1  0  0  0  0
 30 28  1  0  0  0  0
 31 34  1  0  0  0  0
 31 30  1  1  0  0  0
 32 35  1  0  0  0  0
 32 34  1  0  0  0  0
 33 31  1  0  0  0  0
 34 37  1  6  0  0  0
 35 33  1  0  0  0  0
 36 41  1  0  0  0  0
 37 36  1  0  0  0  0
 38 40  1  0  0  0  0
 40 39  1  0  0  0  0
 41 39  1  0  0  0  0
 42 36  1  0  0  0  0
 42 38  1  0  0  0  0
 43 37  2  0  0  0  0
M  END
>  <MODEL>
6

>  <REMARK>
 VINA RESULT:      -9.6      2.766      7.329
  Name = 
  8 active torsions:
  status: ('A' for Active; 'I' for Inactive)
    1  A    between atoms: C_1  and  C_35
    2  A    between atoms: C_2  and  O_6
    3  A    between atoms: C_2  and  C_13
    4  A    between atoms: C_3  and  C_4
    5  A    between atoms: C_3  and  C_12
    6  A    between atoms: O_6  and  C_12
    7  A    between atoms: C_14  and  C_22
    8  A    between atoms: N_19  and  C_37
                            x       y       z     vdW  Elec       q    Type
                         _______ _______ _______ _____ _____    ______ ____

>  <TORSDO>
F 8

$$$$
=
 OpenBabel10262422063D

 43 48  0  0  1  0  0  0  0  0999 V2000
  187.9630  178.1330  146.0530 C   0  0  0  0  0  3  0  0  0  0  0  0
  181.5500  179.0030  142.4110 C   0  0  0  0  0  0  0  0  0  0  0  0
  186.0570  178.2600  144.5270 C   0  0  0  0  0  0  0  0  0  0  0  0
  187.8170  177.3180  142.4730 C   0  0  2  0  0  3  0  0  0  0  0  0
  183.3680  178.6980  143.9790 C   0  0  0  0  0  0  0  0  0  0  0  0
  182.4420  178.8580  141.3440 C   0  0  0  0  0  3  0  0  0  0  0  0
  180.1090  179.2430  142.1440 C   0  0  0  0  0  1  0  0  0  0  0  0
  184.2770  178.5480  142.9080 C   0  0  0  0  0  0  0  0  0  0  0  0
  182.0120  178.9250  143.7280 C   0  0  0  0  0  3  0  0  0  0  0  0
  183.8000  178.6320  141.5900 C   0  0  0  0  0  3  0  0  0  0  0  0
  186.6580  178.2360  142.0770 C   0  0  0  0  0  2  0  0  0  0  0  0
  185.6370  178.3180  143.1830 C   0  0  0  0  0  0  0  0  0  0  0  0
  185.1540  178.4130  145.5350 N   0  0  0  0  0  0  0  0  0  0  0  0
  187.4840  178.0150  144.8140 C   0  0  0  0  0  0  0  0  0  0  0  0
  188.3330  177.6740  143.7550 O   0  0  0  0  0  0  0  0  0  0  0  0
  183.8350  178.6270  145.2920 C   0  0  0  0  0  3  0  0  0  0  0  0
  191.0100  177.2270  148.1640 C   0  0  0  0  0  2  0  0  0  0  0  0
  191.3370  176.0610  147.3400 N   0  0  0  0  0  0  0  0  0  0  0  0
  189.9220  176.7000  145.6050 C   0  0  0  0  0  2  0  0  0  0  0  0
  189.5750  177.6560  147.8810 C   0  0  0  0  0  2  0  0  0  0  0  0
  189.4010  177.9040  146.3840 C   0  0  2  0  0  3  0  0  0  0  0  0
  191.3130  176.4470  145.9830 N   0  0  0  0  0  2  0  0  0  0  0  0
  193.1860  176.2950  148.7950 O   0  0  0  0  0  1  0  0  0  0  0  0
  192.6940  175.6270  147.6660 C   0  0  0  0  0  2  0  0  0  0  0  0
  188.9010  177.3920  141.4560 C   0  0  0  0  0  0  0  0  0  0  0  0
  190.0780  177.6580  141.8230 O   0  0  0  0  0  0  0  0  0  0  0  0
  188.6020  177.1690  140.1110 O   0  0  0  0  0  0  0  0  0  0  0  0
  188.7910  178.1640  139.1120 C   0  0  1  0  0  3  0  0  0  0  0  0
  190.1350  178.2520  138.7950 F   0  0  0  0  0  0  0  0  0  0  0  0
  188.0130  177.7940  137.8610 C   0  0  0  0  0  2  0  0  0  0  0  0
  188.0850  176.2970  137.5900 C   0  0  2  0  0  3  0  0  0  0  0  0
  187.7150  175.1420  135.6160 O   0  0  0  0  0  0  0  0  0  0  0  0
  189.3280  175.9590  137.0550 O   0  0  0  0  0  0  0  0  0  0  0  0
  187.0580  175.9180  136.5660 C   0  0  1  0  0  3  0  0  0  0  0  0
  189.0600  175.5150  135.7490 C   0  0  0  0  0  2  0  0  0  0  0  0
  184.6790  175.7650  137.4700 N   0  0  0  0  0  0  0  0  0  0  0  0
  185.9430  175.1410  137.2010 C   0  0  0  0  0  0  0  0  0  0  0  0
  182.6230  175.8430  138.7900 C   0  0  0  0  0  2  0  0  0  0  0  0
  183.3870  177.7850  137.9510 C   0  0  0  0  0  2  0  0  0  0  0  0
  182.2460  176.9690  138.0360 O   0  0  0  0  0  0  0  0  0  0  0  0
  184.4220  177.1380  137.0300 C   0  0  0  0  0  2  0  0  0  0  0  0
  183.5620  174.9610  137.9690 C   0  0  0  0  0  2  0  0  0  0  0  0
  186.1380  173.9400  137.5350 O   0  0  0  0  0  0  0  0  0  0  0  0
  2  9  1  0  0  0  0
  3 14  1  0  0  0  0
  3 13  1  0  0  0  0
  4 25  1  6  0  0  0
  4 15  1  0  0  0  0
  5 16  1  0  0  0  0
  6 10  1  0  0  0  0
  6  2  2  0  0  0  0
  7  2  1  0  0  0  0
  8 12  1  0  0  0  0
  8  5  1  0  0  0  0
  9  5  2  0  0  0  0
 10  8  2  0  0  0  0
 11  4  1  0  0  0  0
 11 12  1  0  0  0  0
 12  3  2  0  0  0  0
 14  1  2  0  0  0  0
 15 14  1  0  0  0  0
 16 13  2  0  0  0  0
 18 24  1  0  0  0  0
 18 17  1  0  0  0  0
 19 22  1  0  0  0  0
 19 21  1  0  0  0  0
 20 17  1  0  0  0  0
 21  1  1  1  0  0  0
 21 20  1  0  0  0  0
 22 18  1  0  0  0  0
 24 23  1  0  0  0  0
 25 26  2  0  0  0  0
 27 25  1  0  0  0  0
 28 29  1  6  0  0  0
 28 27  1  0  0  0  0
 30 28  1  0  0  0  0
 31 30  1  6  0  0  0
 32 35  1  0  0  0  0
 32 34  1  0  0  0  0
 33 31  1  0  0  0  0
 34 37  1  1  0  0  0
 34 31  1  0  0  0  0
 35 33  1  0  0  0  0
 36 42  1  0  0  0  0
 37 36  1  0  0  0  0
 37 43  2  0  0  0  0
 39 40  1  0  0  0  0
 40 38  1  0  0  0  0
 41 36  1  0  0  0  0
 41 39  1  0  0  0  0
 42 38  1  0  0  0  0
M  END
>  <MODEL>
7

>  <REMARK>
 VINA RESULT:      -9.5      2.109      6.414
  Name = 
  8 active torsions:
  status: ('A' for Active; 'I' for Inactive)
    1  A    between atoms: C_1  and  C_35
    2  A    between atoms: C_2  and  O_6
    3  A    between atoms: C_2  and  C_13
    4  A    between atoms: C_3  and  C_4
    5  A    between atoms: C_3  and  C_12
    6  A    between atoms: O_6  and  C_12
    7  A    between atoms: C_14  and  C_22
    8  A    between atoms: N_19  and  C_37
                            x       y       z     vdW  Elec       q    Type
                         _______ _______ _______ _____ _____    ______ ____

>  <TORSDO>
F 8

$$$$
=
 OpenBabel10262422063D

 43 48  0  0  1  0  0  0  0  0999 V2000
  190.8920  175.7710  137.6930 C   0  0  0  0  0  3  0  0  0  0  0  0
  184.4830  179.1770  139.2640 C   0  0  0  0  0  0  0  0  0  0  0  0
  188.9740  177.0150  138.5610 C   0  0  0  0  0  0  0  0  0  0  0  0
  190.5350  177.5120  140.9100 C   0  0  2  0  0  3  0  0  0  0  0  0
  186.4330  178.1110  138.3060 C   0  0  0  0  0  0  0  0  0  0  0  0
  185.0890  179.1600  140.5240 C   0  0  0  0  0  3  0  0  0  0  0  0
  183.1220  179.7520  139.1040 C   0  0  0  0  0  1  0  0  0  0  0  0
  187.0550  178.0920  139.5750 C   0  0  0  0  0  0  0  0  0  0  0  0
  185.1530  178.6510  138.1560 C   0  0  0  0  0  3  0  0  0  0  0  0
  186.3690  178.6200  140.6800 C   0  0  0  0  0  3  0  0  0  0  0  0
  189.0140  177.4240  141.0490 C   0  0  0  0  0  2  0  0  0  0  0  0
  188.3440  177.5450  139.7040 C   0  0  0  0  0  0  0  0  0  0  0  0
  188.3440  177.0470  137.3530 N   0  0  0  0  0  0  0  0  0  0  0  0
  190.3290  176.4460  138.6970 C   0  0  0  0  0  0  0  0  0  0  0  0
  191.0080  176.6100  139.9090 O   0  0  0  0  0  0  0  0  0  0  0  0
  187.1020  177.5780  137.2050 C   0  0  0  0  0  3  0  0  0  0  0  0
  193.8640  173.5610  136.7750 C   0  0  0  0  0  2  0  0  0  0  0  0
  194.7310  174.7060  136.4850 N   0  0  0  0  0  0  0  0  0  0  0  0
  193.3090  176.2360  137.5110 C   0  0  0  0  0  2  0  0  0  0  0  0
  192.4120  174.0230  136.7980 C   0  0  0  0  0  2  0  0  0  0  0  0
  192.2550  175.1700  137.7940 C   0  0  2  0  0  3  0  0  0  0  0  0
  194.6380  175.6240  137.5520 N   0  0  0  0  0  2  0  0  0  0  0  0
  196.9300  174.9000  137.3320 O   0  0  0  0  0  1  0  0  0  0  0  0
  196.1130  174.2350  136.4090 C   0  0  0  0  0  2  0  0  0  0  0  0
  191.1890  177.2060  142.2110 C   0  0  0  0  0  0  0  0  0  0  0  0
  191.1350  176.0340  142.6720 O   0  0  0  0  0  0  0  0  0  0  0  0
  191.8520  178.2210  142.9060 O   0  0  0  0  0  0  0  0  0  0  0  0
  191.3750  178.7350  144.1430 C   0  0  1  0  0  3  0  0  0  0  0  0
  190.9480  180.0400  143.9690 F   0  0  0  0  0  0  0  0  0  0  0  0
  190.2080  177.8960  144.6360 C   0  0  0  0  0  2  0  0  0  0  0  0
  190.1460  177.8820  146.1570 C   0  0  2  0  0  3  0  0  0  0  0  0
  189.7770  176.1030  147.5950 O   0  0  0  0  0  0  0  0  0  0  0  0
  191.3770  177.5030  146.6910 O   0  0  0  0  0  0  0  0  0  0  0  0
  189.1470  176.8610  146.6140 C   0  0  1  0  0  3  0  0  0  0  0  0
  191.1420  176.2730  147.3260 C   0  0  0  0  0  2  0  0  0  0  0  0
  186.7780  177.7610  146.3360 N   0  0  0  0  0  0  0  0  0  0  0  0
  187.9250  177.5300  147.1670 C   0  0  0  0  0  0  0  0  0  0  0  0
  184.7670  179.0670  145.8620 C   0  0  0  0  0  2  0  0  0  0  0  0
  185.8290  178.1330  144.1130 C   0  0  0  0  0  2  0  0  0  0  0  0
  184.5720  178.2550  144.7300 O   0  0  0  0  0  0  0  0  0  0  0  0
  186.7420  177.2500  144.9640 C   0  0  0  0  0  2  0  0  0  0  0  0
  185.5490  178.2960  146.9240 C   0  0  0  0  0  2  0  0  0  0  0  0
  187.9260  177.9260  148.3650 O   0  0  0  0  0  0  0  0  0  0  0  0
  1 14  2  0  0  0  0
  2  6  1  0  0  0  0
  3 14  1  0  0  0  0
  3 12  1  0  0  0  0
  4 11  1  0  0  0  0
  4 25  1  1  0  0  0
  5  8  1  0  0  0  0
  6 10  2  0  0  0  0
  7  2  1  0  0  0  0
  8 12  2  0  0  0  0
  8 10  1  0  0  0  0
  9  5  1  0  0  0  0
  9  2  2  0  0  0  0
 12 11  1  0  0  0  0
 13  3  2  0  0  0  0
 14 15  1  0  0  0  0
 15  4  1  0  0  0  0
 16 13  1  0  0  0  0
 16  5  2  0  0  0  0
 17 20  1  0  0  0  0
 18 17  1  0  0  0  0
 18 22  1  0  0  0  0
 19 22  1  0  0  0  0
 19 21  1  0  0  0  0
 20 21  1  0  0  0  0
 21  1  1  6  0  0  0
 24 18  1  0  0  0  0
 24 23  1  0  0  0  0
 25 26  2  0  0  0  0
 25 27  1  0  0  0  0
 27 28  1  0  0  0  0
 28 29  1  6  0  0  0
 28 30  1  0  0  0  0
 31 30  1  6  0  0  0
 31 34  1  0  0  0  0
 31 33  1  0  0  0  0
 33 35  1  0  0  0  0
 34 37  1  1  0  0  0
 34 32  1  0  0  0  0
 35 32  1  0  0  0  0
 36 42  1  0  0  0  0
 36 37  1  0  0  0  0
 37 43  2  0  0  0  0
 38 42  1  0  0  0  0
 39 40  1  0  0  0  0
 39 41  1  0  0  0  0
 40 38  1  0  0  0  0
 41 36  1  0  0  0  0
M  END
>  <MODEL>
8

>  <REMARK>
 VINA RESULT:      -9.5      3.826      9.889
  Name = 
  8 active torsions:
  status: ('A' for Active; 'I' for Inactive)
    1  A    between atoms: C_1  and  C_35
    2  A    between atoms: C_2  and  O_6
    3  A    between atoms: C_2  and  C_13
    4  A    between atoms: C_3  and  C_4
    5  A    between atoms: C_3  and  C_12
    6  A    between atoms: O_6  and  C_12
    7  A    between atoms: C_14  and  C_22
    8  A    between atoms: N_19  and  C_37
                            x       y       z     vdW  Elec       q    Type
                         _______ _______ _______ _____ _____    ______ ____

>  <TORSDO>
F 8

$$$$
=
 OpenBabel10262422063D

 43 48  0  0  1  0  0  0  0  0999 V2000
  187.7700  178.0790  145.9620 C   0  0  0  0  0  3  0  0  0  0  0  0
  181.2330  179.0200  142.5690 C   0  0  0  0  0  0  0  0  0  0  0  0
  185.8210  178.2670  144.5000 C   0  0  0  0  0  0  0  0  0  0  0  0
  187.5560  177.5790  142.3280 C   0  0  2  0  0  3  0  0  0  0  0  0
  183.1030  178.6480  144.0590 C   0  0  0  0  0  0  0  0  0  0  0  0
  182.1000  179.0050  141.4720 C   0  0  0  0  0  3  0  0  0  0  0  0
  179.7770  179.2280  142.3590 C   0  0  0  0  0  1  0  0  0  0  0  0
  183.9870  178.6280  142.9570 C   0  0  0  0  0  0  0  0  0  0  0  0
  181.7330  178.8440  143.8620 C   0  0  0  0  0  3  0  0  0  0  0  0
  183.4710  178.8100  141.6640 C   0  0  0  0  0  3  0  0  0  0  0  0
  186.3540  178.4830  142.0440 C   0  0  0  0  0  2  0  0  0  0  0  0
  185.3610  178.4280  143.1780 C   0  0  0  0  0  0  0  0  0  0  0  0
  184.9410  178.2950  145.5400 N   0  0  0  0  0  0  0  0  0  0  0  0
  187.2620  178.0520  144.7290 C   0  0  0  0  0  0  0  0  0  0  0  0
  188.0940  177.8390  143.6240 O   0  0  0  0  0  0  0  0  0  0  0  0
  183.6080  178.4790  145.3490 C   0  0  0  0  0  3  0  0  0  0  0  0
  190.9060  177.1260  147.9170 C   0  0  0  0  0  2  0  0  0  0  0  0
  191.2480  176.0370  146.9990 N   0  0  0  0  0  0  0  0  0  0  0  0
  189.7620  176.7530  145.3560 C   0  0  0  0  0  2  0  0  0  0  0  0
  189.4510  177.5250  147.7050 C   0  0  0  0  0  2  0  0  0  0  0  0
  189.2250  177.8770  146.2360 C   0  0  2  0  0  3  0  0  0  0  0  0
  191.1710  176.5210  145.6760 N   0  0  0  0  0  2  0  0  0  0  0  0
  193.0750  176.0930  148.4990 O   0  0  0  0  0  1  0  0  0  0  0  0
  192.6280  175.6280  147.2560 C   0  0  0  0  0  2  0  0  0  0  0  0
  188.6080  177.7840  141.2960 C   0  0  0  0  0  0  0  0  0  0  0  0
  188.2910  177.7760  140.0760 O   0  0  0  0  0  0  0  0  0  0  0  0
  189.9330  177.9800  141.6910 O   0  0  0  0  0  0  0  0  0  0  0  0
  190.9780  177.0870  141.3280 C   0  0  1  0  0  3  0  0  0  0  0  0
  190.4630  175.8120  141.1700 F   0  0  0  0  0  0  0  0  0  0  0  0
  191.6060  177.5310  140.0170 C   0  0  0  0  0  2  0  0  0  0  0  0
  191.7530  176.3610  139.0540 C   0  0  2  0  0  3  0  0  0  0  0  0
  192.0570  176.3790  136.7570 O   0  0  0  0  0  0  0  0  0  0  0  0
  193.1010  176.1070  138.8000 O   0  0  0  0  0  0  0  0  0  0  0  0
  191.1260  176.7070  137.7370 C   0  0  1  0  0  3  0  0  0  0  0  0
  193.2820  176.3980  137.4380 C   0  0  0  0  0  2  0  0  0  0  0  0
  188.6850  176.5710  137.0130 N   0  0  0  0  0  0  0  0  0  0  0  0
  189.8570  175.9320  137.5400 C   0  0  0  0  0  0  0  0  0  0  0  0
  186.2490  176.6470  136.8240 C   0  0  0  0  0  2  0  0  0  0  0  0
  187.3570  178.5990  136.6920 C   0  0  0  0  0  2  0  0  0  0  0  0
  186.4000  177.8030  136.0390 O   0  0  0  0  0  0  0  0  0  0  0  0
  188.7400  177.9620  136.5600 C   0  0  0  0  0  2  0  0  0  0  0  0
  187.4970  175.7730  136.7050 C   0  0  0  0  0  2  0  0  0  0  0  0
  189.8150  174.7170  137.8770 O   0  0  0  0  0  0  0  0  0  0  0  0
  2  9  1  0  0  0  0
  3 14  1  0  0  0  0
  3 13  1  0  0  0  0
  4 25  1  6  0  0  0
  4 15  1  0  0  0  0
  5 16  1  0  0  0  0
  6 10  1  0  0  0  0
  6  2  2  0  0  0  0
  7  2  1  0  0  0  0
  8 12  1  0  0  0  0
  8  5  1  0  0  0  0
  9  5  2  0  0  0  0
 10  8  2  0  0  0  0
 11  4  1  0  0  0  0
 11 12  1  0  0  0  0
 12  3  2  0  0  0  0
 14  1  2  0  0  0  0
 15 14  1  0  0  0  0
 16 13  2  0  0  0  0
 18 24  1  0  0  0  0
 18 17  1  0  0  0  0
 19 22  1  0  0  0  0
 19 21  1  0  0  0  0
 20 17  1  0  0  0  0
 21  1  1  1  0  0  0
 21 20  1  0  0  0  0
 22 18  1  0  0  0  0
 24 23  1  0  0  0  0
 25 27  1  0  0  0  0
 26 25  2  0  0  0  0
 28 29  1  6  0  0  0
 28 27  1  0  0  0  0
 30 28  1  0  0  0  0
 31 30  1  1  0  0  0
 32 35  1  0  0  0  0
 32 34  1  0  0  0  0
 33 31  1  0  0  0  0
 34 37  1  6  0  0  0
 34 31  1  0  0  0  0
 35 33  1  0  0  0  0
 36 37  1  0  0  0  0
 37 43  2  0  0  0  0
 40 39  1  0  0  0  0
 40 38  1  0  0  0  0
 41 39  1  0  0  0  0
 41 36  1  0  0  0  0
 42 38  1  0  0  0  0
 42 36  1  0  0  0  0
M  END
>  <MODEL>
9

>  <REMARK>
 VINA RESULT:      -9.5      2.559      6.736
  Name = 
  8 active torsions:
  status: ('A' for Active; 'I' for Inactive)
    1  A    between atoms: C_1  and  C_35
    2  A    between atoms: C_2  and  O_6
    3  A    between atoms: C_2  and  C_13
    4  A    between atoms: C_3  and  C_4
    5  A    between atoms: C_3  and  C_12
    6  A    between atoms: O_6  and  C_12
    7  A    between atoms: C_14  and  C_22
    8  A    between atoms: N_19  and  C_37
                            x       y       z     vdW  Elec       q    Type
                         _______ _______ _______ _____ _____    ______ ____

>  <TORSDO>
F 8

$$$$
