=
 OpenBabel10262420093D

 27 30  0  0  0  0  0  0  0  0999 V2000
  188.5760  178.1320  141.3450 N   0  0  0  0  0  0  0  0  0  0  0  0
  186.6640  178.2880  142.8960 C   0  0  0  0  0  3  0  0  0  0  0  0
  183.1050  178.9490  142.2900 N   0  0  0  0  0  0  0  0  0  0  0  0
  181.2050  179.1470  143.7580 N   0  0  0  0  0  1  0  0  0  0  0  0
  186.2880  178.5650  140.5180 C   0  0  0  0  0  3  0  0  0  0  0  0
  184.7960  178.4740  144.4320 C   0  0  0  0  0  3  0  0  0  0  0  0
  183.4320  178.6890  144.6450 C   0  0  0  0  0  3  0  0  0  0  0  0
  185.3040  178.4990  143.1340 C   0  0  0  0  0  0  0  0  0  0  0  0
  182.5950  178.9270  143.5510 C   0  0  0  0  0  0  0  0  0  0  0  0
  184.4280  178.7430  142.0550 C   0  0  0  0  0  0  0  0  0  0  0  0
  187.1650  178.3130  141.5860 C   0  0  0  0  0  0  0  0  0  0  0  0
  184.9260  178.7760  140.7510 C   0  0  0  0  0  3  0  0  0  0  0  0
  191.2240  176.7000  144.3640 C   0  0  0  0  0  3  0  0  0  0  0  0
  189.4650  177.6500  142.3810 C   0  0  0  0  0  0  0  0  0  0  0  0
  190.1840  178.5450  143.1940 C   0  0  0  0  0  3  0  0  0  0  0  0
  191.0540  178.0740  144.1810 C   0  0  0  0  0  3  0  0  0  0  0  0
  190.5250  175.7980  143.5590 C   0  0  0  0  0  3  0  0  0  0  0  0
  189.6550  176.2700  142.5740 C   0  0  0  0  0  3  0  0  0  0  0  0
  189.1440  178.5880  140.0720 C   0  0  0  0  0  2  0  0  0  0  0  0
  192.1020  177.5360  140.2200 Cl  0  0  0  0  0  0  0  0  0  0  0  0
  190.1380  175.2370  137.5640 C   0  0  0  0  0  0  0  0  0  0  0  0
  190.5200  173.8660  136.5460 Cl  0  0  0  0  0  0  0  0  0  0  0  0
  189.5260  177.4320  139.1970 C   0  0  0  0  0  0  0  0  0  0  0  0
  191.1210  175.7870  138.3920 C   0  0  0  0  0  3  0  0  0  0  0  0
  188.8530  175.7810  137.5510 C   0  0  0  0  0  3  0  0  0  0  0  0
  188.5490  176.8740  138.3650 C   0  0  0  0  0  3  0  0  0  0  0  0
  190.8240  176.8810  139.2090 C   0  0  0  0  0  0  0  0  0  0  0  0
  1 11  1  0  0  0  0
  1 14  1  0  0  0  0
  2  8  1  0  0  0  0
  3  9  1  0  0  0  0
  5 12  2  0  0  0  0
  5 11  1  0  0  0  0
  6  7  1  0  0  0  0
  8  6  2  0  0  0  0
  9  4  1  0  0  0  0
  9  7  2  0  0  0  0
 10  3  2  0  0  0  0
 10  8  1  0  0  0  0
 11  2  2  0  0  0  0
 12 10  1  0  0  0  0
 14 18  2  0  0  0  0
 14 15  1  0  0  0  0
 15 16  2  0  0  0  0
 16 13  1  0  0  0  0
 17 13  2  0  0  0  0
 18 17  1  0  0  0  0
 19  1  1  0  0  0  0
 21 24  1  0  0  0  0
 22 21  1  0  0  0  0
 23 27  1  0  0  0  0
 23 19  1  0  0  0  0
 24 27  2  0  0  0  0
 25 21  2  0  0  0  0
 25 26  1  0  0  0  0
 26 23  2  0  0  0  0
 27 20  1  0  0  0  0
M  END
>  <MODEL>
1

>  <REMARK>
 VINA RESULT:      -8.0      0.000      0.000
  Name = 
  4 active torsions:
  status: ('A' for Active; 'I' for Inactive)
    1  A    between atoms: C_1  and  N_15
    2  A    between atoms: C_1  and  C_18
    3  A    between atoms: C_9  and  N_15
    4  A    between atoms: N_15  and  C_19
                            x       y       z     vdW  Elec       q    Type
                         _______ _______ _______ _____ _____    ______ ____

>  <TORSDO>
F 4

$$$$
=
 OpenBabel10262420093D

 27 30  0  0  0  0  0  0  0  0999 V2000
  188.5210  178.1670  141.2630 N   0  0  0  0  0  0  0  0  0  0  0  0
  186.6880  178.2950  142.9090 C   0  0  0  0  0  3  0  0  0  0  0  0
  183.0960  178.9220  142.4870 N   0  0  0  0  0  0  0  0  0  0  0  0
  181.2710  179.0920  144.0500 N   0  0  0  0  0  1  0  0  0  0  0  0
  186.1900  178.5800  140.5550 C   0  0  0  0  0  3  0  0  0  0  0  0
  184.8980  178.4540  144.5390 C   0  0  0  0  0  3  0  0  0  0  0  0
  183.5450  178.6540  144.8210 C   0  0  0  0  0  3  0  0  0  0  0  0
  185.3400  178.4910  143.2160 C   0  0  0  0  0  0  0  0  0  0  0  0
  182.6510  178.8880  143.7720 C   0  0  0  0  0  0  0  0  0  0  0  0
  184.4080  178.7300  142.1840 C   0  0  0  0  0  0  0  0  0  0  0  0
  187.1230  178.3320  141.5760 C   0  0  0  0  0  0  0  0  0  0  0  0
  184.8390  178.7750  140.8570 C   0  0  0  0  0  3  0  0  0  0  0  0
  191.3460  176.8290  144.1620 C   0  0  0  0  0  3  0  0  0  0  0  0
  189.4720  177.7180  142.2590 C   0  0  0  0  0  0  0  0  0  0  0  0
  190.2770  178.6350  142.9580 C   0  0  0  0  0  3  0  0  0  0  0  0
  191.2050  178.1950  143.9050 C   0  0  0  0  0  3  0  0  0  0  0  0
  190.5610  175.9050  143.4700 C   0  0  0  0  0  3  0  0  0  0  0  0
  189.6340  176.3470  142.5230 C   0  0  0  0  0  3  0  0  0  0  0  0
  189.0130  178.6070  139.9530 C   0  0  0  0  0  2  0  0  0  0  0  0
  187.1590  177.1390  137.8820 Cl  0  0  0  0  0  0  0  0  0  0  0  0
  190.7720  175.3730  137.7270 C   0  0  0  0  0  0  0  0  0  0  0  0
  191.5090  174.0680  136.8230 Cl  0  0  0  0  0  0  0  0  0  0  0  0
  189.5920  177.4640  139.1730 C   0  0  0  0  0  0  0  0  0  0  0  0
  189.4380  175.7170  137.4940 C   0  0  0  0  0  3  0  0  0  0  0  0
  191.5160  176.0700  138.6800 C   0  0  0  0  0  3  0  0  0  0  0  0
  190.9270  177.1110  139.4000 C   0  0  0  0  0  3  0  0  0  0  0  0
  188.8420  176.7580  138.2110 C   0  0  0  0  0  0  0  0  0  0  0  0
  1 11  1  0  0  0  0
  1 14  1  0  0  0  0
  2  8  1  0  0  0  0
  3  9  1  0  0  0  0
  5 12  2  0  0  0  0
  5 11  1  0  0  0  0
  6  7  1  0  0  0  0
  8  6  2  0  0  0  0
  9  4  1  0  0  0  0
  9  7  2  0  0  0  0
 10  3  2  0  0  0  0
 10  8  1  0  0  0  0
 11  2  2  0  0  0  0
 12 10  1  0  0  0  0
 14 18  2  0  0  0  0
 14 15  1  0  0  0  0
 15 16  2  0  0  0  0
 16 13  1  0  0  0  0
 17 13  2  0  0  0  0
 18 17  1  0  0  0  0
 19  1  1  0  0  0  0
 20 27  1  0  0  0  0
 21 25  1  0  0  0  0
 22 21  1  0  0  0  0
 23 26  1  0  0  0  0
 23 19  1  0  0  0  0
 24 21  2  0  0  0  0
 24 27  1  0  0  0  0
 25 26  2  0  0  0  0
 27 23  2  0  0  0  0
M  END
>  <MODEL>
2

>  <REMARK>
 VINA RESULT:      -7.5      1.000      1.441
  Name = 
  4 active torsions:
  status: ('A' for Active; 'I' for Inactive)
    1  A    between atoms: C_1  and  N_15
    2  A    between atoms: C_1  and  C_18
    3  A    between atoms: C_9  and  N_15
    4  A    between atoms: N_15  and  C_19
                            x       y       z     vdW  Elec       q    Type
                         _______ _______ _______ _____ _____    ______ ____

>  <TORSDO>
F 4

$$$$
=
 OpenBabel10262420093D

 27 30  0  0  0  0  0  0  0  0999 V2000
  188.6220  178.1110  141.5790 N   0  0  0  0  0  0  0  0  0  0  0  0
  186.3040  178.5870  140.8830 C   0  0  0  0  0  3  0  0  0  0  0  0
  183.1530  178.5270  142.7640 N   0  0  0  0  0  0  0  0  0  0  0  0
  180.8650  178.9470  142.1360 N   0  0  0  0  0  1  0  0  0  0  0  0
  186.7510  177.9920  143.1890 C   0  0  0  0  0  3  0  0  0  0  0  0
  184.0230  179.0230  140.1810 C   0  0  0  0  0  3  0  0  0  0  0  0
  182.6660  179.1110  140.4960 C   0  0  0  0  0  3  0  0  0  0  0  0
  184.9420  178.6830  141.1740 C   0  0  0  0  0  0  0  0  0  0  0  0
  182.2460  178.8580  141.8050 C   0  0  0  0  0  0  0  0  0  0  0  0
  184.4800  178.4340  142.4840 C   0  0  0  0  0  0  0  0  0  0  0  0
  187.2200  178.2470  141.8900 C   0  0  0  0  0  0  0  0  0  0  0  0
  185.3890  178.0880  143.4860 C   0  0  0  0  0  3  0  0  0  0  0  0
  191.4410  176.6550  144.4270 C   0  0  0  0  0  3  0  0  0  0  0  0
  189.5700  177.6200  142.5580 C   0  0  0  0  0  0  0  0  0  0  0  0
  190.3010  178.5070  143.3680 C   0  0  0  0  0  3  0  0  0  0  0  0
  191.2270  178.0290  144.2980 C   0  0  0  0  0  3  0  0  0  0  0  0
  190.7300  175.7610  143.6240 C   0  0  0  0  0  3  0  0  0  0  0  0
  189.8050  176.2400  142.6950 C   0  0  0  0  0  3  0  0  0  0  0  0
  189.1190  178.6210  140.2970 C   0  0  0  0  0  2  0  0  0  0  0  0
  192.0990  177.6190  140.3080 Cl  0  0  0  0  0  0  0  0  0  0  0  0
  190.0850  175.3780  137.6400 C   0  0  0  0  0  0  0  0  0  0  0  0
  190.4550  174.0510  136.5620 Cl  0  0  0  0  0  0  0  0  0  0  0  0
  189.4920  177.5030  139.3690 C   0  0  0  0  0  0  0  0  0  0  0  0
  191.0860  175.9170  138.4530 C   0  0  0  0  0  3  0  0  0  0  0  0
  188.7910  175.8990  137.6890 C   0  0  0  0  0  3  0  0  0  0  0  0
  188.4970  176.9570  138.5510 C   0  0  0  0  0  3  0  0  0  0  0  0
  190.7990  176.9760  139.3180 C   0  0  0  0  0  0  0  0  0  0  0  0
  1 11  1  0  0  0  0
  1 14  1  0  0  0  0
  2  8  2  0  0  0  0
  2 11  1  0  0  0  0
  5 12  1  0  0  0  0
  6  7  2  0  0  0  0
  6  8  1  0  0  0  0
  7  9  1  0  0  0  0
  8 10  1  0  0  0  0
  9  4  1  0  0  0  0
  9  3  2  0  0  0  0
 10  3  1  0  0  0  0
 10 12  2  0  0  0  0
 11  5  2  0  0  0  0
 14 18  2  0  0  0  0
 14 15  1  0  0  0  0
 15 16  2  0  0  0  0
 16 13  1  0  0  0  0
 17 13  2  0  0  0  0
 18 17  1  0  0  0  0
 19  1  1  0  0  0  0
 21 25  2  0  0  0  0
 21 24  1  0  0  0  0
 22 21  1  0  0  0  0
 23 19  1  0  0  0  0
 24 27  2  0  0  0  0
 25 26  1  0  0  0  0
 26 23  2  0  0  0  0
 27 23  1  0  0  0  0
 27 20  1  0  0  0  0
M  END
>  <MODEL>
3

>  <REMARK>
 VINA RESULT:      -7.5      0.748      1.592
  Name = 
  4 active torsions:
  status: ('A' for Active; 'I' for Inactive)
    1  A    between atoms: C_1  and  N_15
    2  A    between atoms: C_1  and  C_18
    3  A    between atoms: C_9  and  N_15
    4  A    between atoms: N_15  and  C_19
                            x       y       z     vdW  Elec       q    Type
                         _______ _______ _______ _____ _____    ______ ____

>  <TORSDO>
F 4

$$$$
=
 OpenBabel10262420093D

 27 30  0  0  0  0  0  0  0  0999 V2000
  182.4880  178.0990  139.9930 N   0  0  0  0  0  0  0  0  0  0  0  0
  184.1270  178.0820  141.8370 C   0  0  0  0  0  3  0  0  0  0  0  0
  183.8260  179.0940  145.3520 N   0  0  0  0  0  0  0  0  0  0  0  0
  185.3910  179.1330  147.1830 N   0  0  0  0  0  1  0  0  0  0  0  0
  181.8670  178.8430  142.2660 C   0  0  0  0  0  3  0  0  0  0  0  0
  185.7550  178.0940  143.6340 C   0  0  0  0  0  3  0  0  0  0  0  0
  186.0690  178.3570  144.9690 C   0  0  0  0  0  3  0  0  0  0  0  0
  184.4640  178.3360  143.1680 C   0  0  0  0  0  0  0  0  0  0  0  0
  185.0810  178.8620  145.8210 C   0  0  0  0  0  0  0  0  0  0  0  0
  183.4940  178.8460  144.0560 C   0  0  0  0  0  0  0  0  0  0  0  0
  182.8240  178.3270  141.3770 C   0  0  0  0  0  0  0  0  0  0  0  0
  182.1990  179.0980  143.6000 C   0  0  0  0  0  3  0  0  0  0  0  0
  185.5020  177.1510  137.1310 C   0  0  0  0  0  3  0  0  0  0  0  0
  183.5020  177.7800  139.0100 C   0  0  0  0  0  0  0  0  0  0  0  0
  183.4430  176.5860  138.2690 C   0  0  0  0  0  3  0  0  0  0  0  0
  184.4330  176.2750  137.3330 C   0  0  0  0  0  3  0  0  0  0  0  0
  185.5800  178.3360  137.8650 C   0  0  0  0  0  3  0  0  0  0  0  0
  184.5890  178.6460  138.7990 C   0  0  0  0  0  3  0  0  0  0  0  0
  181.1120  178.3430  139.5470 C   0  0  0  0  0  2  0  0  0  0  0  0
  180.5520  177.7360  136.5140 Cl  0  0  0  0  0  0  0  0  0  0  0  0
  180.8770  181.7280  136.9020 C   0  0  0  0  0  0  0  0  0  0  0  0
  180.7730  183.1180  135.8450 Cl  0  0  0  0  0  0  0  0  0  0  0  0
  181.0410  179.5010  138.5970 C   0  0  0  0  0  0  0  0  0  0  0  0
  180.6970  180.4420  136.3850 C   0  0  0  0  0  3  0  0  0  0  0  0
  181.1390  181.9020  138.2630 C   0  0  0  0  0  3  0  0  0  0  0  0
  181.2200  180.7920  139.1050 C   0  0  0  0  0  3  0  0  0  0  0  0
  180.7770  179.3270  137.2230 C   0  0  0  0  0  0  0  0  0  0  0  0
  1 11  1  0  0  0  0
  2  8  1  0  0  0  0
  3  9  1  0  0  0  0
  5 12  2  0  0  0  0
  6  7  1  0  0  0  0
  7  9  2  0  0  0  0
  8  6  2  0  0  0  0
  8 10  1  0  0  0  0
  9  4  1  0  0  0  0
 10  3  2  0  0  0  0
 11  2  2  0  0  0  0
 11  5  1  0  0  0  0
 12 10  1  0  0  0  0
 13 16  2  0  0  0  0
 13 17  1  0  0  0  0
 14  1  1  0  0  0  0
 15 14  2  0  0  0  0
 16 15  1  0  0  0  0
 17 18  2  0  0  0  0
 18 14  1  0  0  0  0
 19  1  1  0  0  0  0
 20 27  1  0  0  0  0
 21 25  1  0  0  0  0
 22 21  1  0  0  0  0
 23 26  1  0  0  0  0
 23 19  1  0  0  0  0
 24 21  2  0  0  0  0
 24 27  1  0  0  0  0
 25 26  2  0  0  0  0
 27 23  2  0  0  0  0
M  END
>  <MODEL>
4

>  <REMARK>
 VINA RESULT:      -7.4      4.814      7.669
  Name = 
  4 active torsions:
  status: ('A' for Active; 'I' for Inactive)
    1  A    between atoms: C_1  and  N_15
    2  A    between atoms: C_1  and  C_18
    3  A    between atoms: C_9  and  N_15
    4  A    between atoms: N_15  and  C_19
                            x       y       z     vdW  Elec       q    Type
                         _______ _______ _______ _____ _____    ______ ____

>  <TORSDO>
F 4

$$$$
=
 OpenBabel10262420093D

 27 30  0  0  0  0  0  0  0  0999 V2000
  182.2790  178.3600  140.2820 N   0  0  0  0  0  0  0  0  0  0  0  0
  184.0220  178.2450  142.0240 C   0  0  0  0  0  3  0  0  0  0  0  0
  183.9190  179.0370  145.6060 N   0  0  0  0  0  0  0  0  0  0  0  0
  185.5870  178.9780  147.3420 N   0  0  0  0  0  1  0  0  0  0  0  0
  181.7860  178.9560  142.6280 C   0  0  0  0  0  3  0  0  0  0  0  0
  185.7520  178.1620  143.7220 C   0  0  0  0  0  3  0  0  0  0  0  0
  186.1400  178.3460  145.0500 C   0  0  0  0  0  3  0  0  0  0  0  0
  184.4340  178.4210  143.3460 C   0  0  0  0  0  0  0  0  0  0  0  0
  185.2010  178.7880  145.9860 C   0  0  0  0  0  0  0  0  0  0  0  0
  183.5140  178.8650  144.3190 C   0  0  0  0  0  0  0  0  0  0  0  0
  182.6940  178.5050  141.6560 C   0  0  0  0  0  0  0  0  0  0  0  0
  182.1940  179.1330  143.9540 C   0  0  0  0  0  3  0  0  0  0  0  0
  179.4210  175.4030  139.1550 C   0  0  0  0  0  3  0  0  0  0  0  0
  181.3050  177.3630  139.8860 C   0  0  0  0  0  0  0  0  0  0  0  0
  179.9260  177.6320  139.9480 C   0  0  0  0  0  3  0  0  0  0  0  0
  178.9910  176.6610  139.5820 C   0  0  0  0  0  3  0  0  0  0  0  0
  180.7860  175.1170  139.0960 C   0  0  0  0  0  3  0  0  0  0  0  0
  181.7210  176.0880  139.4620 C   0  0  0  0  0  3  0  0  0  0  0  0
  182.9680  179.1360  139.2450 C   0  0  0  0  0  2  0  0  0  0  0  0
  182.1700  177.9780  136.4330 Cl  0  0  0  0  0  0  0  0  0  0  0  0
  180.1420  181.4170  136.9390 C   0  0  0  0  0  0  0  0  0  0  0  0
  178.9820  182.3530  136.0210 Cl  0  0  0  0  0  0  0  0  0  0  0  0
  181.9970  179.9170  138.4090 C   0  0  0  0  0  0  0  0  0  0  0  0
  180.6430  180.2210  136.4170 C   0  0  0  0  0  3  0  0  0  0  0  0
  180.5660  181.8640  138.1910 C   0  0  0  0  0  3  0  0  0  0  0  0
  181.4900  181.1160  138.9230 C   0  0  0  0  0  3  0  0  0  0  0  0
  181.5680  179.4670  137.1440 C   0  0  0  0  0  0  0  0  0  0  0  0
  1 11  1  0  0  0  0
  2  8  1  0  0  0  0
  3  9  1  0  0  0  0
  5 12  2  0  0  0  0
  6  7  1  0  0  0  0
  7  9  2  0  0  0  0
  8  6  2  0  0  0  0
  8 10  1  0  0  0  0
  9  4  1  0  0  0  0
 10  3  2  0  0  0  0
 11  2  2  0  0  0  0
 11  5  1  0  0  0  0
 12 10  1  0  0  0  0
 13 16  1  0  0  0  0
 14 15  1  0  0  0  0
 14  1  1  0  0  0  0
 16 15  2  0  0  0  0
 17 13  2  0  0  0  0
 17 18  1  0  0  0  0
 18 14  2  0  0  0  0
 19  1  1  0  0  0  0
 20 27  1  0  0  0  0
 21 25  1  0  0  0  0
 22 21  1  0  0  0  0
 23 26  1  0  0  0  0
 23 19  1  0  0  0  0
 24 21  2  0  0  0  0
 24 27  1  0  0  0  0
 25 26  2  0  0  0  0
 27 23  2  0  0  0  0
M  END
>  <MODEL>
5

>  <REMARK>
 VINA RESULT:      -7.3      5.223      8.304
  Name = 
  4 active torsions:
  status: ('A' for Active; 'I' for Inactive)
    1  A    between atoms: C_1  and  N_15
    2  A    between atoms: C_1  and  C_18
    3  A    between atoms: C_9  and  N_15
    4  A    between atoms: N_15  and  C_19
                            x       y       z     vdW  Elec       q    Type
                         _______ _______ _______ _____ _____    ______ ____

>  <TORSDO>
F 4

$$$$
=
 OpenBabel10262420093D

 27 30  0  0  0  0  0  0  0  0999 V2000
  188.3600  178.3830  141.0510 N   0  0  0  0  0  0  0  0  0  0  0  0
  188.7960  177.9400  143.4380 C   0  0  0  0  0  3  0  0  0  0  0  0
  191.6790  176.4240  145.1310 N   0  0  0  0  0  0  0  0  0  0  0  0
  192.1470  175.9360  147.4430 N   0  0  0  0  0  1  0  0  0  0  0  0
  190.4820  177.3600  141.7970 C   0  0  0  0  0  3  0  0  0  0  0  0
  189.2010  177.4760  145.7850 C   0  0  0  0  0  3  0  0  0  0  0  0
  190.0390  176.9750  146.7830 C   0  0  0  0  0  3  0  0  0  0  0  0
  189.6170  177.4450  144.4540 C   0  0  0  0  0  0  0  0  0  0  0  0
  191.2860  176.4490  146.4330 C   0  0  0  0  0  0  0  0  0  0  0  0
  190.8820  176.9060  144.1390 C   0  0  0  0  0  0  0  0  0  0  0  0
  189.2250  177.9070  142.1030 C   0  0  0  0  0  0  0  0  0  0  0  0
  191.3080  176.8650  142.8110 C   0  0  0  0  0  3  0  0  0  0  0  0
  189.0090  177.3680  136.9610 C   0  0  0  0  0  3  0  0  0  0  0  0
  188.5950  178.0390  139.6640 C   0  0  0  0  0  0  0  0  0  0  0  0
  189.0570  179.0000  138.7470 C   0  0  0  0  0  3  0  0  0  0  0  0
  189.2650  178.6670  137.4060 C   0  0  0  0  0  3  0  0  0  0  0  0
  188.5410  176.4050  137.8570 C   0  0  0  0  0  3  0  0  0  0  0  0
  188.3340  176.7390  139.1970 C   0  0  0  0  0  3  0  0  0  0  0  0
  187.3120  179.3560  141.3780 C   0  0  0  0  0  2  0  0  0  0  0  0
  185.5510  178.3440  143.7760 Cl  0  0  0  0  0  0  0  0  0  0  0  0
  183.3930  177.8650  140.4130 C   0  0  0  0  0  0  0  0  0  0  0  0
  181.7990  177.2740  140.0020 Cl  0  0  0  0  0  0  0  0  0  0  0  0
  185.9470  178.8140  141.0720 C   0  0  0  0  0  0  0  0  0  0  0  0
  183.8090  177.8830  141.7470 C   0  0  0  0  0  3  0  0  0  0  0  0
  184.2510  178.3190  139.4090 C   0  0  0  0  0  3  0  0  0  0  0  0
  185.5230  178.7920  139.7390 C   0  0  0  0  0  3  0  0  0  0  0  0
  185.0810  178.3550  142.0850 C   0  0  0  0  0  0  0  0  0  0  0  0
  1 19  1  0  0  0  0
  1 11  1  0  0  0  0
  2  8  1  0  0  0  0
  3  9  1  0  0  0  0
  5 11  1  0  0  0  0
  5 12  2  0  0  0  0
  6  7  1  0  0  0  0
  8  6  2  0  0  0  0
  9  7  2  0  0  0  0
  9  4  1  0  0  0  0
 10  8  1  0  0  0  0
 10  3  2  0  0  0  0
 11  2  2  0  0  0  0
 12 10  1  0  0  0  0
 13 16  2  0  0  0  0
 13 17  1  0  0  0  0
 14  1  1  0  0  0  0
 15 14  2  0  0  0  0
 16 15  1  0  0  0  0
 17 18  2  0  0  0  0
 18 14  1  0  0  0  0
 21 24  1  0  0  0  0
 22 21  1  0  0  0  0
 23 19  1  0  0  0  0
 23 27  1  0  0  0  0
 24 27  2  0  0  0  0
 25 26  1  0  0  0  0
 25 21  2  0  0  0  0
 26 23  2  0  0  0  0
 27 20  1  0  0  0  0
M  END
>  <MODEL>
6

>  <REMARK>
 VINA RESULT:      -7.2      3.330      6.477
  Name = 
  4 active torsions:
  status: ('A' for Active; 'I' for Inactive)
    1  A    between atoms: C_1  and  N_15
    2  A    between atoms: C_1  and  C_18
    3  A    between atoms: C_9  and  N_15
    4  A    between atoms: N_15  and  C_19
                            x       y       z     vdW  Elec       q    Type
                         _______ _______ _______ _____ _____    ______ ____

>  <TORSDO>
F 4

$$$$
=
 OpenBabel10262420093D

 27 30  0  0  0  0  0  0  0  0999 V2000
  189.9710  177.3630  139.0170 N   0  0  0  0  0  0  0  0  0  0  0  0
  188.7640  177.3240  141.1690 C   0  0  0  0  0  3  0  0  0  0  0  0
  189.9870  177.1850  144.6270 N   0  0  0  0  0  0  0  0  0  0  0  0
  188.8650  177.1110  146.7570 N   0  0  0  0  0  1  0  0  0  0  0  0
  191.1880  177.3030  141.1670 C   0  0  0  0  0  3  0  0  0  0  0  0
  187.5690  177.2510  143.2780 C   0  0  0  0  0  3  0  0  0  0  0  0
  187.5960  177.1970  144.6730 C   0  0  0  0  0  3  0  0  0  0  0  0
  188.7670  177.2720  142.5640 C   0  0  0  0  0  0  0  0  0  0  0  0
  188.8260  177.1650  145.3350 C   0  0  0  0  0  0  0  0  0  0  0  0
  189.9890  177.2370  143.2670 C   0  0  0  0  0  0  0  0  0  0  0  0
  189.9750  177.3470  140.4600 C   0  0  0  0  0  0  0  0  0  0  0  0
  191.1950  177.2520  142.5640 C   0  0  0  0  0  3  0  0  0  0  0  0
  192.0730  174.4000  136.7860 C   0  0  0  0  0  3  0  0  0  0  0  0
  190.6770  176.3600  138.2470 C   0  0  0  0  0  0  0  0  0  0  0  0
  190.0410  175.1710  137.8490 C   0  0  0  0  0  3  0  0  0  0  0  0
  190.7330  174.1990  137.1210 C   0  0  0  0  0  3  0  0  0  0  0  0
  192.7220  175.5710  137.1820 C   0  0  0  0  0  3  0  0  0  0  0  0
  192.0300  176.5420  137.9090 C   0  0  0  0  0  3  0  0  0  0  0  0
  189.3650  178.5020  138.3200 C   0  0  0  0  0  2  0  0  0  0  0  0
  189.4810  177.7310  135.2750 Cl  0  0  0  0  0  0  0  0  0  0  0  0
  185.6570  177.3490  136.4690 C   0  0  0  0  0  0  0  0  0  0  0  0
  184.1410  176.8710  135.7370 Cl  0  0  0  0  0  0  0  0  0  0  0  0
  188.0860  178.1120  137.6420 C   0  0  0  0  0  0  0  0  0  0  0  0
  186.8290  177.3550  135.7070 C   0  0  0  0  0  3  0  0  0  0  0  0
  185.6970  177.7240  137.8130 C   0  0  0  0  0  3  0  0  0  0  0  0
  186.9070  178.1030  138.3960 C   0  0  0  0  0  3  0  0  0  0  0  0
  188.0440  177.7340  136.2840 C   0  0  0  0  0  0  0  0  0  0  0  0
  1 11  1  0  0  0  0
  2  8  1  0  0  0  0
  3  9  1  0  0  0  0
  5 12  2  0  0  0  0
  6  7  1  0  0  0  0
  7  9  2  0  0  0  0
  8 10  1  0  0  0  0
  8  6  2  0  0  0  0
  9  4  1  0  0  0  0
 10  3  2  0  0  0  0
 11  5  1  0  0  0  0
 11  2  2  0  0  0  0
 12 10  1  0  0  0  0
 13 16  2  0  0  0  0
 13 17  1  0  0  0  0
 14  1  1  0  0  0  0
 15 14  2  0  0  0  0
 16 15  1  0  0  0  0
 17 18  2  0  0  0  0
 18 14  1  0  0  0  0
 19  1  1  0  0  0  0
 20 27  1  0  0  0  0
 21 25  1  0  0  0  0
 22 21  1  0  0  0  0
 23 19  1  0  0  0  0
 23 26  1  0  0  0  0
 24 27  1  0  0  0  0
 24 21  2  0  0  0  0
 25 26  2  0  0  0  0
 27 23  2  0  0  0  0
M  END
>  <MODEL>
7

>  <REMARK>
 VINA RESULT:      -7.2      3.360      5.406
  Name = 
  4 active torsions:
  status: ('A' for Active; 'I' for Inactive)
    1  A    between atoms: C_1  and  N_15
    2  A    between atoms: C_1  and  C_18
    3  A    between atoms: C_9  and  N_15
    4  A    between atoms: N_15  and  C_19
                            x       y       z     vdW  Elec       q    Type
                         _______ _______ _______ _____ _____    ______ ____

>  <TORSDO>
F 4

$$$$
=
 OpenBabel10262420093D

 27 30  0  0  0  0  0  0  0  0999 V2000
  188.0540  177.2840  145.2480 N   0  0  0  0  0  0  0  0  0  0  0  0
  186.2810  177.7800  143.6060 C   0  0  0  0  0  3  0  0  0  0  0  0
  182.8910  179.1180  144.0350 N   0  0  0  0  0  0  0  0  0  0  0  0
  181.1100  179.5900  142.4830 N   0  0  0  0  0  1  0  0  0  0  0  0
  185.8830  178.2290  145.9530 C   0  0  0  0  0  3  0  0  0  0  0  0
  184.5320  178.2320  141.9870 C   0  0  0  0  0  3  0  0  0  0  0  0
  183.2410  178.6840  141.7090 C   0  0  0  0  0  3  0  0  0  0  0  0
  184.9940  178.2290  143.3030 C   0  0  0  0  0  0  0  0  0  0  0  0
  182.4280  179.1280  142.7560 C   0  0  0  0  0  0  0  0  0  0  0  0
  184.1450  178.6830  144.3330 C   0  0  0  0  0  0  0  0  0  0  0  0
  186.7380  177.7830  144.9320 C   0  0  0  0  0  0  0  0  0  0  0  0
  184.5930  178.6800  145.6550 C   0  0  0  0  0  3  0  0  0  0  0  0
  191.3760  177.8450  142.6360 C   0  0  0  0  0  3  0  0  0  0  0  0
  189.1730  177.4770  144.3500 C   0  0  0  0  0  0  0  0  0  0  0  0
  189.5070  176.5060  143.3880 C   0  0  0  0  0  3  0  0  0  0  0  0
  190.5980  176.6900  142.5350 C   0  0  0  0  0  3  0  0  0  0  0  0
  191.0640  178.8150  143.5910 C   0  0  0  0  0  3  0  0  0  0  0  0
  189.9730  178.6300  144.4430 C   0  0  0  0  0  3  0  0  0  0  0  0
  188.2280  176.4360  146.4320 C   0  0  0  0  0  2  0  0  0  0  0  0
  187.9550  178.8150  148.4690 Cl  0  0  0  0  0  0  0  0  0  0  0  0
  191.7450  177.4770  148.6810 C   0  0  0  0  0  0  0  0  0  0  0  0
  193.1820  177.8780  149.5940 Cl  0  0  0  0  0  0  0  0  0  0  0  0
  189.4410  176.8340  147.2190 C   0  0  0  0  0  0  0  0  0  0  0  0
  190.5620  178.1910  148.8910 C   0  0  0  0  0  3  0  0  0  0  0  0
  191.7780  176.4450  147.7410 C   0  0  0  0  0  3  0  0  0  0  0  0
  190.6300  176.1260  147.0140 C   0  0  0  0  0  3  0  0  0  0  0  0
  189.4090  177.8770  148.1670 C   0  0  0  0  0  0  0  0  0  0  0  0
  1 19  1  0  0  0  0
  2 11  1  0  0  0  0
  3 10  1  0  0  0  0
  4  9  1  0  0  0  0
  6  8  1  0  0  0  0
  7  6  2  0  0  0  0
  7  9  1  0  0  0  0
  8  2  2  0  0  0  0
  8 10  1  0  0  0  0
  9  3  2  0  0  0  0
 10 12  2  0  0  0  0
 11  1  1  0  0  0  0
 11  5  2  0  0  0  0
 12  5  1  0  0  0  0
 13 17  1  0  0  0  0
 14 18  1  0  0  0  0
 14  1  1  0  0  0  0
 15 14  2  0  0  0  0
 16 13  2  0  0  0  0
 16 15  1  0  0  0  0
 17 18  2  0  0  0  0
 19 23  1  0  0  0  0
 21 24  1  0  0  0  0
 21 22  1  0  0  0  0
 23 27  1  0  0  0  0
 25 21  2  0  0  0  0
 26 23  2  0  0  0  0
 26 25  1  0  0  0  0
 27 20  1  0  0  0  0
 27 24  2  0  0  0  0
M  END
>  <MODEL>
8

>  <REMARK>
 VINA RESULT:      -7.1      4.030      6.264
  Name = 
  4 active torsions:
  status: ('A' for Active; 'I' for Inactive)
    1  A    between atoms: C_1  and  N_15
    2  A    between atoms: C_1  and  C_18
    3  A    between atoms: C_9  and  N_15
    4  A    between atoms: N_15  and  C_19
                            x       y       z     vdW  Elec       q    Type
                         _______ _______ _______ _____ _____    ______ ____

>  <TORSDO>
F 4

$$$$
=
 OpenBabel10262420093D

 27 30  0  0  0  0  0  0  0  0999 V2000
  182.6690  178.2730  140.0160 N   0  0  0  0  0  0  0  0  0  0  0  0
  184.2580  178.2320  141.9020 C   0  0  0  0  0  3  0  0  0  0  0  0
  183.8060  178.9920  145.4640 N   0  0  0  0  0  0  0  0  0  0  0  0
  185.3180  179.0040  147.3390 N   0  0  0  0  0  1  0  0  0  0  0  0
  181.9450  178.8270  142.3120 C   0  0  0  0  0  3  0  0  0  0  0  0
  185.8370  178.2230  143.7440 C   0  0  0  0  0  3  0  0  0  0  0  0
  186.0990  178.4170  145.1020 C   0  0  0  0  0  3  0  0  0  0  0  0
  184.5450  178.4190  143.2560 C   0  0  0  0  0  0  0  0  0  0  0  0
  185.0610  178.8040  145.9540 C   0  0  0  0  0  0  0  0  0  0  0  0
  183.5230  178.8100  144.1460 C   0  0  0  0  0  0  0  0  0  0  0  0
  182.9550  178.4290  141.4210 C   0  0  0  0  0  0  0  0  0  0  0  0
  182.2270  179.0140  143.6690 C   0  0  0  0  0  3  0  0  0  0  0  0
  180.6830  181.3020  137.7680 C   0  0  0  0  0  3  0  0  0  0  0  0
  181.9840  179.3030  139.2640 C   0  0  0  0  0  0  0  0  0  0  0  0
  180.7330  179.0580  138.6700 C   0  0  0  0  0  3  0  0  0  0  0  0
  180.0850  180.0510  137.9310 C   0  0  0  0  0  3  0  0  0  0  0  0
  181.9290  181.5590  138.3420 C   0  0  0  0  0  3  0  0  0  0  0  0
  182.5760  180.5660  139.0810 C   0  0  0  0  0  3  0  0  0  0  0  0
  182.9430  176.9830  139.3730 C   0  0  0  0  0  2  0  0  0  0  0  0
  182.0390  175.8690  136.5760 Cl  0  0  0  0  0  0  0  0  0  0  0  0
  185.6820  177.5110  136.0970 C   0  0  0  0  0  0  0  0  0  0  0  0
  186.8040  177.7460  134.7760 Cl  0  0  0  0  0  0  0  0  0  0  0  0
  183.8830  177.1360  138.2150 C   0  0  0  0  0  0  0  0  0  0  0  0
  184.4580  176.8740  135.8710 C   0  0  0  0  0  3  0  0  0  0  0  0
  186.0070  177.9590  137.3790 C   0  0  0  0  0  3  0  0  0  0  0  0
  185.1100  177.7720  138.4320 C   0  0  0  0  0  3  0  0  0  0  0  0
  183.5560  176.6840  136.9200 C   0  0  0  0  0  0  0  0  0  0  0  0
  1 11  1  0  0  0  0
  2  8  1  0  0  0  0
  3  9  1  0  0  0  0
  5 12  2  0  0  0  0
  6  7  1  0  0  0  0
  7  9  2  0  0  0  0
  8  6  2  0  0  0  0
  8 10  1  0  0  0  0
  9  4  1  0  0  0  0
 10  3  2  0  0  0  0
 11  2  2  0  0  0  0
 11  5  1  0  0  0  0
 12 10  1  0  0  0  0
 13 16  2  0  0  0  0
 13 17  1  0  0  0  0
 14  1  1  0  0  0  0
 15 14  2  0  0  0  0
 16 15  1  0  0  0  0
 17 18  2  0  0  0  0
 18 14  1  0  0  0  0
 19  1  1  0  0  0  0
 20 27  1  0  0  0  0
 21 25  1  0  0  0  0
 22 21  1  0  0  0  0
 23 26  1  0  0  0  0
 23 19  1  0  0  0  0
 24 21  2  0  0  0  0
 24 27  1  0  0  0  0
 25 26  2  0  0  0  0
 27 23  2  0  0  0  0
M  END
>  <MODEL>
9

>  <REMARK>
 VINA RESULT:      -7.1      4.025      6.900
  Name = 
  4 active torsions:
  status: ('A' for Active; 'I' for Inactive)
    1  A    between atoms: C_1  and  N_15
    2  A    between atoms: C_1  and  C_18
    3  A    between atoms: C_9  and  N_15
    4  A    between atoms: N_15  and  C_19
                            x       y       z     vdW  Elec       q    Type
                         _______ _______ _______ _____ _____    ______ ____

>  <TORSDO>
F 4

$$$$
