=
 OpenBabel10262420553D

 28 32  0  0  1  0  0  0  0  0999 V2000
  190.0630  177.0510  143.8320 C   0  0  0  0  0  0  0  0  0  0  0  0
  185.0580  178.3640  142.9490 C   0  0  0  0  0  3  0  0  0  0  0  0
  188.2500  177.7460  148.4030 C   0  0  0  0  0  1  0  0  0  0  0  0
  184.2510  178.6840  145.2170 C   0  0  0  0  0  0  0  0  0  0  0  0
  186.6150  178.0310  144.9070 C   0  0  0  0  0  0  0  0  0  0  0  0
  182.7550  179.0030  143.3400 C   0  0  0  0  0  0  0  0  0  0  0  0
  185.2950  178.3620  144.3330 C   0  0  0  0  0  0  0  0  0  0  0  0
  185.7310  178.3710  147.1510 C   0  0  0  0  0  3  0  0  0  0  0  0
  182.9850  179.0030  144.7180 C   0  0  0  0  0  3  0  0  0  0  0  0
  189.1650  177.3950  146.0840 C   0  0  0  0  0  0  0  0  0  0  0  0
  187.6530  177.7160  144.1280 C   0  0  0  0  0  3  0  0  0  0  0  0
  184.4790  178.6840  146.5990 O   0  0  0  0  0  0  0  0  0  0  0  0
  191.4880  176.7530  145.7730 C   0  0  0  0  0  3  0  0  0  0  0  0
  188.0640  177.7310  146.9530 N   0  0  0  0  0  0  0  0  0  0  0  0
  190.4250  177.0780  146.6150 C   0  0  0  0  0  3  0  0  0  0  0  0
  181.5270  179.3130  142.8600 F   0  0  0  0  0  0  0  0  0  0  0  0
  183.7900  178.6850  142.4560 C   0  0  0  0  0  3  0  0  0  0  0  0
  186.7810  178.0520  146.3790 C   0  0  0  0  0  0  0  0  0  0  0  0
  191.3060  176.7400  144.3910 C   0  0  0  0  0  3  0  0  0  0  0  0
  188.9810  177.3820  144.6830 C   0  0  0  0  0  0  0  0  0  0  0  0
  189.9540  177.0140  142.3330 C   0  0  1  0  0  3  0  0  0  0  0  0
  188.9890  178.0850  141.8120 C   0  0  0  0  0  2  0  0  0  0  0  0
  190.0670  177.5710  139.5340 C   0  0  0  0  0  0  0  0  0  0  0  0
  191.3270  177.1270  141.6650 C   0  0  0  0  0  2  0  0  0  0  0  0
  187.9230  178.5660  139.7310 O   0  0  0  0  0  0  0  0  0  0  0  0
  188.9310  178.0870  140.3130 C   0  0  0  0  0  0  0  0  0  0  0  0
  190.0400  177.5840  138.2750 O   0  0  0  0  0  0  0  0  0  0  0  0
  191.1930  177.0150  140.2160 N   0  0  0  0  0  2  0  0  0  0  0  0
  1 19  2  0  0  0  0
  1 20  1  0  0  0  0
  2  7  1  0  0  0  0
  4 12  1  0  0  0  0
  5 18  1  0  0  0  0
  6  9  2  0  0  0  0
  7  5  1  0  0  0  0
  7  4  2  0  0  0  0
  9  4  1  0  0  0  0
 10 15  1  0  0  0  0
 10 14  1  0  0  0  0
 11 20  1  0  0  0  0
 11  5  2  0  0  0  0
 12  8  1  0  0  0  0
 13 15  2  0  0  0  0
 14  3  1  0  0  0  0
 16  6  1  0  0  0  0
 17  2  2  0  0  0  0
 17  6  1  0  0  0  0
 18 14  1  0  0  0  0
 18  8  2  0  0  0  0
 19 13  1  0  0  0  0
 20 10  2  0  0  0  0
 21  1  1  1  0  0  0
 22 21  1  0  0  0  0
 23 28  1  0  0  0  0
 23 26  1  0  0  0  0
 24 21  1  0  0  0  0
 25 26  2  0  0  0  0
 26 22  1  0  0  0  0
 27 23  2  0  0  0  0
 28 24  1  0  0  0  0
M  END
>  <MODEL>
1

>  <REMARK>
 VINA RESULT:     -12.9      0.000      0.000
  Name = 
  1 active torsions:
  status: ('A' for Active; 'I' for Inactive)
    1  A    between atoms: C_1  and  C_2
                            x       y       z     vdW  Elec       q    Type
                         _______ _______ _______ _____ _____    ______ ____

>  <TORSDO>
F 1

$$$$
=
 OpenBabel10262420553D

 28 32  0  0  1  0  0  0  0  0999 V2000
  189.3150  177.1020  143.3030 C   0  0  0  0  0  0  0  0  0  0  0  0
  184.3180  178.2720  142.2050 C   0  0  0  0  0  3  0  0  0  0  0  0
  187.3910  178.1530  147.7600 C   0  0  0  0  0  1  0  0  0  0  0  0
  183.4560  178.7700  144.4200 C   0  0  0  0  0  0  0  0  0  0  0  0
  185.8330  178.1240  144.2170 C   0  0  0  0  0  0  0  0  0  0  0  0
  181.9990  178.9120  142.4910 C   0  0  0  0  0  0  0  0  0  0  0  0
  184.5230  178.3890  143.5890 C   0  0  0  0  0  0  0  0  0  0  0  0
  184.8950  178.6380  146.4050 C   0  0  0  0  0  3  0  0  0  0  0  0
  182.1980  179.0300  143.8690 C   0  0  0  0  0  3  0  0  0  0  0  0
  188.3630  177.6210  145.4980 C   0  0  0  0  0  0  0  0  0  0  0  0
  186.8920  177.7590  143.4900 C   0  0  0  0  0  3  0  0  0  0  0  0
  183.6520  178.8880  145.8020 O   0  0  0  0  0  0  0  0  0  0  0  0
  190.6990  176.9850  145.2930 C   0  0  0  0  0  3  0  0  0  0  0  0
  187.2380  178.0150  146.3120 N   0  0  0  0  0  0  0  0  0  0  0  0
  189.6130  177.3650  146.0810 C   0  0  0  0  0  3  0  0  0  0  0  0
  180.7790  179.1660  141.9600 F   0  0  0  0  0  0  0  0  0  0  0  0
  183.0580  178.5350  141.6600 C   0  0  0  0  0  3  0  0  0  0  0  0
  185.9650  178.2700  145.6860 C   0  0  0  0  0  0  0  0  0  0  0  0
  190.5490  176.8550  143.9130 C   0  0  0  0  0  3  0  0  0  0  0  0
  188.2110  177.4890  144.1000 C   0  0  0  0  0  0  0  0  0  0  0  0
  189.2410  176.9390  141.8110 C   0  0  1  0  0  3  0  0  0  0  0  0
  188.6680  178.1900  141.1350 C   0  0  0  0  0  2  0  0  0  0  0  0
  189.5960  177.1300  138.9830 C   0  0  0  0  0  0  0  0  0  0  0  0
  190.5990  176.5560  141.2170 C   0  0  0  0  0  2  0  0  0  0  0  0
  187.8590  178.7460  138.9590 O   0  0  0  0  0  0  0  0  0  0  0  0
  188.6530  178.0480  139.6420 C   0  0  0  0  0  0  0  0  0  0  0  0
  189.6080  177.0150  137.7290 O   0  0  0  0  0  0  0  0  0  0  0  0
  190.4760  176.3350  139.7800 N   0  0  0  0  0  2  0  0  0  0  0  0
  1 19  2  0  0  0  0
  1 20  1  0  0  0  0
  2  7  1  0  0  0  0
  4 12  1  0  0  0  0
  5 18  1  0  0  0  0
  6  9  2  0  0  0  0
  7  5  1  0  0  0  0
  7  4  2  0  0  0  0
  9  4  1  0  0  0  0
 10 15  1  0  0  0  0
 10 14  1  0  0  0  0
 11 20  1  0  0  0  0
 11  5  2  0  0  0  0
 12  8  1  0  0  0  0
 13 15  2  0  0  0  0
 14  3  1  0  0  0  0
 16  6  1  0  0  0  0
 17  2  2  0  0  0  0
 17  6  1  0  0  0  0
 18 14  1  0  0  0  0
 18  8  2  0  0  0  0
 19 13  1  0  0  0  0
 20 10  2  0  0  0  0
 21  1  1  1  0  0  0
 22 21  1  0  0  0  0
 23 26  1  0  0  0  0
 23 28  1  0  0  0  0
 24 21  1  0  0  0  0
 25 26  2  0  0  0  0
 26 22  1  0  0  0  0
 27 23  2  0  0  0  0
 28 24  1  0  0  0  0
M  END
>  <MODEL>
2

>  <REMARK>
 VINA RESULT:     -12.5      0.917      1.019
  Name = 
  1 active torsions:
  status: ('A' for Active; 'I' for Inactive)
    1  A    between atoms: C_1  and  C_2
                            x       y       z     vdW  Elec       q    Type
                         _______ _______ _______ _____ _____    ______ ____

>  <TORSDO>
F 1

$$$$
=
 OpenBabel10262420553D

 28 32  0  0  1  0  0  0  0  0999 V2000
  187.0400  178.1620  146.1140 C   0  0  0  0  0  0  0  0  0  0  0  0
  188.5110  178.0750  141.0760 C   0  0  0  0  0  3  0  0  0  0  0  0
  191.7150  176.4990  146.3260 C   0  0  0  0  0  1  0  0  0  0  0  0
  190.7900  177.2570  141.2670 C   0  0  0  0  0  0  0  0  0  0  0  0
  189.4790  177.5400  143.3440 C   0  0  0  0  0  0  0  0  0  0  0  0
  189.8630  177.7700  139.0890 C   0  0  0  0  0  0  0  0  0  0  0  0
  189.5780  177.6320  141.8730 C   0  0  0  0  0  0  0  0  0  0  0  0
  191.7720  176.7250  143.4540 C   0  0  0  0  0  3  0  0  0  0  0  0
  190.9280  177.3270  139.8790 C   0  0  0  0  0  3  0  0  0  0  0  0
  189.3450  177.3420  146.2140 C   0  0  0  0  0  0  0  0  0  0  0  0
  188.3590  177.8790  143.9880 C   0  0  0  0  0  3  0  0  0  0  0  0
  191.8590  176.8130  142.0560 O   0  0  0  0  0  0  0  0  0  0  0  0
  188.0530  177.6240  148.2520 C   0  0  0  0  0  3  0  0  0  0  0  0
  190.5700  176.9690  145.5480 N   0  0  0  0  0  0  0  0  0  0  0  0
  189.2370  177.2620  147.6100 C   0  0  0  0  0  3  0  0  0  0  0  0
  190.0000  177.8360  137.7440 F   0  0  0  0  0  0  0  0  0  0  0  0
  188.6560  178.1420  139.6870 C   0  0  0  0  0  3  0  0  0  0  0  0
  190.6520  177.0620  144.1120 C   0  0  0  0  0  0  0  0  0  0  0  0
  186.9630  178.0710  147.5070 C   0  0  0  0  0  3  0  0  0  0  0  0
  188.2410  177.7950  145.4590 C   0  0  0  0  0  0  0  0  0  0  0  0
  185.8190  178.6530  145.3880 C   0  0  1  0  0  3  0  0  0  0  0  0
  185.6350  177.9340  144.0460 C   0  0  0  0  0  2  0  0  0  0  0  0
  183.2660  178.9320  144.1380 C   0  0  0  0  0  0  0  0  0  0  0  0
  184.5640  178.5440  146.2570 C   0  0  0  0  0  2  0  0  0  0  0  0
  184.2790  178.2450  142.1060 O   0  0  0  0  0  0  0  0  0  0  0  0
  184.3820  178.3810  143.3540 C   0  0  0  0  0  0  0  0  0  0  0  0
  182.2000  179.2940  143.5720 O   0  0  0  0  0  0  0  0  0  0  0  0
  183.4120  179.0940  145.5500 N   0  0  0  0  0  2  0  0  0  0  0  0
  1 19  1  0  0  0  0
  2  7  1  0  0  0  0
  4  7  2  0  0  0  0
  4 12  1  0  0  0  0
  5 11  2  0  0  0  0
  5 18  1  0  0  0  0
  6 17  1  0  0  0  0
  6  9  2  0  0  0  0
  7  5  1  0  0  0  0
  8 18  2  0  0  0  0
  9  4  1  0  0  0  0
 10 15  2  0  0  0  0
 11 20  1  0  0  0  0
 12  8  1  0  0  0  0
 14 10  1  0  0  0  0
 14  3  1  0  0  0  0
 15 13  1  0  0  0  0
 16  6  1  0  0  0  0
 17  2  2  0  0  0  0
 18 14  1  0  0  0  0
 19 13  2  0  0  0  0
 20  1  2  0  0  0  0
 20 10  1  0  0  0  0
 21  1  1  1  0  0  0
 21 24  1  0  0  0  0
 22 21  1  0  0  0  0
 23 28  1  0  0  0  0
 25 26  2  0  0  0  0
 26 22  1  0  0  0  0
 26 23  1  0  0  0  0
 27 23  2  0  0  0  0
 28 24  1  0  0  0  0
M  END
>  <MODEL>
3

>  <REMARK>
 VINA RESULT:     -12.4      2.704      6.180
  Name = 
  1 active torsions:
  status: ('A' for Active; 'I' for Inactive)
    1  A    between atoms: C_1  and  C_2
                            x       y       z     vdW  Elec       q    Type
                         _______ _______ _______ _____ _____    ______ ____

>  <TORSDO>
F 1

$$$$
=
 OpenBabel10262420553D

 28 32  0  0  1  0  0  0  0  0999 V2000
  187.1710  177.6610  145.6250 C   0  0  0  0  0  0  0  0  0  0  0  0
  189.2570  177.4430  140.8130 C   0  0  0  0  0  3  0  0  0  0  0  0
  183.4910  179.2950  142.7190 C   0  0  0  0  0  1  0  0  0  0  0  0
  187.4070  178.2530  139.4640 C   0  0  0  0  0  0  0  0  0  0  0  0
  187.0820  178.1010  141.9090 C   0  0  0  0  0  0  0  0  0  0  0  0
  189.4940  177.6220  138.4090 C   0  0  0  0  0  0  0  0  0  0  0  0
  187.9410  177.9240  140.7210 C   0  0  0  0  0  0  0  0  0  0  0  0
  185.2730  178.9030  140.4890 C   0  0  0  0  0  3  0  0  0  0  0  0
  188.1840  178.1010  138.3120 C   0  0  0  0  0  3  0  0  0  0  0  0
  185.3600  178.4660  144.1880 C   0  0  0  0  0  0  0  0  0  0  0  0
  187.5220  177.8090  143.1360 C   0  0  0  0  0  3  0  0  0  0  0  0
  186.0950  178.7330  139.3640 O   0  0  0  0  0  0  0  0  0  0  0  0
  185.0450  178.3140  146.5930 C   0  0  0  0  0  3  0  0  0  0  0  0
  184.8540  178.7900  142.8770 N   0  0  0  0  0  0  0  0  0  0  0  0
  184.5540  178.6280  145.3260 C   0  0  0  0  0  3  0  0  0  0  0  0
  190.2450  177.4770  137.2910 F   0  0  0  0  0  0  0  0  0  0  0  0
  190.0300  177.2950  139.6570 C   0  0  0  0  0  3  0  0  0  0  0  0
  185.7030  178.6130  141.7260 C   0  0  0  0  0  0  0  0  0  0  0  0
  186.3450  177.8330  146.7390 C   0  0  0  0  0  3  0  0  0  0  0  0
  186.6770  177.9790  144.3370 C   0  0  0  0  0  0  0  0  0  0  0  0
  188.5590  177.1390  145.8720 C   0  0  1  0  0  3  0  0  0  0  0  0
  189.6160  177.9890  145.1590 C   0  0  0  0  0  2  0  0  0  0  0  0
  191.2670  176.7530  146.6950 C   0  0  0  0  0  0  0  0  0  0  0  0
  188.8580  177.0150  147.3680 C   0  0  0  0  0  2  0  0  0  0  0  0
  191.9420  177.7760  144.6650 O   0  0  0  0  0  0  0  0  0  0  0  0
  191.0040  177.5040  145.4580 C   0  0  0  0  0  0  0  0  0  0  0  0
  192.4300  176.3550  146.9690 O   0  0  0  0  0  0  0  0  0  0  0  0
  190.1830  176.4390  147.5720 N   0  0  0  0  0  2  0  0  0  0  0  0
  1 19  1  0  0  0  0
  3 14  1  0  0  0  0
  4  7  2  0  0  0  0
  5 11  2  0  0  0  0
  6 17  1  0  0  0  0
  7  2  1  0  0  0  0
  7  5  1  0  0  0  0
  8 18  2  0  0  0  0
  9  6  2  0  0  0  0
  9  4  1  0  0  0  0
 10 20  1  0  0  0  0
 10 15  2  0  0  0  0
 11 20  1  0  0  0  0
 12  4  1  0  0  0  0
 12  8  1  0  0  0  0
 13 19  2  0  0  0  0
 14 10  1  0  0  0  0
 15 13  1  0  0  0  0
 16  6  1  0  0  0  0
 17  2  2  0  0  0  0
 18  5  1  0  0  0  0
 18 14  1  0  0  0  0
 20  1  2  0  0  0  0
 21  1  1  1  0  0  0
 21 24  1  0  0  0  0
 22 26  1  0  0  0  0
 22 21  1  0  0  0  0
 23 27  2  0  0  0  0
 23 28  1  0  0  0  0
 24 28  1  0  0  0  0
 25 26  2  0  0  0  0
 26 23  1  0  0  0  0
M  END
>  <MODEL>
4

>  <REMARK>
 VINA RESULT:     -11.8      3.221      6.224
  Name = 
  1 active torsions:
  status: ('A' for Active; 'I' for Inactive)
    1  A    between atoms: C_1  and  C_2
                            x       y       z     vdW  Elec       q    Type
                         _______ _______ _______ _____ _____    ______ ____

>  <TORSDO>
F 1

$$$$
=
 OpenBabel10262420553D

 28 32  0  0  1  0  0  0  0  0999 V2000
  185.3090  178.2800  144.2010 C   0  0  0  0  0  0  0  0  0  0  0  0
  189.4310  177.5240  141.0400 C   0  0  0  0  0  3  0  0  0  0  0  0
  189.1020  177.8160  147.3740 C   0  0  0  0  0  1  0  0  0  0  0  0
  191.2290  177.3080  142.6580 C   0  0  0  0  0  0  0  0  0  0  0  0
  188.9400  177.6930  143.5090 C   0  0  0  0  0  0  0  0  0  0  0  0
  191.7030  177.1460  140.2890 C   0  0  0  0  0  0  0  0  0  0  0  0
  189.8670  177.5080  142.3740 C   0  0  0  0  0  0  0  0  0  0  0  0
  190.7960  177.4660  145.0700 C   0  0  0  0  0  3  0  0  0  0  0  0
  192.1410  177.1280  141.6160 C   0  0  0  0  0  3  0  0  0  0  0  0
  187.1820  178.0500  145.7610 C   0  0  0  0  0  0  0  0  0  0  0  0
  187.6330  177.8870  143.3150 C   0  0  0  0  0  3  0  0  0  0  0  0
  191.6710  177.2900  143.9870 O   0  0  0  0  0  0  0  0  0  0  0  0
  184.9300  178.4300  146.5930 C   0  0  0  0  0  3  0  0  0  0  0  0
  188.5880  177.8430  146.0050 N   0  0  0  0  0  0  0  0  0  0  0  0
  186.2890  178.2300  146.8300 C   0  0  0  0  0  3  0  0  0  0  0  0
  192.5890  176.9700  139.2800 F   0  0  0  0  0  0  0  0  0  0  0  0
  190.3490  177.3430  140.0010 C   0  0  0  0  0  3  0  0  0  0  0  0
  189.4820  177.6630  144.8880 C   0  0  0  0  0  0  0  0  0  0  0  0
  184.4450  178.4550  145.2860 C   0  0  0  0  0  3  0  0  0  0  0  0
  186.6900  178.0760  144.4370 C   0  0  0  0  0  0  0  0  0  0  0  0
  184.7030  178.3210  142.8260 C   0  0  1  0  0  3  0  0  0  0  0  0
  183.1850  178.5250  142.8850 C   0  0  0  0  0  2  0  0  0  0  0  0
  183.4260  179.0720  140.3840 C   0  0  0  0  0  0  0  0  0  0  0  0
  185.3740  179.3770  141.9450 C   0  0  0  0  0  2  0  0  0  0  0  0
  181.3720  178.3700  141.3390 O   0  0  0  0  0  0  0  0  0  0  0  0
  182.5920  178.6280  141.5110 C   0  0  0  0  0  0  0  0  0  0  0  0
  182.9370  179.1820  139.2280 O   0  0  0  0  0  0  0  0  0  0  0  0
  184.8130  179.3410  140.5980 N   0  0  0  0  0  2  0  0  0  0  0  0
  1 20  2  0  0  0  0
  1 19  1  0  0  0  0
  2  7  1  0  0  0  0
  4 12  1  0  0  0  0
  5 18  1  0  0  0  0
  6  9  2  0  0  0  0
  7  4  2  0  0  0  0
  7  5  1  0  0  0  0
  9  4  1  0  0  0  0
 10 14  1  0  0  0  0
 10 15  2  0  0  0  0
 11  5  2  0  0  0  0
 11 20  1  0  0  0  0
 12  8  1  0  0  0  0
 13 15  1  0  0  0  0
 14  3  1  0  0  0  0
 16  6  1  0  0  0  0
 17  6  1  0  0  0  0
 17  2  2  0  0  0  0
 18  8  2  0  0  0  0
 18 14  1  0  0  0  0
 19 13  2  0  0  0  0
 20 10  1  0  0  0  0
 21 22  1  0  0  0  0
 21  1  1  1  0  0  0
 23 28  1  0  0  0  0
 23 26  1  0  0  0  0
 24 21  1  0  0  0  0
 25 26  2  0  0  0  0
 26 22  1  0  0  0  0
 27 23  2  0  0  0  0
 28 24  1  0  0  0  0
M  END
>  <MODEL>
5

>  <REMARK>
 VINA RESULT:     -11.4      3.316      6.238
  Name = 
  1 active torsions:
  status: ('A' for Active; 'I' for Inactive)
    1  A    between atoms: C_1  and  C_2
                            x       y       z     vdW  Elec       q    Type
                         _______ _______ _______ _____ _____    ______ ____

>  <TORSDO>
F 1

$$$$
=
 OpenBabel10262420553D

 28 32  0  0  1  0  0  0  0  0999 V2000
  186.5780  178.5650  141.8900 C   0  0  0  0  0  0  0  0  0  0  0  0
  190.5890  176.9330  144.8570 C   0  0  0  0  0  3  0  0  0  0  0  0
  184.6040  178.3410  146.4420 C   0  0  0  0  0  1  0  0  0  0  0  0
  189.5470  176.8500  147.0490 C   0  0  0  0  0  0  0  0  0  0  0  0
  188.1620  177.5660  145.1310 C   0  0  0  0  0  0  0  0  0  0  0  0
  191.8760  176.2420  146.7890 C   0  0  0  0  0  0  0  0  0  0  0  0
  189.4590  177.1110  145.6710 C   0  0  0  0  0  0  0  0  0  0  0  0
  187.1880  177.4590  147.3610 C   0  0  0  0  0  3  0  0  0  0  0  0
  190.7540  176.4170  147.6030 C   0  0  0  0  0  3  0  0  0  0  0  0
  185.6090  178.4530  144.1360 C   0  0  0  0  0  0  0  0  0  0  0  0
  188.0040  177.8330  143.8310 C   0  0  0  0  0  3  0  0  0  0  0  0
  188.4240  177.0250  147.8670 O   0  0  0  0  0  0  0  0  0  0  0  0
  184.2520  179.1570  142.2470 C   0  0  0  0  0  3  0  0  0  0  0  0
  185.7460  178.1740  145.5450 N   0  0  0  0  0  0  0  0  0  0  0  0
  184.3830  178.8880  143.6090 C   0  0  0  0  0  3  0  0  0  0  0  0
  193.0450  175.8210  147.3290 F   0  0  0  0  0  0  0  0  0  0  0  0
  191.7940  176.4990  145.4170 C   0  0  0  0  0  3  0  0  0  0  0  0
  187.0180  177.7290  146.0580 C   0  0  0  0  0  0  0  0  0  0  0  0
  185.3440  178.9970  141.3950 C   0  0  0  0  0  3  0  0  0  0  0  0
  186.7150  178.2900  143.2720 C   0  0  0  0  0  0  0  0  0  0  0  0
  187.7020  178.4180  140.9030 C   0  0  1  0  0  3  0  0  0  0  0  0
  188.5520  177.1780  141.1990 C   0  0  0  0  0  2  0  0  0  0  0  0
  189.4720  177.5680  138.8290 C   0  0  0  0  0  0  0  0  0  0  0  0
  187.1890  178.4130  139.4610 C   0  0  0  0  0  2  0  0  0  0  0  0
  190.6590  176.3280  140.4650 O   0  0  0  0  0  0  0  0  0  0  0  0
  189.6340  176.9990  140.1750 C   0  0  0  0  0  0  0  0  0  0  0  0
  190.3640  177.4090  137.9530 O   0  0  0  0  0  0  0  0  0  0  0  0
  188.3090  178.3410  138.5280 N   0  0  0  0  0  2  0  0  0  0  0  0
  1 20  1  0  0  0  0
  2 17  2  0  0  0  0
  2  7  1  0  0  0  0
  4  9  1  0  0  0  0
  4 12  1  0  0  0  0
  5  7  1  0  0  0  0
  5 18  1  0  0  0  0
  6 16  1  0  0  0  0
  6  9  2  0  0  0  0
  7  4  2  0  0  0  0
  8 12  1  0  0  0  0
 10 14  1  0  0  0  0
 11  5  2  0  0  0  0
 13 15  2  0  0  0  0
 14 18  1  0  0  0  0
 14  3  1  0  0  0  0
 15 10  1  0  0  0  0
 17  6  1  0  0  0  0
 18  8  2  0  0  0  0
 19  1  2  0  0  0  0
 19 13  1  0  0  0  0
 20 11  1  0  0  0  0
 20 10  2  0  0  0  0
 21 22  1  0  0  0  0
 21  1  1  1  0  0  0
 23 26  1  0  0  0  0
 24 21  1  0  0  0  0
 26 25  2  0  0  0  0
 26 22  1  0  0  0  0
 27 23  2  0  0  0  0
 28 23  1  0  0  0  0
 28 24  1  0  0  0  0
M  END
>  <MODEL>
6

>  <REMARK>
 VINA RESULT:     -11.2      2.979      5.474
  Name = 
  1 active torsions:
  status: ('A' for Active; 'I' for Inactive)
    1  A    between atoms: C_1  and  C_2
                            x       y       z     vdW  Elec       q    Type
                         _______ _______ _______ _____ _____    ______ ____

>  <TORSDO>
F 1

$$$$
=
 OpenBabel10262420553D

 28 32  0  0  1  0  0  0  0  0999 V2000
  185.6560  178.4860  144.7280 C   0  0  0  0  0  0  0  0  0  0  0  0
  188.9050  177.8910  140.6490 C   0  0  0  0  0  3  0  0  0  0  0  0
  182.6700  179.0770  140.8040 C   0  0  0  0  0  1  0  0  0  0  0  0
  187.3780  178.1930  138.7850 C   0  0  0  0  0  0  0  0  0  0  0  0
  186.4620  178.3540  141.0760 C   0  0  0  0  0  0  0  0  0  0  0  0
  189.7220  177.7490  138.3730 C   0  0  0  0  0  0  0  0  0  0  0  0
  187.6090  178.1410  140.1700 C   0  0  0  0  0  0  0  0  0  0  0  0
  184.9930  178.6450  139.1550 C   0  0  0  0  0  3  0  0  0  0  0  0
  188.4340  177.9970  137.8920 C   0  0  0  0  0  3  0  0  0  0  0  0
  184.1880  178.7770  142.7910 C   0  0  0  0  0  0  0  0  0  0  0  0
  186.6080  178.3190  142.4030 C   0  0  0  0  0  3  0  0  0  0  0  0
  186.0870  178.4410  138.3010 O   0  0  0  0  0  0  0  0  0  0  0  0
  183.2920  178.9330  145.0450 C   0  0  0  0  0  3  0  0  0  0  0  0
  183.9970  178.8210  141.3610 N   0  0  0  0  0  0  0  0  0  0  0  0
  183.1070  178.9770  143.6630 C   0  0  0  0  0  3  0  0  0  0  0  0
  190.7440  177.5600  137.5040 F   0  0  0  0  0  0  0  0  0  0  0  0
  189.9580  177.6970  139.7500 C   0  0  0  0  0  3  0  0  0  0  0  0
  185.1260  178.6110  140.4890 C   0  0  0  0  0  0  0  0  0  0  0  0
  184.5600  178.6890  145.5710 C   0  0  0  0  0  3  0  0  0  0  0  0
  185.4720  178.5300  143.3250 C   0  0  0  0  0  0  0  0  0  0  0  0
  186.9870  178.2300  145.3790 C   0  0  1  0  0  3  0  0  0  0  0  0
  186.8470  178.0580  146.8960 C   0  0  0  0  0  2  0  0  0  0  0  0
  189.2320  177.1080  146.7420 C   0  0  0  0  0  0  0  0  0  0  0  0
  187.7040  177.0350  144.7460 C   0  0  0  0  0  2  0  0  0  0  0  0
  188.3400  177.9820  148.7580 O   0  0  0  0  0  0  0  0  0  0  0  0
  188.1670  177.7400  147.5350 C   0  0  0  0  0  0  0  0  0  0  0  0
  190.3390  176.8170  147.2700 O   0  0  0  0  0  0  0  0  0  0  0  0
  189.0200  176.8590  145.3510 N   0  0  0  0  0  2  0  0  0  0  0  0
  1 19  1  0  0  0  0
  3 14  1  0  0  0  0
  4  7  2  0  0  0  0
  5 11  2  0  0  0  0
  6 17  1  0  0  0  0
  7  2  1  0  0  0  0
  7  5  1  0  0  0  0
  8 18  2  0  0  0  0
  9  6  2  0  0  0  0
  9  4  1  0  0  0  0
 10 20  1  0  0  0  0
 10 15  2  0  0  0  0
 11 20  1  0  0  0  0
 12  4  1  0  0  0  0
 12  8  1  0  0  0  0
 13 19  2  0  0  0  0
 14 10  1  0  0  0  0
 15 13  1  0  0  0  0
 16  6  1  0  0  0  0
 17  2  2  0  0  0  0
 18  5  1  0  0  0  0
 18 14  1  0  0  0  0
 20  1  2  0  0  0  0
 21  1  1  6  0  0  0
 21 22  1  0  0  0  0
 22 26  1  0  0  0  0
 23 27  2  0  0  0  0
 23 26  1  0  0  0  0
 24 28  1  0  0  0  0
 24 21  1  0  0  0  0
 26 25  2  0  0  0  0
 28 23  1  0  0  0  0
M  END
>  <MODEL>
7

>  <REMARK>
 VINA RESULT:     -11.1      3.175      7.019
  Name = 
  1 active torsions:
  status: ('A' for Active; 'I' for Inactive)
    1  A    between atoms: C_1  and  C_2
                            x       y       z     vdW  Elec       q    Type
                         _______ _______ _______ _____ _____    ______ ____

>  <TORSDO>
F 1

$$$$
=
 OpenBabel10262420553D

 28 32  0  0  1  0  0  0  0  0999 V2000
  185.0940  178.5520  144.5500 C   0  0  0  0  0  0  0  0  0  0  0  0
  188.0600  177.9740  140.2570 C   0  0  0  0  0  3  0  0  0  0  0  0
  189.5100  177.2210  146.3930 C   0  0  0  0  0  1  0  0  0  0  0  0
  190.1850  177.3280  141.2400 C   0  0  0  0  0  0  0  0  0  0  0  0
  188.2880  177.7680  142.7610 C   0  0  0  0  0  0  0  0  0  0  0  0
  189.9690  177.5260  138.8360 C   0  0  0  0  0  0  0  0  0  0  0  0
  188.8360  177.6940  141.3930 C   0  0  0  0  0  0  0  0  0  0  0  0
  190.4510  177.1150  143.6710 C   0  0  0  0  0  3  0  0  0  0  0  0
  190.7460  177.2450  139.9630 C   0  0  0  0  0  3  0  0  0  0  0  0
  187.2730  177.8960  145.4540 C   0  0  0  0  0  0  0  0  0  0  0  0
  187.0150  178.1080  142.9830 C   0  0  0  0  0  3  0  0  0  0  0  0
  190.9660  177.0470  142.3680 O   0  0  0  0  0  0  0  0  0  0  0  0
  185.4050  178.3300  146.9460 C   0  0  0  0  0  3  0  0  0  0  0  0
  188.6520  177.5250  145.2480 N   0  0  0  0  0  0  0  0  0  0  0  0
  186.7370  177.9710  146.7490 C   0  0  0  0  0  3  0  0  0  0  0  0
  190.5160  177.4440  137.5990 F   0  0  0  0  0  0  0  0  0  0  0  0
  188.6270  177.8890  138.9820 C   0  0  0  0  0  3  0  0  0  0  0  0
  189.1750  177.4560  143.9070 C   0  0  0  0  0  0  0  0  0  0  0  0
  184.5900  178.6180  145.8520 C   0  0  0  0  0  3  0  0  0  0  0  0
  186.4470  178.1880  144.3450 C   0  0  0  0  0  0  0  0  0  0  0  0
  184.1480  178.8780  143.4280 C   0  0  1  0  0  3  0  0  0  0  0  0
  184.3580  177.9500  142.2260 C   0  0  0  0  0  2  0  0  0  0  0  0
  182.0810  178.8650  141.4570 C   0  0  0  0  0  0  0  0  0  0  0  0
  182.6910  178.8640  143.8970 C   0  0  0  0  0  2  0  0  0  0  0  0
  183.6390  177.9010  139.9500 O   0  0  0  0  0  0  0  0  0  0  0  0
  183.3710  178.2370  141.1340 C   0  0  0  0  0  0  0  0  0  0  0  0
  181.2340  179.0950  140.5530 O   0  0  0  0  0  0  0  0  0  0  0  0
  181.8060  179.2550  142.8040 N   0  0  0  0  0  2  0  0  0  0  0  0
  1 19  1  0  0  0  0
  2  7  1  0  0  0  0
  4  7  2  0  0  0  0
  4 12  1  0  0  0  0
  5 11  2  0  0  0  0
  5 18  1  0  0  0  0
  6 17  1  0  0  0  0
  6  9  2  0  0  0  0
  7  5  1  0  0  0  0
  8 18  2  0  0  0  0
  9  4  1  0  0  0  0
 10 15  2  0  0  0  0
 11 20  1  0  0  0  0
 12  8  1  0  0  0  0
 14 10  1  0  0  0  0
 14  3  1  0  0  0  0
 15 13  1  0  0  0  0
 16  6  1  0  0  0  0
 17  2  2  0  0  0  0
 18 14  1  0  0  0  0
 19 13  2  0  0  0  0
 20  1  2  0  0  0  0
 20 10  1  0  0  0  0
 21 24  1  0  0  0  0
 21  1  1  1  0  0  0
 22 21  1  0  0  0  0
 23 28  1  0  0  0  0
 25 26  2  0  0  0  0
 26 23  1  0  0  0  0
 26 22  1  0  0  0  0
 27 23  2  0  0  0  0
 28 24  1  0  0  0  0
M  END
>  <MODEL>
8

>  <REMARK>
 VINA RESULT:     -11.0      3.145      6.327
  Name = 
  1 active torsions:
  status: ('A' for Active; 'I' for Inactive)
    1  A    between atoms: C_1  and  C_2
                            x       y       z     vdW  Elec       q    Type
                         _______ _______ _______ _____ _____    ______ ____

>  <TORSDO>
F 1

$$$$
=
 OpenBabel10262420553D

 28 32  0  0  1  0  0  0  0  0999 V2000
  183.9630  178.3190  142.1670 C   0  0  0  0  0  0  0  0  0  0  0  0
  188.9490  176.7250  142.5540 C   0  0  0  0  0  3  0  0  0  0  0  0
  184.9350  178.8010  147.0140 C   0  0  0  0  0  1  0  0  0  0  0  0
  189.3420  176.9890  144.9360 C   0  0  0  0  0  0  0  0  0  0  0  0
  187.1110  177.5850  144.0530 C   0  0  0  0  0  0  0  0  0  0  0  0
  191.1080  176.1640  143.4990 C   0  0  0  0  0  0  0  0  0  0  0  0
  188.4840  177.0910  143.8270 C   0  0  0  0  0  0  0  0  0  0  0  0
  187.5820  177.8230  146.4310 C   0  0  0  0  0  3  0  0  0  0  0  0
  190.6500  176.5270  144.7680 C   0  0  0  0  0  3  0  0  0  0  0  0
  184.4460  178.5550  144.5560 C   0  0  0  0  0  0  0  0  0  0  0  0
  186.2410  177.7070  143.0470 C   0  0  0  0  0  3  0  0  0  0  0  0
  188.8850  177.3530  146.2090 O   0  0  0  0  0  0  0  0  0  0  0  0
  182.2550  179.1400  143.6830 C   0  0  0  0  0  3  0  0  0  0  0  0
  185.3620  178.4350  145.6640 N   0  0  0  0  0  0  0  0  0  0  0  0
  183.1390  179.0240  144.7550 C   0  0  0  0  0  3  0  0  0  0  0  0
  192.3760  175.7160  143.3400 F   0  0  0  0  0  0  0  0  0  0  0  0
  190.2580  176.2620  142.3930 C   0  0  0  0  0  3  0  0  0  0  0  0
  186.6990  177.9510  145.4290 C   0  0  0  0  0  0  0  0  0  0  0  0
  182.6670  178.7890  142.3980 C   0  0  0  0  0  3  0  0  0  0  0  0
  184.8630  178.2000  143.2530 C   0  0  0  0  0  0  0  0  0  0  0  0
  184.3240  177.9640  140.7520 C   0  0  1  0  0  3  0  0  0  0  0  0
  183.1460  177.3120  140.0170 C   0  0  0  0  0  2  0  0  0  0  0  0
  184.5390  177.7910  137.9090 C   0  0  0  0  0  0  0  0  0  0  0  0
  184.8590  179.1750  139.9850 C   0  0  0  0  0  2  0  0  0  0  0  0
  182.8480  176.1300  137.9650 O   0  0  0  0  0  0  0  0  0  0  0  0
  183.4890  177.0160  138.5870 C   0  0  0  0  0  0  0  0  0  0  0  0
  184.8250  177.5670  136.7030 O   0  0  0  0  0  0  0  0  0  0  0  0
  185.2670  178.7800  138.6410 N   0  0  0  0  0  2  0  0  0  0  0  0
  1 19  2  0  0  0  0
  1 20  1  0  0  0  0
  2  7  1  0  0  0  0
  4 12  1  0  0  0  0
  5 18  1  0  0  0  0
  6  9  2  0  0  0  0
  7  5  1  0  0  0  0
  7  4  2  0  0  0  0
  9  4  1  0  0  0  0
 10 15  1  0  0  0  0
 10 14  1  0  0  0  0
 11 20  1  0  0  0  0
 11  5  2  0  0  0  0
 12  8  1  0  0  0  0
 13 15  2  0  0  0  0
 14  3  1  0  0  0  0
 16  6  1  0  0  0  0
 17  2  2  0  0  0  0
 17  6  1  0  0  0  0
 18 14  1  0  0  0  0
 18  8  2  0  0  0  0
 19 13  1  0  0  0  0
 20 10  2  0  0  0  0
 21  1  1  1  0  0  0
 22 21  1  0  0  0  0
 23 26  1  0  0  0  0
 23 28  1  0  0  0  0
 24 21  1  0  0  0  0
 25 26  2  0  0  0  0
 26 22  1  0  0  0  0
 27 23  2  0  0  0  0
 28 24  1  0  0  0  0
M  END
>  <MODEL>
9

>  <REMARK>
 VINA RESULT:     -11.0      3.420      6.136
  Name = 
  1 active torsions:
  status: ('A' for Active; 'I' for Inactive)
    1  A    between atoms: C_1  and  C_2
                            x       y       z     vdW  Elec       q    Type
                         _______ _______ _______ _____ _____    ______ ____

>  <TORSDO>
F 1

$$$$
