=
 OpenBabel10262422033D

 30 32  0  0  1  0  0  0  0  0999 V2000
  187.1330  175.5960  134.5940 C   0  0  0  0  0  2  0  0  0  0  0  0
  188.2480  176.1380  135.4790 C   0  0  1  0  0  3  0  0  0  0  0  0
  186.2660  173.8880  137.5110 O   0  0  0  0  0  0  0  0  0  0  0  0
  190.6230  176.4110  139.4240 C   0  0  0  0  0  3  0  0  0  0  0  0
  190.8100  176.1890  135.6180 C   0  0  1  0  0  3  0  0  0  0  0  0
  189.0790  178.2330  136.5840 N   0  0  0  0  0  2  0  0  0  0  0  0
  186.9370  176.6310  138.4000 O   0  0  0  0  0  1  0  0  0  0  0  0
  190.0940  174.2570  137.1720 C   0  0  0  0  0  1  0  0  0  0  0  0
  189.5750  175.8990  134.7600 C   0  0  0  0  0  2  0  0  0  0  0  0
  189.5260  177.7860  137.8680 C   0  0  0  0  0  0  0  0  0  0  0  0
  190.0170  177.7270  140.2710 S   0  0  0  0  0  0  0  0  0  0  0  0
  186.4910  174.3650  135.2230 C   0  0  0  0  0  2  0  0  0  0  0  0
  185.1890  175.9090  136.8640 C   0  0  2  0  0  3  0  0  0  0  0  0
  185.9930  174.6570  136.6030 C   0  0  0  0  0  0  0  0  0  0  0  0
  186.6160  177.9760  136.3800 C   0  0  0  0  0  2  0  0  0  0  0  0
  186.0040  177.0640  137.4560 C   0  0  2  0  0  3  0  0  0  0  0  0
  188.0040  177.6170  135.8070 C   0  0  2  0  0  3  0  0  0  0  0  0
  189.3100  178.5620  138.9990 C   0  0  0  0  0  3  0  0  0  0  0  0
  190.7490  175.6270  137.0480 C   0  0  2  0  0  3  0  0  0  0  0  0
  190.2680  176.6000  138.0930 C   0  0  0  0  0  0  0  0  0  0  0  0
  192.0490  175.6830  134.9020 C   0  0  0  0  0  2  0  0  0  0  0  0
  193.1310  175.6570  135.7830 O   0  0  0  0  0  0  0  0  0  0  0  0
  194.0710  174.3100  135.2850 S   0  0  0  0  0  0  0  0  0  0  0  0
  193.7500  173.4120  136.8310 C   0  0  0  0  0  1  0  0  0  0  0  0
  183.8410  175.6930  137.5740 C   0  0  1  0  0  3  0  0  0  0  0  0
  183.4140  176.9220  138.3820 C   0  0  2  0  0  3  0  0  0  0  0  0
  182.6800  176.5070  139.6450 C   0  0  0  0  0  1  0  0  0  0  0  0
  182.5680  177.7290  137.6200 O   0  0  0  0  0  1  0  0  0  0  0  0
  182.1690  173.7770  136.9020 O   0  0  0  0  0  0  0  0  0  0  0  0
  182.5290  175.1790  136.4290 S   0  0  0  0  0  3  0  0  0  0  0  0
  1 12  1  0  0  0  0
  2  1  1  6  0  0  0
  2 17  1  0  0  0  0
  4 11  1  0  0  0  0
  5 21  1  6  0  0  0
  5 19  1  0  0  0  0
  6 10  1  0  0  0  0
  9  2  1  0  0  0  0
  9  5  1  0  0  0  0
 10 20  1  0  0  0  0
 10 18  2  0  0  0  0
 12 14  1  0  0  0  0
 13 16  1  0  0  0  0
 13 25  1  1  0  0  0
 14 13  1  0  0  0  0
 14  3  2  0  0  0  0
 15 16  1  0  0  0  0
 16  7  1  6  0  0  0
 17 15  1  1  0  0  0
 17  6  1  0  0  0  0
 18 11  1  0  0  0  0
 19  8  1  6  0  0  0
 19 20  1  0  0  0  0
 20  4  2  0  0  0  0
 21 22  1  0  0  0  0
 23 22  1  0  0  0  0
 23 24  1  0  0  0  0
 25 30  1  6  0  0  0
 25 26  1  0  0  0  0
 26 27  1  1  0  0  0
 28 26  1  0  0  0  0
 30 29  2  0  0  0  0
M  END
>  <MODEL>
1

>  <REMARK>
 VINA RESULT:      -4.3      0.000      0.000
  Name = 
  6 active torsions:
  status: ('A' for Active; 'I' for Inactive)
    1  A    between atoms: C_2  and  C_28
    2  A    between atoms: C_6  and  C_8
    3  A    between atoms: C_6  and  O_21
    4  A    between atoms: S_9  and  O_21
    5  A    between atoms: C_19  and  C_28
    6  A    between atoms: C_28  and  S_29
                            x       y       z     vdW  Elec       q    Type
                         _______ _______ _______ _____ _____    ______ ____

>  <TORSDO>
F 6

$$$$
=
 OpenBabel10262422033D

 30 32  0  0  1  0  0  0  0  0999 V2000
  182.0560  177.6580  135.4190 C   0  0  0  0  0  2  0  0  0  0  0  0
  181.3230  178.2630  136.6100 C   0  0  1  0  0  3  0  0  0  0  0  0
  184.2380  176.5440  137.9040 O   0  0  0  0  0  0  0  0  0  0  0  0
  180.8280  179.2260  141.0940 C   0  0  0  0  0  3  0  0  0  0  0  0
  180.5810  180.5450  137.5210 C   0  0  1  0  0  3  0  0  0  0  0  0
  179.2110  178.0860  137.9550 N   0  0  0  0  0  2  0  0  0  0  0  0
  181.5280  176.0900  139.0060 O   0  0  0  0  0  1  0  0  0  0  0  0
  182.7910  180.0220  138.7470 C   0  0  0  0  0  1  0  0  0  0  0  0
  181.1080  179.7480  136.3230 C   0  0  0  0  0  2  0  0  0  0  0  0
  179.6520  178.2610  139.3050 C   0  0  0  0  0  0  0  0  0  0  0  0
  179.8300  178.0430  141.7420 S   0  0  0  0  0  0  0  0  0  0  0  0
  183.4760  177.2580  135.8010 C   0  0  0  0  0  2  0  0  0  0  0  0
  182.5370  175.1480  136.9980 C   0  0  2  0  0  3  0  0  0  0  0  0
  183.4820  176.3250  136.9700 C   0  0  0  0  0  0  0  0  0  0  0  0
  180.1170  175.9740  137.0090 C   0  0  0  0  0  2  0  0  0  0  0  0
  181.2720  175.3800  137.8320 C   0  0  2  0  0  3  0  0  0  0  0  0
  180.0140  177.5080  136.8770 C   0  0  2  0  0  3  0  0  0  0  0  0
  179.0920  177.5130  140.3320 C   0  0  0  0  0  3  0  0  0  0  0  0
  181.2870  180.2490  138.8540 C   0  0  2  0  0  3  0  0  0  0  0  0
  180.6030  179.2250  139.7220 C   0  0  0  0  0  0  0  0  0  0  0  0
  180.6450  182.0270  137.2040 C   0  0  0  0  0  2  0  0  0  0  0  0
  180.6940  182.2170  135.8210 O   0  0  0  0  0  0  0  0  0  0  0  0
  180.7270  183.9200  135.6130 S   0  0  0  0  0  0  0  0  0  0  0  0
  181.4150  184.1910  137.2720 C   0  0  0  0  0  1  0  0  0  0  0  0
  183.1930  173.7800  137.2620 C   0  0  1  0  0  3  0  0  0  0  0  0
  182.2630  172.6180  136.8980 C   0  0  2  0  0  3  0  0  0  0  0  0
  183.0100  171.2970  136.9460 C   0  0  0  0  0  1  0  0  0  0  0  0
  181.7530  172.7940  135.6110 O   0  0  0  0  0  1  0  0  0  0  0  0
  185.7820  173.4580  137.5900 O   0  0  0  0  0  0  0  0  0  0  0  0
  184.8010  173.6110  136.4360 S   0  0  0  0  0  3  0  0  0  0  0  0
  1 12  1  0  0  0  0
  2  1  1  6  0  0  0
  2 17  1  0  0  0  0
  4 11  1  0  0  0  0
  5 21  1  6  0  0  0
  5 19  1  0  0  0  0
  6 10  1  0  0  0  0
  9  2  1  0  0  0  0
  9  5  1  0  0  0  0
 10 20  1  0  0  0  0
 10 18  2  0  0  0  0
 12 14  1  0  0  0  0
 13 25  1  1  0  0  0
 13 16  1  0  0  0  0
 14 13  1  0  0  0  0
 14  3  2  0  0  0  0
 15 16  1  0  0  0  0
 16  7  1  1  0  0  0
 17 15  1  1  0  0  0
 17  6  1  0  0  0  0
 18 11  1  0  0  0  0
 19  8  1  6  0  0  0
 19 20  1  0  0  0  0
 20  4  2  0  0  0  0
 22 21  1  0  0  0  0
 23 22  1  0  0  0  0
 23 24  1  0  0  0  0
 25 30  1  6  0  0  0
 26 27  1  6  0  0  0
 26 25  1  0  0  0  0
 28 26  1  0  0  0  0
 30 29  2  0  0  0  0
M  END
>  <MODEL>
2

>  <REMARK>
 VINA RESULT:      -4.2      5.831      8.874
  Name = 
  6 active torsions:
  status: ('A' for Active; 'I' for Inactive)
    1  A    between atoms: C_2  and  C_28
    2  A    between atoms: C_6  and  C_8
    3  A    between atoms: C_6  and  O_21
    4  A    between atoms: S_9  and  O_21
    5  A    between atoms: C_19  and  C_28
    6  A    between atoms: C_28  and  S_29
                            x       y       z     vdW  Elec       q    Type
                         _______ _______ _______ _____ _____    ______ ____

>  <TORSDO>
F 6

$$$$
=
 OpenBabel10262422033D

 30 32  0  0  1  0  0  0  0  0999 V2000
  188.8850  178.6340  136.4810 C   0  0  0  0  0  2  0  0  0  0  0  0
  188.0530  177.4270  136.0670 C   0  0  1  0  0  3  0  0  0  0  0  0
  188.7330  177.0930  139.6090 O   0  0  0  0  0  0  0  0  0  0  0  0
  185.7600  173.5120  136.9000 C   0  0  0  0  0  3  0  0  0  0  0  0
  185.7570  176.8610  135.0690 C   0  0  1  0  0  3  0  0  0  0  0  0
  188.1270  175.3270  134.6930 N   0  0  0  0  0  2  0  0  0  0  0  0
  189.2460  174.8920  137.6960 O   0  0  0  0  0  1  0  0  0  0  0  0
  185.4670  176.5770  137.6180 C   0  0  0  0  0  1  0  0  0  0  0  0
  186.8040  177.9420  135.3520 C   0  0  0  0  0  2  0  0  0  0  0  0
  187.4450  174.3660  135.5050 C   0  0  0  0  0  0  0  0  0  0  0  0
  186.8120  172.2480  136.5680 S   0  0  0  0  0  0  0  0  0  0  0  0
  188.8930  178.7930  137.9980 C   0  0  0  0  0  2  0  0  0  0  0  0
  190.6150  176.8510  138.1720 C   0  0  2  0  0  3  0  0  0  0  0  0
  189.3720  177.5470  138.6730 C   0  0  0  0  0  0  0  0  0  0  0  0
  190.2500  176.0330  135.7760 C   0  0  0  0  0  2  0  0  0  0  0  0
  190.3360  175.6490  137.2630 C   0  0  2  0  0  3  0  0  0  0  0  0
  188.8850  176.4700  135.2020 C   0  0  2  0  0  3  0  0  0  0  0  0
  187.8940  173.0540  135.5720 C   0  0  0  0  0  3  0  0  0  0  0  0
  185.4730  175.9130  136.2460 C   0  0  2  0  0  3  0  0  0  0  0  0
  186.2520  174.6230  136.2250 C   0  0  0  0  0  0  0  0  0  0  0  0
  184.4740  177.5170  134.5950 C   0  0  0  0  0  2  0  0  0  0  0  0
  183.4150  176.6120  134.6830 O   0  0  0  0  0  0  0  0  0  0  0  0
  182.1480  177.4890  135.4400 S   0  0  0  0  0  0  0  0  0  0  0  0
  181.5180  176.0090  136.2830 C   0  0  0  0  0  1  0  0  0  0  0  0
  191.6880  176.5660  139.2380 C   0  0  1  0  0  3  0  0  0  0  0  0
  193.1050  176.8000  138.7030 C   0  0  2  0  0  3  0  0  0  0  0  0
  193.6290  175.5560  138.0080 C   0  0  0  0  0  1  0  0  0  0  0  0
  193.9680  177.1210  139.7520 O   0  0  0  0  0  1  0  0  0  0  0  0
  190.9060  176.4450  141.7460 O   0  0  0  0  0  0  0  0  0  0  0  0
  191.4090  177.5000  140.7700 S   0  0  0  0  0  3  0  0  0  0  0  0
  1 12  1  0  0  0  0
  2  9  1  6  0  0  0
  2  1  1  0  0  0  0
  5 21  1  1  0  0  0
  5  9  1  0  0  0  0
  5 19  1  0  0  0  0
  6 17  1  0  0  0  0
  6 10  1  0  0  0  0
 10 18  2  0  0  0  0
 10 20  1  0  0  0  0
 11  4  1  0  0  0  0
 12 14  1  0  0  0  0
 13 14  1  0  0  0  0
 13 25  1  1  0  0  0
 14  3  2  0  0  0  0
 15 16  1  0  0  0  0
 16  7  1  1  0  0  0
 16 13  1  0  0  0  0
 17 15  1  1  0  0  0
 17  2  1  0  0  0  0
 18 11  1  0  0  0  0
 19  8  1  1  0  0  0
 20 19  1  0  0  0  0
 20  4  2  0  0  0  0
 21 22  1  0  0  0  0
 22 23  1  0  0  0  0
 23 24  1  0  0  0  0
 25 30  1  1  0  0  0
 26 27  1  1  0  0  0
 26 25  1  0  0  0  0
 26 28  1  0  0  0  0
 30 29  2  0  0  0  0
M  END
>  <MODEL>
3

>  <REMARK>
 VINA RESULT:      -3.9      2.388      7.210
  Name = 
  6 active torsions:
  status: ('A' for Active; 'I' for Inactive)
    1  A    between atoms: C_2  and  C_28
    2  A    between atoms: C_6  and  C_8
    3  A    between atoms: C_6  and  O_21
    4  A    between atoms: S_9  and  O_21
    5  A    between atoms: C_19  and  C_28
    6  A    between atoms: C_28  and  S_29
                            x       y       z     vdW  Elec       q    Type
                         _______ _______ _______ _____ _____    ______ ____

>  <TORSDO>
F 6

$$$$
=
 OpenBabel10262422033D

 30 32  0  0  1  0  0  0  0  0999 V2000
  184.3500  176.9640  137.9160 C   0  0  0  0  0  2  0  0  0  0  0  0
  182.8700  177.2740  138.1060 C   0  0  1  0  0  3  0  0  0  0  0  0
  184.7250  180.1850  139.2060 O   0  0  0  0  0  0  0  0  0  0  0  0
  179.3420  180.0170  139.2500 C   0  0  0  0  0  3  0  0  0  0  0  0
  180.7050  177.4820  136.7440 C   0  0  1  0  0  3  0  0  0  0  0  0
  180.8540  176.6350  139.4580 N   0  0  0  0  0  2  0  0  0  0  0  0
  182.6340  178.9280  140.8830 O   0  0  0  0  0  1  0  0  0  0  0  0
  181.5660  179.9010  137.0060 C   0  0  0  0  0  1  0  0  0  0  0  0
  182.1610  177.0070  136.7800 C   0  0  0  0  0  2  0  0  0  0  0  0
  180.2090  177.8860  139.7190 C   0  0  0  0  0  0  0  0  0  0  0  0
  178.9400  179.6610  140.8390 S   0  0  0  0  0  0  0  0  0  0  0  0
  185.1840  178.2390  137.9750 C   0  0  0  0  0  2  0  0  0  0  0  0
  184.9510  178.2460  140.5670 C   0  0  2  0  0  3  0  0  0  0  0  0
  184.9460  178.9850  139.2500 C   0  0  0  0  0  0  0  0  0  0  0  0
  183.0530  176.5320  140.6100 C   0  0  0  0  0  2  0  0  0  0  0  0
  183.5550  177.9020  141.0970 C   0  0  2  0  0  3  0  0  0  0  0  0
  182.2930  176.4550  139.2690 C   0  0  2  0  0  3  0  0  0  0  0  0
  179.6200  178.1320  140.9520 C   0  0  0  0  0  3  0  0  0  0  0  0
  180.4710  178.8880  137.3200 C   0  0  2  0  0  3  0  0  0  0  0  0
  180.0440  178.9200  138.7640 C   0  0  0  0  0  0  0  0  0  0  0  0
  180.1860  177.3980  135.3200 C   0  0  0  0  0  2  0  0  0  0  0  0
  180.1750  176.0680  134.8950 O   0  0  0  0  0  0  0  0  0  0  0  0
  178.9380  175.3210  135.8220 S   0  0  0  0  0  0  0  0  0  0  0  0
  179.9810  173.8840  136.2040 C   0  0  0  0  0  1  0  0  0  0  0  0
  185.8820  178.8260  141.6470 C   0  0  1  0  0  3  0  0  0  0  0  0
  185.3170  178.6300  143.0570 C   0  0  2  0  0  3  0  0  0  0  0  0
  184.8890  179.9590  143.6540 C   0  0  0  0  0  1  0  0  0  0  0  0
  186.2830  178.0600  143.8880 O   0  0  0  0  0  1  0  0  0  0  0  0
  188.2100  179.0280  140.4380 O   0  0  0  0  0  0  0  0  0  0  0  0
  187.5730  178.1750  141.5270 S   0  0  0  0  0  3  0  0  0  0  0  0
  1 12  1  0  0  0  0
  1  2  1  0  0  0  0
  2  9  1  6  0  0  0
  2 17  1  0  0  0  0
  3 14  2  0  0  0  0
  4 11  1  0  0  0  0
  5 21  1  6  0  0  0
  5  9  1  0  0  0  0
  5 19  1  0  0  0  0
  6 10  1  0  0  0  0
 10 18  2  0  0  0  0
 11 18  1  0  0  0  0
 12 14  1  0  0  0  0
 13 16  1  0  0  0  0
 13 25  1  1  0  0  0
 14 13  1  0  0  0  0
 15 16  1  0  0  0  0
 16  7  1  6  0  0  0
 17  6  1  0  0  0  0
 17 15  1  1  0  0  0
 19  8  1  1  0  0  0
 19 20  1  0  0  0  0
 20  4  2  0  0  0  0
 20 10  1  0  0  0  0
 22 21  1  0  0  0  0
 22 23  1  0  0  0  0
 23 24  1  0  0  0  0
 25 30  1  1  0  0  0
 25 26  1  0  0  0  0
 26 27  1  1  0  0  0
 26 28  1  0  0  0  0
 29 30  2  0  0  0  0
M  END
>  <MODEL>
4

>  <REMARK>
 VINA RESULT:      -3.7      5.289      8.845
  Name = 
  6 active torsions:
  status: ('A' for Active; 'I' for Inactive)
    1  A    between atoms: C_2  and  C_28
    2  A    between atoms: C_6  and  C_8
    3  A    between atoms: C_6  and  O_21
    4  A    between atoms: S_9  and  O_21
    5  A    between atoms: C_19  and  C_28
    6  A    between atoms: C_28  and  S_29
                            x       y       z     vdW  Elec       q    Type
                         _______ _______ _______ _____ _____    ______ ____

>  <TORSDO>
F 6

$$$$
=
 OpenBabel10262422033D

 30 32  0  0  1  0  0  0  0  0999 V2000
  187.6730  178.1190  135.5790 C   0  0  0  0  0  2  0  0  0  0  0  0
  186.5800  177.0590  135.5300 C   0  0  1  0  0  3  0  0  0  0  0  0
  187.8090  177.1730  138.9360 O   0  0  0  0  0  0  0  0  0  0  0  0
  183.8160  173.8900  137.4260 C   0  0  0  0  0  3  0  0  0  0  0  0
  184.0800  176.8240  134.9980 C   0  0  1  0  0  3  0  0  0  0  0  0
  186.0370  174.7940  134.5940 N   0  0  0  0  0  2  0  0  0  0  0  0
  187.5760  174.6330  137.4330 O   0  0  0  0  0  1  0  0  0  0  0  0
  184.2020  177.0240  137.5690 C   0  0  0  0  0  1  0  0  0  0  0  0
  185.3360  177.6970  134.9140 C   0  0  0  0  0  2  0  0  0  0  0  0
  185.3500  174.1400  135.6650 C   0  0  0  0  0  0  0  0  0  0  0  0
  184.5520  172.3990  137.1990 S   0  0  0  0  0  0  0  0  0  0  0  0
  187.9780  178.5190  137.0180 C   0  0  0  0  0  2  0  0  0  0  0  0
  189.3320  176.3180  137.3190 C   0  0  2  0  0  3  0  0  0  0  0  0
  188.3410  177.3270  137.8470 C   0  0  0  0  0  0  0  0  0  0  0  0
  188.4090  175.2140  135.2050 C   0  0  0  0  0  2  0  0  0  0  0  0
  188.6880  175.0670  136.7100 C   0  0  2  0  0  3  0  0  0  0  0  0
  187.0630  175.8230  134.7580 C   0  0  2  0  0  3  0  0  0  0  0  0
  185.5650  172.7920  135.9210 C   0  0  0  0  0  3  0  0  0  0  0  0
  183.8470  176.1590  136.3650 C   0  0  2  0  0  3  0  0  0  0  0  0
  184.3690  174.7510  136.4850 C   0  0  0  0  0  0  0  0  0  0  0  0
  182.8700  177.6450  134.5940 C   0  0  0  0  0  2  0  0  0  0  0  0
  181.7070  176.8880  134.7510 O   0  0  0  0  0  0  0  0  0  0  0  0
  180.4390  178.0420  134.8240 S   0  0  0  0  0  0  0  0  0  0  0  0
  181.1900  178.8960  136.2400 C   0  0  0  0  0  1  0  0  0  0  0  0
  190.5100  175.9960  138.2560 C   0  0  1  0  0  3  0  0  0  0  0  0
  191.8140  175.7730  137.4840 C   0  0  2  0  0  3  0  0  0  0  0  0
  192.9940  176.3600  138.2390 C   0  0  0  0  0  1  0  0  0  0  0  0
  191.7420  176.3800  136.2300 O   0  0  0  0  0  1  0  0  0  0  0  0
  190.5600  176.4600  140.8450 O   0  0  0  0  0  0  0  0  0  0  0  0
  190.7280  177.2480  139.5530 S   0  0  0  0  0  3  0  0  0  0  0  0
  1 12  1  0  0  0  0
  2  9  1  6  0  0  0
  2  1  1  0  0  0  0
  5 21  1  1  0  0  0
  5 19  1  0  0  0  0
  6 17  1  0  0  0  0
  6 10  1  0  0  0  0
  9  5  1  0  0  0  0
 10 18  2  0  0  0  0
 10 20  1  0  0  0  0
 11  4  1  0  0  0  0
 12 14  1  0  0  0  0
 13 14  1  0  0  0  0
 13 25  1  1  0  0  0
 14  3  2  0  0  0  0
 15 16  1  0  0  0  0
 16 13  1  0  0  0  0
 16  7  1  1  0  0  0
 17 15  1  1  0  0  0
 17  2  1  0  0  0  0
 18 11  1  0  0  0  0
 19 20  1  0  0  0  0
 19  8  1  1  0  0  0
 20  4  2  0  0  0  0
 21 22  1  0  0  0  0
 22 23  1  0  0  0  0
 23 24  1  0  0  0  0
 25 30  1  1  0  0  0
 26 27  1  1  0  0  0
 26 25  1  0  0  0  0
 28 26  1  0  0  0  0
 30 29  2  0  0  0  0
M  END
>  <MODEL>
5

>  <REMARK>
 VINA RESULT:      -3.7      2.333      7.425
  Name = 
  6 active torsions:
  status: ('A' for Active; 'I' for Inactive)
    1  A    between atoms: C_2  and  C_28
    2  A    between atoms: C_6  and  C_8
    3  A    between atoms: C_6  and  O_21
    4  A    between atoms: S_9  and  O_21
    5  A    between atoms: C_19  and  C_28
    6  A    between atoms: C_28  and  S_29
                            x       y       z     vdW  Elec       q    Type
                         _______ _______ _______ _____ _____    ______ ____

>  <TORSDO>
F 6

$$$$
=
 OpenBabel10262422033D

 30 32  0  0  1  0  0  0  0  0999 V2000
  180.7860  175.1590  137.3080 C   0  0  0  0  0  2  0  0  0  0  0  0
  182.0620  174.8590  136.5330 C   0  0  1  0  0  3  0  0  0  0  0  0
  183.0520  176.0010  139.8250 O   0  0  0  0  0  0  0  0  0  0  0  0
  186.6410  174.4920  136.1040 C   0  0  0  0  0  3  0  0  0  0  0  0
  183.2490  172.9070  135.3630 C   0  0  1  0  0  3  0  0  0  0  0  0
  183.4520  175.6410  134.5940 N   0  0  0  0  0  2  0  0  0  0  0  0
  184.1900  177.1620  137.3510 O   0  0  0  0  0  1  0  0  0  0  0  0
  184.3310  173.0410  137.7020 C   0  0  0  0  0  1  0  0  0  0  0  0
  181.9520  173.4380  135.9800 C   0  0  0  0  0  2  0  0  0  0  0  0
  184.7970  175.5100  135.0650 C   0  0  0  0  0  0  0  0  0  0  0  0
  187.1860  175.9290  135.4300 S   0  0  0  0  0  0  0  0  0  0  0  0
  181.0700  175.2670  138.8020 C   0  0  0  0  0  2  0  0  0  0  0  0
  182.0560  177.6440  138.4220 C   0  0  2  0  0  3  0  0  0  0  0  0
  182.1270  176.2880  139.0820 C   0  0  0  0  0  0  0  0  0  0  0  0
  182.2440  177.3890  135.8840 C   0  0  0  0  0  2  0  0  0  0  0  0
  182.9540  177.7880  137.1880 C   0  0  2  0  0  3  0  0  0  0  0  0
  182.2890  175.9110  135.4390 C   0  0  2  0  0  3  0  0  0  0  0  0
  185.7530  176.4650  134.7450 C   0  0  0  0  0  3  0  0  0  0  0  0
  184.5150  173.1700  136.1950 C   0  0  2  0  0  3  0  0  0  0  0  0
  185.2860  174.4040  135.8050 C   0  0  0  0  0  0  0  0  0  0  0  0
  183.0980  171.4230  135.0810 C   0  0  0  0  0  2  0  0  0  0  0  0
  182.1070  170.8810  135.9010 O   0  0  0  0  0  0  0  0  0  0  0  0
  181.2770  169.7580  134.9030 S   0  0  0  0  0  0  0  0  0  0  0  0
  179.6880  170.0850  135.7190 C   0  0  0  0  0  1  0  0  0  0  0  0
  182.1410  178.8490  139.3760 C   0  0  1  0  0  3  0  0  0  0  0  0
  181.0930  178.7750  140.4910 C   0  0  2  0  0  3  0  0  0  0  0  0
  180.2310  180.0250  140.5020 C   0  0  0  0  0  1  0  0  0  0  0  0
  181.7180  178.6530  141.7320 O   0  0  0  0  0  1  0  0  0  0  0  0
  184.4300  180.1260  139.1570 O   0  0  0  0  0  0  0  0  0  0  0  0
  183.8070  179.0730  140.0630 S   0  0  0  0  0  3  0  0  0  0  0  0
  1 12  1  0  0  0  0
  2  9  1  6  0  0  0
  2  1  1  0  0  0  0
  5 21  1  1  0  0  0
  5  9  1  0  0  0  0
  5 19  1  0  0  0  0
  6 10  1  0  0  0  0
  6 17  1  0  0  0  0
 10 20  1  0  0  0  0
 11  4  1  0  0  0  0
 12 14  1  0  0  0  0
 13 14  1  0  0  0  0
 13 25  1  1  0  0  0
 14  3  2  0  0  0  0
 15 16  1  0  0  0  0
 16  7  1  1  0  0  0
 16 13  1  0  0  0  0
 17 15  1  1  0  0  0
 17  2  1  0  0  0  0
 18 10  2  0  0  0  0
 18 11  1  0  0  0  0
 19  8  1  1  0  0  0
 20  4  2  0  0  0  0
 20 19  1  0  0  0  0
 21 22  1  0  0  0  0
 23 24  1  0  0  0  0
 23 22  1  0  0  0  0
 25 30  1  1  0  0  0
 25 26  1  0  0  0  0
 26 27  1  1  0  0  0
 26 28  1  0  0  0  0
 29 30  2  0  0  0  0
M  END
>  <MODEL>
6

>  <REMARK>
 VINA RESULT:      -3.7      4.357      7.017
  Name = 
  6 active torsions:
  status: ('A' for Active; 'I' for Inactive)
    1  A    between atoms: C_2  and  C_28
    2  A    between atoms: C_6  and  C_8
    3  A    between atoms: C_6  and  O_21
    4  A    between atoms: S_9  and  O_21
    5  A    between atoms: C_19  and  C_28
    6  A    between atoms: C_28  and  S_29
                            x       y       z     vdW  Elec       q    Type
                         _______ _______ _______ _____ _____    ______ ____

>  <TORSDO>
F 6

$$$$
=
 OpenBabel10262422033D

 30 32  0  0  1  0  0  0  0  0999 V2000
  182.2640  178.8880  135.9400 C   0  0  0  0  0  2  0  0  0  0  0  0
  182.0130  178.1500  137.2490 C   0  0  1  0  0  3  0  0  0  0  0  0
  178.9310  179.8360  136.3620 O   0  0  0  0  0  0  0  0  0  0  0  0
  179.3620  176.7530  140.7560 C   0  0  0  0  0  3  0  0  0  0  0  0
  182.0270  175.7690  138.2070 C   0  0  1  0  0  3  0  0  0  0  0  0
  182.6360  178.1290  139.6800 N   0  0  0  0  0  2  0  0  0  0  0  0
  180.1470  180.0930  139.0490 O   0  0  0  0  0  1  0  0  0  0  0  0
  179.5550  176.2480  137.6420 C   0  0  0  0  0  1  0  0  0  0  0  0
  182.4250  176.6920  137.0520 C   0  0  0  0  0  2  0  0  0  0  0  0
  181.4020  177.8430  140.3450 C   0  0  0  0  0  0  0  0  0  0  0  0
  179.6050  177.8360  142.0150 S   0  0  0  0  0  0  0  0  0  0  0  0
  180.9490  179.2980  135.2870 C   0  0  0  0  0  2  0  0  0  0  0  0
  180.7370  181.2530  136.9900 C   0  0  2  0  0  3  0  0  0  0  0  0
  180.1110  180.1160  136.2180 C   0  0  0  0  0  0  0  0  0  0  0  0
  182.5330  180.3500  138.5700 C   0  0  0  0  0  2  0  0  0  0  0  0
  181.1040  180.9020  138.4360 C   0  0  2  0  0  3  0  0  0  0  0  0
  182.7590  178.8320  138.4040 C   0  0  2  0  0  3  0  0  0  0  0  0
  181.0830  178.4720  141.5420 C   0  0  0  0  0  3  0  0  0  0  0  0
  180.5910  175.9620  138.7220 C   0  0  2  0  0  3  0  0  0  0  0  0
  180.4600  176.8760  139.9130 C   0  0  0  0  0  0  0  0  0  0  0  0
  182.2550  174.3260  137.7980 C   0  0  0  0  0  2  0  0  0  0  0  0
  183.5320  174.1820  137.2520 O   0  0  0  0  0  0  0  0  0  0  0  0
  183.3710  172.9370  136.0800 S   0  0  0  0  0  0  0  0  0  0  0  0
  182.2680  171.9660  137.1470 C   0  0  0  0  0  1  0  0  0  0  0  0
  180.0240  182.6110  136.8610 C   0  0  1  0  0  3  0  0  0  0  0  0
  180.5260  183.6250  137.8940 C   0  0  2  0  0  3  0  0  0  0  0  0
  179.5080  184.7330  138.0980 C   0  0  0  0  0  1  0  0  0  0  0  0
  181.7250  184.1950  137.4650 O   0  0  0  0  0  1  0  0  0  0  0  0
  181.3610  182.6210  134.5960 O   0  0  0  0  0  0  0  0  0  0  0  0
  180.1250  183.2910  135.1800 S   0  0  0  0  0  3  0  0  0  0  0  0
  2  1  1  6  0  0  0
  2 17  1  0  0  0  0
  4 11  1  0  0  0  0
  5 21  1  6  0  0  0
  5 19  1  0  0  0  0
  6 10  1  0  0  0  0
  9  2  1  0  0  0  0
  9  5  1  0  0  0  0
 10 18  2  0  0  0  0
 12  1  1  0  0  0  0
 12 14  1  0  0  0  0
 13 25  1  1  0  0  0
 13 16  1  0  0  0  0
 14  3  2  0  0  0  0
 14 13  1  0  0  0  0
 16 15  1  0  0  0  0
 16  7  1  6  0  0  0
 17 15  1  1  0  0  0
 17  6  1  0  0  0  0
 18 11  1  0  0  0  0
 19  8  1  6  0  0  0
 19 20  1  0  0  0  0
 20 10  1  0  0  0  0
 20  4  2  0  0  0  0
 22 21  1  0  0  0  0
 23 24  1  0  0  0  0
 23 22  1  0  0  0  0
 25 30  1  6  0  0  0
 25 26  1  0  0  0  0
 26 27  1  6  0  0  0
 28 26  1  0  0  0  0
 29 30  2  0  0  0  0
M  END
>  <MODEL>
7

>  <REMARK>
 VINA RESULT:      -3.4      6.588      8.663
  Name = 
  6 active torsions:
  status: ('A' for Active; 'I' for Inactive)
    1  A    between atoms: C_2  and  C_28
    2  A    between atoms: C_6  and  C_8
    3  A    between atoms: C_6  and  O_21
    4  A    between atoms: S_9  and  O_21
    5  A    between atoms: C_19  and  C_28
    6  A    between atoms: C_28  and  S_29
                            x       y       z     vdW  Elec       q    Type
                         _______ _______ _______ _____ _____    ______ ____

>  <TORSDO>
F 6

$$$$
=
 OpenBabel10262422033D

 30 32  0  0  1  0  0  0  0  0999 V2000
  182.9340  177.1030  140.3310 C   0  0  0  0  0  2  0  0  0  0  0  0
  182.0210  178.2280  139.8600 C   0  0  1  0  0  3  0  0  0  0  0  0
  181.7740  175.5570  137.4250 O   0  0  0  0  0  0  0  0  0  0  0  0
  178.9320  180.1110  136.9980 C   0  0  0  0  0  3  0  0  0  0  0  0
  179.9630  179.5540  140.6300 C   0  0  1  0  0  3  0  0  0  0  0  0
  182.0410  180.5750  138.9720 N   0  0  0  0  0  2  0  0  0  0  0  0
  182.3210  178.3570  136.6360 O   0  0  0  0  0  1  0  0  0  0  0  0
  179.0330  177.7230  139.0660 C   0  0  0  0  0  1  0  0  0  0  0  0
  181.0900  178.5910  141.0150 C   0  0  0  0  0  2  0  0  0  0  0  0
  181.0250  180.5660  137.9630 C   0  0  0  0  0  0  0  0  0  0  0  0
  179.7900  181.0470  135.8990 S   0  0  0  0  0  0  0  0  0  0  0  0
  182.6120  175.8010  139.6050 C   0  0  0  0  0  2  0  0  0  0  0  0
  183.8670  176.6870  137.5050 C   0  0  2  0  0  3  0  0  0  0  0  0
  182.6860  175.9740  138.1210 C   0  0  0  0  0  0  0  0  0  0  0  0
  183.9380  179.1130  138.3110 C   0  0  0  0  0  2  0  0  0  0  0  0
  183.6000  178.1550  137.1560 C   0  0  2  0  0  3  0  0  0  0  0  0
  182.8480  179.4200  139.3610 C   0  0  2  0  0  3  0  0  0  0  0  0
  181.2030  181.2640  136.7760 C   0  0  0  0  0  3  0  0  0  0  0  0
  179.2440  179.2120  139.3140 C   0  0  2  0  0  3  0  0  0  0  0  0
  179.7610  179.9380  138.1000 C   0  0  0  0  0  0  0  0  0  0  0  0
  178.9670  179.6430  141.7710 C   0  0  0  0  0  2  0  0  0  0  0  0
  179.5480  180.2990  142.8590 O   0  0  0  0  0  0  0  0  0  0  0  0
  178.9320  179.4870  144.2410 S   0  0  0  0  0  0  0  0  0  0  0  0
  180.2540  178.2430  144.1980 C   0  0  0  0  0  1  0  0  0  0  0  0
  184.5890  175.9200  136.3820 C   0  0  1  0  0  3  0  0  0  0  0  0
  185.8170  176.6780  135.8670 C   0  0  2  0  0  3  0  0  0  0  0  0
  186.4520  175.9430  134.7000 C   0  0  0  0  0  1  0  0  0  0  0  0
  186.7660  176.8040  136.8830 O   0  0  0  0  0  1  0  0  0  0  0  0
  183.9880  173.3700  136.1550 O   0  0  0  0  0  0  0  0  0  0  0  0
  185.0250  174.2260  136.8680 S   0  0  0  0  0  3  0  0  0  0  0  0
  2  1  1  1  0  0  0
  2  9  1  0  0  0  0
  3 14  2  0  0  0  0
  4 20  2  0  0  0  0
  5  9  1  0  0  0  0
  5 21  1  1  0  0  0
  6 17  1  0  0  0  0
 10 20  1  0  0  0  0
 10  6  1  0  0  0  0
 11 18  1  0  0  0  0
 11  4  1  0  0  0  0
 12  1  1  0  0  0  0
 13 25  1  6  0  0  0
 13 14  1  0  0  0  0
 14 12  1  0  0  0  0
 16  7  1  1  0  0  0
 16 13  1  0  0  0  0
 16 15  1  0  0  0  0
 17 15  1  6  0  0  0
 17  2  1  0  0  0  0
 18 10  2  0  0  0  0
 19  8  1  6  0  0  0
 19  5  1  0  0  0  0
 20 19  1  0  0  0  0
 21 22  1  0  0  0  0
 22 23  1  0  0  0  0
 24 23  1  0  0  0  0
 25 30  1  1  0  0  0
 26 27  1  6  0  0  0
 26 25  1  0  0  0  0
 26 28  1  0  0  0  0
 29 30  2  0  0  0  0
M  END
>  <MODEL>
8

>  <REMARK>
 VINA RESULT:      -3.3      4.322      9.386
  Name = 
  6 active torsions:
  status: ('A' for Active; 'I' for Inactive)
    1  A    between atoms: C_2  and  C_28
    2  A    between atoms: C_6  and  C_8
    3  A    between atoms: C_6  and  O_21
    4  A    between atoms: S_9  and  O_21
    5  A    between atoms: C_19  and  C_28
    6  A    between atoms: C_28  and  S_29
                            x       y       z     vdW  Elec       q    Type
                         _______ _______ _______ _____ _____    ______ ____

>  <TORSDO>
F 6

$$$$
=
 OpenBabel10262422033D

 30 32  0  0  1  0  0  0  0  0999 V2000
  183.6940  177.1600  138.4100 C   0  0  0  0  0  2  0  0  0  0  0  0
  182.3370  177.7810  138.7160 C   0  0  1  0  0  3  0  0  0  0  0  0
  184.8620  180.1470  139.7870 O   0  0  0  0  0  0  0  0  0  0  0  0
  179.5930  181.1760  140.2070 C   0  0  0  0  0  3  0  0  0  0  0  0
  180.1950  178.5350  137.5180 C   0  0  1  0  0  3  0  0  0  0  0  0
  180.3150  177.5360  140.1830 N   0  0  0  0  0  2  0  0  0  0  0  0
  182.6480  179.3000  141.5610 O   0  0  0  0  0  1  0  0  0  0  0  0
  181.5920  180.6860  137.8080 C   0  0  0  0  0  1  0  0  0  0  0  0
  181.5060  177.7470  137.4340 C   0  0  0  0  0  2  0  0  0  0  0  0
  179.9850  178.8840  140.5340 C   0  0  0  0  0  0  0  0  0  0  0  0
  179.2180  180.8360  141.8070 S   0  0  0  0  0  0  0  0  0  0  0  0
  184.7960  178.2140  138.4560 C   0  0  0  0  0  2  0  0  0  0  0  0
  184.7290  178.1380  141.0560 C   0  0  2  0  0  3  0  0  0  0  0  0
  184.8100  178.9270  139.7710 C   0  0  0  0  0  0  0  0  0  0  0  0
  182.5000  176.8880  141.1710 C   0  0  0  0  0  2  0  0  0  0  0  0
  183.3260  178.0850  141.6710 C   0  0  2  0  0  3  0  0  0  0  0  0
  181.6620  177.0520  139.8850 C   0  0  2  0  0  3  0  0  0  0  0  0
  179.5430  179.1900  141.8150 C   0  0  0  0  0  3  0  0  0  0  0  0
  180.3190  179.9260  138.1610 C   0  0  2  0  0  3  0  0  0  0  0  0
  179.9990  179.9770  139.6320 C   0  0  0  0  0  0  0  0  0  0  0  0
  179.5850  178.6420  136.1330 C   0  0  0  0  0  2  0  0  0  0  0  0
  178.9300  179.8690  135.9960 O   0  0  0  0  0  0  0  0  0  0  0  0
  179.6210  180.5800  134.5940 S   0  0  0  0  0  0  0  0  0  0  0  0
  179.3000  182.2640  135.1930 C   0  0  0  0  0  1  0  0  0  0  0  0
  185.8300  178.4400  142.0880 C   0  0  1  0  0  3  0  0  0  0  0  0
  185.4830  177.8930  143.4760 C   0  0  2  0  0  3  0  0  0  0  0  0
  185.2290  179.0280  144.4530 C   0  0  0  0  0  1  0  0  0  0  0  0
  186.5320  177.1120  143.9640 O   0  0  0  0  0  1  0  0  0  0  0  0
  188.0470  179.0540  140.8120 O   0  0  0  0  0  0  0  0  0  0  0  0
  187.4630  177.8570  141.5500 S   0  0  0  0  0  3  0  0  0  0  0  0
  1 12  1  0  0  0  0
  1  2  1  0  0  0  0
  2  9  1  6  0  0  0
  2 17  1  0  0  0  0
  4 11  1  0  0  0  0
  5 21  1  6  0  0  0
  5 19  1  0  0  0  0
  6 10  1  0  0  0  0
  9  5  1  0  0  0  0
 10 18  2  0  0  0  0
 11 18  1  0  0  0  0
 12 14  1  0  0  0  0
 13 16  1  0  0  0  0
 13 25  1  1  0  0  0
 14  3  2  0  0  0  0
 14 13  1  0  0  0  0
 15 16  1  0  0  0  0
 16  7  1  6  0  0  0
 17  6  1  0  0  0  0
 17 15  1  1  0  0  0
 19  8  1  1  0  0  0
 19 20  1  0  0  0  0
 20  4  2  0  0  0  0
 20 10  1  0  0  0  0
 22 21  1  0  0  0  0
 23 24  1  0  0  0  0
 23 22  1  0  0  0  0
 25 30  1  6  0  0  0
 25 26  1  0  0  0  0
 26 28  1  0  0  0  0
 26 27  1  1  0  0  0
 29 30  2  0  0  0  0
M  END
>  <MODEL>
9

>  <REMARK>
 VINA RESULT:      -3.2      5.819      9.494
  Name = 
  6 active torsions:
  status: ('A' for Active; 'I' for Inactive)
    1  A    between atoms: C_2  and  C_28
    2  A    between atoms: C_6  and  C_8
    3  A    between atoms: C_6  and  O_21
    4  A    between atoms: S_9  and  O_21
    5  A    between atoms: C_19  and  C_28
    6  A    between atoms: C_28  and  S_29
                            x       y       z     vdW  Elec       q    Type
                         _______ _______ _______ _____ _____    ______ ____

>  <TORSDO>
F 6

$$$$
