=
 OpenBabel10262419283D

 31 34  0  0  0  0  0  0  0  0999 V2000
  185.0500  178.2990  145.9390 C   0  0  0  0  0  0  0  0  0  0  0  0
  188.2920  177.7480  144.0900 C   0  0  0  0  0  0  0  0  0  0  0  0
  189.2720  177.4080  145.0820 C   0  0  0  0  0  0  0  0  0  0  0  0
  189.8390  177.0130  147.4550 C   0  0  0  0  0  3  0  0  0  0  0  0
  186.9170  178.0370  144.3800 C   0  0  0  0  0  0  0  0  0  0  0  0
  184.1920  178.6100  144.8860 C   0  0  0  0  0  3  0  0  0  0  0  0
  188.9430  177.3260  146.5240 C   0  0  0  0  0  3  0  0  0  0  0  0
  187.7970  178.1290  141.7010 C   0  0  0  0  0  0  0  0  0  0  0  0
  184.5800  178.2700  147.2090 F   0  0  0  0  0  0  0  0  0  0  0  0
  190.9720  177.1990  143.3530 C   0  0  0  0  0  3  0  0  0  0  0  0
  191.2290  176.7240  147.0970 C   0  0  0  0  0  0  0  0  0  0  0  0
  186.4700  178.3960  142.0100 C   0  0  0  0  0  3  0  0  0  0  0  0
  188.7090  177.8010  142.7240 C   0  0  0  0  0  0  0  0  0  0  0  0
  186.3930  178.0160  145.6850 C   0  0  0  0  0  3  0  0  0  0  0  0
  192.0510  176.4310  148.0030 O   0  0  0  0  0  0  0  0  0  0  0  0
  186.0260  178.3570  143.3230 C   0  0  0  0  0  0  0  0  0  0  0  0
  184.6800  178.6380  143.5810 C   0  0  0  0  0  3  0  0  0  0  0  0
  190.0380  177.5260  142.3840 C   0  0  0  0  0  3  0  0  0  0  0  0
  190.6070  177.1360  144.6910 C   0  0  0  0  0  0  0  0  0  0  0  0
  191.6890  176.7730  145.6730 C   0  0  0  0  0  2  0  0  0  0  0  0
  188.2010  178.1670  140.2610 C   0  0  0  0  0  2  0  0  0  0  0  0
  187.0350  178.4160  139.4320 N   0  0  0  0  0  2  0  0  0  0  0  0
  187.3690  177.9580  138.0950 C   0  0  0  0  0  2  0  0  0  0  0  0
  188.8590  177.6680  138.0000 C   0  0  0  0  0  2  0  0  0  0  0  0
  189.1270  176.3590  137.2670 C   0  0  0  0  0  2  0  0  0  0  0  0
  190.3000  174.3350  137.6810 O   0  0  0  0  0  0  0  0  0  0  0  0
  190.1630  175.5530  137.9730 C   0  0  0  0  0  0  0  0  0  0  0  0
  192.2270  176.6040  138.7950 C   0  0  0  0  0  0  0  0  0  0  0  0
  192.9780  176.4590  137.5130 C   0  0  0  0  0  1  0  0  0  0  0  0
  192.9160  177.2490  139.9420 C   0  0  0  0  0  1  0  0  0  0  0  0
  191.0020  176.1930  138.9490 N   0  0  0  0  0  0  0  0  0  0  0  0
  1  9  1  0  0  0  0
  2  5  1  0  0  0  0
  2  3  1  0  0  0  0
  3  7  1  0  0  0  0
  5 14  2  0  0  0  0
  6  1  2  0  0  0  0
  7  4  2  0  0  0  0
  8 12  2  0  0  0  0
  8 13  1  0  0  0  0
 10 19  1  0  0  0  0
 11  4  1  0  0  0  0
 11 15  2  0  0  0  0
 12 16  1  0  0  0  0
 13  2  2  0  0  0  0
 14  1  1  0  0  0  0
 16 17  2  0  0  0  0
 16  5  1  0  0  0  0
 17  6  1  0  0  0  0
 18 13  1  0  0  0  0
 18 10  2  0  0  0  0
 19  3  2  0  0  0  0
 19 20  1  0  0  0  0
 20 11  1  0  0  0  0
 21  8  1  0  0  0  0
 22 21  1  0  0  0  0
 23 22  1  0  0  0  0
 24 23  1  0  0  0  0
 25 27  1  0  0  0  0
 25 24  1  0  0  0  0
 26 27  2  0  0  0  0
 27 31  1  0  0  0  0
 28 31  2  0  0  0  0
 28 30  1  0  0  0  0
 29 28  1  0  0  0  0
M  END
>  <MODEL>
1

>  <REMARK>
 VINA RESULT:     -10.2      0.000      0.000
  Name = 
  7 active torsions:
  status: ('A' for Active; 'I' for Inactive)
    1  A    between atoms: C_3  and  C_19
    2  A    between atoms: C_3  and  C_22
    3  A    between atoms: C_7  and  N_9
    4  A    between atoms: C_7  and  C_22
    5  A    between atoms: N_9  and  C_23
    6  A    between atoms: C_15  and  C_23
    7  A    between atoms: C_19  and  N_24
                            x       y       z     vdW  Elec       q    Type
                         _______ _______ _______ _____ _____    ______ ____

>  <TORSDO>
F 7

$$$$
=
 OpenBabel10262419283D

 31 34  0  0  0  0  0  0  0  0999 V2000
  185.2300  178.3420  146.1430 C   0  0  0  0  0  0  0  0  0  0  0  0
  188.4030  177.6260  144.2300 C   0  0  0  0  0  0  0  0  0  0  0  0
  189.3990  177.2930  145.2090 C   0  0  0  0  0  0  0  0  0  0  0  0
  190.0190  176.9660  147.5790 C   0  0  0  0  0  3  0  0  0  0  0  0
  187.0450  177.9670  144.5460 C   0  0  0  0  0  0  0  0  0  0  0  0
  184.3530  178.6410  145.1020 C   0  0  0  0  0  3  0  0  0  0  0  0
  189.1080  177.2730  146.6610 C   0  0  0  0  0  3  0  0  0  0  0  0
  187.8540  177.9350  141.8430 C   0  0  0  0  0  0  0  0  0  0  0  0
  184.7940  178.3740  147.4250 F   0  0  0  0  0  0  0  0  0  0  0  0
  191.0430  176.9700  143.4440 C   0  0  0  0  0  3  0  0  0  0  0  0
  191.3890  176.6230  147.1950 C   0  0  0  0  0  0  0  0  0  0  0  0
  186.5440  178.2540  142.1770 C   0  0  0  0  0  3  0  0  0  0  0  0
  188.7830  177.6170  142.8530 C   0  0  0  0  0  0  0  0  0  0  0  0
  186.5570  178.0090  145.8650 C   0  0  0  0  0  3  0  0  0  0  0  0
  192.2270  176.3370  148.0900 O   0  0  0  0  0  0  0  0  0  0  0  0
  186.1350  178.2760  143.5020 C   0  0  0  0  0  0  0  0  0  0  0  0
  184.8060  178.6070  143.7840 C   0  0  0  0  0  3  0  0  0  0  0  0
  190.0940  177.2900  142.4880 C   0  0  0  0  0  3  0  0  0  0  0  0
  190.7140  176.9660  144.7930 C   0  0  0  0  0  0  0  0  0  0  0  0
  191.8110  176.6060  145.7580 C   0  0  0  0  0  2  0  0  0  0  0  0
  188.2190  177.9090  140.3930 C   0  0  0  0  0  2  0  0  0  0  0  0
  187.2140  178.6190  139.6220 N   0  0  0  0  0  2  0  0  0  0  0  0
  187.0210  177.8680  138.3940 C   0  0  0  0  0  2  0  0  0  0  0  0
  185.7110  178.2700  137.7360 C   0  0  0  0  0  2  0  0  0  0  0  0
  184.5180  177.9670  138.6360 C   0  0  0  0  0  2  0  0  0  0  0  0
  184.3630  180.2850  139.1330 O   0  0  0  0  0  0  0  0  0  0  0  0
  183.7440  179.2050  138.9340 C   0  0  0  0  0  0  0  0  0  0  0  0
  181.5420  178.9180  139.9870 C   0  0  0  0  0  0  0  0  0  0  0  0
  182.0740  178.6780  141.3610 C   0  0  0  0  0  1  0  0  0  0  0  0
  180.0690  178.8990  139.7920 C   0  0  0  0  0  1  0  0  0  0  0  0
  182.3080  179.1430  138.9590 N   0  0  0  0  0  0  0  0  0  0  0  0
  1  9  1  0  0  0  0
  2  5  1  0  0  0  0
  2  3  1  0  0  0  0
  3  7  1  0  0  0  0
  5 14  2  0  0  0  0
  6  1  2  0  0  0  0
  7  4  2  0  0  0  0
  8 12  2  0  0  0  0
  8 13  1  0  0  0  0
 10 19  1  0  0  0  0
 11  4  1  0  0  0  0
 11 15  2  0  0  0  0
 12 16  1  0  0  0  0
 13  2  2  0  0  0  0
 14  1  1  0  0  0  0
 16 17  2  0  0  0  0
 16  5  1  0  0  0  0
 17  6  1  0  0  0  0
 18 13  1  0  0  0  0
 18 10  2  0  0  0  0
 19  3  2  0  0  0  0
 19 20  1  0  0  0  0
 20 11  1  0  0  0  0
 21  8  1  0  0  0  0
 22 21  1  0  0  0  0
 23 22  1  0  0  0  0
 24 23  1  0  0  0  0
 24 25  1  0  0  0  0
 25 27  1  0  0  0  0
 27 31  1  0  0  0  0
 27 26  2  0  0  0  0
 28 29  1  0  0  0  0
 30 28  1  0  0  0  0
 31 28  2  0  0  0  0
M  END
>  <MODEL>
2

>  <REMARK>
 VINA RESULT:     -10.1      2.505      4.675
  Name = 
  7 active torsions:
  status: ('A' for Active; 'I' for Inactive)
    1  A    between atoms: C_3  and  C_19
    2  A    between atoms: C_3  and  C_22
    3  A    between atoms: C_7  and  N_9
    4  A    between atoms: C_7  and  C_22
    5  A    between atoms: N_9  and  C_23
    6  A    between atoms: C_15  and  C_23
    7  A    between atoms: C_19  and  N_24
                            x       y       z     vdW  Elec       q    Type
                         _______ _______ _______ _____ _____    ______ ____

>  <TORSDO>
F 7

$$$$
=
 OpenBabel10262419283D

 31 34  0  0  0  0  0  0  0  0999 V2000
  188.4380  177.3950  147.8330 C   0  0  0  0  0  0  0  0  0  0  0  0
  187.5500  177.9200  144.2040 C   0  0  0  0  0  0  0  0  0  0  0  0
  186.1470  178.2230  144.1690 C   0  0  0  0  0  0  0  0  0  0  0  0
  184.0200  178.5640  145.3810 C   0  0  0  0  0  3  0  0  0  0  0  0
  188.2880  177.6510  145.4040 C   0  0  0  0  0  0  0  0  0  0  0  0
  189.8000  177.1190  147.7370 C   0  0  0  0  0  3  0  0  0  0  0  0
  185.3200  178.2850  145.3970 C   0  0  0  0  0  3  0  0  0  0  0  0
  189.6380  177.5930  142.9280 C   0  0  0  0  0  0  0  0  0  0  0  0
  187.8340  177.4080  149.0460 F   0  0  0  0  0  0  0  0  0  0  0  0
  186.2380  178.4330  141.7460 C   0  0  0  0  0  3  0  0  0  0  0  0
  183.3220  178.8330  144.1240 C   0  0  0  0  0  0  0  0  0  0  0  0
  190.3290  177.3450  144.1060 C   0  0  0  0  0  3  0  0  0  0  0  0
  188.2600  177.8850  142.9640 C   0  0  0  0  0  0  0  0  0  0  0  0
  187.6950  177.6570  146.6800 C   0  0  0  0  0  3  0  0  0  0  0  0
  182.0910  179.0950  144.1450 O   0  0  0  0  0  0  0  0  0  0  0  0
  189.6760  177.3670  145.3300 C   0  0  0  0  0  0  0  0  0  0  0  0
  190.4170  177.1060  146.4870 C   0  0  0  0  0  3  0  0  0  0  0  0
  187.5910  178.1420  141.7630 C   0  0  0  0  0  3  0  0  0  0  0  0
  185.5110  178.4780  142.9290 C   0  0  0  0  0  0  0  0  0  0  0  0
  184.0460  178.8030  142.8130 C   0  0  0  0  0  2  0  0  0  0  0  0
  190.4120  177.5740  141.6480 C   0  0  0  0  0  2  0  0  0  0  0  0
  190.5110  176.2120  141.1560 N   0  0  0  0  0  2  0  0  0  0  0  0
  190.6720  176.2990  139.7150 C   0  0  0  0  0  2  0  0  0  0  0  0
  190.2100  177.6610  139.2210 C   0  0  0  0  0  2  0  0  0  0  0  0
  189.4420  177.5480  137.9090 C   0  0  0  0  0  2  0  0  0  0  0  0
  188.8440  179.7360  137.2050 O   0  0  0  0  0  0  0  0  0  0  0  0
  188.4700  178.6680  137.7590 C   0  0  0  0  0  0  0  0  0  0  0  0
  186.1100  178.0160  137.5570 C   0  0  0  0  0  0  0  0  0  0  0  0
  186.2090  177.5670  136.1360 C   0  0  0  0  0  1  0  0  0  0  0  0
  184.7910  177.9130  138.2340 C   0  0  0  0  0  1  0  0  0  0  0  0
  187.1220  178.4900  138.2230 N   0  0  0  0  0  0  0  0  0  0  0  0
  1  9  1  0  0  0  0
  2  5  1  0  0  0  0
  3  2  1  0  0  0  0
  3  7  1  0  0  0  0
  4  7  2  0  0  0  0
  5 14  1  0  0  0  0
  6  1  1  0  0  0  0
  8 13  1  0  0  0  0
  8 12  2  0  0  0  0
 10 18  2  0  0  0  0
 10 19  1  0  0  0  0
 11 15  2  0  0  0  0
 11  4  1  0  0  0  0
 12 16  1  0  0  0  0
 13  2  2  0  0  0  0
 14  1  2  0  0  0  0
 16  5  2  0  0  0  0
 16 17  1  0  0  0  0
 17  6  2  0  0  0  0
 18 13  1  0  0  0  0
 19  3  2  0  0  0  0
 20 19  1  0  0  0  0
 20 11  1  0  0  0  0
 21  8  1  0  0  0  0
 22 21  1  0  0  0  0
 23 22  1  0  0  0  0
 24 23  1  0  0  0  0
 25 24  1  0  0  0  0
 26 27  2  0  0  0  0
 27 25  1  0  0  0  0
 27 31  1  0  0  0  0
 28 31  2  0  0  0  0
 28 30  1  0  0  0  0
 29 28  1  0  0  0  0
M  END
>  <MODEL>
3

>  <REMARK>
 VINA RESULT:     -10.0      2.643      5.201
  Name = 
  7 active torsions:
  status: ('A' for Active; 'I' for Inactive)
    1  A    between atoms: C_3  and  C_19
    2  A    between atoms: C_3  and  C_22
    3  A    between atoms: C_7  and  N_9
    4  A    between atoms: C_7  and  C_22
    5  A    between atoms: N_9  and  C_23
    6  A    between atoms: C_15  and  C_23
    7  A    between atoms: C_19  and  N_24
                            x       y       z     vdW  Elec       q    Type
                         _______ _______ _______ _____ _____    ______ ____

>  <TORSDO>
F 7

$$$$
=
 OpenBabel10262419283D

 31 34  0  0  0  0  0  0  0  0999 V2000
  189.6460  177.6940  140.8060 C   0  0  0  0  0  0  0  0  0  0  0  0
  188.0980  177.7150  144.2470 C   0  0  0  0  0  0  0  0  0  0  0  0
  189.1470  177.3730  145.1660 C   0  0  0  0  0  0  0  0  0  0  0  0
  191.5120  176.7680  145.5550 C   0  0  0  0  0  3  0  0  0  0  0  0
  188.2710  177.8170  142.8270 C   0  0  0  0  0  0  0  0  0  0  0  0
  188.5500  178.0410  140.0190 C   0  0  0  0  0  3  0  0  0  0  0  0
  190.5300  177.0870  144.7180 C   0  0  0  0  0  3  0  0  0  0  0  0
  185.7240  178.3140  143.9330 C   0  0  0  0  0  0  0  0  0  0  0  0
  190.8490  177.4620  140.2270 F   0  0  0  0  0  0  0  0  0  0  0  0
  187.5950  177.5600  147.0310 C   0  0  0  0  0  3  0  0  0  0  0  0
  191.2750  176.6830  146.9970 C   0  0  0  0  0  0  0  0  0  0  0  0
  185.9220  178.4130  142.5620 C   0  0  0  0  0  3  0  0  0  0  0  0
  186.7970  177.9730  144.7790 C   0  0  0  0  0  0  0  0  0  0  0  0
  189.5050  177.5850  142.1910 C   0  0  0  0  0  3  0  0  0  0  0  0
  192.2270  176.3790  147.7620 O   0  0  0  0  0  0  0  0  0  0  0  0
  187.1680  178.1690  142.0060 C   0  0  0  0  0  0  0  0  0  0  0  0
  187.3140  178.2780  140.6190 C   0  0  0  0  0  3  0  0  0  0  0  0
  186.5720  177.8900  146.1580 C   0  0  0  0  0  3  0  0  0  0  0  0
  188.8740  177.3020  146.5540 C   0  0  0  0  0  0  0  0  0  0  0  0
  189.9200  176.9500  147.5780 C   0  0  0  0  0  2  0  0  0  0  0  0
  184.3580  178.6140  144.4650 C   0  0  0  0  0  2  0  0  0  0  0  0
  183.3970  178.6100  143.3770 N   0  0  0  0  0  2  0  0  0  0  0  0
  182.1590  179.1480  143.9120 C   0  0  0  0  0  2  0  0  0  0  0  0
  180.9730  178.5990  143.1350 C   0  0  0  0  0  2  0  0  0  0  0  0
  180.4670  179.6010  142.1040 C   0  0  0  0  0  2  0  0  0  0  0  0
  179.8450  178.3900  140.1570 O   0  0  0  0  0  0  0  0  0  0  0  0
  180.7120  179.1130  140.7170 C   0  0  0  0  0  0  0  0  0  0  0  0
  182.9600  178.7680  139.7860 C   0  0  0  0  0  0  0  0  0  0  0  0
  183.0560  177.3310  140.1820 C   0  0  0  0  0  1  0  0  0  0  0  0
  184.1100  179.3750  139.0680 C   0  0  0  0  0  1  0  0  0  0  0  0
  181.9190  179.5050  140.0420 N   0  0  0  0  0  0  0  0  0  0  0  0
  1 14  1  0  0  0  0
  2 13  2  0  0  0  0
  2  3  1  0  0  0  0
  3 19  2  0  0  0  0
  4 11  1  0  0  0  0
  5  2  1  0  0  0  0
  6 17  1  0  0  0  0
  6  1  2  0  0  0  0
  7  3  1  0  0  0  0
  7  4  2  0  0  0  0
  8 21  1  0  0  0  0
  8 13  1  0  0  0  0
  9  1  1  0  0  0  0
 11 20  1  0  0  0  0
 11 15  2  0  0  0  0
 12  8  2  0  0  0  0
 13 18  1  0  0  0  0
 14  5  2  0  0  0  0
 16 12  1  0  0  0  0
 16  5  1  0  0  0  0
 17 16  2  0  0  0  0
 18 10  2  0  0  0  0
 19 10  1  0  0  0  0
 19 20  1  0  0  0  0
 22 23  1  0  0  0  0
 22 21  1  0  0  0  0
 24 23  1  0  0  0  0
 25 24  1  0  0  0  0
 26 27  2  0  0  0  0
 27 25  1  0  0  0  0
 28 31  2  0  0  0  0
 28 29  1  0  0  0  0
 30 28  1  0  0  0  0
 31 27  1  0  0  0  0
M  END
>  <MODEL>
4

>  <REMARK>
 VINA RESULT:      -9.7      3.583      6.372
  Name = 
  7 active torsions:
  status: ('A' for Active; 'I' for Inactive)
    1  A    between atoms: C_3  and  C_19
    2  A    between atoms: C_3  and  C_22
    3  A    between atoms: C_7  and  N_9
    4  A    between atoms: C_7  and  C_22
    5  A    between atoms: N_9  and  C_23
    6  A    between atoms: C_15  and  C_23
    7  A    between atoms: C_19  and  N_24
                            x       y       z     vdW  Elec       q    Type
                         _______ _______ _______ _____ _____    ______ ____

>  <TORSDO>
F 7

$$$$
=
 OpenBabel10262419283D

 31 34  0  0  0  0  0  0  0  0999 V2000
  190.1510  177.5080  140.7980 C   0  0  0  0  0  0  0  0  0  0  0  0
  188.3760  177.6020  144.1270 C   0  0  0  0  0  0  0  0  0  0  0  0
  189.3580  177.2630  145.1190 C   0  0  0  0  0  0  0  0  0  0  0  0
  191.6830  176.6400  145.6760 C   0  0  0  0  0  3  0  0  0  0  0  0
  188.6460  177.6790  142.7200 C   0  0  0  0  0  0  0  0  0  0  0  0
  189.1150  177.8540  139.9340 C   0  0  0  0  0  3  0  0  0  0  0  0
  190.7640  176.9550  144.7690 C   0  0  0  0  0  3  0  0  0  0  0  0
  186.0360  178.2220  143.6440 C   0  0  0  0  0  0  0  0  0  0  0  0
  191.3870  177.2540  140.3050 F   0  0  0  0  0  0  0  0  0  0  0  0
  187.6860  177.4970  146.8720 C   0  0  0  0  0  3  0  0  0  0  0  0
  191.3500  176.5800  147.0990 C   0  0  0  0  0  0  0  0  0  0  0  0
  186.3270  178.2970  142.2880 C   0  0  0  0  0  3  0  0  0  0  0  0
  187.0460  177.8830  144.5660 C   0  0  0  0  0  0  0  0  0  0  0  0
  189.9160  177.4230  142.1720 C   0  0  0  0  0  3  0  0  0  0  0  0
  192.2440  176.2790  147.9310 O   0  0  0  0  0  0  0  0  0  0  0  0
  187.6050  178.0290  141.8210 C   0  0  0  0  0  0  0  0  0  0  0  0
  187.8440  178.1150  140.4460 C   0  0  0  0  0  3  0  0  0  0  0  0
  186.7280  177.8250  145.9270 C   0  0  0  0  0  3  0  0  0  0  0  0
  188.9910  177.2180  146.4870 C   0  0  0  0  0  0  0  0  0  0  0  0
  189.9620  176.8720  147.5840 C   0  0  0  0  0  2  0  0  0  0  0  0
  184.6420  178.5450  144.0780 C   0  0  0  0  0  2  0  0  0  0  0  0
  184.0010  179.3850  143.0830 N   0  0  0  0  0  2  0  0  0  0  0  0
  182.6360  178.9080  142.9510 C   0  0  0  0  0  2  0  0  0  0  0  0
  182.3200  178.6300  141.4890 C   0  0  0  0  0  2  0  0  0  0  0  0
  183.4990  177.9770  140.7770 C   0  0  0  0  0  2  0  0  0  0  0  0
  184.5510  179.7530  139.6010 O   0  0  0  0  0  0  0  0  0  0  0  0
  183.8440  178.7130  139.5280 C   0  0  0  0  0  0  0  0  0  0  0  0
  184.0770  177.5510  137.3750 C   0  0  0  0  0  0  0  0  0  0  0  0
  185.5260  177.2320  137.5440 C   0  0  0  0  0  1  0  0  0  0  0  0
  183.4020  177.1030  136.1300 C   0  0  0  0  0  1  0  0  0  0  0  0
  183.3850  178.1990  138.2660 N   0  0  0  0  0  0  0  0  0  0  0  0
  1 14  1  0  0  0  0
  2 13  2  0  0  0  0
  2  3  1  0  0  0  0
  3 19  2  0  0  0  0
  4 11  1  0  0  0  0
  5  2  1  0  0  0  0
  6 17  1  0  0  0  0
  6  1  2  0  0  0  0
  7  3  1  0  0  0  0
  7  4  2  0  0  0  0
  8 21  1  0  0  0  0
  8 13  1  0  0  0  0
  9  1  1  0  0  0  0
 11 20  1  0  0  0  0
 11 15  2  0  0  0  0
 12  8  2  0  0  0  0
 13 18  1  0  0  0  0
 14  5  2  0  0  0  0
 16 12  1  0  0  0  0
 16  5  1  0  0  0  0
 17 16  2  0  0  0  0
 18 10  2  0  0  0  0
 19 10  1  0  0  0  0
 19 20  1  0  0  0  0
 22 21  1  0  0  0  0
 23 22  1  0  0  0  0
 24 23  1  0  0  0  0
 25 24  1  0  0  0  0
 27 26  2  0  0  0  0
 27 25  1  0  0  0  0
 28 29  1  0  0  0  0
 28 31  2  0  0  0  0
 30 28  1  0  0  0  0
 31 27  1  0  0  0  0
M  END
>  <MODEL>
5

>  <REMARK>
 VINA RESULT:      -9.6      3.167      5.539
  Name = 
  7 active torsions:
  status: ('A' for Active; 'I' for Inactive)
    1  A    between atoms: C_3  and  C_19
    2  A    between atoms: C_3  and  C_22
    3  A    between atoms: C_7  and  N_9
    4  A    between atoms: C_7  and  C_22
    5  A    between atoms: N_9  and  C_23
    6  A    between atoms: C_15  and  C_23
    7  A    between atoms: C_19  and  N_24
                            x       y       z     vdW  Elec       q    Type
                         _______ _______ _______ _____ _____    ______ ____

>  <TORSDO>
F 7

$$$$
=
 OpenBabel10262419283D

 31 34  0  0  0  0  0  0  0  0999 V2000
  188.4100  177.8370  148.2430 C   0  0  0  0  0  0  0  0  0  0  0  0
  187.6110  177.7260  144.5560 C   0  0  0  0  0  0  0  0  0  0  0  0
  186.2390  178.1270  144.4270 C   0  0  0  0  0  0  0  0  0  0  0  0
  184.1330  178.8600  145.4940 C   0  0  0  0  0  3  0  0  0  0  0  0
  188.3100  177.6350  145.8060 C   0  0  0  0  0  0  0  0  0  0  0  0
  189.7450  177.4410  148.2380 C   0  0  0  0  0  3  0  0  0  0  0  0
  185.4050  178.4870  145.5970 C   0  0  0  0  0  3  0  0  0  0  0  0
  189.6800  176.9970  143.4240 C   0  0  0  0  0  0  0  0  0  0  0  0
  187.7950  178.1290  149.4140 F   0  0  0  0  0  0  0  0  0  0  0  0
  186.3750  177.8620  142.0120 C   0  0  0  0  0  3  0  0  0  0  0  0
  183.4750  178.9380  144.1890 C   0  0  0  0  0  0  0  0  0  0  0  0
  190.3340  176.9250  144.6460 C   0  0  0  0  0  3  0  0  0  0  0  0
  188.3310  177.3980  143.3660 C   0  0  0  0  0  0  0  0  0  0  0  0
  187.7050  177.9320  147.0410 C   0  0  0  0  0  3  0  0  0  0  0  0
  182.2690  179.2950  144.1270 O   0  0  0  0  0  0  0  0  0  0  0  0
  189.6710  177.2330  145.8250 C   0  0  0  0  0  0  0  0  0  0  0  0
  190.3740  177.1400  147.0300 C   0  0  0  0  0  3  0  0  0  0  0  0
  187.6990  177.4730  142.1200 C   0  0  0  0  0  3  0  0  0  0  0  0
  185.6410  178.1890  143.1440 C   0  0  0  0  0  0  0  0  0  0  0  0
  184.2090  178.6010  142.9280 C   0  0  0  0  0  2  0  0  0  0  0  0
  190.4640  176.6730  142.1920 C   0  0  0  0  0  2  0  0  0  0  0  0
  191.5750  177.5990  142.0600 N   0  0  0  0  0  2  0  0  0  0  0  0
  192.0430  177.4960  140.6890 C   0  0  0  0  0  2  0  0  0  0  0  0
  190.8600  177.3650  139.7420 C   0  0  0  0  0  2  0  0  0  0  0  0
  191.1020  176.2890  138.6910 C   0  0  0  0  0  2  0  0  0  0  0  0
  190.4550  176.1290  136.4110 O   0  0  0  0  0  0  0  0  0  0  0  0
  190.0970  176.3760  137.5930 C   0  0  0  0  0  0  0  0  0  0  0  0
  188.1060  177.8160  137.6430 C   0  0  0  0  0  0  0  0  0  0  0  0
  188.7400  178.9570  136.9180 C   0  0  0  0  0  1  0  0  0  0  0  0
  186.6900  177.9560  138.0690 C   0  0  0  0  0  1  0  0  0  0  0  0
  188.7370  176.7110  137.9160 N   0  0  0  0  0  0  0  0  0  0  0  0
  1  9  1  0  0  0  0
  2  5  1  0  0  0  0
  3  2  1  0  0  0  0
  3  7  1  0  0  0  0
  4  7  2  0  0  0  0
  5 16  2  0  0  0  0
  5 14  1  0  0  0  0
  6  1  1  0  0  0  0
  8 12  2  0  0  0  0
 10 18  2  0  0  0  0
 10 19  1  0  0  0  0
 11  4  1  0  0  0  0
 12 16  1  0  0  0  0
 13  8  1  0  0  0  0
 13  2  2  0  0  0  0
 14  1  2  0  0  0  0
 15 11  2  0  0  0  0
 16 17  1  0  0  0  0
 17  6  2  0  0  0  0
 18 13  1  0  0  0  0
 19  3  2  0  0  0  0
 20 19  1  0  0  0  0
 20 11  1  0  0  0  0
 21  8  1  0  0  0  0
 22 21  1  0  0  0  0
 23 22  1  0  0  0  0
 24 23  1  0  0  0  0
 25 24  1  0  0  0  0
 26 27  2  0  0  0  0
 27 31  1  0  0  0  0
 27 25  1  0  0  0  0
 28 31  2  0  0  0  0
 28 30  1  0  0  0  0
 29 28  1  0  0  0  0
M  END
>  <MODEL>
6

>  <REMARK>
 VINA RESULT:      -9.6      2.442      4.903
  Name = 
  7 active torsions:
  status: ('A' for Active; 'I' for Inactive)
    1  A    between atoms: C_3  and  C_19
    2  A    between atoms: C_3  and  C_22
    3  A    between atoms: C_7  and  N_9
    4  A    between atoms: C_7  and  C_22
    5  A    between atoms: N_9  and  C_23
    6  A    between atoms: C_15  and  C_23
    7  A    between atoms: C_19  and  N_24
                            x       y       z     vdW  Elec       q    Type
                         _______ _______ _______ _____ _____    ______ ____

>  <TORSDO>
F 7

$$$$
=
 OpenBabel10262419283D

 31 34  0  0  0  0  0  0  0  0999 V2000
  187.2550  178.2500  139.9860 C   0  0  0  0  0  0  0  0  0  0  0  0
  184.7440  178.5930  142.7810 C   0  0  0  0  0  0  0  0  0  0  0  0
  183.4720  178.8230  142.1570 C   0  0  0  0  0  0  0  0  0  0  0  0
  182.1420  179.1050  140.0930 C   0  0  0  0  0  3  0  0  0  0  0  0
  185.9720  178.4070  142.0640 C   0  0  0  0  0  0  0  0  0  0  0  0
  188.4270  178.0280  140.7060 C   0  0  0  0  0  3  0  0  0  0  0  0
  183.3120  178.8930  140.6860 C   0  0  0  0  0  3  0  0  0  0  0  0
  186.0100  178.3210  144.8830 C   0  0  0  0  0  0  0  0  0  0  0  0
  187.2890  178.2850  138.6320 F   0  0  0  0  0  0  0  0  0  0  0  0
  182.4050  178.9360  144.3420 C   0  0  0  0  0  3  0  0  0  0  0  0
  180.9200  179.2840  140.8790 C   0  0  0  0  0  0  0  0  0  0  0  0
  187.1830  178.1370  144.1630 C   0  0  0  0  0  3  0  0  0  0  0  0
  184.7940  178.5430  144.2090 C   0  0  0  0  0  0  0  0  0  0  0  0
  186.0460  178.4370  140.6590 C   0  0  0  0  0  3  0  0  0  0  0  0
  179.8280  179.4830  140.2860 O   0  0  0  0  0  0  0  0  0  0  0  0
  187.1780  178.1800  142.7770 C   0  0  0  0  0  0  0  0  0  0  0  0
  188.3870  177.9920  142.0990 C   0  0  0  0  0  3  0  0  0  0  0  0
  183.6250  178.7160  144.9580 C   0  0  0  0  0  3  0  0  0  0  0  0
  182.3140  178.9910  142.9570 C   0  0  0  0  0  0  0  0  0  0  0  0
  180.9470  179.2350  142.3770 C   0  0  0  0  0  2  0  0  0  0  0  0
  186.0860  178.2400  146.3750 C   0  0  0  0  0  2  0  0  0  0  0  0
  187.2500  177.4630  146.7640 N   0  0  0  0  0  2  0  0  0  0  0  0
  187.7750  178.0760  147.9720 C   0  0  0  0  0  2  0  0  0  0  0  0
  189.2860  177.9090  148.0260 C   0  0  0  0  0  2  0  0  0  0  0  0
  189.7310  176.6210  147.3440 C   0  0  0  0  0  2  0  0  0  0  0  0
  192.0460  177.0180  147.6970 O   0  0  0  0  0  0  0  0  0  0  0  0
  191.1410  176.7230  146.8720 C   0  0  0  0  0  0  0  0  0  0  0  0
  191.3120  177.2640  144.4810 C   0  0  0  0  0  0  0  0  0  0  0  0
  190.8130  178.6650  144.6180 C   0  0  0  0  0  1  0  0  0  0  0  0
  191.6800  176.7810  143.1250 C   0  0  0  0  0  1  0  0  0  0  0  0
  191.4370  176.4540  145.4910 N   0  0  0  0  0  0  0  0  0  0  0  0
  1 14  2  0  0  0  0
  1  6  1  0  0  0  0
  2 13  1  0  0  0  0
  3  2  2  0  0  0  0
  3 19  1  0  0  0  0
  4  7  2  0  0  0  0
  4 11  1  0  0  0  0
  5 16  2  0  0  0  0
  5  2  1  0  0  0  0
  6 17  2  0  0  0  0
  7  3  1  0  0  0  0
  8 21  1  0  0  0  0
  9  1  1  0  0  0  0
 10 18  1  0  0  0  0
 11 20  1  0  0  0  0
 12  8  2  0  0  0  0
 13  8  1  0  0  0  0
 13 18  2  0  0  0  0
 14  5  1  0  0  0  0
 15 11  2  0  0  0  0
 16 12  1  0  0  0  0
 17 16  1  0  0  0  0
 19 10  2  0  0  0  0
 20 19  1  0  0  0  0
 21 22  1  0  0  0  0
 22 23  1  0  0  0  0
 23 24  1  0  0  0  0
 25 24  1  0  0  0  0
 27 25  1  0  0  0  0
 27 26  2  0  0  0  0
 28 29  1  0  0  0  0
 28 31  2  0  0  0  0
 30 28  1  0  0  0  0
 31 27  1  0  0  0  0
M  END
>  <MODEL>
7

>  <REMARK>
 VINA RESULT:      -9.4      3.679      7.891
  Name = 
  7 active torsions:
  status: ('A' for Active; 'I' for Inactive)
    1  A    between atoms: C_3  and  C_19
    2  A    between atoms: C_3  and  C_22
    3  A    between atoms: C_7  and  N_9
    4  A    between atoms: C_7  and  C_22
    5  A    between atoms: N_9  and  C_23
    6  A    between atoms: C_15  and  C_23
    7  A    between atoms: C_19  and  N_24
                            x       y       z     vdW  Elec       q    Type
                         _______ _______ _______ _____ _____    ______ ____

>  <TORSDO>
F 7

$$$$
=
 OpenBabel10262419283D

 31 34  0  0  0  0  0  0  0  0999 V2000
  185.2470  178.2880  145.6520 C   0  0  0  0  0  0  0  0  0  0  0  0
  188.5450  177.5420  143.9780 C   0  0  0  0  0  0  0  0  0  0  0  0
  189.4550  177.1680  145.0240 C   0  0  0  0  0  0  0  0  0  0  0  0
  189.8810  176.7830  147.4280 C   0  0  0  0  0  3  0  0  0  0  0  0
  187.1740  177.9050  144.1940 C   0  0  0  0  0  0  0  0  0  0  0  0
  184.4610  178.6250  144.5530 C   0  0  0  0  0  3  0  0  0  0  0  0
  189.0510  177.1270  146.4480 C   0  0  0  0  0  3  0  0  0  0  0  0
  188.1910  177.9070  141.5620 C   0  0  0  0  0  0  0  0  0  0  0  0
  184.7130  178.3040  146.8970 F   0  0  0  0  0  0  0  0  0  0  0  0
  191.2260  176.8440  143.3860 C   0  0  0  0  0  3  0  0  0  0  0  0
  191.2700  176.4190  147.1450 C   0  0  0  0  0  0  0  0  0  0  0  0
  186.8660  178.2470  141.7990 C   0  0  0  0  0  3  0  0  0  0  0  0
  189.0320  177.5510  142.6350 C   0  0  0  0  0  0  0  0  0  0  0  0
  186.5850  177.9320  145.4710 C   0  0  0  0  0  3  0  0  0  0  0  0
  192.0300  176.0980  148.0960 O   0  0  0  0  0  0  0  0  0  0  0  0
  186.3540  178.2530  143.0880 C   0  0  0  0  0  0  0  0  0  0  0  0
  185.0140  178.6070  143.2740 C   0  0  0  0  0  3  0  0  0  0  0  0
  190.3600  177.2020  142.3660 C   0  0  0  0  0  3  0  0  0  0  0  0
  190.7910  176.8220  144.7050 C   0  0  0  0  0  0  0  0  0  0  0  0
  191.8030  176.4200  145.7450 C   0  0  0  0  0  2  0  0  0  0  0  0
  188.6670  177.9010  140.1440 C   0  0  0  0  0  2  0  0  0  0  0  0
  187.7190  178.6130  139.3060 N   0  0  0  0  0  2  0  0  0  0  0  0
  187.3650  177.7140  138.2220 C   0  0  0  0  0  2  0  0  0  0  0  0
  186.1680  178.2620  137.4600 C   0  0  0  0  0  2  0  0  0  0  0  0
  184.9080  178.2520  138.3190 C   0  0  0  0  0  2  0  0  0  0  0  0
  182.9300  177.7630  137.0980 O   0  0  0  0  0  0  0  0  0  0  0  0
  183.8940  177.3090  137.7700 C   0  0  0  0  0  0  0  0  0  0  0  0
  184.4520  174.9990  137.1440 C   0  0  0  0  0  0  0  0  0  0  0  0
  184.8100  175.3190  135.7310 C   0  0  0  0  0  1  0  0  0  0  0  0
  184.5550  173.5850  137.5900 C   0  0  0  0  0  1  0  0  0  0  0  0
  184.0570  175.8990  137.9970 N   0  0  0  0  0  0  0  0  0  0  0  0
  1  9  1  0  0  0  0
  2  5  1  0  0  0  0
  2  3  1  0  0  0  0
  3  7  1  0  0  0  0
  5 14  2  0  0  0  0
  6  1  2  0  0  0  0
  7  4  2  0  0  0  0
  8 12  2  0  0  0  0
  8 13  1  0  0  0  0
 10 19  1  0  0  0  0
 11  4  1  0  0  0  0
 11 15  2  0  0  0  0
 12 16  1  0  0  0  0
 13  2  2  0  0  0  0
 14  1  1  0  0  0  0
 16 17  2  0  0  0  0
 16  5  1  0  0  0  0
 17  6  1  0  0  0  0
 18 13  1  0  0  0  0
 18 10  2  0  0  0  0
 19  3  2  0  0  0  0
 19 20  1  0  0  0  0
 20 11  1  0  0  0  0
 21  8  1  0  0  0  0
 22 21  1  0  0  0  0
 23 22  1  0  0  0  0
 24 23  1  0  0  0  0
 24 25  1  0  0  0  0
 26 27  2  0  0  0  0
 27 31  1  0  0  0  0
 27 25  1  0  0  0  0
 28 30  1  0  0  0  0
 28 31  2  0  0  0  0
 29 28  1  0  0  0  0
M  END
>  <MODEL>
8

>  <REMARK>
 VINA RESULT:      -9.3      2.360      3.672
  Name = 
  7 active torsions:
  status: ('A' for Active; 'I' for Inactive)
    1  A    between atoms: C_3  and  C_19
    2  A    between atoms: C_3  and  C_22
    3  A    between atoms: C_7  and  N_9
    4  A    between atoms: C_7  and  C_22
    5  A    between atoms: N_9  and  C_23
    6  A    between atoms: C_15  and  C_23
    7  A    between atoms: C_19  and  N_24
                            x       y       z     vdW  Elec       q    Type
                         _______ _______ _______ _____ _____    ______ ____

>  <TORSDO>
F 7

$$$$
=
 OpenBabel10262419283D

 31 34  0  0  0  0  0  0  0  0999 V2000
  190.4120  176.7600  146.5500 C   0  0  0  0  0  0  0  0  0  0  0  0
  188.2110  177.6860  143.6290 C   0  0  0  0  0  0  0  0  0  0  0  0
  186.9290  178.0280  144.1800 C   0  0  0  0  0  0  0  0  0  0  0  0
  185.4750  178.2950  146.1600 C   0  0  0  0  0  3  0  0  0  0  0  0
  189.3400  177.2730  144.4110 C   0  0  0  0  0  0  0  0  0  0  0  0
  191.6070  176.4600  145.8980 C   0  0  0  0  0  3  0  0  0  0  0  0
  186.6550  177.9810  145.6340 C   0  0  0  0  0  3  0  0  0  0  0  0
  189.6060  177.4400  141.6080 C   0  0  0  0  0  0  0  0  0  0  0  0
  190.3340  176.6620  147.8990 F   0  0  0  0  0  0  0  0  0  0  0  0
  186.0770  178.4880  141.9470 C   0  0  0  0  0  3  0  0  0  0  0  0
  184.3590  178.7130  145.3100 C   0  0  0  0  0  0  0  0  0  0  0  0
  190.6850  177.0510  142.3900 C   0  0  0  0  0  3  0  0  0  0  0  0
  188.3750  177.7620  142.2120 C   0  0  0  0  0  0  0  0  0  0  0  0
  189.2960  177.1610  145.8130 C   0  0  0  0  0  3  0  0  0  0  0  0
  183.2540  179.0030  145.8400 O   0  0  0  0  0  0  0  0  0  0  0  0
  190.5670  176.9620  143.7690 C   0  0  0  0  0  0  0  0  0  0  0  0
  191.6830  176.5620  144.5100 C   0  0  0  0  0  3  0  0  0  0  0  0
  187.3070  178.1610  141.4010 C   0  0  0  0  0  3  0  0  0  0  0  0
  185.8770  178.4280  143.3200 C   0  0  0  0  0  0  0  0  0  0  0  0
  184.5070  178.8010  143.8220 C   0  0  0  0  0  2  0  0  0  0  0  0
  189.8130  177.5350  140.1290 C   0  0  0  0  0  2  0  0  0  0  0  0
  190.5560  176.3780  139.6630 N   0  0  0  0  0  2  0  0  0  0  0  0
  190.2490  176.2250  138.2520 C   0  0  0  0  0  2  0  0  0  0  0  0
  188.8500  176.7500  137.9640 C   0  0  0  0  0  2  0  0  0  0  0  0
  188.8920  178.0070  137.1030 C   0  0  0  0  0  2  0  0  0  0  0  0
  187.3220  178.2470  135.3360 O   0  0  0  0  0  0  0  0  0  0  0  0
  187.5380  178.3380  136.5740 C   0  0  0  0  0  0  0  0  0  0  0  0
  185.4310  178.0600  137.8060 C   0  0  0  0  0  0  0  0  0  0  0  0
  185.1000  176.7270  137.2200 C   0  0  0  0  0  1  0  0  0  0  0  0
  184.4850  178.6460  138.7920 C   0  0  0  0  0  1  0  0  0  0  0  0
  186.5040  178.7260  137.4940 N   0  0  0  0  0  0  0  0  0  0  0  0
  1  9  1  0  0  0  0
  2  3  1  0  0  0  0
  2  5  1  0  0  0  0
  3  7  1  0  0  0  0
  5 14  1  0  0  0  0
  6  1  1  0  0  0  0
  7  4  2  0  0  0  0
  8 13  1  0  0  0  0
  8 12  2  0  0  0  0
 10 19  1  0  0  0  0
 11 15  2  0  0  0  0
 11  4  1  0  0  0  0
 12 16  1  0  0  0  0
 13  2  2  0  0  0  0
 14  1  2  0  0  0  0
 16  5  2  0  0  0  0
 16 17  1  0  0  0  0
 17  6  2  0  0  0  0
 18 10  2  0  0  0  0
 18 13  1  0  0  0  0
 19 20  1  0  0  0  0
 19  3  2  0  0  0  0
 20 11  1  0  0  0  0
 21  8  1  0  0  0  0
 22 21  1  0  0  0  0
 23 22  1  0  0  0  0
 24 23  1  0  0  0  0
 25 24  1  0  0  0  0
 26 27  2  0  0  0  0
 27 25  1  0  0  0  0
 27 31  1  0  0  0  0
 28 30  1  0  0  0  0
 29 28  1  0  0  0  0
 31 28  2  0  0  0  0
M  END
>  <MODEL>
9

>  <REMARK>
 VINA RESULT:      -9.2      2.511      5.207
  Name = 
  7 active torsions:
  status: ('A' for Active; 'I' for Inactive)
    1  A    between atoms: C_3  and  C_19
    2  A    between atoms: C_3  and  C_22
    3  A    between atoms: C_7  and  N_9
    4  A    between atoms: C_7  and  C_22
    5  A    between atoms: N_9  and  C_23
    6  A    between atoms: C_15  and  C_23
    7  A    between atoms: C_19  and  N_24
                            x       y       z     vdW  Elec       q    Type
                         _______ _______ _______ _____ _____    ______ ____

>  <TORSDO>
F 7

$$$$
