=
 OpenBabel10262419343D

 31 35  0  0  1  0  0  0  0  0999 V2000
  188.6370  177.4360  144.0900 C   0  0  0  0  0  0  0  0  0  0  0  0
  189.3630  177.3140  145.3110 C   0  0  2  0  0  3  0  0  0  0  0  0
  189.5310  177.4910  147.7670 C   0  0  0  0  0  0  0  0  0  0  0  0
  187.3520  177.8490  144.0120 C   0  0  0  0  0  0  0  0  0  0  0  0
  185.3600  178.5320  144.4630 C   0  0  0  0  0  0  0  0  0  0  0  0
  188.8020  177.6090  146.4950 C   0  0  0  0  0  3  0  0  0  0  0  0
  188.5640  177.2180  141.5450 C   0  0  0  0  0  0  0  0  0  0  0  0
  191.3150  176.5600  144.0610 C   0  0  0  0  0  3  0  0  0  0  0  0
  188.9080  177.8040  148.9280 F   0  0  0  0  0  0  0  0  0  0  0  0
  187.2880  177.6310  141.5330 C   0  0  0  0  0  3  0  0  0  0  0  0
  189.2840  177.1090  142.8580 C   0  0  0  0  0  0  0  0  0  0  0  0
  186.4730  178.2230  145.0680 N   0  0  0  0  0  0  0  0  0  0  0  0
  190.7970  177.0800  147.7860 C   0  0  0  0  0  3  0  0  0  0  0  0
  186.6870  177.9490  142.7820 N   0  0  0  0  0  0  0  0  0  0  0  0
  185.3900  178.3840  143.0350 N   0  0  0  0  0  2  0  0  0  0  0  0
  190.6120  176.6770  142.8670 C   0  0  0  0  0  3  0  0  0  0  0  0
  190.7090  176.8720  145.2760 C   0  0  0  0  0  0  0  0  0  0  0  0
  191.5370  176.7200  146.5280 C   0  0  0  0  0  3  0  0  0  0  0  0
  189.0370  178.8950  139.1750 O   0  0  0  0  0  0  0  0  0  0  0  0
  189.4700  177.7130  139.1830 C   0  0  0  0  0  0  0  0  0  0  0  0
  189.2520  176.8740  140.3300 N   0  0  0  0  0  2  0  0  0  0  0  0
  191.7430  176.1030  135.9060 C   0  0  0  0  0  0  0  0  0  0  0  0
  191.5180  176.6970  138.2350 C   0  0  0  0  0  3  0  0  0  0  0  0
  188.0590  177.6400  136.2800 Cl  0  0  0  0  0  0  0  0  0  0  0  0
  192.6940  175.4420  134.5940 Cl  0  0  0  0  0  0  0  0  0  0  0  0
  192.2790  176.1700  137.1910 C   0  0  0  0  0  3  0  0  0  0  0  0
  189.6760  177.0940  136.7050 C   0  0  0  0  0  0  0  0  0  0  0  0
  190.2120  177.1670  138.0170 C   0  0  0  0  0  0  0  0  0  0  0  0
  190.4490  176.5630  135.6660 C   0  0  0  0  0  3  0  0  0  0  0  0
  184.1390  178.9480  145.2030 C   0  0  0  0  0  2  0  0  0  0  0  0
  182.9390  178.9110  144.2790 C   0  0  0  0  0  1  0  0  0  0  0  0
  1  2  1  0  0  0  0
  2  6  1  6  0  0  0
  3 13  1  0  0  0  0
  3  9  1  0  0  0  0
  4  1  2  0  0  0  0
  4 12  1  0  0  0  0
  5 12  2  0  0  0  0
  5 30  1  0  0  0  0
  6  3  2  0  0  0  0
  7 11  1  0  0  0  0
  8 17  2  0  0  0  0
 10  7  2  0  0  0  0
 10 14  1  0  0  0  0
 11 16  2  0  0  0  0
 11  1  1  0  0  0  0
 14 15  1  0  0  0  0
 14  4  1  0  0  0  0
 15  5  1  0  0  0  0
 16  8  1  0  0  0  0
 17  2  1  0  0  0  0
 17 18  1  0  0  0  0
 18 13  2  0  0  0  0
 19 20  2  0  0  0  0
 20 21  1  0  0  0  0
 21  7  1  0  0  0  0
 22 26  1  0  0  0  0
 24 27  1  0  0  0  0
 25 22  1  0  0  0  0
 26 23  2  0  0  0  0
 27 28  2  0  0  0  0
 28 23  1  0  0  0  0
 28 20  1  0  0  0  0
 29 22  2  0  0  0  0
 29 27  1  0  0  0  0
 31 30  1  0  0  0  0
M  END
>  <MODEL>
1

>  <REMARK>
 VINA RESULT:     -10.3      0.000      0.000
  Name = 
  3 active torsions:
  status: ('A' for Active; 'I' for Inactive)
    1  A    between atoms: C_2  and  C_13
    2  A    between atoms: C_9  and  C_22
    3  A    between atoms: C_15  and  N_23
                            x       y       z     vdW  Elec       q    Type
                         _______ _______ _______ _____ _____    ______ ____

>  <TORSDO>
F 3

$$$$
=
 OpenBabel10262419343D

 31 35  0  0  1  0  0  0  0  0999 V2000
  188.5810  177.5020  144.3710 C   0  0  0  0  0  0  0  0  0  0  0  0
  189.1930  177.4490  145.6580 C   0  0  1  0  0  3  0  0  0  0  0  0
  189.1270  177.7290  148.1080 C   0  0  0  0  0  0  0  0  0  0  0  0
  187.3000  177.8770  144.1580 C   0  0  0  0  0  0  0  0  0  0  0  0
  185.2600  178.5260  144.3940 C   0  0  0  0  0  0  0  0  0  0  0  0
  188.5170  177.7770  146.7710 C   0  0  0  0  0  3  0  0  0  0  0  0
  188.7500  177.1780  141.8410 C   0  0  0  0  0  0  0  0  0  0  0  0
  191.2690  176.6960  144.6260 C   0  0  0  0  0  3  0  0  0  0  0  0
  188.3930  178.0730  149.1930 F   0  0  0  0  0  0  0  0  0  0  0  0
  187.4720  177.5570  141.6950 C   0  0  0  0  0  3  0  0  0  0  0  0
  189.3470  177.1430  143.2190 C   0  0  0  0  0  0  0  0  0  0  0  0
  186.3180  178.2720  145.1110 N   0  0  0  0  0  0  0  0  0  0  0  0
  190.3960  177.3530  148.2610 C   0  0  0  0  0  3  0  0  0  0  0  0
  186.7500  177.9100  142.8680 N   0  0  0  0  0  0  0  0  0  0  0  0
  185.4260  178.3210  142.9820 N   0  0  0  0  0  2  0  0  0  0  0  0
  190.6780  176.7460  143.3680 C   0  0  0  0  0  3  0  0  0  0  0  0
  190.5450  177.0410  145.7660 C   0  0  0  0  0  0  0  0  0  0  0  0
  191.2570  176.9620  147.0940 C   0  0  0  0  0  3  0  0  0  0  0  0
  189.2270  178.6820  139.3590 O   0  0  0  0  0  0  0  0  0  0  0  0
  189.7730  177.5570  139.5060 C   0  0  0  0  0  0  0  0  0  0  0  0
  189.5550  176.8040  140.7100 N   0  0  0  0  0  2  0  0  0  0  0  0
  192.1750  175.9040  136.3450 C   0  0  0  0  0  0  0  0  0  0  0  0
  190.0440  176.5930  137.2430 C   0  0  0  0  0  3  0  0  0  0  0  0
  192.9490  177.2900  140.0270 Cl  0  0  0  0  0  0  0  0  0  0  0  0
  193.1250  175.2280  135.0390 Cl  0  0  0  0  0  0  0  0  0  0  0  0
  190.7970  176.0530  136.2010 C   0  0  0  0  0  3  0  0  0  0  0  0
  192.0520  176.8370  138.5830 C   0  0  0  0  0  0  0  0  0  0  0  0
  190.6480  176.9930  138.4470 C   0  0  0  0  0  0  0  0  0  0  0  0
  192.7980  176.2940  137.5300 C   0  0  0  0  0  3  0  0  0  0  0  0
  183.9660  178.9400  145.0000 C   0  0  0  0  0  2  0  0  0  0  0  0
  182.9050  179.0490  143.9230 C   0  0  0  0  0  1  0  0  0  0  0  0
  1  2  1  0  0  0  0
  2 17  1  0  0  0  0
  2  6  1  1  0  0  0
  3 13  1  0  0  0  0
  3  9  1  0  0  0  0
  4  1  2  0  0  0  0
  4 12  1  0  0  0  0
  5 30  1  0  0  0  0
  5 12  2  0  0  0  0
  6  3  2  0  0  0  0
  7 11  1  0  0  0  0
  8 17  2  0  0  0  0
 10  7  2  0  0  0  0
 10 14  1  0  0  0  0
 11 16  2  0  0  0  0
 11  1  1  0  0  0  0
 14 15  1  0  0  0  0
 14  4  1  0  0  0  0
 15  5  1  0  0  0  0
 16  8  1  0  0  0  0
 17 18  1  0  0  0  0
 18 13  2  0  0  0  0
 19 20  2  0  0  0  0
 20 21  1  0  0  0  0
 21  7  1  0  0  0  0
 22 29  1  0  0  0  0
 23 28  2  0  0  0  0
 25 22  1  0  0  0  0
 26 22  2  0  0  0  0
 26 23  1  0  0  0  0
 27 24  1  0  0  0  0
 28 27  1  0  0  0  0
 28 20  1  0  0  0  0
 29 27  2  0  0  0  0
 31 30  1  0  0  0  0
M  END
>  <MODEL>
2

>  <REMARK>
 VINA RESULT:     -10.3      1.145      1.483
  Name = 
  3 active torsions:
  status: ('A' for Active; 'I' for Inactive)
    1  A    between atoms: C_2  and  C_13
    2  A    between atoms: C_9  and  C_22
    3  A    between atoms: C_15  and  N_23
                            x       y       z     vdW  Elec       q    Type
                         _______ _______ _______ _____ _____    ______ ____

>  <TORSDO>
F 3

$$$$
=
 OpenBabel10262419343D

 31 35  0  0  0  0  0  0  0  0999 V2000
  188.8950  177.2160  144.6930 C   0  0  0  0  0  0  0  0  0  0  0  0
  187.6290  177.6790  145.1580 C   0  0  0  0  0  0  0  0  0  0  0  0
  186.1020  178.3820  146.9640 C   0  0  0  0  0  0  0  0  0  0  0  0
  189.9510  176.9680  145.4980 C   0  0  0  0  0  0  0  0  0  0  0  0
  191.2660  176.7490  147.1900 C   0  0  0  0  0  0  0  0  0  0  0  0
  187.3990  177.9050  146.4620 C   0  0  0  0  0  3  0  0  0  0  0  0
  190.3990  176.5080  142.7520 C   0  0  0  0  0  0  0  0  0  0  0  0
  186.8010  177.6800  142.8650 C   0  0  0  0  0  3  0  0  0  0  0  0
  185.9330  178.5910  148.2910 F   0  0  0  0  0  0  0  0  0  0  0  0
  191.4110  176.2820  143.6020 C   0  0  0  0  0  3  0  0  0  0  0  0
  189.0850  176.9920  143.2940 C   0  0  0  0  0  0  0  0  0  0  0  0
  190.0460  177.1130  146.9120 N   0  0  0  0  0  0  0  0  0  0  0  0
  185.0930  178.6100  146.1250 C   0  0  0  0  0  3  0  0  0  0  0  0
  191.1750  176.5140  144.9850 N   0  0  0  0  0  0  0  0  0  0  0  0
  192.0540  176.3660  146.0520 N   0  0  0  0  0  2  0  0  0  0  0  0
  188.0340  177.2290  142.4060 C   0  0  0  0  0  3  0  0  0  0  0  0
  186.5880  177.9070  144.2240 C   0  0  0  0  0  0  0  0  0  0  0  0
  185.2240  178.3960  144.6440 C   0  0  0  0  0  2  0  0  0  0  0  0
  192.0720  178.0040  140.8510 O   0  0  0  0  0  0  0  0  0  0  0  0
  191.3730  177.0460  140.4270 C   0  0  0  0  0  0  0  0  0  0  0  0
  190.5480  176.3000  141.3370 N   0  0  0  0  0  2  0  0  0  0  0  0
  191.5790  175.9310  136.2780 C   0  0  0  0  0  0  0  0  0  0  0  0
  192.6190  176.2910  138.4260 C   0  0  0  0  0  3  0  0  0  0  0  0
  188.6320  177.1230  138.7220 Cl  0  0  0  0  0  0  0  0  0  0  0  0
  191.6960  175.4720  134.5940 Cl  0  0  0  0  0  0  0  0  0  0  0  0
  192.7160  175.9250  137.0840 C   0  0  0  0  0  3  0  0  0  0  0  0
  190.2370  176.6730  138.1610 C   0  0  0  0  0  0  0  0  0  0  0  0
  191.3890  176.6710  138.9900 C   0  0  0  0  0  0  0  0  0  0  0  0
  190.3470  176.3040  136.8150 C   0  0  0  0  0  3  0  0  0  0  0  0
  191.8140  176.7840  148.5730 C   0  0  0  0  0  2  0  0  0  0  0  0
  193.0930  175.9750  148.6410 C   0  0  0  0  0  1  0  0  0  0  0  0
  1  2  1  0  0  0  0
  1  4  2  0  0  0  0
  2  6  2  0  0  0  0
  3  9  1  0  0  0  0
  4 12  1  0  0  0  0
  5 30  1  0  0  0  0
  6  3  1  0  0  0  0
  7 11  1  0  0  0  0
  7 10  2  0  0  0  0
  8 17  2  0  0  0  0
 10 14  1  0  0  0  0
 11  1  1  0  0  0  0
 12  5  2  0  0  0  0
 13  3  2  0  0  0  0
 14  4  1  0  0  0  0
 14 15  1  0  0  0  0
 15  5  1  0  0  0  0
 16  8  1  0  0  0  0
 16 11  2  0  0  0  0
 17 18  1  0  0  0  0
 17  2  1  0  0  0  0
 18 13  1  0  0  0  0
 20 19  2  0  0  0  0
 20 21  1  0  0  0  0
 21  7  1  0  0  0  0
 22 29  2  0  0  0  0
 22 26  1  0  0  0  0
 23 28  1  0  0  0  0
 25 22  1  0  0  0  0
 26 23  2  0  0  0  0
 27 24  1  0  0  0  0
 27 28  2  0  0  0  0
 28 20  1  0  0  0  0
 29 27  1  0  0  0  0
 30 31  1  0  0  0  0
M  END
>  <MODEL>
3

>  <REMARK>
 VINA RESULT:      -9.9      2.175      4.367
  Name = 
  3 active torsions:
  status: ('A' for Active; 'I' for Inactive)
    1  A    between atoms: C_2  and  C_13
    2  A    between atoms: C_9  and  C_22
    3  A    between atoms: C_15  and  N_23
                            x       y       z     vdW  Elec       q    Type
                         _______ _______ _______ _____ _____    ______ ____

>  <TORSDO>
F 3

$$$$
=
 OpenBabel10262419343D

 31 35  0  0  1  0  0  0  0  0999 V2000
  186.8940  178.2340  143.6550 C   0  0  0  0  0  0  0  0  0  0  0  0
  186.8660  178.1480  145.0780 C   0  0  1  0  0  3  0  0  0  0  0  0
  187.9180  177.6120  147.2450 C   0  0  0  0  0  0  0  0  0  0  0  0
  187.9600  177.8900  142.8990 C   0  0  0  0  0  0  0  0  0  0  0  0
  189.8920  177.2310  142.2110 C   0  0  0  0  0  0  0  0  0  0  0  0
  187.9250  177.7080  145.7780 C   0  0  0  0  0  3  0  0  0  0  0  0
  185.7180  178.8220  141.4640 C   0  0  0  0  0  0  0  0  0  0  0  0
  184.5800  178.9950  145.0710 C   0  0  0  0  0  3  0  0  0  0  0  0
  189.0180  177.1600  147.8920 F   0  0  0  0  0  0  0  0  0  0  0  0
  186.8080  178.4670  140.7690 C   0  0  0  0  0  3  0  0  0  0  0  0
  185.7390  178.7090  142.9610 C   0  0  0  0  0  0  0  0  0  0  0  0
  189.2300  177.4030  143.3210 N   0  0  0  0  0  0  0  0  0  0  0  0
  186.8390  177.9640  147.9420 C   0  0  0  0  0  3  0  0  0  0  0  0
  187.9330  177.9960  141.5010 N   0  0  0  0  0  0  0  0  0  0  0  0
  189.1700  177.5820  141.0190 N   0  0  0  0  0  2  0  0  0  0  0  0
  184.6020  179.0810  143.6830 C   0  0  0  0  0  3  0  0  0  0  0  0
  185.6930  178.5360  145.7730 C   0  0  0  0  0  0  0  0  0  0  0  0
  185.5900  178.4710  147.2770 C   0  0  0  0  0  3  0  0  0  0  0  0
  183.4260  177.2840  140.4490 O   0  0  0  0  0  0  0  0  0  0  0  0
  183.4260  178.5360  140.3190 C   0  0  0  0  0  0  0  0  0  0  0  0
  184.5350  179.3090  140.8070 N   0  0  0  0  0  2  0  0  0  0  0  0
  180.2180  180.5540  138.2860 C   0  0  0  0  0  0  0  0  0  0  0  0
  182.4130  179.5500  138.3020 C   0  0  0  0  0  3  0  0  0  0  0  0
  180.7920  179.2640  142.0380 Cl  0  0  0  0  0  0  0  0  0  0  0  0
  178.9320  181.3740  137.4300 Cl  0  0  0  0  0  0  0  0  0  0  0  0
  181.3900  180.2040  137.6170 C   0  0  0  0  0  3  0  0  0  0  0  0
  181.0930  179.5930  140.3370 C   0  0  0  0  0  0  0  0  0  0  0  0
  182.2890  179.2330  139.6650 C   0  0  0  0  0  0  0  0  0  0  0  0
  180.0720  180.2500  139.6390 C   0  0  0  0  0  3  0  0  0  0  0  0
  191.3030  176.7610  142.1870 C   0  0  0  0  0  2  0  0  0  0  0  0
  191.6840  176.2060  143.5450 C   0  0  0  0  0  1  0  0  0  0  0  0
  1  2  1  0  0  0  0
  2 17  1  0  0  0  0
  2  6  1  1  0  0  0
  3  9  1  0  0  0  0
  3 13  1  0  0  0  0
  4 12  1  0  0  0  0
  4  1  2  0  0  0  0
  5 12  2  0  0  0  0
  6  3  2  0  0  0  0
  7 11  1  0  0  0  0
  8 17  2  0  0  0  0
 10  7  2  0  0  0  0
 10 14  1  0  0  0  0
 11  1  1  0  0  0  0
 11 16  2  0  0  0  0
 14  4  1  0  0  0  0
 15 14  1  0  0  0  0
 15  5  1  0  0  0  0
 16  8  1  0  0  0  0
 17 18  1  0  0  0  0
 18 13  2  0  0  0  0
 20 19  2  0  0  0  0
 20 21  1  0  0  0  0
 21  7  1  0  0  0  0
 22 29  1  0  0  0  0
 23 28  2  0  0  0  0
 25 22  1  0  0  0  0
 26 22  2  0  0  0  0
 26 23  1  0  0  0  0
 27 24  1  0  0  0  0
 28 20  1  0  0  0  0
 28 27  1  0  0  0  0
 29 27  2  0  0  0  0
 30  5  1  0  0  0  0
 30 31  1  0  0  0  0
M  END
>  <MODEL>
4

>  <REMARK>
 VINA RESULT:      -9.7      4.328      7.054
  Name = 
  3 active torsions:
  status: ('A' for Active; 'I' for Inactive)
    1  A    between atoms: C_2  and  C_13
    2  A    between atoms: C_9  and  C_22
    3  A    between atoms: C_15  and  N_23
                            x       y       z     vdW  Elec       q    Type
                         _______ _______ _______ _____ _____    ______ ____

>  <TORSDO>
F 3

$$$$
=
 OpenBabel10262419343D

 31 35  0  0  0  0  0  0  0  0999 V2000
  188.8540  177.2010  144.7760 C   0  0  0  0  0  0  0  0  0  0  0  0
  187.6550  177.7540  145.3130 C   0  0  0  0  0  0  0  0  0  0  0  0
  186.3080  178.6130  147.1950 C   0  0  0  0  0  0  0  0  0  0  0  0
  189.9530  176.9230  145.5130 C   0  0  0  0  0  0  0  0  0  0  0  0
  191.3770  176.6930  147.1120 C   0  0  0  0  0  0  0  0  0  0  0  0
  187.5360  178.0420  146.6200 C   0  0  0  0  0  3  0  0  0  0  0  0
  190.1670  176.3340  142.7630 C   0  0  0  0  0  0  0  0  0  0  0  0
  186.6570  177.7160  143.0890 C   0  0  0  0  0  3  0  0  0  0  0  0
  186.2510  178.8810  148.5210 F   0  0  0  0  0  0  0  0  0  0  0  0
  191.2250  176.0820  143.5450 C   0  0  0  0  0  3  0  0  0  0  0  0
  188.9260  176.9140  143.3780 C   0  0  0  0  0  0  0  0  0  0  0  0
  190.1610  177.1160  146.9080 N   0  0  0  0  0  0  0  0  0  0  0  0
  185.2530  178.8670  146.4230 C   0  0  0  0  0  3  0  0  0  0  0  0
  191.1080  176.3800  144.9300 N   0  0  0  0  0  0  0  0  0  0  0  0
  192.0550  176.2210  145.9360 N   0  0  0  0  0  2  0  0  0  0  0  0
  187.8250  177.1770  142.5600 C   0  0  0  0  0  3  0  0  0  0  0  0
  186.5600  178.0070  144.4480 C   0  0  0  0  0  0  0  0  0  0  0  0
  185.2600  178.5890  144.9460 C   0  0  0  0  0  2  0  0  0  0  0  0
  191.4860  177.8780  140.6350 O   0  0  0  0  0  0  0  0  0  0  0  0
  190.8490  176.8360  140.3280 C   0  0  0  0  0  0  0  0  0  0  0  0
  190.1970  176.0650  141.3500 N   0  0  0  0  0  2  0  0  0  0  0  0
  190.4370  175.5350  136.2490 C   0  0  0  0  0  0  0  0  0  0  0  0
  189.4840  176.1890  138.3690 C   0  0  0  0  0  3  0  0  0  0  0  0
  193.5550  176.3500  138.6340 Cl  0  0  0  0  0  0  0  0  0  0  0  0
  190.2350  175.0060  134.5940 Cl  0  0  0  0  0  0  0  0  0  0  0  0
  189.3190  175.7670  137.0490 C   0  0  0  0  0  3  0  0  0  0  0  0
  191.8940  176.1470  138.0930 C   0  0  0  0  0  0  0  0  0  0  0  0
  190.7630  176.3860  138.9150 C   0  0  0  0  0  0  0  0  0  0  0  0
  191.7160  175.7240  136.7700 C   0  0  0  0  0  3  0  0  0  0  0  0
  192.0290  176.7480  148.4480 C   0  0  0  0  0  2  0  0  0  0  0  0
  193.0880  175.6700  148.5490 C   0  0  0  0  0  1  0  0  0  0  0  0
  1  2  1  0  0  0  0
  1  4  2  0  0  0  0
  2  6  2  0  0  0  0
  3  9  1  0  0  0  0
  4 12  1  0  0  0  0
  5 30  1  0  0  0  0
  6  3  1  0  0  0  0
  7 11  1  0  0  0  0
  7 10  2  0  0  0  0
  8 17  2  0  0  0  0
 10 14  1  0  0  0  0
 11  1  1  0  0  0  0
 12  5  2  0  0  0  0
 13  3  2  0  0  0  0
 14  4  1  0  0  0  0
 14 15  1  0  0  0  0
 15  5  1  0  0  0  0
 16  8  1  0  0  0  0
 16 11  2  0  0  0  0
 17 18  1  0  0  0  0
 17  2  1  0  0  0  0
 18 13  1  0  0  0  0
 20 19  2  0  0  0  0
 20 21  1  0  0  0  0
 21  7  1  0  0  0  0
 22 29  2  0  0  0  0
 22 26  1  0  0  0  0
 23 28  1  0  0  0  0
 25 22  1  0  0  0  0
 26 23  2  0  0  0  0
 27 24  1  0  0  0  0
 27 28  2  0  0  0  0
 28 20  1  0  0  0  0
 29 27  1  0  0  0  0
 30 31  1  0  0  0  0
M  END
>  <MODEL>
5

>  <REMARK>
 VINA RESULT:      -9.7      2.307      4.549
  Name = 
  3 active torsions:
  status: ('A' for Active; 'I' for Inactive)
    1  A    between atoms: C_2  and  C_13
    2  A    between atoms: C_9  and  C_22
    3  A    between atoms: C_15  and  N_23
                            x       y       z     vdW  Elec       q    Type
                         _______ _______ _______ _____ _____    ______ ____

>  <TORSDO>
F 3

$$$$
=
 OpenBabel10262419343D

 31 35  0  0  1  0  0  0  0  0999 V2000
  189.0360  177.6060  142.4510 C   0  0  0  0  0  0  0  0  0  0  0  0
  189.3130  177.4310  143.8380 C   0  0  2  0  0  3  0  0  0  0  0  0
  188.6550  177.5200  146.2150 C   0  0  0  0  0  0  0  0  0  0  0  0
  187.8510  178.0380  141.9660 C   0  0  0  0  0  0  0  0  0  0  0  0
  185.8230  178.7330  141.7540 C   0  0  0  0  0  0  0  0  0  0  0  0
  188.3910  177.6920  144.7780 C   0  0  0  0  0  3  0  0  0  0  0  0
  189.8130  177.4770  140.0200 C   0  0  0  0  0  0  0  0  0  0  0  0
  191.5700  176.6940  143.2810 C   0  0  0  0  0  3  0  0  0  0  0  0
  187.6820  177.8000  147.1140 F   0  0  0  0  0  0  0  0  0  0  0  0
  188.6150  177.9080  139.6000 C   0  0  0  0  0  3  0  0  0  0  0  0
  190.0550  177.3130  141.4920 C   0  0  0  0  0  0  0  0  0  0  0  0
  186.6710  178.3880  142.6830 N   0  0  0  0  0  0  0  0  0  0  0  0
  189.8430  177.0900  146.6380 C   0  0  0  0  0  3  0  0  0  0  0  0
  187.6330  178.1910  140.5890 N   0  0  0  0  0  0  0  0  0  0  0  0
  186.3260  178.6350  140.4130 N   0  0  0  0  0  2  0  0  0  0  0  0
  191.3040  176.8620  141.9260 C   0  0  0  0  0  3  0  0  0  0  0  0
  190.5940  176.9710  144.2360 C   0  0  0  0  0  0  0  0  0  0  0  0
  190.9580  176.7650  145.6860 C   0  0  0  0  0  3  0  0  0  0  0  0
  190.0420  175.1570  138.2260 O   0  0  0  0  0  0  0  0  0  0  0  0
  190.9560  176.0240  138.2230 C   0  0  0  0  0  0  0  0  0  0  0  0
  190.8660  177.1660  139.0900 N   0  0  0  0  0  2  0  0  0  0  0  0
  194.4580  175.5890  135.7640 C   0  0  0  0  0  0  0  0  0  0  0  0
  193.3730  175.5910  137.9210 C   0  0  0  0  0  3  0  0  0  0  0  0
  190.5980  176.3960  135.0350 Cl  0  0  0  0  0  0  0  0  0  0  0  0
  195.9010  175.4060  134.7920 Cl  0  0  0  0  0  0  0  0  0  0  0  0
  194.5260  175.4440  137.1490 C   0  0  0  0  0  3  0  0  0  0  0  0
  192.0750  176.0300  135.9180 C   0  0  0  0  0  0  0  0  0  0  0  0
  192.1330  175.8850  137.3290 C   0  0  0  0  0  0  0  0  0  0  0  0
  193.2380  175.8810  135.1540 C   0  0  0  0  0  3  0  0  0  0  0  0
  184.4250  179.1410  142.0610 C   0  0  0  0  0  2  0  0  0  0  0  0
  184.0400  178.6550  143.4440 C   0  0  0  0  0  1  0  0  0  0  0  0
  1  2  1  0  0  0  0
  2 17  1  0  0  0  0
  2  6  1  1  0  0  0
  3 13  1  0  0  0  0
  3  9  1  0  0  0  0
  4  1  2  0  0  0  0
  4 12  1  0  0  0  0
  5 30  1  0  0  0  0
  5 12  2  0  0  0  0
  6  3  2  0  0  0  0
  7 11  1  0  0  0  0
  8 17  2  0  0  0  0
 10  7  2  0  0  0  0
 10 14  1  0  0  0  0
 11 16  2  0  0  0  0
 11  1  1  0  0  0  0
 14  4  1  0  0  0  0
 15 14  1  0  0  0  0
 15  5  1  0  0  0  0
 16  8  1  0  0  0  0
 17 18  1  0  0  0  0
 18 13  2  0  0  0  0
 20 19  2  0  0  0  0
 20 21  1  0  0  0  0
 21  7  1  0  0  0  0
 22 26  1  0  0  0  0
 24 27  1  0  0  0  0
 25 22  1  0  0  0  0
 26 23  2  0  0  0  0
 27 28  2  0  0  0  0
 28 23  1  0  0  0  0
 28 20  1  0  0  0  0
 29 22  2  0  0  0  0
 29 27  1  0  0  0  0
 30 31  1  0  0  0  0
M  END
>  <MODEL>
6

>  <REMARK>
 VINA RESULT:      -9.7      1.736      2.299
  Name = 
  3 active torsions:
  status: ('A' for Active; 'I' for Inactive)
    1  A    between atoms: C_2  and  C_13
    2  A    between atoms: C_9  and  C_22
    3  A    between atoms: C_15  and  N_23
                            x       y       z     vdW  Elec       q    Type
                         _______ _______ _______ _____ _____    ______ ____

>  <TORSDO>
F 3

$$$$
=
 OpenBabel10262419343D

 31 35  0  0  0  0  0  0  0  0999 V2000
  187.2340  178.2510  139.4420 C   0  0  0  0  0  0  0  0  0  0  0  0
  187.8090  177.9990  138.1620 C   0  0  0  0  0  0  0  0  0  0  0  0
  187.6850  177.9320  135.6980 C   0  0  0  0  0  0  0  0  0  0  0  0
  185.9690  178.6890  139.6290 C   0  0  0  0  0  0  0  0  0  0  0  0
  183.9470  179.3740  139.3500 C   0  0  0  0  0  0  0  0  0  0  0  0
  187.1120  178.1850  137.0290 C   0  0  0  0  0  3  0  0  0  0  0  0
  187.4650  178.2890  141.9870 C   0  0  0  0  0  0  0  0  0  0  0  0
  189.8930  177.3380  139.2420 C   0  0  0  0  0  3  0  0  0  0  0  0
  186.9300  178.1380  134.5940 F   0  0  0  0  0  0  0  0  0  0  0  0
  186.2030  178.7260  142.1070 C   0  0  0  0  0  3  0  0  0  0  0  0
  188.0210  178.0360  140.6160 C   0  0  0  0  0  0  0  0  0  0  0  0
  184.9790  178.9930  138.6510 N   0  0  0  0  0  0  0  0  0  0  0  0
  188.9380  177.4990  135.5710 C   0  0  0  0  0  3  0  0  0  0  0  0
  185.4560  178.9220  140.9140 N   0  0  0  0  0  0  0  0  0  0  0  0
  184.1480  179.3720  140.7720 N   0  0  0  0  0  2  0  0  0  0  0  0
  189.3370  177.5840  140.4930 C   0  0  0  0  0  3  0  0  0  0  0  0
  189.1480  177.5410  138.0810 C   0  0  0  0  0  0  0  0  0  0  0  0
  189.8210  177.2520  136.7620 C   0  0  0  0  0  2  0  0  0  0  0  0
  188.1800  175.7320  143.2520 O   0  0  0  0  0  0  0  0  0  0  0  0
  188.6290  176.8020  143.7410 C   0  0  0  0  0  0  0  0  0  0  0  0
  188.2940  178.0640  143.1400 N   0  0  0  0  0  2  0  0  0  0  0  0
  191.2990  176.6930  147.1110 C   0  0  0  0  0  0  0  0  0  0  0  0
  190.8500  176.4040  144.7570 C   0  0  0  0  0  3  0  0  0  0  0  0
  187.4260  177.6080  146.6270 Cl  0  0  0  0  0  0  0  0  0  0  0  0
  192.4110  176.6380  148.4610 Cl  0  0  0  0  0  0  0  0  0  0  0  0
  191.7390  176.3590  145.8310 C   0  0  0  0  0  3  0  0  0  0  0  0
  189.0710  177.1180  146.2450 C   0  0  0  0  0  0  0  0  0  0  0  0
  189.5090  176.7800  144.9380 C   0  0  0  0  0  0  0  0  0  0  0  0
  189.9720  177.0700  147.3150 C   0  0  0  0  0  3  0  0  0  0  0  0
  182.6790  179.8280  138.7170 C   0  0  0  0  0  2  0  0  0  0  0  0
  182.0830  178.7030  137.8950 C   0  0  0  0  0  1  0  0  0  0  0  0
  1  4  2  0  0  0  0
  1 11  1  0  0  0  0
  2  1  1  0  0  0  0
  3  6  1  0  0  0  0
  4 14  1  0  0  0  0
  5 15  1  0  0  0  0
  6  2  2  0  0  0  0
  7 10  2  0  0  0  0
  7 21  1  0  0  0  0
  8 16  1  0  0  0  0
  9  3  1  0  0  0  0
 11  7  1  0  0  0  0
 12  5  2  0  0  0  0
 12  4  1  0  0  0  0
 13  3  2  0  0  0  0
 13 18  1  0  0  0  0
 14 10  1  0  0  0  0
 15 14  1  0  0  0  0
 16 11  2  0  0  0  0
 17  2  1  0  0  0  0
 17  8  2  0  0  0  0
 18 17  1  0  0  0  0
 19 20  2  0  0  0  0
 20 28  1  0  0  0  0
 21 20  1  0  0  0  0
 22 29  1  0  0  0  0
 22 25  1  0  0  0  0
 23 28  2  0  0  0  0
 23 26  1  0  0  0  0
 26 22  2  0  0  0  0
 27 24  1  0  0  0  0
 27 29  2  0  0  0  0
 28 27  1  0  0  0  0
 30  5  1  0  0  0  0
 31 30  1  0  0  0  0
M  END
>  <MODEL>
7

>  <REMARK>
 VINA RESULT:      -9.6      4.692      7.949
  Name = 
  3 active torsions:
  status: ('A' for Active; 'I' for Inactive)
    1  A    between atoms: C_2  and  C_13
    2  A    between atoms: C_9  and  C_22
    3  A    between atoms: C_15  and  N_23
                            x       y       z     vdW  Elec       q    Type
                         _______ _______ _______ _____ _____    ______ ____

>  <TORSDO>
F 3

$$$$
=
 OpenBabel10262419343D

 31 35  0  0  1  0  0  0  0  0999 V2000
  185.8190  178.4950  140.4030 C   0  0  0  0  0  0  0  0  0  0  0  0
  184.4050  178.6640  140.4750 C   0  0  2  0  0  3  0  0  0  0  0  0
  182.1990  179.0040  139.4210 C   0  0  0  0  0  0  0  0  0  0  0  0
  186.5200  178.4840  139.2470 C   0  0  0  0  0  0  0  0  0  0  0  0
  187.1120  178.5370  137.1770 C   0  0  0  0  0  0  0  0  0  0  0  0
  183.6580  178.8280  139.3700 C   0  0  0  0  0  3  0  0  0  0  0  0
  188.0540  178.1400  141.5890 C   0  0  0  0  0  0  0  0  0  0  0  0
  184.5220  178.4930  142.9040 C   0  0  0  0  0  3  0  0  0  0  0  0
  181.5030  179.1650  138.2710 F   0  0  0  0  0  0  0  0  0  0  0  0
  188.6930  178.1360  140.4100 C   0  0  0  0  0  3  0  0  0  0  0  0
  186.5640  178.3250  141.6100 C   0  0  0  0  0  0  0  0  0  0  0  0
  186.0390  178.6190  137.9130 N   0  0  0  0  0  0  0  0  0  0  0  0
  181.5580  179.0080  140.5880 C   0  0  0  0  0  3  0  0  0  0  0  0
  187.9120  178.3130  139.2360 N   0  0  0  0  0  0  0  0  0  0  0  0
  188.3310  178.3360  137.9100 N   0  0  0  0  0  2  0  0  0  0  0  0
  185.9010  178.3260  142.8390 C   0  0  0  0  0  3  0  0  0  0  0  0
  183.7700  178.6600  141.7420 C   0  0  0  0  0  0  0  0  0  0  0  0
  182.2790  178.8340  141.8950 C   0  0  0  0  0  3  0  0  0  0  0  0
  188.3590  175.6960  143.1960 O   0  0  0  0  0  0  0  0  0  0  0  0
  188.8990  176.7600  143.5960 C   0  0  0  0  0  0  0  0  0  0  0  0
  188.7640  177.9680  142.8280 N   0  0  0  0  0  2  0  0  0  0  0  0
  191.2940  176.8030  147.1680 C   0  0  0  0  0  0  0  0  0  0  0  0
  191.0500  176.4840  144.7880 C   0  0  0  0  0  3  0  0  0  0  0  0
  187.4290  177.5090  146.3720 Cl  0  0  0  0  0  0  0  0  0  0  0  0
  192.2960  176.8120  148.6020 Cl  0  0  0  0  0  0  0  0  0  0  0  0
  191.8510  176.4900  145.9290 C   0  0  0  0  0  3  0  0  0  0  0  0
  189.1220  177.1070  146.1250 C   0  0  0  0  0  0  0  0  0  0  0  0
  189.6800  176.7890  144.8590 C   0  0  0  0  0  0  0  0  0  0  0  0
  189.9370  177.1100  147.2630 C   0  0  0  0  0  3  0  0  0  0  0  0
  187.0660  178.5900  135.6910 C   0  0  0  0  0  2  0  0  0  0  0  0
  187.0670  177.1840  135.1260 C   0  0  0  0  0  1  0  0  0  0  0  0
  1  2  1  0  0  0  0
  1 11  1  0  0  0  0
  2  6  1  1  0  0  0
  2 17  1  0  0  0  0
  3 13  1  0  0  0  0
  4  1  2  0  0  0  0
  5 15  1  0  0  0  0
  5 12  2  0  0  0  0
  6  3  2  0  0  0  0
  7 11  1  0  0  0  0
  7 21  1  0  0  0  0
  9  3  1  0  0  0  0
 10  7  2  0  0  0  0
 11 16  2  0  0  0  0
 12  4  1  0  0  0  0
 13 18  2  0  0  0  0
 14  4  1  0  0  0  0
 14 10  1  0  0  0  0
 15 14  1  0  0  0  0
 16  8  1  0  0  0  0
 17 18  1  0  0  0  0
 17  8  2  0  0  0  0
 19 20  2  0  0  0  0
 20 28  1  0  0  0  0
 21 20  1  0  0  0  0
 22 29  1  0  0  0  0
 22 25  1  0  0  0  0
 23 28  2  0  0  0  0
 23 26  1  0  0  0  0
 26 22  2  0  0  0  0
 27 24  1  0  0  0  0
 27 29  2  0  0  0  0
 28 27  1  0  0  0  0
 30  5  1  0  0  0  0
 31 30  1  0  0  0  0
M  END
>  <MODEL>
8

>  <REMARK>
 VINA RESULT:      -9.5      4.555      8.255
  Name = 
  3 active torsions:
  status: ('A' for Active; 'I' for Inactive)
    1  A    between atoms: C_2  and  C_13
    2  A    between atoms: C_9  and  C_22
    3  A    between atoms: C_15  and  N_23
                            x       y       z     vdW  Elec       q    Type
                         _______ _______ _______ _____ _____    ______ ____

>  <TORSDO>
F 3

$$$$
=
 OpenBabel10262419343D

 31 35  0  0  1  0  0  0  0  0999 V2000
  187.5760  177.9950  143.5800 C   0  0  0  0  0  0  0  0  0  0  0  0
  187.6730  177.8800  144.9970 C   0  0  2  0  0  3  0  0  0  0  0  0
  188.9560  177.4510  147.0610 C   0  0  0  0  0  0  0  0  0  0  0  0
  188.6150  177.8120  142.7340 C   0  0  0  0  0  0  0  0  0  0  0  0
  190.5560  177.4340  141.8810 C   0  0  0  0  0  0  0  0  0  0  0  0
  188.8330  177.5740  145.6010 C   0  0  0  0  0  3  0  0  0  0  0  0
  186.1610  178.4580  141.5030 C   0  0  0  0  0  0  0  0  0  0  0  0
  185.3010  178.4090  145.1890 C   0  0  0  0  0  3  0  0  0  0  0  0
  190.1550  177.1400  147.6090 F   0  0  0  0  0  0  0  0  0  0  0  0
  187.2300  178.2670  140.7160 C   0  0  0  0  0  3  0  0  0  0  0  0
  186.3160  178.3220  142.9900 C   0  0  0  0  0  0  0  0  0  0  0  0
  189.9680  177.4940  143.0440 N   0  0  0  0  0  0  0  0  0  0  0  0
  187.8990  177.6400  147.8480 C   0  0  0  0  0  3  0  0  0  0  0  0
  188.4620  177.9390  141.3460 N   0  0  0  0  0  0  0  0  0  0  0  0
  189.7010  177.7060  140.7590 N   0  0  0  0  0  2  0  0  0  0  0  0
  185.2010  178.5230  143.8070 C   0  0  0  0  0  3  0  0  0  0  0  0
  186.5180  178.0920  145.7900 C   0  0  0  0  0  0  0  0  0  0  0  0
  186.5450  177.9860  147.2950 C   0  0  0  0  0  3  0  0  0  0  0  0
  185.4590  179.0050  138.7000 O   0  0  0  0  0  0  0  0  0  0  0  0
  184.5560  179.0560  139.5760 C   0  0  0  0  0  0  0  0  0  0  0  0
  184.8750  178.7920  140.9530 N   0  0  0  0  0  2  0  0  0  0  0  0
  180.5500  180.1610  138.4680 C   0  0  0  0  0  0  0  0  0  0  0  0
  182.8920  180.6810  138.7300 C   0  0  0  0  0  3  0  0  0  0  0  0
  182.2500  176.8190  139.8890 Cl  0  0  0  0  0  0  0  0  0  0  0  0
  178.9310  180.6410  138.0090 Cl  0  0  0  0  0  0  0  0  0  0  0  0
  181.6030  181.0670  138.3630 C   0  0  0  0  0  3  0  0  0  0  0  0
  182.0760  178.4700  139.3100 C   0  0  0  0  0  0  0  0  0  0  0  0
  183.1560  179.3860  139.2080 C   0  0  0  0  0  0  0  0  0  0  0  0
  180.7870  178.8700  138.9390 C   0  0  0  0  0  3  0  0  0  0  0  0
  192.0110  177.1610  141.7360 C   0  0  0  0  0  2  0  0  0  0  0  0
  192.4610  177.5030  140.3310 C   0  0  0  0  0  1  0  0  0  0  0  0
  1  2  1  0  0  0  0
  2  6  1  6  0  0  0
  2 17  1  0  0  0  0
  3  9  1  0  0  0  0
  3 13  1  0  0  0  0
  4 12  1  0  0  0  0
  4  1  2  0  0  0  0
  5 12  2  0  0  0  0
  6  3  2  0  0  0  0
  7 11  1  0  0  0  0
  8 17  2  0  0  0  0
 10 14  1  0  0  0  0
 10  7  2  0  0  0  0
 11  1  1  0  0  0  0
 11 16  2  0  0  0  0
 14  4  1  0  0  0  0
 15 14  1  0  0  0  0
 15  5  1  0  0  0  0
 16  8  1  0  0  0  0
 17 18  1  0  0  0  0
 18 13  2  0  0  0  0
 19 20  2  0  0  0  0
 20 21  1  0  0  0  0
 21  7  1  0  0  0  0
 22 29  1  0  0  0  0
 23 28  2  0  0  0  0
 25 22  1  0  0  0  0
 26 22  2  0  0  0  0
 26 23  1  0  0  0  0
 27 24  1  0  0  0  0
 28 27  1  0  0  0  0
 28 20  1  0  0  0  0
 29 27  2  0  0  0  0
 30  5  1  0  0  0  0
 31 30  1  0  0  0  0
M  END
>  <MODEL>
9

>  <REMARK>
 VINA RESULT:      -9.5      3.693      6.663
  Name = 
  3 active torsions:
  status: ('A' for Active; 'I' for Inactive)
    1  A    between atoms: C_2  and  C_13
    2  A    between atoms: C_9  and  C_22
    3  A    between atoms: C_15  and  N_23
                            x       y       z     vdW  Elec       q    Type
                         _______ _______ _______ _____ _____    ______ ____

>  <TORSDO>
F 3

$$$$
