=
 OpenBabel10262419513D

 25 28  0  0  1  0  0  0  0  0999 V2000
  188.3480  176.9440  143.0170 C   0  0  0  0  0  0  0  0  0  0  0  0
  186.9680  177.2750  142.5290 C   0  0  1  0  0  3  0  0  0  0  0  0
  189.4560  177.8880  141.0240 C   0  0  0  0  0  2  0  0  0  0  0  0
  188.7830  176.9750  144.2580 C   0  0  0  0  0  3  0  0  0  0  0  0
  188.0580  178.1100  140.4250 C   0  0  0  0  0  2  0  0  0  0  0  0
  190.2550  176.7290  144.2380 C   0  0  1  0  0  3  0  0  0  0  0  0
  185.6960  178.8330  141.0460 C   0  0  0  0  0  0  0  0  0  0  0  0
  185.5750  179.5190  140.0430 O   0  0  0  0  0  0  0  0  0  0  0  0
  185.9610  177.5760  143.6020 C   0  0  0  0  0  3  0  0  0  0  0  0
  189.4510  176.7430  142.0450 C   0  0  1  0  0  3  0  0  0  0  0  0
  190.6820  176.7580  142.8330 N   0  0  0  0  0  2  0  0  0  0  0  0
  184.4610  178.4080  141.8060 C   0  0  0  0  0  2  0  0  0  0  0  0
  184.7660  178.0870  143.2580 C   0  0  0  0  0  0  0  0  0  0  0  0
  187.0670  178.4480  141.5460 C   0  0  1  0  0  3  0  0  0  0  0  0
  183.8000  179.8820  144.7300 C   0  0  0  0  0  2  0  0  0  0  0  0
  183.7460  178.4210  144.3200 C   0  0  2  0  0  3  0  0  0  0  0  0
  184.3300  178.8330  145.6830 C   0  0  1  0  0  3  0  0  0  0  0  0
  185.8470  178.9720  145.7450 C   0  0  0  0  0  2  0  0  0  0  0  0
  186.2840  178.9850  147.1320 N   0  0  0  0  0  2  0  0  0  0  0  0
  187.2360  177.9000  147.2980 C   0  0  0  0  0  2  0  0  0  0  0  0
  188.2190  178.2470  148.4000 C   0  0  0  0  0  1  0  0  0  0  0  0
  191.6330  178.9070  144.2580 C   0  0  0  0  0  1  0  0  0  0  0  0
  191.0560  177.7460  145.0670 C   0  0  2  0  0  3  0  0  0  0  0  0
  191.9490  177.1840  146.0080 O   0  0  0  0  0  0  0  0  0  0  0  0
  191.2200  176.5510  147.0260 C   0  0  0  0  0  1  0  0  0  0  0  0
  1  4  2  0  0  0  0
  2  1  1  0  0  0  0
  2  9  1  1  0  0  0
  5  3  1  0  0  0  0
  6  4  1  0  0  0  0
  6 23  1  1  0  0  0
  7 14  1  0  0  0  0
  7 12  1  0  0  0  0
  8  7  2  0  0  0  0
 10  3  1  6  0  0  0
 10 11  1  0  0  0  0
 10  1  1  0  0  0  0
 11  6  1  0  0  0  0
 12 13  1  0  0  0  0
 13  9  2  0  0  0  0
 14  5  1  6  0  0  0
 14  2  1  0  0  0  0
 15 17  1  0  0  0  0
 16 13  1  6  0  0  0
 16 15  1  0  0  0  0
 16 17  1  0  0  0  0
 17 18  1  6  0  0  0
 18 19  1  0  0  0  0
 19 20  1  0  0  0  0
 20 21  1  0  0  0  0
 23 22  1  6  0  0  0
 23 24  1  0  0  0  0
 24 25  1  0  0  0  0
M  END
>  <MODEL>
1

>  <REMARK>
 VINA RESULT:      -8.1      0.000      0.000
  Name = 
  6 active torsions:
  status: ('A' for Active; 'I' for Inactive)
    1  A    between atoms: C_2  and  N_12
    2  A    between atoms: C_10  and  C_11
    3  A    between atoms: C_11  and  O_17
    4  A    between atoms: N_12  and  C_25
    5  A    between atoms: C_15  and  C_23
    6  A    between atoms: C_21  and  C_25
                            x       y       z     vdW  Elec       q    Type
                         _______ _______ _______ _____ _____    ______ ____

>  <TORSDO>
F 6

$$$$
=
 OpenBabel10262419513D

 25 28  0  0  1  0  0  0  0  0999 V2000
  188.2040  176.9850  143.4980 C   0  0  0  0  0  0  0  0  0  0  0  0
  186.9050  177.4980  142.9500 C   0  0  1  0  0  3  0  0  0  0  0  0
  189.3750  177.1640  141.3320 C   0  0  0  0  0  2  0  0  0  0  0  0
  188.7070  177.2040  144.6940 C   0  0  0  0  0  3  0  0  0  0  0  0
  188.0270  177.5520  140.7030 C   0  0  0  0  0  2  0  0  0  0  0  0
  190.0850  176.6330  144.7270 C   0  0  1  0  0  3  0  0  0  0  0  0
  185.9210  178.9160  141.1430 C   0  0  0  0  0  0  0  0  0  0  0  0
  185.8960  179.3590  140.0050 O   0  0  0  0  0  0  0  0  0  0  0  0
  186.0520  178.2600  143.9240 C   0  0  0  0  0  3  0  0  0  0  0  0
  189.1780  176.3190  142.5980 C   0  0  1  0  0  3  0  0  0  0  0  0
  190.4260  176.2370  143.3550 N   0  0  0  0  0  2  0  0  0  0  0  0
  184.6690  178.9710  141.9870 C   0  0  0  0  0  2  0  0  0  0  0  0
  184.9800  178.9360  143.4720 C   0  0  0  0  0  0  0  0  0  0  0  0
  187.2010  178.3570  141.7150 C   0  0  1  0  0  3  0  0  0  0  0  0
  183.3970  178.8410  145.4230 C   0  0  0  0  0  2  0  0  0  0  0  0
  184.1220  179.7290  144.4270 C   0  0  2  0  0  3  0  0  0  0  0  0
  182.6070  179.4860  144.3050 C   0  0  1  0  0  3  0  0  0  0  0  0
  182.1830  178.3920  143.3320 C   0  0  0  0  0  2  0  0  0  0  0  0
  180.8200  178.6310  142.8850 N   0  0  0  0  0  2  0  0  0  0  0  0
  179.9310  178.1820  143.9430 C   0  0  0  0  0  2  0  0  0  0  0  0
  178.9680  179.2950  144.3090 C   0  0  0  0  0  1  0  0  0  0  0  0
  191.8000  178.4920  144.2320 C   0  0  0  0  0  1  0  0  0  0  0  0
  191.1360  177.6060  145.2850 C   0  0  2  0  0  3  0  0  0  0  0  0
  192.0280  177.0490  146.2320 O   0  0  0  0  0  0  0  0  0  0  0  0
  191.3080  176.6180  147.3560 C   0  0  0  0  0  1  0  0  0  0  0  0
  1  4  2  0  0  0  0
  2  1  1  0  0  0  0
  2  9  1  1  0  0  0
  4  6  1  0  0  0  0
  5  3  1  0  0  0  0
  6 23  1  6  0  0  0
  7 14  1  0  0  0  0
  7 12  1  0  0  0  0
  8  7  2  0  0  0  0
 10  3  1  6  0  0  0
 10 11  1  0  0  0  0
 10  1  1  0  0  0  0
 11  6  1  0  0  0  0
 12 13  1  0  0  0  0
 13  9  2  0  0  0  0
 14  5  1  6  0  0  0
 14  2  1  0  0  0  0
 16 13  1  6  0  0  0
 16 15  1  0  0  0  0
 17 18  1  6  0  0  0
 17 16  1  0  0  0  0
 17 15  1  0  0  0  0
 19 18  1  0  0  0  0
 19 20  1  0  0  0  0
 20 21  1  0  0  0  0
 23 22  1  6  0  0  0
 23 24  1  0  0  0  0
 24 25  1  0  0  0  0
M  END
>  <MODEL>
2

>  <REMARK>
 VINA RESULT:      -7.9      1.984      3.164
  Name = 
  6 active torsions:
  status: ('A' for Active; 'I' for Inactive)
    1  A    between atoms: C_2  and  N_12
    2  A    between atoms: C_10  and  C_11
    3  A    between atoms: C_11  and  O_17
    4  A    between atoms: N_12  and  C_25
    5  A    between atoms: C_15  and  C_23
    6  A    between atoms: C_21  and  C_25
                            x       y       z     vdW  Elec       q    Type
                         _______ _______ _______ _____ _____    ______ ____

>  <TORSDO>
F 6

$$$$
=
 OpenBabel10262419513D

 25 28  0  0  1  0  0  0  0  0999 V2000
  187.6000  177.1730  142.9760 C   0  0  0  0  0  0  0  0  0  0  0  0
  188.6940  177.0320  141.9600 C   0  0  1  0  0  3  0  0  0  0  0  0
  189.1470  177.0770  144.8970 C   0  0  0  0  0  2  0  0  0  0  0  0
  186.5040  177.8950  142.8720 C   0  0  0  0  0  3  0  0  0  0  0  0
  190.2760  176.7850  143.8960 C   0  0  0  0  0  2  0  0  0  0  0  0
  185.7990  177.8550  144.1870 C   0  0  1  0  0  3  0  0  0  0  0  0
  191.1330  177.4310  141.5860 C   0  0  0  0  0  0  0  0  0  0  0  0
  192.2940  177.4780  141.9620 O   0  0  0  0  0  0  0  0  0  0  0  0
  188.4460  177.7200  140.6480 C   0  0  0  0  0  3  0  0  0  0  0  0
  187.7850  176.6350  144.3460 C   0  0  1  0  0  3  0  0  0  0  0  0
  186.7020  177.2050  145.1460 N   0  0  0  0  0  2  0  0  0  0  0  0
  190.8370  177.3130  140.1090 C   0  0  0  0  0  2  0  0  0  0  0  0
  189.4530  177.8300  139.7620 C   0  0  0  0  0  0  0  0  0  0  0  0
  190.0050  177.5310  142.5830 C   0  0  1  0  0  3  0  0  0  0  0  0
  187.8460  178.2920  137.8840 C   0  0  0  0  0  2  0  0  0  0  0  0
  189.2350  178.5370  138.4460 C   0  0  2  0  0  3  0  0  0  0  0  0
  189.0310  177.6150  137.2310 C   0  0  1  0  0  3  0  0  0  0  0  0
  188.9500  176.1220  137.5320 C   0  0  0  0  0  2  0  0  0  0  0  0
  189.7200  175.3790  136.5490 N   0  0  0  0  0  2  0  0  0  0  0  0
  191.1090  175.7800  136.6910 C   0  0  0  0  0  2  0  0  0  0  0  0
  191.8380  174.7920  137.5820 C   0  0  0  0  0  1  0  0  0  0  0  0
  185.4730  179.4150  146.2130 C   0  0  0  0  0  1  0  0  0  0  0  0
  185.3790  179.2430  144.6980 C   0  0  2  0  0  3  0  0  0  0  0  0
  184.1990  179.7640  144.1180 O   0  0  0  0  0  0  0  0  0  0  0  0
  183.1140  178.9330  144.4390 C   0  0  0  0  0  1  0  0  0  0  0  0
  1 10  1  0  0  0  0
  2  9  1  6  0  0  0
  2 14  1  0  0  0  0
  2  1  1  0  0  0  0
  4  1  2  0  0  0  0
  4  6  1  0  0  0  0
  5  3  1  0  0  0  0
  6 23  1  1  0  0  0
  6 11  1  0  0  0  0
  7  8  2  0  0  0  0
  7 14  1  0  0  0  0
 10  3  1  1  0  0  0
 10 11  1  0  0  0  0
 12  7  1  0  0  0  0
 13 12  1  0  0  0  0
 13  9  2  0  0  0  0
 14  5  1  1  0  0  0
 15 16  1  0  0  0  0
 16 13  1  1  0  0  0
 17 18  1  1  0  0  0
 17 15  1  0  0  0  0
 17 16  1  0  0  0  0
 19 20  1  0  0  0  0
 19 18  1  0  0  0  0
 20 21  1  0  0  0  0
 23 22  1  1  0  0  0
 24 25  1  0  0  0  0
 24 23  1  0  0  0  0
M  END
>  <MODEL>
3

>  <REMARK>
 VINA RESULT:      -7.9      2.762      7.022
  Name = 
  6 active torsions:
  status: ('A' for Active; 'I' for Inactive)
    1  A    between atoms: C_2  and  N_12
    2  A    between atoms: C_10  and  C_11
    3  A    between atoms: C_11  and  O_17
    4  A    between atoms: N_12  and  C_25
    5  A    between atoms: C_15  and  C_23
    6  A    between atoms: C_21  and  C_25
                            x       y       z     vdW  Elec       q    Type
                         _______ _______ _______ _____ _____    ______ ____

>  <TORSDO>
F 6

$$$$
=
 OpenBabel10262419513D

 25 28  0  0  1  0  0  0  0  0999 V2000
  188.0960  176.9510  144.7980 C   0  0  0  0  0  0  0  0  0  0  0  0
  189.0790  176.7950  143.6760 C   0  0  1  0  0  3  0  0  0  0  0  0
  189.7700  177.8910  146.3500 C   0  0  0  0  0  2  0  0  0  0  0  0
  186.8250  177.2790  144.7050 C   0  0  0  0  0  3  0  0  0  0  0  0
  190.8340  177.6110  145.2770 C   0  0  0  0  0  2  0  0  0  0  0  0
  186.2960  177.4720  146.0870 C   0  0  1  0  0  3  0  0  0  0  0  0
  191.2240  177.6930  142.7610 C   0  0  0  0  0  0  0  0  0  0  0  0
  192.3420  178.1680  142.8870 O   0  0  0  0  0  0  0  0  0  0  0  0
  188.5050  176.9350  142.2940 C   0  0  0  0  0  3  0  0  0  0  0  0
  188.5690  176.9480  146.2050 C   0  0  1  0  0  3  0  0  0  0  0  0
  187.4430  177.4290  147.0030 N   0  0  0  0  0  2  0  0  0  0  0  0
  190.8410  177.0370  141.4550 C   0  0  0  0  0  2  0  0  0  0  0  0
  189.3380  177.0240  141.2420 C   0  0  0  0  0  0  0  0  0  0  0  0
  190.2200  177.7980  143.8830 C   0  0  1  0  0  3  0  0  0  0  0  0
  188.9540  178.6070  139.3270 C   0  0  0  0  0  2  0  0  0  0  0  0
  188.7870  177.1900  139.8460 C   0  0  2  0  0  3  0  0  0  0  0  0
  187.5750  178.1300  139.7280 C   0  0  1  0  0  3  0  0  0  0  0  0
  187.1710  178.8640  141.0030 C   0  0  0  0  0  2  0  0  0  0  0  0
  185.7950  179.3180  140.8950 N   0  0  0  0  0  2  0  0  0  0  0  0
  184.9960  178.4990  141.7920 C   0  0  0  0  0  2  0  0  0  0  0  0
  183.6460  178.2160  141.1590 C   0  0  0  0  0  1  0  0  0  0  0  0
  186.0800  179.7200  147.3310 C   0  0  0  0  0  1  0  0  0  0  0  0
  185.5130  178.7840  146.2640 C   0  0  2  0  0  3  0  0  0  0  0  0
  184.1060  178.6440  146.2920 O   0  0  0  0  0  0  0  0  0  0  0  0
  183.5740  179.0140  145.0470 C   0  0  0  0  0  1  0  0  0  0  0  0
  1 10  1  0  0  0  0
  2  9  1  6  0  0  0
  2 14  1  0  0  0  0
  2  1  1  0  0  0  0
  4  1  2  0  0  0  0
  4  6  1  0  0  0  0
  5  3  1  0  0  0  0
  6 23  1  6  0  0  0
  6 11  1  0  0  0  0
  7  8  2  0  0  0  0
  7 14  1  0  0  0  0
 10  3  1  6  0  0  0
 10 11  1  0  0  0  0
 12  7  1  0  0  0  0
 13 12  1  0  0  0  0
 13  9  2  0  0  0  0
 14  5  1  1  0  0  0
 15 17  1  0  0  0  0
 15 16  1  0  0  0  0
 16 13  1  1  0  0  0
 17 16  1  0  0  0  0
 17 18  1  1  0  0  0
 19 18  1  0  0  0  0
 19 20  1  0  0  0  0
 21 20  1  0  0  0  0
 23 24  1  0  0  0  0
 23 22  1  1  0  0  0
 25 24  1  0  0  0  0
M  END
>  <MODEL>
4

>  <REMARK>
 VINA RESULT:      -7.9      2.224      5.841
  Name = 
  6 active torsions:
  status: ('A' for Active; 'I' for Inactive)
    1  A    between atoms: C_2  and  N_12
    2  A    between atoms: C_10  and  C_11
    3  A    between atoms: C_11  and  O_17
    4  A    between atoms: N_12  and  C_25
    5  A    between atoms: C_15  and  C_23
    6  A    between atoms: C_21  and  C_25
                            x       y       z     vdW  Elec       q    Type
                         _______ _______ _______ _____ _____    ______ ____

>  <TORSDO>
F 6

$$$$
=
 OpenBabel10262419513D

 25 28  0  0  1  0  0  0  0  0999 V2000
  184.6780  177.9190  142.8240 C   0  0  0  0  0  0  0  0  0  0  0  0
  185.4510  177.7230  144.0940 C   0  0  1  0  0  3  0  0  0  0  0  0
  183.0970  179.5180  143.8420 C   0  0  0  0  0  2  0  0  0  0  0  0
  185.1520  177.9420  141.5960 C   0  0  0  0  0  3  0  0  0  0  0  0
  183.7710  179.2330  145.1930 C   0  0  0  0  0  2  0  0  0  0  0  0
  184.0400  178.3280  140.6790 C   0  0  1  0  0  3  0  0  0  0  0  0
  186.0490  178.8220  146.2570 C   0  0  0  0  0  0  0  0  0  0  0  0
  185.7990  179.5380  147.2150 O   0  0  0  0  0  0  0  0  0  0  0  0
  186.9130  177.4220  143.9170 C   0  0  0  0  0  3  0  0  0  0  0  0
  183.2540  178.3350  142.8780 C   0  0  1  0  0  3  0  0  0  0  0  0
  182.9060  178.7360  141.5170 N   0  0  0  0  0  2  0  0  0  0  0  0
  187.1770  177.8210  146.3540 C   0  0  0  0  0  2  0  0  0  0  0  0
  187.7240  177.4430  144.9900 C   0  0  0  0  0  0  0  0  0  0  0  0
  185.2660  178.9650  144.9750 C   0  0  1  0  0  3  0  0  0  0  0  0
  190.0090  178.4440  144.6800 C   0  0  0  0  0  2  0  0  0  0  0  0
  189.2000  177.1680  144.8340 C   0  0  2  0  0  3  0  0  0  0  0  0
  189.7990  177.5580  143.4720 C   0  0  1  0  0  3  0  0  0  0  0  0
  188.8610  178.2810  142.5110 C   0  0  0  0  0  2  0  0  0  0  0  0
  189.1140  177.8400  141.1500 N   0  0  0  0  0  2  0  0  0  0  0  0
  190.2560  176.9420  141.1890 C   0  0  0  0  0  2  0  0  0  0  0  0
  191.1520  177.2010  139.9930 C   0  0  0  0  0  1  0  0  0  0  0  0
  183.2330  180.0780  138.9670 C   0  0  0  0  0  1  0  0  0  0  0  0
  184.4190  179.4500  139.6980 C   0  0  2  0  0  3  0  0  0  0  0  0
  185.5380  179.1780  138.8770 O   0  0  0  0  0  0  0  0  0  0  0  0
  185.2460  178.0970  138.0310 C   0  0  0  0  0  1  0  0  0  0  0  0
  1 10  1  0  0  0  0
  1  2  1  0  0  0  0
  2  9  1  6  0  0  0
  2 14  1  0  0  0  0
  3  5  1  0  0  0  0
  4  1  2  0  0  0  0
  6 23  1  6  0  0  0
  6 11  1  0  0  0  0
  6  4  1  0  0  0  0
  7 12  1  0  0  0  0
  7  8  2  0  0  0  0
  9 13  2  0  0  0  0
 10  3  1  1  0  0  0
 11 10  1  0  0  0  0
 13 12  1  0  0  0  0
 14  5  1  1  0  0  0
 14  7  1  0  0  0  0
 15 16  1  0  0  0  0
 16 13  1  6  0  0  0
 17 18  1  6  0  0  0
 17 15  1  0  0  0  0
 17 16  1  0  0  0  0
 19 20  1  0  0  0  0
 19 18  1  0  0  0  0
 21 20  1  0  0  0  0
 23 22  1  6  0  0  0
 24 23  1  0  0  0  0
 25 24  1  0  0  0  0
M  END
>  <MODEL>
5

>  <REMARK>
 VINA RESULT:      -7.7      2.414      6.703
  Name = 
  6 active torsions:
  status: ('A' for Active; 'I' for Inactive)
    1  A    between atoms: C_2  and  N_12
    2  A    between atoms: C_10  and  C_11
    3  A    between atoms: C_11  and  O_17
    4  A    between atoms: N_12  and  C_25
    5  A    between atoms: C_15  and  C_23
    6  A    between atoms: C_21  and  C_25
                            x       y       z     vdW  Elec       q    Type
                         _______ _______ _______ _____ _____    ______ ____

>  <TORSDO>
F 6

$$$$
=
 OpenBabel10262419513D

 25 28  0  0  1  0  0  0  0  0999 V2000
  186.0750  177.5450  144.2590 C   0  0  0  0  0  0  0  0  0  0  0  0
  186.9360  177.2460  145.4500 C   0  0  1  0  0  3  0  0  0  0  0  0
  184.8260  179.3380  145.4060 C   0  0  0  0  0  2  0  0  0  0  0  0
  186.4270  177.5050  142.9910 C   0  0  0  0  0  3  0  0  0  0  0  0
  185.5850  178.9650  146.6890 C   0  0  0  0  0  2  0  0  0  0  0  0
  185.2910  178.0350  142.1810 C   0  0  1  0  0  3  0  0  0  0  0  0
  187.8820  178.2550  147.5330 C   0  0  0  0  0  0  0  0  0  0  0  0
  187.8230  178.9970  148.5010 O   0  0  0  0  0  0  0  0  0  0  0  0
  188.3210  176.7550  145.1370 C   0  0  0  0  0  3  0  0  0  0  0  0
  184.7310  178.1450  144.4460 C   0  0  1  0  0  3  0  0  0  0  0  0
  184.3080  178.5900  143.1190 N   0  0  0  0  0  2  0  0  0  0  0  0
  188.8710  177.1130  147.5320 C   0  0  0  0  0  2  0  0  0  0  0  0
  189.2280  176.6670  146.1270 C   0  0  0  0  0  0  0  0  0  0  0  0
  187.0030  178.5010  146.3300 C   0  0  1  0  0  3  0  0  0  0  0  0
  191.6800  177.0480  146.5310 C   0  0  0  0  0  2  0  0  0  0  0  0
  190.6330  176.1990  145.8320 C   0  0  2  0  0  3  0  0  0  0  0  0
  191.5000  177.1890  145.0350 C   0  0  1  0  0  3  0  0  0  0  0  0
  190.8760  178.5530  144.7580 C   0  0  0  0  0  2  0  0  0  0  0  0
  191.2260  178.9920  143.4180 N   0  0  0  0  0  2  0  0  0  0  0  0
  191.3470  177.8050  142.5890 C   0  0  0  0  0  2  0  0  0  0  0  0
  190.0330  177.5400  141.8800 C   0  0  0  0  0  1  0  0  0  0  0  0
  184.7290  179.3010  140.0070 C   0  0  0  0  0  1  0  0  0  0  0  0
  185.7170  179.0980  141.1540 C   0  0  2  0  0  3  0  0  0  0  0  0
  187.0740  179.0410  140.7590 O   0  0  0  0  0  0  0  0  0  0  0  0
  187.1810  178.3280  139.5550 C   0  0  0  0  0  1  0  0  0  0  0  0
  1 10  1  0  0  0  0
  1  2  1  0  0  0  0
  2  9  1  6  0  0  0
  2 14  1  0  0  0  0
  3  5  1  0  0  0  0
  4  1  2  0  0  0  0
  6 23  1  6  0  0  0
  6  4  1  0  0  0  0
  6 11  1  0  0  0  0
  7  8  2  0  0  0  0
  9 13  2  0  0  0  0
 10  3  1  1  0  0  0
 11 10  1  0  0  0  0
 12  7  1  0  0  0  0
 13 12  1  0  0  0  0
 14  5  1  1  0  0  0
 14  7  1  0  0  0  0
 16 13  1  1  0  0  0
 16 15  1  0  0  0  0
 17 18  1  1  0  0  0
 17 16  1  0  0  0  0
 17 15  1  0  0  0  0
 19 18  1  0  0  0  0
 20 19  1  0  0  0  0
 21 20  1  0  0  0  0
 23 22  1  6  0  0  0
 24 23  1  0  0  0  0
 25 24  1  0  0  0  0
M  END
>  <MODEL>
6

>  <REMARK>
 VINA RESULT:      -7.7      1.854      6.420
  Name = 
  6 active torsions:
  status: ('A' for Active; 'I' for Inactive)
    1  A    between atoms: C_2  and  N_12
    2  A    between atoms: C_10  and  C_11
    3  A    between atoms: C_11  and  O_17
    4  A    between atoms: N_12  and  C_25
    5  A    between atoms: C_15  and  C_23
    6  A    between atoms: C_21  and  C_25
                            x       y       z     vdW  Elec       q    Type
                         _______ _______ _______ _____ _____    ______ ____

>  <TORSDO>
F 6

$$$$
=
 OpenBabel10262419513D

 25 28  0  0  1  0  0  0  0  0999 V2000
  187.2470  177.1030  144.6170 C   0  0  0  0  0  0  0  0  0  0  0  0
  188.6560  176.6800  144.3250 C   0  0  1  0  0  3  0  0  0  0  0  0
  187.8610  178.2930  146.6900 C   0  0  0  0  0  2  0  0  0  0  0  0
  186.3210  177.4460  143.7470 C   0  0  0  0  0  3  0  0  0  0  0  0
  189.2900  177.7570  146.5040 C   0  0  0  0  0  2  0  0  0  0  0  0
  185.1370  177.9440  144.5060 C   0  0  1  0  0  3  0  0  0  0  0  0
  191.0470  177.2940  144.7190 C   0  0  0  0  0  0  0  0  0  0  0  0
  191.9510  177.7470  145.4040 O   0  0  0  0  0  0  0  0  0  0  0  0
  188.9990  176.5450  142.8680 C   0  0  0  0  0  3  0  0  0  0  0  0
  186.8300  177.3810  146.0130 C   0  0  1  0  0  3  0  0  0  0  0  0
  185.5380  178.0570  145.9140 N   0  0  0  0  0  2  0  0  0  0  0  0
  191.3800  176.3890  143.5560 C   0  0  0  0  0  2  0  0  0  0  0  0
  190.2840  176.3810  142.5070 C   0  0  0  0  0  0  0  0  0  0  0  0
  189.6130  177.6660  145.0070 C   0  0  1  0  0  3  0  0  0  0  0  0
  191.3640  177.5090  140.5360 C   0  0  0  0  0  2  0  0  0  0  0  0
  190.6560  176.2670  141.0480 C   0  0  2  0  0  3  0  0  0  0  0  0
  189.9360  177.2510  140.1090 C   0  0  1  0  0  3  0  0  0  0  0  0
  189.0440  178.2880  140.7830 C   0  0  0  0  0  2  0  0  0  0  0  0
  187.8830  178.5540  139.9510 N   0  0  0  0  0  2  0  0  0  0  0  0
  188.1990  178.1050  138.6060 C   0  0  0  0  0  2  0  0  0  0  0  0
  186.9200  177.7520  137.8710 C   0  0  0  0  0  1  0  0  0  0  0  0
  183.0970  179.4850  144.1770 C   0  0  0  0  0  1  0  0  0  0  0  0
  184.6000  179.2890  143.9880 C   0  0  2  0  0  3  0  0  0  0  0  0
  185.0900  179.6830  142.7210 O   0  0  0  0  0  0  0  0  0  0  0  0
  184.2890  179.1220  141.7140 C   0  0  0  0  0  1  0  0  0  0  0  0
  1 10  1  0  0  0  0
  2  9  1  6  0  0  0
  2  1  1  0  0  0  0
  2 14  1  0  0  0  0
  4  6  1  0  0  0  0
  4  1  2  0  0  0  0
  5  3  1  0  0  0  0
  6 23  1  6  0  0  0
  6 11  1  0  0  0  0
  7 14  1  0  0  0  0
  7  8  2  0  0  0  0
 10  3  1  6  0  0  0
 11 10  1  0  0  0  0
 12  7  1  0  0  0  0
 13  9  2  0  0  0  0
 13 12  1  0  0  0  0
 14  5  1  1  0  0  0
 15 16  1  0  0  0  0
 16 13  1  1  0  0  0
 17 15  1  0  0  0  0
 17 18  1  1  0  0  0
 17 16  1  0  0  0  0
 19 18  1  0  0  0  0
 20 19  1  0  0  0  0
 21 20  1  0  0  0  0
 23 22  1  6  0  0  0
 24 23  1  0  0  0  0
 25 24  1  0  0  0  0
M  END
>  <MODEL>
7

>  <REMARK>
 VINA RESULT:      -7.6      1.686      6.833
  Name = 
  6 active torsions:
  status: ('A' for Active; 'I' for Inactive)
    1  A    between atoms: C_2  and  N_12
    2  A    between atoms: C_10  and  C_11
    3  A    between atoms: C_11  and  O_17
    4  A    between atoms: N_12  and  C_25
    5  A    between atoms: C_15  and  C_23
    6  A    between atoms: C_21  and  C_25
                            x       y       z     vdW  Elec       q    Type
                         _______ _______ _______ _____ _____    ______ ____

>  <TORSDO>
F 6

$$$$
=
 OpenBabel10262419513D

 25 28  0  0  1  0  0  0  0  0999 V2000
  184.7380  178.0140  142.8000 C   0  0  0  0  0  0  0  0  0  0  0  0
  185.5860  177.9570  144.0360 C   0  0  1  0  0  3  0  0  0  0  0  0
  182.9000  179.2210  143.9200 C   0  0  0  0  0  2  0  0  0  0  0  0
  185.1480  178.1630  141.5580 C   0  0  0  0  0  3  0  0  0  0  0  0
  183.6720  179.0540  145.2380 C   0  0  0  0  0  2  0  0  0  0  0  0
  183.9440  178.3270  140.6920 C   0  0  1  0  0  3  0  0  0  0  0  0
  186.0260  179.1090  146.2100 C   0  0  0  0  0  0  0  0  0  0  0  0
  185.6700  179.7350  147.1970 O   0  0  0  0  0  0  0  0  0  0  0  0
  187.0700  177.9740  143.8000 C   0  0  0  0  0  3  0  0  0  0  0  0
  183.2620  178.1190  142.9160 C   0  0  1  0  0  3  0  0  0  0  0  0
  182.7840  178.4690  141.5800 N   0  0  0  0  0  2  0  0  0  0  0  0
  187.3410  178.3650  146.2380 C   0  0  0  0  0  2  0  0  0  0  0  0
  187.9000  178.1410  144.8450 C   0  0  0  0  0  0  0  0  0  0  0  0
  185.1800  179.1120  144.9600 C   0  0  1  0  0  3  0  0  0  0  0  0
  189.9690  176.8200  144.3020 C   0  0  0  0  0  2  0  0  0  0  0  0
  189.3940  178.1860  144.6310 C   0  0  2  0  0  3  0  0  0  0  0  0
  190.2290  177.4160  145.6690 C   0  0  1  0  0  3  0  0  0  0  0  0
  189.4410  176.6100  146.6960 C   0  0  0  0  0  2  0  0  0  0  0  0
  190.3570  175.8950  147.5690 N   0  0  0  0  0  2  0  0  0  0  0  0
  191.6570  176.5320  147.4500 C   0  0  0  0  0  2  0  0  0  0  0  0
  192.7010  175.7030  148.1730 C   0  0  0  0  0  1  0  0  0  0  0  0
  182.7160  179.9190  139.0790 C   0  0  0  0  0  1  0  0  0  0  0  0
  184.0400  179.5250  139.7330 C   0  0  2  0  0  3  0  0  0  0  0  0
  185.1470  179.5020  138.8520 O   0  0  0  0  0  0  0  0  0  0  0  0
  185.0200  178.4190  137.9690 C   0  0  0  0  0  1  0  0  0  0  0  0
  1 10  1  0  0  0  0
  1  2  1  0  0  0  0
  2  9  1  6  0  0  0
  2 14  1  0  0  0  0
  3  5  1  0  0  0  0
  4  1  2  0  0  0  0
  6 23  1  1  0  0  0
  6  4  1  0  0  0  0
  6 11  1  0  0  0  0
  7 12  1  0  0  0  0
  7  8  2  0  0  0  0
  9 13  2  0  0  0  0
 10  3  1  1  0  0  0
 11 10  1  0  0  0  0
 13 12  1  0  0  0  0
 14  5  1  1  0  0  0
 14  7  1  0  0  0  0
 15 16  1  0  0  0  0
 15 17  1  0  0  0  0
 16 13  1  1  0  0  0
 16 17  1  0  0  0  0
 17 18  1  1  0  0  0
 18 19  1  0  0  0  0
 20 19  1  0  0  0  0
 20 21  1  0  0  0  0
 23 22  1  6  0  0  0
 24 23  1  0  0  0  0
 25 24  1  0  0  0  0
M  END
>  <MODEL>
8

>  <REMARK>
 VINA RESULT:      -7.5      2.595      6.514
  Name = 
  6 active torsions:
  status: ('A' for Active; 'I' for Inactive)
    1  A    between atoms: C_2  and  N_12
    2  A    between atoms: C_10  and  C_11
    3  A    between atoms: C_11  and  O_17
    4  A    between atoms: N_12  and  C_25
    5  A    between atoms: C_15  and  C_23
    6  A    between atoms: C_21  and  C_25
                            x       y       z     vdW  Elec       q    Type
                         _______ _______ _______ _____ _____    ______ ____

>  <TORSDO>
F 6

$$$$
=
 OpenBabel10262419513D

 25 28  0  0  1  0  0  0  0  0999 V2000
  188.3710  178.2080  140.1190 C   0  0  0  0  0  0  0  0  0  0  0  0
  188.7470  177.9070  141.5400 C   0  0  1  0  0  3  0  0  0  0  0  0
  190.3720  177.1070  139.1840 C   0  0  0  0  0  2  0  0  0  0  0  0
  187.1610  178.2310  139.6020 C   0  0  0  0  0  3  0  0  0  0  0  0
  190.8640  176.9080  140.6270 C   0  0  0  0  0  2  0  0  0  0  0  0
  187.2930  178.4160  138.1280 C   0  0  1  0  0  3  0  0  0  0  0  0
  190.0470  176.3190  142.9660 C   0  0  0  0  0  0  0  0  0  0  0  0
  190.9980  175.5820  143.1790 O   0  0  0  0  0  0  0  0  0  0  0  0
  187.5940  177.7090  142.4820 C   0  0  0  0  0  3  0  0  0  0  0  0
  189.4240  178.3080  139.0780 C   0  0  1  0  0  3  0  0  0  0  0  0
  188.7180  178.2890  137.7980 N   0  0  0  0  0  2  0  0  0  0  0  0
  189.2350  176.8360  144.1300 C   0  0  0  0  0  2  0  0  0  0  0  0
  187.8280  177.2270  143.7170 C   0  0  0  0  0  0  0  0  0  0  0  0
  189.6620  176.6760  141.5510 C   0  0  1  0  0  3  0  0  0  0  0  0
  186.0330  178.2960  145.1150 C   0  0  0  0  0  2  0  0  0  0  0  0
  186.6840  176.9970  144.6740 C   0  0  2  0  0  3  0  0  0  0  0  0
  186.9010  177.5380  146.0970 C   0  0  1  0  0  3  0  0  0  0  0  0
  188.1770  178.3420  146.3200 C   0  0  0  0  0  2  0  0  0  0  0  0
  188.7280  178.0390  147.6300 N   0  0  0  0  0  2  0  0  0  0  0  0
  189.2990  176.7040  147.5640 C   0  0  0  0  0  2  0  0  0  0  0  0
  190.8080  176.7980  147.4470 C   0  0  0  0  0  1  0  0  0  0  0  0
  184.9600  177.4520  137.6060 C   0  0  0  0  0  1  0  0  0  0  0  0
  186.4580  177.4160  137.3100 C   0  0  2  0  0  3  0  0  0  0  0  0
  187.0070  176.1160  137.2100 O   0  0  0  0  0  0  0  0  0  0  0  0
  186.0020  175.2120  136.8350 C   0  0  0  0  0  1  0  0  0  0  0  0
  1  2  1  0  0  0  0
  2 14  1  0  0  0  0
  2  9  1  1  0  0  0
  3  5  1  0  0  0  0
  4  1  2  0  0  0  0
  6 23  1  6  0  0  0
  6  4  1  0  0  0  0
  7  8  2  0  0  0  0
  7 12  1  0  0  0  0
  9 13  2  0  0  0  0
 10  3  1  6  0  0  0
 10  1  1  0  0  0  0
 11  6  1  0  0  0  0
 11 10  1  0  0  0  0
 13 12  1  0  0  0  0
 14  5  1  6  0  0  0
 14  7  1  0  0  0  0
 15 17  1  0  0  0  0
 16 13  1  6  0  0  0
 16 15  1  0  0  0  0
 16 17  1  0  0  0  0
 17 18  1  6  0  0  0
 18 19  1  0  0  0  0
 20 19  1  0  0  0  0
 21 20  1  0  0  0  0
 23 22  1  1  0  0  0
 24 23  1  0  0  0  0
 25 24  1  0  0  0  0
M  END
>  <MODEL>
9

>  <REMARK>
 VINA RESULT:      -7.4      2.520      5.472
  Name = 
  6 active torsions:
  status: ('A' for Active; 'I' for Inactive)
    1  A    between atoms: C_2  and  N_12
    2  A    between atoms: C_10  and  C_11
    3  A    between atoms: C_11  and  O_17
    4  A    between atoms: N_12  and  C_25
    5  A    between atoms: C_15  and  C_23
    6  A    between atoms: C_21  and  C_25
                            x       y       z     vdW  Elec       q    Type
                         _______ _______ _______ _____ _____    ______ ____

>  <TORSDO>
F 6

$$$$
