=
 OpenBabel10262419263D

 31 35  0  0  1  0  0  0  0  0999 V2000
  189.9760  177.5340  147.1940 C   0  0  0  0  0  0  0  0  0  0  0  0
  188.2330  177.7900  143.7920 C   0  0  0  0  0  0  0  0  0  0  0  0
  186.8760  178.1770  144.0280 C   0  0  0  0  0  0  0  0  0  0  0  0
  184.9350  177.6700  145.5780 C   0  0  0  0  0  2  0  0  0  0  0  0
  189.2010  177.4270  144.8840 C   0  0  0  0  0  0  0  0  0  0  0  0
  191.1060  176.7860  146.8600 C   0  0  0  0  0  3  0  0  0  0  0  0
  186.3470  178.2170  145.4440 C   0  0  0  0  0  2  0  0  0  0  0  0
  190.1360  177.3080  142.1690 C   0  0  2  0  0  3  0  0  0  0  0  0
  189.7920  177.9500  148.4690 F   0  0  0  0  0  0  0  0  0  0  0  0
  186.5860  178.5400  141.6340 C   0  0  0  0  0  3  0  0  0  0  0  0
  183.9090  178.7900  145.4120 C   0  0  0  0  0  2  0  0  0  0  0  0
  190.5960  176.2390  143.1560 C   0  0  0  0  0  2  0  0  0  0  0  0
  188.7060  177.7190  142.4550 C   0  0  0  0  0  0  0  0  0  0  0  0
  189.0370  177.8560  146.2110 C   0  0  0  0  0  3  0  0  0  0  0  0
  184.2340  179.7260  144.2500 C   0  0  0  0  0  2  0  0  0  0  0  0
  190.3670  176.6990  144.5570 C   0  0  0  0  0  0  0  0  0  0  0  0
  191.3010  176.3690  145.5430 C   0  0  0  0  0  3  0  0  0  0  0  0
  187.8870  178.1250  141.4010 C   0  0  0  0  0  3  0  0  0  0  0  0
  186.0650  178.5770  142.9240 C   0  0  0  0  0  0  0  0  0  0  0  0
  184.6020  178.9320  143.0060 C   0  0  0  0  0  2  0  0  0  0  0  0
  191.6220  175.3590  136.0440 C   0  0  2  0  0  3  0  0  0  0  0  0
  190.3760  175.7870  138.1460 C   0  0  0  0  0  2  0  0  0  0  0  0
  193.9150  176.5320  138.5740 O   0  0  0  0  0  0  0  0  0  0  0  0
  192.4620  177.5840  140.5480 O   0  0  0  0  0  0  0  0  0  0  0  0
  191.5440  175.3750  134.5950 N   0  0  0  0  0  1  0  0  0  0  0  0
  191.4860  176.9600  140.0480 C   0  0  0  0  0  0  0  0  0  0  0  0
  190.3380  175.9250  136.6290 C   0  0  0  0  0  2  0  0  0  0  0  0
  192.8130  176.3750  137.9840 C   0  0  0  0  0  0  0  0  0  0  0  0
  191.5670  176.4260  138.7140 N   0  0  0  0  0  0  0  0  0  0  0  0
  190.2820  176.8050  140.8070 N   0  0  0  0  0  2  0  0  0  0  0  0
  192.8120  176.1930  136.4970 C   0  0  0  0  0  2  0  0  0  0  0  0
  1  9  1  0  0  0  0
  2  3  1  0  0  0  0
  2  5  1  0  0  0  0
  3  7  1  0  0  0  0
  5 14  1  0  0  0  0
  6  1  1  0  0  0  0
  7  4  1  0  0  0  0
  8 30  1  6  0  0  0
  8 13  1  0  0  0  0
  8 12  1  0  0  0  0
 10 19  1  0  0  0  0
 11  4  1  0  0  0  0
 12 16  1  0  0  0  0
 13  2  2  0  0  0  0
 14  1  2  0  0  0  0
 15 11  1  0  0  0  0
 16  5  2  0  0  0  0
 16 17  1  0  0  0  0
 17  6  2  0  0  0  0
 18 10  2  0  0  0  0
 18 13  1  0  0  0  0
 19 20  1  0  0  0  0
 19  3  2  0  0  0  0
 20 15  1  0  0  0  0
 21 25  1  6  0  0  0
 21 31  1  0  0  0  0
 21 27  1  0  0  0  0
 22 29  1  0  0  0  0
 26 24  2  0  0  0  0
 26 30  1  0  0  0  0
 27 22  1  0  0  0  0
 28 23  2  0  0  0  0
 28 29  1  0  0  0  0
 29 26  1  0  0  0  0
 31 28  1  0  0  0  0
M  END
>  <MODEL>
1

>  <REMARK>
 VINA RESULT:     -11.8      0.000      0.000
  Name = 
  1 active torsions:
  status: ('A' for Active; 'I' for Inactive)
    1  A    between atoms: C_15  and  N_23
                            x       y       z     vdW  Elec       q    Type
                         _______ _______ _______ _____ _____    ______ ____

>  <TORSDO>
F 1

$$$$
=
 OpenBabel10262419263D

 31 35  0  0  1  0  0  0  0  0999 V2000
  183.9840  178.6990  143.4900 C   0  0  0  0  0  0  0  0  0  0  0  0
  187.6410  177.6130  143.8500 C   0  0  0  0  0  0  0  0  0  0  0  0
  187.9490  177.5850  145.2460 C   0  0  0  0  0  0  0  0  0  0  0  0
  187.5910  178.9380  147.3600 C   0  0  0  0  0  2  0  0  0  0  0  0
  186.3510  178.1460  143.2880 C   0  0  0  0  0  0  0  0  0  0  0  0
  183.9450  179.0680  142.1440 C   0  0  0  0  0  3  0  0  0  0  0  0
  186.9510  178.1310  146.2420 C   0  0  0  0  0  2  0  0  0  0  0  0
  188.3100  177.1520  141.4350 C   0  0  2  0  0  3  0  0  0  0  0  0
  182.8670  178.7880  144.2490 F   0  0  0  0  0  0  0  0  0  0  0  0
  190.0630  176.4810  144.7340 C   0  0  0  0  0  3  0  0  0  0  0  0
  187.9290  178.0370  148.5460 C   0  0  0  0  0  2  0  0  0  0  0  0
  187.5030  178.3930  141.0620 C   0  0  0  0  0  2  0  0  0  0  0  0
  188.6020  177.1330  142.9210 C   0  0  0  0  0  0  0  0  0  0  0  0
  185.1760  178.2360  144.0530 C   0  0  0  0  0  3  0  0  0  0  0  0
  188.5710  176.7160  148.1250 C   0  0  0  0  0  2  0  0  0  0  0  0
  186.2860  178.4910  141.9210 C   0  0  0  0  0  0  0  0  0  0  0  0
  185.0950  178.9630  141.3610 C   0  0  0  0  0  3  0  0  0  0  0  0
  189.7830  176.5460  143.3790 C   0  0  0  0  0  3  0  0  0  0  0  0
  189.1710  176.9850  145.6760 C   0  0  0  0  0  0  0  0  0  0  0  0
  189.6680  176.9530  147.0990 C   0  0  0  0  0  2  0  0  0  0  0  0
  193.3620  176.7500  137.2120 C   0  0  2  0  0  3  0  0  0  0  0  0
  192.0420  177.0880  139.2850 C   0  0  0  0  0  2  0  0  0  0  0  0
  189.8420  176.6710  136.4120 O   0  0  0  0  0  0  0  0  0  0  0  0
  188.5060  176.3740  138.7020 O   0  0  0  0  0  0  0  0  0  0  0  0
  194.5860  176.1980  136.6620 N   0  0  0  0  0  1  0  0  0  0  0  0
  189.5710  176.7370  139.2720 C   0  0  0  0  0  0  0  0  0  0  0  0
  193.2630  176.3980  138.6870 C   0  0  0  0  0  2  0  0  0  0  0  0
  190.8770  176.5630  137.1210 C   0  0  0  0  0  0  0  0  0  0  0  0
  190.8180  176.7430  138.5530 N   0  0  0  0  0  0  0  0  0  0  0  0
  189.5400  177.1210  140.6510 N   0  0  0  0  0  2  0  0  0  0  0  0
  192.1670  176.1820  136.4590 C   0  0  0  0  0  2  0  0  0  0  0  0
  1 14  1  0  0  0  0
  1  9  1  0  0  0  0
  2  3  1  0  0  0  0
  3 19  2  0  0  0  0
  3  7  1  0  0  0  0
  4 11  1  0  0  0  0
  5  2  1  0  0  0  0
  5 14  2  0  0  0  0
  6  1  2  0  0  0  0
  7  4  1  0  0  0  0
  8 30  1  6  0  0  0
  8 13  1  0  0  0  0
 10 19  1  0  0  0  0
 12  8  1  0  0  0  0
 12 16  1  0  0  0  0
 13 18  1  0  0  0  0
 13  2  2  0  0  0  0
 15 11  1  0  0  0  0
 16  5  1  0  0  0  0
 17 16  2  0  0  0  0
 17  6  1  0  0  0  0
 18 10  2  0  0  0  0
 19 20  1  0  0  0  0
 20 15  1  0  0  0  0
 21 25  1  6  0  0  0
 21 27  1  0  0  0  0
 23 28  2  0  0  0  0
 24 26  2  0  0  0  0
 26 30  1  0  0  0  0
 27 22  1  0  0  0  0
 28 29  1  0  0  0  0
 29 26  1  0  0  0  0
 29 22  1  0  0  0  0
 31 28  1  0  0  0  0
 31 21  1  0  0  0  0
M  END
>  <MODEL>
2

>  <REMARK>
 VINA RESULT:     -10.9      2.261      4.469
  Name = 
  1 active torsions:
  status: ('A' for Active; 'I' for Inactive)
    1  A    between atoms: C_15  and  N_23
                            x       y       z     vdW  Elec       q    Type
                         _______ _______ _______ _____ _____    ______ ____

>  <TORSDO>
F 1

$$$$
=
 OpenBabel10262419263D

 31 35  0  0  1  0  0  0  0  0999 V2000
  192.0270  177.4030  140.7320 C   0  0  0  0  0  0  0  0  0  0  0  0
  189.4500  177.4580  143.5670 C   0  0  0  0  0  0  0  0  0  0  0  0
  190.1050  177.0100  144.7570 C   0  0  0  0  0  0  0  0  0  0  0  0
  191.7230  175.2270  145.5500 C   0  0  0  0  0  2  0  0  0  0  0  0
  190.0800  177.4250  142.2020 C   0  0  0  0  0  0  0  0  0  0  0  0
  191.1950  177.4570  139.6130 C   0  0  0  0  0  3  0  0  0  0  0  0
  191.5060  176.4470  144.6710 C   0  0  0  0  0  2  0  0  0  0  0  0
  187.3960  178.4270  142.4140 C   0  0  2  0  0  3  0  0  0  0  0  0
  193.3710  177.3610  140.5750 F   0  0  0  0  0  0  0  0  0  0  0  0
  188.1580  177.6920  146.0590 C   0  0  0  0  0  3  0  0  0  0  0  0
  192.2270  175.6440  146.9310 C   0  0  0  0  0  2  0  0  0  0  0  0
  187.7710  177.5700  141.2080 C   0  0  0  0  0  2  0  0  0  0  0  0
  188.1210  177.9490  143.6550 C   0  0  0  0  0  0  0  0  0  0  0  0
  191.4720  177.3940  142.0140 C   0  0  0  0  0  3  0  0  0  0  0  0
  191.4720  176.8430  147.5020 C   0  0  0  0  0  2  0  0  0  0  0  0
  189.2550  177.5130  141.0600 C   0  0  0  0  0  0  0  0  0  0  0  0
  189.8100  177.5130  139.7770 C   0  0  0  0  0  3  0  0  0  0  0  0
  187.5080  178.0870  144.9020 C   0  0  0  0  0  3  0  0  0  0  0  0
  189.4440  177.1600  146.0130 C   0  0  0  0  0  0  0  0  0  0  0  0
  189.9710  176.6640  147.3360 C   0  0  0  0  0  2  0  0  0  0  0  0
  180.8010  178.6120  142.4240 C   0  0  2  0  0  3  0  0  0  0  0  0
  183.1530  178.2950  143.1470 C   0  0  0  0  0  2  0  0  0  0  0  0
  182.9870  178.9850  139.5740 O   0  0  0  0  0  0  0  0  0  0  0  0
  185.4690  179.2920  140.5020 O   0  0  0  0  0  0  0  0  0  0  0  0
  179.4910  179.0930  142.8240 N   0  0  0  0  0  1  0  0  0  0  0  0
  185.0290  178.8300  141.5900 C   0  0  0  0  0  0  0  0  0  0  0  0
  181.8100  178.9140  143.5190 C   0  0  0  0  0  2  0  0  0  0  0  0
  182.6430  178.9880  140.7860 C   0  0  0  0  0  0  0  0  0  0  0  0
  183.6120  178.7580  141.8330 N   0  0  0  0  0  0  0  0  0  0  0  0
  185.9480  178.3960  142.5990 N   0  0  0  0  0  2  0  0  0  0  0  0
  181.2170  179.2960  141.1290 C   0  0  0  0  0  2  0  0  0  0  0  0
  1 14  1  0  0  0  0
  2 13  2  0  0  0  0
  2  3  1  0  0  0  0
  3 19  2  0  0  0  0
  4 11  1  0  0  0  0
  5  2  1  0  0  0  0
  6 17  1  0  0  0  0
  6  1  2  0  0  0  0
  7  3  1  0  0  0  0
  7  4  1  0  0  0  0
  8 30  1  1  0  0  0
  8 13  1  0  0  0  0
  9  1  1  0  0  0  0
 11 15  1  0  0  0  0
 12  8  1  0  0  0  0
 13 18  1  0  0  0  0
 14  5  2  0  0  0  0
 16 12  1  0  0  0  0
 16  5  1  0  0  0  0
 17 16  2  0  0  0  0
 18 10  2  0  0  0  0
 19 10  1  0  0  0  0
 19 20  1  0  0  0  0
 20 15  1  0  0  0  0
 21 25  1  1  0  0  0
 21 27  1  0  0  0  0
 22 27  1  0  0  0  0
 23 28  2  0  0  0  0
 24 26  2  0  0  0  0
 26 29  1  0  0  0  0
 26 30  1  0  0  0  0
 28 31  1  0  0  0  0
 28 29  1  0  0  0  0
 29 22  1  0  0  0  0
 31 21  1  0  0  0  0
M  END
>  <MODEL>
3

>  <REMARK>
 VINA RESULT:     -10.4      3.980      7.749
  Name = 
  1 active torsions:
  status: ('A' for Active; 'I' for Inactive)
    1  A    between atoms: C_15  and  N_23
                            x       y       z     vdW  Elec       q    Type
                         _______ _______ _______ _____ _____    ______ ____

>  <TORSDO>
F 1

$$$$
=
 OpenBabel10262419263D

 31 35  0  0  1  0  0  0  0  0999 V2000
  185.7310  178.4980  146.4970 C   0  0  0  0  0  0  0  0  0  0  0  0
  184.5980  178.6290  142.8390 C   0  0  0  0  0  0  0  0  0  0  0  0
  183.1760  178.7800  142.8320 C   0  0  0  0  0  0  0  0  0  0  0  0
  181.1040  177.8950  143.9940 C   0  0  0  0  0  2  0  0  0  0  0  0
  185.4050  178.3750  144.0830 C   0  0  0  0  0  0  0  0  0  0  0  0
  187.0110  177.9570  146.3620 C   0  0  0  0  0  3  0  0  0  0  0  0
  182.4060  178.6680  144.1280 C   0  0  0  0  0  2  0  0  0  0  0  0
  186.8110  178.5370  141.5820 C   0  0  2  0  0  3  0  0  0  0  0  0
  185.2570  178.8170  147.7240 F   0  0  0  0  0  0  0  0  0  0  0  0
  183.2570  179.2040  140.4310 C   0  0  0  0  0  3  0  0  0  0  0  0
  179.9510  178.8410  143.6630 C   0  0  0  0  0  2  0  0  0  0  0  0
  187.2620  177.5100  142.6170 C   0  0  0  0  0  2  0  0  0  0  0  0
  185.3050  178.6980  141.6100 C   0  0  0  0  0  0  0  0  0  0  0  0
  184.9400  178.7100  145.3660 C   0  0  0  0  0  3  0  0  0  0  0  0
  180.3150  179.8710  142.5950 C   0  0  0  0  0  2  0  0  0  0  0  0
  186.7150  177.8610  143.9610 C   0  0  0  0  0  0  0  0  0  0  0  0
  187.5020  177.6410  145.0950 C   0  0  0  0  0  3  0  0  0  0  0  0
  184.6290  179.0160  140.4320 C   0  0  0  0  0  3  0  0  0  0  0  0
  182.5170  179.0960  141.6050 C   0  0  0  0  0  0  0  0  0  0  0  0
  181.0240  179.2070  141.4260 C   0  0  0  0  0  2  0  0  0  0  0  0
  189.6920  176.5060  136.0050 C   0  0  2  0  0  3  0  0  0  0  0  0
  188.0250  177.4060  137.6070 C   0  0  0  0  0  2  0  0  0  0  0  0
  190.9080  176.0550  139.3750 O   0  0  0  0  0  0  0  0  0  0  0  0
  189.4310  177.5980  140.9730 O   0  0  0  0  0  0  0  0  0  0  0  0
  190.2690  176.6590  134.6820 N   0  0  0  0  0  1  0  0  0  0  0  0
  188.6050  177.6470  140.0220 C   0  0  0  0  0  0  0  0  0  0  0  0
  188.7200  177.6430  136.2700 C   0  0  0  0  0  2  0  0  0  0  0  0
  190.2440  176.5680  138.4360 C   0  0  0  0  0  0  0  0  0  0  0  0
  188.9940  177.2460  138.6950 N   0  0  0  0  0  0  0  0  0  0  0  0
  187.2780  178.1280  140.2600 N   0  0  0  0  0  2  0  0  0  0  0  0
  190.8030  176.5170  137.0470 C   0  0  0  0  0  2  0  0  0  0  0  0
  1  9  1  0  0  0  0
  2  5  1  0  0  0  0
  3  2  1  0  0  0  0
  3  7  1  0  0  0  0
  4  7  1  0  0  0  0
  5 14  1  0  0  0  0
  6  1  1  0  0  0  0
  8 30  1  6  0  0  0
  8 13  1  0  0  0  0
  8 12  1  0  0  0  0
 10 18  2  0  0  0  0
 10 19  1  0  0  0  0
 11  4  1  0  0  0  0
 12 16  1  0  0  0  0
 13  2  2  0  0  0  0
 14  1  2  0  0  0  0
 15 11  1  0  0  0  0
 16  5  2  0  0  0  0
 16 17  1  0  0  0  0
 17  6  2  0  0  0  0
 18 13  1  0  0  0  0
 19  3  2  0  0  0  0
 20 19  1  0  0  0  0
 20 15  1  0  0  0  0
 21 25  1  6  0  0  0
 21 27  1  0  0  0  0
 21 31  1  0  0  0  0
 22 29  1  0  0  0  0
 26 30  1  0  0  0  0
 26 24  2  0  0  0  0
 27 22  1  0  0  0  0
 28 29  1  0  0  0  0
 28 23  2  0  0  0  0
 29 26  1  0  0  0  0
 31 28  1  0  0  0  0
M  END
>  <MODEL>
4

>  <REMARK>
 VINA RESULT:     -10.1      2.399      3.600
  Name = 
  1 active torsions:
  status: ('A' for Active; 'I' for Inactive)
    1  A    between atoms: C_15  and  N_23
                            x       y       z     vdW  Elec       q    Type
                         _______ _______ _______ _____ _____    ______ ____

>  <TORSDO>
F 1

$$$$
=
 OpenBabel10262419263D

 31 35  0  0  1  0  0  0  0  0999 V2000
  191.0710  177.0890  146.9350 C   0  0  0  0  0  0  0  0  0  0  0  0
  188.3630  177.4720  144.2510 C   0  0  0  0  0  0  0  0  0  0  0  0
  187.1430  177.8180  144.9130 C   0  0  0  0  0  0  0  0  0  0  0  0
  185.7760  177.1960  146.9550 C   0  0  0  0  0  2  0  0  0  0  0  0
  189.6230  177.0770  144.9720 C   0  0  0  0  0  0  0  0  0  0  0  0
  192.0470  176.3810  146.2320 C   0  0  0  0  0  3  0  0  0  0  0  0
  187.0760  177.7780  146.4230 C   0  0  0  0  0  2  0  0  0  0  0  0
  189.6780  177.1100  142.1000 C   0  0  2  0  0  3  0  0  0  0  0  0
  191.2850  177.4380  148.2250 F   0  0  0  0  0  0  0  0  0  0  0  0
  186.1290  178.2900  142.7460 C   0  0  0  0  0  3  0  0  0  0  0  0
  184.7430  178.3000  147.1710 C   0  0  0  0  0  2  0  0  0  0  0  0
  190.4240  176.0030  142.8400 C   0  0  0  0  0  2  0  0  0  0  0  0
  188.4030  177.4760  142.8320 C   0  0  0  0  0  0  0  0  0  0  0  0
  189.8730  177.4380  146.3070 C   0  0  0  0  0  3  0  0  0  0  0  0
  184.6890  179.2980  146.0160 C   0  0  0  0  0  2  0  0  0  0  0  0
  190.6350  176.3910  144.2660 C   0  0  0  0  0  0  0  0  0  0  0  0
  191.8290  176.0330  144.8980 C   0  0  0  0  0  3  0  0  0  0  0  0
  187.2970  177.9150  142.1030 C   0  0  0  0  0  3  0  0  0  0  0  0
  186.0290  178.2540  144.1340 C   0  0  0  0  0  0  0  0  0  0  0  0
  184.6610  178.5740  144.6790 C   0  0  0  0  0  2  0  0  0  0  0  0
  188.3750  176.0130  135.7260 C   0  0  2  0  0  3  0  0  0  0  0  0
  188.8400  175.6480  138.1350 C   0  0  0  0  0  2  0  0  0  0  0  0
  189.3180  179.1480  137.2490 O   0  0  0  0  0  0  0  0  0  0  0  0
  189.1570  178.8350  139.8930 O   0  0  0  0  0  0  0  0  0  0  0  0
  187.5750  175.5830  134.5940 N   0  0  0  0  0  1  0  0  0  0  0  0
  189.1630  177.5950  139.6620 C   0  0  0  0  0  0  0  0  0  0  0  0
  187.9140  175.2870  136.9790 C   0  0  0  0  0  2  0  0  0  0  0  0
  188.8660  177.9740  137.1850 C   0  0  0  0  0  0  0  0  0  0  0  0
  188.9100  177.0990  138.3340 N   0  0  0  0  0  0  0  0  0  0  0  0
  189.4000  176.6760  140.7340 N   0  0  0  0  0  2  0  0  0  0  0  0
  188.2260  177.5170  135.9100 C   0  0  0  0  0  2  0  0  0  0  0  0
  1  9  1  0  0  0  0
  2  3  1  0  0  0  0
  2  5  1  0  0  0  0
  3  7  1  0  0  0  0
  4 11  1  0  0  0  0
  5 14  2  0  0  0  0
  6  1  2  0  0  0  0
  7  4  1  0  0  0  0
  8 30  1  6  0  0  0
  8 13  1  0  0  0  0
  8 12  1  0  0  0  0
 10 19  1  0  0  0  0
 12 16  1  0  0  0  0
 13  2  2  0  0  0  0
 14  1  1  0  0  0  0
 15 11  1  0  0  0  0
 16 17  2  0  0  0  0
 16  5  1  0  0  0  0
 17  6  1  0  0  0  0
 18 10  2  0  0  0  0
 18 13  1  0  0  0  0
 19 20  1  0  0  0  0
 19  3  2  0  0  0  0
 20 15  1  0  0  0  0
 21 25  1  6  0  0  0
 21 31  1  0  0  0  0
 21 27  1  0  0  0  0
 22 29  1  0  0  0  0
 26 24  2  0  0  0  0
 26 30  1  0  0  0  0
 27 22  1  0  0  0  0
 28 23  2  0  0  0  0
 28 29  1  0  0  0  0
 29 26  1  0  0  0  0
 31 28  1  0  0  0  0
M  END
>  <MODEL>
5

>  <REMARK>
 VINA RESULT:      -9.4      2.155      2.295
  Name = 
  1 active torsions:
  status: ('A' for Active; 'I' for Inactive)
    1  A    between atoms: C_15  and  N_23
                            x       y       z     vdW  Elec       q    Type
                         _______ _______ _______ _____ _____    ______ ____

>  <TORSDO>
F 1

$$$$
=
 OpenBabel10262419263D

 31 35  0  0  1  0  0  0  0  0999 V2000
  186.9070  177.8780  147.2120 C   0  0  0  0  0  0  0  0  0  0  0  0
  187.3320  178.1430  143.4140 C   0  0  0  0  0  0  0  0  0  0  0  0
  188.7310  178.0580  143.1270 C   0  0  0  0  0  0  0  0  0  0  0  0
  190.9600  178.9250  143.9680 C   0  0  0  0  0  2  0  0  0  0  0  0
  186.7680  178.2410  144.8050 C   0  0  0  0  0  0  0  0  0  0  0  0
  185.6110  178.3690  147.3720 C   0  0  0  0  0  3  0  0  0  0  0  0
  189.7290  178.0840  144.2630 C   0  0  0  0  0  2  0  0  0  0  0  0
  184.9200  178.2490  142.6040 C   0  0  2  0  0  3  0  0  0  0  0  0
  187.6130  177.4670  148.2920 F   0  0  0  0  0  0  0  0  0  0  0  0
  188.2100  177.8580  140.7530 C   0  0  0  0  0  3  0  0  0  0  0  0
  192.0550  178.0690  143.3360 C   0  0  0  0  0  2  0  0  0  0  0  0
  184.6440  179.1520  143.8030 C   0  0  0  0  0  2  0  0  0  0  0  0
  186.4080  178.1560  142.3370 C   0  0  0  0  0  0  0  0  0  0  0  0
  187.4760  177.8090  145.9390 C   0  0  0  0  0  3  0  0  0  0  0  0
  191.5250  177.1280  142.2560 C   0  0  0  0  0  2  0  0  0  0  0  0
  185.4450  178.7030  144.9800 C   0  0  0  0  0  0  0  0  0  0  0  0
  184.8800  178.7800  146.2560 C   0  0  0  0  0  3  0  0  0  0  0  0
  186.8580  177.9820  141.0270 C   0  0  0  0  0  3  0  0  0  0  0  0
  189.1550  177.8890  141.7750 C   0  0  0  0  0  0  0  0  0  0  0  0
  190.5890  177.8650  141.3110 C   0  0  0  0  0  2  0  0  0  0  0  0
  180.9310  180.4090  137.8140 C   0  0  2  0  0  3  0  0  0  0  0  0
  182.9650  179.7440  139.0690 C   0  0  0  0  0  2  0  0  0  0  0  0
  180.0580  179.7880  141.2620 O   0  0  0  0  0  0  0  0  0  0  0  0
  182.0880  178.4670  142.3780 O   0  0  0  0  0  0  0  0  0  0  0  0
  180.2630  180.3620  136.5260 N   0  0  0  0  0  1  0  0  0  0  0  0
  182.7730  178.8590  141.3940 C   0  0  0  0  0  0  0  0  0  0  0  0
  182.2060  179.5850  137.7560 C   0  0  0  0  0  2  0  0  0  0  0  0
  180.7190  179.6960  140.1940 C   0  0  0  0  0  0  0  0  0  0  0  0
  182.1290  179.3840  140.2180 N   0  0  0  0  0  0  0  0  0  0  0  0
  184.2010  178.7580  141.4400 N   0  0  0  0  0  2  0  0  0  0  0  0
  180.0030  179.8580  138.8870 C   0  0  0  0  0  2  0  0  0  0  0  0
  1  6  1  0  0  0  0
  1  9  1  0  0  0  0
  2  5  1  0  0  0  0
  3  2  1  0  0  0  0
  3  7  1  0  0  0  0
  4  7  1  0  0  0  0
  5 16  2  0  0  0  0
  5 14  1  0  0  0  0
  8 30  1  6  0  0  0
  8 12  1  0  0  0  0
 10 18  2  0  0  0  0
 10 19  1  0  0  0  0
 11  4  1  0  0  0  0
 12 16  1  0  0  0  0
 13  8  1  0  0  0  0
 13  2  2  0  0  0  0
 14  1  2  0  0  0  0
 15 11  1  0  0  0  0
 16 17  1  0  0  0  0
 17  6  2  0  0  0  0
 18 13  1  0  0  0  0
 19  3  2  0  0  0  0
 20 19  1  0  0  0  0
 20 15  1  0  0  0  0
 21 25  1  6  0  0  0
 21 31  1  0  0  0  0
 22 29  1  0  0  0  0
 26 30  1  0  0  0  0
 26 24  2  0  0  0  0
 27 21  1  0  0  0  0
 27 22  1  0  0  0  0
 28 29  1  0  0  0  0
 28 23  2  0  0  0  0
 29 26  1  0  0  0  0
 31 28  1  0  0  0  0
M  END
>  <MODEL>
6

>  <REMARK>
 VINA RESULT:      -9.3      4.817      7.623
  Name = 
  1 active torsions:
  status: ('A' for Active; 'I' for Inactive)
    1  A    between atoms: C_15  and  N_23
                            x       y       z     vdW  Elec       q    Type
                         _______ _______ _______ _____ _____    ______ ____

>  <TORSDO>
F 1

$$$$
=
 OpenBabel10262419263D

 31 35  0  0  1  0  0  0  0  0999 V2000
  182.2480  179.2050  140.2750 C   0  0  0  0  0  0  0  0  0  0  0  0
  185.9770  178.3490  140.0620 C   0  0  0  0  0  0  0  0  0  0  0  0
  186.2970  178.1470  138.6830 C   0  0  0  0  0  0  0  0  0  0  0  0
  185.3800  177.0270  136.6020 C   0  0  0  0  0  2  0  0  0  0  0  0
  184.5760  178.5440  140.5760 C   0  0  0  0  0  0  0  0  0  0  0  0
  181.9970  178.9760  141.6290 C   0  0  0  0  0  3  0  0  0  0  0  0
  185.1870  178.1030  137.6580 C   0  0  0  0  0  2  0  0  0  0  0  0
  186.7200  178.5560  142.4900 C   0  0  2  0  0  3  0  0  0  0  0  0
  181.2510  179.6320  139.4640 F   0  0  0  0  0  0  0  0  0  0  0  0
  188.6660  178.1060  139.2630 C   0  0  0  0  0  3  0  0  0  0  0  0
  186.1480  177.5830  135.4040 C   0  0  0  0  0  2  0  0  0  0  0  0
  185.3990  177.8880  142.8640 C   0  0  0  0  0  2  0  0  0  0  0  0
  187.0240  178.3490  141.0210 C   0  0  0  0  0  0  0  0  0  0  0  0
  183.5280  178.9970  139.7570 C   0  0  0  0  0  3  0  0  0  0  0  0
  187.3420  178.4450  135.8110 C   0  0  0  0  0  2  0  0  0  0  0  0
  184.3130  178.3490  141.9500 C   0  0  0  0  0  0  0  0  0  0  0  0
  183.0290  178.5490  142.4650 C   0  0  0  0  0  3  0  0  0  0  0  0
  188.3530  178.2590  140.6030 C   0  0  0  0  0  3  0  0  0  0  0  0
  187.6670  178.0510  138.2940 C   0  0  0  0  0  0  0  0  0  0  0  0
  188.1540  177.7590  136.8980 C   0  0  0  0  0  2  0  0  0  0  0  0
  191.0350  176.4030  146.9920 C   0  0  2  0  0  3  0  0  0  0  0  0
  189.9780  176.9720  144.8210 C   0  0  0  0  0  2  0  0  0  0  0  0
  187.6050  177.3810  147.5540 O   0  0  0  0  0  0  0  0  0  0  0  0
  186.7430  178.5900  145.3390 O   0  0  0  0  0  0  0  0  0  0  0  0
  192.2760  176.4100  147.7440 N   0  0  0  0  0  1  0  0  0  0  0  0
  187.7300  178.0560  144.7640 C   0  0  0  0  0  0  0  0  0  0  0  0
  191.2470  177.0950  145.6560 C   0  0  0  0  0  2  0  0  0  0  0  0
  188.7180  177.3230  146.9670 C   0  0  0  0  0  0  0  0  0  0  0  0
  188.8120  177.5010  145.5360 N   0  0  0  0  0  0  0  0  0  0  0  0
  187.7860  178.0250  143.3340 N   0  0  0  0  0  2  0  0  0  0  0  0
  189.9560  177.1250  147.7870 C   0  0  0  0  0  2  0  0  0  0  0  0
  1  6  1  0  0  0  0
  2  5  1  0  0  0  0
  2 13  1  0  0  0  0
  3  2  2  0  0  0  0
  4  7  1  0  0  0  0
  5 16  2  0  0  0  0
  6 17  2  0  0  0  0
  7  3  1  0  0  0  0
  8 12  1  0  0  0  0
  8 30  1  1  0  0  0
  9  1  1  0  0  0  0
 10 18  1  0  0  0  0
 11 15  1  0  0  0  0
 11  4  1  0  0  0  0
 13  8  1  0  0  0  0
 14  1  2  0  0  0  0
 14  5  1  0  0  0  0
 15 20  1  0  0  0  0
 16 17  1  0  0  0  0
 16 12  1  0  0  0  0
 18 13  2  0  0  0  0
 19  3  1  0  0  0  0
 19 10  2  0  0  0  0
 20 19  1  0  0  0  0
 21 25  1  1  0  0  0
 21 31  1  0  0  0  0
 22 29  1  0  0  0  0
 22 27  1  0  0  0  0
 26 24  2  0  0  0  0
 26 29  1  0  0  0  0
 27 21  1  0  0  0  0
 28 23  2  0  0  0  0
 28 31  1  0  0  0  0
 29 28  1  0  0  0  0
 30 26  1  0  0  0  0
M  END
>  <MODEL>
7

>  <REMARK>
 VINA RESULT:      -9.2      4.422      8.204
  Name = 
  1 active torsions:
  status: ('A' for Active; 'I' for Inactive)
    1  A    between atoms: C_15  and  N_23
                            x       y       z     vdW  Elec       q    Type
                         _______ _______ _______ _____ _____    ______ ____

>  <TORSDO>
F 1

$$$$
=
 OpenBabel10262419263D

 31 35  0  0  1  0  0  0  0  0999 V2000
  191.1540  177.7760  142.5670 C   0  0  0  0  0  0  0  0  0  0  0  0
  187.5930  178.1600  143.9290 C   0  0  0  0  0  0  0  0  0  0  0  0
  187.6600  178.0510  145.3530 C   0  0  0  0  0  0  0  0  0  0  0  0
  188.7700  176.6670  147.1640 C   0  0  0  0  0  2  0  0  0  0  0  0
  188.7600  177.9020  143.0150 C   0  0  0  0  0  0  0  0  0  0  0  0
  190.8990  177.4980  141.2240 C   0  0  0  0  0  3  0  0  0  0  0  0
  188.9580  177.6390  146.0110 C   0  0  0  0  0  2  0  0  0  0  0  0
  186.2520  178.6290  141.8150 C   0  0  2  0  0  3  0  0  0  0  0  0
  192.4300  177.8480  143.0130 F   0  0  0  0  0  0  0  0  0  0  0  0
  185.3370  178.7810  145.4950 C   0  0  0  0  0  3  0  0  0  0  0  0
  188.6140  177.4230  148.4820 C   0  0  0  0  0  2  0  0  0  0  0  0
  187.1210  177.5780  141.1290 C   0  0  0  0  0  2  0  0  0  0  0  0
  186.3590  178.5100  143.3210 C   0  0  0  0  0  0  0  0  0  0  0  0
  190.0930  177.9830  143.4510 C   0  0  0  0  0  3  0  0  0  0  0  0
  187.6820  178.6280  148.3700 C   0  0  0  0  0  2  0  0  0  0  0  0
  188.5200  177.6530  141.6460 C   0  0  0  0  0  0  0  0  0  0  0  0
  189.5830  177.4370  140.7640 C   0  0  0  0  0  3  0  0  0  0  0  0
  185.2600  178.8460  144.1140 C   0  0  0  0  0  3  0  0  0  0  0  0
  186.5140  178.3940  146.1310 C   0  0  0  0  0  0  0  0  0  0  0  0
  186.4070  178.2550  147.6280 C   0  0  0  0  0  2  0  0  0  0  0  0
  180.3180  178.1380  138.9750 C   0  0  2  0  0  3  0  0  0  0  0  0
  182.1200  178.1880  140.6780 C   0  0  0  0  0  2  0  0  0  0  0  0
  183.5230  178.2530  137.3180 O   0  0  0  0  0  0  0  0  0  0  0  0
  185.3410  178.9630  139.1360 O   0  0  0  0  0  0  0  0  0  0  0  0
  178.9550  178.5420  138.6770 N   0  0  0  0  0  1  0  0  0  0  0  0
  184.4780  178.6450  139.9990 C   0  0  0  0  0  0  0  0  0  0  0  0
  180.7390  178.7200  140.3140 C   0  0  0  0  0  2  0  0  0  0  0  0
  182.6830  178.4230  138.2410 C   0  0  0  0  0  0  0  0  0  0  0  0
  183.0990  178.4700  139.6230 N   0  0  0  0  0  0  0  0  0  0  0  0
  184.8710  178.4810  141.3670 N   0  0  0  0  0  2  0  0  0  0  0  0
  181.2450  178.6360  137.8760 C   0  0  0  0  0  2  0  0  0  0  0  0
  1  9  1  0  0  0  0
  1 14  1  0  0  0  0
  2  3  1  0  0  0  0
  3  7  1  0  0  0  0
  3 19  2  0  0  0  0
  4 11  1  0  0  0  0
  5 14  2  0  0  0  0
  5  2  1  0  0  0  0
  6  1  2  0  0  0  0
  7  4  1  0  0  0  0
  8 30  1  1  0  0  0
  8 13  1  0  0  0  0
 10 19  1  0  0  0  0
 12 16  1  0  0  0  0
 12  8  1  0  0  0  0
 13  2  2  0  0  0  0
 13 18  1  0  0  0  0
 15 11  1  0  0  0  0
 16  5  1  0  0  0  0
 17  6  1  0  0  0  0
 17 16  2  0  0  0  0
 18 10  2  0  0  0  0
 19 20  1  0  0  0  0
 20 15  1  0  0  0  0
 21 25  1  6  0  0  0
 21 27  1  0  0  0  0
 23 28  2  0  0  0  0
 24 26  2  0  0  0  0
 26 30  1  0  0  0  0
 27 22  1  0  0  0  0
 28 29  1  0  0  0  0
 29 26  1  0  0  0  0
 29 22  1  0  0  0  0
 31 28  1  0  0  0  0
 31 21  1  0  0  0  0
M  END
>  <MODEL>
8

>  <REMARK>
 VINA RESULT:      -9.1      4.327      6.828
  Name = 
  1 active torsions:
  status: ('A' for Active; 'I' for Inactive)
    1  A    between atoms: C_15  and  N_23
                            x       y       z     vdW  Elec       q    Type
                         _______ _______ _______ _____ _____    ______ ____

>  <TORSDO>
F 1

$$$$
=
 OpenBabel10262419263D

 31 35  0  0  1  0  0  0  0  0999 V2000
  191.3910  177.8930  142.9720 C   0  0  0  0  0  0  0  0  0  0  0  0
  187.5710  178.1500  142.8220 C   0  0  0  0  0  0  0  0  0  0  0  0
  187.0850  178.1700  144.1670 C   0  0  0  0  0  0  0  0  0  0  0  0
  187.4490  177.0260  146.4000 C   0  0  0  0  0  2  0  0  0  0  0  0
  189.0070  177.8940  142.4550 C   0  0  0  0  0  0  0  0  0  0  0  0
  191.6830  177.4830  141.6700 C   0  0  0  0  0  3  0  0  0  0  0  0
  188.0400  177.9050  145.3100 C   0  0  0  0  0  2  0  0  0  0  0  0
  187.1380  178.3430  140.3200 C   0  0  2  0  0  3  0  0  0  0  0  0
  192.3930  178.0900  143.8610 F   0  0  0  0  0  0  0  0  0  0  0  0
  184.8680  178.7500  143.3340 C   0  0  0  0  0  3  0  0  0  0  0  0
  186.7740  177.8800  147.4710 C   0  0  0  0  0  2  0  0  0  0  0  0
  188.2360  177.2990  140.1330 C   0  0  0  0  0  2  0  0  0  0  0  0
  186.6580  178.3620  141.7560 C   0  0  0  0  0  0  0  0  0  0  0  0
  190.0650  178.1030  143.3570 C   0  0  0  0  0  3  0  0  0  0  0  0
  185.9220  179.0050  146.8840 C   0  0  0  0  0  2  0  0  0  0  0  0
  189.3230  177.5120  141.1330 C   0  0  0  0  0  0  0  0  0  0  0  0
  190.6500  177.2940  140.7520 C   0  0  0  0  0  3  0  0  0  0  0  0
  185.3290  178.6900  142.0290 C   0  0  0  0  0  3  0  0  0  0  0  0
  185.7180  178.5000  144.4080 C   0  0  0  0  0  0  0  0  0  0  0  0
  185.0450  178.4840  145.7570 C   0  0  0  0  0  2  0  0  0  0  0  0
  182.8100  177.0310  135.5170 C   0  0  2  0  0  3  0  0  0  0  0  0
  183.7800  177.5640  137.7370 C   0  0  0  0  0  2  0  0  0  0  0  0
  186.4040  176.7220  135.3560 O   0  0  0  0  0  0  0  0  0  0  0  0
  187.4090  177.9210  137.5150 O   0  0  0  0  0  0  0  0  0  0  0  0
  181.7290  177.3230  134.5940 N   0  0  0  0  0  1  0  0  0  0  0  0
  186.2460  177.8420  137.9970 C   0  0  0  0  0  0  0  0  0  0  0  0
  182.7210  177.9610  136.7150 C   0  0  0  0  0  2  0  0  0  0  0  0
  185.2880  177.1290  135.7750 C   0  0  0  0  0  0  0  0  0  0  0  0
  185.1210  177.5570  137.1450 N   0  0  0  0  0  0  0  0  0  0  0  0
  186.0430  178.0630  139.3960 N   0  0  0  0  0  2  0  0  0  0  0  0
  184.1450  177.2190  134.8100 C   0  0  0  0  0  2  0  0  0  0  0  0
  1 14  1  0  0  0  0
  1  9  1  0  0  0  0
  2  3  1  0  0  0  0
  3 19  2  0  0  0  0
  3  7  1  0  0  0  0
  4 11  1  0  0  0  0
  5  2  1  0  0  0  0
  5 14  2  0  0  0  0
  6  1  2  0  0  0  0
  7  4  1  0  0  0  0
  8 30  1  6  0  0  0
  8 13  1  0  0  0  0
 10 19  1  0  0  0  0
 12  8  1  0  0  0  0
 12 16  1  0  0  0  0
 13 18  1  0  0  0  0
 13  2  2  0  0  0  0
 15 11  1  0  0  0  0
 16  5  1  0  0  0  0
 17 16  2  0  0  0  0
 17  6  1  0  0  0  0
 18 10  2  0  0  0  0
 19 20  1  0  0  0  0
 20 15  1  0  0  0  0
 21 25  1  6  0  0  0
 21 27  1  0  0  0  0
 23 28  2  0  0  0  0
 24 26  2  0  0  0  0
 26 30  1  0  0  0  0
 27 22  1  0  0  0  0
 28 29  1  0  0  0  0
 29 22  1  0  0  0  0
 29 26  1  0  0  0  0
 31 21  1  0  0  0  0
 31 28  1  0  0  0  0
M  END
>  <MODEL>
9

>  <REMARK>
 VINA RESULT:      -8.8      4.112      5.249
  Name = 
  1 active torsions:
  status: ('A' for Active; 'I' for Inactive)
    1  A    between atoms: C_15  and  N_23
                            x       y       z     vdW  Elec       q    Type
                         _______ _______ _______ _____ _____    ______ ____

>  <TORSDO>
F 1

$$$$
