=
 OpenBabel10262421243D

 32 37  0  0  0  0  0  0  0  0999 V2000
  189.3370  176.4180  137.6930 C   0  0  0  0  0  3  0  0  0  0  0  0
  188.7160  177.8210  142.4970 C   0  0  0  0  0  0  0  0  0  0  0  0
  183.7920  178.4280  142.4150 N   0  0  0  0  0  2  0  0  0  0  0  0
  183.8220  179.0050  143.7550 C   0  0  0  0  0  2  0  0  0  0  0  0
  189.6170  177.2790  144.8560 C   0  0  0  0  0  0  0  0  0  0  0  0
  190.9850  176.9680  144.8430 C   0  0  0  0  0  0  0  0  0  0  0  0
  189.7570  177.2170  140.3430 C   0  0  0  0  0  0  0  0  0  0  0  0
  187.5860  178.4900  140.3420 C   0  0  0  0  0  2  0  0  0  0  0  0
  189.5010  176.9560  147.2610 C   0  0  0  0  0  0  0  0  0  0  0  0
  188.3870  177.2150  138.3390 C   0  0  0  0  0  3  0  0  0  0  0  0
  185.0180  178.8280  141.7260 C   0  0  0  0  0  2  0  0  0  0  0  0
  187.5110  178.1980  141.7770 N   0  0  0  0  0  0  0  0  0  0  0  0
  186.2490  178.3680  142.4740 C   0  0  0  0  0  0  0  0  0  0  0  0
  187.3950  177.8280  144.4880 N   0  0  0  0  0  0  0  0  0  0  0  0
  190.8680  176.6440  147.2650 C   0  0  0  0  0  3  0  0  0  0  0  0
  188.5900  177.6110  139.6630 C   0  0  0  0  0  0  0  0  0  0  0  0
  191.6040  176.6500  146.0640 C   0  0  0  0  0  3  0  0  0  0  0  0
  190.7090  176.4290  139.6910 C   0  0  0  0  0  3  0  0  0  0  0  0
  190.4990  176.0250  138.3680 C   0  0  0  0  0  0  0  0  0  0  0  0
  184.9060  178.3180  144.5810 C   0  0  0  0  0  2  0  0  0  0  0  0
  186.1970  178.2050  143.8140 C   0  0  0  0  0  0  0  0  0  0  0  0
  187.5650  177.5980  145.8320 O   0  0  0  0  0  0  0  0  0  0  0  0
  190.0060  177.6670  141.7480 C   0  0  0  0  0  2  0  0  0  0  0  0
  191.7180  176.9590  143.7070 F   0  0  0  0  0  0  0  0  0  0  0  0
  188.7860  176.9510  148.4130 F   0  0  0  0  0  0  0  0  0  0  0  0
  188.6350  177.6490  143.8220 C   0  0  0  0  0  0  0  0  0  0  0  0
  188.8990  177.2680  146.0460 C   0  0  0  0  0  0  0  0  0  0  0  0
  191.5060  175.1610  137.6840 C   0  0  0  0  0  2  0  0  0  0  0  0
  192.2760  175.9420  136.6270 C   0  0  0  0  0  2  0  0  0  0  0  0
  193.6670  176.2290  137.0820 C   0  0  0  0  0  0  0  0  0  0  0  0
  194.0390  175.9620  138.3920 O   0  0  0  0  0  1  0  0  0  0  0  0
  194.5110  176.6890  136.2710 O   0  0  0  0  0  0  0  0  0  0  0  0
  1 10  2  0  0  0  0
  1 19  1  0  0  0  0
  2 26  2  0  0  0  0
  3  4  1  0  0  0  0
  4 20  1  0  0  0  0
  5 27  1  0  0  0  0
  6  5  2  0  0  0  0
  6 17  1  0  0  0  0
  7 23  1  0  0  0  0
  8 12  1  0  0  0  0
  9 15  1  0  0  0  0
  9 25  1  0  0  0  0
 10 16  1  0  0  0  0
 11  3  1  0  0  0  0
 11 13  1  0  0  0  0
 12 13  1  0  0  0  0
 12  2  1  0  0  0  0
 13 21  2  0  0  0  0
 14 22  1  0  0  0  0
 16  8  1  0  0  0  0
 16  7  2  0  0  0  0
 17 15  2  0  0  0  0
 18  7  1  0  0  0  0
 19 18  2  0  0  0  0
 21 14  1  0  0  0  0
 21 20  1  0  0  0  0
 22 27  1  0  0  0  0
 23  2  1  0  0  0  0
 24  6  1  0  0  0  0
 26 14  1  0  0  0  0
 26  5  1  0  0  0  0
 27  9  2  0  0  0  0
 28 19  1  0  0  0  0
 29 30  1  0  0  0  0
 29 28  1  0  0  0  0
 30 31  1  0  0  0  0
 32 30  2  0  0  0  0
M  END
>  <MODEL>
1

>  <REMARK>
 VINA RESULT:     -10.9      0.000      0.000
  Name = 
  3 active torsions:
  status: ('A' for Active; 'I' for Inactive)
    1  A    between atoms: C_1  and  C_10
    2  A    between atoms: C_10  and  C_19
    3  A    between atoms: C_19  and  C_24
                            x       y       z     vdW  Elec       q    Type
                         _______ _______ _______ _____ _____    ______ ____

>  <TORSDO>
F 3

$$$$
=
 OpenBabel10262421243D

 32 37  0  0  0  0  0  0  0  0999 V2000
  190.7810  177.8940  138.8180 C   0  0  0  0  0  3  0  0  0  0  0  0
  188.2230  177.1800  143.1050 C   0  0  0  0  0  0  0  0  0  0  0  0
  192.1020  176.7970  146.1760 N   0  0  0  0  0  2  0  0  0  0  0  0
  191.2200  176.4040  147.2710 C   0  0  0  0  0  2  0  0  0  0  0  0
  186.0810  177.9920  144.2980 C   0  0  0  0  0  0  0  0  0  0  0  0
  185.0320  178.2350  143.3980 C   0  0  0  0  0  0  0  0  0  0  0  0
  188.7720  177.4410  140.7140 C   0  0  0  0  0  0  0  0  0  0  0  0
  190.4120  176.2810  142.2300 C   0  0  0  0  0  2  0  0  0  0  0  0
  184.6960  178.6410  146.1860 C   0  0  0  0  0  0  0  0  0  0  0  0
  191.0870  177.2360  140.0140 C   0  0  0  0  0  3  0  0  0  0  0  0
  191.5490  176.2520  144.9370 C   0  0  0  0  0  2  0  0  0  0  0  0
  189.5950  176.7660  143.3470 N   0  0  0  0  0  0  0  0  0  0  0  0
  190.1430  176.7500  144.6910 C   0  0  0  0  0  0  0  0  0  0  0  0
  188.0230  177.5020  145.4640 N   0  0  0  0  0  0  0  0  0  0  0  0
  183.6380  178.8870  145.3000 C   0  0  0  0  0  3  0  0  0  0  0  0
  190.0880  177.0120  140.9640 C   0  0  0  0  0  0  0  0  0  0  0  0
  183.8060  178.6850  143.9160 C   0  0  0  0  0  3  0  0  0  0  0  0
  188.4680  178.0880  139.5140 C   0  0  0  0  0  3  0  0  0  0  0  0
  189.4710  178.3200  138.5670 C   0  0  0  0  0  0  0  0  0  0  0  0
  189.8910  177.1450  147.1450 C   0  0  0  0  0  2  0  0  0  0  0  0
  189.3620  177.0940  145.7370 C   0  0  0  0  0  0  0  0  0  0  0  0
  187.0680  177.9030  146.3670 O   0  0  0  0  0  0  0  0  0  0  0  0
  187.6840  177.1720  141.7060 C   0  0  0  0  0  2  0  0  0  0  0  0
  185.1630  178.0570  142.0640 F   0  0  0  0  0  0  0  0  0  0  0  0
  184.5420  178.8340  147.5190 F   0  0  0  0  0  0  0  0  0  0  0  0
  187.4740  177.5320  144.1570 C   0  0  0  0  0  0  0  0  0  0  0  0
  185.9060  178.1960  145.6620 C   0  0  0  0  0  0  0  0  0  0  0  0
  189.1480  179.0360  137.2980 C   0  0  0  0  0  2  0  0  0  0  0  0
  187.8100  178.5780  136.7320 C   0  0  0  0  0  2  0  0  0  0  0  0
  187.9850  177.3990  135.8350 C   0  0  0  0  0  0  0  0  0  0  0  0
  188.7910  177.4940  134.7100 O   0  0  0  0  0  0  0  0  0  0  0  0
  187.4200  176.3090  136.1140 O   0  0  0  0  0  1  0  0  0  0  0  0
  1 10  1  0  0  0  0
  2 12  1  0  0  0  0
  2 26  2  0  0  0  0
  3  4  1  0  0  0  0
  5 27  1  0  0  0  0
  6 17  1  0  0  0  0
  6  5  2  0  0  0  0
  7 16  1  0  0  0  0
  7 23  1  0  0  0  0
  8 12  1  0  0  0  0
  9 25  1  0  0  0  0
 10 16  2  0  0  0  0
 11  3  1  0  0  0  0
 12 13  1  0  0  0  0
 13 11  1  0  0  0  0
 13 21  2  0  0  0  0
 14 21  1  0  0  0  0
 14 22  1  0  0  0  0
 15  9  1  0  0  0  0
 16  8  1  0  0  0  0
 17 15  2  0  0  0  0
 18  7  2  0  0  0  0
 19  1  2  0  0  0  0
 19 18  1  0  0  0  0
 20  4  1  0  0  0  0
 21 20  1  0  0  0  0
 23  2  1  0  0  0  0
 24  6  1  0  0  0  0
 26  5  1  0  0  0  0
 26 14  1  0  0  0  0
 27  9  2  0  0  0  0
 27 22  1  0  0  0  0
 28 19  1  0  0  0  0
 29 28  1  0  0  0  0
 30 32  1  0  0  0  0
 30 29  1  0  0  0  0
 31 30  2  0  0  0  0
M  END
>  <MODEL>
2

>  <REMARK>
 VINA RESULT:     -10.0      2.791      5.083
  Name = 
  3 active torsions:
  status: ('A' for Active; 'I' for Inactive)
    1  A    between atoms: C_1  and  C_10
    2  A    between atoms: C_10  and  C_19
    3  A    between atoms: C_19  and  C_24
                            x       y       z     vdW  Elec       q    Type
                         _______ _______ _______ _____ _____    ______ ____

>  <TORSDO>
F 3

$$$$
=
 OpenBabel10262421243D

 32 37  0  0  0  0  0  0  0  0999 V2000
  181.7050  178.6140  143.9410 C   0  0  0  0  0  3  0  0  0  0  0  0
  186.6620  178.4800  143.0200 C   0  0  0  0  0  0  0  0  0  0  0  0
  188.1540  176.8640  147.4690 N   0  0  0  0  0  2  0  0  0  0  0  0
  189.5500  177.0780  147.0990 C   0  0  0  0  0  2  0  0  0  0  0  0
  188.3150  177.8730  141.1310 C   0  0  0  0  0  0  0  0  0  0  0  0
  187.8160  178.2060  139.8620 C   0  0  0  0  0  0  0  0  0  0  0  0
  184.2420  178.8960  142.7890 C   0  0  0  0  0  0  0  0  0  0  0  0
  185.3010  179.0510  145.0670 C   0  0  0  0  0  2  0  0  0  0  0  0
  190.3670  177.0000  140.1650 C   0  0  0  0  0  0  0  0  0  0  0  0
  182.8320  178.7450  144.7600 C   0  0  0  0  0  3  0  0  0  0  0  0
  187.3550  177.9050  146.8250 C   0  0  0  0  0  2  0  0  0  0  0  0
  186.4900  178.4410  144.4620 N   0  0  0  0  0  0  0  0  0  0  0  0
  187.5160  177.8780  145.3220 C   0  0  0  0  0  0  0  0  0  0  0  0
  188.7950  177.4580  143.3600 N   0  0  0  0  0  0  0  0  0  0  0  0
  189.8820  177.3280  138.8910 C   0  0  0  0  0  3  0  0  0  0  0  0
  184.1000  178.8800  144.1880 C   0  0  0  0  0  0  0  0  0  0  0  0
  188.6170  177.9260  138.7410 C   0  0  0  0  0  3  0  0  0  0  0  0
  183.1130  178.7760  141.9750 C   0  0  0  0  0  3  0  0  0  0  0  0
  181.8440  178.6310  142.5480 C   0  0  0  0  0  0  0  0  0  0  0  0
  189.7370  176.7700  145.6150 C   0  0  0  0  0  2  0  0  0  0  0  0
  188.6610  177.4110  144.7790 C   0  0  0  0  0  0  0  0  0  0  0  0
  189.8590  177.0300  142.6030 O   0  0  0  0  0  0  0  0  0  0  0  0
  185.5880  179.0810  142.1640 C   0  0  0  0  0  2  0  0  0  0  0  0
  186.6030  178.7760  139.6850 F   0  0  0  0  0  0  0  0  0  0  0  0
  191.5840  176.4220  140.3170 F   0  0  0  0  0  0  0  0  0  0  0  0
  187.7990  177.9970  142.5060 C   0  0  0  0  0  0  0  0  0  0  0  0
  189.5650  177.2800  141.2680 C   0  0  0  0  0  0  0  0  0  0  0  0
  180.6450  178.4750  141.6750 C   0  0  0  0  0  2  0  0  0  0  0  0
  180.7550  179.3410  140.4260 C   0  0  0  0  0  2  0  0  0  0  0  0
  180.0550  180.6450  140.6160 C   0  0  0  0  0  0  0  0  0  0  0  0
  179.6260  181.0260  141.8790 O   0  0  0  0  0  1  0  0  0  0  0  0
  179.8770  181.4100  139.6340 O   0  0  0  0  0  0  0  0  0  0  0  0
  1 10  1  0  0  0  0
  2 12  1  0  0  0  0
  4  3  1  0  0  0  0
  5 27  1  0  0  0  0
  5 26  1  0  0  0  0
  6  5  2  0  0  0  0
  7 16  1  0  0  0  0
  9 25  1  0  0  0  0
  9 27  2  0  0  0  0
 11  3  1  0  0  0  0
 12  8  1  0  0  0  0
 12 13  1  0  0  0  0
 13 11  1  0  0  0  0
 14 21  1  0  0  0  0
 15  9  1  0  0  0  0
 16 10  2  0  0  0  0
 16  8  1  0  0  0  0
 17 15  2  0  0  0  0
 17  6  1  0  0  0  0
 18 19  1  0  0  0  0
 18  7  2  0  0  0  0
 19  1  2  0  0  0  0
 20  4  1  0  0  0  0
 21 13  2  0  0  0  0
 21 20  1  0  0  0  0
 22 14  1  0  0  0  0
 23  7  1  0  0  0  0
 23  2  1  0  0  0  0
 24  6  1  0  0  0  0
 26  2  2  0  0  0  0
 26 14  1  0  0  0  0
 27 22  1  0  0  0  0
 28 19  1  0  0  0  0
 29 30  1  0  0  0  0
 29 28  1  0  0  0  0
 30 31  1  0  0  0  0
 32 30  2  0  0  0  0
M  END
>  <MODEL>
3

>  <REMARK>
 VINA RESULT:      -9.7      3.475      8.058
  Name = 
  3 active torsions:
  status: ('A' for Active; 'I' for Inactive)
    1  A    between atoms: C_1  and  C_10
    2  A    between atoms: C_10  and  C_19
    3  A    between atoms: C_19  and  C_24
                            x       y       z     vdW  Elec       q    Type
                         _______ _______ _______ _____ _____    ______ ____

>  <TORSDO>
F 3

$$$$
=
 OpenBabel10262421243D

 32 37  0  0  0  0  0  0  0  0999 V2000
  181.5910  178.6210  143.8840 C   0  0  0  0  0  3  0  0  0  0  0  0
  186.5620  178.4930  143.0400 C   0  0  0  0  0  0  0  0  0  0  0  0
  187.9890  176.9150  147.5240 N   0  0  0  0  0  2  0  0  0  0  0  0
  189.3900  177.1290  147.1740 C   0  0  0  0  0  2  0  0  0  0  0  0
  188.2460  177.8760  141.1810 C   0  0  0  0  0  0  0  0  0  0  0  0
  187.7650  178.1980  139.9030 C   0  0  0  0  0  0  0  0  0  0  0  0
  184.1450  178.9010  142.7690 C   0  0  0  0  0  0  0  0  0  0  0  0
  185.1680  179.0760  145.0610 C   0  0  0  0  0  2  0  0  0  0  0  0
  190.3140  177.0010  140.2550 C   0  0  0  0  0  0  0  0  0  0  0  0
  182.7050  178.7610  144.7180 C   0  0  0  0  0  3  0  0  0  0  0  0
  187.1980  177.9490  146.8600 C   0  0  0  0  0  2  0  0  0  0  0  0
  186.3670  178.4650  144.4800 N   0  0  0  0  0  0  0  0  0  0  0  0
  187.3810  177.9110  145.3590 C   0  0  0  0  0  0  0  0  0  0  0  0
  188.6920  177.4790  143.4210 N   0  0  0  0  0  0  0  0  0  0  0  0
  189.8490  177.3180  138.9700 C   0  0  0  0  0  3  0  0  0  0  0  0
  183.9810  178.8960  144.1660 C   0  0  0  0  0  0  0  0  0  0  0  0
  188.5840  177.9120  138.7970 C   0  0  0  0  0  3  0  0  0  0  0  0
  183.0280  178.7720  141.9380 C   0  0  0  0  0  3  0  0  0  0  0  0
  181.7520  178.6280  142.4930 C   0  0  0  0  0  0  0  0  0  0  0  0
  189.6000  176.8110  145.6950 C   0  0  0  0  0  2  0  0  0  0  0  0
  188.5360  177.4430  144.8380 C   0  0  0  0  0  0  0  0  0  0  0  0
  189.7690  177.0490  142.6840 O   0  0  0  0  0  0  0  0  0  0  0  0
  185.5000  179.0850  142.1630 C   0  0  0  0  0  2  0  0  0  0  0  0
  186.5540  178.7640  139.7020 F   0  0  0  0  0  0  0  0  0  0  0  0
  191.5300  176.4280  140.4290 F   0  0  0  0  0  0  0  0  0  0  0  0
  187.7080  178.0090  142.5470 C   0  0  0  0  0  0  0  0  0  0  0  0
  189.4950  177.2880  141.3420 C   0  0  0  0  0  0  0  0  0  0  0  0
  180.5660  178.4630  141.6020 C   0  0  0  0  0  2  0  0  0  0  0  0
  180.8800  177.5400  140.4320 C   0  0  0  0  0  2  0  0  0  0  0  0
  180.0560  176.2980  140.4940 C   0  0  0  0  0  0  0  0  0  0  0  0
  178.9600  176.2320  141.3430 O   0  0  0  0  0  1  0  0  0  0  0  0
  180.3390  175.3190  139.7570 O   0  0  0  0  0  0  0  0  0  0  0  0
  1 10  1  0  0  0  0
  2 12  1  0  0  0  0
  4  3  1  0  0  0  0
  5 27  1  0  0  0  0
  5 26  1  0  0  0  0
  6  5  2  0  0  0  0
  7 16  1  0  0  0  0
  9 25  1  0  0  0  0
  9 27  2  0  0  0  0
 11  3  1  0  0  0  0
 12  8  1  0  0  0  0
 12 13  1  0  0  0  0
 13 11  1  0  0  0  0
 14 21  1  0  0  0  0
 15  9  1  0  0  0  0
 16 10  2  0  0  0  0
 16  8  1  0  0  0  0
 17 15  2  0  0  0  0
 17  6  1  0  0  0  0
 18 19  1  0  0  0  0
 18  7  2  0  0  0  0
 19  1  2  0  0  0  0
 20  4  1  0  0  0  0
 21 13  2  0  0  0  0
 21 20  1  0  0  0  0
 22 14  1  0  0  0  0
 23  7  1  0  0  0  0
 23  2  1  0  0  0  0
 24  6  1  0  0  0  0
 26  2  2  0  0  0  0
 26 14  1  0  0  0  0
 27 22  1  0  0  0  0
 28 19  1  0  0  0  0
 29 30  1  0  0  0  0
 29 28  1  0  0  0  0
 30 31  1  0  0  0  0
 32 30  2  0  0  0  0
M  END
>  <MODEL>
4

>  <REMARK>
 VINA RESULT:      -9.6      3.453      7.906
  Name = 
  3 active torsions:
  status: ('A' for Active; 'I' for Inactive)
    1  A    between atoms: C_1  and  C_10
    2  A    between atoms: C_10  and  C_19
    3  A    between atoms: C_19  and  C_24
                            x       y       z     vdW  Elec       q    Type
                         _______ _______ _______ _____ _____    ______ ____

>  <TORSDO>
F 3

$$$$
=
 OpenBabel10262421243D

 32 37  0  0  0  0  0  0  0  0999 V2000
  187.0880  177.2640  137.3360 C   0  0  0  0  0  3  0  0  0  0  0  0
  187.8390  178.1620  142.2420 C   0  0  0  0  0  0  0  0  0  0  0  0
  183.0850  178.5190  143.6210 N   0  0  0  0  0  2  0  0  0  0  0  0
  183.4850  178.9650  144.9520 C   0  0  0  0  0  2  0  0  0  0  0  0
  189.3890  177.4400  144.1780 C   0  0  0  0  0  0  0  0  0  0  0  0
  190.7020  177.2030  143.7450 C   0  0  0  0  0  0  0  0  0  0  0  0
  188.2310  177.8230  139.8300 C   0  0  0  0  0  0  0  0  0  0  0  0
  186.1240  178.9770  140.5800 C   0  0  0  0  0  2  0  0  0  0  0  0
  189.9730  176.8810  146.4690 C   0  0  0  0  0  0  0  0  0  0  0  0
  186.3450  177.9450  138.3070 C   0  0  0  0  0  3  0  0  0  0  0  0
  184.0530  179.0470  142.6610 C   0  0  0  0  0  2  0  0  0  0  0  0
  186.4700  178.5440  141.9380 N   0  0  0  0  0  0  0  0  0  0  0  0
  185.4570  178.5810  142.9770 C   0  0  0  0  0  0  0  0  0  0  0  0
  187.1430  177.9080  144.5140 N   0  0  0  0  0  0  0  0  0  0  0  0
  191.2910  176.6410  146.0520 C   0  0  0  0  0  3  0  0  0  0  0  0
  186.9100  178.2210  139.5540 C   0  0  0  0  0  0  0  0  0  0  0  0
  191.6510  176.8010  144.7010 C   0  0  0  0  0  3  0  0  0  0  0  0
  188.9730  177.1530  138.8550 C   0  0  0  0  0  3  0  0  0  0  0  0
  188.4030  176.8680  137.6090 C   0  0  0  0  0  0  0  0  0  0  0  0
  184.7760  178.2580  145.3590 C   0  0  0  0  0  2  0  0  0  0  0  0
  185.7940  178.2860  144.2510 C   0  0  0  0  0  0  0  0  0  0  0  0
  187.6960  177.5580  145.7220 O   0  0  0  0  0  0  0  0  0  0  0  0
  188.8630  178.1480  141.1470 C   0  0  0  0  0  2  0  0  0  0  0  0
  191.0790  177.3420  142.4540 F   0  0  0  0  0  0  0  0  0  0  0  0
  189.6190  176.7270  147.7680 F   0  0  0  0  0  0  0  0  0  0  0  0
  188.1430  177.8580  143.5100 C   0  0  0  0  0  0  0  0  0  0  0  0
  189.0420  177.2780  145.5140 C   0  0  0  0  0  0  0  0  0  0  0  0
  189.1900  176.1280  136.5800 C   0  0  0  0  0  2  0  0  0  0  0  0
  188.4870  174.8400  136.1690 C   0  0  0  0  0  2  0  0  0  0  0  0
  189.0290  173.6720  136.9220 C   0  0  0  0  0  0  0  0  0  0  0  0
  190.3010  173.7300  137.4740 O   0  0  0  0  0  1  0  0  0  0  0  0
  188.3230  172.6430  137.0780 O   0  0  0  0  0  0  0  0  0  0  0  0
  1 19  2  0  0  0  0
  1 10  1  0  0  0  0
  2 26  2  0  0  0  0
  3  4  1  0  0  0  0
  4 20  1  0  0  0  0
  5 27  1  0  0  0  0
  6  5  2  0  0  0  0
  6 17  1  0  0  0  0
  7 23  1  0  0  0  0
  8 12  1  0  0  0  0
  9 25  1  0  0  0  0
 10 16  2  0  0  0  0
 11 13  1  0  0  0  0
 11  3  1  0  0  0  0
 12  2  1  0  0  0  0
 12 13  1  0  0  0  0
 13 21  2  0  0  0  0
 14 22  1  0  0  0  0
 15  9  1  0  0  0  0
 16  7  1  0  0  0  0
 16  8  1  0  0  0  0
 17 15  2  0  0  0  0
 18  7  2  0  0  0  0
 19 18  1  0  0  0  0
 21 14  1  0  0  0  0
 21 20  1  0  0  0  0
 23  2  1  0  0  0  0
 24  6  1  0  0  0  0
 26  5  1  0  0  0  0
 26 14  1  0  0  0  0
 27 22  1  0  0  0  0
 27  9  2  0  0  0  0
 28 19  1  0  0  0  0
 29 28  1  0  0  0  0
 29 30  1  0  0  0  0
 30 32  2  0  0  0  0
 30 31  1  0  0  0  0
M  END
>  <MODEL>
5

>  <REMARK>
 VINA RESULT:      -9.4      1.913      2.354
  Name = 
  3 active torsions:
  status: ('A' for Active; 'I' for Inactive)
    1  A    between atoms: C_1  and  C_10
    2  A    between atoms: C_10  and  C_19
    3  A    between atoms: C_19  and  C_24
                            x       y       z     vdW  Elec       q    Type
                         _______ _______ _______ _____ _____    ______ ____

>  <TORSDO>
F 3

$$$$
=
 OpenBabel10262421243D

 32 37  0  0  0  0  0  0  0  0999 V2000
  191.2180  176.7710  144.9700 C   0  0  0  0  0  3  0  0  0  0  0  0
  188.9650  177.9110  140.6040 C   0  0  0  0  0  0  0  0  0  0  0  0
  191.9510  175.3390  137.5880 N   0  0  0  0  0  2  0  0  0  0  0  0
  191.3070  175.9280  136.4180 C   0  0  0  0  0  2  0  0  0  0  0  0
  186.6030  178.2530  139.6180 C   0  0  0  0  0  0  0  0  0  0  0  0
  185.7270  178.8530  140.5360 C   0  0  0  0  0  0  0  0  0  0  0  0
  189.5810  177.8900  142.9930 C   0  0  0  0  0  0  0  0  0  0  0  0
  191.3740  177.5450  141.2610 C   0  0  0  0  0  2  0  0  0  0  0  0
  184.8610  178.1430  137.9290 C   0  0  0  0  0  0  0  0  0  0  0  0
  191.6800  176.8650  143.6540 C   0  0  0  0  0  3  0  0  0  0  0  0
  191.9670  176.3470  138.6460 C   0  0  0  0  0  2  0  0  0  0  0  0
  190.2880  177.3990  140.2870 N   0  0  0  0  0  0  0  0  0  0  0  0
  190.5700  176.8150  138.9880 C   0  0  0  0  0  0  0  0  0  0  0  0
  188.3130  177.2790  138.3940 N   0  0  0  0  0  0  0  0  0  0  0  0
  183.9730  178.7430  138.8340 C   0  0  0  0  0  3  0  0  0  0  0  0
  190.8650  177.4180  142.6640 C   0  0  0  0  0  0  0  0  0  0  0  0
  184.4040  179.0950  140.1280 C   0  0  0  0  0  3  0  0  0  0  0  0
  189.1270  177.8040  144.3110 C   0  0  0  0  0  3  0  0  0  0  0  0
  189.9410  177.2410  145.3010 C   0  0  0  0  0  0  0  0  0  0  0  0
  189.8210  176.1340  136.7030 C   0  0  0  0  0  2  0  0  0  0  0  0
  189.6010  176.7740  138.0480 C   0  0  0  0  0  0  0  0  0  0  0  0
  187.1900  177.3230  137.6050 O   0  0  0  0  0  0  0  0  0  0  0  0
  188.7130  178.5210  141.9510 C   0  0  0  0  0  2  0  0  0  0  0  0
  186.1080  179.1980  141.7870 F   0  0  0  0  0  0  0  0  0  0  0  0
  184.4520  177.8000  136.6830 F   0  0  0  0  0  0  0  0  0  0  0  0
  188.0180  177.8440  139.6610 C   0  0  0  0  0  0  0  0  0  0  0  0
  186.1670  177.9070  138.3450 C   0  0  0  0  0  0  0  0  0  0  0  0
  189.4400  177.1260  146.7020 C   0  0  0  0  0  2  0  0  0  0  0  0
  187.9180  177.1280  146.7460 C   0  0  0  0  0  2  0  0  0  0  0  0
  187.4120  178.1540  147.7030 C   0  0  0  0  0  0  0  0  0  0  0  0
  186.3500  178.9740  147.3460 O   0  0  0  0  0  0  0  0  0  0  0  0
  187.9310  178.2590  148.8440 O   0  0  0  0  0  1  0  0  0  0  0  0
  1 19  1  0  0  0  0
  2 23  1  0  0  0  0
  3 11  1  0  0  0  0
  4 20  1  0  0  0  0
  4  3  1  0  0  0  0
  5 26  1  0  0  0  0
  5  6  1  0  0  0  0
  6 24  1  0  0  0  0
  7 18  1  0  0  0  0
  8 16  1  0  0  0  0
  9 27  1  0  0  0  0
  9 15  2  0  0  0  0
 10  1  2  0  0  0  0
 11 13  1  0  0  0  0
 12  2  1  0  0  0  0
 12  8  1  0  0  0  0
 13 12  1  0  0  0  0
 14 26  1  0  0  0  0
 15 17  1  0  0  0  0
 16  7  2  0  0  0  0
 16 10  1  0  0  0  0
 17  6  2  0  0  0  0
 18 19  2  0  0  0  0
 19 28  1  0  0  0  0
 20 21  1  0  0  0  0
 21 14  1  0  0  0  0
 21 13  2  0  0  0  0
 22 27  1  0  0  0  0
 22 14  1  0  0  0  0
 23  7  1  0  0  0  0
 25  9  1  0  0  0  0
 26  2  2  0  0  0  0
 27  5  2  0  0  0  0
 28 29  1  0  0  0  0
 29 30  1  0  0  0  0
 30 32  1  0  0  0  0
 31 30  2  0  0  0  0
M  END
>  <MODEL>
6

>  <REMARK>
 VINA RESULT:      -9.4      3.302      8.294
  Name = 
  3 active torsions:
  status: ('A' for Active; 'I' for Inactive)
    1  A    between atoms: C_1  and  C_10
    2  A    between atoms: C_10  and  C_19
    3  A    between atoms: C_19  and  C_24
                            x       y       z     vdW  Elec       q    Type
                         _______ _______ _______ _____ _____    ______ ____

>  <TORSDO>
F 3

$$$$
=
 OpenBabel10262421243D

 32 37  0  0  0  0  0  0  0  0999 V2000
  190.7490  176.9580  144.6950 C   0  0  0  0  0  3  0  0  0  0  0  0
  189.4090  177.6540  139.8830 C   0  0  0  0  0  0  0  0  0  0  0  0
  193.2450  175.3380  137.7490 N   0  0  0  0  0  2  0  0  0  0  0  0
  192.8150  175.8000  136.4330 C   0  0  0  0  0  2  0  0  0  0  0  0
  187.3000  177.6750  138.3920 C   0  0  0  0  0  0  0  0  0  0  0  0
  186.1840  178.2020  139.0600 C   0  0  0  0  0  0  0  0  0  0  0  0
  189.4800  177.7970  142.3440 C   0  0  0  0  0  0  0  0  0  0  0  0
  191.6380  177.6010  141.0640 C   0  0  0  0  0  2  0  0  0  0  0  0
  185.9960  177.2940  136.3780 C   0  0  0  0  0  0  0  0  0  0  0  0
  191.4790  177.0550  143.5050 C   0  0  0  0  0  3  0  0  0  0  0  0
  192.9180  176.3810  138.7200 C   0  0  0  0  0  2  0  0  0  0  0  0
  190.8150  177.2890  139.8910 N   0  0  0  0  0  0  0  0  0  0  0  0
  191.4380  176.6930  138.7230 C   0  0  0  0  0  0  0  0  0  0  0  0
  189.3320  176.8630  137.6290 N   0  0  0  0  0  0  0  0  0  0  0  0
  184.8710  177.8190  137.0310 C   0  0  0  0  0  3  0  0  0  0  0  0
  190.8480  177.4690  142.3300 C   0  0  0  0  0  0  0  0  0  0  0  0
  184.9660  178.2690  138.3620 C   0  0  0  0  0  3  0  0  0  0  0  0
  188.7570  177.7090  143.5370 C   0  0  0  0  0  3  0  0  0  0  0  0
  189.3880  177.2860  144.7120 C   0  0  0  0  0  0  0  0  0  0  0  0
  191.2900  175.8400  136.3790 C   0  0  0  0  0  2  0  0  0  0  0  0
  190.7110  176.5010  137.6010 C   0  0  0  0  0  0  0  0  0  0  0  0
  188.4130  176.7430  136.6160 O   0  0  0  0  0  0  0  0  0  0  0  0
  188.8010  178.2810  141.1020 C   0  0  0  0  0  2  0  0  0  0  0  0
  186.2400  178.6380  140.3390 F   0  0  0  0  0  0  0  0  0  0  0  0
  185.9120  176.8570  135.0980 F   0  0  0  0  0  0  0  0  0  0  0  0
  188.7060  177.4380  138.7640 C   0  0  0  0  0  0  0  0  0  0  0  0
  187.1960  177.2310  137.0790 C   0  0  0  0  0  0  0  0  0  0  0  0
  188.6060  177.1670  145.9770 C   0  0  0  0  0  2  0  0  0  0  0  0
  187.1610  177.6040  145.7750 C   0  0  0  0  0  2  0  0  0  0  0  0
  186.6200  178.2490  147.0060 C   0  0  0  0  0  0  0  0  0  0  0  0
  185.3760  178.8640  146.9800 O   0  0  0  0  0  0  0  0  0  0  0  0
  187.2810  178.2140  148.0760 O   0  0  0  0  0  1  0  0  0  0  0  0
  1 19  1  0  0  0  0
  2 12  1  0  0  0  0
  2 23  1  0  0  0  0
  3 11  1  0  0  0  0
  4  3  1  0  0  0  0
  5 26  1  0  0  0  0
  5  6  1  0  0  0  0
  6 24  1  0  0  0  0
  7 18  1  0  0  0  0
  8 16  1  0  0  0  0
  9 15  2  0  0  0  0
  9 27  1  0  0  0  0
 10  1  2  0  0  0  0
 11 13  1  0  0  0  0
 12  8  1  0  0  0  0
 13 12  1  0  0  0  0
 14 26  1  0  0  0  0
 15 17  1  0  0  0  0
 16  7  2  0  0  0  0
 16 10  1  0  0  0  0
 17  6  2  0  0  0  0
 18 19  2  0  0  0  0
 19 28  1  0  0  0  0
 20  4  1  0  0  0  0
 20 21  1  0  0  0  0
 21 14  1  0  0  0  0
 21 13  2  0  0  0  0
 22 27  1  0  0  0  0
 22 14  1  0  0  0  0
 23  7  1  0  0  0  0
 25  9  1  0  0  0  0
 26  2  2  0  0  0  0
 27  5  2  0  0  0  0
 29 28  1  0  0  0  0
 29 30  1  0  0  0  0
 30 32  1  0  0  0  0
 31 30  2  0  0  0  0
M  END
>  <MODEL>
7

>  <REMARK>
 VINA RESULT:      -9.3      3.413      8.716
  Name = 
  3 active torsions:
  status: ('A' for Active; 'I' for Inactive)
    1  A    between atoms: C_1  and  C_10
    2  A    between atoms: C_10  and  C_19
    3  A    between atoms: C_19  and  C_24
                            x       y       z     vdW  Elec       q    Type
                         _______ _______ _______ _____ _____    ______ ____

>  <TORSDO>
F 3

$$$$
=
 OpenBabel10262421243D

 32 37  0  0  0  0  0  0  0  0999 V2000
  188.8200  177.7560  148.2460 C   0  0  0  0  0  3  0  0  0  0  0  0
  187.6030  177.4520  143.3610 C   0  0  0  0  0  0  0  0  0  0  0  0
  183.1720  179.6730  143.6070 N   0  0  0  0  0  2  0  0  0  0  0  0
  182.8990  179.3230  142.2170 C   0  0  0  0  0  2  0  0  0  0  0  0
  188.6920  177.6500  141.0280 C   0  0  0  0  0  0  0  0  0  0  0  0
  190.0020  177.1470  141.0090 C   0  0  0  0  0  0  0  0  0  0  0  0
  188.7680  177.1450  145.5140 C   0  0  0  0  0  0  0  0  0  0  0  0
  186.2560  177.2980  145.4890 C   0  0  0  0  0  2  0  0  0  0  0  0
  188.8150  178.2360  138.6730 C   0  0  0  0  0  0  0  0  0  0  0  0
  187.5980  177.6930  147.5690 C   0  0  0  0  0  3  0  0  0  0  0  0
  183.9580  178.5900  144.1970 C   0  0  0  0  0  2  0  0  0  0  0  0
  186.3800  177.7320  144.0940 N   0  0  0  0  0  0  0  0  0  0  0  0
  185.2490  178.3660  143.4420 C   0  0  0  0  0  0  0  0  0  0  0  0
  186.5350  178.3900  141.4410 N   0  0  0  0  0  0  0  0  0  0  0  0
  190.1250  177.7350  138.6380 C   0  0  0  0  0  3  0  0  0  0  0  0
  187.5680  177.3940  146.2050 C   0  0  0  0  0  0  0  0  0  0  0  0
  190.7130  177.1950  139.7980 C   0  0  0  0  0  3  0  0  0  0  0  0
  189.9860  177.1970  146.1970 C   0  0  0  0  0  3  0  0  0  0  0  0
  190.0150  177.5070  147.5610 C   0  0  0  0  0  0  0  0  0  0  0  0
  184.1960  179.3760  141.4130 C   0  0  0  0  0  2  0  0  0  0  0  0
  185.3180  178.6720  142.1290 C   0  0  0  0  0  0  0  0  0  0  0  0
  186.8260  178.6280  140.1200 O   0  0  0  0  0  0  0  0  0  0  0  0
  188.7480  176.7830  144.0620 C   0  0  0  0  0  2  0  0  0  0  0  0
  190.5970  176.6260  142.1060 F   0  0  0  0  0  0  0  0  0  0  0  0
  188.2430  178.7590  137.5610 F   0  0  0  0  0  0  0  0  0  0  0  0
  187.6530  177.7790  142.0650 C   0  0  0  0  0  0  0  0  0  0  0  0
  188.1220  178.1830  139.8780 C   0  0  0  0  0  0  0  0  0  0  0  0
  191.3210  177.5890  148.2790 C   0  0  0  0  0  2  0  0  0  0  0  0
  192.1890  176.3730  147.9850 C   0  0  0  0  0  2  0  0  0  0  0  0
  193.1340  176.1060  149.1080 C   0  0  0  0  0  0  0  0  0  0  0  0
  193.9420  177.1250  149.5940 O   0  0  0  0  0  0  0  0  0  0  0  0
  193.1810  174.9640  149.6320 O   0  0  0  0  0  1  0  0  0  0  0  0
  2 23  1  0  0  0  0
  2 12  1  0  0  0  0
  3 11  1  0  0  0  0
  4  3  1  0  0  0  0
  5 26  1  0  0  0  0
  6  5  1  0  0  0  0
  6 24  1  0  0  0  0
  7 18  2  0  0  0  0
  7 16  1  0  0  0  0
  8 16  1  0  0  0  0
  9 27  1  0  0  0  0
 10  1  1  0  0  0  0
 12  8  1  0  0  0  0
 13 12  1  0  0  0  0
 13 11  1  0  0  0  0
 14 26  1  0  0  0  0
 14 21  1  0  0  0  0
 15  9  2  0  0  0  0
 15 17  1  0  0  0  0
 16 10  2  0  0  0  0
 17  6  2  0  0  0  0
 18 19  1  0  0  0  0
 19  1  2  0  0  0  0
 19 28  1  0  0  0  0
 20 21  1  0  0  0  0
 20  4  1  0  0  0  0
 21 13  2  0  0  0  0
 22 14  1  0  0  0  0
 23  7  1  0  0  0  0
 25  9  1  0  0  0  0
 26  2  2  0  0  0  0
 27 22  1  0  0  0  0
 27  5  2  0  0  0  0
 29 28  1  0  0  0  0
 29 30  1  0  0  0  0
 30 31  2  0  0  0  0
 30 32  1  0  0  0  0
M  END
>  <MODEL>
8

>  <REMARK>
 VINA RESULT:      -9.1      3.017      7.112
  Name = 
  3 active torsions:
  status: ('A' for Active; 'I' for Inactive)
    1  A    between atoms: C_1  and  C_10
    2  A    between atoms: C_10  and  C_19
    3  A    between atoms: C_19  and  C_24
                            x       y       z     vdW  Elec       q    Type
                         _______ _______ _______ _____ _____    ______ ____

>  <TORSDO>
F 3

$$$$
=
 OpenBabel10262421243D

 32 37  0  0  0  0  0  0  0  0999 V2000
  181.1320  178.2810  141.8900 C   0  0  0  0  0  3  0  0  0  0  0  0
  186.1140  178.5240  142.6380 C   0  0  0  0  0  0  0  0  0  0  0  0
  186.1180  177.7840  147.5460 N   0  0  0  0  0  2  0  0  0  0  0  0
  187.5460  178.0820  147.6080 C   0  0  0  0  0  2  0  0  0  0  0  0
  188.3280  177.8060  141.5180 C   0  0  0  0  0  0  0  0  0  0  0  0
  188.2630  177.8840  140.1190 C   0  0  0  0  0  0  0  0  0  0  0  0
  183.8910  178.6440  141.5760 C   0  0  0  0  0  0  0  0  0  0  0  0
  184.1240  179.2610  144.0050 C   0  0  0  0  0  2  0  0  0  0  0  0
  190.6220  177.0130  141.4330 C   0  0  0  0  0  0  0  0  0  0  0  0
  181.9150  178.6550  142.9870 C   0  0  0  0  0  3  0  0  0  0  0  0
  185.5300  178.6230  146.5030 C   0  0  0  0  0  2  0  0  0  0  0  0
  185.4740  178.6920  143.9320 N   0  0  0  0  0  0  0  0  0  0  0  0
  186.1820  178.3800  145.1610 C   0  0  0  0  0  0  0  0  0  0  0  0
  188.0590  177.7950  143.8200 N   0  0  0  0  0  0  0  0  0  0  0  0
  190.5740  177.0860  140.0330 C   0  0  0  0  0  3  0  0  0  0  0  0
  183.2930  178.8310  142.8360 C   0  0  0  0  0  0  0  0  0  0  0  0
  189.4030  177.5180  139.3820 C   0  0  0  0  0  3  0  0  0  0  0  0
  183.1030  178.2820  140.4800 C   0  0  0  0  0  3  0  0  0  0  0  0
  181.7250  178.0950  140.6350 C   0  0  0  0  0  0  0  0  0  0  0  0
  188.2290  177.5690  146.3430 C   0  0  0  0  0  2  0  0  0  0  0  0
  187.4630  177.9560  145.1060 C   0  0  0  0  0  0  0  0  0  0  0  0
  189.3320  177.3680  143.5330 O   0  0  0  0  0  0  0  0  0  0  0  0
  185.3580  178.8690  141.3900 C   0  0  0  0  0  2  0  0  0  0  0  0
  187.1520  178.2900  139.4630 F   0  0  0  0  0  0  0  0  0  0  0  0
  191.7460  176.5960  142.0660 F   0  0  0  0  0  0  0  0  0  0  0  0
  187.3790  178.0880  142.6100 C   0  0  0  0  0  0  0  0  0  0  0  0
  189.4870  177.3760  142.1510 C   0  0  0  0  0  0  0  0  0  0  0  0
  180.8930  177.6820  139.4680 C   0  0  0  0  0  2  0  0  0  0  0  0
  180.5900  176.1900  139.5080 C   0  0  0  0  0  2  0  0  0  0  0  0
  181.3790  175.4560  138.4760 C   0  0  0  0  0  0  0  0  0  0  0  0
  182.7520  175.3160  138.6210 O   0  0  0  0  0  1  0  0  0  0  0  0
  180.7960  174.9430  137.4870 O   0  0  0  0  0  0  0  0  0  0  0  0
  1 10  1  0  0  0  0
  2 12  1  0  0  0  0
  3  4  1  0  0  0  0
  5 27  1  0  0  0  0
  5 26  1  0  0  0  0
  6  5  2  0  0  0  0
  7 16  1  0  0  0  0
  9 25  1  0  0  0  0
  9 27  2  0  0  0  0
 11  3  1  0  0  0  0
 12  8  1  0  0  0  0
 12 13  1  0  0  0  0
 13 11  1  0  0  0  0
 14 21  1  0  0  0  0
 15  9  1  0  0  0  0
 16 10  2  0  0  0  0
 16  8  1  0  0  0  0
 17 15  2  0  0  0  0
 17  6  1  0  0  0  0
 18 19  1  0  0  0  0
 18  7  2  0  0  0  0
 19  1  2  0  0  0  0
 20  4  1  0  0  0  0
 21 13  2  0  0  0  0
 21 20  1  0  0  0  0
 22 14  1  0  0  0  0
 23  7  1  0  0  0  0
 23  2  1  0  0  0  0
 24  6  1  0  0  0  0
 26  2  2  0  0  0  0
 26 14  1  0  0  0  0
 27 22  1  0  0  0  0
 28 29  1  0  0  0  0
 28 19  1  0  0  0  0
 30 31  1  0  0  0  0
 30 29  1  0  0  0  0
 32 30  2  0  0  0  0
M  END
>  <MODEL>
9

>  <REMARK>
 VINA RESULT:      -8.9      3.616      7.063
  Name = 
  3 active torsions:
  status: ('A' for Active; 'I' for Inactive)
    1  A    between atoms: C_1  and  C_10
    2  A    between atoms: C_10  and  C_19
    3  A    between atoms: C_19  and  C_24
                            x       y       z     vdW  Elec       q    Type
                         _______ _______ _______ _____ _____    ______ ____

>  <TORSDO>
F 3

$$$$
