=
 OpenBabel10262419503D

 25 27  0  0  1  0  0  0  0  0999 V2000
  187.4140  177.8260  145.3070 C   0  0  0  0  0  0  0  0  0  0  0  0
  186.3270  178.3290  144.4260 C   0  0  0  0  0  0  0  0  0  0  0  0
  185.9590  178.3060  147.2550 C   0  0  0  0  0  2  0  0  0  0  0  0
  185.1860  179.1020  146.3580 O   0  0  0  0  0  0  0  0  0  0  0  0
  184.1590  179.5120  144.1150 C   0  0  2  0  0  3  0  0  0  0  0  0
  182.9020  178.6870  144.3100 C   0  0  0  0  0  1  0  0  0  0  0  0
  186.4600  178.2290  142.9990 N   0  0  0  0  0  0  0  0  0  0  0  0
  187.2650  177.8750  146.6480 C   0  0  0  0  0  0  0  0  0  0  0  0
  188.4820  177.2490  147.7560 Cl  0  0  0  0  0  0  0  0  0  0  0  0
  184.5100  179.5280  142.6970 N   0  0  0  0  0  2  0  0  0  0  0  0
  185.6160  178.7820  142.1850 C   0  0  0  0  0  0  0  0  0  0  0  0
  185.2670  178.9560  144.9700 C   0  0  0  0  0  0  0  0  0  0  0  0
  188.6550  177.3050  144.6910 C   0  0  0  0  0  0  0  0  0  0  0  0
  190.9970  176.3440  143.4860 C   0  0  0  0  0  3  0  0  0  0  0  0
  189.9050  177.8220  145.0630 C   0  0  0  0  0  3  0  0  0  0  0  0
  191.0730  177.3400  144.4630 C   0  0  0  0  0  3  0  0  0  0  0  0
  189.7540  175.8290  143.1060 C   0  0  0  0  0  3  0  0  0  0  0  0
  188.5860  176.3110  143.7060 C   0  0  0  0  0  3  0  0  0  0  0  0
  185.8670  178.6530  140.4220 S   0  0  0  0  0  0  0  0  0  0  0  0
  187.6720  178.4860  140.6180 C   0  0  0  0  0  2  0  0  0  0  0  0
  188.2950  177.6240  139.5240 C   0  0  2  0  0  3  0  0  0  0  0  0
  189.6140  177.2910  139.8410 O   0  0  0  0  0  1  0  0  0  0  0  0
  188.2140  178.2820  138.1830 C   0  0  0  0  0  0  0  0  0  0  0  0
  188.9590  179.4270  137.9350 O   0  0  0  0  0  1  0  0  0  0  0  0
  187.5050  177.7880  137.2660 O   0  0  0  0  0  0  0  0  0  0  0  0
  1  8  2  0  0  0  0
  2 12  2  0  0  0  0
  2  1  1  0  0  0  0
  4  3  1  0  0  0  0
  5  6  1  6  0  0  0
  5 12  1  0  0  0  0
  7  2  1  0  0  0  0
  8  3  1  0  0  0  0
  8  9  1  0  0  0  0
 10  5  1  0  0  0  0
 11 10  1  0  0  0  0
 11  7  2  0  0  0  0
 12  4  1  0  0  0  0
 13 15  1  0  0  0  0
 13  1  1  0  0  0  0
 14 16  1  0  0  0  0
 16 15  2  0  0  0  0
 17 14  2  0  0  0  0
 17 18  1  0  0  0  0
 18 13  2  0  0  0  0
 19 20  1  0  0  0  0
 19 11  1  0  0  0  0
 21 22  1  1  0  0  0
 21 20  1  0  0  0  0
 23 21  1  0  0  0  0
 24 23  1  0  0  0  0
 25 23  2  0  0  0  0
M  END
>  <MODEL>
1

>  <REMARK>
 VINA RESULT:      -8.5      0.000      0.000
  Name = 
  5 active torsions:
  status: ('A' for Active; 'I' for Inactive)
    1  A    between atoms: C_1  and  C_5
    2  A    between atoms: C_2  and  C_21
    3  A    between atoms: S_6  and  C_15
    4  A    between atoms: S_6  and  C_23
    5  A    between atoms: C_15  and  C_21
                            x       y       z     vdW  Elec       q    Type
                         _______ _______ _______ _____ _____    ______ ____

>  <TORSDO>
F 5

$$$$
=
 OpenBabel10262419503D

 25 27  0  0  1  0  0  0  0  0999 V2000
  187.4220  177.8440  145.2820 C   0  0  0  0  0  0  0  0  0  0  0  0
  186.3170  178.3510  144.4260 C   0  0  0  0  0  0  0  0  0  0  0  0
  185.9920  178.2790  147.2600 C   0  0  0  0  0  2  0  0  0  0  0  0
  185.1980  179.0820  146.3870 O   0  0  0  0  0  0  0  0  0  0  0  0
  184.1320  179.5170  144.1670 C   0  0  2  0  0  3  0  0  0  0  0  0
  182.8860  178.6760  144.3680 C   0  0  0  0  0  1  0  0  0  0  0  0
  186.4280  178.2750  142.9960 N   0  0  0  0  0  0  0  0  0  0  0  0
  187.2930  177.8710  146.6260 C   0  0  0  0  0  0  0  0  0  0  0  0
  188.5330  177.2400  147.7050 Cl  0  0  0  0  0  0  0  0  0  0  0  0
  184.4620  179.5590  142.7440 N   0  0  0  0  0  2  0  0  0  0  0  0
  185.5670  178.8320  142.2040 C   0  0  0  0  0  0  0  0  0  0  0  0
  185.2590  178.9580  144.9960 C   0  0  0  0  0  0  0  0  0  0  0  0
  188.6580  177.3460  144.6390 C   0  0  0  0  0  0  0  0  0  0  0  0
  190.9890  176.4250  143.3830 C   0  0  0  0  0  3  0  0  0  0  0  0
  189.9010  177.9180  144.9470 C   0  0  0  0  0  3  0  0  0  0  0  0
  191.0640  177.4570  144.3220 C   0  0  0  0  0  3  0  0  0  0  0  0
  189.7530  175.8550  143.0660 C   0  0  0  0  0  3  0  0  0  0  0  0
  188.5900  176.3160  143.6920 C   0  0  0  0  0  3  0  0  0  0  0  0
  185.7910  178.7330  140.4350 S   0  0  0  0  0  0  0  0  0  0  0  0
  187.5620  178.3340  140.6100 C   0  0  0  0  0  2  0  0  0  0  0  0
  188.3170  178.4650  139.2910 C   0  0  2  0  0  3  0  0  0  0  0  0
  187.4430  178.3810  138.2040 O   0  0  0  0  0  1  0  0  0  0  0  0
  189.4160  177.4580  139.1760 C   0  0  0  0  0  0  0  0  0  0  0  0
  189.3130  176.4340  138.2430 O   0  0  0  0  0  0  0  0  0  0  0  0
  190.4490  177.5490  139.8900 O   0  0  0  0  0  1  0  0  0  0  0  0
  1  8  2  0  0  0  0
  2 12  2  0  0  0  0
  2  1  1  0  0  0  0
  4  3  1  0  0  0  0
  5  6  1  6  0  0  0
  5 12  1  0  0  0  0
  7  2  1  0  0  0  0
  8  3  1  0  0  0  0
  8  9  1  0  0  0  0
 10  5  1  0  0  0  0
 11 10  1  0  0  0  0
 11  7  2  0  0  0  0
 12  4  1  0  0  0  0
 13 15  1  0  0  0  0
 13  1  1  0  0  0  0
 14 16  1  0  0  0  0
 16 15  2  0  0  0  0
 17 14  2  0  0  0  0
 17 18  1  0  0  0  0
 18 13  2  0  0  0  0
 19 20  1  0  0  0  0
 19 11  1  0  0  0  0
 21 22  1  6  0  0  0
 21 20  1  0  0  0  0
 23 21  1  0  0  0  0
 23 25  1  0  0  0  0
 24 23  2  0  0  0  0
M  END
>  <MODEL>
2

>  <REMARK>
 VINA RESULT:      -8.4      0.555      1.223
  Name = 
  5 active torsions:
  status: ('A' for Active; 'I' for Inactive)
    1  A    between atoms: C_1  and  C_5
    2  A    between atoms: C_2  and  C_21
    3  A    between atoms: S_6  and  C_15
    4  A    between atoms: S_6  and  C_23
    5  A    between atoms: C_15  and  C_21
                            x       y       z     vdW  Elec       q    Type
                         _______ _______ _______ _____ _____    ______ ____

>  <TORSDO>
F 5

$$$$
=
 OpenBabel10262419503D

 25 27  0  0  1  0  0  0  0  0999 V2000
  187.5890  177.7620  143.8680 C   0  0  0  0  0  0  0  0  0  0  0  0
  186.9790  178.0800  142.5510 C   0  0  0  0  0  0  0  0  0  0  0  0
  185.3950  178.2330  144.9190 C   0  0  0  0  0  2  0  0  0  0  0  0
  185.0540  178.8740  143.6900 O   0  0  0  0  0  0  0  0  0  0  0  0
  185.1070  179.0020  141.1930 C   0  0  2  0  0  3  0  0  0  0  0  0
  183.9460  178.0670  140.9140 C   0  0  0  0  0  1  0  0  0  0  0  0
  187.7370  177.8870  141.3460 N   0  0  0  0  0  0  0  0  0  0  0  0
  186.8570  177.8970  144.9950 C   0  0  0  0  0  0  0  0  0  0  0  0
  187.4920  177.4880  146.5860 Cl  0  0  0  0  0  0  0  0  0  0  0  0
  186.0500  178.9480  140.0780 N   0  0  0  0  0  2  0  0  0  0  0  0
  187.3110  178.2850  140.1890 C   0  0  0  0  0  0  0  0  0  0  0  0
  185.7520  178.6320  142.5030 C   0  0  0  0  0  0  0  0  0  0  0  0
  189.0040  177.3290  143.9190 C   0  0  0  0  0  0  0  0  0  0  0  0
  191.6870  176.5190  143.9690 C   0  0  0  0  0  3  0  0  0  0  0  0
  189.9850  178.1640  144.4740 C   0  0  0  0  0  3  0  0  0  0  0  0
  191.3220  177.7590  144.5020 C   0  0  0  0  0  3  0  0  0  0  0  0
  190.7170  175.6850  143.4070 C   0  0  0  0  0  3  0  0  0  0  0  0
  189.3790  176.0910  143.3810 C   0  0  0  0  0  3  0  0  0  0  0  0
  188.3250  178.0490  138.7380 S   0  0  0  0  0  0  0  0  0  0  0  0
  189.7610  177.5360  139.7380 C   0  0  0  0  0  2  0  0  0  0  0  0
  190.8550  176.8930  138.8910 C   0  0  2  0  0  3  0  0  0  0  0  0
  190.5970  175.5350  138.6910 O   0  0  0  0  0  1  0  0  0  0  0  0
  192.2130  177.1010  139.4830 C   0  0  0  0  0  0  0  0  0  0  0  0
  193.3410  176.8430  138.7160 O   0  0  0  0  0  0  0  0  0  0  0  0
  192.3430  177.5410  140.6560 O   0  0  0  0  0  1  0  0  0  0  0  0
  1 13  1  0  0  0  0
  1  8  2  0  0  0  0
  2  1  1  0  0  0  0
  3  8  1  0  0  0  0
  4  3  1  0  0  0  0
  5  6  1  6  0  0  0
  5 12  1  0  0  0  0
  7  2  1  0  0  0  0
  8  9  1  0  0  0  0
 10 11  1  0  0  0  0
 10  5  1  0  0  0  0
 11  7  2  0  0  0  0
 12  2  2  0  0  0  0
 12  4  1  0  0  0  0
 13 15  1  0  0  0  0
 14 16  1  0  0  0  0
 15 16  2  0  0  0  0
 17 14  2  0  0  0  0
 18 17  1  0  0  0  0
 18 13  2  0  0  0  0
 19 20  1  0  0  0  0
 19 11  1  0  0  0  0
 21 22  1  1  0  0  0
 21 23  1  0  0  0  0
 21 20  1  0  0  0  0
 23 25  1  0  0  0  0
 24 23  2  0  0  0  0
M  END
>  <MODEL>
3

>  <REMARK>
 VINA RESULT:      -8.3      2.045      2.737
  Name = 
  5 active torsions:
  status: ('A' for Active; 'I' for Inactive)
    1  A    between atoms: C_1  and  C_5
    2  A    between atoms: C_2  and  C_21
    3  A    between atoms: S_6  and  C_15
    4  A    between atoms: S_6  and  C_23
    5  A    between atoms: C_15  and  C_21
                            x       y       z     vdW  Elec       q    Type
                         _______ _______ _______ _____ _____    ______ ____

>  <TORSDO>
F 5

$$$$
=
 OpenBabel10262419503D

 25 27  0  0  1  0  0  0  0  0999 V2000
  187.1960  177.8550  145.1910 C   0  0  0  0  0  0  0  0  0  0  0  0
  186.0910  178.3460  144.3260 C   0  0  0  0  0  0  0  0  0  0  0  0
  185.7410  178.2590  147.1560 C   0  0  0  0  0  2  0  0  0  0  0  0
  184.9410  179.0520  146.2790 O   0  0  0  0  0  0  0  0  0  0  0  0
  183.8900  179.4760  144.0500 C   0  0  2  0  0  3  0  0  0  0  0  0
  182.6560  178.6140  144.2370 C   0  0  0  0  0  1  0  0  0  0  0  0
  186.2170  178.2760  142.8970 N   0  0  0  0  0  0  0  0  0  0  0  0
  187.0540  177.8750  146.5340 C   0  0  0  0  0  0  0  0  0  0  0  0
  188.2940  177.2610  147.6220 Cl  0  0  0  0  0  0  0  0  0  0  0  0
  184.2320  179.5290  142.6310 N   0  0  0  0  0  2  0  0  0  0  0  0
  185.3540  178.8220  142.0990 C   0  0  0  0  0  0  0  0  0  0  0  0
  185.0180  178.9340  144.8880 C   0  0  0  0  0  0  0  0  0  0  0  0
  188.4460  177.3790  144.5580 C   0  0  0  0  0  0  0  0  0  0  0  0
  190.8020  176.4990  143.3200 C   0  0  0  0  0  3  0  0  0  0  0  0
  189.6640  178.0270  144.8130 C   0  0  0  0  0  3  0  0  0  0  0  0
  190.8390  177.5850  144.1970 C   0  0  0  0  0  3  0  0  0  0  0  0
  189.5910  175.8540  143.0550 C   0  0  0  0  0  3  0  0  0  0  0  0
  188.4160  176.2950  143.6720 C   0  0  0  0  0  3  0  0  0  0  0  0
  185.5960  178.7330  140.3320 S   0  0  0  0  0  0  0  0  0  0  0  0
  183.8290  178.4010  140.0330 C   0  0  0  0  0  2  0  0  0  0  0  0
  183.2010  179.4200  139.0870 C   0  0  2  0  0  3  0  0  0  0  0  0
  184.0230  180.5400  138.9430 O   0  0  0  0  0  1  0  0  0  0  0  0
  181.8260  179.8140  139.5260 C   0  0  0  0  0  0  0  0  0  0  0  0
  181.2750  179.2310  140.6590 O   0  0  0  0  0  1  0  0  0  0  0  0
  181.1800  180.6940  138.9000 O   0  0  0  0  0  0  0  0  0  0  0  0
  1  8  2  0  0  0  0
  2 12  2  0  0  0  0
  2  1  1  0  0  0  0
  4  3  1  0  0  0  0
  5  6  1  6  0  0  0
  5 12  1  0  0  0  0
  7  2  1  0  0  0  0
  8  3  1  0  0  0  0
  8  9  1  0  0  0  0
 10  5  1  0  0  0  0
 11 10  1  0  0  0  0
 11  7  2  0  0  0  0
 12  4  1  0  0  0  0
 13 15  1  0  0  0  0
 13  1  1  0  0  0  0
 14 16  1  0  0  0  0
 16 15  2  0  0  0  0
 17 14  2  0  0  0  0
 17 18  1  0  0  0  0
 18 13  2  0  0  0  0
 19 11  1  0  0  0  0
 20 19  1  0  0  0  0
 21 22  1  1  0  0  0
 21 23  1  0  0  0  0
 21 20  1  0  0  0  0
 23 24  1  0  0  0  0
 25 23  2  0  0  0  0
M  END
>  <MODEL>
4

>  <REMARK>
 VINA RESULT:      -8.2      2.602      3.169
  Name = 
  5 active torsions:
  status: ('A' for Active; 'I' for Inactive)
    1  A    between atoms: C_1  and  C_5
    2  A    between atoms: C_2  and  C_21
    3  A    between atoms: S_6  and  C_15
    4  A    between atoms: S_6  and  C_23
    5  A    between atoms: C_15  and  C_21
                            x       y       z     vdW  Elec       q    Type
                         _______ _______ _______ _____ _____    ______ ____

>  <TORSDO>
F 5

$$$$
=
 OpenBabel10262419503D

 25 27  0  0  1  0  0  0  0  0999 V2000
  186.8380  177.9050  145.0130 C   0  0  0  0  0  0  0  0  0  0  0  0
  188.1090  177.6020  144.3030 C   0  0  0  0  0  0  0  0  0  0  0  0
  188.0490  177.6090  147.1550 C   0  0  0  0  0  2  0  0  0  0  0  0
  189.0620  176.9680  146.3810 O   0  0  0  0  0  0  0  0  0  0  0  0
  190.4600  176.7840  144.3150 C   0  0  2  0  0  3  0  0  0  0  0  0
  191.5270  177.7910  144.6980 C   0  0  0  0  0  1  0  0  0  0  0  0
  188.1730  177.7170  142.8720 N   0  0  0  0  0  0  0  0  0  0  0  0
  186.7950  177.8450  146.3610 C   0  0  0  0  0  0  0  0  0  0  0  0
  185.3440  178.2430  147.2760 Cl  0  0  0  0  0  0  0  0  0  0  0  0
  190.3280  176.7490  142.8610 N   0  0  0  0  0  2  0  0  0  0  0  0
  189.2040  177.3250  142.1920 C   0  0  0  0  0  0  0  0  0  0  0  0
  189.1630  177.1360  144.9970 C   0  0  0  0  0  0  0  0  0  0  0  0
  185.6340  178.2400  144.2200 C   0  0  0  0  0  0  0  0  0  0  0  0
  183.3690  178.9170  142.7120 C   0  0  0  0  0  3  0  0  0  0  0  0
  185.5200  177.8190  142.8860 C   0  0  0  0  0  3  0  0  0  0  0  0
  184.3890  178.1550  142.1360 C   0  0  0  0  0  3  0  0  0  0  0  0
  183.4800  179.3460  144.0380 C   0  0  0  0  0  3  0  0  0  0  0  0
  184.6100  179.0090  144.7890 C   0  0  0  0  0  3  0  0  0  0  0  0
  189.1980  177.4590  140.4110 S   0  0  0  0  0  0  0  0  0  0  0  0
  190.9940  177.1620  140.3110 C   0  0  0  0  0  2  0  0  0  0  0  0
  191.4290  176.7130  138.9200 C   0  0  2  0  0  3  0  0  0  0  0  0
  190.9990  175.4100  138.6580 O   0  0  0  0  0  1  0  0  0  0  0  0
  192.9070  176.8410  138.7290 C   0  0  0  0  0  0  0  0  0  0  0  0
  193.7060  177.2120  139.8020 O   0  0  0  0  0  1  0  0  0  0  0  0
  193.4370  176.5810  137.6170 O   0  0  0  0  0  0  0  0  0  0  0  0
  1  8  2  0  0  0  0
  2 12  2  0  0  0  0
  2  1  1  0  0  0  0
  4  3  1  0  0  0  0
  5  6  1  6  0  0  0
  5 12  1  0  0  0  0
  7  2  1  0  0  0  0
  8  3  1  0  0  0  0
  8  9  1  0  0  0  0
 10  5  1  0  0  0  0
 11 10  1  0  0  0  0
 11  7  2  0  0  0  0
 12  4  1  0  0  0  0
 13 18  1  0  0  0  0
 13  1  1  0  0  0  0
 14 17  1  0  0  0  0
 15 13  2  0  0  0  0
 16 14  2  0  0  0  0
 16 15  1  0  0  0  0
 17 18  2  0  0  0  0
 19 11  1  0  0  0  0
 20 19  1  0  0  0  0
 21 22  1  1  0  0  0
 21 20  1  0  0  0  0
 23 21  1  0  0  0  0
 23 24  1  0  0  0  0
 25 23  2  0  0  0  0
M  END
>  <MODEL>
5

>  <REMARK>
 VINA RESULT:      -8.0      2.559      4.913
  Name = 
  5 active torsions:
  status: ('A' for Active; 'I' for Inactive)
    1  A    between atoms: C_1  and  C_5
    2  A    between atoms: C_2  and  C_21
    3  A    between atoms: S_6  and  C_15
    4  A    between atoms: S_6  and  C_23
    5  A    between atoms: C_15  and  C_21
                            x       y       z     vdW  Elec       q    Type
                         _______ _______ _______ _____ _____    ______ ____

>  <TORSDO>
F 5

$$$$
=
 OpenBabel10262419503D

 25 27  0  0  1  0  0  0  0  0999 V2000
  185.8960  178.3810  142.4960 C   0  0  0  0  0  0  0  0  0  0  0  0
  187.0780  178.1850  141.6170 C   0  0  0  0  0  0  0  0  0  0  0  0
  184.5200  178.6790  140.4560 C   0  0  0  0  0  2  0  0  0  0  0  0
  185.7560  178.8650  139.7670 O   0  0  0  0  0  0  0  0  0  0  0  0
  188.1590  178.2910  139.3770 C   0  0  2  0  0  3  0  0  0  0  0  0
  187.9400  177.1020  138.4610 C   0  0  0  0  0  1  0  0  0  0  0  0
  188.3420  177.8160  142.1920 N   0  0  0  0  0  0  0  0  0  0  0  0
  184.6970  178.6790  141.9480 C   0  0  0  0  0  0  0  0  0  0  0  0
  183.2400  178.8710  142.9180 Cl  0  0  0  0  0  0  0  0  0  0  0  0
  189.4120  178.1150  140.1070 N   0  0  0  0  0  2  0  0  0  0  0  0
  189.4340  177.7770  141.4950 C   0  0  0  0  0  0  0  0  0  0  0  0
  186.9780  178.4430  140.3000 C   0  0  0  0  0  0  0  0  0  0  0  0
  186.0640  178.2730  143.9620 C   0  0  0  0  0  0  0  0  0  0  0  0
  186.3390  178.0560  146.7440 C   0  0  0  0  0  3  0  0  0  0  0  0
  186.7180  177.1670  144.5250 C   0  0  0  0  0  3  0  0  0  0  0  0
  186.8560  177.0600  145.9120 C   0  0  0  0  0  3  0  0  0  0  0  0
  185.6800  179.1580  146.1910 C   0  0  0  0  0  3  0  0  0  0  0  0
  185.5420  179.2650  144.8040 C   0  0  0  0  0  3  0  0  0  0  0  0
  190.9780  177.3510  142.2850 S   0  0  0  0  0  0  0  0  0  0  0  0
  190.1410  176.8960  143.8390 C   0  0  0  0  0  2  0  0  0  0  0  0
  190.6170  177.7350  145.0190 C   0  0  2  0  0  3  0  0  0  0  0  0
  191.7210  178.5140  144.6650 O   0  0  0  0  0  1  0  0  0  0  0  0
  190.9170  176.8920  146.2180 C   0  0  0  0  0  0  0  0  0  0  0  0
  192.0340  176.0670  146.2140 O   0  0  0  0  0  0  0  0  0  0  0  0
  190.1870  176.9480  147.2430 O   0  0  0  0  0  1  0  0  0  0  0  0
  1 13  1  0  0  0  0
  2  7  1  0  0  0  0
  2  1  1  0  0  0  0
  3  8  1  0  0  0  0
  4 12  1  0  0  0  0
  4  3  1  0  0  0  0
  5  6  1  6  0  0  0
  5 10  1  0  0  0  0
  5 12  1  0  0  0  0
  8  1  2  0  0  0  0
  8  9  1  0  0  0  0
 10 11  1  0  0  0  0
 11  7  2  0  0  0  0
 11 19  1  0  0  0  0
 12  2  2  0  0  0  0
 13 15  2  0  0  0  0
 13 18  1  0  0  0  0
 15 16  1  0  0  0  0
 16 14  2  0  0  0  0
 17 14  1  0  0  0  0
 18 17  2  0  0  0  0
 19 20  1  0  0  0  0
 20 21  1  0  0  0  0
 21 22  1  6  0  0  0
 21 23  1  0  0  0  0
 23 25  1  0  0  0  0
 24 23  2  0  0  0  0
M  END
>  <MODEL>
6

>  <REMARK>
 VINA RESULT:      -7.8      3.153      5.969
  Name = 
  5 active torsions:
  status: ('A' for Active; 'I' for Inactive)
    1  A    between atoms: C_1  and  C_5
    2  A    between atoms: C_2  and  C_21
    3  A    between atoms: S_6  and  C_15
    4  A    between atoms: S_6  and  C_23
    5  A    between atoms: C_15  and  C_21
                            x       y       z     vdW  Elec       q    Type
                         _______ _______ _______ _____ _____    ______ ____

>  <TORSDO>
F 5

$$$$
=
 OpenBabel10262419503D

 25 27  0  0  1  0  0  0  0  0999 V2000
  189.3800  177.3390  142.6940 C   0  0  0  0  0  0  0  0  0  0  0  0
  188.6130  177.7520  141.4900 C   0  0  0  0  0  0  0  0  0  0  0  0
  191.3020  176.8400  141.2100 C   0  0  0  0  0  2  0  0  0  0  0  0
  190.3600  176.8840  140.1390 O   0  0  0  0  0  0  0  0  0  0  0  0
  188.3550  177.8730  139.0170 C   0  0  2  0  0  3  0  0  0  0  0  0
  189.0560  179.0210  138.3170 C   0  0  0  0  0  1  0  0  0  0  0  0
  187.3040  178.3260  141.6390 N   0  0  0  0  0  0  0  0  0  0  0  0
  190.6300  176.8470  142.5550 C   0  0  0  0  0  0  0  0  0  0  0  0
  191.6220  176.3880  143.9350 Cl  0  0  0  0  0  0  0  0  0  0  0  0
  186.9730  178.2520  139.3010 N   0  0  0  0  0  2  0  0  0  0  0  0
  186.5340  178.5650  140.6240 C   0  0  0  0  0  0  0  0  0  0  0  0
  189.1130  177.5030  140.2650 C   0  0  0  0  0  0  0  0  0  0  0  0
  188.7430  177.4500  144.0250 C   0  0  0  0  0  0  0  0  0  0  0  0
  187.5410  177.6150  146.5530 C   0  0  0  0  0  3  0  0  0  0  0  0
  189.4700  177.9320  145.1250 C   0  0  0  0  0  3  0  0  0  0  0  0
  188.8690  178.0160  146.3840 C   0  0  0  0  0  3  0  0  0  0  0  0
  186.8130  177.1280  145.4640 C   0  0  0  0  0  3  0  0  0  0  0  0
  187.4140  177.0440  144.2040 C   0  0  0  0  0  3  0  0  0  0  0  0
  184.9020  179.2410  140.8860 S   0  0  0  0  0  0  0  0  0  0  0  0
  184.8000  178.5320  142.5630 C   0  0  0  0  0  2  0  0  0  0  0  0
  184.3680  179.5630  143.6000 C   0  0  2  0  0  3  0  0  0  0  0  0
  185.4770  180.1320  144.2320 O   0  0  0  0  0  1  0  0  0  0  0  0
  183.4190  178.9830  144.6010 C   0  0  0  0  0  0  0  0  0  0  0  0
  183.8070  178.8720  145.9300 O   0  0  0  0  0  1  0  0  0  0  0  0
  182.2610  178.6280  144.2580 O   0  0  0  0  0  0  0  0  0  0  0  0
  1 13  1  0  0  0  0
  2  7  1  0  0  0  0
  2  1  1  0  0  0  0
  3  8  1  0  0  0  0
  4 12  1  0  0  0  0
  4  3  1  0  0  0  0
  5  6  1  1  0  0  0
  5 10  1  0  0  0  0
  5 12  1  0  0  0  0
  8  1  2  0  0  0  0
  8  9  1  0  0  0  0
 10 11  1  0  0  0  0
 11 19  1  0  0  0  0
 11  7  2  0  0  0  0
 12  2  2  0  0  0  0
 13 18  2  0  0  0  0
 13 15  1  0  0  0  0
 15 16  2  0  0  0  0
 16 14  1  0  0  0  0
 17 14  2  0  0  0  0
 18 17  1  0  0  0  0
 19 20  1  0  0  0  0
 20 21  1  0  0  0  0
 21 22  1  1  0  0  0
 21 23  1  0  0  0  0
 23 24  1  0  0  0  0
 25 23  2  0  0  0  0
M  END
>  <MODEL>
7

>  <REMARK>
 VINA RESULT:      -7.7      1.963      5.580
  Name = 
  5 active torsions:
  status: ('A' for Active; 'I' for Inactive)
    1  A    between atoms: C_1  and  C_5
    2  A    between atoms: C_2  and  C_21
    3  A    between atoms: S_6  and  C_15
    4  A    between atoms: S_6  and  C_23
    5  A    between atoms: C_15  and  C_21
                            x       y       z     vdW  Elec       q    Type
                         _______ _______ _______ _____ _____    ______ ____

>  <TORSDO>
F 5

$$$$
=
 OpenBabel10262419503D

 25 27  0  0  1  0  0  0  0  0999 V2000
  184.3950  178.5380  142.7640 C   0  0  0  0  0  0  0  0  0  0  0  0
  185.0780  178.4890  141.4450 C   0  0  0  0  0  0  0  0  0  0  0  0
  182.2360  178.7080  141.5580 C   0  0  0  0  0  2  0  0  0  0  0  0
  183.0150  179.0420  140.4100 O   0  0  0  0  0  0  0  0  0  0  0  0
  185.0380  178.7480  138.9690 C   0  0  2  0  0  3  0  0  0  0  0  0
  184.5500  177.5560  138.1700 C   0  0  0  0  0  1  0  0  0  0  0  0
  186.4950  178.2570  141.3820 N   0  0  0  0  0  0  0  0  0  0  0  0
  183.0560  178.7060  142.8180 C   0  0  0  0  0  0  0  0  0  0  0  0
  182.1680  178.7190  144.3380 Cl  0  0  0  0  0  0  0  0  0  0  0  0
  186.4950  178.7040  139.0620 N   0  0  0  0  0  2  0  0  0  0  0  0
  187.1630  178.3520  140.2750 C   0  0  0  0  0  0  0  0  0  0  0  0
  184.3800  178.7530  140.3240 C   0  0  0  0  0  0  0  0  0  0  0  0
  185.2050  178.4280  143.9970 C   0  0  0  0  0  0  0  0  0  0  0  0
  186.7040  178.2030  146.3560 C   0  0  0  0  0  3  0  0  0  0  0  0
  186.1620  177.4110  144.1340 C   0  0  0  0  0  3  0  0  0  0  0  0
  186.9100  177.3010  145.3090 C   0  0  0  0  0  3  0  0  0  0  0  0
  185.7480  179.2140  146.2300 C   0  0  0  0  0  3  0  0  0  0  0  0
  184.9990  179.3250  145.0540 C   0  0  0  0  0  3  0  0  0  0  0  0
  188.9290  178.0910  140.2780 S   0  0  0  0  0  0  0  0  0  0  0  0
  189.0240  178.2600  142.0910 C   0  0  0  0  0  2  0  0  0  0  0  0
  190.1070  177.3750  142.6990 C   0  0  2  0  0  3  0  0  0  0  0  0
  189.6290  176.0830  142.9250 O   0  0  0  0  0  1  0  0  0  0  0  0
  190.6720  177.9670  143.9520 C   0  0  0  0  0  0  0  0  0  0  0  0
  191.3920  179.1520  143.8860 O   0  0  0  0  0  0  0  0  0  0  0  0
  190.4710  177.4200  145.0680 O   0  0  0  0  0  1  0  0  0  0  0  0
  1  8  2  0  0  0  0
  1 13  1  0  0  0  0
  2  1  1  0  0  0  0
  3  8  1  0  0  0  0
  4  3  1  0  0  0  0
  5  6  1  6  0  0  0
  5 10  1  0  0  0  0
  5 12  1  0  0  0  0
  7  2  1  0  0  0  0
  8  9  1  0  0  0  0
 10 11  1  0  0  0  0
 11 19  1  0  0  0  0
 11  7  2  0  0  0  0
 12  4  1  0  0  0  0
 12  2  2  0  0  0  0
 13 15  2  0  0  0  0
 13 18  1  0  0  0  0
 15 16  1  0  0  0  0
 16 14  2  0  0  0  0
 17 14  1  0  0  0  0
 18 17  2  0  0  0  0
 19 20  1  0  0  0  0
 20 21  1  0  0  0  0
 21 22  1  1  0  0  0
 21 23  1  0  0  0  0
 23 25  1  0  0  0  0
 24 23  2  0  0  0  0
M  END
>  <MODEL>
8

>  <REMARK>
 VINA RESULT:      -7.6      3.035      5.080
  Name = 
  5 active torsions:
  status: ('A' for Active; 'I' for Inactive)
    1  A    between atoms: C_1  and  C_5
    2  A    between atoms: C_2  and  C_21
    3  A    between atoms: S_6  and  C_15
    4  A    between atoms: S_6  and  C_23
    5  A    between atoms: C_15  and  C_21
                            x       y       z     vdW  Elec       q    Type
                         _______ _______ _______ _____ _____    ______ ____

>  <TORSDO>
F 5

$$$$
=
 OpenBabel10262419503D

 25 27  0  0  1  0  0  0  0  0999 V2000
  188.9950  177.6100  145.8640 C   0  0  0  0  0  0  0  0  0  0  0  0
  187.6180  178.0120  145.4760 C   0  0  0  0  0  0  0  0  0  0  0  0
  188.2770  177.7000  148.2340 C   0  0  0  0  0  2  0  0  0  0  0  0
  187.1510  178.4400  147.7630 O   0  0  0  0  0  0  0  0  0  0  0  0
  185.3580  178.8700  146.0730 C   0  0  2  0  0  3  0  0  0  0  0  0
  184.3550  177.8490  146.5730 C   0  0  0  0  0  1  0  0  0  0  0  0
  187.2490  178.0510  144.0880 N   0  0  0  0  0  0  0  0  0  0  0  0
  189.3250  177.5260  147.1710 C   0  0  0  0  0  0  0  0  0  0  0  0
  190.9180  177.0050  147.7100 Cl  0  0  0  0  0  0  0  0  0  0  0  0
  185.1820  179.0560  144.6350 N   0  0  0  0  0  2  0  0  0  0  0  0
  186.1140  178.5330  143.6870 C   0  0  0  0  0  0  0  0  0  0  0  0
  186.7530  178.4220  146.4230 C   0  0  0  0  0  0  0  0  0  0  0  0
  189.9900  177.3380  144.8020 C   0  0  0  0  0  0  0  0  0  0  0  0
  191.9090  176.8300  142.8220 C   0  0  0  0  0  3  0  0  0  0  0  0
  190.2490  176.0230  144.3890 C   0  0  0  0  0  3  0  0  0  0  0  0
  191.2040  175.7700  143.3990 C   0  0  0  0  0  3  0  0  0  0  0  0
  191.6620  178.1420  143.2350 C   0  0  0  0  0  3  0  0  0  0  0  0
  190.7060  178.3950  144.2240 C   0  0  0  0  0  3  0  0  0  0  0  0
  185.7390  178.5880  141.9420 S   0  0  0  0  0  0  0  0  0  0  0  0
  187.5050  178.6090  141.4890 C   0  0  0  0  0  2  0  0  0  0  0  0
  187.7150  178.6190  139.9790 C   0  0  2  0  0  3  0  0  0  0  0  0
  186.4910  178.6270  139.3050 O   0  0  0  0  0  1  0  0  0  0  0  0
  188.5690  177.4770  139.5280 C   0  0  0  0  0  0  0  0  0  0  0  0
  189.4590  176.8930  140.4200 O   0  0  0  0  0  1  0  0  0  0  0  0
  188.4650  177.0180  138.3600 O   0  0  0  0  0  0  0  0  0  0  0  0
  1  8  2  0  0  0  0
  2  1  1  0  0  0  0
  2 12  2  0  0  0  0
  4  3  1  0  0  0  0
  5 12  1  0  0  0  0
  5  6  1  6  0  0  0
  7  2  1  0  0  0  0
  8  9  1  0  0  0  0
  8  3  1  0  0  0  0
 10  5  1  0  0  0  0
 11  7  2  0  0  0  0
 11 10  1  0  0  0  0
 12  4  1  0  0  0  0
 13  1  1  0  0  0  0
 14 17  2  0  0  0  0
 14 16  1  0  0  0  0
 15 13  1  0  0  0  0
 16 15  2  0  0  0  0
 17 18  1  0  0  0  0
 18 13  2  0  0  0  0
 19 11  1  0  0  0  0
 20 19  1  0  0  0  0
 21 22  1  6  0  0  0
 21 20  1  0  0  0  0
 23 21  1  0  0  0  0
 23 24  1  0  0  0  0
 25 23  2  0  0  0  0
M  END
>  <MODEL>
9

>  <REMARK>
 VINA RESULT:      -7.6      1.570      2.190
  Name = 
  5 active torsions:
  status: ('A' for Active; 'I' for Inactive)
    1  A    between atoms: C_1  and  C_5
    2  A    between atoms: C_2  and  C_21
    3  A    between atoms: S_6  and  C_15
    4  A    between atoms: S_6  and  C_23
    5  A    between atoms: C_15  and  C_21
                            x       y       z     vdW  Elec       q    Type
                         _______ _______ _______ _____ _____    ______ ____

>  <TORSDO>
F 5

$$$$
