=
 OpenBabel10252415073D

 34 38  0  0  1  0  0  0  0  0999 V2000
  189.8310  177.2040  147.0500 C   0  0  0  0  0  0  0  0  0  0  0  0
  190.0950  176.6660  144.6830 C   0  0  0  0  0  0  0  0  0  0  0  0
  187.9870  177.5690  145.5080 C   0  0  0  0  0  0  0  0  0  0  0  0
  186.4950  178.3630  143.6830 N   0  0  0  0  0  0  0  0  0  0  0  0
  191.9160  176.2760  146.2350 C   0  0  0  0  0  3  0  0  0  0  0  0
  191.4030  176.2400  144.9330 C   0  0  0  0  0  3  0  0  0  0  0  0
  188.3750  177.1080  143.0980 C   0  0  0  0  0  0  0  0  0  0  0  0
  189.3030  177.1370  145.7470 C   0  0  0  0  0  0  0  0  0  0  0  0
  186.5630  178.2810  142.2160 C   0  0  0  0  0  2  0  0  0  0  0  0
  191.1350  176.7630  147.2900 C   0  0  0  0  0  3  0  0  0  0  0  0
  187.7380  178.1330  147.8070 C   0  0  0  0  0  3  0  0  0  0  0  0
  189.0440  177.7140  148.0840 C   0  0  0  0  0  3  0  0  0  0  0  0
  189.6110  176.7800  143.3360 N   0  0  0  0  0  0  0  0  0  0  0  0
  187.8790  177.6180  141.8050 C   0  0  1  0  0  3  0  0  0  0  0  0
  187.3600  177.2930  144.1620 C   0  0  1  0  0  3  0  0  0  0  0  0
  187.2380  178.0380  146.5440 N   0  0  0  0  0  0  0  0  0  0  0  0
  188.8040  178.6910  141.2360 C   0  0  0  0  0  2  0  0  0  0  0  0
  189.4310  178.2240  139.9320 C   0  0  0  0  0  2  0  0  0  0  0  0
  188.8020  176.9950  139.4860 N   0  0  0  0  0  2  0  0  0  0  0  0
  188.7050  177.0740  138.0390 C   0  0  0  0  0  2  0  0  0  0  0  0
  187.2510  176.9340  137.6020 C   0  0  0  0  0  2  0  0  0  0  0  0
  186.5350  178.2790  137.4820 C   0  0  2  0  0  3  0  0  0  0  0  0
  187.4050  179.2630  137.0010 O   0  0  0  0  0  1  0  0  0  0  0  0
  184.6310  178.4910  138.5940 C   0  0  0  0  0  1  0  0  0  0  0  0
  186.0100  178.6720  138.7180 O   0  0  0  0  0  0  0  0  0  0  0  0
  185.1370  178.0120  144.0600 C   0  0  0  0  0  2  0  0  0  0  0  0
  184.2590  179.2500  144.0200 C   0  0  0  0  0  2  0  0  0  0  0  0
  179.9570  178.6770  142.6180 C   0  0  0  0  0  3  0  0  0  0  0  0
  180.5090  178.4360  143.8070 C   0  0  0  0  0  3  0  0  0  0  0  0
  182.9490  178.9180  143.3960 C   0  0  0  0  0  0  0  0  0  0  0  0
  181.8840  178.8010  144.2030 C   0  0  0  0  0  3  0  0  0  0  0  0
  181.9170  178.7990  141.1200 C   0  0  0  0  0  3  0  0  0  0  0  0
  182.9450  178.6090  141.9490 C   0  0  0  0  0  3  0  0  0  0  0  0
  180.6400  179.4500  141.5390 C   0  0  0  0  0  2  0  0  0  0  0  0
  1 10  1  0  0  0  0
  1 12  1  0  0  0  0
  2  6  2  0  0  0  0
  2  8  1  0  0  0  0
  3  8  1  0  0  0  0
  3 16  2  0  0  0  0
  4 26  1  0  0  0  0
  4 15  1  0  0  0  0
  5 10  2  0  0  0  0
  6  5  1  0  0  0  0
  7 13  2  0  0  0  0
  8  1  2  0  0  0  0
  9  4  1  0  0  0  0
 11 12  2  0  0  0  0
 13  2  1  0  0  0  0
 14 17  1  1  0  0  0
 14  9  1  0  0  0  0
 14  7  1  0  0  0  0
 15  7  1  6  0  0  0
 15  3  1  0  0  0  0
 16 11  1  0  0  0  0
 18 17  1  0  0  0  0
 19 18  1  0  0  0  0
 20 19  1  0  0  0  0
 21 20  1  0  0  0  0
 22 23  1  1  0  0  0
 22 21  1  0  0  0  0
 22 25  1  0  0  0  0
 24 25  1  0  0  0  0
 27 26  1  0  0  0  0
 28 29  2  0  0  0  0
 29 31  1  0  0  0  0
 30 27  1  0  0  0  0
 30 31  2  0  0  0  0
 32 34  1  0  0  0  0
 32 33  2  0  0  0  0
 33 30  1  0  0  0  0
 34 28  1  0  0  0  0
M  END
>  <MODEL>
1

>  <REMARK>
 VINA RESULT:      -8.8      0.000      0.000
  Name = 
  10 active torsions:
  status: ('A' for Active; 'I' for Inactive)
    1  A    between atoms: C_3  and  N_13
    2  A    between atoms: C_3  and  C_17
    3  A    between atoms: N_5  and  C_26
    4  A    between atoms: C_12  and  C_28
    5  A    between atoms: N_13  and  C_33
    6  A    between atoms: O_14  and  C_20
    7  A    between atoms: C_17  and  C_29
    8  A    between atoms: C_20  and  C_34
    9  A    between atoms: C_26  and  C_28
   10  A    between atoms: C_33  and  C_34
                            x       y       z     vdW  Elec       q    Type
                         _______ _______ _______ _____ _____    ______ ____

>  <TORSDO>
F 10

$$$$
=
 OpenBabel10252415073D

 34 38  0  0  1  0  0  0  0  0999 V2000
  189.6210  177.3540  147.1380 C   0  0  0  0  0  0  0  0  0  0  0  0
  189.8100  176.7830  144.7720 C   0  0  0  0  0  0  0  0  0  0  0  0
  187.7310  177.7030  145.6500 C   0  0  0  0  0  0  0  0  0  0  0  0
  186.1840  178.4750  143.8610 N   0  0  0  0  0  0  0  0  0  0  0  0
  191.6780  176.4100  146.2710 C   0  0  0  0  0  3  0  0  0  0  0  0
  191.1240  176.3580  144.9860 C   0  0  0  0  0  3  0  0  0  0  0  0
  188.0420  177.2080  143.2350 C   0  0  0  0  0  0  0  0  0  0  0  0
  189.0530  177.2710  145.8530 C   0  0  0  0  0  0  0  0  0  0  0  0
  186.2050  178.3730  142.3940 C   0  0  0  0  0  2  0  0  0  0  0  0
  190.9310  176.9130  147.3430 C   0  0  0  0  0  3  0  0  0  0  0  0
  187.5550  178.3000  147.9480 C   0  0  0  0  0  3  0  0  0  0  0  0
  188.8690  177.8800  148.1890 C   0  0  0  0  0  3  0  0  0  0  0  0
  189.2850  176.8800  143.4390 N   0  0  0  0  0  0  0  0  0  0  0  0
  187.5070  177.7010  141.9510 C   0  0  1  0  0  3  0  0  0  0  0  0
  187.0620  177.4100  144.3280 C   0  0  1  0  0  3  0  0  0  0  0  0
  187.0150  178.1880  146.7020 N   0  0  0  0  0  0  0  0  0  0  0  0
  188.4160  178.7640  141.3390 C   0  0  0  0  0  2  0  0  0  0  0  0
  188.7870  178.3960  139.9110 C   0  0  0  0  0  2  0  0  0  0  0  0
  189.3300  177.0510  139.8660 N   0  0  0  0  0  2  0  0  0  0  0  0
  190.7630  177.1690  140.0750 C   0  0  0  0  0  2  0  0  0  0  0  0
  191.5150  176.6560  138.8520 C   0  0  0  0  0  2  0  0  0  0  0  0
  190.6150  175.8920  137.8800 C   0  0  2  0  0  3  0  0  0  0  0  0
  190.8660  174.5180  137.9460 O   0  0  0  0  0  1  0  0  0  0  0  0
  189.6390  177.0520  136.2650 C   0  0  0  0  0  1  0  0  0  0  0  0
  190.8050  176.3470  136.5700 O   0  0  0  0  0  0  0  0  0  0  0  0
  184.8370  178.1330  144.2850 C   0  0  0  0  0  2  0  0  0  0  0  0
  183.9350  179.3460  144.1490 C   0  0  0  0  0  2  0  0  0  0  0  0
  179.6980  178.5470  142.6600 C   0  0  0  0  0  3  0  0  0  0  0  0
  180.2470  178.3060  143.8510 C   0  0  0  0  0  3  0  0  0  0  0  0
  182.6570  178.9520  143.4940 C   0  0  0  0  0  0  0  0  0  0  0  0
  181.5900  178.7450  144.2800 C   0  0  0  0  0  3  0  0  0  0  0  0
  181.6690  178.8340  141.1990 C   0  0  0  0  0  3  0  0  0  0  0  0
  182.6940  178.6850  142.0390 C   0  0  0  0  0  3  0  0  0  0  0  0
  180.3470  179.3920  141.6150 C   0  0  0  0  0  2  0  0  0  0  0  0
  1 10  1  0  0  0  0
  1 12  1  0  0  0  0
  2  6  2  0  0  0  0
  2  8  1  0  0  0  0
  3  8  1  0  0  0  0
  3 16  2  0  0  0  0
  4 26  1  0  0  0  0
  4 15  1  0  0  0  0
  5 10  2  0  0  0  0
  6  5  1  0  0  0  0
  7 13  2  0  0  0  0
  8  1  2  0  0  0  0
  9  4  1  0  0  0  0
 11 12  2  0  0  0  0
 13  2  1  0  0  0  0
 14 17  1  1  0  0  0
 14  9  1  0  0  0  0
 14  7  1  0  0  0  0
 15  7  1  6  0  0  0
 15  3  1  0  0  0  0
 16 11  1  0  0  0  0
 18 17  1  0  0  0  0
 19 18  1  0  0  0  0
 19 20  1  0  0  0  0
 21 20  1  0  0  0  0
 22 23  1  6  0  0  0
 22 21  1  0  0  0  0
 24 25  1  0  0  0  0
 25 22  1  0  0  0  0
 27 26  1  0  0  0  0
 28 29  2  0  0  0  0
 29 31  1  0  0  0  0
 30 27  1  0  0  0  0
 30 31  2  0  0  0  0
 32 34  1  0  0  0  0
 32 33  2  0  0  0  0
 33 30  1  0  0  0  0
 34 28  1  0  0  0  0
M  END
>  <MODEL>
2

>  <REMARK>
 VINA RESULT:      -8.6      1.672      2.138
  Name = 
  10 active torsions:
  status: ('A' for Active; 'I' for Inactive)
    1  A    between atoms: C_3  and  N_13
    2  A    between atoms: C_3  and  C_17
    3  A    between atoms: N_5  and  C_26
    4  A    between atoms: C_12  and  C_28
    5  A    between atoms: N_13  and  C_33
    6  A    between atoms: O_14  and  C_20
    7  A    between atoms: C_17  and  C_29
    8  A    between atoms: C_20  and  C_34
    9  A    between atoms: C_26  and  C_28
   10  A    between atoms: C_33  and  C_34
                            x       y       z     vdW  Elec       q    Type
                         _______ _______ _______ _____ _____    ______ ____

>  <TORSDO>
F 10

$$$$
=
 OpenBabel10252415073D

 34 38  0  0  1  0  0  0  0  0999 V2000
  189.8470  177.1640  146.9970 C   0  0  0  0  0  0  0  0  0  0  0  0
  191.0000  176.2620  145.0440 C   0  0  0  0  0  0  0  0  0  0  0  0
  188.8060  177.2960  144.8040 C   0  0  0  0  0  0  0  0  0  0  0  0
  188.2300  177.8050  142.4380 N   0  0  0  0  0  0  0  0  0  0  0  0
  192.0140  176.1070  147.2400 C   0  0  0  0  0  3  0  0  0  0  0  0
  192.0650  175.8710  145.8610 C   0  0  0  0  0  3  0  0  0  0  0  0
  190.0950  176.4620  142.8510 C   0  0  0  0  0  0  0  0  0  0  0  0
  189.8830  176.8990  145.6150 C   0  0  0  0  0  0  0  0  0  0  0  0
  188.8750  177.4950  141.1520 C   0  0  0  0  0  2  0  0  0  0  0  0
  190.9110  176.7580  147.8060 C   0  0  0  0  0  3  0  0  0  0  0  0
  187.6960  178.2150  146.6990 C   0  0  0  0  0  3  0  0  0  0  0  0
  188.7490  177.8350  147.5390 C   0  0  0  0  0  3  0  0  0  0  0  0
  191.1060  176.1670  143.6150 N   0  0  0  0  0  0  0  0  0  0  0  0
  190.1960  176.7670  141.4100 C   0  0  1  0  0  3  0  0  0  0  0  0
  188.7540  176.8180  143.3720 C   0  0  1  0  0  3  0  0  0  0  0  0
  187.7390  177.9270  145.3680 N   0  0  0  0  0  0  0  0  0  0  0  0
  191.3440  177.7320  141.1230 C   0  0  0  0  0  2  0  0  0  0  0  0
  192.1850  177.2350  139.9580 C   0  0  0  0  0  2  0  0  0  0  0  0
  191.3330  176.6530  138.9380 N   0  0  0  0  0  2  0  0  0  0  0  0
  192.1630  176.4510  137.7630 C   0  0  0  0  0  2  0  0  0  0  0  0
  192.7740  175.0540  137.7870 C   0  0  0  0  0  2  0  0  0  0  0  0
  194.2910  175.0670  137.5970 C   0  0  2  0  0  3  0  0  0  0  0  0
  194.9440  175.2550  138.8190 O   0  0  0  0  0  1  0  0  0  0  0  0
  194.8250  175.4130  135.4750 C   0  0  0  0  0  1  0  0  0  0  0  0
  194.6670  176.0700  136.6960 O   0  0  0  0  0  0  0  0  0  0  0  0
  186.8140  177.5260  142.2740 C   0  0  0  0  0  2  0  0  0  0  0  0
  186.1330  178.7090  141.6110 C   0  0  0  0  0  2  0  0  0  0  0  0
  181.9170  178.9220  143.3380 C   0  0  0  0  0  3  0  0  0  0  0  0
  182.3210  178.8870  142.0680 C   0  0  0  0  0  3  0  0  0  0  0  0
  184.8310  178.9810  142.2810 C   0  0  0  0  0  0  0  0  0  0  0  0
  183.7100  178.6630  141.6170 C   0  0  0  0  0  3  0  0  0  0  0  0
  183.9640  179.5990  144.5440 C   0  0  0  0  0  3  0  0  0  0  0  0
  184.8680  179.7050  143.5700 C   0  0  0  0  0  3  0  0  0  0  0  0
  182.8190  178.6410  144.4930 C   0  0  0  0  0  2  0  0  0  0  0  0
  1 12  1  0  0  0  0
  1 10  2  0  0  0  0
  2  8  2  0  0  0  0
  2  6  1  0  0  0  0
  3 16  2  0  0  0  0
  3  8  1  0  0  0  0
  4 15  1  0  0  0  0
  5 10  1  0  0  0  0
  6  5  2  0  0  0  0
  7 13  2  0  0  0  0
  8  1  1  0  0  0  0
  9 14  1  0  0  0  0
  9  4  1  0  0  0  0
 11 12  2  0  0  0  0
 13  2  1  0  0  0  0
 14 17  1  1  0  0  0
 14  7  1  0  0  0  0
 15  7  1  6  0  0  0
 15  3  1  0  0  0  0
 16 11  1  0  0  0  0
 18 17  1  0  0  0  0
 19 18  1  0  0  0  0
 20 21  1  0  0  0  0
 20 19  1  0  0  0  0
 22 21  1  0  0  0  0
 22 23  1  1  0  0  0
 24 25  1  0  0  0  0
 25 22  1  0  0  0  0
 26  4  1  0  0  0  0
 27 26  1  0  0  0  0
 27 30  1  0  0  0  0
 28 34  1  0  0  0  0
 29 28  2  0  0  0  0
 30 33  1  0  0  0  0
 31 29  1  0  0  0  0
 31 30  2  0  0  0  0
 33 32  2  0  0  0  0
 34 32  1  0  0  0  0
M  END
>  <MODEL>
3

>  <REMARK>
 VINA RESULT:      -8.0      3.007      3.988
  Name = 
  10 active torsions:
  status: ('A' for Active; 'I' for Inactive)
    1  A    between atoms: C_3  and  N_13
    2  A    between atoms: C_3  and  C_17
    3  A    between atoms: N_5  and  C_26
    4  A    between atoms: C_12  and  C_28
    5  A    between atoms: N_13  and  C_33
    6  A    between atoms: O_14  and  C_20
    7  A    between atoms: C_17  and  C_29
    8  A    between atoms: C_20  and  C_34
    9  A    between atoms: C_26  and  C_28
   10  A    between atoms: C_33  and  C_34
                            x       y       z     vdW  Elec       q    Type
                         _______ _______ _______ _____ _____    ______ ____

>  <TORSDO>
F 10

$$$$
=
 OpenBabel10252415073D

 34 38  0  0  1  0  0  0  0  0999 V2000
  190.0150  176.6750  137.0940 C   0  0  0  0  0  0  0  0  0  0  0  0
  191.2490  176.9530  139.1810 C   0  0  0  0  0  0  0  0  0  0  0  0
  188.8810  177.5160  139.0730 C   0  0  0  0  0  0  0  0  0  0  0  0
  187.8520  177.8040  141.3190 N   0  0  0  0  0  0  0  0  0  0  0  0
  192.3770  176.1450  137.1930 C   0  0  0  0  0  3  0  0  0  0  0  0
  192.4080  176.4920  138.5500 C   0  0  0  0  0  3  0  0  0  0  0  0
  190.1780  177.6570  141.1870 C   0  0  0  0  0  0  0  0  0  0  0  0
  190.0530  177.0560  138.4480 C   0  0  0  0  0  0  0  0  0  0  0  0
  188.3980  177.8350  142.6840 C   0  0  0  0  0  2  0  0  0  0  0  0
  191.1820  176.2300  136.4680 C   0  0  0  0  0  3  0  0  0  0  0  0
  187.6630  177.2090  137.0510 C   0  0  0  0  0  3  0  0  0  0  0  0
  188.8090  176.7450  136.3940 C   0  0  0  0  0  3  0  0  0  0  0  0
  191.2290  177.1630  140.6010 N   0  0  0  0  0  0  0  0  0  0  0  0
  189.9030  177.5610  142.6340 C   0  0  1  0  0  3  0  0  0  0  0  0
  188.9780  178.1230  140.4520 C   0  0  1  0  0  3  0  0  0  0  0  0
  187.7260  177.5950  138.3560 N   0  0  0  0  0  0  0  0  0  0  0  0
  190.1550  176.1500  143.1570 C   0  0  0  0  0  2  0  0  0  0  0  0
  191.4300  176.1030  143.9860 C   0  0  0  0  0  2  0  0  0  0  0  0
  191.4220  177.1660  144.9750 N   0  0  0  0  0  2  0  0  0  0  0  0
  191.3870  176.5250  146.2780 C   0  0  0  0  0  2  0  0  0  0  0  0
  190.4270  177.2670  147.2020 C   0  0  0  0  0  2  0  0  0  0  0  0
  188.9630  176.9060  146.9500 C   0  0  2  0  0  3  0  0  0  0  0  0
  188.3980  177.7610  145.9990 O   0  0  0  0  0  1  0  0  0  0  0  0
  188.5090  178.2250  148.6710 C   0  0  0  0  0  1  0  0  0  0  0  0
  188.2280  176.9650  148.1390 O   0  0  0  0  0  0  0  0  0  0  0  0
  186.9120  178.9080  141.2190 C   0  0  0  0  0  2  0  0  0  0  0  0
  185.5230  178.3730  140.9240 C   0  0  0  0  0  2  0  0  0  0  0  0
  182.2980  178.9460  144.0990 C   0  0  0  0  0  3  0  0  0  0  0  0
  182.1880  178.8550  142.7730 C   0  0  0  0  0  3  0  0  0  0  0  0
  184.5920  178.7570  142.0210 C   0  0  0  0  0  0  0  0  0  0  0  0
  183.2850  178.5160  141.8440 C   0  0  0  0  0  3  0  0  0  0  0  0
  184.6880  179.4830  144.4130 C   0  0  0  0  0  3  0  0  0  0  0  0
  185.1620  179.5000  143.1670 C   0  0  0  0  0  3  0  0  0  0  0  0
  183.5500  178.6160  144.8410 C   0  0  0  0  0  2  0  0  0  0  0  0
  1  8  1  0  0  0  0
  2 13  1  0  0  0  0
  4  9  1  0  0  0  0
  5  6  2  0  0  0  0
  6  2  1  0  0  0  0
  7 14  1  0  0  0  0
  8  3  1  0  0  0  0
  8  2  2  0  0  0  0
 10  1  2  0  0  0  0
 10  5  1  0  0  0  0
 11 16  1  0  0  0  0
 12 11  2  0  0  0  0
 12  1  1  0  0  0  0
 13  7  2  0  0  0  0
 14  9  1  0  0  0  0
 14 17  1  6  0  0  0
 15  3  1  6  0  0  0
 15  7  1  0  0  0  0
 15  4  1  0  0  0  0
 16  3  2  0  0  0  0
 17 18  1  0  0  0  0
 18 19  1  0  0  0  0
 19 20  1  0  0  0  0
 20 21  1  0  0  0  0
 22 23  1  6  0  0  0
 22 21  1  0  0  0  0
 22 25  1  0  0  0  0
 25 24  1  0  0  0  0
 26  4  1  0  0  0  0
 27 26  1  0  0  0  0
 27 30  1  0  0  0  0
 28 34  1  0  0  0  0
 29 28  2  0  0  0  0
 30 33  1  0  0  0  0
 31 30  2  0  0  0  0
 31 29  1  0  0  0  0
 32 34  1  0  0  0  0
 33 32  2  0  0  0  0
M  END
>  <MODEL>
4

>  <REMARK>
 VINA RESULT:      -7.9      2.736      6.821
  Name = 
  10 active torsions:
  status: ('A' for Active; 'I' for Inactive)
    1  A    between atoms: C_3  and  N_13
    2  A    between atoms: C_3  and  C_17
    3  A    between atoms: N_5  and  C_26
    4  A    between atoms: C_12  and  C_28
    5  A    between atoms: N_13  and  C_33
    6  A    between atoms: O_14  and  C_20
    7  A    between atoms: C_17  and  C_29
    8  A    between atoms: C_20  and  C_34
    9  A    between atoms: C_26  and  C_28
   10  A    between atoms: C_33  and  C_34
                            x       y       z     vdW  Elec       q    Type
                         _______ _______ _______ _____ _____    ______ ____

>  <TORSDO>
F 10

$$$$
=
 OpenBabel10252415073D

 34 38  0  0  1  0  0  0  0  0999 V2000
  183.9810  178.6420  141.8530 C   0  0  0  0  0  0  0  0  0  0  0  0
  185.2450  178.7680  139.7690 C   0  0  0  0  0  0  0  0  0  0  0  0
  186.4020  178.4230  141.8860 C   0  0  0  0  0  0  0  0  0  0  0  0
  188.7570  177.6800  141.5920 N   0  0  0  0  0  0  0  0  0  0  0  0
  182.8340  179.0160  139.7520 C   0  0  0  0  0  3  0  0  0  0  0  0
  184.0530  178.9620  139.0650 C   0  0  0  0  0  3  0  0  0  0  0  0
  187.6030  178.4450  139.7120 C   0  0  0  0  0  0  0  0  0  0  0  0
  185.2100  178.6200  141.1680 C   0  0  0  0  0  0  0  0  0  0  0  0
  189.6310  177.5330  140.4170 C   0  0  0  0  0  2  0  0  0  0  0  0
  182.7970  178.8500  141.1420 C   0  0  0  0  0  3  0  0  0  0  0  0
  185.1700  178.2580  143.9170 C   0  0  0  0  0  3  0  0  0  0  0  0
  183.9620  178.4510  143.2370 C   0  0  0  0  0  3  0  0  0  0  0  0
  186.4790  178.5560  139.0660 N   0  0  0  0  0  0  0  0  0  0  0  0
  188.8360  177.8590  139.1500 C   0  0  1  0  0  3  0  0  0  0  0  0
  187.7220  178.6180  141.1790 C   0  0  1  0  0  3  0  0  0  0  0  0
  186.3510  178.2650  143.2380 N   0  0  0  0  0  0  0  0  0  0  0  0
  188.5480  176.5550  138.4110 C   0  0  0  0  0  2  0  0  0  0  0  0
  189.6760  176.2250  137.4460 C   0  0  0  0  0  2  0  0  0  0  0  0
  189.8500  174.7870  137.3530 N   0  0  0  0  0  2  0  0  0  0  0  0
  191.2730  174.5270  137.4820 C   0  0  0  0  0  2  0  0  0  0  0  0
  191.9940  175.7830  137.9600 C   0  0  0  0  0  2  0  0  0  0  0  0
  193.5090  175.7070  137.7680 C   0  0  2  0  0  3  0  0  0  0  0  0
  193.9590  176.7510  136.9550 O   0  0  0  0  0  1  0  0  0  0  0  0
  195.2260  174.3280  137.5280 C   0  0  0  0  0  1  0  0  0  0  0  0
  193.8750  174.4770  137.2100 O   0  0  0  0  0  0  0  0  0  0  0  0
  189.5450  178.3400  142.6190 C   0  0  0  0  0  2  0  0  0  0  0  0
  190.5800  177.3760  143.1680 C   0  0  0  0  0  2  0  0  0  0  0  0
  190.3910  176.9810  147.7080 C   0  0  0  0  0  3  0  0  0  0  0  0
  191.3420  176.6000  146.8540 C   0  0  0  0  0  3  0  0  0  0  0  0
  190.3170  177.1230  144.6110 C   0  0  0  0  0  0  0  0  0  0  0  0
  191.3730  176.9140  145.4110 C   0  0  0  0  0  3  0  0  0  0  0  0
  188.4260  177.2740  146.2410 C   0  0  0  0  0  3  0  0  0  0  0  0
  188.9050  176.9860  145.0310 C   0  0  0  0  0  3  0  0  0  0  0  0
  189.2580  177.8740  147.3270 C   0  0  0  0  0  2  0  0  0  0  0  0
  1 12  1  0  0  0  0
  2  8  1  0  0  0  0
  3 16  2  0  0  0  0
  4 26  1  0  0  0  0
  5 10  2  0  0  0  0
  6  5  1  0  0  0  0
  6  2  2  0  0  0  0
  8  1  2  0  0  0  0
  8  3  1  0  0  0  0
  9  4  1  0  0  0  0
 10  1  1  0  0  0  0
 12 11  2  0  0  0  0
 13  7  2  0  0  0  0
 13  2  1  0  0  0  0
 14 17  1  1  0  0  0
 14  7  1  0  0  0  0
 14  9  1  0  0  0  0
 15  7  1  6  0  0  0
 15  4  1  0  0  0  0
 15  3  1  0  0  0  0
 16 11  1  0  0  0  0
 18 17  1  0  0  0  0
 19 18  1  0  0  0  0
 19 20  1  0  0  0  0
 20 21  1  0  0  0  0
 22 23  1  6  0  0  0
 22 21  1  0  0  0  0
 25 24  1  0  0  0  0
 25 22  1  0  0  0  0
 26 27  1  0  0  0  0
 27 30  1  0  0  0  0
 29 28  2  0  0  0  0
 30 33  1  0  0  0  0
 30 31  2  0  0  0  0
 31 29  1  0  0  0  0
 32 34  1  0  0  0  0
 33 32  2  0  0  0  0
 34 28  1  0  0  0  0
M  END
>  <MODEL>
5

>  <REMARK>
 VINA RESULT:      -7.9      2.813      7.247
  Name = 
  10 active torsions:
  status: ('A' for Active; 'I' for Inactive)
    1  A    between atoms: C_3  and  N_13
    2  A    between atoms: C_3  and  C_17
    3  A    between atoms: N_5  and  C_26
    4  A    between atoms: C_12  and  C_28
    5  A    between atoms: N_13  and  C_33
    6  A    between atoms: O_14  and  C_20
    7  A    between atoms: C_17  and  C_29
    8  A    between atoms: C_20  and  C_34
    9  A    between atoms: C_26  and  C_28
   10  A    between atoms: C_33  and  C_34
                            x       y       z     vdW  Elec       q    Type
                         _______ _______ _______ _____ _____    ______ ____

>  <TORSDO>
F 10

$$$$
=
 OpenBabel10252415073D

 34 38  0  0  1  0  0  0  0  0999 V2000
  187.7740  177.5040  145.3850 C   0  0  0  0  0  0  0  0  0  0  0  0
  185.7050  178.7140  145.8460 C   0  0  0  0  0  0  0  0  0  0  0  0
  186.3150  178.1540  143.5530 C   0  0  0  0  0  0  0  0  0  0  0  0
  184.4260  178.4210  141.9580 N   0  0  0  0  0  0  0  0  0  0  0  0
  187.1830  178.0880  147.6620 C   0  0  0  0  0  3  0  0  0  0  0  0
  185.9990  178.6850  147.2120 C   0  0  0  0  0  3  0  0  0  0  0  0
  184.1710  179.2780  144.1150 C   0  0  0  0  0  0  0  0  0  0  0  0
  186.6000  178.1320  144.9290 C   0  0  0  0  0  0  0  0  0  0  0  0
  183.0660  178.9680  142.0850 C   0  0  0  0  0  2  0  0  0  0  0  0
  188.0660  177.4920  146.7520 C   0  0  0  0  0  3  0  0  0  0  0  0
  188.3110  176.9390  143.1030 C   0  0  0  0  0  3  0  0  0  0  0  0
  188.6300  176.8950  144.4650 C   0  0  0  0  0  3  0  0  0  0  0  0
  184.4280  179.1820  145.3860 N   0  0  0  0  0  0  0  0  0  0  0  0
  182.8150  179.3720  143.5390 C   0  0  1  0  0  3  0  0  0  0  0  0
  185.1750  179.0130  143.0570 C   0  0  1  0  0  3  0  0  0  0  0  0
  187.1820  177.5730  142.6790 N   0  0  0  0  0  0  0  0  0  0  0  0
  181.8700  178.3520  144.1690 C   0  0  0  0  0  2  0  0  0  0  0  0
  180.4210  178.7670  143.9660 C   0  0  0  0  0  2  0  0  0  0  0  0
  179.6820  177.7020  143.3140 N   0  0  0  0  0  2  0  0  0  0  0  0
  179.5190  178.0940  141.9240 C   0  0  0  0  0  2  0  0  0  0  0  0
  179.6510  176.8760  141.0170 C   0  0  0  0  0  2  0  0  0  0  0  0
  180.7750  177.0190  139.9920 C   0  0  2  0  0  3  0  0  0  0  0  0
  180.4910  178.0410  139.0810 O   0  0  0  0  0  1  0  0  0  0  0  0
  180.0480  174.9300  139.8610 C   0  0  0  0  0  1  0  0  0  0  0  0
  180.9760  175.8140  139.3080 O   0  0  0  0  0  0  0  0  0  0  0  0
  184.9790  178.9600  140.7270 C   0  0  0  0  0  2  0  0  0  0  0  0
  183.9400  178.8870  139.6240 C   0  0  0  0  0  2  0  0  0  0  0  0
  186.2540  176.5730  136.4460 C   0  0  0  0  0  3  0  0  0  0  0  0
  186.5940  177.6690  137.1240 C   0  0  0  0  0  3  0  0  0  0  0  0
  184.5070  178.1760  138.4440 C   0  0  0  0  0  0  0  0  0  0  0  0
  185.8310  178.2530  138.2460 C   0  0  0  0  0  3  0  0  0  0  0  0
  183.8030  176.4890  136.7370 C   0  0  0  0  0  3  0  0  0  0  0  0
  183.5520  177.5510  137.5040 C   0  0  0  0  0  3  0  0  0  0  0  0
  185.0820  175.7200  136.8010 C   0  0  0  0  0  2  0  0  0  0  0  0
  1 10  2  0  0  0  0
  2  6  1  0  0  0  0
  3  8  1  0  0  0  0
  4  9  1  0  0  0  0
  4 15  1  0  0  0  0
  6  5  2  0  0  0  0
  7 13  2  0  0  0  0
  8  1  1  0  0  0  0
  8  2  2  0  0  0  0
  9 14  1  0  0  0  0
 10  5  1  0  0  0  0
 11 12  2  0  0  0  0
 12  1  1  0  0  0  0
 13  2  1  0  0  0  0
 14  7  1  0  0  0  0
 14 17  1  1  0  0  0
 15  3  1  1  0  0  0
 15  7  1  0  0  0  0
 16 11  1  0  0  0  0
 16  3  2  0  0  0  0
 18 17  1  0  0  0  0
 19 18  1  0  0  0  0
 20 19  1  0  0  0  0
 21 20  1  0  0  0  0
 22 23  1  6  0  0  0
 22 21  1  0  0  0  0
 25 24  1  0  0  0  0
 25 22  1  0  0  0  0
 26  4  1  0  0  0  0
 27 26  1  0  0  0  0
 28 34  1  0  0  0  0
 28 29  2  0  0  0  0
 29 31  1  0  0  0  0
 30 27  1  0  0  0  0
 31 30  2  0  0  0  0
 32 34  1  0  0  0  0
 32 33  2  0  0  0  0
 33 30  1  0  0  0  0
M  END
>  <MODEL>
6

>  <REMARK>
 VINA RESULT:      -7.6      2.476      6.105
  Name = 
  10 active torsions:
  status: ('A' for Active; 'I' for Inactive)
    1  A    between atoms: C_3  and  N_13
    2  A    between atoms: C_3  and  C_17
    3  A    between atoms: N_5  and  C_26
    4  A    between atoms: C_12  and  C_28
    5  A    between atoms: N_13  and  C_33
    6  A    between atoms: O_14  and  C_20
    7  A    between atoms: C_17  and  C_29
    8  A    between atoms: C_20  and  C_34
    9  A    between atoms: C_26  and  C_28
   10  A    between atoms: C_33  and  C_34
                            x       y       z     vdW  Elec       q    Type
                         _______ _______ _______ _____ _____    ______ ____

>  <TORSDO>
F 10

$$$$
=
 OpenBabel10252415073D

 34 38  0  0  1  0  0  0  0  0999 V2000
  184.0840  178.6560  141.8570 C   0  0  0  0  0  0  0  0  0  0  0  0
  185.2530  178.7690  139.7170 C   0  0  0  0  0  0  0  0  0  0  0  0
  186.4870  178.2970  141.7650 C   0  0  0  0  0  0  0  0  0  0  0  0
  188.7770  177.4270  141.3350 N   0  0  0  0  0  0  0  0  0  0  0  0
  182.8620  179.1570  139.8250 C   0  0  0  0  0  3  0  0  0  0  0  0
  184.0420  179.0520  139.0780 C   0  0  0  0  0  3  0  0  0  0  0  0
  187.5820  178.3120  139.5350 C   0  0  0  0  0  0  0  0  0  0  0  0
  185.2760  178.5830  141.1120 C   0  0  0  0  0  0  0  0  0  0  0  0
  189.5830  177.2640  140.1150 C   0  0  0  0  0  2  0  0  0  0  0  0
  182.8810  178.9530  141.2110 C   0  0  0  0  0  3  0  0  0  0  0  0
  185.3450  178.1450  143.8490 C   0  0  0  0  0  3  0  0  0  0  0  0
  184.1200  178.4260  143.2340 C   0  0  0  0  0  3  0  0  0  0  0  0
  186.4370  178.5070  138.9490 N   0  0  0  0  0  0  0  0  0  0  0  0
  188.7500  177.6720  138.8980 C   0  0  1  0  0  3  0  0  0  0  0  0
  187.7810  178.4350  140.9980 C   0  0  1  0  0  3  0  0  0  0  0  0
  186.4910  178.1030  143.1130 N   0  0  0  0  0  0  0  0  0  0  0  0
  188.3500  176.4090  138.1400 C   0  0  0  0  0  2  0  0  0  0  0  0
  188.5390  176.5980  136.6430 C   0  0  0  0  0  2  0  0  0  0  0  0
  187.4260  176.0120  135.9200 N   0  0  0  0  0  2  0  0  0  0  0  0
  187.6540  174.5770  135.8910 C   0  0  0  0  0  2  0  0  0  0  0  0
  186.3230  173.8340  135.9360 C   0  0  0  0  0  2  0  0  0  0  0  0
  185.5670  174.0510  137.2460 C   0  0  2  0  0  3  0  0  0  0  0  0
  185.6510  172.9190  138.0620 O   0  0  0  0  0  1  0  0  0  0  0  0
  184.0200  175.5950  137.6120 C   0  0  0  0  0  1  0  0  0  0  0  0
  184.2240  174.3590  136.9960 O   0  0  0  0  0  0  0  0  0  0  0  0
  189.6500  178.0100  142.3390 C   0  0  0  0  0  2  0  0  0  0  0  0
  190.3990  176.9100  143.0670 C   0  0  0  0  0  2  0  0  0  0  0  0
  189.3990  177.2270  147.5060 C   0  0  0  0  0  3  0  0  0  0  0  0
  188.7590  177.7230  146.4470 C   0  0  0  0  0  3  0  0  0  0  0  0
  190.2890  177.1140  144.5380 C   0  0  0  0  0  0  0  0  0  0  0  0
  189.0850  177.4320  145.0360 C   0  0  0  0  0  3  0  0  0  0  0  0
  191.6450  176.7320  146.6050 C   0  0  0  0  0  3  0  0  0  0  0  0
  191.5420  177.0860  145.3240 C   0  0  0  0  0  3  0  0  0  0  0  0
  190.4920  176.2170  147.4040 C   0  0  0  0  0  2  0  0  0  0  0  0
  1 12  1  0  0  0  0
  2  8  1  0  0  0  0
  3 16  2  0  0  0  0
  4 26  1  0  0  0  0
  5 10  2  0  0  0  0
  6  2  2  0  0  0  0
  6  5  1  0  0  0  0
  8  3  1  0  0  0  0
  8  1  2  0  0  0  0
  9  4  1  0  0  0  0
 10  1  1  0  0  0  0
 12 11  2  0  0  0  0
 13  7  2  0  0  0  0
 13  2  1  0  0  0  0
 14 17  1  1  0  0  0
 14  7  1  0  0  0  0
 14  9  1  0  0  0  0
 15  7  1  6  0  0  0
 15  4  1  0  0  0  0
 15  3  1  0  0  0  0
 16 11  1  0  0  0  0
 18 17  1  0  0  0  0
 19 18  1  0  0  0  0
 20 19  1  0  0  0  0
 20 21  1  0  0  0  0
 21 22  1  0  0  0  0
 22 23  1  1  0  0  0
 25 22  1  0  0  0  0
 25 24  1  0  0  0  0
 26 27  1  0  0  0  0
 27 30  1  0  0  0  0
 29 28  2  0  0  0  0
 30 31  2  0  0  0  0
 30 33  1  0  0  0  0
 31 29  1  0  0  0  0
 32 34  1  0  0  0  0
 33 32  2  0  0  0  0
 34 28  1  0  0  0  0
M  END
>  <MODEL>
7

>  <REMARK>
 VINA RESULT:      -7.6      2.170      6.821
  Name = 
  10 active torsions:
  status: ('A' for Active; 'I' for Inactive)
    1  A    between atoms: C_3  and  N_13
    2  A    between atoms: C_3  and  C_17
    3  A    between atoms: N_5  and  C_26
    4  A    between atoms: C_12  and  C_28
    5  A    between atoms: N_13  and  C_33
    6  A    between atoms: O_14  and  C_20
    7  A    between atoms: C_17  and  C_29
    8  A    between atoms: C_20  and  C_34
    9  A    between atoms: C_26  and  C_28
   10  A    between atoms: C_33  and  C_34
                            x       y       z     vdW  Elec       q    Type
                         _______ _______ _______ _____ _____    ______ ____

>  <TORSDO>
F 10

$$$$
=
 OpenBabel10252415073D

 34 38  0  0  1  0  0  0  0  0999 V2000
  187.1790  178.2510  147.1690 C   0  0  0  0  0  0  0  0  0  0  0  0
  188.7430  177.0840  145.7040 C   0  0  0  0  0  0  0  0  0  0  0  0
  186.7500  178.1370  144.7790 C   0  0  0  0  0  0  0  0  0  0  0  0
  186.8360  178.3630  142.3030 N   0  0  0  0  0  0  0  0  0  0  0  0
  189.1440  177.1770  148.0930 C   0  0  0  0  0  3  0  0  0  0  0  0
  189.5370  176.7710  146.8120 C   0  0  0  0  0  3  0  0  0  0  0  0
  188.4500  177.0330  143.3420 C   0  0  0  0  0  0  0  0  0  0  0  0
  187.5550  177.8160  145.8850 C   0  0  0  0  0  0  0  0  0  0  0  0
  187.7720  177.8790  141.2770 C   0  0  0  0  0  2  0  0  0  0  0  0
  187.9710  177.9210  148.2710 C   0  0  0  0  0  3  0  0  0  0  0  0
  185.2420  179.3120  146.1970 C   0  0  0  0  0  3  0  0  0  0  0  0
  186.0180  179.0120  147.3230 C   0  0  0  0  0  3  0  0  0  0  0  0
  189.2100  176.8100  144.3740 N   0  0  0  0  0  0  0  0  0  0  0  0
  188.9380  177.1540  141.9540 C   0  0  1  0  0  3  0  0  0  0  0  0
  187.0430  177.4860  143.4480 C   0  0  1  0  0  3  0  0  0  0  0  0
  185.6110  178.8600  144.9660 N   0  0  0  0  0  0  0  0  0  0  0  0
  190.1740  178.0470  141.8730 C   0  0  0  0  0  2  0  0  0  0  0  0
  191.2520  177.3950  141.0210 C   0  0  0  0  0  2  0  0  0  0  0  0
  190.6570  176.4370  140.1070 N   0  0  0  0  0  2  0  0  0  0  0  0
  190.6130  177.0740  138.8020 C   0  0  0  0  0  2  0  0  0  0  0  0
  189.2410  176.8740  138.1670 C   0  0  0  0  0  2  0  0  0  0  0  0
  188.6610  178.1650  137.5890 C   0  0  2  0  0  3  0  0  0  0  0  0
  189.0500  179.2700  138.3520 O   0  0  0  0  0  1  0  0  0  0  0  0
  186.9790  177.7560  136.2060 C   0  0  0  0  0  1  0  0  0  0  0  0
  187.2640  178.0960  137.5300 O   0  0  0  0  0  0  0  0  0  0  0  0
  185.4970  178.1020  141.8040 C   0  0  0  0  0  2  0  0  0  0  0  0
  185.2190  178.9840  140.6000 C   0  0  0  0  0  2  0  0  0  0  0  0
  180.8690  179.2120  139.2480 C   0  0  0  0  0  3  0  0  0  0  0  0
  181.9250  179.9280  138.8600 C   0  0  0  0  0  3  0  0  0  0  0  0
  183.7500  179.1000  140.3900 C   0  0  0  0  0  0  0  0  0  0  0  0
  183.3250  179.6700  139.2520 C   0  0  0  0  0  3  0  0  0  0  0  0
  181.6240  178.2410  141.3900 C   0  0  0  0  0  3  0  0  0  0  0  0
  182.8690  178.7040  141.5100 C   0  0  0  0  0  3  0  0  0  0  0  0
  180.9780  177.9720  140.0710 C   0  0  0  0  0  2  0  0  0  0  0  0
  1 12  1  0  0  0  0
  1 10  2  0  0  0  0
  2  8  2  0  0  0  0
  2  6  1  0  0  0  0
  3 16  2  0  0  0  0
  3  8  1  0  0  0  0
  4 15  1  0  0  0  0
  5 10  1  0  0  0  0
  6  5  2  0  0  0  0
  7 13  2  0  0  0  0
  8  1  1  0  0  0  0
  9 14  1  0  0  0  0
  9  4  1  0  0  0  0
 11 12  2  0  0  0  0
 13  2  1  0  0  0  0
 14 17  1  1  0  0  0
 14  7  1  0  0  0  0
 15  7  1  1  0  0  0
 15  3  1  0  0  0  0
 16 11  1  0  0  0  0
 18 17  1  0  0  0  0
 19 18  1  0  0  0  0
 20 19  1  0  0  0  0
 21 20  1  0  0  0  0
 22 21  1  0  0  0  0
 22 23  1  1  0  0  0
 24 25  1  0  0  0  0
 25 22  1  0  0  0  0
 26  4  1  0  0  0  0
 27 26  1  0  0  0  0
 28 34  1  0  0  0  0
 29 28  2  0  0  0  0
 29 31  1  0  0  0  0
 30 27  1  0  0  0  0
 30 33  1  0  0  0  0
 31 30  2  0  0  0  0
 32 33  2  0  0  0  0
 34 32  1  0  0  0  0
M  END
>  <MODEL>
8

>  <REMARK>
 VINA RESULT:      -7.6      1.640      2.600
  Name = 
  10 active torsions:
  status: ('A' for Active; 'I' for Inactive)
    1  A    between atoms: C_3  and  N_13
    2  A    between atoms: C_3  and  C_17
    3  A    between atoms: N_5  and  C_26
    4  A    between atoms: C_12  and  C_28
    5  A    between atoms: N_13  and  C_33
    6  A    between atoms: O_14  and  C_20
    7  A    between atoms: C_17  and  C_29
    8  A    between atoms: C_20  and  C_34
    9  A    between atoms: C_26  and  C_28
   10  A    between atoms: C_33  and  C_34
                            x       y       z     vdW  Elec       q    Type
                         _______ _______ _______ _____ _____    ______ ____

>  <TORSDO>
F 10

$$$$
=
 OpenBabel10252415073D

 34 38  0  0  1  0  0  0  0  0999 V2000
  184.5270  178.8310  143.5290 C   0  0  0  0  0  0  0  0  0  0  0  0
  186.4440  177.8210  144.6510 C   0  0  0  0  0  0  0  0  0  0  0  0
  186.5060  178.2330  142.2500 C   0  0  0  0  0  0  0  0  0  0  0  0
  188.7970  178.0620  141.2980 N   0  0  0  0  0  0  0  0  0  0  0  0
  184.4530  178.3930  145.9110 C   0  0  0  0  0  3  0  0  0  0  0  0
  185.7550  177.8800  145.8660 C   0  0  0  0  0  3  0  0  0  0  0  0
  188.4580  177.3190  143.4850 C   0  0  0  0  0  0  0  0  0  0  0  0
  185.8230  178.2870  143.4770 C   0  0  0  0  0  0  0  0  0  0  0  0
  190.0920  177.6390  141.8530 C   0  0  0  0  0  2  0  0  0  0  0  0
  183.8420  178.8730  144.7460 C   0  0  0  0  0  3  0  0  0  0  0  0
  184.6540  179.2560  141.1580 C   0  0  0  0  0  3  0  0  0  0  0  0
  183.9430  179.3270  142.3610 C   0  0  0  0  0  3  0  0  0  0  0  0
  187.8290  177.4440  144.6170 N   0  0  0  0  0  0  0  0  0  0  0  0
  189.9270  177.3170  143.3400 C   0  0  1  0  0  3  0  0  0  0  0  0
  187.7970  177.4550  142.1660 C   0  0  1  0  0  3  0  0  0  0  0  0
  185.8990  178.7020  141.1250 N   0  0  0  0  0  0  0  0  0  0  0  0
  190.5690  178.4380  144.1520 C   0  0  0  0  0  2  0  0  0  0  0  0
  191.6820  177.8920  145.0340 C   0  0  0  0  0  2  0  0  0  0  0  0
  191.3100  176.5920  145.5610 N   0  0  0  0  0  2  0  0  0  0  0  0
  191.1560  176.7500  146.9970 C   0  0  0  0  0  2  0  0  0  0  0  0
  189.6820  176.9110  147.3510 C   0  0  0  0  0  2  0  0  0  0  0  0
  189.3800  178.2390  148.0440 C   0  0  2  0  0  3  0  0  0  0  0  0
  190.1070  178.3560  149.2320 O   0  0  0  0  0  1  0  0  0  0  0  0
  187.6380  177.1120  148.8210 C   0  0  0  0  0  1  0  0  0  0  0  0
  188.0110  178.3570  148.3110 O   0  0  0  0  0  0  0  0  0  0  0  0
  188.6730  177.4300  139.9960 C   0  0  0  0  0  2  0  0  0  0  0  0
  189.5660  178.1390  138.9960 C   0  0  0  0  0  2  0  0  0  0  0  0
  191.3230  175.5660  135.6640 C   0  0  0  0  0  3  0  0  0  0  0  0
  190.0900  176.0520  135.8110 C   0  0  0  0  0  3  0  0  0  0  0  0
  190.1890  177.1410  138.0820 C   0  0  0  0  0  0  0  0  0  0  0  0
  189.6640  177.0050  136.8550 C   0  0  0  0  0  3  0  0  0  0  0  0
  192.2520  175.7330  137.9470 C   0  0  0  0  0  3  0  0  0  0  0  0
  191.2530  176.2790  138.6410 C   0  0  0  0  0  3  0  0  0  0  0  0
  192.4820  176.0050  136.4960 C   0  0  0  0  0  2  0  0  0  0  0  0
  1 10  2  0  0  0  0
  2  6  1  0  0  0  0
  3  8  1  0  0  0  0
  4  9  1  0  0  0  0
  4 15  1  0  0  0  0
  6  5  2  0  0  0  0
  7 13  2  0  0  0  0
  8  1  1  0  0  0  0
  8  2  2  0  0  0  0
  9 14  1  0  0  0  0
 10  5  1  0  0  0  0
 11 12  2  0  0  0  0
 12  1  1  0  0  0  0
 13  2  1  0  0  0  0
 14  7  1  0  0  0  0
 14 17  1  1  0  0  0
 15  3  1  1  0  0  0
 15  7  1  0  0  0  0
 16 11  1  0  0  0  0
 16  3  2  0  0  0  0
 17 18  1  0  0  0  0
 18 19  1  0  0  0  0
 19 20  1  0  0  0  0
 20 21  1  0  0  0  0
 21 22  1  0  0  0  0
 22 25  1  0  0  0  0
 22 23  1  1  0  0  0
 25 24  1  0  0  0  0
 26  4  1  0  0  0  0
 27 26  1  0  0  0  0
 28 29  2  0  0  0  0
 28 34  1  0  0  0  0
 29 31  1  0  0  0  0
 30 33  1  0  0  0  0
 30 27  1  0  0  0  0
 31 30  2  0  0  0  0
 32 33  2  0  0  0  0
 34 32  1  0  0  0  0
M  END
>  <MODEL>
9

>  <REMARK>
 VINA RESULT:      -7.6      3.196      8.088
  Name = 
  10 active torsions:
  status: ('A' for Active; 'I' for Inactive)
    1  A    between atoms: C_3  and  N_13
    2  A    between atoms: C_3  and  C_17
    3  A    between atoms: N_5  and  C_26
    4  A    between atoms: C_12  and  C_28
    5  A    between atoms: N_13  and  C_33
    6  A    between atoms: O_14  and  C_20
    7  A    between atoms: C_17  and  C_29
    8  A    between atoms: C_20  and  C_34
    9  A    between atoms: C_26  and  C_28
   10  A    between atoms: C_33  and  C_34
                            x       y       z     vdW  Elec       q    Type
                         _______ _______ _______ _____ _____    ______ ____

>  <TORSDO>
F 10

$$$$
