=
 OpenBabel10262420173D

 55 62  0  0  1  0  0  0  0  0999 V2000
  190.2110  174.3410  137.2230 O   0  0  0  0  0  0  0  0  0  0  0  0
  186.1150  178.7580  136.4990 C   0  0  0  0  0  2  0  0  0  0  0  0
  188.2200  179.0070  139.1230 O   0  0  0  0  0  0  0  0  0  0  0  0
  189.5770  177.5380  141.4370 C   0  0  0  0  0  3  0  0  0  0  0  0
  190.0270  177.9710  142.7720 C   0  0  0  0  0  3  0  0  0  0  0  0
  191.9040  177.3370  140.7450 C   0  0  0  0  0  0  0  0  0  0  0  0
  192.4130  177.9220  142.0350 C   0  0  0  0  0  3  0  0  0  0  0  0
  188.6090  176.6630  138.8400 C   0  0  0  0  0  2  0  0  0  0  0  0
  191.3240  178.1310  143.0540 C   0  0  0  0  0  3  0  0  0  0  0  0
  188.6060  172.5300  137.1570 C   0  0  0  0  0  3  0  0  0  0  0  0
  190.4550  177.2460  140.4710 C   0  0  1  0  0  3  0  0  0  0  0  0
  186.9640  174.0110  135.4440 C   0  0  0  0  0  0  0  0  0  0  0  0
  190.6030  175.6820  136.9500 C   0  0  0  0  0  2  0  0  0  0  0  0
  188.1820  174.5420  135.8860 C   0  0  0  0  0  3  0  0  0  0  0  0
  192.3500  176.4180  138.5580 C   0  0  0  0  0  0  0  0  0  0  0  0
  186.4500  177.4730  136.1220 C   0  0  1  0  0  3  0  0  0  0  0  0
  192.7500  176.9520  139.8390 N   0  0  0  0  0  0  0  0  0  0  0  0
  187.1360  178.0460  137.3160 N   0  0  0  0  0  0  0  0  0  0  0  0
  188.0220  177.9760  138.4300 C   0  0  0  0  0  0  0  0  0  0  0  0
  187.3880  171.9940  136.7140 C   0  0  0  0  0  3  0  0  0  0  0  0
  185.4980  176.3540  136.5840 C   0  0  2  0  0  3  0  0  0  0  0  0
  189.0090  173.8090  136.7450 C   0  0  0  0  0  0  0  0  0  0  0  0
  190.0330  176.7850  139.1710 N   0  0  0  0  0  0  0  0  0  0  0  0
  191.0370  176.3470  138.2260 C   0  0  0  0  0  0  0  0  0  0  0  0
  184.9650  175.5120  135.4150 C   0  0  0  0  0  2  0  0  0  0  0  0
  186.0710  174.8520  134.5940 C   0  0  0  0  0  2  0  0  0  0  0  0
  186.5630  172.7350  135.8630 C   0  0  0  0  0  3  0  0  0  0  0  0
  193.7920  176.6950  136.5280 C   0  0  0  0  0  3  0  0  0  0  0  0
  195.4890  175.0480  135.9790 C   0  0  0  0  0  0  0  0  0  0  0  0
  194.0970  174.7580  137.9500 C   0  0  0  0  0  3  0  0  0  0  0  0
  195.1230  174.3030  137.1130 C   0  0  0  0  0  3  0  0  0  0  0  0
  194.8210  176.2450  135.6930 C   0  0  0  0  0  3  0  0  0  0  0  0
  193.4150  175.9450  137.6520 C   0  0  0  0  0  0  0  0  0  0  0  0
  196.5550  174.5600  135.0450 C   0  0  0  0  0  3  0  0  0  0  0  0
  197.1660  173.2490  135.5410 C   0  0  0  0  0  1  0  0  0  0  0  0
  197.6460  175.6150  134.8400 C   0  0  0  0  0  1  0  0  0  0  0  0
  184.3940  176.7220  137.5860 C   0  0  0  0  0  2  0  0  0  0  0  0
  182.9870  176.3800  137.0860 C   0  0  0  0  0  2  0  0  0  0  0  0
  181.6110  179.2820  136.6640 F   0  0  0  0  0  0  0  0  0  0  0  0
  180.7050  177.2720  137.5280 C   0  0  1  0  0  3  0  0  0  0  0  0
  181.5680  175.3540  138.7280 O   0  0  0  0  0  1  0  0  0  0  0  0
  181.8090  178.8940  138.9910 C   0  0  1  0  0  3  0  0  0  0  0  0
  180.9220  178.7730  137.7490 C   0  0  1  0  0  0  0  0  0  0  0  0
  181.9190  176.5880  138.1640 C   0  0  1  0  0  0  0  0  0  0  0  0
  179.7770  180.8750  138.6550 C   0  0  1  0  0  3  0  0  0  0  0  0
  181.0500  179.4170  140.2190 C   0  0  1  0  0  3  0  0  0  0  0  0
  179.6020  179.5440  137.8890 C   0  0  0  0  0  2  0  0  0  0  0  0
  182.4180  177.5250  139.2590 C   0  0  0  0  0  2  0  0  0  0  0  0
  179.5170  176.8260  138.1390 O   0  0  0  0  0  1  0  0  0  0  0  0
  180.4740  180.7440  139.9530 N   0  0  0  0  0  2  0  0  0  0  0  0
  180.4640  181.9370  137.7950 C   0  0  0  0  0  2  0  0  0  0  0  0
  181.7460  182.1940  138.2750 O   0  0  0  0  0  1  0  0  0  0  0  0
  180.0440  178.5220  140.6200 O   0  0  0  0  0  0  0  0  0  0  0  0
  179.7600  178.8740  141.9400 C   0  0  0  0  0  2  0  0  0  0  0  0
  179.5450  177.7000  142.6760 O   0  0  0  0  0  1  0  0  0  0  0  0
  2 18  1  0  0  0  0
  4  5  2  0  0  0  0
  5  9  1  0  0  0  0
  6  7  1  0  0  0  0
  7  9  2  0  0  0  0
  8 23  1  0  0  0  0
 11  6  1  0  0  0  0
 11  4  1  1  0  0  0
 12 27  2  0  0  0  0
 12 14  1  0  0  0  0
 13  1  1  0  0  0  0
 13 24  1  0  0  0  0
 14 22  2  0  0  0  0
 15 17  1  0  0  0  0
 16  2  1  1  0  0  0
 16 21  1  0  0  0  0
 16 18  1  0  0  0  0
 17  6  2  0  0  0  0
 18 19  1  0  0  0  0
 19  8  1  0  0  0  0
 19  3  2  0  0  0  0
 20 10  2  0  0  0  0
 21 37  1  6  0  0  0
 22 10  1  0  0  0  0
 22  1  1  0  0  0  0
 23 11  1  0  0  0  0
 24 15  2  0  0  0  0
 24 23  1  0  0  0  0
 25 21  1  0  0  0  0
 26 25  1  0  0  0  0
 26 12  1  0  0  0  0
 27 20  1  0  0  0  0
 28 33  1  0  0  0  0
 29 31  2  0  0  0  0
 31 30  1  0  0  0  0
 32 29  1  0  0  0  0
 32 28  2  0  0  0  0
 33 30  2  0  0  0  0
 33 15  1  0  0  0  0
 34 35  1  0  0  0  0
 34 29  1  0  0  0  0
 36 34  1  0  0  0  0
 38 37  1  0  0  0  0
 38 44  1  0  0  0  0
 40 43  1  0  0  0  0
 40 49  1  1  0  0  0
 40 44  1  0  0  0  0
 42 48  1  1  0  0  0
 42 46  1  0  0  0  0
 43 39  1  6  0  0  0
 43 47  1  0  0  0  0
 43 42  1  0  0  0  0
 44 41  1  1  0  0  0
 44 48  1  0  0  0  0
 45 51  1  6  0  0  0
 45 50  1  0  0  0  0
 46 53  1  6  0  0  0
 47 45  1  0  0  0  0
 50 46  1  0  0  0  0
 51 52  1  0  0  0  0
 53 54  1  0  0  0  0
 54 55  1  0  0  0  0
M  END
>  <MODEL>
1

>  <REMARK>
 VINA RESULT:      -7.0      0.000      0.000
  Name = 
  8 active torsions:
  status: ('A' for Active; 'I' for Inactive)
    1  A    between atoms: C_1  and  O_53
    2  A    between atoms: C_8  and  C_22
    3  A    between atoms: C_8  and  C_43
    4  A    between atoms: C_10  and  C_32
    5  A    between atoms: C_11  and  CA_29
    6  A    between atoms: C_20  and  C_22
    7  A    between atoms: C_30  and  O_53
    8  A    between atoms: C_33  and  C_52
                            x       y       z     vdW  Elec       q    Type
                         _______ _______ _______ _____ _____    ______ ____

>  <TORSDO>
F 8

$$$$
=
 OpenBabel10262420173D

 55 62  0  0  1  0  0  0  0  0999 V2000
  185.0070  177.9030  138.2780 O   0  0  0  0  0  0  0  0  0  0  0  0
  189.0800  175.3250  134.5960 C   0  0  0  0  0  2  0  0  0  0  0  0
  186.1940  173.6610  135.1260 O   0  0  0  0  0  0  0  0  0  0  0  0
  184.1240  172.7620  137.1900 C   0  0  0  0  0  3  0  0  0  0  0  0
  183.2360  171.5890  137.2740 C   0  0  0  0  0  3  0  0  0  0  0  0
  182.1830  174.1680  136.7520 C   0  0  0  0  0  0  0  0  0  0  0  0
  181.2550  172.9860  136.6720 C   0  0  0  0  0  2  0  0  0  0  0  0
  185.9370  175.0310  137.0700 C   0  0  0  0  0  2  0  0  0  0  0  0
  181.9210  171.6910  137.0540 C   0  0  0  0  0  3  0  0  0  0  0  0
  186.5420  178.2320  140.1210 C   0  0  0  0  0  3  0  0  0  0  0  0
  183.6370  173.9830  136.9350 C   0  0  0  0  0  0  0  0  0  0  0  0
  188.6700  178.5260  138.3290 C   0  0  0  0  0  0  0  0  0  0  0  0
  184.7280  177.6800  136.9000 C   0  0  0  0  0  2  0  0  0  0  0  0
  187.3720  178.3080  137.8520 C   0  0  0  0  0  3  0  0  0  0  0  0
  182.5280  176.5540  136.6310 C   0  0  0  0  0  0  0  0  0  0  0  0
  188.9020  176.3010  135.5540 C   0  0  1  0  0  3  0  0  0  0  0  0
  181.7060  175.3670  136.6090 N   0  0  0  0  0  0  0  0  0  0  0  0
  187.8420  175.2610  135.4200 N   0  0  0  0  0  0  0  0  0  0  0  0
  186.6250  174.6280  135.8040 C   0  0  0  0  0  0  0  0  0  0  0  0
  187.8400  178.4530  140.6030 C   0  0  0  0  0  3  0  0  0  0  0  0
  189.6390  176.0920  136.8900 C   0  0  2  0  0  3  0  0  0  0  0  0
  186.3020  178.1570  138.7410 C   0  0  0  0  0  0  0  0  0  0  0  0
  184.4860  175.1470  136.8870 N   0  0  0  0  0  0  0  0  0  0  0  0
  183.8750  176.4510  136.7530 C   0  0  0  0  0  0  0  0  0  0  0  0
  190.5490  177.2750  137.2550 C   0  0  0  0  0  2  0  0  0  0  0  0
  189.8000  178.6020  137.3570 C   0  0  0  0  0  2  0  0  0  0  0  0
  188.9060  178.5940  139.7100 C   0  0  0  0  0  3  0  0  0  0  0  0
  181.5430  178.6000  137.6880 C   0  0  0  0  0  3  0  0  0  0  0  0
  180.6020  180.3710  136.3210 C   0  0  0  0  0  0  0  0  0  0  0  0
  181.5470  178.3920  135.2750 C   0  0  0  0  0  3  0  0  0  0  0  0
  180.9180  179.6370  135.1640 C   0  0  0  0  0  3  0  0  0  0  0  0
  180.9180  179.8480  137.5800 C   0  0  0  0  0  3  0  0  0  0  0  0
  181.8460  177.8600  136.5360 C   0  0  0  0  0  0  0  0  0  0  0  0
  179.8890  181.6870  136.2290 C   0  0  0  0  0  3  0  0  0  0  0  0
  179.8960  182.2220  134.7970 C   0  0  0  0  0  1  0  0  0  0  0  0
  180.4910  182.7180  137.1880 C   0  0  0  0  0  1  0  0  0  0  0  0
  190.3250  174.7380  137.1240 C   0  0  0  0  0  2  0  0  0  0  0  0
  191.7530  174.8700  137.6610 C   0  0  0  0  0  2  0  0  0  0  0  0
  194.5720  174.6000  139.2360 F   0  0  0  0  0  0  0  0  0  0  0  0
  193.6380  173.2490  137.5300 C   0  0  1  0  0  3  0  0  0  0  0  0
  192.1400  173.6010  135.6600 O   0  0  0  0  0  1  0  0  0  0  0  0
  195.0380  175.1830  136.9890 C   0  0  1  0  0  3  0  0  0  0  0  0
  194.8580  174.0480  138.0010 C   0  0  1  0  0  0  0  0  0  0  0  0
  192.7890  174.2380  136.7260 C   0  0  1  0  0  0  0  0  0  0  0  0
  197.4170  174.0050  138.0460 C   0  0  1  0  0  3  0  0  0  0  0  0
  196.2540  174.9810  136.0740 C   0  0  1  0  0  3  0  0  0  0  0  0
  196.1150  173.1770  138.1400 C   0  0  0  0  0  2  0  0  0  0  0  0
  193.7510  175.2900  136.1820 C   0  0  0  0  0  2  0  0  0  0  0  0
  194.0160  172.1590  136.7200 O   0  0  0  0  0  1  0  0  0  0  0  0
  197.4920  174.8880  136.8620 N   0  0  0  0  0  2  0  0  0  0  0  0
  197.6690  174.8110  139.3210 C   0  0  0  0  0  2  0  0  0  0  0  0
  198.5410  175.8660  139.0630 O   0  0  0  0  0  1  0  0  0  0  0  0
  196.1060  173.8410  135.2670 O   0  0  0  0  0  0  0  0  0  0  0  0
  197.4020  173.5250  134.8570 C   0  0  0  0  0  2  0  0  0  0  0  0
  197.4650  172.1450  134.6110 O   0  0  0  0  0  1  0  0  0  0  0  0
  1 22  1  0  0  0  0
  2 18  1  0  0  0  0
  3 19  2  0  0  0  0
  4  5  1  0  0  0  0
  6 11  1  0  0  0  0
  7  6  1  0  0  0  0
  7  9  1  0  0  0  0
  9  5  2  0  0  0  0
 10 20  1  0  0  0  0
 11  4  2  0  0  0  0
 12 27  1  0  0  0  0
 13  1  1  0  0  0  0
 14 12  2  0  0  0  0
 14 22  1  0  0  0  0
 15 24  2  0  0  0  0
 16  2  1  6  0  0  0
 16 21  1  0  0  0  0
 17 15  1  0  0  0  0
 17  6  2  0  0  0  0
 18 16  1  0  0  0  0
 18 19  1  0  0  0  0
 19  8  1  0  0  0  0
 21 37  1  6  0  0  0
 21 25  1  0  0  0  0
 22 10  2  0  0  0  0
 23 11  1  0  0  0  0
 23  8  1  0  0  0  0
 24 23  1  0  0  0  0
 24 13  1  0  0  0  0
 25 26  1  0  0  0  0
 26 12  1  0  0  0  0
 27 20  2  0  0  0  0
 29 32  2  0  0  0  0
 30 33  1  0  0  0  0
 31 30  2  0  0  0  0
 31 29  1  0  0  0  0
 32 28  1  0  0  0  0
 33 15  1  0  0  0  0
 33 28  2  0  0  0  0
 34 29  1  0  0  0  0
 34 36  1  0  0  0  0
 35 34  1  0  0  0  0
 37 38  1  0  0  0  0
 40 49  1  6  0  0  0
 40 43  1  0  0  0  0
 42 48  1  6  0  0  0
 42 43  1  0  0  0  0
 43 47  1  0  0  0  0
 43 39  1  1  0  0  0
 44 41  1  6  0  0  0
 44 40  1  0  0  0  0
 44 38  1  0  0  0  0
 45 47  1  0  0  0  0
 45 51  1  1  0  0  0
 46 53  1  1  0  0  0
 46 50  1  0  0  0  0
 46 42  1  0  0  0  0
 48 44  1  0  0  0  0
 50 45  1  0  0  0  0
 52 51  1  0  0  0  0
 54 53  1  0  0  0  0
 55 54  1  0  0  0  0
M  END
>  <MODEL>
2

>  <REMARK>
 VINA RESULT:      -6.7      3.606     12.360
  Name = 
  8 active torsions:
  status: ('A' for Active; 'I' for Inactive)
    1  A    between atoms: C_1  and  O_53
    2  A    between atoms: C_8  and  C_22
    3  A    between atoms: C_8  and  C_43
    4  A    between atoms: C_10  and  C_32
    5  A    between atoms: C_11  and  CA_29
    6  A    between atoms: C_20  and  C_22
    7  A    between atoms: C_30  and  O_53
    8  A    between atoms: C_33  and  C_52
                            x       y       z     vdW  Elec       q    Type
                         _______ _______ _______ _____ _____    ______ ____

>  <TORSDO>
F 8

$$$$
=
 OpenBabel10262420173D

 55 62  0  0  1  0  0  0  0  0999 V2000
  189.9730  174.0500  137.4530 O   0  0  0  0  0  0  0  0  0  0  0  0
  185.9270  178.3790  136.1530 C   0  0  0  0  0  2  0  0  0  0  0  0
  187.9040  178.8590  138.8430 O   0  0  0  0  0  0  0  0  0  0  0  0
  189.1450  177.6000  141.3390 C   0  0  0  0  0  3  0  0  0  0  0  0
  189.5330  178.1480  142.6510 C   0  0  0  0  0  3  0  0  0  0  0  0
  191.5030  177.3430  140.7790 C   0  0  0  0  0  0  0  0  0  0  0  0
  191.9510  178.0400  142.0360 C   0  0  0  0  0  3  0  0  0  0  0  0
  188.3010  176.5000  138.7840 C   0  0  0  0  0  2  0  0  0  0  0  0
  190.8150  178.3340  142.9800 C   0  0  0  0  0  3  0  0  0  0  0  0
  188.3690  172.2370  137.4680 C   0  0  0  0  0  3  0  0  0  0  0  0
  190.0680  177.2260  140.4440 C   0  0  1  0  0  3  0  0  0  0  0  0
  186.8150  173.5610  135.5560 C   0  0  0  0  0  0  0  0  0  0  0  0
  190.3810  175.3630  137.0840 C   0  0  0  0  0  2  0  0  0  0  0  0
  188.0110  174.1300  136.0080 C   0  0  0  0  0  3  0  0  0  0  0  0
  192.0510  176.2390  138.7030 C   0  0  0  0  0  0  0  0  0  0  0  0
  186.2770  177.0680  135.9060 C   0  0  1  0  0  3  0  0  0  0  0  0
  192.3900  176.8830  139.9510 N   0  0  0  0  0  0  0  0  0  0  0  0
  186.9060  177.7430  137.0770 N   0  0  0  0  0  0  0  0  0  0  0  0
  187.7370  177.7720  138.2340 C   0  0  0  0  0  0  0  0  0  0  0  0
  187.1730  171.6620  137.0160 C   0  0  0  0  0  3  0  0  0  0  0  0
  185.3010  175.9900  136.4170 C   0  0  2  0  0  3  0  0  0  0  0  0
  188.7940  173.4760  136.9660 C   0  0  0  0  0  0  0  0  0  0  0  0
  189.7090  176.6530  139.1710 N   0  0  0  0  0  0  0  0  0  0  0  0
  190.7550  176.1360  138.3170 C   0  0  0  0  0  0  0  0  0  0  0  0
  184.8230  175.0490  135.3010 C   0  0  0  0  0  2  0  0  0  0  0  0
  185.9650  174.3230  134.5940 C   0  0  0  0  0  2  0  0  0  0  0  0
  186.3910  172.3250  136.0650 C   0  0  0  0  0  3  0  0  0  0  0  0
  193.6370  176.3790  136.7700 C   0  0  0  0  0  3  0  0  0  0  0  0
  195.3050  174.6530  136.4080 C   0  0  0  0  0  0  0  0  0  0  0  0
  193.7720  174.4950  138.2870 C   0  0  0  0  0  3  0  0  0  0  0  0
  194.8350  173.9690  137.5430 C   0  0  0  0  0  3  0  0  0  0  0  0
  194.7040  175.8580  136.0280 C   0  0  0  0  0  3  0  0  0  0  0  0
  193.1570  175.6910  137.8940 C   0  0  0  0  0  0  0  0  0  0  0  0
  196.4140  174.0880  135.5720 C   0  0  0  0  0  3  0  0  0  0  0  0
  196.6740  172.6210  135.9150 C   0  0  0  0  0  1  0  0  0  0  0  0
  197.6990  174.9070  135.7170 C   0  0  0  0  0  1  0  0  0  0  0  0
  184.1510  176.4430  137.3290 C   0  0  0  0  0  2  0  0  0  0  0  0
  184.6050  176.7630  138.7570 C   0  0  0  0  0  2  0  0  0  0  0  0
  185.9390  177.5590  141.6000 F   0  0  0  0  0  0  0  0  0  0  0  0
  184.7810  178.8970  140.0260 C   0  0  1  0  0  3  0  0  0  0  0  0
  183.0270  178.5360  138.3960 O   0  0  0  0  0  1  0  0  0  0  0  0
  183.5880  177.7310  141.8170 C   0  0  1  0  0  3  0  0  0  0  0  0
  184.8950  178.4590  141.4900 C   0  0  1  0  0  0  0  0  0  0  0  0
  183.8050  177.9100  139.3800 C   0  0  1  0  0  0  0  0  0  0  0  0
  184.7270  179.3360  143.8890 C   0  0  1  0  0  3  0  0  0  0  0  0
  182.6670  178.5420  142.7400 C   0  0  1  0  0  3  0  0  0  0  0  0
  185.1680  179.6350  142.4380 C   0  0  0  0  0  2  0  0  0  0  0  0
  182.8990  177.4040  140.4990 C   0  0  0  0  0  2  0  0  0  0  0  0
  184.2890  180.2130  139.9180 O   0  0  0  0  0  1  0  0  0  0  0  0
  183.3380  178.8450  144.0140 N   0  0  0  0  0  2  0  0  0  0  0  0
  185.6900  178.3730  144.5860 C   0  0  0  0  0  2  0  0  0  0  0  0
  186.0390  178.8630  145.8420 O   0  0  0  0  0  1  0  0  0  0  0  0
  182.2380  179.7290  142.1230 O   0  0  0  0  0  0  0  0  0  0  0  0
  180.8550  179.5870  142.0030 C   0  0  0  0  0  2  0  0  0  0  0  0
  180.2730  179.8380  143.2540 O   0  0  0  0  0  1  0  0  0  0  0  0
  2 18  1  0  0  0  0
  4  5  2  0  0  0  0
  5  9  1  0  0  0  0
  6  7  1  0  0  0  0
  7  9  2  0  0  0  0
  8 23  1  0  0  0  0
 11  6  1  0  0  0  0
 11  4  1  1  0  0  0
 12 14  2  0  0  0  0
 12 27  1  0  0  0  0
 13  1  1  0  0  0  0
 13 24  1  0  0  0  0
 14 22  1  0  0  0  0
 15 17  1  0  0  0  0
 16  2  1  1  0  0  0
 16 21  1  0  0  0  0
 16 18  1  0  0  0  0
 17  6  2  0  0  0  0
 18 19  1  0  0  0  0
 19  8  1  0  0  0  0
 19  3  2  0  0  0  0
 20 10  1  0  0  0  0
 21 37  1  6  0  0  0
 22  1  1  0  0  0  0
 22 10  2  0  0  0  0
 23 11  1  0  0  0  0
 24 15  2  0  0  0  0
 24 23  1  0  0  0  0
 25 21  1  0  0  0  0
 26 25  1  0  0  0  0
 26 12  1  0  0  0  0
 27 20  2  0  0  0  0
 28 33  1  0  0  0  0
 29 31  2  0  0  0  0
 31 30  1  0  0  0  0
 32 29  1  0  0  0  0
 32 28  2  0  0  0  0
 33 30  2  0  0  0  0
 33 15  1  0  0  0  0
 34 36  1  0  0  0  0
 34 35  1  0  0  0  0
 34 29  1  0  0  0  0
 37 38  1  0  0  0  0
 38 44  1  0  0  0  0
 40 49  1  1  0  0  0
 40 43  1  0  0  0  0
 42 48  1  6  0  0  0
 42 46  1  0  0  0  0
 43 39  1  1  0  0  0
 43 42  1  0  0  0  0
 43 47  1  0  0  0  0
 44 41  1  6  0  0  0
 44 40  1  0  0  0  0
 44 48  1  0  0  0  0
 45 50  1  0  0  0  0
 45 51  1  6  0  0  0
 46 53  1  6  0  0  0
 46 50  1  0  0  0  0
 47 45  1  0  0  0  0
 51 52  1  0  0  0  0
 54 53  1  0  0  0  0
 54 55  1  0  0  0  0
M  END
>  <MODEL>
3

>  <REMARK>
 VINA RESULT:      -5.9      2.293      3.076
  Name = 
  8 active torsions:
  status: ('A' for Active; 'I' for Inactive)
    1  A    between atoms: C_1  and  O_53
    2  A    between atoms: C_8  and  C_22
    3  A    between atoms: C_8  and  C_43
    4  A    between atoms: C_10  and  C_32
    5  A    between atoms: C_11  and  CA_29
    6  A    between atoms: C_20  and  C_22
    7  A    between atoms: C_30  and  O_53
    8  A    between atoms: C_33  and  C_52
                            x       y       z     vdW  Elec       q    Type
                         _______ _______ _______ _____ _____    ______ ____

>  <TORSDO>
F 8

$$$$
=
 OpenBabel10262420173D

 55 62  0  0  1  0  0  0  0  0999 V2000
  184.5530  178.7320  139.2290 O   0  0  0  0  0  0  0  0  0  0  0  0
  188.5060  176.3450  135.2950 C   0  0  0  0  0  2  0  0  0  0  0  0
  185.3650  175.1160  135.2790 O   0  0  0  0  0  0  0  0  0  0  0  0
  183.0040  174.1610  136.9720 C   0  0  0  0  0  3  0  0  0  0  0  0
  181.9440  173.1630  136.7420 C   0  0  0  0  0  3  0  0  0  0  0  0
  181.3460  175.9330  136.7530 C   0  0  0  0  0  0  0  0  0  0  0  0
  180.2610  174.9670  136.3580 C   0  0  0  0  0  2  0  0  0  0  0  0
  185.1430  176.0660  137.4630 C   0  0  0  0  0  2  0  0  0  0  0  0
  180.6860  173.5280  136.4780 C   0  0  0  0  0  3  0  0  0  0  0  0
  185.9460  178.4010  141.1810 C   0  0  0  0  0  3  0  0  0  0  0  0
  182.7330  175.4720  136.9690 C   0  0  0  0  0  0  0  0  0  0  0  0
  188.2480  178.7060  139.6220 C   0  0  0  0  0  0  0  0  0  0  0  0
  184.3700  178.8560  137.8230 C   0  0  0  0  0  2  0  0  0  0  0  0
  186.9810  178.8150  139.0360 C   0  0  0  0  0  3  0  0  0  0  0  0
  182.0590  178.1980  137.1880 C   0  0  0  0  0  0  0  0  0  0  0  0
  188.3920  177.1120  136.4360 C   0  0  1  0  0  3  0  0  0  0  0  0
  181.0710  177.1970  136.8550 N   0  0  0  0  0  0  0  0  0  0  0  0
  187.2030  176.3170  136.0150 N   0  0  0  0  0  0  0  0  0  0  0  0
  185.8740  175.8310  136.1790 C   0  0  0  0  0  0  0  0  0  0  0  0
  187.2130  178.2930  141.7720 C   0  0  0  0  0  3  0  0  0  0  0  0
  188.9640  176.5050  137.7310 C   0  0  2  0  0  3  0  0  0  0  0  0
  185.8240  178.6610  139.8080 C   0  0  0  0  0  0  0  0  0  0  0  0
  183.7490  176.4610  137.2300 N   0  0  0  0  0  0  0  0  0  0  0  0
  183.3580  177.8470  137.3580 C   0  0  0  0  0  0  0  0  0  0  0  0
  190.0050  177.4140  138.4010 C   0  0  0  0  0  2  0  0  0  0  0  0
  189.4600  178.7950  138.7550 C   0  0  0  0  0  2  0  0  0  0  0  0
  188.3650  178.4400  140.9930 C   0  0  0  0  0  3  0  0  0  0  0  0
  181.4970  180.1740  138.6210 C   0  0  0  0  0  3  0  0  0  0  0  0
  180.7640  182.2610  137.6220 C   0  0  0  0  0  0  0  0  0  0  0  0
  181.2980  180.3540  136.2130 C   0  0  0  0  0  3  0  0  0  0  0  0
  180.8740  181.6820  136.3460 C   0  0  0  0  0  3  0  0  0  0  0  0
  181.0780  181.5030  138.7560 C   0  0  0  0  0  3  0  0  0  0  0  0
  181.5940  179.5900  137.3500 C   0  0  0  0  0  0  0  0  0  0  0  0
  180.2710  183.6670  137.7920 C   0  0  0  0  0  3  0  0  0  0  0  0
  179.0950  183.7270  138.7670 C   0  0  0  0  0  1  0  0  0  0  0  0
  179.8830  184.2910  136.4480 C   0  0  0  0  0  1  0  0  0  0  0  0
  189.4120  175.0360  137.6930 C   0  0  0  0  0  2  0  0  0  0  0  0
  190.8880  174.8470  138.0560 C   0  0  0  0  0  2  0  0  0  0  0  0
  193.8240  173.6790  138.7710 F   0  0  0  0  0  0  0  0  0  0  0  0
  192.7010  173.8210  136.6920 C   0  0  1  0  0  3  0  0  0  0  0  0
  191.0550  175.2990  135.7050 O   0  0  0  0  0  1  0  0  0  0  0  0
  194.1090  175.6540  137.4980 C   0  0  1  0  0  3  0  0  0  0  0  0
  193.9820  174.1280  137.4730 C   0  0  1  0  0  0  0  0  0  0  0  0
  191.8160  175.0610  136.8570 C   0  0  1  0  0  0  0  0  0  0  0  0
  196.5320  174.1590  137.2540 C   0  0  1  0  0  3  0  0  0  0  0  0
  195.2330  176.1740  136.5900 C   0  0  1  0  0  3  0  0  0  0  0  0
  195.2170  173.4430  136.8710 C   0  0  0  0  0  2  0  0  0  0  0  0
  192.7610  176.2360  137.0960 C   0  0  0  0  0  2  0  0  0  0  0  0
  192.9700  173.5920  135.3280 O   0  0  0  0  0  1  0  0  0  0  0  0
  196.5320  175.6140  136.9920 N   0  0  0  0  0  2  0  0  0  0  0  0
  196.9220  173.8870  138.7080 C   0  0  0  0  0  2  0  0  0  0  0  0
  196.7710  175.0410  139.4740 O   0  0  0  0  0  1  0  0  0  0  0  0
  194.9770  175.8870  135.2390 O   0  0  0  0  0  0  0  0  0  0  0  0
  195.0470  177.1220  134.5940 C   0  0  0  0  0  2  0  0  0  0  0  0
  195.3550  178.1040  135.5470 O   0  0  0  0  0  1  0  0  0  0  0  0
  1 22  1  0  0  0  0
  2 18  1  0  0  0  0
  3 19  2  0  0  0  0
  5  4  1  0  0  0  0
  6 17  2  0  0  0  0
  6 11  1  0  0  0  0
  7  9  1  0  0  0  0
  7  6  1  0  0  0  0
  9  5  2  0  0  0  0
 10 20  1  0  0  0  0
 11  4  2  0  0  0  0
 11 23  1  0  0  0  0
 12 27  1  0  0  0  0
 13  1  1  0  0  0  0
 14 12  2  0  0  0  0
 14 22  1  0  0  0  0
 15 33  1  0  0  0  0
 15 24  2  0  0  0  0
 16  2  1  6  0  0  0
 16 21  1  0  0  0  0
 17 15  1  0  0  0  0
 18 19  1  0  0  0  0
 18 16  1  0  0  0  0
 19  8  1  0  0  0  0
 21 37  1  6  0  0  0
 21 25  1  0  0  0  0
 22 10  2  0  0  0  0
 23 24  1  0  0  0  0
 23  8  1  0  0  0  0
 24 13  1  0  0  0  0
 25 26  1  0  0  0  0
 26 12  1  0  0  0  0
 27 20  2  0  0  0  0
 28 32  1  0  0  0  0
 29 34  1  0  0  0  0
 29 32  2  0  0  0  0
 30 31  2  0  0  0  0
 30 33  1  0  0  0  0
 31 29  1  0  0  0  0
 33 28  2  0  0  0  0
 34 35  1  0  0  0  0
 36 34  1  0  0  0  0
 37 38  1  0  0  0  0
 40 49  1  6  0  0  0
 40 44  1  0  0  0  0
 40 43  1  0  0  0  0
 42 48  1  6  0  0  0
 43 42  1  0  0  0  0
 43 39  1  1  0  0  0
 44 41  1  6  0  0  0
 44 48  1  0  0  0  0
 44 38  1  0  0  0  0
 45 51  1  1  0  0  0
 46 53  1  6  0  0  0
 46 50  1  0  0  0  0
 46 42  1  0  0  0  0
 47 45  1  0  0  0  0
 47 43  1  0  0  0  0
 50 45  1  0  0  0  0
 51 52  1  0  0  0  0
 54 53  1  0  0  0  0
 54 55  1  0  0  0  0
M  END
>  <MODEL>
4

>  <REMARK>
 VINA RESULT:      -4.4      3.272     12.127
  Name = 
  8 active torsions:
  status: ('A' for Active; 'I' for Inactive)
    1  A    between atoms: C_1  and  O_53
    2  A    between atoms: C_8  and  C_22
    3  A    between atoms: C_8  and  C_43
    4  A    between atoms: C_10  and  C_32
    5  A    between atoms: C_11  and  CA_29
    6  A    between atoms: C_20  and  C_22
    7  A    between atoms: C_30  and  O_53
    8  A    between atoms: C_33  and  C_52
                            x       y       z     vdW  Elec       q    Type
                         _______ _______ _______ _____ _____    ______ ____

>  <TORSDO>
F 8

$$$$
