=
 OpenBabel10262421193D

 32 34  0  0  1  0  0  0  0  0999 V2000
  184.9810  178.4710  145.4340 C   0  0  0  0  0  0  0  0  0  0  0  0
  184.3760  178.8860  146.6120 O   0  0  0  0  0  1  0  0  0  0  0  0
  186.4410  178.0050  143.0330 C   0  0  0  0  0  2  0  0  0  0  0  0
  186.3200  177.7840  145.5080 C   0  0  0  0  0  2  0  0  0  0  0  0
  184.9480  178.3100  142.9410 C   0  0  1  0  0  3  0  0  0  0  0  0
  184.3920  178.7540  144.2660 C   0  0  0  0  0  3  0  0  0  0  0  0
  186.6950  177.0730  144.2080 C   0  0  2  0  0  3  0  0  0  0  0  0
  184.6700  179.3760  141.8910 C   0  0  0  0  0  2  0  0  0  0  0  0
  183.4330  177.4460  140.4760 O   0  0  0  0  0  0  0  0  0  0  0  0
  183.5750  179.6650  139.4530 O   0  0  0  0  0  0  0  0  0  0  0  0
  184.3050  178.6560  140.2960 S   0  0  0  0  0  0  0  0  0  0  0  0
  185.7740  178.1860  139.5030 N   0  0  0  0  0  2  0  0  0  0  0  0
  185.5620  178.2770  138.0610 C   0  0  2  0  0  3  0  0  0  0  0  0
  185.3040  176.9720  137.5050 N   0  0  0  0  0  0  0  0  0  0  0  0
  184.1500  176.6420  137.1770 N   0  0  0  0  0  2  0  0  0  0  0  0
  186.7100  178.9060  137.3990 N   0  0  0  0  0  2  0  0  0  0  0  0
  187.8970  178.0680  137.5320 C   0  0  0  0  0  3  0  0  0  0  0  0
  188.6810  178.1050  136.2350 C   0  0  0  0  0  2  0  0  0  0  0  0
  189.1350  178.9350  137.4170 C   0  0  0  0  0  2  0  0  0  0  0  0
  188.1600  176.6840  144.2430 C   0  0  0  0  0  2  0  0  0  0  0  0
  189.0140  177.8300  143.7130 C   0  0  0  0  0  2  0  0  0  0  0  0
  190.3630  177.3510  143.1690 C   0  0  2  0  0  3  0  0  0  0  0  0
  191.1160  176.5430  139.5680 C   0  0  0  0  0  1  0  0  0  0  0  0
  190.7230  177.4480  140.7150 C   0  0  1  0  0  3  0  0  0  0  0  0
  189.2320  177.3300  140.9580 C   0  0  0  0  0  2  0  0  0  0  0  0
  190.2050  176.5940  141.8560 C   0  0  2  0  0  3  0  0  0  0  0  0
  191.1060  176.5050  144.1950 C   0  0  0  0  0  2  0  0  0  0  0  0
  191.5100  177.3630  145.3830 C   0  0  0  0  0  2  0  0  0  0  0  0
  191.4190  176.5690  146.6740 C   0  0  0  0  0  2  0  0  0  0  0  0
  190.0030  176.5940  147.2180 C   0  0  0  0  0  2  0  0  0  0  0  0
  188.3890  177.8820  148.5730 C   0  0  0  0  0  1  0  0  0  0  0  0
  189.7790  177.8850  147.9740 C   0  0  0  0  0  2  0  0  0  0  0  0
  1  4  1  0  0  0  0
  1  2  1  0  0  0  0
  3  7  1  0  0  0  0
  5  8  1  6  0  0  0
  5  3  1  0  0  0  0
  5  6  1  0  0  0  0
  6  1  2  0  0  0  0
  7 20  1  1  0  0  0
  7  4  1  0  0  0  0
 10 11  2  0  0  0  0
 11  9  2  0  0  0  0
 11  8  1  0  0  0  0
 12 11  1  0  0  0  0
 13 16  1  6  0  0  0
 13 12  1  0  0  0  0
 14 13  1  0  0  0  0
 15 14  2  0  0  0  0
 16 17  1  0  0  0  0
 18 19  1  0  0  0  0
 18 17  1  0  0  0  0
 19 17  1  0  0  0  0
 21 20  1  0  0  0  0
 22 21  1  1  0  0  0
 22 27  1  0  0  0  0
 24 23  1  6  0  0  0
 24 25  1  0  0  0  0
 24 26  1  0  0  0  0
 25 26  1  0  0  0  0
 26 22  1  1  0  0  0
 27 28  1  0  0  0  0
 28 29  1  0  0  0  0
 29 30  1  0  0  0  0
 30 32  1  0  0  0  0
 32 31  1  0  0  0  0
M  END
>  <MODEL>
1

>  <REMARK>
 VINA RESULT:      -7.1      0.000      0.000
  Name = 
  16 active torsions:
  status: ('A' for Active; 'I' for Inactive)
    1  A    between atoms: C_1  and  N_30
    2  A    between atoms: N_2  and  C_5
    3  A    between atoms: N_2  and  S_27
    4  A    between atoms: C_5  and  N_14
    5  A    between atoms: C_5  and  N_30
    6  A    between atoms: C_6  and  C_9
    7  A    between atoms: C_6  and  C_17
    8  A    between atoms: C_7  and  C_26
    9  A    between atoms: C_7  and  C_31
   10  A    between atoms: C_9  and  C_31
   11  A    between atoms: C_9  and  C_32
   12  A    between atoms: C_16  and  C_20
   13  A    between atoms: C_16  and  S_27
   14  A    between atoms: C_17  and  C_29
   15  A    between atoms: C_18  and  C_25
   16  A    between atoms: C_18  and  C_29
                            x       y       z     vdW  Elec       q    Type
                         _______ _______ _______ _____ _____    ______ ____

>  <TORSDO>
F 16

$$$$
=
 OpenBabel10262421193D

 32 34  0  0  1  0  0  0  0  0999 V2000
  191.4220  177.4050  140.7960 C   0  0  0  0  0  0  0  0  0  0  0  0
  192.7730  177.1890  140.5670 O   0  0  0  0  0  1  0  0  0  0  0  0
  188.6090  177.4090  141.2450 C   0  0  0  0  0  2  0  0  0  0  0  0
  190.9010  177.3160  142.2080 C   0  0  0  0  0  2  0  0  0  0  0  0
  189.1430  177.9050  139.9030 C   0  0  1  0  0  3  0  0  0  0  0  0
  190.6120  177.6180  139.7530 C   0  0  0  0  0  3  0  0  0  0  0  0
  189.5050  177.9170  142.3640 C   0  0  2  0  0  3  0  0  0  0  0  0
  188.3820  177.2750  138.7450 C   0  0  0  0  0  2  0  0  0  0  0  0
  189.1050  179.6030  137.5980 O   0  0  0  0  0  0  0  0  0  0  0  0
  188.7420  177.6910  136.1140 O   0  0  0  0  0  0  0  0  0  0  0  0
  188.2540  178.3890  137.3530 S   0  0  0  0  0  0  0  0  0  0  0  0
  186.6060  178.8850  137.1340 N   0  0  0  0  0  2  0  0  0  0  0  0
  185.7700  178.0900  138.0300 C   0  0  2  0  0  3  0  0  0  0  0  0
  184.7540  177.3900  137.2830 N   0  0  0  0  0  0  0  0  0  0  0  0
  183.9910  176.5880  137.8520 N   0  0  0  0  0  2  0  0  0  0  0  0
  185.1640  178.9300  139.0680 N   0  0  0  0  0  2  0  0  0  0  0  0
  185.2820  178.2900  140.3750 C   0  0  0  0  0  3  0  0  0  0  0  0
  185.4190  179.3580  141.4420 C   0  0  0  0  0  2  0  0  0  0  0  0
  184.0870  178.6720  141.2260 C   0  0  0  0  0  2  0  0  0  0  0  0
  188.9240  177.5150  143.7050 C   0  0  0  0  0  2  0  0  0  0  0  0
  189.6010  178.3000  144.8210 C   0  0  0  0  0  2  0  0  0  0  0  0
  189.4720  177.6130  146.1840 C   0  0  2  0  0  3  0  0  0  0  0  0
  192.1580  175.5380  147.8190 C   0  0  0  0  0  1  0  0  0  0  0  0
  191.5710  176.8040  147.2340 C   0  0  1  0  0  3  0  0  0  0  0  0
  191.7770  176.8040  145.7330 C   0  0  0  0  0  2  0  0  0  0  0  0
  190.4270  176.4310  146.3110 C   0  0  2  0  0  3  0  0  0  0  0  0
  188.0380  177.1790  146.4530 C   0  0  0  0  0  2  0  0  0  0  0  0
  187.4290  178.0420  147.5470 C   0  0  0  0  0  2  0  0  0  0  0  0
  186.1650  178.7220  147.0530 C   0  0  0  0  0  2  0  0  0  0  0  0
  185.7820  178.2060  145.6790 C   0  0  0  0  0  2  0  0  0  0  0  0
  183.5200  178.8930  144.9660 C   0  0  0  0  0  1  0  0  0  0  0  0
  184.9870  179.2660  144.9490 C   0  0  0  0  0  2  0  0  0  0  0  0
  1  4  1  0  0  0  0
  2  1  1  0  0  0  0
  3  7  1  0  0  0  0
  4  7  1  0  0  0  0
  5  8  1  6  0  0  0
  5  3  1  0  0  0  0
  6  5  1  0  0  0  0
  6  1  2  0  0  0  0
  7 20  1  1  0  0  0
 10 11  2  0  0  0  0
 11  9  2  0  0  0  0
 11  8  1  0  0  0  0
 12 11  1  0  0  0  0
 13 12  1  6  0  0  0
 13 16  1  0  0  0  0
 14 15  2  0  0  0  0
 14 13  1  0  0  0  0
 16 17  1  0  0  0  0
 17 19  1  0  0  0  0
 17 18  1  0  0  0  0
 19 18  1  0  0  0  0
 20 21  1  0  0  0  0
 22 21  1  6  0  0  0
 22 27  1  0  0  0  0
 24 23  1  1  0  0  0
 25 26  1  0  0  0  0
 25 24  1  0  0  0  0
 26 22  1  6  0  0  0
 26 24  1  0  0  0  0
 27 28  1  0  0  0  0
 29 28  1  0  0  0  0
 30 29  1  0  0  0  0
 32 31  1  0  0  0  0
 32 30  1  0  0  0  0
M  END
>  <MODEL>
2

>  <REMARK>
 VINA RESULT:      -7.0      2.836      5.305
  Name = 
  16 active torsions:
  status: ('A' for Active; 'I' for Inactive)
    1  A    between atoms: C_1  and  N_30
    2  A    between atoms: N_2  and  C_5
    3  A    between atoms: N_2  and  S_27
    4  A    between atoms: C_5  and  N_14
    5  A    between atoms: C_5  and  N_30
    6  A    between atoms: C_6  and  C_9
    7  A    between atoms: C_6  and  C_17
    8  A    between atoms: C_7  and  C_26
    9  A    between atoms: C_7  and  C_31
   10  A    between atoms: C_9  and  C_31
   11  A    between atoms: C_9  and  C_32
   12  A    between atoms: C_16  and  C_20
   13  A    between atoms: C_16  and  S_27
   14  A    between atoms: C_17  and  C_29
   15  A    between atoms: C_18  and  C_25
   16  A    between atoms: C_18  and  C_29
                            x       y       z     vdW  Elec       q    Type
                         _______ _______ _______ _____ _____    ______ ____

>  <TORSDO>
F 16

$$$$
=
 OpenBabel10262421193D

 32 34  0  0  1  0  0  0  0  0999 V2000
  185.2220  178.5010  145.7430 C   0  0  0  0  0  0  0  0  0  0  0  0
  184.8340  178.9210  147.0070 O   0  0  0  0  0  1  0  0  0  0  0  0
  186.2330  178.0250  143.1230 C   0  0  0  0  0  2  0  0  0  0  0  0
  186.5570  177.8210  145.5820 C   0  0  0  0  0  2  0  0  0  0  0  0
  184.7460  178.3230  143.2970 C   0  0  1  0  0  3  0  0  0  0  0  0
  184.4330  178.7740  144.6970 C   0  0  0  0  0  3  0  0  0  0  0  0
  186.6980  177.1030  144.2400 C   0  0  2  0  0  3  0  0  0  0  0  0
  184.2800  179.3810  142.3070 C   0  0  0  0  0  2  0  0  0  0  0  0
  184.7370  178.9870  139.6810 O   0  0  0  0  0  0  0  0  0  0  0  0
  183.6750  177.1610  140.9170 O   0  0  0  0  0  0  0  0  0  0  0  0
  183.7470  178.6550  140.7630 S   0  0  0  0  0  0  0  0  0  0  0  0
  182.1890  179.2730  140.3180 N   0  0  0  0  0  2  0  0  0  0  0  0
  181.1810  178.5870  141.1220 C   0  0  2  0  0  3  0  0  0  0  0  0
  180.5190  177.5720  140.3400 N   0  0  0  0  0  0  0  0  0  0  0  0
  179.4330  177.8130  139.7820 N   0  0  0  0  0  2  0  0  0  0  0  0
  180.2090  179.5370  141.6700 N   0  0  0  0  0  2  0  0  0  0  0  0
  180.4710  179.7750  143.0860 C   0  0  0  0  0  3  0  0  0  0  0  0
  179.2900  179.2850  143.9010 C   0  0  0  0  0  2  0  0  0  0  0  0
  180.5460  178.4450  143.8090 C   0  0  0  0  0  2  0  0  0  0  0  0
  188.1480  176.7210  144.0160 C   0  0  0  0  0  2  0  0  0  0  0  0
  189.0590  177.6610  144.7960 C   0  0  0  0  0  2  0  0  0  0  0  0
  190.5170  177.1920  144.8030 C   0  0  2  0  0  3  0  0  0  0  0  0
  192.3850  175.9100  147.8130 C   0  0  0  0  0  1  0  0  0  0  0  0
  191.2920  175.8850  146.7660 C   0  0  1  0  0  3  0  0  0  0  0  0
  190.1440  176.7620  147.2210 C   0  0  0  0  0  2  0  0  0  0  0  0
  191.1300  177.2810  146.1960 C   0  0  2  0  0  3  0  0  0  0  0  0
  191.3540  177.9660  143.7940 C   0  0  0  0  0  2  0  0  0  0  0  0
  191.8130  177.0400  142.6790 C   0  0  0  0  0  2  0  0  0  0  0  0
  191.3490  177.5540  141.3280 C   0  0  0  0  0  2  0  0  0  0  0  0
  190.0880  176.8350  140.8880 C   0  0  0  0  0  2  0  0  0  0  0  0
  189.1300  178.3560  139.1940 C   0  0  0  0  0  1  0  0  0  0  0  0
  189.0010  177.8520  140.6150 C   0  0  0  0  0  2  0  0  0  0  0  0
  1  2  1  0  0  0  0
  3  5  1  0  0  0  0
  3  7  1  0  0  0  0
  4  1  1  0  0  0  0
  5  8  1  6  0  0  0
  5  6  1  0  0  0  0
  6  1  2  0  0  0  0
  7 20  1  6  0  0  0
  7  4  1  0  0  0  0
  9 11  2  0  0  0  0
 11 10  2  0  0  0  0
 11  8  1  0  0  0  0
 12 11  1  0  0  0  0
 13 12  1  6  0  0  0
 13 16  1  0  0  0  0
 14 13  1  0  0  0  0
 15 14  2  0  0  0  0
 16 17  1  0  0  0  0
 17 19  1  0  0  0  0
 17 18  1  0  0  0  0
 19 18  1  0  0  0  0
 20 21  1  0  0  0  0
 21 22  1  0  0  0  0
 22 27  1  6  0  0  0
 24 25  1  0  0  0  0
 24 23  1  1  0  0  0
 26 22  1  6  0  0  0
 26 24  1  0  0  0  0
 26 25  1  0  0  0  0
 28 27  1  0  0  0  0
 29 28  1  0  0  0  0
 30 29  1  0  0  0  0
 31 32  1  0  0  0  0
 32 30  1  0  0  0  0
M  END
>  <MODEL>
3

>  <REMARK>
 VINA RESULT:      -6.8      2.498      5.391
  Name = 
  16 active torsions:
  status: ('A' for Active; 'I' for Inactive)
    1  A    between atoms: C_1  and  N_30
    2  A    between atoms: N_2  and  C_5
    3  A    between atoms: N_2  and  S_27
    4  A    between atoms: C_5  and  N_14
    5  A    between atoms: C_5  and  N_30
    6  A    between atoms: C_6  and  C_9
    7  A    between atoms: C_6  and  C_17
    8  A    between atoms: C_7  and  C_26
    9  A    between atoms: C_7  and  C_31
   10  A    between atoms: C_9  and  C_31
   11  A    between atoms: C_9  and  C_32
   12  A    between atoms: C_16  and  C_20
   13  A    between atoms: C_16  and  S_27
   14  A    between atoms: C_17  and  C_29
   15  A    between atoms: C_18  and  C_25
   16  A    between atoms: C_18  and  C_29
                            x       y       z     vdW  Elec       q    Type
                         _______ _______ _______ _____ _____    ______ ____

>  <TORSDO>
F 16

$$$$
=
 OpenBabel10262421193D

 32 34  0  0  1  0  0  0  0  0999 V2000
  185.1640  178.3840  145.2290 C   0  0  0  0  0  0  0  0  0  0  0  0
  184.5300  178.7270  146.4160 O   0  0  0  0  0  1  0  0  0  0  0  0
  186.6890  178.0580  142.8470 C   0  0  0  0  0  2  0  0  0  0  0  0
  186.4860  177.6640  145.2950 C   0  0  0  0  0  2  0  0  0  0  0  0
  185.2060  178.4010  142.7320 C   0  0  1  0  0  3  0  0  0  0  0  0
  184.6180  178.7620  144.0680 C   0  0  0  0  0  3  0  0  0  0  0  0
  186.8880  177.0400  143.9590 C   0  0  2  0  0  3  0  0  0  0  0  0
  184.9830  179.5450  141.7530 C   0  0  0  0  0  2  0  0  0  0  0  0
  184.2140  180.0560  139.2220 O   0  0  0  0  0  0  0  0  0  0  0  0
  186.1060  178.5350  139.5300 O   0  0  0  0  0  0  0  0  0  0  0  0
  184.7710  178.9540  140.0790 S   0  0  0  0  0  0  0  0  0  0  0  0
  183.6790  177.6070  140.0560 N   0  0  0  0  0  2  0  0  0  0  0  0
  182.9370  177.6450  138.7990 C   0  0  2  0  0  3  0  0  0  0  0  0
  181.5290  177.4450  139.0380 N   0  0  0  0  0  0  0  0  0  0  0  0
  181.0580  177.5750  140.1830 N   0  0  0  0  0  2  0  0  0  0  0  0
  183.4500  176.6490  137.8540 N   0  0  0  0  0  2  0  0  0  0  0  0
  183.1400  175.3000  138.3160 C   0  0  0  0  0  3  0  0  0  0  0  0
  182.7250  174.4500  137.1320 C   0  0  0  0  0  2  0  0  0  0  0  0
  184.1230  174.3240  137.7000 C   0  0  0  0  0  2  0  0  0  0  0  0
  188.3430  176.6180  144.0100 C   0  0  0  0  0  2  0  0  0  0  0  0
  189.2360  177.7860  143.6080 C   0  0  0  0  0  2  0  0  0  0  0  0
  190.5000  177.3300  142.8720 C   0  0  2  0  0  3  0  0  0  0  0  0
  191.0250  176.4080  139.2580 C   0  0  0  0  0  1  0  0  0  0  0  0
  190.8540  177.3670  140.4160 C   0  0  1  0  0  3  0  0  0  0  0  0
  189.3760  177.5830  140.6720 C   0  0  0  0  0  2  0  0  0  0  0  0
  190.1670  176.6400  141.5550 C   0  0  2  0  0  3  0  0  0  0  0  0
  191.3610  176.4310  143.7500 C   0  0  0  0  0  2  0  0  0  0  0  0
  191.6360  177.1130  145.0810 C   0  0  0  0  0  2  0  0  0  0  0  0
  191.8700  176.0840  146.1730 C   0  0  0  0  0  2  0  0  0  0  0  0
  191.2290  176.5310  147.4740 C   0  0  0  0  0  2  0  0  0  0  0  0
  188.7960  176.8340  147.7750 C   0  0  0  0  0  1  0  0  0  0  0  0
  190.0490  177.4290  147.1680 C   0  0  0  0  0  2  0  0  0  0  0  0
  1  4  1  0  0  0  0
  1  2  1  0  0  0  0
  3  7  1  0  0  0  0
  5  8  1  6  0  0  0
  5  3  1  0  0  0  0
  5  6  1  0  0  0  0
  6  1  2  0  0  0  0
  7 20  1  1  0  0  0
  7  4  1  0  0  0  0
  9 11  2  0  0  0  0
 10 11  2  0  0  0  0
 11  8  1  0  0  0  0
 12 11  1  0  0  0  0
 13 16  1  6  0  0  0
 13 14  1  0  0  0  0
 13 12  1  0  0  0  0
 14 15  2  0  0  0  0
 16 17  1  0  0  0  0
 18 19  1  0  0  0  0
 18 17  1  0  0  0  0
 19 17  1  0  0  0  0
 21 20  1  0  0  0  0
 22 21  1  1  0  0  0
 22 27  1  0  0  0  0
 24 23  1  6  0  0  0
 24 25  1  0  0  0  0
 24 26  1  0  0  0  0
 25 26  1  0  0  0  0
 26 22  1  1  0  0  0
 27 28  1  0  0  0  0
 28 29  1  0  0  0  0
 29 30  1  0  0  0  0
 32 30  1  0  0  0  0
 32 31  1  0  0  0  0
M  END
>  <MODEL>
4

>  <REMARK>
 VINA RESULT:      -6.7      1.896      2.599
  Name = 
  16 active torsions:
  status: ('A' for Active; 'I' for Inactive)
    1  A    between atoms: C_1  and  N_30
    2  A    between atoms: N_2  and  C_5
    3  A    between atoms: N_2  and  S_27
    4  A    between atoms: C_5  and  N_14
    5  A    between atoms: C_5  and  N_30
    6  A    between atoms: C_6  and  C_9
    7  A    between atoms: C_6  and  C_17
    8  A    between atoms: C_7  and  C_26
    9  A    between atoms: C_7  and  C_31
   10  A    between atoms: C_9  and  C_31
   11  A    between atoms: C_9  and  C_32
   12  A    between atoms: C_16  and  C_20
   13  A    between atoms: C_16  and  S_27
   14  A    between atoms: C_17  and  C_29
   15  A    between atoms: C_18  and  C_25
   16  A    between atoms: C_18  and  C_29
                            x       y       z     vdW  Elec       q    Type
                         _______ _______ _______ _____ _____    ______ ____

>  <TORSDO>
F 16

$$$$
=
 OpenBabel10262421193D

 32 34  0  0  1  0  0  0  0  0999 V2000
  191.5450  177.4200  140.6000 C   0  0  0  0  0  0  0  0  0  0  0  0
  192.8890  177.2640  140.2870 O   0  0  0  0  0  1  0  0  0  0  0  0
  188.7630  177.3000  141.1970 C   0  0  0  0  0  2  0  0  0  0  0  0
  191.1070  177.2390  142.0300 C   0  0  0  0  0  2  0  0  0  0  0  0
  189.2060  177.8840  139.8570 C   0  0  1  0  0  3  0  0  0  0  0  0
  190.6730  177.6570  139.6140 C   0  0  0  0  0  3  0  0  0  0  0  0
  189.7030  177.7810  142.2930 C   0  0  2  0  0  3  0  0  0  0  0  0
  188.4030  177.2890  138.7090 C   0  0  0  0  0  2  0  0  0  0  0  0
  189.0090  179.6920  137.6540 O   0  0  0  0  0  0  0  0  0  0  0  0
  188.9990  177.7740  136.1340 O   0  0  0  0  0  0  0  0  0  0  0  0
  188.3140  178.4030  137.3150 S   0  0  0  0  0  0  0  0  0  0  0  0
  186.6580  178.7370  136.9220 N   0  0  0  0  0  2  0  0  0  0  0  0
  185.8240  177.7320  137.5760 C   0  0  2  0  0  3  0  0  0  0  0  0
  185.6480  176.5860  136.7180 N   0  0  0  0  0  0  0  0  0  0  0  0
  185.0720  175.5660  137.1370 N   0  0  0  0  0  2  0  0  0  0  0  0
  184.5270  178.2950  137.9640 N   0  0  0  0  0  2  0  0  0  0  0  0
  184.4080  178.3470  139.4180 C   0  0  0  0  0  3  0  0  0  0  0  0
  183.0660  178.9480  139.7870 C   0  0  0  0  0  2  0  0  0  0  0  0
  183.2680  177.4490  139.8560 C   0  0  0  0  0  2  0  0  0  0  0  0
  189.2100  177.2900  143.6390 C   0  0  0  0  0  2  0  0  0  0  0  0
  187.7440  176.8840  143.5390 C   0  0  0  0  0  2  0  0  0  0  0  0
  186.8820  177.5240  144.6310 C   0  0  2  0  0  3  0  0  0  0  0  0
  183.6810  179.4450  144.1310 C   0  0  0  0  0  1  0  0  0  0  0  0
  184.5570  178.2110  144.1020 C   0  0  1  0  0  3  0  0  0  0  0  0
  185.3350  178.1800  142.8030 C   0  0  0  0  0  2  0  0  0  0  0  0
  186.0100  178.6440  144.0770 C   0  0  2  0  0  3  0  0  0  0  0  0
  187.7360  178.0270  145.7880 C   0  0  0  0  0  2  0  0  0  0  0  0
  187.3320  177.3270  147.0760 C   0  0  0  0  0  2  0  0  0  0  0  0
  188.5020  177.2610  148.0420 C   0  0  0  0  0  2  0  0  0  0  0  0
  189.7870  177.6810  147.3530 C   0  0  0  0  0  2  0  0  0  0  0  0
  191.6170  176.5020  146.1870 C   0  0  0  0  0  1  0  0  0  0  0  0
  190.8020  176.5640  147.4610 C   0  0  0  0  0  2  0  0  0  0  0  0
  1  4  1  0  0  0  0
  2  1  1  0  0  0  0
  3  7  1  0  0  0  0
  4  7  1  0  0  0  0
  5  8  1  6  0  0  0
  5  3  1  0  0  0  0
  6  5  1  0  0  0  0
  6  1  2  0  0  0  0
  7 20  1  1  0  0  0
 10 11  2  0  0  0  0
 11  9  2  0  0  0  0
 11  8  1  0  0  0  0
 12 11  1  0  0  0  0
 12 13  1  0  0  0  0
 13 14  1  6  0  0  0
 13 16  1  0  0  0  0
 14 15  2  0  0  0  0
 16 17  1  0  0  0  0
 17 18  1  0  0  0  0
 17 19  1  0  0  0  0
 18 19  1  0  0  0  0
 21 20  1  0  0  0  0
 22 21  1  6  0  0  0
 22 27  1  0  0  0  0
 24 23  1  6  0  0  0
 25 26  1  0  0  0  0
 25 24  1  0  0  0  0
 26 24  1  0  0  0  0
 26 22  1  1  0  0  0
 27 28  1  0  0  0  0
 28 29  1  0  0  0  0
 30 32  1  0  0  0  0
 30 29  1  0  0  0  0
 31 32  1  0  0  0  0
M  END
>  <MODEL>
5

>  <REMARK>
 VINA RESULT:      -6.7      2.783      5.187
  Name = 
  16 active torsions:
  status: ('A' for Active; 'I' for Inactive)
    1  A    between atoms: C_1  and  N_30
    2  A    between atoms: N_2  and  C_5
    3  A    between atoms: N_2  and  S_27
    4  A    between atoms: C_5  and  N_14
    5  A    between atoms: C_5  and  N_30
    6  A    between atoms: C_6  and  C_9
    7  A    between atoms: C_6  and  C_17
    8  A    between atoms: C_7  and  C_26
    9  A    between atoms: C_7  and  C_31
   10  A    between atoms: C_9  and  C_31
   11  A    between atoms: C_9  and  C_32
   12  A    between atoms: C_16  and  C_20
   13  A    between atoms: C_16  and  S_27
   14  A    between atoms: C_17  and  C_29
   15  A    between atoms: C_18  and  C_25
   16  A    between atoms: C_18  and  C_29
                            x       y       z     vdW  Elec       q    Type
                         _______ _______ _______ _____ _____    ______ ____

>  <TORSDO>
F 16

$$$$
=
 OpenBabel10262421193D

 32 34  0  0  1  0  0  0  0  0999 V2000
  181.8520  178.8870  142.5550 C   0  0  0  0  0  0  0  0  0  0  0  0
  180.6710  179.2340  143.1970 O   0  0  0  0  0  1  0  0  0  0  0  0
  184.3140  178.6050  141.1520 C   0  0  0  0  0  2  0  0  0  0  0  0
  183.1480  178.9850  143.3170 C   0  0  0  0  0  2  0  0  0  0  0  0
  183.0290  178.1080  140.4940 C   0  0  1  0  0  3  0  0  0  0  0  0
  181.8110  178.5420  141.2630 C   0  0  0  0  0  3  0  0  0  0  0  0
  184.2970  178.2470  142.6300 C   0  0  2  0  0  3  0  0  0  0  0  0
  182.9240  178.5990  139.0570 C   0  0  0  0  0  2  0  0  0  0  0  0
  182.3660  176.0920  138.2450 O   0  0  0  0  0  0  0  0  0  0  0  0
  182.8290  177.7540  136.5080 O   0  0  0  0  0  0  0  0  0  0  0  0
  183.2100  177.2820  137.8830 S   0  0  0  0  0  0  0  0  0  0  0  0
  184.8820  176.8200  137.9010 N   0  0  0  0  0  2  0  0  0  0  0  0
  185.6500  177.8660  137.2310 C   0  0  2  0  0  3  0  0  0  0  0  0
  186.4450  177.3040  136.1670 N   0  0  0  0  0  0  0  0  0  0  0  0
  186.0570  176.2920  135.5560 N   0  0  0  0  0  2  0  0  0  0  0  0
  186.4960  178.5900  138.1850 N   0  0  0  0  0  2  0  0  0  0  0  0
  187.6380  177.7710  138.5780 C   0  0  0  0  0  3  0  0  0  0  0  0
  188.8670  178.6500  138.6910 C   0  0  0  0  0  2  0  0  0  0  0  0
  188.1280  178.2210  139.9400 C   0  0  0  0  0  2  0  0  0  0  0  0
  185.6130  178.6460  143.2670 C   0  0  0  0  0  2  0  0  0  0  0  0
  185.7770  177.9370  144.6060 C   0  0  0  0  0  2  0  0  0  0  0  0
  187.1680  177.3190  144.7760 C   0  0  2  0  0  3  0  0  0  0  0  0
  189.4550  177.5230  147.7620 C   0  0  0  0  0  1  0  0  0  0  0  0
  188.2270  177.0640  147.0060 C   0  0  1  0  0  3  0  0  0  0  0  0
  187.1430  178.1150  147.1280 C   0  0  0  0  0  2  0  0  0  0  0  0
  187.9700  178.0260  145.8630 C   0  0  2  0  0  3  0  0  0  0  0  0
  187.9350  177.3090  143.4600 C   0  0  0  0  0  2  0  0  0  0  0  0
  188.9340  176.1630  143.4490 C   0  0  0  0  0  2  0  0  0  0  0  0
  190.0900  176.4670  142.5120 C   0  0  0  0  0  2  0  0  0  0  0  0
  191.4030  176.4770  143.2710 C   0  0  0  0  0  2  0  0  0  0  0  0
  191.5620  178.8100  144.0650 C   0  0  0  0  0  1  0  0  0  0  0  0
  191.2780  177.3820  144.4780 C   0  0  0  0  0  2  0  0  0  0  0  0
  1  2  1  0  0  0  0
  1  4  1  0  0  0  0
  3  7  1  0  0  0  0
  5  8  1  6  0  0  0
  5  3  1  0  0  0  0
  5  6  1  0  0  0  0
  6  1  2  0  0  0  0
  7 20  1  1  0  0  0
  7  4  1  0  0  0  0
 10 11  2  0  0  0  0
 11 12  1  0  0  0  0
 11  9  2  0  0  0  0
 11  8  1  0  0  0  0
 13 14  1  6  0  0  0
 13 12  1  0  0  0  0
 13 16  1  0  0  0  0
 15 14  2  0  0  0  0
 16 17  1  0  0  0  0
 17 18  1  0  0  0  0
 17 19  1  0  0  0  0
 18 19  1  0  0  0  0
 20 21  1  0  0  0  0
 21 22  1  0  0  0  0
 22 27  1  6  0  0  0
 24 25  1  0  0  0  0
 24 23  1  1  0  0  0
 26 22  1  6  0  0  0
 26 24  1  0  0  0  0
 26 25  1  0  0  0  0
 28 27  1  0  0  0  0
 29 30  1  0  0  0  0
 29 28  1  0  0  0  0
 30 32  1  0  0  0  0
 31 32  1  0  0  0  0
M  END
>  <MODEL>
6

>  <REMARK>
 VINA RESULT:      -6.6      1.948      3.957
  Name = 
  16 active torsions:
  status: ('A' for Active; 'I' for Inactive)
    1  A    between atoms: C_1  and  N_30
    2  A    between atoms: N_2  and  C_5
    3  A    between atoms: N_2  and  S_27
    4  A    between atoms: C_5  and  N_14
    5  A    between atoms: C_5  and  N_30
    6  A    between atoms: C_6  and  C_9
    7  A    between atoms: C_6  and  C_17
    8  A    between atoms: C_7  and  C_26
    9  A    between atoms: C_7  and  C_31
   10  A    between atoms: C_9  and  C_31
   11  A    between atoms: C_9  and  C_32
   12  A    between atoms: C_16  and  C_20
   13  A    between atoms: C_16  and  S_27
   14  A    between atoms: C_17  and  C_29
   15  A    between atoms: C_18  and  C_25
   16  A    between atoms: C_18  and  C_29
                            x       y       z     vdW  Elec       q    Type
                         _______ _______ _______ _____ _____    ______ ____

>  <TORSDO>
F 16

$$$$
=
 OpenBabel10262421193D

 32 34  0  0  1  0  0  0  0  0999 V2000
  184.8970  178.5700  145.0800 C   0  0  0  0  0  0  0  0  0  0  0  0
  184.1580  178.9660  146.1870 O   0  0  0  0  0  1  0  0  0  0  0  0
  186.6380  178.1320  142.8700 C   0  0  0  0  0  2  0  0  0  0  0  0
  186.1880  177.8240  145.2980 C   0  0  0  0  0  2  0  0  0  0  0  0
  185.1820  178.5020  142.5990 C   0  0  1  0  0  3  0  0  0  0  0  0
  184.4760  178.9200  143.8600 C   0  0  0  0  0  3  0  0  0  0  0  0
  186.7030  177.1470  144.0280 C   0  0  2  0  0  3  0  0  0  0  0  0
  185.0840  179.6170  141.5680 C   0  0  0  0  0  2  0  0  0  0  0  0
  183.3910  178.1390  140.0840 O   0  0  0  0  0  0  0  0  0  0  0  0
  184.3230  180.1500  139.0460 O   0  0  0  0  0  0  0  0  0  0  0  0
  184.6210  178.9930  139.9590 S   0  0  0  0  0  0  0  0  0  0  0  0
  185.9100  178.0410  139.2950 N   0  0  0  0  0  2  0  0  0  0  0  0
  185.7530  178.0130  137.8430 C   0  0  2  0  0  3  0  0  0  0  0  0
  184.6800  177.1250  137.4680 N   0  0  0  0  0  0  0  0  0  0  0  0
  183.9810  177.3670  136.4680 N   0  0  0  0  0  2  0  0  0  0  0  0
  187.0040  177.6230  137.1860 N   0  0  0  0  0  2  0  0  0  0  0  0
  188.1530  178.0710  137.9680 C   0  0  0  0  0  3  0  0  0  0  0  0
  189.4220  177.8150  137.1810 C   0  0  0  0  0  2  0  0  0  0  0  0
  188.8370  179.2100  137.2390 C   0  0  0  0  0  2  0  0  0  0  0  0
  188.1350  176.6960  144.2350 C   0  0  0  0  0  2  0  0  0  0  0  0
  188.7500  177.4460  145.4110 C   0  0  0  0  0  2  0  0  0  0  0  0
  190.2750  177.5510  145.3050 C   0  0  2  0  0  3  0  0  0  0  0  0
  192.6020  175.9570  147.8010 C   0  0  0  0  0  1  0  0  0  0  0  0
  191.4760  175.9670  146.7900 C   0  0  1  0  0  3  0  0  0  0  0  0
  190.1870  176.3600  147.4820 C   0  0  0  0  0  2  0  0  0  0  0  0
  190.9470  177.3820  146.6620 C   0  0  2  0  0  3  0  0  0  0  0  0
  190.6960  178.8620  144.6530 C   0  0  0  0  0  2  0  0  0  0  0  0
  191.7750  178.6030  143.6140 C   0  0  0  0  0  2  0  0  0  0  0  0
  191.6940  177.1760  143.0990 C   0  0  0  0  0  2  0  0  0  0  0  0
  191.7930  177.1480  141.5860 C   0  0  0  0  0  2  0  0  0  0  0  0
  189.4430  176.7440  140.9430 C   0  0  0  0  0  1  0  0  0  0  0  0
  190.5510  177.7740  140.9900 C   0  0  0  0  0  2  0  0  0  0  0  0
  1  4  1  0  0  0  0
  1  2  1  0  0  0  0
  3  7  1  0  0  0  0
  5  8  1  6  0  0  0
  5  3  1  0  0  0  0
  5  6  1  0  0  0  0
  6  1  2  0  0  0  0
  7 20  1  1  0  0  0
  7  4  1  0  0  0  0
 10 11  2  0  0  0  0
 11  9  2  0  0  0  0
 11  8  1  0  0  0  0
 12 11  1  0  0  0  0
 13 16  1  6  0  0  0
 13 12  1  0  0  0  0
 14 13  1  0  0  0  0
 15 14  2  0  0  0  0
 16 17  1  0  0  0  0
 18 19  1  0  0  0  0
 18 17  1  0  0  0  0
 19 17  1  0  0  0  0
 20 21  1  0  0  0  0
 22 27  1  1  0  0  0
 22 21  1  0  0  0  0
 24 25  1  0  0  0  0
 24 23  1  1  0  0  0
 26 22  1  6  0  0  0
 26 24  1  0  0  0  0
 26 25  1  0  0  0  0
 28 27  1  0  0  0  0
 29 28  1  0  0  0  0
 30 29  1  0  0  0  0
 31 32  1  0  0  0  0
 32 30  1  0  0  0  0
M  END
>  <MODEL>
7

>  <REMARK>
 VINA RESULT:      -6.5      0.997      3.374
  Name = 
  16 active torsions:
  status: ('A' for Active; 'I' for Inactive)
    1  A    between atoms: C_1  and  N_30
    2  A    between atoms: N_2  and  C_5
    3  A    between atoms: N_2  and  S_27
    4  A    between atoms: C_5  and  N_14
    5  A    between atoms: C_5  and  N_30
    6  A    between atoms: C_6  and  C_9
    7  A    between atoms: C_6  and  C_17
    8  A    between atoms: C_7  and  C_26
    9  A    between atoms: C_7  and  C_31
   10  A    between atoms: C_9  and  C_31
   11  A    between atoms: C_9  and  C_32
   12  A    between atoms: C_16  and  C_20
   13  A    between atoms: C_16  and  S_27
   14  A    between atoms: C_17  and  C_29
   15  A    between atoms: C_18  and  C_25
   16  A    between atoms: C_18  and  C_29
                            x       y       z     vdW  Elec       q    Type
                         _______ _______ _______ _____ _____    ______ ____

>  <TORSDO>
F 16

$$$$
=
 OpenBabel10262421193D

 32 34  0  0  1  0  0  0  0  0999 V2000
  185.2580  178.5630  145.2500 C   0  0  0  0  0  0  0  0  0  0  0  0
  184.5980  178.9930  146.3930 O   0  0  0  0  0  1  0  0  0  0  0  0
  186.8580  178.0430  142.9520 C   0  0  0  0  0  2  0  0  0  0  0  0
  186.5270  177.7640  145.4020 C   0  0  0  0  0  2  0  0  0  0  0  0
  185.4070  178.4750  142.7580 C   0  0  1  0  0  3  0  0  0  0  0  0
  184.7870  178.9270  144.0520 C   0  0  0  0  0  3  0  0  0  0  0  0
  186.9430  177.0610  144.1110 C   0  0  2  0  0  3  0  0  0  0  0  0
  185.3010  179.5900  141.7270 C   0  0  0  0  0  2  0  0  0  0  0  0
  184.2000  180.1280  139.3280 O   0  0  0  0  0  0  0  0  0  0  0  0
  185.8620  178.3330  139.4190 O   0  0  0  0  0  0  0  0  0  0  0  0
  184.7200  178.9820  140.1500 S   0  0  0  0  0  0  0  0  0  0  0  0
  183.4460  177.8290  140.3880 N   0  0  0  0  0  2  0  0  0  0  0  0
  182.1810  178.4710  140.0400 C   0  0  2  0  0  3  0  0  0  0  0  0
  181.2170  178.2900  141.0980 N   0  0  0  0  0  0  0  0  0  0  0  0
  181.3690  178.8570  142.1950 N   0  0  0  0  0  2  0  0  0  0  0  0
  181.6610  177.9580  138.7700 N   0  0  0  0  0  2  0  0  0  0  0  0
  180.5520  178.7830  138.3010 C   0  0  0  0  0  3  0  0  0  0  0  0
  180.7900  179.1630  136.8530 C   0  0  0  0  0  2  0  0  0  0  0  0
  179.8200  178.0520  137.1940 C   0  0  0  0  0  2  0  0  0  0  0  0
  188.3640  176.5500  144.2430 C   0  0  0  0  0  2  0  0  0  0  0  0
  189.2520  177.6350  144.8390 C   0  0  0  0  0  2  0  0  0  0  0  0
  190.7180  177.2010  144.9420 C   0  0  2  0  0  3  0  0  0  0  0  0
  192.4300  175.9790  148.0670 C   0  0  0  0  0  1  0  0  0  0  0  0
  191.4070  175.9200  146.9520 C   0  0  1  0  0  3  0  0  0  0  0  0
  190.2060  176.7610  147.3310 C   0  0  0  0  0  2  0  0  0  0  0  0
  191.2390  177.3100  146.3700 C   0  0  2  0  0  3  0  0  0  0  0  0
  191.5990  177.9920  143.9840 C   0  0  0  0  0  2  0  0  0  0  0  0
  191.9280  177.1490  142.7630 C   0  0  0  0  0  2  0  0  0  0  0  0
  191.1970  177.6700  141.5370 C   0  0  0  0  0  2  0  0  0  0  0  0
  190.0440  176.7530  141.1740 C   0  0  0  0  0  2  0  0  0  0  0  0
  190.1290  177.3030  138.7680 C   0  0  0  0  0  1  0  0  0  0  0  0
  189.2740  177.3500  140.0160 C   0  0  0  0  0  2  0  0  0  0  0  0
  1  4  1  0  0  0  0
  1  2  1  0  0  0  0
  3  7  1  0  0  0  0
  5  8  1  6  0  0  0
  5  3  1  0  0  0  0
  5  6  1  0  0  0  0
  6  1  2  0  0  0  0
  7 20  1  1  0  0  0
  7  4  1  0  0  0  0
  9 11  2  0  0  0  0
 10 11  2  0  0  0  0
 11 12  1  0  0  0  0
 11  8  1  0  0  0  0
 13 16  1  6  0  0  0
 13 12  1  0  0  0  0
 13 14  1  0  0  0  0
 14 15  2  0  0  0  0
 17 16  1  0  0  0  0
 18 19  1  0  0  0  0
 18 17  1  0  0  0  0
 19 17  1  0  0  0  0
 20 21  1  0  0  0  0
 21 22  1  0  0  0  0
 22 27  1  6  0  0  0
 24 25  1  0  0  0  0
 24 23  1  1  0  0  0
 26 22  1  6  0  0  0
 26 24  1  0  0  0  0
 26 25  1  0  0  0  0
 28 27  1  0  0  0  0
 29 28  1  0  0  0  0
 30 29  1  0  0  0  0
 31 32  1  0  0  0  0
 32 30  1  0  0  0  0
M  END
>  <MODEL>
8

>  <REMARK>
 VINA RESULT:      -6.4      2.422      4.890
  Name = 
  16 active torsions:
  status: ('A' for Active; 'I' for Inactive)
    1  A    between atoms: C_1  and  N_30
    2  A    between atoms: N_2  and  C_5
    3  A    between atoms: N_2  and  S_27
    4  A    between atoms: C_5  and  N_14
    5  A    between atoms: C_5  and  N_30
    6  A    between atoms: C_6  and  C_9
    7  A    between atoms: C_6  and  C_17
    8  A    between atoms: C_7  and  C_26
    9  A    between atoms: C_7  and  C_31
   10  A    between atoms: C_9  and  C_31
   11  A    between atoms: C_9  and  C_32
   12  A    between atoms: C_16  and  C_20
   13  A    between atoms: C_16  and  S_27
   14  A    between atoms: C_17  and  C_29
   15  A    between atoms: C_18  and  C_25
   16  A    between atoms: C_18  and  C_29
                            x       y       z     vdW  Elec       q    Type
                         _______ _______ _______ _____ _____    ______ ____

>  <TORSDO>
F 16

$$$$
=
 OpenBabel10262421193D

 32 34  0  0  1  0  0  0  0  0999 V2000
  185.5010  178.7780  146.0780 C   0  0  0  0  0  0  0  0  0  0  0  0
  185.6450  179.2290  147.3830 O   0  0  0  0  0  1  0  0  0  0  0  0
  185.3860  178.2390  143.2840 C   0  0  0  0  0  2  0  0  0  0  0  0
  186.6700  178.1000  145.4110 C   0  0  0  0  0  2  0  0  0  0  0  0
  184.0880  178.5330  144.0320 C   0  0  1  0  0  3  0  0  0  0  0  0
  184.3550  179.0190  145.4300 C   0  0  0  0  0  3  0  0  0  0  0  0
  186.2740  177.3490  144.1400 C   0  0  2  0  0  3  0  0  0  0  0  0
  183.2490  179.5620  143.2880 C   0  0  0  0  0  2  0  0  0  0  0  0
  181.1040  178.2990  144.3180 O   0  0  0  0  0  0  0  0  0  0  0  0
  180.6780  180.2080  142.8460 O   0  0  0  0  0  0  0  0  0  0  0  0
  181.5610  179.0140  143.0770 S   0  0  0  0  0  0  0  0  0  0  0  0
  181.4500  177.9330  141.7250 N   0  0  0  0  0  2  0  0  0  0  0  0
  181.9360  178.6350  140.5410 C   0  0  2  0  0  3  0  0  0  0  0  0
  180.9170  178.6680  139.5200 N   0  0  0  0  0  0  0  0  0  0  0  0
  180.9730  177.8940  138.5470 N   0  0  0  0  0  2  0  0  0  0  0  0
  183.1630  178.0160  140.0290 N   0  0  0  0  0  2  0  0  0  0  0  0
  184.1800  179.0330  139.7770 C   0  0  0  0  0  3  0  0  0  0  0  0
  185.5130  178.3550  139.5340 C   0  0  0  0  0  2  0  0  0  0  0  0
  184.7040  178.8730  138.3640 C   0  0  0  0  0  2  0  0  0  0  0  0
  187.5180  176.9690  143.3630 C   0  0  0  0  0  2  0  0  0  0  0  0
  187.7900  178.0060  142.2800 C   0  0  0  0  0  2  0  0  0  0  0  0
  189.2850  178.1700  141.9880 C   0  0  2  0  0  3  0  0  0  0  0  0
  191.3610  176.7880  139.1650 C   0  0  0  0  0  1  0  0  0  0  0  0
  190.3630  177.7350  139.7950 C   0  0  1  0  0  3  0  0  0  0  0  0
  188.9860  177.1040  139.7650 C   0  0  0  0  0  2  0  0  0  0  0  0
  189.7960  177.0880  141.0440 C   0  0  2  0  0  3  0  0  0  0  0  0
  190.1020  178.1960  143.2730 C   0  0  0  0  0  2  0  0  0  0  0  0
  191.1760  177.1220  143.2280 C   0  0  0  0  0  2  0  0  0  0  0  0
  191.4400  176.5670  144.6170 C   0  0  0  0  0  2  0  0  0  0  0  0
  190.3930  177.0630  145.5970 C   0  0  0  0  0  2  0  0  0  0  0  0
  192.0290  175.8160  146.9650 C   0  0  0  0  0  1  0  0  0  0  0  0
  190.8440  176.7560  147.0090 C   0  0  0  0  0  2  0  0  0  0  0  0
  1  2  1  0  0  0  0
  3  5  1  0  0  0  0
  3  7  1  0  0  0  0
  4  1  1  0  0  0  0
  5  8  1  6  0  0  0
  5  6  1  0  0  0  0
  6  1  2  0  0  0  0
  7 20  1  6  0  0  0
  7  4  1  0  0  0  0
 10 11  2  0  0  0  0
 11  8  1  0  0  0  0
 11  9  2  0  0  0  0
 12 11  1  0  0  0  0
 13 14  1  6  0  0  0
 13 12  1  0  0  0  0
 15 14  2  0  0  0  0
 16 13  1  0  0  0  0
 17 16  1  0  0  0  0
 18 17  1  0  0  0  0
 19 18  1  0  0  0  0
 19 17  1  0  0  0  0
 21 20  1  0  0  0  0
 22 21  1  1  0  0  0
 22 27  1  0  0  0  0
 24 23  1  6  0  0  0
 24 26  1  0  0  0  0
 25 24  1  0  0  0  0
 25 26  1  0  0  0  0
 26 22  1  1  0  0  0
 28 27  1  0  0  0  0
 28 29  1  0  0  0  0
 29 30  1  0  0  0  0
 30 32  1  0  0  0  0
 31 32  1  0  0  0  0
M  END
>  <MODEL>
9

>  <REMARK>
 VINA RESULT:      -6.4      2.294      2.986
  Name = 
  16 active torsions:
  status: ('A' for Active; 'I' for Inactive)
    1  A    between atoms: C_1  and  N_30
    2  A    between atoms: N_2  and  C_5
    3  A    between atoms: N_2  and  S_27
    4  A    between atoms: C_5  and  N_14
    5  A    between atoms: C_5  and  N_30
    6  A    between atoms: C_6  and  C_9
    7  A    between atoms: C_6  and  C_17
    8  A    between atoms: C_7  and  C_26
    9  A    between atoms: C_7  and  C_31
   10  A    between atoms: C_9  and  C_31
   11  A    between atoms: C_9  and  C_32
   12  A    between atoms: C_16  and  C_20
   13  A    between atoms: C_16  and  S_27
   14  A    between atoms: C_17  and  C_29
   15  A    between atoms: C_18  and  C_25
   16  A    between atoms: C_18  and  C_29
                            x       y       z     vdW  Elec       q    Type
                         _______ _______ _______ _____ _____    ______ ____

>  <TORSDO>
F 16

$$$$
