=
 OpenBabel10252414593D

 34 40  0  0  1  0  0  0  0  0999 V2000
  188.8470  177.1070  145.5740 C   0  0  0  0  0  0  0  0  0  0  0  0
  190.8160  177.6710  144.2930 C   0  0  0  0  0  0  0  0  0  0  0  0
  188.5400  178.0190  143.3250 C   0  0  0  0  0  0  0  0  0  0  0  0
  188.1580  178.6950  140.8280 C   0  0  1  0  0  0  0  0  0  0  0  0
  190.9840  176.7560  146.4840 N   0  0  0  0  0  0  0  0  0  0  0  0
  191.5870  177.2350  145.3680 C   0  0  0  0  0  3  0  0  0  0  0  0
  188.9200  177.3240  141.0110 C   0  0  2  0  0  0  0  0  0  0  0  0
  189.4070  177.6070  144.3740 C   0  0  0  0  0  0  0  0  0  0  0  0
  188.1730  177.6620  139.7520 C   0  0  0  0  0  2  0  0  0  0  0  0
  189.6560  176.6970  146.5850 N   0  0  0  0  0  0  0  0  0  0  0  0
  187.1470  177.9810  143.5190 C   0  0  0  0  0  0  0  0  0  0  0  0
  187.4670  177.0340  145.7330 C   0  0  0  0  0  3  0  0  0  0  0  0
  191.4600  178.1710  143.2100 F   0  0  0  0  0  0  0  0  0  0  0  0
  186.7550  178.7300  141.2660 N   0  0  0  0  0  0  0  0  0  0  0  0
  186.2520  178.4320  142.4280 C   0  0  0  0  0  0  0  0  0  0  0  0
  189.0950  178.4620  141.9940 C   0  0  2  0  0  3  0  0  0  0  0  0
  186.6260  177.4670  144.7130 C   0  0  0  0  0  3  0  0  0  0  0  0
  182.5150  178.4720  141.7180 C   0  0  0  0  0  0  0  0  0  0  0  0
  182.0030  178.7710  142.9830 C   0  0  0  0  0  3  0  0  0  0  0  0
  184.7820  178.5690  142.6000 C   0  0  0  0  0  0  0  0  0  0  0  0
  182.8730  178.9620  144.0590 C   0  0  0  0  0  3  0  0  0  0  0  0
  183.8960  178.3660  141.5300 C   0  0  0  0  0  3  0  0  0  0  0  0
  184.2540  178.8570  143.8700 C   0  0  0  0  0  3  0  0  0  0  0  0
  181.6510  178.2770  140.6490 O   0  0  0  0  0  1  0  0  0  0  0  0
  190.2430  177.1750  140.5110 O   0  0  0  0  0  0  0  0  0  0  0  0
  191.3240  176.1830  138.7220 N   0  0  0  0  0  0  0  0  0  0  0  0
  190.6180  176.0690  139.7740 N   0  0  0  0  0  0  0  0  0  0  0  0
  189.8520  173.5850  137.4320 O   0  0  0  0  0  1  0  0  0  0  0  0
  191.7080  175.0110  137.9530 C   0  0  1  0  0  3  0  0  0  0  0  0
  190.5860  174.6700  136.9580 C   0  0  1  0  0  3  0  0  0  0  0  0
  191.5960  175.5840  135.1700 C   0  0  0  0  0  2  0  0  0  0  0  0
  192.8550  176.0370  135.9260 C   0  0  0  0  0  2  0  0  0  0  0  0
  193.0420  175.2590  137.2330 C   0  0  0  0  0  2  0  0  0  0  0  0
  191.1000  174.3720  135.6820 O   0  0  0  0  0  0  0  0  0  0  0  0
  1 12  1  0  0  0  0
  1 10  2  0  0  0  0
  2  8  2  0  0  0  0
  2  6  1  0  0  0  0
  3 11  2  0  0  0  0
  3  8  1  0  0  0  0
  4  9  1  6  0  0  0
  4  7  1  0  0  0  0
  4 14  1  0  0  0  0
  4 16  1  0  0  0  0
  5 10  1  0  0  0  0
  6  5  2  0  0  0  0
  7 25  1  6  0  0  0
  7 16  1  0  0  0  0
  8  1  1  0  0  0  0
  9  7  1  0  0  0  0
 11 17  1  0  0  0  0
 13  2  1  0  0  0  0
 14 15  2  0  0  0  0
 15 20  1  0  0  0  0
 15 11  1  0  0  0  0
 16  3  1  1  0  0  0
 17 12  2  0  0  0  0
 18 19  1  0  0  0  0
 19 21  2  0  0  0  0
 20 23  2  0  0  0  0
 22 18  2  0  0  0  0
 22 20  1  0  0  0  0
 23 21  1  0  0  0  0
 24 18  1  0  0  0  0
 26 27  2  0  0  0  0
 27 25  1  0  0  0  0
 29 26  1  6  0  0  0
 30 28  1  1  0  0  0
 30 29  1  0  0  0  0
 31 34  1  0  0  0  0
 31 32  1  0  0  0  0
 32 33  1  0  0  0  0
 33 29  1  0  0  0  0
 34 30  1  0  0  0  0
M  END
>  <MODEL>
1

>  <REMARK>
 VINA RESULT:     -10.3      0.000      0.000
  Name = 
  4 active torsions:
  status: ('A' for Active; 'I' for Inactive)
    1  A    between atoms: N_3  and  C_13
    2  A    between atoms: C_10  and  O_29
    3  A    between atoms: C_12  and  C_28
    4  A    between atoms: N_17  and  O_29
                            x       y       z     vdW  Elec       q    Type
                         _______ _______ _______ _____ _____    ______ ____

>  <TORSDO>
F 4

$$$$
=
 OpenBabel10252414593D

 34 40  0  0  1  0  0  0  0  0999 V2000
  188.9290  177.0680  146.0980 C   0  0  0  0  0  0  0  0  0  0  0  0
  190.9560  177.4700  144.8470 C   0  0  0  0  0  0  0  0  0  0  0  0
  188.7260  177.8800  143.7990 C   0  0  0  0  0  0  0  0  0  0  0  0
  188.4430  178.4480  141.2630 C   0  0  1  0  0  0  0  0  0  0  0  0
  191.0200  176.6600  147.0840 N   0  0  0  0  0  0  0  0  0  0  0  0
  191.6760  177.0520  145.9640 C   0  0  0  0  0  3  0  0  0  0  0  0
  189.1310  177.0530  141.5330 C   0  0  2  0  0  0  0  0  0  0  0  0
  189.5440  177.4790  144.8910 C   0  0  0  0  0  0  0  0  0  0  0  0
  188.4350  177.3630  140.2390 C   0  0  0  0  0  2  0  0  0  0  0  0
  189.6890  176.6700  147.1490 N   0  0  0  0  0  0  0  0  0  0  0  0
  187.3280  177.9190  143.9540 C   0  0  0  0  0  0  0  0  0  0  0  0
  187.5430  177.0710  146.2200 C   0  0  0  0  0  3  0  0  0  0  0  0
  191.6520  177.8840  143.7600 F   0  0  0  0  0  0  0  0  0  0  0  0
  187.0330  178.5730  141.6580 N   0  0  0  0  0  0  0  0  0  0  0  0
  186.4850  178.3580  142.8180 C   0  0  0  0  0  0  0  0  0  0  0  0
  189.3370  178.2290  142.4650 C   0  0  2  0  0  3  0  0  0  0  0  0
  186.7520  177.4930  145.1570 C   0  0  0  0  0  3  0  0  0  0  0  0
  182.7800  178.5860  141.9890 C   0  0  0  0  0  0  0  0  0  0  0  0
  182.2460  178.9300  143.2330 C   0  0  0  0  0  3  0  0  0  0  0  0
  185.0210  178.5760  142.9420 C   0  0  0  0  0  0  0  0  0  0  0  0
  183.0900  179.0890  144.3340 C   0  0  0  0  0  3  0  0  0  0  0  0
  184.1590  178.4050  141.8460 C   0  0  0  0  0  3  0  0  0  0  0  0
  184.4690  178.9090  144.1900 C   0  0  0  0  0  3  0  0  0  0  0  0
  181.9410  178.4220  140.8950 O   0  0  0  0  0  1  0  0  0  0  0  0
  190.4570  176.8150  141.0790 O   0  0  0  0  0  0  0  0  0  0  0  0
  191.3150  176.8850  138.9310 N   0  0  0  0  0  0  0  0  0  0  0  0
  190.7100  176.2430  139.8480 N   0  0  0  0  0  0  0  0  0  0  0  0
  193.0080  174.3600  137.7770 O   0  0  0  0  0  1  0  0  0  0  0  0
  191.5700  176.2730  137.6380 C   0  0  1  0  0  3  0  0  0  0  0  0
  191.6700  174.7490  137.8120 C   0  0  1  0  0  3  0  0  0  0  0  0
  189.5930  174.3080  137.0770 C   0  0  0  0  0  2  0  0  0  0  0  0
  189.2210  175.7720  136.7960 C   0  0  0  0  0  2  0  0  0  0  0  0
  190.4650  176.6530  136.6410 C   0  0  0  0  0  2  0  0  0  0  0  0
  190.9530  174.0650  136.8130 O   0  0  0  0  0  0  0  0  0  0  0  0
  1 12  1  0  0  0  0
  1 10  2  0  0  0  0
  2  8  2  0  0  0  0
  2  6  1  0  0  0  0
  3 11  2  0  0  0  0
  3  8  1  0  0  0  0
  4  9  1  6  0  0  0
  4  7  1  0  0  0  0
  4 14  1  0  0  0  0
  4 16  1  0  0  0  0
  5 10  1  0  0  0  0
  6  5  2  0  0  0  0
  7 25  1  6  0  0  0
  7 16  1  0  0  0  0
  8  1  1  0  0  0  0
  9  7  1  0  0  0  0
 11 17  1  0  0  0  0
 13  2  1  0  0  0  0
 14 15  2  0  0  0  0
 15 20  1  0  0  0  0
 15 11  1  0  0  0  0
 16  3  1  1  0  0  0
 17 12  2  0  0  0  0
 18 19  1  0  0  0  0
 19 21  2  0  0  0  0
 20 23  2  0  0  0  0
 22 18  2  0  0  0  0
 22 20  1  0  0  0  0
 23 21  1  0  0  0  0
 24 18  1  0  0  0  0
 26 27  2  0  0  0  0
 27 25  1  0  0  0  0
 29 30  1  0  0  0  0
 29 26  1  1  0  0  0
 30 28  1  6  0  0  0
 32 31  1  0  0  0  0
 33 32  1  0  0  0  0
 33 29  1  0  0  0  0
 34 31  1  0  0  0  0
 34 30  1  0  0  0  0
M  END
>  <MODEL>
2

>  <REMARK>
 VINA RESULT:     -10.2      0.892      1.277
  Name = 
  4 active torsions:
  status: ('A' for Active; 'I' for Inactive)
    1  A    between atoms: N_3  and  C_13
    2  A    between atoms: C_10  and  O_29
    3  A    between atoms: C_12  and  C_28
    4  A    between atoms: N_17  and  O_29
                            x       y       z     vdW  Elec       q    Type
                         _______ _______ _______ _____ _____    ______ ____

>  <TORSDO>
F 4

$$$$
=
 OpenBabel10252414593D

 34 40  0  0  1  0  0  0  0  0999 V2000
  188.8620  177.2470  145.2080 C   0  0  0  0  0  0  0  0  0  0  0  0
  190.8420  177.8280  143.9530 C   0  0  0  0  0  0  0  0  0  0  0  0
  188.5790  178.0850  142.9280 C   0  0  0  0  0  0  0  0  0  0  0  0
  188.2340  178.6790  140.4050 C   0  0  1  0  0  0  0  0  0  0  0  0
  190.9860  176.9810  146.1730 N   0  0  0  0  0  0  0  0  0  0  0  0
  191.6010  177.4450  145.0560 C   0  0  0  0  0  3  0  0  0  0  0  0
  189.0280  177.3360  140.6430 C   0  0  2  0  0  0  0  0  0  0  0  0
  189.4340  177.7270  144.0060 C   0  0  0  0  0  0  0  0  0  0  0  0
  188.3010  177.6160  139.3600 C   0  0  0  0  0  2  0  0  0  0  0  0
  189.6590  176.8880  146.2470 N   0  0  0  0  0  0  0  0  0  0  0  0
  187.1840  178.0140  143.0930 C   0  0  0  0  0  0  0  0  0  0  0  0
  187.4810  177.1410  145.3390 C   0  0  0  0  0  3  0  0  0  0  0  0
  191.4960  178.3150  142.8700 F   0  0  0  0  0  0  0  0  0  0  0  0
  186.8210  178.6870  140.8110 N   0  0  0  0  0  0  0  0  0  0  0  0
  186.3010  178.4090  141.9710 C   0  0  0  0  0  0  0  0  0  0  0  0
  189.1510  178.5050  141.5960 C   0  0  2  0  0  3  0  0  0  0  0  0
  186.6510  177.5210  144.2910 C   0  0  0  0  0  3  0  0  0  0  0  0
  182.8300  178.8870  143.4520 C   0  0  0  0  0  0  0  0  0  0  0  0
  182.0310  178.7630  142.3130 C   0  0  0  0  0  3  0  0  0  0  0  0
  184.8250  178.5100  142.1080 C   0  0  0  0  0  0  0  0  0  0  0  0
  182.6220  178.5220  141.0710 C   0  0  0  0  0  3  0  0  0  0  0  0
  184.2190  178.7660  143.3490 C   0  0  0  0  0  3  0  0  0  0  0  0
  184.0110  178.4010  140.9680 C   0  0  0  0  0  3  0  0  0  0  0  0
  182.2450  179.1320  144.6870 O   0  0  0  0  0  1  0  0  0  0  0  0
  190.3660  177.2080  140.1760 O   0  0  0  0  0  0  0  0  0  0  0  0
  191.6270  176.1760  138.5340 N   0  0  0  0  0  0  0  0  0  0  0  0
  190.7890  176.0890  139.4870 N   0  0  0  0  0  0  0  0  0  0  0  0
  190.2650  173.4720  137.3470 O   0  0  0  0  0  1  0  0  0  0  0  0
  192.0610  174.9900  137.8130 C   0  0  1  0  0  3  0  0  0  0  0  0
  190.9580  174.5660  136.8300 C   0  0  1  0  0  3  0  0  0  0  0  0
  191.9380  175.4460  135.0100 C   0  0  0  0  0  2  0  0  0  0  0  0
  193.1750  175.9790  135.7500 C   0  0  0  0  0  2  0  0  0  0  0  0
  193.3870  175.2620  137.0880 C   0  0  0  0  0  2  0  0  0  0  0  0
  191.4880  174.2360  135.5690 O   0  0  0  0  0  0  0  0  0  0  0  0
  1 12  1  0  0  0  0
  1 10  2  0  0  0  0
  2  8  2  0  0  0  0
  2  6  1  0  0  0  0
  3 11  2  0  0  0  0
  3  8  1  0  0  0  0
  4  9  1  6  0  0  0
  4  7  1  0  0  0  0
  4 14  1  0  0  0  0
  4 16  1  0  0  0  0
  5 10  1  0  0  0  0
  6  5  2  0  0  0  0
  7 25  1  6  0  0  0
  7 16  1  0  0  0  0
  8  1  1  0  0  0  0
  9  7  1  0  0  0  0
 11 17  1  0  0  0  0
 13  2  1  0  0  0  0
 14 15  2  0  0  0  0
 15 20  1  0  0  0  0
 15 11  1  0  0  0  0
 16  3  1  1  0  0  0
 17 12  2  0  0  0  0
 18 24  1  0  0  0  0
 19 18  2  0  0  0  0
 20 22  2  0  0  0  0
 21 19  1  0  0  0  0
 22 18  1  0  0  0  0
 23 21  2  0  0  0  0
 23 20  1  0  0  0  0
 26 27  2  0  0  0  0
 27 25  1  0  0  0  0
 29 26  1  6  0  0  0
 30 28  1  1  0  0  0
 30 29  1  0  0  0  0
 31 34  1  0  0  0  0
 31 32  1  0  0  0  0
 32 33  1  0  0  0  0
 33 29  1  0  0  0  0
 34 30  1  0  0  0  0
M  END
>  <MODEL>
3

>  <REMARK>
 VINA RESULT:      -9.8      0.837      1.177
  Name = 
  4 active torsions:
  status: ('A' for Active; 'I' for Inactive)
    1  A    between atoms: N_3  and  C_13
    2  A    between atoms: C_10  and  O_29
    3  A    between atoms: C_12  and  C_28
    4  A    between atoms: N_17  and  O_29
                            x       y       z     vdW  Elec       q    Type
                         _______ _______ _______ _____ _____    ______ ____

>  <TORSDO>
F 4

$$$$
=
 OpenBabel10252414593D

 34 40  0  0  1  0  0  0  0  0999 V2000
  183.2700  178.9200  143.8330 C   0  0  0  0  0  0  0  0  0  0  0  0
  183.4570  178.2700  141.5140 C   0  0  0  0  0  0  0  0  0  0  0  0
  185.4270  178.0820  143.0390 C   0  0  0  0  0  0  0  0  0  0  0  0
  187.8240  177.4890  142.1790 C   0  0  1  0  0  0  0  0  0  0  0  0
  181.4190  179.1210  142.4020 N   0  0  0  0  0  0  0  0  0  0  0  0
  182.1230  178.6330  141.3500 C   0  0  0  0  0  3  0  0  0  0  0  0
  187.2250  178.8070  141.5480 C   0  0  2  0  0  0  0  0  0  0  0  0
  184.0690  178.4160  142.7790 C   0  0  0  0  0  0  0  0  0  0  0  0
  188.7030  178.5450  141.5970 C   0  0  0  0  0  2  0  0  0  0  0  0
  181.9750  179.2570  143.6060 N   0  0  0  0  0  0  0  0  0  0  0  0
  185.9340  178.1990  144.3460 C   0  0  0  0  0  0  0  0  0  0  0  0
  183.8000  179.0710  145.1110 C   0  0  0  0  0  3  0  0  0  0  0  0
  184.1130  177.7570  140.4440 F   0  0  0  0  0  0  0  0  0  0  0  0
  188.1270  177.5280  143.6170 N   0  0  0  0  0  0  0  0  0  0  0  0
  187.3430  177.8280  144.6110 C   0  0  0  0  0  0  0  0  0  0  0  0
  186.3390  177.6380  141.9220 C   0  0  2  0  0  3  0  0  0  0  0  0
  185.1200  178.7140  145.3620 C   0  0  0  0  0  3  0  0  0  0  0  0
  189.7740  177.3680  147.5010 C   0  0  0  0  0  0  0  0  0  0  0  0
  188.9810  177.7530  148.5840 C   0  0  0  0  0  3  0  0  0  0  0  0
  187.9150  177.7750  145.9810 C   0  0  0  0  0  0  0  0  0  0  0  0
  187.6610  178.1580  148.3730 C   0  0  0  0  0  3  0  0  0  0  0  0
  189.2450  177.3830  146.2070 C   0  0  0  0  0  3  0  0  0  0  0  0
  187.1330  178.1730  147.0780 C   0  0  0  0  0  3  0  0  0  0  0  0
  191.0880  176.9710  147.7090 O   0  0  0  0  0  1  0  0  0  0  0  0
  187.0090  178.8880  140.1450 O   0  0  0  0  0  0  0  0  0  0  0  0
  188.1670  178.8310  138.1420 N   0  0  0  0  0  0  0  0  0  0  0  0
  187.8580  178.2750  139.2440 N   0  0  0  0  0  0  0  0  0  0  0  0
  190.9060  177.0830  138.2700 O   0  0  0  0  0  1  0  0  0  0  0  0
  189.0580  178.1730  137.2010 C   0  0  1  0  0  3  0  0  0  0  0  0
  189.5970  176.8810  137.8360 C   0  0  1  0  0  3  0  0  0  0  0  0
  188.2000  175.5010  136.7440 C   0  0  0  0  0  2  0  0  0  0  0  0
  187.4820  176.6080  135.9570 C   0  0  0  0  0  2  0  0  0  0  0  0
  188.3230  177.8870  135.8830 C   0  0  0  0  0  2  0  0  0  0  0  0
  189.5610  175.8050  136.9310 O   0  0  0  0  0  0  0  0  0  0  0  0
  1 12  1  0  0  0  0
  2  8  1  0  0  0  0
  3 11  2  0  0  0  0
  4  9  1  6  0  0  0
  4 14  1  0  0  0  0
  5 10  2  0  0  0  0
  6  2  2  0  0  0  0
  6  5  1  0  0  0  0
  7 25  1  6  0  0  0
  7  9  1  0  0  0  0
  7 16  1  0  0  0  0
  7  4  1  0  0  0  0
  8  3  1  0  0  0  0
  8  1  2  0  0  0  0
 10  1  1  0  0  0  0
 11 15  1  0  0  0  0
 11 17  1  0  0  0  0
 12 17  2  0  0  0  0
 13  2  1  0  0  0  0
 14 15  2  0  0  0  0
 15 20  1  0  0  0  0
 16  4  1  0  0  0  0
 16  3  1  1  0  0  0
 18 24  1  0  0  0  0
 18 19  1  0  0  0  0
 20 22  1  0  0  0  0
 20 23  2  0  0  0  0
 21 19  2  0  0  0  0
 22 18  2  0  0  0  0
 23 21  1  0  0  0  0
 26 27  2  0  0  0  0
 27 25  1  0  0  0  0
 29 30  1  0  0  0  0
 29 26  1  1  0  0  0
 30 28  1  6  0  0  0
 31 34  1  0  0  0  0
 32 31  1  0  0  0  0
 33 32  1  0  0  0  0
 33 29  1  0  0  0  0
 34 30  1  0  0  0  0
M  END
>  <MODEL>
4

>  <REMARK>
 VINA RESULT:      -9.8      3.037      5.855
  Name = 
  4 active torsions:
  status: ('A' for Active; 'I' for Inactive)
    1  A    between atoms: N_3  and  C_13
    2  A    between atoms: C_10  and  O_29
    3  A    between atoms: C_12  and  C_28
    4  A    between atoms: N_17  and  O_29
                            x       y       z     vdW  Elec       q    Type
                         _______ _______ _______ _____ _____    ______ ____

>  <TORSDO>
F 4

$$$$
=
 OpenBabel10252414593D

 34 40  0  0  1  0  0  0  0  0999 V2000
  185.8430  178.4710  145.8590 C   0  0  0  0  0  0  0  0  0  0  0  0
  184.9270  178.2230  143.6380 C   0  0  0  0  0  0  0  0  0  0  0  0
  187.2760  177.5230  144.1190 C   0  0  0  0  0  0  0  0  0  0  0  0
  188.9430  176.7970  142.2400 C   0  0  1  0  0  0  0  0  0  0  0  0
  183.6400  179.1510  145.4110 N   0  0  0  0  0  0  0  0  0  0  0  0
  183.7390  178.7730  144.1130 C   0  0  0  0  0  3  0  0  0  0  0  0
  188.3980  178.2690  142.0770 C   0  0  2  0  0  0  0  0  0  0  0  0
  186.0220  178.0660  144.5150 C   0  0  0  0  0  0  0  0  0  0  0  0
  189.6850  177.8200  141.4470 C   0  0  0  0  0  2  0  0  0  0  0  0
  184.6590  179.0030  146.2580 N   0  0  0  0  0  0  0  0  0  0  0  0
  188.2910  177.3440  145.0760 C   0  0  0  0  0  0  0  0  0  0  0  0
  186.8720  178.3280  146.7840 C   0  0  0  0  0  3  0  0  0  0  0  0
  184.9710  177.8290  142.3410 F   0  0  0  0  0  0  0  0  0  0  0  0
  189.8150  176.5430  143.3950 N   0  0  0  0  0  0  0  0  0  0  0  0
  189.5860  176.7590  144.6580 C   0  0  0  0  0  0  0  0  0  0  0  0
  187.5430  177.1730  142.6760 C   0  0  2  0  0  3  0  0  0  0  0  0
  188.0840  177.7690  146.3940 C   0  0  0  0  0  3  0  0  0  0  0  0
  191.8490  176.7560  147.7150 C   0  0  0  0  0  0  0  0  0  0  0  0
  192.6370  175.6290  147.4670 C   0  0  0  0  0  3  0  0  0  0  0  0
  190.6520  176.3940  145.6260 C   0  0  0  0  0  0  0  0  0  0  0  0
  192.4320  174.8780  146.3070 C   0  0  0  0  0  3  0  0  0  0  0  0
  190.8600  177.1320  146.8020 C   0  0  0  0  0  3  0  0  0  0  0  0
  191.4420  175.2560  145.3940 C   0  0  0  0  0  3  0  0  0  0  0  0
  192.0480  177.5010  148.8700 O   0  0  0  0  0  1  0  0  0  0  0  0
  187.6410  178.6240  140.9270 O   0  0  0  0  0  0  0  0  0  0  0  0
  187.6170  178.2340  138.6460 N   0  0  0  0  0  0  0  0  0  0  0  0
  188.2160  178.6890  139.6730 N   0  0  0  0  0  0  0  0  0  0  0  0
  190.3260  177.1360  137.2190 O   0  0  0  0  0  1  0  0  0  0  0  0
  188.2360  178.3040  137.3320 C   0  0  1  0  0  3  0  0  0  0  0  0
  188.9530  176.9760  137.0400 C   0  0  1  0  0  3  0  0  0  0  0  0
  187.3420  176.1470  135.7110 C   0  0  0  0  0  2  0  0  0  0  0  0
  186.4160  177.3680  135.8190 C   0  0  0  0  0  2  0  0  0  0  0  0
  187.1800  178.6200  136.2630 C   0  0  0  0  0  2  0  0  0  0  0  0
  188.6970  176.5270  135.7320 O   0  0  0  0  0  0  0  0  0  0  0  0
  1 10  1  0  0  0  0
  1 12  1  0  0  0  0
  2  6  2  0  0  0  0
  2  8  1  0  0  0  0
  3  8  1  0  0  0  0
  3 11  2  0  0  0  0
  4  9  1  6  0  0  0
  4 16  1  0  0  0  0
  4 14  1  0  0  0  0
  5 10  2  0  0  0  0
  6  5  1  0  0  0  0
  7 25  1  6  0  0  0
  7  4  1  0  0  0  0
  7 16  1  0  0  0  0
  8  1  2  0  0  0  0
  9  7  1  0  0  0  0
 11 17  1  0  0  0  0
 13  2  1  0  0  0  0
 14 15  2  0  0  0  0
 15 11  1  0  0  0  0
 15 20  1  0  0  0  0
 16  3  1  1  0  0  0
 17 12  2  0  0  0  0
 18 24  1  0  0  0  0
 19 18  1  0  0  0  0
 20 22  1  0  0  0  0
 21 19  2  0  0  0  0
 22 18  2  0  0  0  0
 23 20  2  0  0  0  0
 23 21  1  0  0  0  0
 26 27  2  0  0  0  0
 27 25  1  0  0  0  0
 29 26  1  1  0  0  0
 30 28  1  6  0  0  0
 30 29  1  0  0  0  0
 31 34  1  0  0  0  0
 31 32  1  0  0  0  0
 32 33  1  0  0  0  0
 33 29  1  0  0  0  0
 34 30  1  0  0  0  0
M  END
>  <MODEL>
5

>  <REMARK>
 VINA RESULT:      -9.5      3.126      6.142
  Name = 
  4 active torsions:
  status: ('A' for Active; 'I' for Inactive)
    1  A    between atoms: N_3  and  C_13
    2  A    between atoms: C_10  and  O_29
    3  A    between atoms: C_12  and  C_28
    4  A    between atoms: N_17  and  O_29
                            x       y       z     vdW  Elec       q    Type
                         _______ _______ _______ _____ _____    ______ ____

>  <TORSDO>
F 4

$$$$
=
 OpenBabel10252414593D

 34 40  0  0  1  0  0  0  0  0999 V2000
  187.7420  177.5990  140.5640 C   0  0  0  0  0  0  0  0  0  0  0  0
  185.9200  178.9030  139.6610 C   0  0  0  0  0  0  0  0  0  0  0  0
  186.1670  178.6220  142.1310 C   0  0  0  0  0  0  0  0  0  0  0  0
  184.3500  179.4290  143.8300 C   0  0  1  0  0  0  0  0  0  0  0  0
  187.5050  177.8390  138.2400 N   0  0  0  0  0  0  0  0  0  0  0  0
  186.4000  178.6110  138.3870 C   0  0  0  0  0  3  0  0  0  0  0  0
  183.8270  178.3590  142.7940 C   0  0  2  0  0  0  0  0  0  0  0  0
  186.5880  178.3870  140.7930 C   0  0  0  0  0  0  0  0  0  0  0  0
  183.1520  178.5870  144.1160 C   0  0  0  0  0  2  0  0  0  0  0  0
  188.1560  177.3510  139.2960 N   0  0  0  0  0  0  0  0  0  0  0  0
  186.9320  178.1220  143.2000 C   0  0  0  0  0  0  0  0  0  0  0  0
  188.4620  177.0740  141.6320 C   0  0  0  0  0  3  0  0  0  0  0  0
  184.8310  179.7050  139.7620 F   0  0  0  0  0  0  0  0  0  0  0  0
  185.3490  178.9670  144.8040 N   0  0  0  0  0  0  0  0  0  0  0  0
  186.4960  178.3900  144.5900 C   0  0  0  0  0  0  0  0  0  0  0  0
  184.8880  179.3710  142.4160 C   0  0  2  0  0  3  0  0  0  0  0  0
  188.0600  177.3350  142.9370 C   0  0  0  0  0  3  0  0  0  0  0  0
  189.3950  177.2260  146.7600 C   0  0  0  0  0  0  0  0  0  0  0  0
  188.8750  177.4360  148.0400 C   0  0  0  0  0  3  0  0  0  0  0  0
  187.3210  178.0340  145.7730 C   0  0  0  0  0  0  0  0  0  0  0  0
  187.5860  177.9510  148.1920 C   0  0  0  0  0  3  0  0  0  0  0  0
  188.6240  177.5280  145.6340 C   0  0  0  0  0  3  0  0  0  0  0  0
  186.8150  178.2520  147.0660 C   0  0  0  0  0  3  0  0  0  0  0  0
  190.6790  176.7200  146.6070 O   0  0  0  0  0  1  0  0  0  0  0  0
  182.7800  178.6960  141.8920 O   0  0  0  0  0  0  0  0  0  0  0  0
  183.1790  177.0030  140.3660 N   0  0  0  0  0  0  0  0  0  0  0  0
  182.3690  177.8250  140.9020 N   0  0  0  0  0  0  0  0  0  0  0  0
  180.6220  175.0710  139.8100 O   0  0  0  0  0  1  0  0  0  0  0  0
  182.7340  176.0950  139.3210 C   0  0  1  0  0  3  0  0  0  0  0  0
  181.2040  176.1790  139.1970 C   0  0  1  0  0  3  0  0  0  0  0  0
  181.2060  177.5050  137.3820 C   0  0  0  0  0  2  0  0  0  0  0  0
  182.7350  177.5890  137.2600 C   0  0  0  0  0  2  0  0  0  0  0  0
  183.4260  176.4320  137.9920 C   0  0  0  0  0  2  0  0  0  0  0  0
  180.7970  176.2430  137.8520 O   0  0  0  0  0  0  0  0  0  0  0  0
  1  8  2  0  0  0  0
  1 12  1  0  0  0  0
  2 13  1  0  0  0  0
  2  8  1  0  0  0  0
  3 11  2  0  0  0  0
  4  9  1  1  0  0  0
  4 14  1  0  0  0  0
  5  6  1  0  0  0  0
  5 10  2  0  0  0  0
  6  2  2  0  0  0  0
  7 25  1  6  0  0  0
  7  4  1  0  0  0  0
  7  9  1  0  0  0  0
  8  3  1  0  0  0  0
 10  1  1  0  0  0  0
 11 15  1  0  0  0  0
 12 17  2  0  0  0  0
 15 14  2  0  0  0  0
 15 20  1  0  0  0  0
 16  3  1  1  0  0  0
 16  7  1  0  0  0  0
 16  4  1  0  0  0  0
 17 11  1  0  0  0  0
 18 19  1  0  0  0  0
 19 21  2  0  0  0  0
 20 23  2  0  0  0  0
 22 20  1  0  0  0  0
 22 18  2  0  0  0  0
 23 21  1  0  0  0  0
 24 18  1  0  0  0  0
 26 27  2  0  0  0  0
 27 25  1  0  0  0  0
 29 26  1  1  0  0  0
 30 29  1  0  0  0  0
 30 28  1  6  0  0  0
 31 34  1  0  0  0  0
 32 31  1  0  0  0  0
 32 33  1  0  0  0  0
 33 29  1  0  0  0  0
 34 30  1  0  0  0  0
M  END
>  <MODEL>
6

>  <REMARK>
 VINA RESULT:      -9.2      4.294      7.324
  Name = 
  4 active torsions:
  status: ('A' for Active; 'I' for Inactive)
    1  A    between atoms: N_3  and  C_13
    2  A    between atoms: C_10  and  O_29
    3  A    between atoms: C_12  and  C_28
    4  A    between atoms: N_17  and  O_29
                            x       y       z     vdW  Elec       q    Type
                         _______ _______ _______ _____ _____    ______ ____

>  <TORSDO>
F 4

$$$$
=
 OpenBabel10252414593D

 34 40  0  0  1  0  0  0  0  0999 V2000
  188.4030  177.2890  140.8090 C   0  0  0  0  0  0  0  0  0  0  0  0
  186.7180  178.6090  139.6880 C   0  0  0  0  0  0  0  0  0  0  0  0
  186.7220  178.4210  142.1780 C   0  0  0  0  0  0  0  0  0  0  0  0
  184.7810  179.3490  143.6650 C   0  0  1  0  0  0  0  0  0  0  0  0
  188.3950  177.4420  138.4650 N   0  0  0  0  0  0  0  0  0  0  0  0
  187.3070  178.2520  138.4770 C   0  0  0  0  0  3  0  0  0  0  0  0
  184.3220  178.2540  142.6240 C   0  0  2  0  0  0  0  0  0  0  0  0
  187.2600  178.1190  140.8970 C   0  0  0  0  0  0  0  0  0  0  0  0
  183.5340  178.5550  143.8660 C   0  0  0  0  0  2  0  0  0  0  0  0
  188.9270  176.9780  139.5960 N   0  0  0  0  0  0  0  0  0  0  0  0
  187.3650  177.9420  143.3340 C   0  0  0  0  0  0  0  0  0  0  0  0
  189.0020  176.7870  141.9600 C   0  0  0  0  0  3  0  0  0  0  0  0
  185.6520  179.4460  139.6540 F   0  0  0  0  0  0  0  0  0  0  0  0
  185.6670  178.8970  144.7460 N   0  0  0  0  0  0  0  0  0  0  0  0
  186.8100  178.2790  144.6650 C   0  0  0  0  0  0  0  0  0  0  0  0
  185.4470  179.2180  142.3110 C   0  0  2  0  0  3  0  0  0  0  0  0
  188.4860  177.1120  143.2090 C   0  0  0  0  0  3  0  0  0  0  0  0
  189.4420  177.0980  147.1430 C   0  0  0  0  0  0  0  0  0  0  0  0
  188.8210  177.3960  148.3590 C   0  0  0  0  0  3  0  0  0  0  0  0
  187.5070  177.9470  145.9340 C   0  0  0  0  0  0  0  0  0  0  0  0
  187.5500  177.9750  148.3680 C   0  0  0  0  0  3  0  0  0  0  0  0
  188.7910  177.3770  145.9390 C   0  0  0  0  0  3  0  0  0  0  0  0
  186.8990  178.2530  147.1630 C   0  0  0  0  0  3  0  0  0  0  0  0
  190.7080  176.5280  147.1320 O   0  0  0  0  0  1  0  0  0  0  0  0
  183.3770  178.5850  141.6140 O   0  0  0  0  0  0  0  0  0  0  0  0
  182.5650  178.0880  139.5050 N   0  0  0  0  0  0  0  0  0  0  0  0
  183.0400  177.6910  140.6170 N   0  0  0  0  0  0  0  0  0  0  0  0
  183.7210  175.2790  138.3430 O   0  0  0  0  0  1  0  0  0  0  0  0
  182.2100  177.1360  138.4660 C   0  0  1  0  0  3  0  0  0  0  0  0
  182.5430  175.7140  138.9480 C   0  0  1  0  0  3  0  0  0  0  0  0
  180.4340  175.1710  139.5010 C   0  0  0  0  0  2  0  0  0  0  0  0
  179.8200  176.5160  139.0840 C   0  0  0  0  0  2  0  0  0  0  0  0
  180.7230  177.2720  138.1030 C   0  0  0  0  0  2  0  0  0  0  0  0
  181.5030  174.8130  138.6590 O   0  0  0  0  0  0  0  0  0  0  0  0
  1  8  2  0  0  0  0
  1 12  1  0  0  0  0
  2  8  1  0  0  0  0
  3 11  2  0  0  0  0
  4  9  1  1  0  0  0
  4 14  1  0  0  0  0
  5  6  1  0  0  0  0
  5 10  2  0  0  0  0
  6  2  2  0  0  0  0
  7 25  1  6  0  0  0
  7  4  1  0  0  0  0
  7  9  1  0  0  0  0
  8  3  1  0  0  0  0
 10  1  1  0  0  0  0
 11 15  1  0  0  0  0
 12 17  2  0  0  0  0
 13  2  1  0  0  0  0
 15 14  2  0  0  0  0
 15 20  1  0  0  0  0
 16  3  1  1  0  0  0
 16  7  1  0  0  0  0
 16  4  1  0  0  0  0
 17 11  1  0  0  0  0
 18 19  1  0  0  0  0
 19 21  2  0  0  0  0
 20 22  1  0  0  0  0
 20 23  2  0  0  0  0
 22 18  2  0  0  0  0
 23 21  1  0  0  0  0
 24 18  1  0  0  0  0
 26 27  2  0  0  0  0
 27 25  1  0  0  0  0
 29 30  1  0  0  0  0
 29 26  1  1  0  0  0
 30 28  1  6  0  0  0
 32 31  1  0  0  0  0
 33 29  1  0  0  0  0
 33 32  1  0  0  0  0
 34 30  1  0  0  0  0
 34 31  1  0  0  0  0
M  END
>  <MODEL>
7

>  <REMARK>
 VINA RESULT:      -9.0      3.775      7.365
  Name = 
  4 active torsions:
  status: ('A' for Active; 'I' for Inactive)
    1  A    between atoms: N_3  and  C_13
    2  A    between atoms: C_10  and  O_29
    3  A    between atoms: C_12  and  C_28
    4  A    between atoms: N_17  and  O_29
                            x       y       z     vdW  Elec       q    Type
                         _______ _______ _______ _____ _____    ______ ____

>  <TORSDO>
F 4

$$$$
=
 OpenBabel10252414593D

 34 40  0  0  1  0  0  0  0  0999 V2000
  188.9230  177.6640  139.9560 C   0  0  0  0  0  0  0  0  0  0  0  0
  187.6090  178.5080  138.1140 C   0  0  0  0  0  0  0  0  0  0  0  0
  186.6470  178.4340  140.4180 C   0  0  0  0  0  0  0  0  0  0  0  0
  184.1330  178.9520  140.9130 C   0  0  1  0  0  0  0  0  0  0  0  0
  189.8270  177.7090  137.7900 N   0  0  0  0  0  0  0  0  0  0  0  0
  188.6920  178.2450  137.2780 C   0  0  0  0  0  3  0  0  0  0  0  0
  184.3540  177.7370  139.9300 C   0  0  2  0  0  0  0  0  0  0  0  0
  187.7030  178.2100  139.4910 C   0  0  0  0  0  0  0  0  0  0  0  0
  183.0910  177.9010  140.7250 C   0  0  0  0  0  2  0  0  0  0  0  0
  189.9400  177.4300  139.0880 N   0  0  0  0  0  0  0  0  0  0  0  0
  186.8520  178.1680  141.7840 C   0  0  0  0  0  0  0  0  0  0  0  0
  189.0940  177.3640  141.3040 C   0  0  0  0  0  3  0  0  0  0  0  0
  186.5060  179.0730  137.5650 F   0  0  0  0  0  0  0  0  0  0  0  0
  184.5790  178.7640  142.3010 N   0  0  0  0  0  0  0  0  0  0  0  0
  185.7550  178.4250  142.7440 C   0  0  0  0  0  0  0  0  0  0  0  0
  185.2990  178.9200  139.9470 C   0  0  2  0  0  3  0  0  0  0  0  0
  188.0670  177.6150  142.2080 C   0  0  0  0  0  3  0  0  0  0  0  0
  187.2630  177.7090  146.1620 C   0  0  0  0  0  0  0  0  0  0  0  0
  186.2620  178.1960  147.0060 C   0  0  0  0  0  3  0  0  0  0  0  0
  185.9330  178.3180  144.2150 C   0  0  0  0  0  0  0  0  0  0  0  0
  185.1010  178.7510  146.4620 C   0  0  0  0  0  3  0  0  0  0  0  0
  187.1010  177.7750  144.7750 C   0  0  0  0  0  3  0  0  0  0  0  0
  184.9400  178.8150  145.0750 C   0  0  0  0  0  3  0  0  0  0  0  0
  188.4200  177.1630  146.7010 O   0  0  0  0  0  1  0  0  0  0  0  0
  183.8500  177.7960  138.6020 O   0  0  0  0  0  0  0  0  0  0  0  0
  184.0710  175.7700  137.5050 N   0  0  0  0  0  0  0  0  0  0  0  0
  184.3670  177.0040  137.5950 N   0  0  0  0  0  0  0  0  0  0  0  0
  186.7310  175.7610  135.6340 O   0  0  0  0  0  1  0  0  0  0  0  0
  184.6260  174.9470  136.4430 C   0  0  1  0  0  3  0  0  0  0  0  0
  186.1570  174.9130  136.5790 C   0  0  1  0  0  3  0  0  0  0  0  0
  186.2440  172.8850  137.5440 C   0  0  0  0  0  2  0  0  0  0  0  0
  184.7260  172.6470  137.5280 C   0  0  0  0  0  2  0  0  0  0  0  0
  184.0250  173.5350  136.4940 C   0  0  0  0  0  2  0  0  0  0  0  0
  186.6620  173.6100  136.4130 O   0  0  0  0  0  0  0  0  0  0  0  0
  1 12  1  0  0  0  0
  2  8  1  0  0  0  0
  3 11  2  0  0  0  0
  4  9  1  6  0  0  0
  4 14  1  0  0  0  0
  5 10  2  0  0  0  0
  6  5  1  0  0  0  0
  6  2  2  0  0  0  0
  7 25  1  6  0  0  0
  7 16  1  0  0  0  0
  7  9  1  0  0  0  0
  7  4  1  0  0  0  0
  8  1  2  0  0  0  0
  8  3  1  0  0  0  0
 10  1  1  0  0  0  0
 11 17  1  0  0  0  0
 11 15  1  0  0  0  0
 12 17  2  0  0  0  0
 13  2  1  0  0  0  0
 14 15  2  0  0  0  0
 15 20  1  0  0  0  0
 16  3  1  1  0  0  0
 16  4  1  0  0  0  0
 18 24  1  0  0  0  0
 18 19  1  0  0  0  0
 20 22  1  0  0  0  0
 20 23  2  0  0  0  0
 21 19  2  0  0  0  0
 22 18  2  0  0  0  0
 23 21  1  0  0  0  0
 26 27  2  0  0  0  0
 27 25  1  0  0  0  0
 29 33  1  0  0  0  0
 29 30  1  0  0  0  0
 29 26  1  1  0  0  0
 30 28  1  6  0  0  0
 32 31  1  0  0  0  0
 33 32  1  0  0  0  0
 34 30  1  0  0  0  0
 34 31  1  0  0  0  0
M  END
>  <MODEL>
8

>  <REMARK>
 VINA RESULT:      -8.8      3.547      5.870
  Name = 
  4 active torsions:
  status: ('A' for Active; 'I' for Inactive)
    1  A    between atoms: N_3  and  C_13
    2  A    between atoms: C_10  and  O_29
    3  A    between atoms: C_12  and  C_28
    4  A    between atoms: N_17  and  O_29
                            x       y       z     vdW  Elec       q    Type
                         _______ _______ _______ _____ _____    ______ ____

>  <TORSDO>
F 4

$$$$
=
 OpenBabel10252414593D

 34 40  0  0  1  0  0  0  0  0999 V2000
  189.2590  177.0130  140.9310 C   0  0  0  0  0  0  0  0  0  0  0  0
  187.6780  178.2140  139.5550 C   0  0  0  0  0  0  0  0  0  0  0  0
  187.3960  178.1500  142.0360 C   0  0  0  0  0  0  0  0  0  0  0  0
  185.2680  179.0810  143.2380 C   0  0  1  0  0  0  0  0  0  0  0  0
  189.5190  177.0490  138.5980 N   0  0  0  0  0  0  0  0  0  0  0  0
  188.4140  177.8190  138.4410 C   0  0  0  0  0  3  0  0  0  0  0  0
  184.9670  177.9200  142.2120 C   0  0  2  0  0  0  0  0  0  0  0  0
  188.0890  177.8050  140.8430 C   0  0  0  0  0  0  0  0  0  0  0  0
  184.0310  178.2530  143.3370 C   0  0  0  0  0  2  0  0  0  0  0  0
  189.9300  176.6610  139.8050 N   0  0  0  0  0  0  0  0  0  0  0  0
  187.9150  177.7530  143.2820 C   0  0  0  0  0  0  0  0  0  0  0  0
  189.7340  176.5910  142.1690 C   0  0  0  0  0  3  0  0  0  0  0  0
  186.5980  179.0090  139.3550 F   0  0  0  0  0  0  0  0  0  0  0  0
  186.0360  178.7150  144.4370 N   0  0  0  0  0  0  0  0  0  0  0  0
  187.1980  178.1350  144.5200 C   0  0  0  0  0  0  0  0  0  0  0  0
  186.0920  178.9060  141.9790 C   0  0  2  0  0  3  0  0  0  0  0  0
  189.0670  176.9580  143.3320 C   0  0  0  0  0  3  0  0  0  0  0  0
  189.5760  177.2250  147.3460 C   0  0  0  0  0  0  0  0  0  0  0  0
  188.7870  177.5080  148.4640 C   0  0  0  0  0  3  0  0  0  0  0  0
  187.7520  177.8910  145.8770 C   0  0  0  0  0  0  0  0  0  0  0  0
  187.4870  177.9890  148.2960 C   0  0  0  0  0  3  0  0  0  0  0  0
  189.0620  177.4200  146.0610 C   0  0  0  0  0  3  0  0  0  0  0  0
  186.9740  178.1840  147.0100 C   0  0  0  0  0  3  0  0  0  0  0  0
  190.8700  176.7510  147.5120 O   0  0  0  0  0  1  0  0  0  0  0  0
  184.1370  178.1660  141.0830 O   0  0  0  0  0  0  0  0  0  0  0  0
  182.0180  178.9280  140.5480 N   0  0  0  0  0  0  0  0  0  0  0  0
  182.7600  178.1010  141.1700 N   0  0  0  0  0  0  0  0  0  0  0  0
  179.7440  176.6030  140.5650 O   0  0  0  0  0  1  0  0  0  0  0  0
  180.5700  178.8520  140.6520 C   0  0  1  0  0  3  0  0  0  0  0  0
  180.1860  177.5910  141.4430 C   0  0  1  0  0  3  0  0  0  0  0  0
  179.7910  178.6620  143.3790 C   0  0  0  0  0  2  0  0  0  0  0  0
  180.1140  180.0650  142.8420 C   0  0  0  0  0  2  0  0  0  0  0  0
  180.0160  180.1220  141.3140 C   0  0  0  0  0  2  0  0  0  0  0  0
  179.1850  177.8620  142.3930 O   0  0  0  0  0  0  0  0  0  0  0  0
  1 12  1  0  0  0  0
  2  8  1  0  0  0  0
  3 11  2  0  0  0  0
  4  9  1  1  0  0  0
  4 14  1  0  0  0  0
  5 10  2  0  0  0  0
  6  5  1  0  0  0  0
  6  2  2  0  0  0  0
  7 25  1  6  0  0  0
  7  4  1  0  0  0  0
  7  9  1  0  0  0  0
  8  1  2  0  0  0  0
  8  3  1  0  0  0  0
 10  1  1  0  0  0  0
 11 17  1  0  0  0  0
 11 15  1  0  0  0  0
 12 17  2  0  0  0  0
 13  2  1  0  0  0  0
 14 15  2  0  0  0  0
 15 20  1  0  0  0  0
 16  3  1  1  0  0  0
 16  7  1  0  0  0  0
 16  4  1  0  0  0  0
 18 24  1  0  0  0  0
 18 19  1  0  0  0  0
 20 22  1  0  0  0  0
 20 23  2  0  0  0  0
 21 19  2  0  0  0  0
 22 18  2  0  0  0  0
 23 21  1  0  0  0  0
 25 27  1  0  0  0  0
 26 27  2  0  0  0  0
 29 26  1  1  0  0  0
 29 33  1  0  0  0  0
 29 30  1  0  0  0  0
 30 28  1  6  0  0  0
 30 34  1  0  0  0  0
 32 31  1  0  0  0  0
 33 32  1  0  0  0  0
 34 31  1  0  0  0  0
M  END
>  <MODEL>
9

>  <REMARK>
 VINA RESULT:      -8.8      3.712      8.179
  Name = 
  4 active torsions:
  status: ('A' for Active; 'I' for Inactive)
    1  A    between atoms: N_3  and  C_13
    2  A    between atoms: C_10  and  O_29
    3  A    between atoms: C_12  and  C_28
    4  A    between atoms: N_17  and  O_29
                            x       y       z     vdW  Elec       q    Type
                         _______ _______ _______ _____ _____    ______ ____

>  <TORSDO>
F 4

$$$$
