=
 OpenBabel10262419283D

 31 36  0  0  1  0  0  0  0  0999 V2000
  184.0590  178.5840  143.2380 C   0  0  0  0  0  0  0  0  0  0  0  0
  187.7290  177.9610  143.9130 C   0  0  0  0  0  0  0  0  0  0  0  0
  187.9010  177.9010  145.2700 C   0  0  0  0  0  0  0  0  0  0  0  0
  186.6320  178.2820  147.4590 C   0  0  0  0  0  3  0  0  0  0  0  0
  186.4360  178.2970  143.2490 C   0  0  0  0  0  0  0  0  0  0  0  0
  184.0150  178.7980  141.9590 N   0  0  0  0  0  0  0  0  0  0  0  0
  186.7790  178.3130  146.1410 C   0  0  0  0  0  3  0  0  0  0  0  0
  188.6790  177.7620  141.5960 C   0  0  0  0  0  0  0  0  0  0  0  0
  182.6230  178.8150  144.2100 Cl  0  0  0  0  0  0  0  0  0  0  0  0
  190.3400  177.2780  144.8480 C   0  0  0  0  0  3  0  0  0  0  0  0
  187.5670  177.8120  148.4750 C   0  0  0  0  0  3  0  0  0  0  0  0
  187.5820  178.2280  141.0750 N   0  0  0  0  0  0  0  0  0  0  0  0
  188.8470  177.7150  143.0260 N   0  0  0  0  0  0  0  0  0  0  0  0
  189.7200  177.2450  140.7470 N   0  0  0  0  0  2  0  0  0  0  0  0
  185.2930  178.2220  143.8700 N   0  0  0  0  0  0  0  0  0  0  0  0
  188.8130  177.3970  148.3060 C   0  0  0  0  0  3  0  0  0  0  0  0
  186.4850  178.8200  141.8340 C   0  0  1  0  0  3  0  0  0  0  0  0
  185.1710  178.5400  141.1020 C   0  0  0  0  0  2  0  0  0  0  0  0
  190.1390  177.3800  143.5440 C   0  0  0  0  0  3  0  0  0  0  0  0
  189.2470  177.5070  145.7950 C   0  0  0  0  0  0  0  0  0  0  0  0
  189.5860  177.2990  147.0680 C   0  0  0  0  0  3  0  0  0  0  0  0
  190.8630  175.9380  134.5970 N   0  0  0  0  0  2  0  0  0  0  0  0
  190.2200  175.9460  137.2930 C   0  0  0  0  0  0  0  0  0  0  0  0
  189.3780  178.2130  137.1290 C   0  0  0  0  0  3  0  0  0  0  0  0
  189.3380  178.2910  138.5240 C   0  0  0  0  0  3  0  0  0  0  0  0
  190.5730  174.6530  135.2390 C   0  0  0  0  0  2  0  0  0  0  0  0
  189.7420  177.2010  139.3130 C   0  0  0  0  0  0  0  0  0  0  0  0
  190.6660  174.7840  136.6590 O   0  0  0  0  0  0  0  0  0  0  0  0
  189.8310  177.0440  136.5140 C   0  0  0  0  0  0  0  0  0  0  0  0
  190.1830  176.0280  138.6870 C   0  0  0  0  0  3  0  0  0  0  0  0
  189.8520  176.9120  135.0190 C   0  0  0  0  0  2  0  0  0  0  0  0
  1 15  1  0  0  0  0
  1  9  1  0  0  0  0
  2  3  2  0  0  0  0
  3 20  1  0  0  0  0
  3  7  1  0  0  0  0
  4 11  1  0  0  0  0
  5 15  2  0  0  0  0
  5  2  1  0  0  0  0
  6  1  2  0  0  0  0
  7  4  2  0  0  0  0
  8 13  1  0  0  0  0
 10 20  1  0  0  0  0
 12  8  2  0  0  0  0
 12 17  1  0  0  0  0
 13 19  1  0  0  0  0
 13  2  1  0  0  0  0
 14  8  1  0  0  0  0
 16 11  2  0  0  0  0
 17 18  1  6  0  0  0
 17  5  1  0  0  0  0
 18  6  1  0  0  0  0
 19 10  2  0  0  0  0
 20 21  2  0  0  0  0
 21 16  1  0  0  0  0
 22 31  1  0  0  0  0
 22 26  1  0  0  0  0
 23 30  1  0  0  0  0
 24 25  2  0  0  0  0
 25 27  1  0  0  0  0
 26 28  1  0  0  0  0
 27 14  1  0  0  0  0
 28 23  1  0  0  0  0
 29 24  1  0  0  0  0
 29 23  2  0  0  0  0
 30 27  2  0  0  0  0
 31 29  1  0  0  0  0
M  END
>  <MODEL>
1

>  <REMARK>
 VINA RESULT:     -11.1      0.000      0.000
  Name = 
  1 active torsions:
  status: ('A' for Active; 'I' for Inactive)
    1  A    between atoms: C_9  and  N_23
                            x       y       z     vdW  Elec       q    Type
                         _______ _______ _______ _____ _____    ______ ____

>  <TORSDO>
F 1

$$$$
=
 OpenBabel10262419283D

 31 36  0  0  1  0  0  0  0  0999 V2000
  190.7100  176.7550  146.0730 C   0  0  0  0  0  0  0  0  0  0  0  0
  188.0720  177.4780  143.4600 C   0  0  0  0  0  0  0  0  0  0  0  0
  186.9330  177.8700  144.1120 C   0  0  0  0  0  0  0  0  0  0  0  0
  185.9480  178.0590  146.4670 C   0  0  0  0  0  3  0  0  0  0  0  0
  189.3070  177.0050  144.1490 C   0  0  0  0  0  0  0  0  0  0  0  0
  191.6810  176.2320  145.3900 N   0  0  0  0  0  0  0  0  0  0  0  0
  186.8680  177.7000  145.5810 C   0  0  0  0  0  3  0  0  0  0  0  0
  189.3140  177.0850  141.3130 C   0  0  0  0  0  0  0  0  0  0  0  0
  190.7940  176.7900  147.8200 Cl  0  0  0  0  0  0  0  0  0  0  0  0
  185.8880  178.3370  141.8310 C   0  0  0  0  0  3  0  0  0  0  0  0
  184.6850  178.7530  146.2480 C   0  0  0  0  0  3  0  0  0  0  0  0
  190.2960  176.5190  141.9510 N   0  0  0  0  0  0  0  0  0  0  0  0
  188.1190  177.4830  142.0140 N   0  0  0  0  0  0  0  0  0  0  0  0
  189.4310  177.3620  139.9060 N   0  0  0  0  0  2  0  0  0  0  0  0
  189.5390  177.2460  145.4080 N   0  0  0  0  0  0  0  0  0  0  0  0
  184.1330  179.0970  145.0940 C   0  0  0  0  0  3  0  0  0  0  0  0
  190.2680  176.1470  143.3630 C   0  0  1  0  0  3  0  0  0  0  0  0
  191.6860  176.2540  143.9290 C   0  0  0  0  0  2  0  0  0  0  0  0
  186.9960  177.9190  141.2390 C   0  0  0  0  0  3  0  0  0  0  0  0
  185.7820  178.3640  143.2910 C   0  0  0  0  0  0  0  0  0  0  0  0
  184.6350  178.8760  143.7370 C   0  0  0  0  0  3  0  0  0  0  0  0
  193.2490  175.1900  135.2650 N   0  0  0  0  0  2  0  0  0  0  0  0
  191.2970  176.3670  136.8400 C   0  0  0  0  0  0  0  0  0  0  0  0
  192.9100  176.7920  138.5980 C   0  0  0  0  0  3  0  0  0  0  0  0
  191.8650  177.1070  139.4710 C   0  0  0  0  0  3  0  0  0  0  0  0
  192.1010  175.8040  134.5940 C   0  0  0  0  0  2  0  0  0  0  0  0
  190.5300  177.0510  139.0370 C   0  0  0  0  0  0  0  0  0  0  0  0
  191.0320  175.9870  135.5230 O   0  0  0  0  0  0  0  0  0  0  0  0
  192.6240  176.4100  137.2860 C   0  0  0  0  0  0  0  0  0  0  0  0
  190.2540  176.6790  137.7160 C   0  0  0  0  0  3  0  0  0  0  0  0
  193.7230  176.1010  136.3120 C   0  0  0  0  0  2  0  0  0  0  0  0
  1  9  1  0  0  0  0
  2  3  2  0  0  0  0
  2  5  1  0  0  0  0
  3  7  1  0  0  0  0
  5 15  2  0  0  0  0
  6  1  2  0  0  0  0
  7  4  2  0  0  0  0
  8 12  2  0  0  0  0
  8 13  1  0  0  0  0
 10 20  1  0  0  0  0
 11  4  1  0  0  0  0
 12 17  1  0  0  0  0
 13  2  1  0  0  0  0
 14  8  1  0  0  0  0
 15  1  1  0  0  0  0
 16 11  2  0  0  0  0
 17 18  1  1  0  0  0
 17  5  1  0  0  0  0
 18  6  1  0  0  0  0
 19 10  2  0  0  0  0
 19 13  1  0  0  0  0
 20 21  2  0  0  0  0
 20  3  1  0  0  0  0
 21 16  1  0  0  0  0
 22 31  1  0  0  0  0
 23 29  2  0  0  0  0
 23 30  1  0  0  0  0
 24 25  2  0  0  0  0
 26 22  1  0  0  0  0
 26 28  1  0  0  0  0
 27 25  1  0  0  0  0
 27 14  1  0  0  0  0
 28 23  1  0  0  0  0
 29 24  1  0  0  0  0
 30 27  2  0  0  0  0
 31 29  1  0  0  0  0
M  END
>  <MODEL>
2

>  <REMARK>
 VINA RESULT:     -10.7      2.428      4.281
  Name = 
  1 active torsions:
  status: ('A' for Active; 'I' for Inactive)
    1  A    between atoms: C_9  and  N_23
                            x       y       z     vdW  Elec       q    Type
                         _______ _______ _______ _____ _____    ______ ____

>  <TORSDO>
F 1

$$$$
=
 OpenBabel10262419283D

 31 36  0  0  1  0  0  0  0  0999 V2000
  185.1400  178.5720  141.8370 C   0  0  0  0  0  0  0  0  0  0  0  0
  188.5350  177.6080  143.1960 C   0  0  0  0  0  0  0  0  0  0  0  0
  188.4560  177.6120  144.5630 C   0  0  0  0  0  0  0  0  0  0  0  0
  186.8710  178.2540  146.4660 C   0  0  0  0  0  3  0  0  0  0  0  0
  187.4280  178.0380  142.2940 C   0  0  0  0  0  0  0  0  0  0  0  0
  185.3490  178.7130  140.5640 N   0  0  0  0  0  0  0  0  0  0  0  0
  187.2520  178.1910  145.1970 C   0  0  0  0  0  3  0  0  0  0  0  0
  189.8530  177.1720  141.1020 C   0  0  0  0  0  0  0  0  0  0  0  0
  183.5900  179.0110  142.5190 Cl  0  0  0  0  0  0  0  0  0  0  0  0
  190.8440  176.7120  144.6210 C   0  0  0  0  0  3  0  0  0  0  0  0
  187.5500  177.7500  147.6540 C   0  0  0  0  0  3  0  0  0  0  0  0
  188.9270  177.7180  140.3710 N   0  0  0  0  0  0  0  0  0  0  0  0
  189.7580  177.1930  142.5400 N   0  0  0  0  0  0  0  0  0  0  0  0
  190.9620  176.4980  140.4800 N   0  0  0  0  0  2  0  0  0  0  0  0
  186.1920  178.1210  142.6980 N   0  0  0  0  0  0  0  0  0  0  0  0
  188.7510  177.1980  147.7330 C   0  0  0  0  0  3  0  0  0  0  0  0
  187.7870  178.4670  140.8920 C   0  0  1  0  0  3  0  0  0  0  0  0
  186.6010  178.2840  139.9430 C   0  0  0  0  0  2  0  0  0  0  0  0
  190.8910  176.7550  143.2990 C   0  0  0  0  0  3  0  0  0  0  0  0
  189.6330  177.1110  145.3420 C   0  0  0  0  0  0  0  0  0  0  0  0
  189.7150  176.9450  146.6620 C   0  0  0  0  0  3  0  0  0  0  0  0
  193.4440  176.6950  134.5950 N   0  0  0  0  0  2  0  0  0  0  0  0
  192.8650  176.3460  137.2820 C   0  0  0  0  0  0  0  0  0  0  0  0
  190.5170  176.0170  136.7770 C   0  0  0  0  0  3  0  0  0  0  0  0
  190.2160  176.1360  138.1360 C   0  0  0  0  0  3  0  0  0  0  0  0
  194.5080  176.1930  135.4680 C   0  0  0  0  0  2  0  0  0  0  0  0
  191.2340  176.3650  139.0770 C   0  0  0  0  0  0  0  0  0  0  0  0
  194.1830  176.4560  136.8340 O   0  0  0  0  0  0  0  0  0  0  0  0
  191.8410  176.1340  136.3490 C   0  0  0  0  0  0  0  0  0  0  0  0
  192.5590  176.4690  138.6400 C   0  0  0  0  0  3  0  0  0  0  0  0
  192.2050  175.9740  134.9020 C   0  0  0  0  0  2  0  0  0  0  0  0
  1  9  1  0  0  0  0
  1 15  1  0  0  0  0
  2  3  2  0  0  0  0
  3  7  1  0  0  0  0
  3 20  1  0  0  0  0
  4 11  1  0  0  0  0
  5 15  2  0  0  0  0
  5  2  1  0  0  0  0
  6  1  2  0  0  0  0
  7  4  2  0  0  0  0
  8 13  1  0  0  0  0
 10 20  1  0  0  0  0
 11 16  2  0  0  0  0
 12 17  1  0  0  0  0
 12  8  2  0  0  0  0
 13  2  1  0  0  0  0
 13 19  1  0  0  0  0
 14  8  1  0  0  0  0
 17 18  1  6  0  0  0
 17  5  1  0  0  0  0
 18  6  1  0  0  0  0
 19 10  2  0  0  0  0
 20 21  2  0  0  0  0
 21 16  1  0  0  0  0
 22 31  1  0  0  0  0
 22 26  1  0  0  0  0
 23 30  1  0  0  0  0
 24 25  2  0  0  0  0
 25 27  1  0  0  0  0
 26 28  1  0  0  0  0
 27 14  1  0  0  0  0
 28 23  1  0  0  0  0
 29 24  1  0  0  0  0
 29 23  2  0  0  0  0
 30 27  2  0  0  0  0
 31 29  1  0  0  0  0
M  END
>  <MODEL>
3

>  <REMARK>
 VINA RESULT:     -10.7      1.737      1.938
  Name = 
  1 active torsions:
  status: ('A' for Active; 'I' for Inactive)
    1  A    between atoms: C_9  and  N_23
                            x       y       z     vdW  Elec       q    Type
                         _______ _______ _______ _____ _____    ______ ____

>  <TORSDO>
F 1

$$$$
=
 OpenBabel10262419283D

 31 36  0  0  1  0  0  0  0  0999 V2000
  186.5290  178.2810  138.5800 C   0  0  0  0  0  0  0  0  0  0  0  0
  184.0770  178.7070  141.4280 C   0  0  0  0  0  0  0  0  0  0  0  0
  182.8290  178.8690  140.8870 C   0  0  0  0  0  0  0  0  0  0  0  0
  181.6610  179.1920  138.6330 C   0  0  0  0  0  3  0  0  0  0  0  0
  185.3300  178.6140  140.6250 C   0  0  0  0  0  0  0  0  0  0  0  0
  187.6860  178.3100  139.1650 N   0  0  0  0  0  0  0  0  0  0  0  0
  182.7180  179.0900  139.4280 C   0  0  0  0  0  3  0  0  0  0  0  0
  185.5470  178.4610  143.4500 C   0  0  0  0  0  0  0  0  0  0  0  0
  186.4370  178.2610  136.8330 Cl  0  0  0  0  0  0  0  0  0  0  0  0
  181.8870  178.8400  143.2580 C   0  0  0  0  0  3  0  0  0  0  0  0
  180.2460  179.1110  138.9730 C   0  0  0  0  0  3  0  0  0  0  0  0
  186.6180  178.5600  142.7190 N   0  0  0  0  0  0  0  0  0  0  0  0
  184.2420  178.6430  142.8650 N   0  0  0  0  0  0  0  0  0  0  0  0
  185.6530  178.1220  144.8440 N   0  0  0  0  0  2  0  0  0  0  0  0
  185.3240  178.3300  139.3530 N   0  0  0  0  0  0  0  0  0  0  0  0
  179.7020  179.0100  140.1770 C   0  0  0  0  0  3  0  0  0  0  0  0
  186.6330  178.9450  141.3100 C   0  0  1  0  0  3  0  0  0  0  0  0
  187.8070  178.2470  140.6210 C   0  0  0  0  0  2  0  0  0  0  0  0
  183.1130  178.7180  143.7420 C   0  0  0  0  0  3  0  0  0  0  0  0
  181.6540  178.9030  141.8140 C   0  0  0  0  0  0  0  0  0  0  0  0
  180.3650  178.9540  141.4790 C   0  0  0  0  0  3  0  0  0  0  0  0
  191.3450  176.2300  147.0470 N   0  0  0  0  0  2  0  0  0  0  0  0
  189.1830  177.2450  145.6420 C   0  0  0  0  0  0  0  0  0  0  0  0
  188.0780  177.8670  147.7070 C   0  0  0  0  0  3  0  0  0  0  0  0
  186.8970  178.0980  146.9970 C   0  0  0  0  0  3  0  0  0  0  0  0
  191.5760  176.7110  145.6830 C   0  0  0  0  0  2  0  0  0  0  0  0
  186.8480  177.9000  145.6060 C   0  0  0  0  0  0  0  0  0  0  0  0
  190.3350  176.8100  144.9830 O   0  0  0  0  0  0  0  0  0  0  0  0
  189.2180  177.4280  147.0300 C   0  0  0  0  0  0  0  0  0  0  0  0
  188.0000  177.4730  144.9350 C   0  0  0  0  0  3  0  0  0  0  0  0
  190.5130  177.2070  147.7560 C   0  0  0  0  0  2  0  0  0  0  0  0
  1  6  2  0  0  0  0
  1 15  1  0  0  0  0
  2 13  1  0  0  0  0
  3  2  2  0  0  0  0
  3 20  1  0  0  0  0
  4 11  1  0  0  0  0
  4  7  2  0  0  0  0
  5 17  1  0  0  0  0
  5  2  1  0  0  0  0
  6 18  1  0  0  0  0
  7  3  1  0  0  0  0
  8 14  1  0  0  0  0
  9  1  1  0  0  0  0
 10 19  2  0  0  0  0
 11 16  2  0  0  0  0
 12  8  2  0  0  0  0
 13  8  1  0  0  0  0
 13 19  1  0  0  0  0
 14 27  1  0  0  0  0
 15  5  2  0  0  0  0
 16 21  1  0  0  0  0
 17 18  1  6  0  0  0
 17 12  1  0  0  0  0
 20 10  1  0  0  0  0
 21 20  2  0  0  0  0
 22 31  1  0  0  0  0
 23 29  1  0  0  0  0
 25 24  1  0  0  0  0
 26 22  1  0  0  0  0
 27 25  2  0  0  0  0
 28 23  1  0  0  0  0
 28 26  1  0  0  0  0
 29 24  2  0  0  0  0
 29 31  1  0  0  0  0
 30 27  1  0  0  0  0
 30 23  2  0  0  0  0
M  END
>  <MODEL>
4

>  <REMARK>
 VINA RESULT:     -10.5      3.392      8.141
  Name = 
  1 active torsions:
  status: ('A' for Active; 'I' for Inactive)
    1  A    between atoms: C_9  and  N_23
                            x       y       z     vdW  Elec       q    Type
                         _______ _______ _______ _____ _____    ______ ____

>  <TORSDO>
F 1

$$$$
=
 OpenBabel10262419283D

 31 36  0  0  1  0  0  0  0  0999 V2000
  185.3070  178.2530  144.6910 C   0  0  0  0  0  0  0  0  0  0  0  0
  188.8530  177.5140  143.6030 C   0  0  0  0  0  0  0  0  0  0  0  0
  189.5910  177.2550  144.7260 C   0  0  0  0  0  0  0  0  0  0  0  0
  189.4240  177.3170  147.2800 C   0  0  0  0  0  3  0  0  0  0  0  0
  187.4270  177.9530  143.6220 C   0  0  0  0  0  0  0  0  0  0  0  0
  184.7290  178.6540  143.6000 N   0  0  0  0  0  0  0  0  0  0  0  0
  188.9880  177.5420  146.0470 C   0  0  0  0  0  3  0  0  0  0  0  0
  188.6920  177.6530  141.1000 C   0  0  0  0  0  0  0  0  0  0  0  0
  184.4520  178.3480  146.2140 Cl  0  0  0  0  0  0  0  0  0  0  0  0
  191.5580  176.6850  143.2030 C   0  0  0  0  0  3  0  0  0  0  0  0
  190.6710  176.6970  147.7130 C   0  0  0  0  0  3  0  0  0  0  0  0
  187.5130  178.1970  141.1770 N   0  0  0  0  0  0  0  0  0  0  0  0
  189.4580  177.3950  142.2930 N   0  0  0  0  0  0  0  0  0  0  0  0
  189.2240  177.2600  139.8220 N   0  0  0  0  0  2  0  0  0  0  0  0
  186.6640  177.7950  144.6660 N   0  0  0  0  0  0  0  0  0  0  0  0
  191.6890  176.3040  146.9630 C   0  0  0  0  0  3  0  0  0  0  0  0
  186.8960  178.6780  142.4100 C   0  0  1  0  0  3  0  0  0  0  0  0
  185.3790  178.5180  142.2980 C   0  0  0  0  0  2  0  0  0  0  0  0
  190.8200  176.9790  142.1440 C   0  0  0  0  0  3  0  0  0  0  0  0
  191.0010  176.7790  144.5540 C   0  0  0  0  0  0  0  0  0  0  0  0
  191.8410  176.3840  145.5100 C   0  0  0  0  0  3  0  0  0  0  0  0
  185.5640  176.9300  134.5940 N   0  0  0  0  0  2  0  0  0  0  0  0
  186.6560  177.2110  137.1250 C   0  0  0  0  0  0  0  0  0  0  0  0
  188.7140  178.0820  136.1870 C   0  0  0  0  0  3  0  0  0  0  0  0
  189.3330  177.9380  137.4320 C   0  0  0  0  0  3  0  0  0  0  0  0
  184.6480  177.1250  135.7200 C   0  0  0  0  0  2  0  0  0  0  0  0
  188.6210  177.4260  138.5300 C   0  0  0  0  0  0  0  0  0  0  0  0
  185.3190  176.8460  136.9500 O   0  0  0  0  0  0  0  0  0  0  0  0
  187.3780  177.7060  136.0320 C   0  0  0  0  0  0  0  0  0  0  0  0
  187.2780  177.0650  138.3670 C   0  0  0  0  0  3  0  0  0  0  0  0
  186.6720  177.8820  134.7190 C   0  0  0  0  0  2  0  0  0  0  0  0
  1  9  1  0  0  0  0
  2  5  1  0  0  0  0
  2  3  2  0  0  0  0
  3  7  1  0  0  0  0
  4 11  1  0  0  0  0
  5 15  2  0  0  0  0
  6  1  2  0  0  0  0
  7  4  2  0  0  0  0
  8 12  2  0  0  0  0
  8 13  1  0  0  0  0
 10 20  1  0  0  0  0
 12 17  1  0  0  0  0
 13  2  1  0  0  0  0
 14  8  1  0  0  0  0
 15  1  1  0  0  0  0
 16 11  2  0  0  0  0
 17 18  1  6  0  0  0
 17  5  1  0  0  0  0
 18  6  1  0  0  0  0
 19 13  1  0  0  0  0
 19 10  2  0  0  0  0
 20  3  1  0  0  0  0
 20 21  2  0  0  0  0
 21 16  1  0  0  0  0
 22 31  1  0  0  0  0
 22 26  1  0  0  0  0
 23 30  1  0  0  0  0
 24 25  2  0  0  0  0
 25 27  1  0  0  0  0
 26 28  1  0  0  0  0
 27 14  1  0  0  0  0
 28 23  1  0  0  0  0
 29 24  1  0  0  0  0
 29 23  2  0  0  0  0
 30 27  2  0  0  0  0
 31 29  1  0  0  0  0
M  END
>  <MODEL>
5

>  <REMARK>
 VINA RESULT:     -10.5      2.265      2.756
  Name = 
  1 active torsions:
  status: ('A' for Active; 'I' for Inactive)
    1  A    between atoms: C_9  and  N_23
                            x       y       z     vdW  Elec       q    Type
                         _______ _______ _______ _____ _____    ______ ____

>  <TORSDO>
F 1

$$$$
=
 OpenBabel10262419283D

 31 36  0  0  1  0  0  0  0  0999 V2000
  191.1930  177.5030  140.7240 C   0  0  0  0  0  0  0  0  0  0  0  0
  188.6740  177.4810  143.5460 C   0  0  0  0  0  0  0  0  0  0  0  0
  189.3540  177.2500  144.7130 C   0  0  0  0  0  0  0  0  0  0  0  0
  191.6800  176.6220  145.5730 C   0  0  0  0  0  3  0  0  0  0  0  0
  189.3040  177.4590  142.1940 C   0  0  0  0  0  0  0  0  0  0  0  0
  190.4560  177.5510  139.6570 N   0  0  0  0  0  0  0  0  0  0  0  0
  190.7700  176.8300  144.6310 C   0  0  0  0  0  3  0  0  0  0  0  0
  186.5230  178.0000  142.3570 C   0  0  0  0  0  0  0  0  0  0  0  0
  192.9220  177.2810  140.5790 Cl  0  0  0  0  0  0  0  0  0  0  0  0
  187.1590  177.6080  145.9650 C   0  0  0  0  0  3  0  0  0  0  0  0
  191.5500  176.7530  147.0200 C   0  0  0  0  0  3  0  0  0  0  0  0
  187.0810  177.7980  141.1990 N   0  0  0  0  0  0  0  0  0  0  0  0
  187.2510  177.7430  143.5740 N   0  0  0  0  0  0  0  0  0  0  0  0
  185.1870  178.5280  142.4330 N   0  0  0  0  0  2  0  0  0  0  0  0
  190.5920  177.5640  142.0230 N   0  0  0  0  0  0  0  0  0  0  0  0
  190.4570  177.0200  147.7190 C   0  0  0  0  0  3  0  0  0  0  0  0
  188.4080  177.2220  141.0030 C   0  0  1  0  0  3  0  0  0  0  0  0
  189.0200  177.8140  139.7320 C   0  0  0  0  0  2  0  0  0  0  0  0
  186.5330  177.7920  144.8130 C   0  0  0  0  0  3  0  0  0  0  0  0
  188.5990  177.3470  146.0020 C   0  0  0  0  0  0  0  0  0  0  0  0
  189.0960  177.2540  147.2360 C   0  0  0  0  0  3  0  0  0  0  0  0
  180.3400  178.9460  138.2890 N   0  0  0  0  0  2  0  0  0  0  0  0
  182.0450  178.9270  140.4740 C   0  0  0  0  0  0  0  0  0  0  0  0
  183.8910  179.6750  139.0940 C   0  0  0  0  0  3  0  0  0  0  0  0
  184.7780  179.3780  140.1320 C   0  0  0  0  0  3  0  0  0  0  0  0
  179.7560  179.1360  139.6190 C   0  0  0  0  0  2  0  0  0  0  0  0
  184.3070  178.8500  141.3460 C   0  0  0  0  0  0  0  0  0  0  0  0
  180.6750  178.7010  140.6230 O   0  0  0  0  0  0  0  0  0  0  0  0
  182.5260  179.4380  139.2610 C   0  0  0  0  0  0  0  0  0  0  0  0
  182.9340  178.6280  141.5090 C   0  0  0  0  0  3  0  0  0  0  0  0
  181.5420  179.7790  138.1810 C   0  0  0  0  0  2  0  0  0  0  0  0
  1 15  1  0  0  0  0
  2 13  1  0  0  0  0
  2  3  2  0  0  0  0
  3 20  1  0  0  0  0
  4 11  1  0  0  0  0
  5  2  1  0  0  0  0
  6 18  1  0  0  0  0
  6  1  2  0  0  0  0
  7  3  1  0  0  0  0
  7  4  2  0  0  0  0
  8 14  1  0  0  0  0
  8 13  1  0  0  0  0
  9  1  1  0  0  0  0
 10 20  1  0  0  0  0
 11 16  2  0  0  0  0
 12  8  2  0  0  0  0
 13 19  1  0  0  0  0
 15  5  2  0  0  0  0
 17 18  1  6  0  0  0
 17 12  1  0  0  0  0
 17  5  1  0  0  0  0
 19 10  2  0  0  0  0
 20 21  2  0  0  0  0
 21 16  1  0  0  0  0
 22 26  1  0  0  0  0
 23 28  1  0  0  0  0
 23 30  1  0  0  0  0
 24 29  1  0  0  0  0
 24 25  2  0  0  0  0
 25 27  1  0  0  0  0
 26 28  1  0  0  0  0
 27 30  2  0  0  0  0
 27 14  1  0  0  0  0
 29 23  2  0  0  0  0
 31 22  1  0  0  0  0
 31 29  1  0  0  0  0
M  END
>  <MODEL>
6

>  <REMARK>
 VINA RESULT:     -10.2      3.618      6.371
  Name = 
  1 active torsions:
  status: ('A' for Active; 'I' for Inactive)
    1  A    between atoms: C_9  and  N_23
                            x       y       z     vdW  Elec       q    Type
                         _______ _______ _______ _____ _____    ______ ____

>  <TORSDO>
F 1

$$$$
=
 OpenBabel10262419283D

 31 36  0  0  1  0  0  0  0  0999 V2000
  191.2520  176.5810  144.7910 C   0  0  0  0  0  0  0  0  0  0  0  0
  187.8090  177.6410  143.6370 C   0  0  0  0  0  0  0  0  0  0  0  0
  187.0660  177.9340  144.7490 C   0  0  0  0  0  0  0  0  0  0  0  0
  187.1600  177.7960  147.3030 C   0  0  0  0  0  3  0  0  0  0  0  0
  189.1920  177.0840  143.6800 C   0  0  0  0  0  0  0  0  0  0  0  0
  191.8220  176.1600  143.7040 N   0  0  0  0  0  0  0  0  0  0  0  0
  187.6080  177.5660  146.0760 C   0  0  0  0  0  3  0  0  0  0  0  0
  188.0240  177.5500  141.1360 C   0  0  0  0  0  0  0  0  0  0  0  0
  192.0550  176.3780  146.3320 Cl  0  0  0  0  0  0  0  0  0  0  0  0
  185.1940  178.7030  143.1940 C   0  0  0  0  0  3  0  0  0  0  0  0
  185.9590  178.5080  147.7220 C   0  0  0  0  0  3  0  0  0  0  0  0
  189.1510  176.9070  141.2270 N   0  0  0  0  0  0  0  0  0  0  0  0
  187.2510  177.8430  142.3170 N   0  0  0  0  0  0  0  0  0  0  0  0
  187.5600  178.0170  139.8560 N   0  0  0  0  0  2  0  0  0  0  0  0
  189.9390  177.1520  144.7450 N   0  0  0  0  0  0  0  0  0  0  0  0
  184.9960  179.0030  146.9590 C   0  0  0  0  0  3  0  0  0  0  0  0
  189.6930  176.3460  142.4620 C   0  0  1  0  0  3  0  0  0  0  0  0
  191.2210  176.3820  142.3910 C   0  0  0  0  0  2  0  0  0  0  0  0
  185.9320  178.3750  142.1460 C   0  0  0  0  0  3  0  0  0  0  0  0
  185.7060  178.5300  144.5550 C   0  0  0  0  0  0  0  0  0  0  0  0
  184.8760  178.9710  145.5010 C   0  0  0  0  0  3  0  0  0  0  0  0
  190.3620  175.7180  134.5940 N   0  0  0  0  0  2  0  0  0  0  0  0
  188.7250  176.3430  136.7400 C   0  0  0  0  0  0  0  0  0  0  0  0
  189.4300  178.6600  136.6580 C   0  0  0  0  0  3  0  0  0  0  0  0
  188.8320  178.8790  137.9020 C   0  0  0  0  0  3  0  0  0  0  0  0
  189.1740  174.8910  134.8160 C   0  0  0  0  0  2  0  0  0  0  0  0
  188.1810  177.8320  138.5760 C   0  0  0  0  0  0  0  0  0  0  0  0
  188.6890  175.0800  136.1460 O   0  0  0  0  0  0  0  0  0  0  0  0
  189.3870  177.3890  136.0830 C   0  0  0  0  0  0  0  0  0  0  0  0
  188.1320  176.5640  137.9860 C   0  0  0  0  0  3  0  0  0  0  0  0
  189.9860  177.1280  134.7320 C   0  0  0  0  0  2  0  0  0  0  0  0
  1  9  1  0  0  0  0
  2  5  1  0  0  0  0
  2  3  2  0  0  0  0
  3  7  1  0  0  0  0
  4 11  1  0  0  0  0
  5 15  2  0  0  0  0
  6  1  2  0  0  0  0
  7  4  2  0  0  0  0
  8 12  2  0  0  0  0
  8 13  1  0  0  0  0
 10 20  1  0  0  0  0
 12 17  1  0  0  0  0
 13  2  1  0  0  0  0
 14  8  1  0  0  0  0
 15  1  1  0  0  0  0
 16 11  2  0  0  0  0
 17 18  1  6  0  0  0
 17  5  1  0  0  0  0
 18  6  1  0  0  0  0
 19 13  1  0  0  0  0
 19 10  2  0  0  0  0
 20  3  1  0  0  0  0
 20 21  2  0  0  0  0
 21 16  1  0  0  0  0
 22 31  1  0  0  0  0
 22 26  1  0  0  0  0
 23 30  1  0  0  0  0
 24 25  2  0  0  0  0
 25 27  1  0  0  0  0
 26 28  1  0  0  0  0
 27 14  1  0  0  0  0
 28 23  1  0  0  0  0
 29 24  1  0  0  0  0
 29 23  2  0  0  0  0
 30 27  2  0  0  0  0
 31 29  1  0  0  0  0
M  END
>  <MODEL>
7

>  <REMARK>
 VINA RESULT:     -10.2      2.318      3.914
  Name = 
  1 active torsions:
  status: ('A' for Active; 'I' for Inactive)
    1  A    between atoms: C_9  and  N_23
                            x       y       z     vdW  Elec       q    Type
                         _______ _______ _______ _____ _____    ______ ____

>  <TORSDO>
F 1

$$$$
=
 OpenBabel10262419283D

 31 36  0  0  1  0  0  0  0  0999 V2000
  185.0510  178.4800  145.7030 C   0  0  0  0  0  0  0  0  0  0  0  0
  187.1790  178.2350  142.5850 C   0  0  0  0  0  0  0  0  0  0  0  0
  188.4400  177.8620  142.9660 C   0  0  0  0  0  0  0  0  0  0  0  0
  189.8630  177.4970  145.0620 C   0  0  0  0  0  3  0  0  0  0  0  0
  186.0740  178.5400  143.5390 C   0  0  0  0  0  0  0  0  0  0  0  0
  183.9420  179.0000  145.2760 N   0  0  0  0  0  0  0  0  0  0  0  0
  188.7740  177.8790  144.4080 C   0  0  0  0  0  3  0  0  0  0  0  0
  185.5330  178.7620  140.7630 C   0  0  0  0  0  0  0  0  0  0  0  0
  185.3030  178.2530  147.4190 Cl  0  0  0  0  0  0  0  0  0  0  0  0
  189.0560  177.7190  140.4940 C   0  0  0  0  0  3  0  0  0  0  0  0
  191.0960  176.9250  144.5350 C   0  0  0  0  0  3  0  0  0  0  0  0
  184.6610  179.1830  141.6320 N   0  0  0  0  0  0  0  0  0  0  0  0
  186.8580  178.3820  141.1810 N   0  0  0  0  0  0  0  0  0  0  0  0
  185.1650  178.6280  139.3780 N   0  0  0  0  0  2  0  0  0  0  0  0
  186.0980  178.1500  144.7820 N   0  0  0  0  0  0  0  0  0  0  0  0
  191.4360  176.7480  143.2670 C   0  0  0  0  0  3  0  0  0  0  0  0
  184.9370  179.4030  143.0490 C   0  0  1  0  0  3  0  0  0  0  0  0
  183.6610  179.1320  143.8480 C   0  0  0  0  0  2  0  0  0  0  0  0
  187.8350  178.1150  140.1690 C   0  0  0  0  0  3  0  0  0  0  0  0
  189.4390  177.5450  141.8960 C   0  0  0  0  0  0  0  0  0  0  0  0
  190.6750  177.0750  142.0610 C   0  0  0  0  0  3  0  0  0  0  0  0
  179.5330  181.1600  137.7340 N   0  0  0  0  0  2  0  0  0  0  0  0
  182.1760  180.5950  138.3430 C   0  0  0  0  0  0  0  0  0  0  0  0
  181.9470  178.3530  137.4510 C   0  0  0  0  0  3  0  0  0  0  0  0
  183.1730  178.0070  138.0270 C   0  0  0  0  0  3  0  0  0  0  0  0
  180.4790  182.2770  137.7930 C   0  0  0  0  0  2  0  0  0  0  0  0
  183.9060  178.9490  138.7680 C   0  0  0  0  0  0  0  0  0  0  0  0
  181.6570  181.8820  138.4980 O   0  0  0  0  0  0  0  0  0  0  0  0
  181.4430  179.6440  137.6210 C   0  0  0  0  0  0  0  0  0  0  0  0
  183.3990  180.2440  138.9210 C   0  0  0  0  0  3  0  0  0  0  0  0
  180.1490  180.0610  136.9850 C   0  0  0  0  0  2  0  0  0  0  0  0
  1  9  1  0  0  0  0
  2  3  2  0  0  0  0
  2  5  1  0  0  0  0
  3  7  1  0  0  0  0
  5 15  2  0  0  0  0
  6  1  2  0  0  0  0
  7  4  2  0  0  0  0
  8 13  1  0  0  0  0
  8 12  2  0  0  0  0
 10 20  1  0  0  0  0
 11  4  1  0  0  0  0
 12 17  1  0  0  0  0
 13  2  1  0  0  0  0
 14  8  1  0  0  0  0
 15  1  1  0  0  0  0
 16 11  2  0  0  0  0
 17  5  1  0  0  0  0
 17 18  1  1  0  0  0
 18  6  1  0  0  0  0
 19 10  2  0  0  0  0
 19 13  1  0  0  0  0
 20 21  2  0  0  0  0
 20  3  1  0  0  0  0
 21 16  1  0  0  0  0
 22 26  1  0  0  0  0
 23 28  1  0  0  0  0
 23 30  1  0  0  0  0
 24 29  1  0  0  0  0
 24 25  2  0  0  0  0
 25 27  1  0  0  0  0
 26 28  1  0  0  0  0
 27 30  2  0  0  0  0
 27 14  1  0  0  0  0
 29 23  2  0  0  0  0
 31 29  1  0  0  0  0
 31 22  1  0  0  0  0
M  END
>  <MODEL>
8

>  <REMARK>
 VINA RESULT:     -10.0      3.711      6.258
  Name = 
  1 active torsions:
  status: ('A' for Active; 'I' for Inactive)
    1  A    between atoms: C_9  and  N_23
                            x       y       z     vdW  Elec       q    Type
                         _______ _______ _______ _____ _____    ______ ____

>  <TORSDO>
F 1

$$$$
=
 OpenBabel10262419283D

 31 36  0  0  1  0  0  0  0  0999 V2000
  190.3460  177.6180  142.1150 C   0  0  0  0  0  0  0  0  0  0  0  0
  187.3430  177.9610  144.3890 C   0  0  0  0  0  0  0  0  0  0  0  0
  187.7880  177.9090  145.6830 C   0  0  0  0  0  0  0  0  0  0  0  0
  189.9050  177.4450  147.0450 C   0  0  0  0  0  3  0  0  0  0  0  0
  188.2150  177.7560  143.1960 C   0  0  0  0  0  0  0  0  0  0  0  0
  189.8240  177.5030  140.9330 N   0  0  0  0  0  0  0  0  0  0  0  0
  189.1900  177.5030  145.9290 C   0  0  0  0  0  3  0  0  0  0  0  0
  185.4600  178.2720  142.7560 C   0  0  0  0  0  0  0  0  0  0  0  0
  192.0700  177.4050  142.3300 Cl  0  0  0  0  0  0  0  0  0  0  0  0
  185.4020  178.4080  146.4370 C   0  0  0  0  0  3  0  0  0  0  0  0
  189.5070  177.7790  148.4080 C   0  0  0  0  0  3  0  0  0  0  0  0
  186.2230  177.9150  141.7640 N   0  0  0  0  0  0  0  0  0  0  0  0
  185.9430  178.2020  144.1120 N   0  0  0  0  0  0  0  0  0  0  0  0
  184.1400  178.7850  142.5030 N   0  0  0  0  0  2  0  0  0  0  0  0
  189.5130  177.8550  143.2560 N   0  0  0  0  0  0  0  0  0  0  0  0
  188.3050  178.1270  148.8430 C   0  0  0  0  0  3  0  0  0  0  0  0
  187.5560  177.3370  141.9040 C   0  0  1  0  0  3  0  0  0  0  0  0
  188.4030  177.7520  140.6990 C   0  0  0  0  0  2  0  0  0  0  0  0
  185.0060  178.4170  145.1740 C   0  0  0  0  0  3  0  0  0  0  0  0
  186.8070  178.1780  146.7810 C   0  0  0  0  0  0  0  0  0  0  0  0
  187.0620  178.2690  148.0860 C   0  0  0  0  0  3  0  0  0  0  0  0
  180.2220  178.4430  137.4670 N   0  0  0  0  0  2  0  0  0  0  0  0
  181.4450  178.7600  139.9330 C   0  0  0  0  0  0  0  0  0  0  0  0
  183.4900  179.5070  138.8700 C   0  0  0  0  0  3  0  0  0  0  0  0
  184.1620  179.3780  140.0890 C   0  0  0  0  0  3  0  0  0  0  0  0
  179.3700  178.7150  138.6270 C   0  0  0  0  0  2  0  0  0  0  0  0
  183.4830  178.9350  141.2360 C   0  0  0  0  0  0  0  0  0  0  0  0
  180.0870  178.4480  139.8330 O   0  0  0  0  0  0  0  0  0  0  0  0
  182.1340  179.1860  138.7900 C   0  0  0  0  0  0  0  0  0  0  0  0
  182.1200  178.6280  141.1490 C   0  0  0  0  0  3  0  0  0  0  0  0
  181.3740  179.3490  137.5070 C   0  0  0  0  0  2  0  0  0  0  0  0
  1  9  1  0  0  0  0
  1 15  1  0  0  0  0
  2  3  2  0  0  0  0
  3  7  1  0  0  0  0
  3 20  1  0  0  0  0
  4 11  1  0  0  0  0
  5 15  2  0  0  0  0
  5  2  1  0  0  0  0
  6  1  2  0  0  0  0
  7  4  2  0  0  0  0
  8 13  1  0  0  0  0
 10 20  1  0  0  0  0
 11 16  2  0  0  0  0
 12 17  1  0  0  0  0
 12  8  2  0  0  0  0
 13  2  1  0  0  0  0
 13 19  1  0  0  0  0
 14  8  1  0  0  0  0
 17 18  1  6  0  0  0
 17  5  1  0  0  0  0
 18  6  1  0  0  0  0
 19 10  2  0  0  0  0
 20 21  2  0  0  0  0
 21 16  1  0  0  0  0
 22 31  1  0  0  0  0
 22 26  1  0  0  0  0
 23 30  1  0  0  0  0
 24 25  2  0  0  0  0
 25 27  1  0  0  0  0
 26 28  1  0  0  0  0
 27 14  1  0  0  0  0
 28 23  1  0  0  0  0
 29 24  1  0  0  0  0
 29 23  2  0  0  0  0
 30 27  2  0  0  0  0
 31 29  1  0  0  0  0
M  END
>  <MODEL>
9

>  <REMARK>
 VINA RESULT:      -9.8      3.793      6.280
  Name = 
  1 active torsions:
  status: ('A' for Active; 'I' for Inactive)
    1  A    between atoms: C_9  and  N_23
                            x       y       z     vdW  Elec       q    Type
                         _______ _______ _______ _____ _____    ______ ____

>  <TORSDO>
F 1

$$$$
