=
 OpenBabel10262420583D

 28 31  0  0  1  0  0  0  0  0999 V2000
  186.5910  177.2870  145.7450 C   0  0  1  0  0  3  0  0  0  0  0  0
  187.7660  177.5620  144.8330 C   0  0  1  0  0  3  0  0  0  0  0  0
  188.0060  176.8610  146.1560 C   0  0  1  0  0  3  0  0  0  0  0  0
  190.0470  177.2130  147.5230 C   0  0  0  0  0  1  0  0  0  0  0  0
  188.7180  177.8120  147.1100 C   0  0  0  0  0  2  0  0  0  0  0  0
  186.1080  178.5950  146.3570 C   0  0  0  0  0  2  0  0  0  0  0  0
  185.7250  179.4910  145.3220 O   0  0  0  0  0  0  0  0  0  0  0  0
  183.9230  178.8520  142.1630 C   0  0  0  0  0  3  0  0  0  0  0  0
  184.6770  179.2190  144.4410 C   0  0  0  0  0  0  0  0  0  0  0  0
  182.3330  178.7660  143.9850 C   0  0  0  0  0  0  0  0  0  0  0  0
  184.9510  179.1250  143.0710 C   0  0  0  0  0  3  0  0  0  0  0  0
  183.3590  179.0380  144.8940 C   0  0  0  0  0  3  0  0  0  0  0  0
  181.0650  178.5910  144.4290 F   0  0  0  0  0  0  0  0  0  0  0  0
  182.6150  178.6730  142.6200 C   0  0  0  0  0  3  0  0  0  0  0  0
  187.7840  176.5310  143.7120 C   0  0  0  0  0  2  0  0  0  0  0  0
  189.0440  177.5330  141.6850 C   0  0  2  0  0  0  0  0  0  0  0  0
  190.8920  178.1620  143.0780 N   0  0  0  0  0  0  0  0  0  0  0  0
  189.9330  178.6780  142.1080 C   0  0  0  0  0  2  0  0  0  0  0  0
  191.0450  179.1840  144.0990 C   0  0  0  0  0  1  0  0  0  0  0  0
  190.2650  177.0060  143.7150 C   0  0  2  0  0  3  0  0  0  0  0  0
  191.2620  175.8650  143.8000 C   0  0  0  0  0  1  0  0  0  0  0  0
  187.7610  178.0070  141.3930 O   0  0  0  0  0  1  0  0  0  0  0  0
  189.0710  176.5790  142.8750 C   0  0  1  0  0  3  0  0  0  0  0  0
  189.6440  176.8620  140.4530 C   0  0  0  0  0  2  0  0  0  0  0  0
  188.8840  177.1970  139.2590 N   0  0  0  0  0  0  0  0  0  0  0  0
  189.5660  176.5480  138.1310 C   0  0  0  0  0  2  0  0  0  0  0  0
  189.7890  177.9640  138.3910 C   0  0  1  0  0  3  0  0  0  0  0  0
  188.9640  178.7920  137.4290 C   0  0  0  0  0  1  0  0  0  0  0  0
  1  3  1  0  0  0  0
  1  6  1  1  0  0  0
  2 15  1  6  0  0  0
  2  1  1  0  0  0  0
  2  3  1  0  0  0  0
  3  5  1  1  0  0  0
  5  4  1  0  0  0  0
  7  6  1  0  0  0  0
  8 14  2  0  0  0  0
  8 11  1  0  0  0  0
  9 12  1  0  0  0  0
  9  7  1  0  0  0  0
 10 13  1  0  0  0  0
 10 12  2  0  0  0  0
 11  9  2  0  0  0  0
 14 10  1  0  0  0  0
 16 22  1  6  0  0  0
 16 18  1  0  0  0  0
 16 23  1  0  0  0  0
 17 20  1  0  0  0  0
 17 19  1  0  0  0  0
 18 17  1  0  0  0  0
 20 21  1  6  0  0  0
 23 15  1  1  0  0  0
 23 20  1  0  0  0  0
 24 16  1  0  0  0  0
 25 24  1  0  0  0  0
 26 27  1  0  0  0  0
 26 25  1  0  0  0  0
 27 28  1  6  0  0  0
 27 25  1  0  0  0  0
M  END
>  <MODEL>
1

>  <REMARK>
 VINA RESULT:      -8.0      0.000      0.000
  Name = 
  8 active torsions:
  status: ('A' for Active; 'I' for Inactive)
    1  A    between atoms: C_1  and  C_11
    2  A    between atoms: N_6  and  C_11
    3  A    between atoms: C_9  and  O_18
    4  A    between atoms: C_10  and  C_14
    5  A    between atoms: C_14  and  O_18
    6  A    between atoms: C_17  and  C_19
    7  A    between atoms: C_19  and  C_27
    8  A    between atoms: C_20  and  C_25
                            x       y       z     vdW  Elec       q    Type
                         _______ _______ _______ _____ _____    ______ ____

>  <TORSDO>
F 8

$$$$
=
 OpenBabel10262420583D

 28 31  0  0  1  0  0  0  0  0999 V2000
  184.5750  179.4330  143.4980 C   0  0  1  0  0  3  0  0  0  0  0  0
  184.1220  178.2360  142.6920 C   0  0  1  0  0  3  0  0  0  0  0  0
  183.0960  179.2620  143.1330 C   0  0  1  0  0  3  0  0  0  0  0  0
  180.7800  178.6390  143.7680 C   0  0  0  0  0  1  0  0  0  0  0  0
  182.2230  178.6640  144.2290 C   0  0  0  0  0  2  0  0  0  0  0  0
  184.9490  178.9830  144.9050 C   0  0  0  0  0  2  0  0  0  0  0  0
  185.8470  177.8840  144.8300 O   0  0  0  0  0  0  0  0  0  0  0  0
  189.3270  177.2400  145.8860 C   0  0  0  0  0  3  0  0  0  0  0  0
  186.9700  177.7720  145.6530 C   0  0  0  0  0  0  0  0  0  0  0  0
  188.0530  177.9400  147.8220 C   0  0  0  0  0  0  0  0  0  0  0  0
  188.1840  177.3610  145.0890 C   0  0  0  0  0  3  0  0  0  0  0  0
  186.9100  178.0620  147.0260 C   0  0  0  0  0  3  0  0  0  0  0  0
  187.9890  178.2220  149.1450 F   0  0  0  0  0  0  0  0  0  0  0  0
  189.2610  177.5290  147.2520 C   0  0  0  0  0  3  0  0  0  0  0  0
  184.4550  178.4630  141.2230 C   0  0  0  0  0  2  0  0  0  0  0  0
  183.2590  179.3360  139.1000 C   0  0  2  0  0  0  0  0  0  0  0  0
  182.9290  177.0970  138.3030 N   0  0  0  0  0  0  0  0  0  0  0  0
  183.4700  178.4000  137.9330 C   0  0  0  0  0  2  0  0  0  0  0  0
  183.8460  176.1000  137.7790 C   0  0  0  0  0  1  0  0  0  0  0  0
  182.9910  177.0150  139.7610 C   0  0  2  0  0  3  0  0  0  0  0  0
  181.6840  176.4620  140.2970 C   0  0  0  0  0  1  0  0  0  0  0  0
  184.2980  180.2700  139.1570 O   0  0  0  0  0  1  0  0  0  0  0  0
  183.2180  178.4140  140.3150 C   0  0  1  0  0  3  0  0  0  0  0  0
  181.9230  180.0520  138.9310 C   0  0  0  0  0  2  0  0  0  0  0  0
  181.0660  179.8260  140.0840 N   0  0  0  0  0  0  0  0  0  0  0  0
  179.7410  179.4650  139.5580 C   0  0  0  0  0  2  0  0  0  0  0  0
  179.9920  180.8270  140.0080 C   0  0  1  0  0  3  0  0  0  0  0  0
  179.4030  181.0220  141.3880 C   0  0  0  0  0  1  0  0  0  0  0  0
  1  6  1  1  0  0  0
  2 15  1  6  0  0  0
  2  3  1  0  0  0  0
  2  1  1  0  0  0  0
  3  1  1  0  0  0  0
  3  5  1  1  0  0  0
  4  5  1  0  0  0  0
  7  6  1  0  0  0  0
  7  9  1  0  0  0  0
  8 14  1  0  0  0  0
  9 12  2  0  0  0  0
 10 13  1  0  0  0  0
 11  9  1  0  0  0  0
 11  8  2  0  0  0  0
 12 10  1  0  0  0  0
 14 10  2  0  0  0  0
 16 22  1  1  0  0  0
 16 23  1  0  0  0  0
 17 20  1  0  0  0  0
 18 17  1  0  0  0  0
 18 16  1  0  0  0  0
 19 17  1  0  0  0  0
 20 21  1  1  0  0  0
 20 23  1  0  0  0  0
 23 15  1  6  0  0  0
 24 16  1  0  0  0  0
 24 25  1  0  0  0  0
 26 27  1  0  0  0  0
 26 25  1  0  0  0  0
 27 25  1  0  0  0  0
 27 28  1  1  0  0  0
M  END
>  <MODEL>
2

>  <REMARK>
 VINA RESULT:      -7.4      3.809      7.379
  Name = 
  8 active torsions:
  status: ('A' for Active; 'I' for Inactive)
    1  A    between atoms: C_1  and  C_11
    2  A    between atoms: N_6  and  C_11
    3  A    between atoms: C_9  and  O_18
    4  A    between atoms: C_10  and  C_14
    5  A    between atoms: C_14  and  O_18
    6  A    between atoms: C_17  and  C_19
    7  A    between atoms: C_19  and  C_27
    8  A    between atoms: C_20  and  C_25
                            x       y       z     vdW  Elec       q    Type
                         _______ _______ _______ _____ _____    ______ ____

>  <TORSDO>
F 8

$$$$
=
 OpenBabel10262420583D

 28 31  0  0  1  0  0  0  0  0999 V2000
  187.9640  178.7690  141.1570 C   0  0  1  0  0  3  0  0  0  0  0  0
  188.5040  177.3650  140.9980 C   0  0  1  0  0  3  0  0  0  0  0  0
  188.8430  178.4110  139.9530 C   0  0  1  0  0  3  0  0  0  0  0  0
  188.8000  178.7470  137.4950 C   0  0  0  0  0  1  0  0  0  0  0  0
  188.0860  178.1040  138.6670 C   0  0  0  0  0  2  0  0  0  0  0  0
  186.4650  178.7680  140.8850 C   0  0  0  0  0  2  0  0  0  0  0  0
  185.8040  177.9810  141.8660 O   0  0  0  0  0  0  0  0  0  0  0  0
  182.2010  178.7800  142.0120 C   0  0  0  0  0  3  0  0  0  0  0  0
  184.5550  178.3230  142.3890 C   0  0  0  0  0  0  0  0  0  0  0  0
  183.1040  178.8880  144.2560 C   0  0  0  0  0  0  0  0  0  0  0  0
  183.4650  178.4410  141.5190 C   0  0  0  0  0  3  0  0  0  0  0  0
  184.3670  178.5480  143.7640 C   0  0  0  0  0  3  0  0  0  0  0  0
  182.9300  179.1030  145.5820 F   0  0  0  0  0  0  0  0  0  0  0  0
  182.0210  179.0040  143.3800 C   0  0  0  0  0  3  0  0  0  0  0  0
  189.7000  177.1790  141.9220 C   0  0  0  0  0  2  0  0  0  0  0  0
  188.6160  177.0550  144.2690 C   0  0  2  0  0  0  0  0  0  0  0  0
  190.7450  177.3800  145.3260 N   0  0  0  0  0  0  0  0  0  0  0  0
  189.5840  176.4990  145.2870 C   0  0  0  0  0  2  0  0  0  0  0  0
  191.9130  176.5270  145.4570 C   0  0  0  0  0  1  0  0  0  0  0  0
  190.8270  178.0260  144.0180 C   0  0  2  0  0  3  0  0  0  0  0  0
  191.0960  179.5080  144.1950 C   0  0  0  0  0  1  0  0  0  0  0  0
  187.9150  176.0120  143.6570 O   0  0  0  0  0  1  0  0  0  0  0  0
  189.5010  177.8300  143.2980 C   0  0  1  0  0  3  0  0  0  0  0  0
  187.6420  177.9980  144.9680 C   0  0  0  0  0  2  0  0  0  0  0  0
  187.2580  177.4740  146.2700 N   0  0  0  0  0  0  0  0  0  0  0  0
  186.3370  178.4540  146.8630 C   0  0  0  0  0  2  0  0  0  0  0  0
  187.7360  178.4410  147.2670 C   0  0  1  0  0  3  0  0  0  0  0  0
  187.8720  177.7440  148.6030 C   0  0  0  0  0  1  0  0  0  0  0  0
  1  6  1  6  0  0  0
  2  1  1  0  0  0  0
  2 15  1  1  0  0  0
  3  5  1  6  0  0  0
  3  2  1  0  0  0  0
  3  1  1  0  0  0  0
  4  5  1  0  0  0  0
  6  7  1  0  0  0  0
  7  9  1  0  0  0  0
  8 14  1  0  0  0  0
  9 12  2  0  0  0  0
 10 13  1  0  0  0  0
 11  8  2  0  0  0  0
 11  9  1  0  0  0  0
 12 10  1  0  0  0  0
 14 10  2  0  0  0  0
 16 22  1  6  0  0  0
 16 24  1  0  0  0  0
 16 18  1  0  0  0  0
 17 19  1  0  0  0  0
 18 17  1  0  0  0  0
 20 21  1  1  0  0  0
 20 17  1  0  0  0  0
 23 15  1  6  0  0  0
 23 20  1  0  0  0  0
 23 16  1  0  0  0  0
 24 25  1  0  0  0  0
 25 26  1  0  0  0  0
 25 27  1  0  0  0  0
 26 27  1  0  0  0  0
 27 28  1  1  0  0  0
M  END
>  <MODEL>
3

>  <REMARK>
 VINA RESULT:      -7.4      1.952      5.257
  Name = 
  8 active torsions:
  status: ('A' for Active; 'I' for Inactive)
    1  A    between atoms: C_1  and  C_11
    2  A    between atoms: N_6  and  C_11
    3  A    between atoms: C_9  and  O_18
    4  A    between atoms: C_10  and  C_14
    5  A    between atoms: C_14  and  O_18
    6  A    between atoms: C_17  and  C_19
    7  A    between atoms: C_19  and  C_27
    8  A    between atoms: C_20  and  C_25
                            x       y       z     vdW  Elec       q    Type
                         _______ _______ _______ _____ _____    ______ ____

>  <TORSDO>
F 8

$$$$
=
 OpenBabel10262420583D

 28 31  0  0  1  0  0  0  0  0999 V2000
  186.3120  178.7980  143.4830 C   0  0  1  0  0  3  0  0  0  0  0  0
  186.4430  177.9920  142.2100 C   0  0  1  0  0  3  0  0  0  0  0  0
  185.4260  179.1160  142.2730 C   0  0  1  0  0  3  0  0  0  0  0  0
  183.6580  177.9680  140.9630 C   0  0  0  0  0  1  0  0  0  0  0  0
  184.0230  178.5240  142.3250 C   0  0  0  0  0  2  0  0  0  0  0  0
  185.6550  177.9430  144.5580 C   0  0  0  0  0  2  0  0  0  0  0  0
  185.9900  178.4530  145.8420 O   0  0  0  0  0  0  0  0  0  0  0  0
  188.4500  178.0310  148.5640 C   0  0  0  0  0  3  0  0  0  0  0  0
  187.1740  178.1140  146.5010 C   0  0  0  0  0  0  0  0  0  0  0  0
  189.4280  177.2040  146.5100 C   0  0  0  0  0  0  0  0  0  0  0  0
  187.2790  178.3600  147.8750 C   0  0  0  0  0  3  0  0  0  0  0  0
  188.2570  177.5330  145.8200 C   0  0  0  0  0  3  0  0  0  0  0  0
  190.4680  176.6440  145.8470 F   0  0  0  0  0  0  0  0  0  0  0  0
  189.5250  177.4540  147.8810 C   0  0  0  0  0  3  0  0  0  0  0  0
  187.6640  178.4690  141.4350 C   0  0  0  0  0  2  0  0  0  0  0  0
  189.6710  177.6140  140.0420 C   0  0  2  0  0  0  0  0  0  0  0  0
  190.9380  177.1870  142.0340 N   0  0  0  0  0  0  0  0  0  0  0  0
  190.9780  177.8790  140.7510 C   0  0  0  0  0  2  0  0  0  0  0  0
  191.5620  178.0680  143.0050 C   0  0  0  0  0  1  0  0  0  0  0  0
  189.5290  177.0670  142.4030 C   0  0  2  0  0  3  0  0  0  0  0  0
  189.2490  175.6630  142.9040 C   0  0  0  0  0  1  0  0  0  0  0  0
  189.3220  178.7160  139.2560 O   0  0  0  0  0  1  0  0  0  0  0  0
  188.6810  177.3490  141.1720 C   0  0  1  0  0  3  0  0  0  0  0  0
  189.8200  176.3750  139.1650 C   0  0  0  0  0  2  0  0  0  0  0  0
  191.1280  176.3450  138.5290 N   0  0  0  0  0  0  0  0  0  0  0  0
  190.8900  176.3220  137.0790 C   0  0  0  0  0  2  0  0  0  0  0  0
  191.1980  175.0830  137.7790 C   0  0  1  0  0  3  0  0  0  0  0  0
  192.6510  174.7230  137.5570 C   0  0  0  0  0  1  0  0  0  0  0  0
  1  6  1  1  0  0  0
  2 15  1  6  0  0  0
  2  3  1  0  0  0  0
  2  1  1  0  0  0  0
  3  5  1  1  0  0  0
  3  1  1  0  0  0  0
  4  5  1  0  0  0  0
  6  7  1  0  0  0  0
  7  9  1  0  0  0  0
  9 11  1  0  0  0  0
 10 14  2  0  0  0  0
 11  8  2  0  0  0  0
 12  9  2  0  0  0  0
 12 10  1  0  0  0  0
 13 10  1  0  0  0  0
 14  8  1  0  0  0  0
 16 22  1  6  0  0  0
 16 18  1  0  0  0  0
 16 23  1  0  0  0  0
 17 20  1  0  0  0  0
 17 19  1  0  0  0  0
 18 17  1  0  0  0  0
 20 21  1  6  0  0  0
 23 15  1  1  0  0  0
 23 20  1  0  0  0  0
 24 16  1  0  0  0  0
 25 24  1  0  0  0  0
 26 27  1  0  0  0  0
 26 25  1  0  0  0  0
 27 28  1  6  0  0  0
 27 25  1  0  0  0  0
M  END
>  <MODEL>
4

>  <REMARK>
 VINA RESULT:      -7.1      2.441      4.741
  Name = 
  8 active torsions:
  status: ('A' for Active; 'I' for Inactive)
    1  A    between atoms: C_1  and  C_11
    2  A    between atoms: N_6  and  C_11
    3  A    between atoms: C_9  and  O_18
    4  A    between atoms: C_10  and  C_14
    5  A    between atoms: C_14  and  O_18
    6  A    between atoms: C_17  and  C_19
    7  A    between atoms: C_19  and  C_27
    8  A    between atoms: C_20  and  C_25
                            x       y       z     vdW  Elec       q    Type
                         _______ _______ _______ _____ _____    ______ ____

>  <TORSDO>
F 8

$$$$
=
 OpenBabel10262420583D

 28 31  0  0  1  0  0  0  0  0999 V2000
  190.4740  177.5650  141.3850 C   0  0  1  0  0  3  0  0  0  0  0  0
  189.6780  176.8130  140.3410 C   0  0  1  0  0  3  0  0  0  0  0  0
  188.9770  177.8420  141.2070 C   0  0  1  0  0  3  0  0  0  0  0  0
  186.9630  178.0720  142.6390 C   0  0  0  0  0  1  0  0  0  0  0  0
  188.0640  177.1300  142.1980 C   0  0  0  0  0  2  0  0  0  0  0  0
  190.8250  176.6230  142.5290 C   0  0  0  0  0  2  0  0  0  0  0  0
  191.3640  177.3700  143.6120 O   0  0  0  0  0  0  0  0  0  0  0  0
  189.2100  177.6190  146.6010 C   0  0  0  0  0  3  0  0  0  0  0  0
  190.9210  177.2160  144.9270 C   0  0  0  0  0  0  0  0  0  0  0  0
  191.2120  176.3960  147.1970 C   0  0  0  0  0  0  0  0  0  0  0  0
  189.6820  177.7570  145.2920 C   0  0  0  0  0  3  0  0  0  0  0  0
  191.6850  176.5330  145.8880 C   0  0  0  0  0  3  0  0  0  0  0  0
  191.9540  175.7360  148.1180 F   0  0  0  0  0  0  0  0  0  0  0  0
  189.9740  176.9390  147.5530 C   0  0  0  0  0  3  0  0  0  0  0  0
  189.9490  177.4180  138.9700 C   0  0  0  0  0  2  0  0  0  0  0  0
  188.4230  178.4410  137.1460 C   0  0  2  0  0  0  0  0  0  0  0  0
  188.9290  176.6430  135.6410 N   0  0  0  0  0  0  0  0  0  0  0  0
  188.9220  178.0960  135.7630 C   0  0  0  0  0  2  0  0  0  0  0  0
  190.1310  176.2920  134.9060 C   0  0  0  0  0  1  0  0  0  0  0  0
  189.0790  176.1090  136.9930 C   0  0  2  0  0  3  0  0  0  0  0  0
  188.1020  174.9680  137.2030 C   0  0  0  0  0  1  0  0  0  0  0  0
  189.0330  179.6160  137.5960 O   0  0  0  0  0  1  0  0  0  0  0  0
  188.7850  177.2220  137.9880 C   0  0  1  0  0  3  0  0  0  0  0  0
  186.9100  178.6250  137.1010 C   0  0  0  0  0  2  0  0  0  0  0  0
  186.2990  178.1990  138.3510 N   0  0  0  0  0  0  0  0  0  0  0  0
  185.0460  177.5170  137.9950 C   0  0  0  0  0  2  0  0  0  0  0  0
  185.0110  178.9020  138.4470 C   0  0  1  0  0  3  0  0  0  0  0  0
  184.5850  178.9520  139.8980 C   0  0  0  0  0  1  0  0  0  0  0  0
  1  6  1  1  0  0  0
  2 15  1  6  0  0  0
  2  3  1  0  0  0  0
  2  1  1  0  0  0  0
  3  1  1  0  0  0  0
  3  5  1  1  0  0  0
  5  4  1  0  0  0  0
  6  7  1  0  0  0  0
  7  9  1  0  0  0  0
  8 14  1  0  0  0  0
  9 11  1  0  0  0  0
  9 12  2  0  0  0  0
 10 14  2  0  0  0  0
 10 13  1  0  0  0  0
 11  8  2  0  0  0  0
 12 10  1  0  0  0  0
 16 22  1  1  0  0  0
 16 23  1  0  0  0  0
 17 18  1  0  0  0  0
 17 20  1  0  0  0  0
 18 16  1  0  0  0  0
 19 17  1  0  0  0  0
 20 21  1  1  0  0  0
 20 23  1  0  0  0  0
 23 15  1  6  0  0  0
 24 16  1  0  0  0  0
 24 25  1  0  0  0  0
 25 27  1  0  0  0  0
 26 25  1  0  0  0  0
 26 27  1  0  0  0  0
 27 28  1  1  0  0  0
M  END
>  <MODEL>
5

>  <REMARK>
 VINA RESULT:      -7.0      3.614      6.630
  Name = 
  8 active torsions:
  status: ('A' for Active; 'I' for Inactive)
    1  A    between atoms: C_1  and  C_11
    2  A    between atoms: N_6  and  C_11
    3  A    between atoms: C_9  and  O_18
    4  A    between atoms: C_10  and  C_14
    5  A    between atoms: C_14  and  O_18
    6  A    between atoms: C_17  and  C_19
    7  A    between atoms: C_19  and  C_27
    8  A    between atoms: C_20  and  C_25
                            x       y       z     vdW  Elec       q    Type
                         _______ _______ _______ _____ _____    ______ ____

>  <TORSDO>
F 8

$$$$
=
 OpenBabel10262420583D

 28 31  0  0  1  0  0  0  0  0999 V2000
  188.7060  177.2040  140.7920 C   0  0  1  0  0  3  0  0  0  0  0  0
  189.7670  177.8740  139.9480 C   0  0  1  0  0  3  0  0  0  0  0  0
  190.1910  176.9260  141.0530 C   0  0  1  0  0  3  0  0  0  0  0  0
  191.6800  176.8120  143.0350 C   0  0  0  0  0  1  0  0  0  0  0  0
  190.8100  177.7240  142.1940 C   0  0  0  0  0  2  0  0  0  0  0  0
  188.0710  178.2330  141.7180 C   0  0  0  0  0  2  0  0  0  0  0  0
  187.1060  177.5960  142.5460 O   0  0  0  0  0  0  0  0  0  0  0  0
  188.3520  177.4730  146.0200 C   0  0  0  0  0  3  0  0  0  0  0  0
  187.1240  177.6970  143.9380 C   0  0  0  0  0  0  0  0  0  0  0  0
  186.0440  178.2010  146.0570 C   0  0  0  0  0  0  0  0  0  0  0  0
  188.3020  177.3810  144.6260 C   0  0  0  0  0  3  0  0  0  0  0  0
  185.9920  178.1090  144.6630 C   0  0  0  0  0  3  0  0  0  0  0  0
  184.9500  178.5990  146.7490 F   0  0  0  0  0  0  0  0  0  0  0  0
  187.2230  177.8830  146.7350 C   0  0  0  0  0  3  0  0  0  0  0  0
  189.8710  177.1580  138.6080 C   0  0  0  0  0  2  0  0  0  0  0  0
  188.2060  178.3380  137.0160 C   0  0  2  0  0  0  0  0  0  0  0  0
  188.1810  176.4390  135.5510 N   0  0  0  0  0  0  0  0  0  0  0  0
  188.3990  177.8810  135.5900 C   0  0  0  0  0  2  0  0  0  0  0  0
  189.1720  175.8910  134.6430 C   0  0  0  0  0  1  0  0  0  0  0  0
  188.4900  175.9310  136.8860 C   0  0  2  0  0  3  0  0  0  0  0  0
  187.4150  174.9540  137.3220 C   0  0  0  0  0  1  0  0  0  0  0  0
  189.0450  179.4230  137.2880 O   0  0  0  0  0  1  0  0  0  0  0  0
  188.5360  177.1050  137.8520 C   0  0  1  0  0  3  0  0  0  0  0  0
  186.7490  178.7430  137.2190 C   0  0  0  0  0  2  0  0  0  0  0  0
  186.2510  178.2600  138.4980 N   0  0  0  0  0  0  0  0  0  0  0  0
  184.9320  177.6660  138.2380 C   0  0  0  0  0  2  0  0  0  0  0  0
  185.0220  179.0150  138.7780 C   0  0  1  0  0  3  0  0  0  0  0  0
  184.7540  178.9840  140.2680 C   0  0  0  0  0  1  0  0  0  0  0  0
  1  3  1  0  0  0  0
  1  6  1  1  0  0  0
  2 15  1  6  0  0  0
  2  1  1  0  0  0  0
  2  3  1  0  0  0  0
  3  5  1  1  0  0  0
  5  4  1  0  0  0  0
  6  7  1  0  0  0  0
  7  9  1  0  0  0  0
  8 14  1  0  0  0  0
  9 11  1  0  0  0  0
  9 12  2  0  0  0  0
 10 14  2  0  0  0  0
 10 13  1  0  0  0  0
 11  8  2  0  0  0  0
 12 10  1  0  0  0  0
 16 24  1  0  0  0  0
 16 22  1  1  0  0  0
 16 23  1  0  0  0  0
 17 18  1  0  0  0  0
 17 20  1  0  0  0  0
 18 16  1  0  0  0  0
 19 17  1  0  0  0  0
 20 21  1  1  0  0  0
 20 23  1  0  0  0  0
 23 15  1  6  0  0  0
 24 25  1  0  0  0  0
 25 27  1  0  0  0  0
 26 25  1  0  0  0  0
 26 27  1  0  0  0  0
 27 28  1  1  0  0  0
M  END
>  <MODEL>
6

>  <REMARK>
 VINA RESULT:      -6.9      2.405      5.522
  Name = 
  8 active torsions:
  status: ('A' for Active; 'I' for Inactive)
    1  A    between atoms: C_1  and  C_11
    2  A    between atoms: N_6  and  C_11
    3  A    between atoms: C_9  and  O_18
    4  A    between atoms: C_10  and  C_14
    5  A    between atoms: C_14  and  O_18
    6  A    between atoms: C_17  and  C_19
    7  A    between atoms: C_19  and  C_27
    8  A    between atoms: C_20  and  C_25
                            x       y       z     vdW  Elec       q    Type
                         _______ _______ _______ _____ _____    ______ ____

>  <TORSDO>
F 8

$$$$
=
 OpenBabel10262420583D

 28 31  0  0  1  0  0  0  0  0999 V2000
  185.6860  178.7030  143.2640 C   0  0  1  0  0  3  0  0  0  0  0  0
  184.4780  178.2180  142.4940 C   0  0  1  0  0  3  0  0  0  0  0  0
  184.3370  179.4150  143.4160 C   0  0  1  0  0  3  0  0  0  0  0  0
  182.1250  178.6270  144.2190 C   0  0  0  0  0  1  0  0  0  0  0  0
  183.5270  179.0140  144.6430 C   0  0  0  0  0  2  0  0  0  0  0  0
  186.0180  177.7060  144.3660 C   0  0  0  0  0  2  0  0  0  0  0  0
  187.4250  177.5120  144.4250 O   0  0  0  0  0  0  0  0  0  0  0  0
  188.1620  177.8850  148.0240 C   0  0  0  0  0  3  0  0  0  0  0  0
  188.1340  177.5030  145.6270 C   0  0  0  0  0  0  0  0  0  0  0  0
  190.1670  177.1200  146.9040 C   0  0  0  0  0  0  0  0  0  0  0  0
  187.4790  177.8850  146.8040 C   0  0  0  0  0  3  0  0  0  0  0  0
  189.4850  177.1190  145.6840 C   0  0  0  0  0  3  0  0  0  0  0  0
  191.4680  176.7480  146.9520 F   0  0  0  0  0  0  0  0  0  0  0  0
  189.5050  177.5030  148.0740 C   0  0  0  0  0  3  0  0  0  0  0  0
  184.5690  178.7070  141.0540 C   0  0  0  0  0  2  0  0  0  0  0  0
  183.1130  179.5890  139.1050 C   0  0  2  0  0  0  0  0  0  0  0  0
  182.6160  177.3520  138.3950 N   0  0  0  0  0  0  0  0  0  0  0  0
  183.1350  178.6350  137.9340 C   0  0  0  0  0  2  0  0  0  0  0  0
  183.4240  176.3240  137.7640 C   0  0  0  0  0  1  0  0  0  0  0  0
  182.8770  177.2850  139.8310 C   0  0  2  0  0  3  0  0  0  0  0  0
  181.6440  176.7750  140.5520 C   0  0  0  0  0  1  0  0  0  0  0  0
  184.1740  180.4940  139.0030 O   0  0  0  0  0  1  0  0  0  0  0  0
  183.2170  178.6830  140.3270 C   0  0  1  0  0  3  0  0  0  0  0  0
  181.7860  180.3410  139.1130 C   0  0  0  0  0  2  0  0  0  0  0  0
  181.7200  181.2870  138.0100 N   0  0  0  0  0  0  0  0  0  0  0  0
  180.4700  182.0430  138.1780 C   0  0  0  0  0  2  0  0  0  0  0  0
  180.5240  180.9370  137.2310 C   0  0  1  0  0  3  0  0  0  0  0  0
  180.6760  181.4800  135.8260 C   0  0  0  0  0  1  0  0  0  0  0  0
  1  3  1  0  0  0  0
  1  6  1  1  0  0  0
  2 15  1  6  0  0  0
  2  1  1  0  0  0  0
  2  3  1  0  0  0  0
  3  5  1  1  0  0  0
  4  5  1  0  0  0  0
  6  7  1  0  0  0  0
  7  9  1  0  0  0  0
  8 14  1  0  0  0  0
  9 12  2  0  0  0  0
  9 11  1  0  0  0  0
 10 13  1  0  0  0  0
 10 14  2  0  0  0  0
 11  8  2  0  0  0  0
 12 10  1  0  0  0  0
 16 22  1  6  0  0  0
 16 24  1  0  0  0  0
 16 23  1  0  0  0  0
 17 20  1  0  0  0  0
 18 17  1  0  0  0  0
 18 16  1  0  0  0  0
 19 17  1  0  0  0  0
 20 23  1  0  0  0  0
 20 21  1  1  0  0  0
 23 15  1  6  0  0  0
 25 26  1  0  0  0  0
 25 24  1  0  0  0  0
 27 28  1  6  0  0  0
 27 25  1  0  0  0  0
 27 26  1  0  0  0  0
M  END
>  <MODEL>
7

>  <REMARK>
 VINA RESULT:      -6.9      4.217      7.521
  Name = 
  8 active torsions:
  status: ('A' for Active; 'I' for Inactive)
    1  A    between atoms: C_1  and  C_11
    2  A    between atoms: N_6  and  C_11
    3  A    between atoms: C_9  and  O_18
    4  A    between atoms: C_10  and  C_14
    5  A    between atoms: C_14  and  O_18
    6  A    between atoms: C_17  and  C_19
    7  A    between atoms: C_19  and  C_27
    8  A    between atoms: C_20  and  C_25
                            x       y       z     vdW  Elec       q    Type
                         _______ _______ _______ _____ _____    ______ ____

>  <TORSDO>
F 8

$$$$
=
 OpenBabel10262420583D

 28 31  0  0  1  0  0  0  0  0999 V2000
  188.7080  178.2820  140.6060 C   0  0  1  0  0  3  0  0  0  0  0  0
  189.2900  176.8870  140.6550 C   0  0  1  0  0  3  0  0  0  0  0  0
  189.9280  177.9240  139.7500 C   0  0  1  0  0  3  0  0  0  0  0  0
  190.3600  176.3160  137.9100 C   0  0  0  0  0  1  0  0  0  0  0  0
  189.6220  177.5820  138.2970 C   0  0  0  0  0  2  0  0  0  0  0  0
  187.3720  178.2480  139.8730 C   0  0  0  0  0  2  0  0  0  0  0  0
  186.4140  179.0080  140.5960 O   0  0  0  0  0  0  0  0  0  0  0  0
  183.2060  178.9620  138.7660 C   0  0  0  0  0  3  0  0  0  0  0  0
  185.0420  178.9160  140.3540 C   0  0  0  0  0  0  0  0  0  0  0  0
  182.7550  178.6020  141.1170 C   0  0  0  0  0  0  0  0  0  0  0  0
  184.5740  179.0510  139.0410 C   0  0  0  0  0  3  0  0  0  0  0  0
  184.1230  178.6910  141.3930 C   0  0  0  0  0  3  0  0  0  0  0  0
  181.8750  178.3840  142.1230 F   0  0  0  0  0  0  0  0  0  0  0  0
  182.2970  178.7380  139.8040 C   0  0  0  0  0  3  0  0  0  0  0  0
  190.1340  176.7380  141.9140 C   0  0  0  0  0  2  0  0  0  0  0  0
  188.5380  177.1190  143.9160 C   0  0  2  0  0  0  0  0  0  0  0  0
  190.3890  177.5920  145.3670 N   0  0  0  0  0  0  0  0  0  0  0  0
  189.2060  176.7530  145.2210 C   0  0  0  0  0  2  0  0  0  0  0  0
  191.4300  176.7510  145.9310 C   0  0  0  0  0  1  0  0  0  0  0  0
  190.8140  177.9590  144.0180 C   0  0  2  0  0  3  0  0  0  0  0  0
  191.1440  179.4380  143.9700 C   0  0  0  0  0  1  0  0  0  0  0  0
  187.9200  175.9940  143.3630 O   0  0  0  0  0  1  0  0  0  0  0  0
  189.6760  177.6580  143.0540 C   0  0  1  0  0  3  0  0  0  0  0  0
  187.5030  178.2090  144.1720 C   0  0  0  0  0  2  0  0  0  0  0  0
  186.4240  177.7120  145.0120 N   0  0  0  0  0  0  0  0  0  0  0  0
  185.2270  178.4910  144.6640 C   0  0  0  0  0  2  0  0  0  0  0  0
  185.9950  178.8400  145.8510 C   0  0  1  0  0  3  0  0  0  0  0  0
  185.2990  178.3000  147.0820 C   0  0  0  0  0  1  0  0  0  0  0  0
  1  6  1  6  0  0  0
  1  2  1  0  0  0  0
  2 15  1  1  0  0  0
  3  5  1  6  0  0  0
  3  1  1  0  0  0  0
  3  2  1  0  0  0  0
  4  5  1  0  0  0  0
  6  7  1  0  0  0  0
  8 11  2  0  0  0  0
  8 14  1  0  0  0  0
  9  7  1  0  0  0  0
  9 12  2  0  0  0  0
 10 12  1  0  0  0  0
 10 13  1  0  0  0  0
 11  9  1  0  0  0  0
 14 10  2  0  0  0  0
 16 22  1  6  0  0  0
 16 24  1  0  0  0  0
 16 18  1  0  0  0  0
 17 19  1  0  0  0  0
 18 17  1  0  0  0  0
 20 21  1  1  0  0  0
 20 17  1  0  0  0  0
 23 15  1  6  0  0  0
 23 16  1  0  0  0  0
 23 20  1  0  0  0  0
 24 25  1  0  0  0  0
 25 27  1  0  0  0  0
 26 25  1  0  0  0  0
 26 27  1  0  0  0  0
 27 28  1  1  0  0  0
M  END
>  <MODEL>
8

>  <REMARK>
 VINA RESULT:      -6.8      2.124      5.302
  Name = 
  8 active torsions:
  status: ('A' for Active; 'I' for Inactive)
    1  A    between atoms: C_1  and  C_11
    2  A    between atoms: N_6  and  C_11
    3  A    between atoms: C_9  and  O_18
    4  A    between atoms: C_10  and  C_14
    5  A    between atoms: C_14  and  O_18
    6  A    between atoms: C_17  and  C_19
    7  A    between atoms: C_19  and  C_27
    8  A    between atoms: C_20  and  C_25
                            x       y       z     vdW  Elec       q    Type
                         _______ _______ _______ _____ _____    ______ ____

>  <TORSDO>
F 8

$$$$
=
 OpenBabel10262420583D

 28 31  0  0  1  0  0  0  0  0999 V2000
  189.2860  177.5040  141.8090 C   0  0  1  0  0  3  0  0  0  0  0  0
  188.4710  177.2070  140.5690 C   0  0  1  0  0  3  0  0  0  0  0  0
  188.3170  178.5530  141.2520 C   0  0  1  0  0  3  0  0  0  0  0  0
  185.8710  178.7820  140.9060 C   0  0  0  0  0  1  0  0  0  0  0  0
  186.9610  178.6150  141.9450 C   0  0  0  0  0  2  0  0  0  0  0  0
  188.7490  176.6840  142.9750 C   0  0  0  0  0  2  0  0  0  0  0  0
  189.4430  177.0390  144.1640 O   0  0  0  0  0  0  0  0  0  0  0  0
  186.6980  177.8340  146.5030 C   0  0  0  0  0  3  0  0  0  0  0  0
  188.7840  177.3930  145.3440 C   0  0  0  0  0  0  0  0  0  0  0  0
  188.7980  178.0080  147.6950 C   0  0  0  0  0  0  0  0  0  0  0  0
  187.3870  177.4830  145.3380 C   0  0  0  0  0  3  0  0  0  0  0  0
  189.4880  177.6570  146.5310 C   0  0  0  0  0  3  0  0  0  0  0  0
  189.4820  178.2620  148.8360 F   0  0  0  0  0  0  0  0  0  0  0  0
  187.4030  178.0970  147.6810 C   0  0  0  0  0  3  0  0  0  0  0  0
  189.3510  177.3720  139.3380 C   0  0  0  0  0  2  0  0  0  0  0  0
  188.3650  178.0310  137.0370 C   0  0  2  0  0  0  0  0  0  0  0  0
  189.7120  176.3840  135.9300 N   0  0  0  0  0  0  0  0  0  0  0  0
  189.3650  177.8000  135.9300 C   0  0  0  0  0  2  0  0  0  0  0  0
  191.1380  176.3030  135.6650 C   0  0  0  0  0  1  0  0  0  0  0  0
  189.4980  175.8990  137.2910 C   0  0  2  0  0  3  0  0  0  0  0  0
  188.7640  174.5710  137.2510 C   0  0  0  0  0  1  0  0  0  0  0  0
  188.5290  179.3120  137.5720 O   0  0  0  0  0  1  0  0  0  0  0  0
  188.6600  176.9220  138.0430 C   0  0  1  0  0  3  0  0  0  0  0  0
  186.9540  177.8780  136.4770 C   0  0  0  0  0  2  0  0  0  0  0  0
  186.0760  177.2480  137.4500 N   0  0  0  0  0  0  0  0  0  0  0  0
  185.3910  176.1520  136.7500 C   0  0  0  0  0  2  0  0  0  0  0  0
  184.7050  177.4210  136.9490 C   0  0  1  0  0  3  0  0  0  0  0  0
  183.7390  177.3000  138.1080 C   0  0  0  0  0  1  0  0  0  0  0  0
  1  6  1  1  0  0  0
  2 15  1  6  0  0  0
  2  3  1  0  0  0  0
  2  1  1  0  0  0  0
  3  1  1  0  0  0  0
  3  5  1  1  0  0  0
  4  5  1  0  0  0  0
  6  7  1  0  0  0  0
  7  9  1  0  0  0  0
  8 14  1  0  0  0  0
  9 12  2  0  0  0  0
 10 13  1  0  0  0  0
 11  9  1  0  0  0  0
 11  8  2  0  0  0  0
 12 10  1  0  0  0  0
 14 10  2  0  0  0  0
 16 22  1  1  0  0  0
 16 23  1  0  0  0  0
 17 20  1  0  0  0  0
 18 17  1  0  0  0  0
 18 16  1  0  0  0  0
 19 17  1  0  0  0  0
 20 21  1  6  0  0  0
 20 23  1  0  0  0  0
 23 15  1  1  0  0  0
 24 16  1  0  0  0  0
 24 25  1  0  0  0  0
 26 27  1  0  0  0  0
 26 25  1  0  0  0  0
 27 25  1  0  0  0  0
 27 28  1  1  0  0  0
M  END
>  <MODEL>
9

>  <REMARK>
 VINA RESULT:      -6.7      3.253      5.892
  Name = 
  8 active torsions:
  status: ('A' for Active; 'I' for Inactive)
    1  A    between atoms: C_1  and  C_11
    2  A    between atoms: N_6  and  C_11
    3  A    between atoms: C_9  and  O_18
    4  A    between atoms: C_10  and  C_14
    5  A    between atoms: C_14  and  O_18
    6  A    between atoms: C_17  and  C_19
    7  A    between atoms: C_19  and  C_27
    8  A    between atoms: C_20  and  C_25
                            x       y       z     vdW  Elec       q    Type
                         _______ _______ _______ _____ _____    ______ ____

>  <TORSDO>
F 8

$$$$
