=
 OpenBabel10262420113D

 27 30  0  0  1  0  0  0  0  0999 V2000
  188.2970  177.6780  141.6820 C   0  0  2  0  0  3  0  0  0  0  0  0
  187.4380  177.9070  142.8670 C   0  0  0  0  0  0  0  0  0  0  0  0
  189.5860  177.4290  143.6570 C   0  0  2  0  0  3  0  0  0  0  0  0
  185.7330  178.1660  146.9240 S   0  0  0  0  0  0  0  0  0  0  0  0
  187.6900  177.7450  148.9000 C   0  0  0  0  0  1  0  0  0  0  0  0
  186.0530  178.1480  142.9100 C   0  0  0  0  0  3  0  0  0  0  0  0
  188.1890  177.6990  146.4520 N   0  0  0  0  0  0  0  0  0  0  0  0
  187.5670  177.8470  145.2550 C   0  0  0  0  0  0  0  0  0  0  0  0
  187.3070  177.8500  147.4680 C   0  0  0  0  0  0  0  0  0  0  0  0
  186.2040  178.1080  145.3160 C   0  0  0  0  0  0  0  0  0  0  0  0
  189.6800  177.5630  142.1880 N   0  0  0  0  0  0  0  0  0  0  0  0
  188.1810  177.7570  144.0060 C   0  0  0  0  0  0  0  0  0  0  0  0
  185.4200  178.2610  144.1650 C   0  0  0  0  0  3  0  0  0  0  0  0
  191.2800  179.3220  143.4620 C   0  0  0  0  0  1  0  0  0  0  0  0
  191.6360  177.4920  145.1040 C   0  0  0  0  0  1  0  0  0  0  0  0
  190.5960  178.3270  144.3840 C   0  0  0  0  0  3  0  0  0  0  0  0
  188.1650  178.7740  140.6180 C   0  0  0  0  0  2  0  0  0  0  0  0
  188.5030  177.3320  136.5880 C   0  0  0  0  0  3  0  0  0  0  0  0
  188.2740  178.2730  139.2130 C   0  0  0  0  0  0  0  0  0  0  0  0
  187.5300  177.1620  138.7980 C   0  0  0  0  0  3  0  0  0  0  0  0
  187.6440  176.6930  137.4870 C   0  0  0  0  0  3  0  0  0  0  0  0
  189.2490  178.4410  137.0010 C   0  0  0  0  0  3  0  0  0  0  0  0
  189.1350  178.9100  138.3130 C   0  0  0  0  0  3  0  0  0  0  0  0
  190.2250  176.3160  141.6770 C   0  0  0  0  0  2  0  0  0  0  0  0
  191.0300  176.5820  140.4520 C   0  0  0  0  0  0  0  0  0  0  0  0
  191.8980  177.4930  140.4560 O   0  0  0  0  0  1  0  0  0  0  0  0
  190.7930  175.8550  139.2940 O   0  0  0  0  0  0  0  0  0  0  0  0
  1 17  1  6  0  0  0
  1 11  1  0  0  0  0
  1  2  1  0  0  0  0
  2  6  2  0  0  0  0
  2 12  1  0  0  0  0
  3 12  1  0  0  0  0
  3 16  1  1  0  0  0
  4  9  1  0  0  0  0
  6 13  1  0  0  0  0
  7  9  2  0  0  0  0
  8 10  1  0  0  0  0
  8  7  1  0  0  0  0
  9  5  1  0  0  0  0
 10  4  1  0  0  0  0
 11  3  1  0  0  0  0
 12  8  2  0  0  0  0
 13 10  2  0  0  0  0
 14 16  1  0  0  0  0
 16 15  1  0  0  0  0
 18 22  2  0  0  0  0
 18 21  1  0  0  0  0
 19 17  1  0  0  0  0
 20 19  1  0  0  0  0
 21 20  2  0  0  0  0
 22 23  1  0  0  0  0
 23 19  2  0  0  0  0
 24 11  1  0  0  0  0
 25 26  1  0  0  0  0
 25 24  1  0  0  0  0
 27 25  2  0  0  0  0
M  END
>  <MODEL>
1

>  <REMARK>
 VINA RESULT:      -7.8      0.000      0.000
  Name = 
  5 active torsions:
  status: ('A' for Active; 'I' for Inactive)
    1  A    between atoms: C_1  and  C_15
    2  A    between atoms: C_3  and  C_26
    3  A    between atoms: C_9  and  C_15
    4  A    between atoms: C_10  and  C_24
    5  A    between atoms: N_18  and  C_24
                            x       y       z     vdW  Elec       q    Type
                         _______ _______ _______ _____ _____    ______ ____

>  <TORSDO>
F 5

$$$$
=
 OpenBabel10262420113D

 27 30  0  0  1  0  0  0  0  0999 V2000
  188.2730  178.1100  143.7900 C   0  0  2  0  0  3  0  0  0  0  0  0
  186.9040  178.1770  143.2280 C   0  0  0  0  0  0  0  0  0  0  0  0
  188.3940  178.4500  141.4460 C   0  0  2  0  0  3  0  0  0  0  0  0
  183.3560  178.7450  140.6750 S   0  0  0  0  0  0  0  0  0  0  0  0
  184.0690  179.1570  137.9860 C   0  0  0  0  0  1  0  0  0  0  0  0
  185.6750  178.1470  143.9110 C   0  0  0  0  0  3  0  0  0  0  0  0
  185.7450  178.7830  139.8010 N   0  0  0  0  0  0  0  0  0  0  0  0
  185.8060  178.5580  141.1370 C   0  0  0  0  0  0  0  0  0  0  0  0
  184.4580  178.9060  139.3970 C   0  0  0  0  0  0  0  0  0  0  0  0
  184.5820  178.5060  141.7930 C   0  0  0  0  0  0  0  0  0  0  0  0
  189.1950  178.0960  142.6370 N   0  0  0  0  0  0  0  0  0  0  0  0
  186.9750  178.3800  141.8760 C   0  0  0  0  0  0  0  0  0  0  0  0
  184.4830  178.3050  143.1760 C   0  0  0  0  0  3  0  0  0  0  0  0
  189.8320  176.5610  140.5220 C   0  0  0  0  0  1  0  0  0  0  0  0
  188.9850  178.3400  139.0090 C   0  0  0  0  0  1  0  0  0  0  0  0
  188.6920  177.5280  140.2550 C   0  0  0  0  0  3  0  0  0  0  0  0
  188.4900  176.9040  144.7130 C   0  0  0  0  0  2  0  0  0  0  0  0
  189.0090  177.9580  148.8420 C   0  0  0  0  0  3  0  0  0  0  0  0
  188.6650  177.2650  146.1530 C   0  0  0  0  0  0  0  0  0  0  0  0
  187.5620  177.6460  146.9270 C   0  0  0  0  0  3  0  0  0  0  0  0
  187.7340  177.9910  148.2700 C   0  0  0  0  0  3  0  0  0  0  0  0
  190.1130  177.5810  148.0710 C   0  0  0  0  0  3  0  0  0  0  0  0
  189.9410  177.2350  146.7270 C   0  0  0  0  0  3  0  0  0  0  0  0
  190.1580  179.1670  142.8400 C   0  0  0  0  0  2  0  0  0  0  0  0
  191.3520  178.6410  143.5590 C   0  0  0  0  0  0  0  0  0  0  0  0
  192.0130  179.3970  144.3160 O   0  0  0  0  0  1  0  0  0  0  0  0
  191.7600  177.3300  143.3590 O   0  0  0  0  0  0  0  0  0  0  0  0
  1 17  1  6  0  0  0
  2  1  1  0  0  0  0
  2  6  1  0  0  0  0
  3 16  1  6  0  0  0
  3 12  1  0  0  0  0
  3 11  1  0  0  0  0
  4 10  1  0  0  0  0
  5  9  1  0  0  0  0
  7  8  1  0  0  0  0
  8 10  2  0  0  0  0
  8 12  1  0  0  0  0
  9  7  2  0  0  0  0
  9  4  1  0  0  0  0
 10 13  1  0  0  0  0
 11 24  1  0  0  0  0
 11  1  1  0  0  0  0
 12  2  2  0  0  0  0
 13  6  2  0  0  0  0
 15 16  1  0  0  0  0
 16 14  1  0  0  0  0
 17 19  1  0  0  0  0
 19 23  2  0  0  0  0
 19 20  1  0  0  0  0
 20 21  2  0  0  0  0
 21 18  1  0  0  0  0
 22 18  2  0  0  0  0
 23 22  1  0  0  0  0
 24 25  1  0  0  0  0
 25 26  1  0  0  0  0
 27 25  2  0  0  0  0
M  END
>  <MODEL>
2

>  <REMARK>
 VINA RESULT:      -7.4      2.442      6.419
  Name = 
  5 active torsions:
  status: ('A' for Active; 'I' for Inactive)
    1  A    between atoms: C_1  and  C_15
    2  A    between atoms: C_3  and  C_26
    3  A    between atoms: C_9  and  C_15
    4  A    between atoms: C_10  and  C_24
    5  A    between atoms: N_18  and  C_24
                            x       y       z     vdW  Elec       q    Type
                         _______ _______ _______ _____ _____    ______ ____

>  <TORSDO>
F 5

$$$$
=
 OpenBabel10262420113D

 27 30  0  0  1  0  0  0  0  0999 V2000
  187.8350  178.1890  143.7230 C   0  0  2  0  0  3  0  0  0  0  0  0
  186.9450  178.2120  142.5390 C   0  0  0  0  0  0  0  0  0  0  0  0
  189.1450  178.1640  141.7460 C   0  0  2  0  0  3  0  0  0  0  0  0
  185.2280  178.4930  138.4880 S   0  0  0  0  0  0  0  0  0  0  0  0
  187.2270  178.4680  136.5110 C   0  0  0  0  0  1  0  0  0  0  0  0
  185.5440  178.3230  142.4990 C   0  0  0  0  0  3  0  0  0  0  0  0
  187.7230  178.3230  138.9550 N   0  0  0  0  0  0  0  0  0  0  0  0
  187.0850  178.3030  140.1520 C   0  0  0  0  0  0  0  0  0  0  0  0
  186.8300  178.4230  137.9410 C   0  0  0  0  0  0  0  0  0  0  0  0
  185.6990  178.3890  140.0940 C   0  0  0  0  0  0  0  0  0  0  0  0
  189.2020  177.9710  143.2100 N   0  0  0  0  0  0  0  0  0  0  0  0
  187.7020  178.2030  141.3990 C   0  0  0  0  0  0  0  0  0  0  0  0
  184.9020  178.4040  141.2460 C   0  0  0  0  0  3  0  0  0  0  0  0
  190.2300  175.8610  141.8580 C   0  0  0  0  0  1  0  0  0  0  0  0
  191.1680  177.6120  140.3670 C   0  0  0  0  0  1  0  0  0  0  0  0
  189.9000  177.0620  140.9880 C   0  0  0  0  0  3  0  0  0  0  0  0
  187.4350  177.1320  144.7600 C   0  0  0  0  0  2  0  0  0  0  0  0
  188.3510  178.2070  148.8140 C   0  0  0  0  0  3  0  0  0  0  0  0
  187.7610  177.5100  146.1690 C   0  0  0  0  0  0  0  0  0  0  0  0
  188.9930  177.1530  146.7310 C   0  0  0  0  0  3  0  0  0  0  0  0
  189.2870  177.5020  148.0520 C   0  0  0  0  0  3  0  0  0  0  0  0
  187.1190  178.5630  148.2550 C   0  0  0  0  0  3  0  0  0  0  0  0
  186.8250  178.2140  146.9340 C   0  0  0  0  0  3  0  0  0  0  0  0
  190.0400  179.0300  143.7500 C   0  0  0  0  0  2  0  0  0  0  0  0
  191.3470  178.4650  144.1870 C   0  0  0  0  0  0  0  0  0  0  0  0
  192.3550  179.2120  144.2820 O   0  0  0  0  0  0  0  0  0  0  0  0
  191.4630  177.1070  144.4480 O   0  0  0  0  0  1  0  0  0  0  0  0
  1 17  1  1  0  0  0
  2  1  1  0  0  0  0
  3 16  1  6  0  0  0
  3 11  1  0  0  0  0
  4 10  1  0  0  0  0
  5  9  1  0  0  0  0
  6  2  1  0  0  0  0
  7  8  1  0  0  0  0
  8 12  1  0  0  0  0
  9  4  1  0  0  0  0
  9  7  2  0  0  0  0
 10  8  2  0  0  0  0
 10 13  1  0  0  0  0
 11  1  1  0  0  0  0
 11 24  1  0  0  0  0
 12  3  1  0  0  0  0
 12  2  2  0  0  0  0
 13  6  2  0  0  0  0
 15 16  1  0  0  0  0
 16 14  1  0  0  0  0
 17 19  1  0  0  0  0
 19 20  2  0  0  0  0
 19 23  1  0  0  0  0
 20 21  1  0  0  0  0
 21 18  2  0  0  0  0
 22 18  1  0  0  0  0
 23 22  2  0  0  0  0
 24 25  1  0  0  0  0
 25 26  2  0  0  0  0
 25 27  1  0  0  0  0
M  END
>  <MODEL>
3

>  <REMARK>
 VINA RESULT:      -7.2      2.509      6.651
  Name = 
  5 active torsions:
  status: ('A' for Active; 'I' for Inactive)
    1  A    between atoms: C_1  and  C_15
    2  A    between atoms: C_3  and  C_26
    3  A    between atoms: C_9  and  C_15
    4  A    between atoms: C_10  and  C_24
    5  A    between atoms: N_18  and  C_24
                            x       y       z     vdW  Elec       q    Type
                         _______ _______ _______ _____ _____    ______ ____

>  <TORSDO>
F 5

$$$$
=
 OpenBabel10262420113D

 27 30  0  0  1  0  0  0  0  0999 V2000
  187.2190  178.0220  142.2220 C   0  0  2  0  0  3  0  0  0  0  0  0
  187.4070  177.8240  143.6780 C   0  0  0  0  0  0  0  0  0  0  0  0
  189.5040  177.5770  142.6750 C   0  0  2  0  0  3  0  0  0  0  0  0
  188.9390  176.8660  147.6990 S   0  0  0  0  0  0  0  0  0  0  0  0
  191.7080  176.3760  147.6640 C   0  0  0  0  0  1  0  0  0  0  0  0
  186.4300  177.7960  144.6900 C   0  0  0  0  0  3  0  0  0  0  0  0
  190.3990  176.9650  145.6180 N   0  0  0  0  0  0  0  0  0  0  0  0
  189.1310  177.2600  145.2370 C   0  0  0  0  0  0  0  0  0  0  0  0
  190.4530  176.7260  146.9500 C   0  0  0  0  0  0  0  0  0  0  0  0
  188.1830  177.2520  146.2530 C   0  0  0  0  0  0  0  0  0  0  0  0
  188.5720  178.0480  141.6300 N   0  0  0  0  0  0  0  0  0  0  0  0
  188.7240  177.5620  143.9380 C   0  0  0  0  0  0  0  0  0  0  0  0
  186.8270  177.5130  146.0130 C   0  0  0  0  0  3  0  0  0  0  0  0
  192.0390  177.6570  142.9170 C   0  0  0  0  0  1  0  0  0  0  0  0
  190.6340  179.4440  143.9160 C   0  0  0  0  0  1  0  0  0  0  0  0
  190.7580  178.4590  142.7710 C   0  0  0  0  0  3  0  0  0  0  0  0
  186.4190  179.2850  141.8800 C   0  0  0  0  0  2  0  0  0  0  0  0
  182.5620  178.5130  140.1600 C   0  0  0  0  0  3  0  0  0  0  0  0
  185.0790  179.0100  141.2770 C   0  0  0  0  0  0  0  0  0  0  0  0
  184.9140  179.0180  139.8860 C   0  0  0  0  0  3  0  0  0  0  0  0
  183.6570  178.7680  139.3290 C   0  0  0  0  0  3  0  0  0  0  0  0
  182.7240  178.5070  141.5500 C   0  0  0  0  0  3  0  0  0  0  0  0
  183.9820  178.7560  142.1070 C   0  0  0  0  0  3  0  0  0  0  0  0
  188.5940  177.0640  140.5590 C   0  0  0  0  0  2  0  0  0  0  0  0
  188.3900  177.7420  139.2480 C   0  0  0  0  0  0  0  0  0  0  0  0
  187.7680  177.1530  138.3270 O   0  0  0  0  0  0  0  0  0  0  0  0
  188.9230  179.0040  139.0290 O   0  0  0  0  0  1  0  0  0  0  0  0
  1 17  1  1  0  0  0
  1  2  1  0  0  0  0
  2 12  2  0  0  0  0
  2  6  1  0  0  0  0
  3 16  1  1  0  0  0
  3 12  1  0  0  0  0
  6 13  2  0  0  0  0
  7  9  2  0  0  0  0
  8  7  1  0  0  0  0
  8 10  2  0  0  0  0
  9  5  1  0  0  0  0
  9  4  1  0  0  0  0
 10  4  1  0  0  0  0
 11  1  1  0  0  0  0
 11  3  1  0  0  0  0
 12  8  1  0  0  0  0
 13 10  1  0  0  0  0
 16 14  1  0  0  0  0
 16 15  1  0  0  0  0
 18 22  1  0  0  0  0
 19 17  1  0  0  0  0
 19 23  1  0  0  0  0
 20 19  2  0  0  0  0
 21 20  1  0  0  0  0
 21 18  2  0  0  0  0
 22 23  2  0  0  0  0
 24 11  1  0  0  0  0
 25 24  1  0  0  0  0
 26 25  2  0  0  0  0
 27 25  1  0  0  0  0
M  END
>  <MODEL>
4

>  <REMARK>
 VINA RESULT:      -7.2      2.350      3.566
  Name = 
  5 active torsions:
  status: ('A' for Active; 'I' for Inactive)
    1  A    between atoms: C_1  and  C_15
    2  A    between atoms: C_3  and  C_26
    3  A    between atoms: C_9  and  C_15
    4  A    between atoms: C_10  and  C_24
    5  A    between atoms: N_18  and  C_24
                            x       y       z     vdW  Elec       q    Type
                         _______ _______ _______ _____ _____    ______ ____

>  <TORSDO>
F 5

$$$$
=
 OpenBabel10262420113D

 27 30  0  0  1  0  0  0  0  0999 V2000
  188.8770  177.5320  143.3300 C   0  0  2  0  0  3  0  0  0  0  0  0
  189.3210  177.5990  141.9180 C   0  0  0  0  0  0  0  0  0  0  0  0
  187.0150  177.9830  141.9320 C   0  0  2  0  0  3  0  0  0  0  0  0
  189.5730  177.7560  137.5200 S   0  0  0  0  0  0  0  0  0  0  0  0
  187.0670  178.2740  136.3560 C   0  0  0  0  0  1  0  0  0  0  0  0
  190.6030  177.3560  141.3920 C   0  0  0  0  0  3  0  0  0  0  0  0
  187.4160  178.1010  138.8240 N   0  0  0  0  0  0  0  0  0  0  0  0
  188.4040  177.8790  139.7270 C   0  0  0  0  0  0  0  0  0  0  0  0
  187.9080  178.0660  137.5620 C   0  0  0  0  0  0  0  0  0  0  0  0
  189.6680  177.6650  139.1920 C   0  0  0  0  0  0  0  0  0  0  0  0
  187.4630  177.9590  143.3400 N   0  0  0  0  0  0  0  0  0  0  0  0
  188.2450  177.8520  141.1120 C   0  0  0  0  0  0  0  0  0  0  0  0
  190.7850  177.3990  139.9950 C   0  0  0  0  0  3  0  0  0  0  0  0
  185.7800  180.0200  142.8350 C   0  0  0  0  0  1  0  0  0  0  0  0
  185.0170  178.9250  140.7400 C   0  0  0  0  0  1  0  0  0  0  0  0
  186.2210  179.2540  141.6000 C   0  0  0  0  0  3  0  0  0  0  0  0
  189.7380  178.3780  144.2760 C   0  0  0  0  0  2  0  0  0  0  0  0
  191.5740  176.1160  147.4300 C   0  0  0  0  0  3  0  0  0  0  0  0
  190.3850  177.5940  145.3720 C   0  0  0  0  0  0  0  0  0  0  0  0
  191.4560  176.7370  145.0930 C   0  0  0  0  0  3  0  0  0  0  0  0
  192.0510  176.0010  146.1210 C   0  0  0  0  0  3  0  0  0  0  0  0
  190.5020  176.9700  147.7110 C   0  0  0  0  0  3  0  0  0  0  0  0
  189.9080  177.7070  146.6830 C   0  0  0  0  0  3  0  0  0  0  0  0
  186.7030  176.9200  144.0160 C   0  0  0  0  0  2  0  0  0  0  0  0
  186.1980  177.4320  145.3200 C   0  0  0  0  0  0  0  0  0  0  0  0
  186.8280  177.1830  146.3800 O   0  0  0  0  0  1  0  0  0  0  0  0
  185.0090  178.1470  145.3720 O   0  0  0  0  0  0  0  0  0  0  0  0
  1 11  1  0  0  0  0
  1 17  1  1  0  0  0
  2  1  1  0  0  0  0
  3 16  1  6  0  0  0
  3 11  1  0  0  0  0
  4  9  1  0  0  0  0
  4 10  1  0  0  0  0
  5  9  1  0  0  0  0
  6  2  1  0  0  0  0
  7  8  1  0  0  0  0
  8 12  1  0  0  0  0
  9  7  2  0  0  0  0
 10  8  2  0  0  0  0
 10 13  1  0  0  0  0
 11 24  1  0  0  0  0
 12  2  2  0  0  0  0
 12  3  1  0  0  0  0
 13  6  2  0  0  0  0
 15 16  1  0  0  0  0
 16 14  1  0  0  0  0
 17 19  1  0  0  0  0
 18 22  1  0  0  0  0
 19 23  1  0  0  0  0
 20 19  2  0  0  0  0
 20 21  1  0  0  0  0
 21 18  2  0  0  0  0
 23 22  2  0  0  0  0
 24 25  1  0  0  0  0
 25 27  2  0  0  0  0
 25 26  1  0  0  0  0
M  END
>  <MODEL>
5

>  <REMARK>
 VINA RESULT:      -6.9      3.422      7.345
  Name = 
  5 active torsions:
  status: ('A' for Active; 'I' for Inactive)
    1  A    between atoms: C_1  and  C_15
    2  A    between atoms: C_3  and  C_26
    3  A    between atoms: C_9  and  C_15
    4  A    between atoms: C_10  and  C_24
    5  A    between atoms: N_18  and  C_24
                            x       y       z     vdW  Elec       q    Type
                         _______ _______ _______ _____ _____    ______ ____

>  <TORSDO>
F 5

$$$$
=
 OpenBabel10262420113D

 27 30  0  0  1  0  0  0  0  0999 V2000
  188.2060  177.7930  143.7930 C   0  0  2  0  0  3  0  0  0  0  0  0
  188.5120  177.7210  142.3450 C   0  0  0  0  0  0  0  0  0  0  0  0
  190.4950  177.2500  143.4900 C   0  0  2  0  0  3  0  0  0  0  0  0
  190.4490  177.5030  138.3920 S   0  0  0  0  0  0  0  0  0  0  0  0
  193.1810  176.8720  138.6090 C   0  0  0  0  0  1  0  0  0  0  0  0
  187.6650  178.0040  141.2580 C   0  0  0  0  0  3  0  0  0  0  0  0
  191.6700  177.0970  140.5870 N   0  0  0  0  0  0  0  0  0  0  0  0
  190.3750  177.3710  140.8880 C   0  0  0  0  0  0  0  0  0  0  0  0
  191.8640  177.1310  139.2460 C   0  0  0  0  0  0  0  0  0  0  0  0
  189.5480  177.6240  139.8010 C   0  0  0  0  0  0  0  0  0  0  0  0
  189.4140  177.3130  144.4950 N   0  0  0  0  0  0  0  0  0  0  0  0
  189.8340  177.4140  142.1720 C   0  0  0  0  0  0  0  0  0  0  0  0
  188.1930  177.9450  139.9510 C   0  0  0  0  0  3  0  0  0  0  0  0
  190.4690  174.7130  143.2610 C   0  0  0  0  0  1  0  0  0  0  0  0
  191.9220  175.7980  144.9590 C   0  0  0  0  0  1  0  0  0  0  0  0
  191.2970  175.9440  143.5860 C   0  0  0  0  0  3  0  0  0  0  0  0
  186.9570  176.9950  144.1890 C   0  0  0  0  0  2  0  0  0  0  0  0
  183.4330  179.3910  144.7120 C   0  0  0  0  0  3  0  0  0  0  0  0
  185.7350  177.8350  144.3750 C   0  0  0  0  0  0  0  0  0  0  0  0
  185.3320  178.2250  145.6580 C   0  0  0  0  0  3  0  0  0  0  0  0
  184.1830  179.0030  145.8260 C   0  0  0  0  0  3  0  0  0  0  0  0
  183.8320  179.0010  143.4290 C   0  0  0  0  0  3  0  0  0  0  0  0
  184.9820  178.2240  143.2620 C   0  0  0  0  0  3  0  0  0  0  0  0
  189.7850  178.3330  145.4630 C   0  0  0  0  0  2  0  0  0  0  0  0
  189.4330  177.8780  146.8360 C   0  0  0  0  0  0  0  0  0  0  0  0
  190.2410  177.1710  147.4910 O   0  0  0  0  0  1  0  0  0  0  0  0
  188.1950  178.1960  147.3770 O   0  0  0  0  0  0  0  0  0  0  0  0
  1 17  1  6  0  0  0
  1 11  1  0  0  0  0
  2  1  1  0  0  0  0
  3 16  1  6  0  0  0
  3 11  1  0  0  0  0
  4  9  1  0  0  0  0
  4 10  1  0  0  0  0
  5  9  1  0  0  0  0
  6  2  2  0  0  0  0
  7  8  1  0  0  0  0
  8 12  2  0  0  0  0
  9  7  2  0  0  0  0
 10 13  2  0  0  0  0
 10  8  1  0  0  0  0
 11 24  1  0  0  0  0
 12  2  1  0  0  0  0
 12  3  1  0  0  0  0
 13  6  1  0  0  0  0
 14 16  1  0  0  0  0
 16 15  1  0  0  0  0
 17 19  1  0  0  0  0
 18 21  1  0  0  0  0
 19 20  1  0  0  0  0
 20 21  2  0  0  0  0
 22 18  2  0  0  0  0
 23 22  1  0  0  0  0
 23 19  2  0  0  0  0
 24 25  1  0  0  0  0
 25 27  2  0  0  0  0
 25 26  1  0  0  0  0
M  END
>  <MODEL>
6

>  <REMARK>
 VINA RESULT:      -6.8      3.314      6.416
  Name = 
  5 active torsions:
  status: ('A' for Active; 'I' for Inactive)
    1  A    between atoms: C_1  and  C_15
    2  A    between atoms: C_3  and  C_26
    3  A    between atoms: C_9  and  C_15
    4  A    between atoms: C_10  and  C_24
    5  A    between atoms: N_18  and  C_24
                            x       y       z     vdW  Elec       q    Type
                         _______ _______ _______ _____ _____    ______ ____

>  <TORSDO>
F 5

$$$$
=
 OpenBabel10262420113D

 27 30  0  0  1  0  0  0  0  0999 V2000
  188.6910  177.6370  141.3130 C   0  0  2  0  0  3  0  0  0  0  0  0
  187.3950  178.0470  141.9030 C   0  0  0  0  0  0  0  0  0  0  0  0
  188.8030  177.4580  143.6750 C   0  0  2  0  0  3  0  0  0  0  0  0
  183.9630  178.8210  144.5590 S   0  0  0  0  0  0  0  0  0  0  0  0
  184.6300  178.4140  147.2600 C   0  0  0  0  0  1  0  0  0  0  0  0
  186.2080  178.4100  141.2420 C   0  0  0  0  0  3  0  0  0  0  0  0
  186.2580  178.1020  145.3900 N   0  0  0  0  0  0  0  0  0  0  0  0
  186.3270  178.1930  144.0380 C   0  0  0  0  0  0  0  0  0  0  0  0
  185.0150  178.4210  145.8260 C   0  0  0  0  0  0  0  0  0  0  0  0
  185.1520  178.5760  143.4030 C   0  0  0  0  0  0  0  0  0  0  0  0
  189.6210  177.4500  142.4450 N   0  0  0  0  0  0  0  0  0  0  0  0
  187.4590  177.9380  143.2660 C   0  0  0  0  0  0  0  0  0  0  0  0
  185.0590  178.6920  142.0100 C   0  0  0  0  0  3  0  0  0  0  0  0
  190.6030  179.1530  144.2880 C   0  0  0  0  0  1  0  0  0  0  0  0
  189.8460  177.4780  145.9580 C   0  0  0  0  0  1  0  0  0  0  0  0
  189.4250  178.3280  144.7760 C   0  0  0  0  0  3  0  0  0  0  0  0
  189.2320  178.6400  140.2860 C   0  0  0  0  0  2  0  0  0  0  0  0
  189.6980  176.9880  136.3500 C   0  0  0  0  0  3  0  0  0  0  0  0
  189.3990  178.0710  138.9130 C   0  0  0  0  0  0  0  0  0  0  0  0
  188.9900  178.8010  137.7900 C   0  0  0  0  0  3  0  0  0  0  0  0
  189.1410  178.2600  136.5100 C   0  0  0  0  0  3  0  0  0  0  0  0
  190.1050  176.2560  137.4710 C   0  0  0  0  0  3  0  0  0  0  0  0
  189.9550  176.7980  138.7510 C   0  0  0  0  0  3  0  0  0  0  0  0
  190.1920  176.1180  142.3180 C   0  0  0  0  0  2  0  0  0  0  0  0
  191.5760  176.1090  142.8680 C   0  0  0  0  0  0  0  0  0  0  0  0
  192.4440  176.8910  142.4000 O   0  0  0  0  0  0  0  0  0  0  0  0
  191.9200  175.2080  143.8660 O   0  0  0  0  0  1  0  0  0  0  0  0
  1 17  1  6  0  0  0
  1  2  1  0  0  0  0
  1 11  1  0  0  0  0
  2 12  1  0  0  0  0
  3 16  1  1  0  0  0
  4  9  1  0  0  0  0
  6  2  2  0  0  0  0
  6 13  1  0  0  0  0
  7  9  2  0  0  0  0
  8  7  1  0  0  0  0
  9  5  1  0  0  0  0
 10  8  1  0  0  0  0
 10  4  1  0  0  0  0
 11  3  1  0  0  0  0
 12  3  1  0  0  0  0
 12  8  2  0  0  0  0
 13 10  2  0  0  0  0
 14 16  1  0  0  0  0
 16 15  1  0  0  0  0
 18 21  2  0  0  0  0
 18 22  1  0  0  0  0
 19 17  1  0  0  0  0
 20 19  2  0  0  0  0
 21 20  1  0  0  0  0
 22 23  2  0  0  0  0
 23 19  1  0  0  0  0
 24 11  1  0  0  0  0
 24 25  1  0  0  0  0
 25 27  1  0  0  0  0
 26 25  2  0  0  0  0
M  END
>  <MODEL>
7

>  <REMARK>
 VINA RESULT:      -6.8      1.778      2.119
  Name = 
  5 active torsions:
  status: ('A' for Active; 'I' for Inactive)
    1  A    between atoms: C_1  and  C_15
    2  A    between atoms: C_3  and  C_26
    3  A    between atoms: C_9  and  C_15
    4  A    between atoms: C_10  and  C_24
    5  A    between atoms: N_18  and  C_24
                            x       y       z     vdW  Elec       q    Type
                         _______ _______ _______ _____ _____    ______ ____

>  <TORSDO>
F 5

$$$$
=
 OpenBabel10262420113D

 27 30  0  0  1  0  0  0  0  0999 V2000
  188.3760  177.9630  146.1260 C   0  0  2  0  0  3  0  0  0  0  0  0
  186.9450  178.1640  145.7970 C   0  0  0  0  0  0  0  0  0  0  0  0
  188.0940  177.9520  143.7710 C   0  0  2  0  0  3  0  0  0  0  0  0
  183.0810  178.9190  143.8140 S   0  0  0  0  0  0  0  0  0  0  0  0
  183.3210  178.8400  141.0130 C   0  0  0  0  0  1  0  0  0  0  0  0
  185.8740  178.4190  146.6720 C   0  0  0  0  0  3  0  0  0  0  0  0
  185.2470  178.4630  142.5590 N   0  0  0  0  0  0  0  0  0  0  0  0
  185.5300  178.4180  143.8850 C   0  0  0  0  0  0  0  0  0  0  0  0
  183.9330  178.7280  142.3620 C   0  0  0  0  0  0  0  0  0  0  0  0
  184.4560  178.6490  144.7360 C   0  0  0  0  0  0  0  0  0  0  0  0
  189.0530  177.6460  144.8520 N   0  0  0  0  0  0  0  0  0  0  0  0
  186.7850  178.1640  144.4380 C   0  0  0  0  0  0  0  0  0  0  0  0
  184.5940  178.6580  146.1300 C   0  0  0  0  0  3  0  0  0  0  0  0
  188.8200  175.6000  143.1160 C   0  0  0  0  0  1  0  0  0  0  0  0
  188.5350  177.3480  141.3750 C   0  0  0  0  0  1  0  0  0  0  0  0
  188.0410  176.8400  142.7140 C   0  0  0  0  0  3  0  0  0  0  0  0
  188.6060  176.8760  147.1840 C   0  0  0  0  0  2  0  0  0  0  0  0
  192.7430  176.0980  148.0300 C   0  0  0  0  0  3  0  0  0  0  0  0
  190.0480  176.6050  147.4700 C   0  0  0  0  0  0  0  0  0  0  0  0
  190.6510  175.4260  147.0140 C   0  0  0  0  0  3  0  0  0  0  0  0
  191.9970  175.1740  147.2920 C   0  0  0  0  0  3  0  0  0  0  0  0
  192.1430  177.2750  148.4900 C   0  0  0  0  0  3  0  0  0  0  0  0
  190.7960  177.5270  148.2100 C   0  0  0  0  0  3  0  0  0  0  0  0
  190.1670  178.5710  144.7140 C   0  0  0  0  0  2  0  0  0  0  0  0
  191.2930  177.9020  144.0060 C   0  0  0  0  0  0  0  0  0  0  0  0
  191.9380  176.9840  144.5760 O   0  0  0  0  0  1  0  0  0  0  0  0
  191.6600  178.3200  142.7350 O   0  0  0  0  0  0  0  0  0  0  0  0
  1 17  1  1  0  0  0
  2  1  1  0  0  0  0
  2  6  1  0  0  0  0
  3 16  1  6  0  0  0
  3 12  1  0  0  0  0
  3 11  1  0  0  0  0
  4 10  1  0  0  0  0
  5  9  1  0  0  0  0
  7  8  1  0  0  0  0
  8 12  1  0  0  0  0
  8 10  2  0  0  0  0
  9  7  2  0  0  0  0
  9  4  1  0  0  0  0
 10 13  1  0  0  0  0
 11  1  1  0  0  0  0
 12  2  2  0  0  0  0
 13  6  2  0  0  0  0
 15 16  1  0  0  0  0
 16 14  1  0  0  0  0
 17 19  1  0  0  0  0
 18 22  1  0  0  0  0
 19 23  1  0  0  0  0
 20 21  1  0  0  0  0
 20 19  2  0  0  0  0
 21 18  2  0  0  0  0
 23 22  2  0  0  0  0
 24 11  1  0  0  0  0
 25 26  1  0  0  0  0
 25 24  1  0  0  0  0
 27 25  2  0  0  0  0
M  END
>  <MODEL>
8

>  <REMARK>
 VINA RESULT:      -6.6      2.518      6.282
  Name = 
  5 active torsions:
  status: ('A' for Active; 'I' for Inactive)
    1  A    between atoms: C_1  and  C_15
    2  A    between atoms: C_3  and  C_26
    3  A    between atoms: C_9  and  C_15
    4  A    between atoms: C_10  and  C_24
    5  A    between atoms: N_18  and  C_24
                            x       y       z     vdW  Elec       q    Type
                         _______ _______ _______ _____ _____    ______ ____

>  <TORSDO>
F 5

$$$$
=
 OpenBabel10262420113D

 27 30  0  0  1  0  0  0  0  0999 V2000
  185.5580  178.3760  143.0990 C   0  0  2  0  0  3  0  0  0  0  0  0
  184.1000  178.5770  143.2620 C   0  0  0  0  0  0  0  0  0  0  0  0
  184.5720  178.7810  140.9810 C   0  0  2  0  0  3  0  0  0  0  0  0
  179.8300  179.5270  142.7180 S   0  0  0  0  0  0  0  0  0  0  0  0
  179.2010  179.9650  140.0130 C   0  0  0  0  0  1  0  0  0  0  0  0
  183.3510  178.6280  144.4510 C   0  0  0  0  0  3  0  0  0  0  0  0
  181.5010  179.3910  140.8040 N   0  0  0  0  0  0  0  0  0  0  0  0
  182.1740  179.1170  141.9500 C   0  0  0  0  0  0  0  0  0  0  0  0
  180.1940  179.6360  141.0670 C   0  0  0  0  0  0  0  0  0  0  0  0
  181.4150  179.1480  143.1140 C   0  0  0  0  0  0  0  0  0  0  0  0
  185.8090  178.3220  141.6440 N   0  0  0  0  0  0  0  0  0  0  0  0
  183.5320  178.8170  142.0400 C   0  0  0  0  0  0  0  0  0  0  0  0
  181.9720  178.9110  144.3770 C   0  0  0  0  0  3  0  0  0  0  0  0
  183.7460  178.6560  138.5740 C   0  0  0  0  0  1  0  0  0  0  0  0
  183.0840  176.9110  140.2120 C   0  0  0  0  0  1  0  0  0  0  0  0
  184.1780  177.8770  139.8040 C   0  0  0  0  0  3  0  0  0  0  0  0
  186.0810  177.1260  143.8180 C   0  0  0  0  0  2  0  0  0  0  0  0
  188.5840  177.9650  147.2040 C   0  0  0  0  0  3  0  0  0  0  0  0
  186.9570  177.4230  144.9920 C   0  0  0  0  0  0  0  0  0  0  0  0
  188.3430  177.2440  144.9050 C   0  0  0  0  0  3  0  0  0  0  0  0
  189.1560  177.5150  146.0090 C   0  0  0  0  0  3  0  0  0  0  0  0
  187.2000  178.1420  147.2940 C   0  0  0  0  0  3  0  0  0  0  0  0
  186.3870  177.8720  146.1890 C   0  0  0  0  0  3  0  0  0  0  0  0
  186.8440  179.3000  141.3480 C   0  0  0  0  0  2  0  0  0  0  0  0
  188.0190  178.6200  140.7330 C   0  0  0  0  0  0  0  0  0  0  0  0
  188.8860  178.0780  141.4650 O   0  0  0  0  0  1  0  0  0  0  0  0
  188.1790  178.6230  139.3540 O   0  0  0  0  0  0  0  0  0  0  0  0
  1  2  1  0  0  0  0
  1 17  1  1  0  0  0
  2  6  1  0  0  0  0
  3 16  1  6  0  0  0
  3 11  1  0  0  0  0
  3 12  1  0  0  0  0
  4 10  1  0  0  0  0
  5  9  1  0  0  0  0
  7  9  2  0  0  0  0
  7  8  1  0  0  0  0
  8 12  1  0  0  0  0
  8 10  2  0  0  0  0
  9  4  1  0  0  0  0
 10 13  1  0  0  0  0
 11  1  1  0  0  0  0
 12  2  2  0  0  0  0
 13  6  2  0  0  0  0
 14 16  1  0  0  0  0
 16 15  1  0  0  0  0
 17 19  1  0  0  0  0
 18 22  1  0  0  0  0
 19 23  1  0  0  0  0
 20 19  2  0  0  0  0
 20 21  1  0  0  0  0
 21 18  2  0  0  0  0
 23 22  2  0  0  0  0
 24 11  1  0  0  0  0
 25 24  1  0  0  0  0
 25 26  1  0  0  0  0
 27 25  2  0  0  0  0
M  END
>  <MODEL>
9

>  <REMARK>
 VINA RESULT:      -6.5      3.809      7.034
  Name = 
  5 active torsions:
  status: ('A' for Active; 'I' for Inactive)
    1  A    between atoms: C_1  and  C_15
    2  A    between atoms: C_3  and  C_26
    3  A    between atoms: C_9  and  C_15
    4  A    between atoms: C_10  and  C_24
    5  A    between atoms: N_18  and  C_24
                            x       y       z     vdW  Elec       q    Type
                         _______ _______ _______ _____ _____    ______ ____

>  <TORSDO>
F 5

$$$$
