=
 OpenBabel10262423023D

 37 41  0  0  1  0  0  0  0  0999 V2000
  181.2260  175.9250  139.5030 S   0  0  0  0  0  0  0  0  0  0  0  0
  184.6260  178.2580  141.7530 C   0  0  2  0  0  3  0  0  0  0  0  0
  181.4560  174.8970  138.0410 C   0  0  2  0  0  3  0  0  0  0  0  0
  185.5970  178.0590  137.9060 C   0  0  0  0  0  2  0  0  0  0  0  0
  184.6740  177.8010  140.2850 C   0  0  2  0  0  3  0  0  0  0  0  0
  183.2870  178.9380  141.9520 C   0  0  1  0  0  3  0  0  0  0  0  0
  185.6930  178.5340  139.3640 C   0  0  1  0  0  3  0  0  0  0  0  0
  181.9610  175.6870  136.9970 O   0  0  0  0  0  0  0  0  0  0  0  0
  182.3690  178.3380  140.9080 C   0  0  2  0  0  3  0  0  0  0  0  0
  186.7840  178.3240  142.3870 C   0  0  0  0  0  2  0  0  0  0  0  0
  182.9400  176.5620  137.5220 C   0  0  2  0  0  0  0  0  0  0  0  0
  185.5440  176.5400  137.8160 C   0  0  0  0  0  2  0  0  0  0  0  0
  185.6710  179.1300  142.0900 O   0  0  0  0  0  0  0  0  0  0  0  0
  183.2530  177.9010  139.7450 C   0  0  2  0  0  3  0  0  0  0  0  0
  187.1550  178.6270  139.9080 C   0  0  1  0  0  3  0  0  0  0  0  0
  184.3190  176.0620  137.0320 C   0  0  0  0  0  2  0  0  0  0  0  0
  182.8510  176.5680  139.0680 C   0  0  1  0  0  3  0  0  0  0  0  0
  187.4310  177.7450  141.1220 C   0  0  0  0  0  2  0  0  0  0  0  0
  182.6520  177.9630  136.9520 C   0  0  0  0  0  2  0  0  0  0  0  0
  181.7610  177.9260  135.7190 C   0  0  0  0  0  1  0  0  0  0  0  0
  179.4230  173.6830  138.8140 C   0  0  0  0  0  1  0  0  0  0  0  0
  180.1360  174.2810  137.6160 C   0  0  0  0  0  2  0  0  0  0  0  0
  181.3640  179.3440  140.4520 C   0  0  0  0  0  0  0  0  0  0  0  0
  181.6620  180.1320  139.5150 O   0  0  0  0  0  0  0  0  0  0  0  0
  180.1060  179.3990  141.0590 O   0  0  0  0  0  0  0  0  0  0  0  0
  179.5520  180.6120  141.5520 C   0  0  0  0  0  2  0  0  0  0  0  0
  180.0550  180.8790  142.8250 O   0  0  0  0  0  1  0  0  0  0  0  0
  188.2630  178.4590  138.8710 C   0  0  0  0  0  2  0  0  0  0  0  0
  190.4960  177.5700  139.4610 C   0  0  0  0  0  2  0  0  0  0  0  0
  189.0530  176.3530  138.0210 O   0  0  0  0  0  0  0  0  0  0  0  0
  190.3780  174.4900  137.8370 O   0  0  0  0  0  1  0  0  0  0  0  0
  191.2580  176.4040  138.9350 C   0  0  0  0  0  2  0  0  0  0  0  0
  190.3680  175.8850  137.8330 C   0  0  2  0  0  3  0  0  0  0  0  0
  189.0710  177.2000  139.1440 C   0  0  2  0  0  3  0  0  0  0  0  0
  182.7420  178.6600  143.3420 C   0  0  0  0  0  2  0  0  0  0  0  0
  183.3160  179.6440  144.3430 C   0  0  0  0  0  2  0  0  0  0  0  0
  183.5140  179.0030  145.5650 O   0  0  0  0  0  1  0  0  0  0  0  0
  2  6  1  0  0  0  0
  2 13  1  6  0  0  0
  3 22  1  6  0  0  0
  3  1  1  0  0  0  0
  4  7  1  0  0  0  0
  5  2  1  0  0  0  0
  6 35  1  0  0  0  0
  7 15  1  0  0  0  0
  7  5  1  0  0  0  0
  8 11  1  0  0  0  0
  8  3  1  0  0  0  0
  9  6  1  0  0  0  0
 11 17  1  0  0  0  0
 12  4  1  0  0  0  0
 13 10  1  0  0  0  0
 14  5  1  0  0  0  0
 14  9  1  0  0  0  0
 15 18  1  0  0  0  0
 16 11  1  0  0  0  0
 16 12  1  0  0  0  0
 17  1  1  0  0  0  0
 17 14  1  0  0  0  0
 18 10  1  0  0  0  0
 19 11  1  0  0  0  0
 20 19  1  0  0  0  0
 22 21  1  0  0  0  0
 23  9  1  0  0  0  0
 23 25  1  0  0  0  0
 24 23  2  0  0  0  0
 25 26  1  0  0  0  0
 26 27  1  0  0  0  0
 28 34  1  0  0  0  0
 28 15  1  0  0  0  0
 30 34  1  0  0  0  0
 32 29  1  0  0  0  0
 33 31  1  0  0  0  0
 33 30  1  0  0  0  0
 33 32  1  0  0  0  0
 34 29  1  0  0  0  0
 35 36  1  0  0  0  0
 36 37  1  0  0  0  0
M  END
>  <MODEL>
1

>  <REMARK>
 VINA RESULT:      -5.5      0.000      0.000
  Name = 
  9 active torsions:
  status: ('A' for Active; 'I' for Inactive)
    1  A    between atoms: C_3  and  O_32
    2  A    between atoms: C_5  and  C_23
    3  A    between atoms: C_6  and  C_31
    4  A    between atoms: C_6  and  C_35
    5  A    between atoms: C_9  and  C_13
    6  A    between atoms: C_9  and  C_16
    7  A    between atoms: C_11  and  C_26
    8  A    between atoms: C_20  and  C_21
    9  A    between atoms: C_21  and  O_32
                            x       y       z     vdW  Elec       q    Type
                         _______ _______ _______ _____ _____    ______ ____

>  <TORSDO>
F 9

$$$$
=
 OpenBabel10262423023D

 37 41  0  0  1  0  0  0  0  0999 V2000
  179.8500  176.9420  139.5310 S   0  0  0  0  0  0  0  0  0  0  0  0
  182.7040  178.6580  142.8440 C   0  0  2  0  0  3  0  0  0  0  0  0
  180.3760  176.0070  138.0810 C   0  0  2  0  0  3  0  0  0  0  0  0
  184.6810  178.6330  139.3980 C   0  0  0  0  0  2  0  0  0  0  0  0
  183.1130  178.3110  141.4010 C   0  0  2  0  0  3  0  0  0  0  0  0
  181.4360  179.4820  142.7490 C   0  0  1  0  0  3  0  0  0  0  0  0
  184.4140  178.9810  140.8710 C   0  0  1  0  0  3  0  0  0  0  0  0
  181.2260  176.8060  137.3020 O   0  0  0  0  0  0  0  0  0  0  0  0
  180.7900  179.0800  141.4400 C   0  0  2  0  0  3  0  0  0  0  0  0
  184.5960  178.4080  144.0350 C   0  0  0  0  0  2  0  0  0  0  0  0
  182.1010  177.5100  138.1590 C   0  0  2  0  0  0  0  0  0  0  0  0
  184.5050  177.1440  139.1350 C   0  0  0  0  0  2  0  0  0  0  0  0
  183.6950  179.3650  143.5390 O   0  0  0  0  0  0  0  0  0  0  0  0
  181.9140  178.6280  140.5160 C   0  0  2  0  0  3  0  0  0  0  0  0
  185.6690  178.8500  141.7920 C   0  0  1  0  0  3  0  0  0  0  0  0
  183.5060  176.8820  138.0060 C   0  0  0  0  0  2  0  0  0  0  0  0
  181.5870  177.4090  139.6170 C   0  0  1  0  0  3  0  0  0  0  0  0
  185.5090  177.8510  142.9340 C   0  0  0  0  0  2  0  0  0  0  0  0
  182.1220  178.9750  137.6870 C   0  0  0  0  0  2  0  0  0  0  0  0
  181.2300  179.2170  136.4780 C   0  0  0  0  0  1  0  0  0  0  0  0
  179.3650  174.1930  136.7050 C   0  0  0  0  0  1  0  0  0  0  0  0
  179.1710  175.5940  137.2560 C   0  0  0  0  0  2  0  0  0  0  0  0
  180.0550  180.2350  140.8420 C   0  0  0  0  0  0  0  0  0  0  0  0
  178.9310  180.5600  141.3090 O   0  0  0  0  0  0  0  0  0  0  0  0
  180.6180  180.9460  139.7780 O   0  0  0  0  0  0  0  0  0  0  0  0
  179.8270  181.6390  138.8220 C   0  0  0  0  0  2  0  0  0  0  0  0
  180.6230  182.5410  138.1150 O   0  0  0  0  0  1  0  0  0  0  0  0
  186.9990  178.6250  141.0770 C   0  0  0  0  0  2  0  0  0  0  0  0
  188.9560  178.8440  142.5770 C   0  0  0  0  0  2  0  0  0  0  0  0
  188.6760  176.9090  141.2310 O   0  0  0  0  0  0  0  0  0  0  0  0
  190.4670  175.7460  142.0670 O   0  0  0  0  0  1  0  0  0  0  0  0
  190.1860  178.0160  142.7110 C   0  0  0  0  0  2  0  0  0  0  0  0
  190.0280  176.9910  141.6150 C   0  0  2  0  0  3  0  0  0  0  0  0
  187.9740  177.8760  141.9730 C   0  0  2  0  0  3  0  0  0  0  0  0
  180.5010  179.1680  143.9050 C   0  0  0  0  0  2  0  0  0  0  0  0
  179.6030  177.9970  143.5570 C   0  0  0  0  0  2  0  0  0  0  0  0
  179.7780  176.9810  144.4950 O   0  0  0  0  0  1  0  0  0  0  0  0
  1 17  1  0  0  0  0
  2 13  1  6  0  0  0
  3 22  1  6  0  0  0
  3  1  1  0  0  0  0
  4  7  1  0  0  0  0
  5  2  1  0  0  0  0
  6  2  1  0  0  0  0
  6 35  1  0  0  0  0
  7  5  1  0  0  0  0
  7 15  1  0  0  0  0
  8  3  1  0  0  0  0
  8 11  1  0  0  0  0
  9  6  1  0  0  0  0
 11 17  1  0  0  0  0
 12  4  1  0  0  0  0
 13 10  1  0  0  0  0
 14  5  1  0  0  0  0
 14  9  1  0  0  0  0
 15 18  1  0  0  0  0
 16 11  1  0  0  0  0
 16 12  1  0  0  0  0
 17 14  1  0  0  0  0
 18 10  1  0  0  0  0
 19 11  1  0  0  0  0
 20 19  1  0  0  0  0
 21 22  1  0  0  0  0
 23 24  2  0  0  0  0
 23  9  1  0  0  0  0
 25 23  1  0  0  0  0
 26 25  1  0  0  0  0
 27 26  1  0  0  0  0
 28 15  1  0  0  0  0
 28 34  1  0  0  0  0
 29 32  1  0  0  0  0
 30 33  1  0  0  0  0
 30 34  1  0  0  0  0
 33 31  1  0  0  0  0
 33 32  1  0  0  0  0
 34 29  1  0  0  0  0
 36 35  1  0  0  0  0
 36 37  1  0  0  0  0
M  END
>  <MODEL>
2

>  <REMARK>
 VINA RESULT:      -5.4      2.016      2.701
  Name = 
  9 active torsions:
  status: ('A' for Active; 'I' for Inactive)
    1  A    between atoms: C_3  and  O_32
    2  A    between atoms: C_5  and  C_23
    3  A    between atoms: C_6  and  C_31
    4  A    between atoms: C_6  and  C_35
    5  A    between atoms: C_9  and  C_13
    6  A    between atoms: C_9  and  C_16
    7  A    between atoms: C_11  and  C_26
    8  A    between atoms: C_20  and  C_21
    9  A    between atoms: C_21  and  O_32
                            x       y       z     vdW  Elec       q    Type
                         _______ _______ _______ _____ _____    ______ ____

>  <TORSDO>
F 9

$$$$
=
 OpenBabel10262423023D

 37 41  0  0  1  0  0  0  0  0999 V2000
  183.9490  176.7220  137.4350 S   0  0  0  0  0  0  0  0  0  0  0  0
  184.7210  178.1900  141.8290 C   0  0  2  0  0  3  0  0  0  0  0  0
  185.1580  175.8960  136.3820 C   0  0  2  0  0  3  0  0  0  0  0  0
  188.1450  178.4180  139.8270 C   0  0  0  0  0  2  0  0  0  0  0  0
  185.8030  177.9500  140.7620 C   0  0  2  0  0  3  0  0  0  0  0  0
  183.6380  179.0180  141.1690 C   0  0  1  0  0  3  0  0  0  0  0  0
  187.1720  178.6560  140.9920 C   0  0  1  0  0  3  0  0  0  0  0  0
  186.2520  176.7500  136.1800 O   0  0  0  0  0  0  0  0  0  0  0  0
  183.7400  178.7140  139.6900 C   0  0  2  0  0  3  0  0  0  0  0  0
  185.7820  177.8520  143.7850 C   0  0  0  0  0  2  0  0  0  0  0  0
  186.5620  177.3890  137.4030 C   0  0  2  0  0  0  0  0  0  0  0  0
  188.1780  176.9520  139.4180 C   0  0  0  0  0  2  0  0  0  0  0  0
  185.2110  178.8440  142.9680 O   0  0  0  0  0  0  0  0  0  0  0  0
  185.1910  178.3310  139.4200 C   0  0  2  0  0  3  0  0  0  0  0  0
  187.8090  178.4580  142.4050 C   0  0  1  0  0  3  0  0  0  0  0  0
  187.8800  176.7740  137.9270 C   0  0  0  0  0  2  0  0  0  0  0  0
  185.3970  177.1820  138.4020 C   0  0  1  0  0  3  0  0  0  0  0  0
  187.1400  177.3780  143.2500 C   0  0  0  0  0  2  0  0  0  0  0  0
  186.7600  178.8850  137.0970 C   0  0  0  0  0  2  0  0  0  0  0  0
  188.1010  179.1800  136.4420 C   0  0  0  0  0  1  0  0  0  0  0  0
  183.6370  174.3310  135.1800 C   0  0  0  0  0  1  0  0  0  0  0  0
  184.5370  175.5450  135.0420 C   0  0  0  0  0  2  0  0  0  0  0  0
  183.3570  179.9100  138.8810 C   0  0  0  0  0  0  0  0  0  0  0  0
  184.1900  180.8420  138.7240 O   0  0  0  0  0  0  0  0  0  0  0  0
  182.0870  179.9830  138.3020 O   0  0  0  0  0  0  0  0  0  0  0  0
  181.2680  181.1410  138.4060 C   0  0  0  0  0  2  0  0  0  0  0  0
  180.5820  181.1270  139.6200 O   0  0  0  0  0  1  0  0  0  0  0  0
  189.3250  178.2870  142.4330 C   0  0  0  0  0  2  0  0  0  0  0  0
  190.2600  177.9880  144.7050 C   0  0  0  0  0  2  0  0  0  0  0  0
  190.7340  176.4180  142.9870 O   0  0  0  0  0  0  0  0  0  0  0  0
  191.8880  174.9340  144.3000 O   0  0  0  0  0  1  0  0  0  0  0  0
  191.2740  177.0320  145.2310 C   0  0  0  0  0  2  0  0  0  0  0  0
  191.7090  176.2830  143.9950 C   0  0  2  0  0  3  0  0  0  0  0  0
  189.7340  177.2720  143.4890 C   0  0  2  0  0  3  0  0  0  0  0  0
  182.2650  178.6210  141.6860 C   0  0  0  0  0  2  0  0  0  0  0  0
  181.9540  179.3490  142.9790 C   0  0  0  0  0  2  0  0  0  0  0  0
  180.8020  180.1170  142.8150 O   0  0  0  0  0  1  0  0  0  0  0  0
  1 17  1  0  0  0  0
  2 13  1  1  0  0  0
  3 22  1  6  0  0  0
  3  1  1  0  0  0  0
  4  7  1  0  0  0  0
  5  7  1  0  0  0  0
  5  2  1  0  0  0  0
  6 35  1  0  0  0  0
  6  2  1  0  0  0  0
  7 15  1  0  0  0  0
  8  3  1  0  0  0  0
  8 11  1  0  0  0  0
  9  6  1  0  0  0  0
 11 16  1  0  0  0  0
 11 17  1  0  0  0  0
 12  4  1  0  0  0  0
 13 10  1  0  0  0  0
 14  9  1  0  0  0  0
 14  5  1  0  0  0  0
 15 28  1  0  0  0  0
 15 18  1  0  0  0  0
 16 12  1  0  0  0  0
 17 14  1  0  0  0  0
 18 10  1  0  0  0  0
 19 11  1  0  0  0  0
 20 19  1  0  0  0  0
 22 21  1  0  0  0  0
 23  9  1  0  0  0  0
 24 23  2  0  0  0  0
 25 26  1  0  0  0  0
 25 23  1  0  0  0  0
 26 27  1  0  0  0  0
 28 34  1  0  0  0  0
 29 32  1  0  0  0  0
 30 34  1  0  0  0  0
 30 33  1  0  0  0  0
 33 31  1  0  0  0  0
 33 32  1  0  0  0  0
 34 29  1  0  0  0  0
 35 36  1  0  0  0  0
 37 36  1  0  0  0  0
M  END
>  <MODEL>
3

>  <REMARK>
 VINA RESULT:      -5.2      2.600      3.820
  Name = 
  9 active torsions:
  status: ('A' for Active; 'I' for Inactive)
    1  A    between atoms: C_3  and  O_32
    2  A    between atoms: C_5  and  C_23
    3  A    between atoms: C_6  and  C_31
    4  A    between atoms: C_6  and  C_35
    5  A    between atoms: C_9  and  C_13
    6  A    between atoms: C_9  and  C_16
    7  A    between atoms: C_11  and  C_26
    8  A    between atoms: C_20  and  C_21
    9  A    between atoms: C_21  and  O_32
                            x       y       z     vdW  Elec       q    Type
                         _______ _______ _______ _____ _____    ______ ____

>  <TORSDO>
F 9

$$$$
=
 OpenBabel10262423023D

 37 41  0  0  1  0  0  0  0  0999 V2000
  181.8950  179.8940  138.1450 S   0  0  0  0  0  0  0  0  0  0  0  0
  186.1410  178.6520  139.7210 C   0  0  2  0  0  3  0  0  0  0  0  0
  180.5380  180.5000  139.1660 C   0  0  2  0  0  3  0  0  0  0  0  0
  183.4880  177.8900  142.5780 C   0  0  0  0  0  2  0  0  0  0  0  0
  184.8510  178.6900  140.5590 C   0  0  2  0  0  3  0  0  0  0  0  0
  185.8060  177.9110  138.4430 C   0  0  1  0  0  3  0  0  0  0  0  0
  184.8500  177.8470  141.8680 C   0  0  1  0  0  3  0  0  0  0  0  0
  180.1880  179.5130  140.0990 O   0  0  0  0  0  0  0  0  0  0  0  0
  184.3170  178.0990  138.2450 C   0  0  2  0  0  3  0  0  0  0  0  0
  187.7870  178.9970  141.2170 C   0  0  0  0  0  2  0  0  0  0  0  0
  181.3700  178.9270  140.6070 C   0  0  2  0  0  0  0  0  0  0  0  0
  182.9470  179.3110  142.6630 C   0  0  0  0  0  2  0  0  0  0  0  0
  187.2060  178.0250  140.3840 O   0  0  0  0  0  0  0  0  0  0  0  0
  183.7110  178.2920  139.6300 C   0  0  2  0  0  3  0  0  0  0  0  0
  186.0710  178.0660  142.8180 C   0  0  1  0  0  3  0  0  0  0  0  0
  181.5440  179.4190  142.0620 C   0  0  0  0  0  2  0  0  0  0  0  0
  182.5710  179.3370  139.7180 C   0  0  1  0  0  3  0  0  0  0  0  0
  186.9350  179.2720  142.4630 C   0  0  0  0  0  2  0  0  0  0  0  0
  181.1690  177.4010  140.5840 C   0  0  0  0  0  2  0  0  0  0  0  0
  179.9810  176.9750  139.7350 C   0  0  0  0  0  1  0  0  0  0  0  0
  179.7480  181.6970  137.1290 C   0  0  0  0  0  1  0  0  0  0  0  0
  179.3340  180.8280  138.3020 C   0  0  0  0  0  2  0  0  0  0  0  0
  183.7220  176.9040  137.5760 C   0  0  0  0  0  0  0  0  0  0  0  0
  182.5990  177.0060  137.0140 O   0  0  0  0  0  0  0  0  0  0  0  0
  184.4130  175.6880  137.5740 O   0  0  0  0  0  0  0  0  0  0  0  0
  183.7460  174.4340  137.6220 C   0  0  0  0  0  2  0  0  0  0  0  0
  184.6630  173.4210  137.9030 O   0  0  0  0  0  1  0  0  0  0  0  0
  185.7590  178.0620  144.3120 C   0  0  0  0  0  2  0  0  0  0  0  0
  186.8730  177.7960  146.5070 C   0  0  0  0  0  2  0  0  0  0  0  0
  188.0900  177.4950  144.4900 O   0  0  0  0  0  0  0  0  0  0  0  0
  190.0490  176.8130  145.4660 O   0  0  0  0  0  1  0  0  0  0  0  0
  188.3090  177.6250  146.8640 C   0  0  0  0  0  2  0  0  0  0  0  0
  189.0060  177.7380  145.5310 C   0  0  2  0  0  3  0  0  0  0  0  0
  186.8280  177.3040  145.0840 C   0  0  2  0  0  3  0  0  0  0  0  0
  186.5630  178.5000  137.2640 C   0  0  0  0  0  2  0  0  0  0  0  0
  188.0430  178.1910  137.3780 C   0  0  0  0  0  2  0  0  0  0  0  0
  188.7520  179.3750  137.5790 O   0  0  0  0  0  1  0  0  0  0  0  0
  1  3  1  0  0  0  0
  1 17  1  0  0  0  0
  2 13  1  1  0  0  0
  2  5  1  0  0  0  0
  3 22  1  6  0  0  0
  3  8  1  0  0  0  0
  4 12  1  0  0  0  0
  5  7  1  0  0  0  0
  6  2  1  0  0  0  0
  7  4  1  0  0  0  0
  7 15  1  0  0  0  0
  8 11  1  0  0  0  0
  9  6  1  0  0  0  0
  9 14  1  0  0  0  0
 10 18  1  0  0  0  0
 11 16  1  0  0  0  0
 13 10  1  0  0  0  0
 14 17  1  0  0  0  0
 14  5  1  0  0  0  0
 15 28  1  0  0  0  0
 16 12  1  0  0  0  0
 17 11  1  0  0  0  0
 18 15  1  0  0  0  0
 19 11  1  0  0  0  0
 20 19  1  0  0  0  0
 21 22  1  0  0  0  0
 23  9  1  0  0  0  0
 24 23  2  0  0  0  0
 25 23  1  0  0  0  0
 25 26  1  0  0  0  0
 26 27  1  0  0  0  0
 28 34  1  0  0  0  0
 29 32  1  0  0  0  0
 30 34  1  0  0  0  0
 30 33  1  0  0  0  0
 31 33  1  0  0  0  0
 33 32  1  0  0  0  0
 34 29  1  0  0  0  0
 35 36  1  0  0  0  0
 35  6  1  0  0  0  0
 36 37  1  0  0  0  0
M  END
>  <MODEL>
4

>  <REMARK>
 VINA RESULT:      -5.1      2.556      5.890
  Name = 
  9 active torsions:
  status: ('A' for Active; 'I' for Inactive)
    1  A    between atoms: C_3  and  O_32
    2  A    between atoms: C_5  and  C_23
    3  A    between atoms: C_6  and  C_31
    4  A    between atoms: C_6  and  C_35
    5  A    between atoms: C_9  and  C_13
    6  A    between atoms: C_9  and  C_16
    7  A    between atoms: C_11  and  C_26
    8  A    between atoms: C_20  and  C_21
    9  A    between atoms: C_21  and  O_32
                            x       y       z     vdW  Elec       q    Type
                         _______ _______ _______ _____ _____    ______ ____

>  <TORSDO>
F 9

$$$$
=
 OpenBabel10262423023D

 37 41  0  0  1  0  0  0  0  0999 V2000
  187.5970  175.0130  136.4870 S   0  0  0  0  0  0  0  0  0  0  0  0
  186.2720  177.9630  139.8920 C   0  0  2  0  0  3  0  0  0  0  0  0
  189.0940  174.0070  136.4990 C   0  0  2  0  0  3  0  0  0  0  0  0
  190.2430  177.8490  139.8280 C   0  0  0  0  0  2  0  0  0  0  0  0
  187.7120  177.4870  139.6300 C   0  0  2  0  0  3  0  0  0  0  0  0
  185.7090  178.4000  138.5550 C   0  0  1  0  0  3  0  0  0  0  0  0
  188.8510  178.3680  140.2220 C   0  0  1  0  0  3  0  0  0  0  0  0
  190.2140  174.8500  136.5610 O   0  0  0  0  0  0  0  0  0  0  0  0
  186.4870  177.6220  137.5150 C   0  0  2  0  0  3  0  0  0  0  0  0
  186.2310  178.4260  142.0940 C   0  0  0  0  0  2  0  0  0  0  0  0
  189.9460  175.8960  137.4730 C   0  0  2  0  0  0  0  0  0  0  0  0
  190.3530  176.3430  140.0220 C   0  0  0  0  0  2  0  0  0  0  0  0
  186.2030  179.0140  140.8180 O   0  0  0  0  0  0  0  0  0  0  0  0
  187.8530  177.3220  138.1220 C   0  0  2  0  0  3  0  0  0  0  0  0
  188.7120  178.7310  141.7350 C   0  0  1  0  0  3  0  0  0  0  0  0
  190.7960  175.6370  138.7390 C   0  0  0  0  0  2  0  0  0  0  0  0
  188.4320  175.9220  137.7970 C   0  0  1  0  0  3  0  0  0  0  0  0
  187.6370  177.9410  142.4750 C   0  0  0  0  0  2  0  0  0  0  0  0
  190.3840  177.2100  136.8010 C   0  0  0  0  0  2  0  0  0  0  0  0
  190.1650  177.2040  135.2950 C   0  0  0  0  0  1  0  0  0  0  0  0
  190.6100  172.8070  134.9290 C   0  0  0  0  0  1  0  0  0  0  0  0
  189.1690  173.1570  135.2440 C   0  0  0  0  0  2  0  0  0  0  0  0
  186.6360  178.4230  136.2640 C   0  0  0  0  0  0  0  0  0  0  0  0
  187.3840  179.4360  136.2640 O   0  0  0  0  0  0  0  0  0  0  0  0
  185.9520  178.0410  135.1050 O   0  0  0  0  0  0  0  0  0  0  0  0
  185.0870  176.9140  135.0690 C   0  0  0  0  0  2  0  0  0  0  0  0
  183.7580  177.3360  135.0910 O   0  0  0  0  0  1  0  0  0  0  0  0
  190.0100  178.7370  142.5390 C   0  0  0  0  0  2  0  0  0  0  0  0
  189.8500  178.0980  144.9260 C   0  0  0  0  0  2  0  0  0  0  0  0
  191.2700  176.9010  143.4460 O   0  0  0  0  0  0  0  0  0  0  0  0
  191.9070  175.2860  144.9440 O   0  0  0  0  0  1  0  0  0  0  0  0
  190.6430  177.1340  145.7380 C   0  0  0  0  0  2  0  0  0  0  0  0
  191.6920  176.6530  144.7660 C   0  0  2  0  0  3  0  0  0  0  0  0
  190.0390  177.5790  143.5250 C   0  0  2  0  0  3  0  0  0  0  0  0
  184.2310  178.0620  138.4570 C   0  0  0  0  0  2  0  0  0  0  0  0
  183.3970  179.1330  139.1320 C   0  0  0  0  0  2  0  0  0  0  0  0
  184.0530  180.3600  139.0430 O   0  0  0  0  0  1  0  0  0  0  0  0
  1  3  1  0  0  0  0
  1 17  1  0  0  0  0
  2 13  1  1  0  0  0
  3 22  1  6  0  0  0
  3  8  1  0  0  0  0
  4 12  1  0  0  0  0
  4  7  1  0  0  0  0
  5  2  1  0  0  0  0
  5  7  1  0  0  0  0
  6  2  1  0  0  0  0
  7 15  1  0  0  0  0
  8 11  1  0  0  0  0
  9 14  1  0  0  0  0
  9  6  1  0  0  0  0
 10 18  1  0  0  0  0
 11 17  1  0  0  0  0
 11 16  1  0  0  0  0
 13 10  1  0  0  0  0
 14  5  1  0  0  0  0
 15 18  1  0  0  0  0
 15 28  1  0  0  0  0
 16 12  1  0  0  0  0
 17 14  1  0  0  0  0
 19 11  1  0  0  0  0
 20 19  1  0  0  0  0
 21 22  1  0  0  0  0
 23 24  2  0  0  0  0
 23  9  1  0  0  0  0
 25 23  1  0  0  0  0
 26 27  1  0  0  0  0
 26 25  1  0  0  0  0
 28 34  1  0  0  0  0
 29 32  1  0  0  0  0
 30 34  1  0  0  0  0
 30 33  1  0  0  0  0
 33 31  1  0  0  0  0
 33 32  1  0  0  0  0
 34 29  1  0  0  0  0
 35  6  1  0  0  0  0
 35 36  1  0  0  0  0
 37 36  1  0  0  0  0
M  END
>  <MODEL>
5

>  <REMARK>
 VINA RESULT:      -5.0      3.182      6.402
  Name = 
  9 active torsions:
  status: ('A' for Active; 'I' for Inactive)
    1  A    between atoms: C_3  and  O_32
    2  A    between atoms: C_5  and  C_23
    3  A    between atoms: C_6  and  C_31
    4  A    between atoms: C_6  and  C_35
    5  A    between atoms: C_9  and  C_13
    6  A    between atoms: C_9  and  C_16
    7  A    between atoms: C_11  and  C_26
    8  A    between atoms: C_20  and  C_21
    9  A    between atoms: C_21  and  O_32
                            x       y       z     vdW  Elec       q    Type
                         _______ _______ _______ _____ _____    ______ ____

>  <TORSDO>
F 9

$$$$
=
 OpenBabel10262423023D

 37 41  0  0  1  0  0  0  0  0999 V2000
  182.2280  176.0390  138.9620 S   0  0  0  0  0  0  0  0  0  0  0  0
  186.1440  178.2890  140.2540 C   0  0  2  0  0  3  0  0  0  0  0  0
  182.1200  174.7910  137.6660 C   0  0  2  0  0  3  0  0  0  0  0  0
  186.4280  177.4290  136.3850 C   0  0  0  0  0  2  0  0  0  0  0  0
  185.9040  177.6210  138.8880 C   0  0  2  0  0  3  0  0  0  0  0  0
  184.9200  179.1330  140.5450 C   0  0  1  0  0  3  0  0  0  0  0  0
  186.8100  178.0970  137.7150 C   0  0  1  0  0  3  0  0  0  0  0  0
  182.5050  175.3620  136.4440 O   0  0  0  0  0  0  0  0  0  0  0  0
  183.7920  178.4910  139.7660 C   0  0  2  0  0  3  0  0  0  0  0  0
  188.3770  178.2100  140.5270 C   0  0  0  0  0  2  0  0  0  0  0  0
  183.6280  176.1910  136.6630 C   0  0  2  0  0  0  0  0  0  0  0  0
  186.2330  175.9280  136.5500 C   0  0  0  0  0  2  0  0  0  0  0  0
  187.3010  179.0810  140.2800 O   0  0  0  0  0  0  0  0  0  0  0  0
  184.4250  177.7970  138.5660 C   0  0  2  0  0  3  0  0  0  0  0  0
  188.3460  178.1080  138.0040 C   0  0  1  0  0  3  0  0  0  0  0  0
  184.8570  175.4780  136.0520 C   0  0  0  0  0  2  0  0  0  0  0  0
  183.8040  176.4310  138.1830 C   0  0  1  0  0  3  0  0  0  0  0  0
  188.7480  177.3870  139.2860 C   0  0  0  0  0  2  0  0  0  0  0  0
  183.3670  177.5180  135.9270 C   0  0  0  0  0  2  0  0  0  0  0  0
  181.8840  177.8300  135.7850 C   0  0  0  0  0  1  0  0  0  0  0  0
  180.2000  174.3970  136.1290 C   0  0  0  0  0  1  0  0  0  0  0  0
  180.6990  174.2680  137.5550 C   0  0  0  0  0  2  0  0  0  0  0  0
  182.8120  179.5230  139.3150 C   0  0  0  0  0  0  0  0  0  0  0  0
  183.2350  180.5930  138.8000 O   0  0  0  0  0  0  0  0  0  0  0  0
  181.4400  179.2960  139.4620 O   0  0  0  0  0  0  0  0  0  0  0  0
  180.6730  179.9060  140.4920 C   0  0  0  0  0  2  0  0  0  0  0  0
  181.0080  179.3470  141.7250 O   0  0  0  0  0  1  0  0  0  0  0  0
  189.2430  177.6710  136.8490 C   0  0  0  0  0  2  0  0  0  0  0  0
  191.4460  176.5810  137.1410 C   0  0  0  0  0  2  0  0  0  0  0  0
  189.6060  175.3690  136.2560 O   0  0  0  0  0  0  0  0  0  0  0  0
  190.6580  173.3340  136.1550 O   0  0  0  0  0  1  0  0  0  0  0  0
  191.9500  175.2530  136.6950 C   0  0  0  0  0  2  0  0  0  0  0  0
  190.7920  174.6990  135.9010 C   0  0  2  0  0  3  0  0  0  0  0  0
  189.9550  176.3700  137.1810 C   0  0  2  0  0  3  0  0  0  0  0  0
  184.5970  179.1200  142.0300 C   0  0  0  0  0  2  0  0  0  0  0  0
  185.5010  178.1450  142.7600 C   0  0  0  0  0  2  0  0  0  0  0  0
  185.2310  178.1950  144.1270 O   0  0  0  0  0  1  0  0  0  0  0  0
  2 13  1  6  0  0  0
  2  6  1  0  0  0  0
  3 22  1  6  0  0  0
  3  1  1  0  0  0  0
  4 12  1  0  0  0  0
  4  7  1  0  0  0  0
  5  2  1  0  0  0  0
  6 35  1  0  0  0  0
  7 15  1  0  0  0  0
  7  5  1  0  0  0  0
  8 11  1  0  0  0  0
  8  3  1  0  0  0  0
  9  6  1  0  0  0  0
 11 17  1  0  0  0  0
 13 10  1  0  0  0  0
 14  5  1  0  0  0  0
 14  9  1  0  0  0  0
 15 18  1  0  0  0  0
 16 12  1  0  0  0  0
 16 11  1  0  0  0  0
 17 14  1  0  0  0  0
 17  1  1  0  0  0  0
 18 10  1  0  0  0  0
 19 11  1  0  0  0  0
 20 19  1  0  0  0  0
 21 22  1  0  0  0  0
 23 25  1  0  0  0  0
 23  9  1  0  0  0  0
 24 23  2  0  0  0  0
 25 26  1  0  0  0  0
 26 27  1  0  0  0  0
 28 34  1  0  0  0  0
 28 15  1  0  0  0  0
 29 34  1  0  0  0  0
 30 34  1  0  0  0  0
 32 29  1  0  0  0  0
 33 31  1  0  0  0  0
 33 30  1  0  0  0  0
 33 32  1  0  0  0  0
 35 36  1  0  0  0  0
 36 37  1  0  0  0  0
M  END
>  <MODEL>
6

>  <REMARK>
 VINA RESULT:      -4.9      1.465      1.993
  Name = 
  9 active torsions:
  status: ('A' for Active; 'I' for Inactive)
    1  A    between atoms: C_3  and  O_32
    2  A    between atoms: C_5  and  C_23
    3  A    between atoms: C_6  and  C_31
    4  A    between atoms: C_6  and  C_35
    5  A    between atoms: C_9  and  C_13
    6  A    between atoms: C_9  and  C_16
    7  A    between atoms: C_11  and  C_26
    8  A    between atoms: C_20  and  C_21
    9  A    between atoms: C_21  and  O_32
                            x       y       z     vdW  Elec       q    Type
                         _______ _______ _______ _____ _____    ______ ____

>  <TORSDO>
F 9

$$$$
=
 OpenBabel10262423023D

 37 41  0  0  1  0  0  0  0  0999 V2000
  182.7850  177.4330  135.9540 S   0  0  0  0  0  0  0  0  0  0  0  0
  187.3510  176.8860  136.9110 C   0  0  2  0  0  3  0  0  0  0  0  0
  181.6900  178.6320  136.7370 C   0  0  2  0  0  3  0  0  0  0  0  0
  185.5290  178.1080  140.2230 C   0  0  0  0  0  2  0  0  0  0  0  0
  186.3070  177.5090  137.8540 C   0  0  2  0  0  3  0  0  0  0  0  0
  186.7530  175.5940  136.3940 C   0  0  1  0  0  3  0  0  0  0  0  0
  186.6740  177.5460  139.3660 C   0  0  1  0  0  3  0  0  0  0  0  0
  181.6360  178.3730  138.1150 O   0  0  0  0  0  0  0  0  0  0  0  0
  185.2530  175.7790  136.4800 C   0  0  2  0  0  3  0  0  0  0  0  0
  189.2930  177.8500  137.5160 C   0  0  0  0  0  2  0  0  0  0  0  0
  182.9370  178.0620  138.5710 C   0  0  2  0  0  0  0  0  0  0  0  0
  184.9490  179.3770  139.6150 C   0  0  0  0  0  2  0  0  0  0  0  0
  188.5790  176.6390  137.5410 O   0  0  0  0  0  0  0  0  0  0  0  0
  184.9970  176.7700  137.6090 C   0  0  2  0  0  3  0  0  0  0  0  0
  188.0780  178.1410  139.7100 C   0  0  1  0  0  3  0  0  0  0  0  0
  183.4370  179.2650  139.4060 C   0  0  0  0  0  2  0  0  0  0  0  0
  183.8580  177.7890  137.3560 C   0  0  1  0  0  3  0  0  0  0  0  0
  188.7600  178.8540  138.5460 C   0  0  0  0  0  2  0  0  0  0  0  0
  182.8220  176.8120  139.4620 C   0  0  0  0  0  2  0  0  0  0  0  0
  181.3830  176.4840  139.8340 C   0  0  0  0  0  1  0  0  0  0  0  0
  179.7150  177.1530  136.3930 C   0  0  0  0  0  1  0  0  0  0  0  0
  180.2940  178.5340  136.1490 C   0  0  0  0  0  2  0  0  0  0  0  0
  184.5780  174.4780  136.7640 C   0  0  0  0  0  0  0  0  0  0  0  0
  184.8560  173.8570  137.8240 O   0  0  0  0  0  0  0  0  0  0  0  0
  183.6450  173.9640  135.8590 O   0  0  0  0  0  0  0  0  0  0  0  0
  182.4330  173.3510  136.2820 C   0  0  0  0  0  2  0  0  0  0  0  0
  181.7270  174.2220  137.1110 O   0  0  0  0  0  1  0  0  0  0  0  0
  188.1440  179.0030  140.9680 C   0  0  0  0  0  2  0  0  0  0  0  0
  189.4060  176.9590  141.5680 C   0  0  0  0  0  2  0  0  0  0  0  0
  188.0630  178.0680  143.1820 O   0  0  0  0  0  0  0  0  0  0  0  0
  188.6570  176.7530  144.9650 O   0  0  0  0  0  1  0  0  0  0  0  0
  189.3760  176.1120  142.7930 C   0  0  0  0  0  2  0  0  0  0  0  0
  188.2860  176.7480  143.6200 C   0  0  2  0  0  3  0  0  0  0  0  0
  188.9020  178.2850  142.0740 C   0  0  2  0  0  3  0  0  0  0  0  0
  187.1630  175.3480  134.9520 C   0  0  0  0  0  2  0  0  0  0  0  0
  188.1520  174.2020  134.8700 C   0  0  0  0  0  2  0  0  0  0  0  0
  187.9860  173.3640  135.9720 O   0  0  0  0  0  1  0  0  0  0  0  0
  1  3  1  0  0  0  0
  1 17  1  0  0  0  0
  2 13  1  1  0  0  0
  2  5  1  0  0  0  0
  3 22  1  6  0  0  0
  3  8  1  0  0  0  0
  5  7  1  0  0  0  0
  6  9  1  0  0  0  0
  6  2  1  0  0  0  0
  7 15  1  0  0  0  0
  7  4  1  0  0  0  0
  8 11  1  0  0  0  0
  9 23  1  0  0  0  0
  9 14  1  0  0  0  0
 10 13  1  0  0  0  0
 10 18  1  0  0  0  0
 11 16  1  0  0  0  0
 11 19  1  0  0  0  0
 12  4  1  0  0  0  0
 14  5  1  0  0  0  0
 15 28  1  0  0  0  0
 16 12  1  0  0  0  0
 17 14  1  0  0  0  0
 17 11  1  0  0  0  0
 18 15  1  0  0  0  0
 19 20  1  0  0  0  0
 22 21  1  0  0  0  0
 23 24  2  0  0  0  0
 25 26  1  0  0  0  0
 25 23  1  0  0  0  0
 26 27  1  0  0  0  0
 28 34  1  0  0  0  0
 29 34  1  0  0  0  0
 29 32  1  0  0  0  0
 30 33  1  0  0  0  0
 32 33  1  0  0  0  0
 33 31  1  0  0  0  0
 34 30  1  0  0  0  0
 35  6  1  0  0  0  0
 36 35  1  0  0  0  0
 36 37  1  0  0  0  0
M  END
>  <MODEL>
7

>  <REMARK>
 VINA RESULT:      -4.6      2.647      5.832
  Name = 
  9 active torsions:
  status: ('A' for Active; 'I' for Inactive)
    1  A    between atoms: C_3  and  O_32
    2  A    between atoms: C_5  and  C_23
    3  A    between atoms: C_6  and  C_31
    4  A    between atoms: C_6  and  C_35
    5  A    between atoms: C_9  and  C_13
    6  A    between atoms: C_9  and  C_16
    7  A    between atoms: C_11  and  C_26
    8  A    between atoms: C_20  and  C_21
    9  A    between atoms: C_21  and  O_32
                            x       y       z     vdW  Elec       q    Type
                         _______ _______ _______ _____ _____    ______ ____

>  <TORSDO>
F 9

$$$$
=
 OpenBabel10262423023D

 37 41  0  0  1  0  0  0  0  0999 V2000
  192.9570  176.6940  135.9040 S   0  0  0  0  0  0  0  0  0  0  0  0
  188.4020  176.5550  137.0400 C   0  0  2  0  0  3  0  0  0  0  0  0
  193.7720  175.6050  134.7220 C   0  0  2  0  0  3  0  0  0  0  0  0
  189.5600  172.8700  136.1140 C   0  0  0  0  0  2  0  0  0  0  0  0
  189.2140  175.3880  136.4530 C   0  0  2  0  0  3  0  0  0  0  0  0
  189.2220  177.1230  138.1810 C   0  0  1  0  0  3  0  0  0  0  0  0
  188.6290  173.9610  136.6640 C   0  0  1  0  0  3  0  0  0  0  0  0
  193.6570  174.2780  135.1630 O   0  0  0  0  0  0  0  0  0  0  0  0
  190.6590  176.7760  137.8570 C   0  0  2  0  0  3  0  0  0  0  0  0
  186.2900  176.1560  136.3730 C   0  0  0  0  0  2  0  0  0  0  0  0
  192.3510  174.0780  135.6650 C   0  0  2  0  0  0  0  0  0  0  0  0
  190.0640  173.2170  134.7200 C   0  0  0  0  0  2  0  0  0  0  0  0
  187.1340  176.1650  137.4970 O   0  0  0  0  0  0  0  0  0  0  0  0
  190.6260  175.5080  137.0130 C   0  0  2  0  0  3  0  0  0  0  0  0
  187.1280  173.7760  136.2690 C   0  0  1  0  0  3  0  0  0  0  0  0
  191.5920  173.1940  134.6480 C   0  0  0  0  0  2  0  0  0  0  0  0
  191.6570  175.4490  135.8590 C   0  0  1  0  0  3  0  0  0  0  0  0
  186.5410  174.9380  135.4740 C   0  0  0  0  0  2  0  0  0  0  0  0
  192.4870  173.3400  137.0090 C   0  0  0  0  0  2  0  0  0  0  0  0
  193.9000  173.3970  137.5720 C   0  0  0  0  0  1  0  0  0  0  0  0
  195.4650  177.4070  135.0200 C   0  0  0  0  0  1  0  0  0  0  0  0
  195.2400  175.9690  134.5940 C   0  0  0  0  0  2  0  0  0  0  0  0
  191.4390  176.5490  139.1100 C   0  0  0  0  0  0  0  0  0  0  0  0
  192.6820  176.7560  139.1100 O   0  0  0  0  0  0  0  0  0  0  0  0
  190.7880  176.1170  140.2690 O   0  0  0  0  0  0  0  0  0  0  0  0
  190.8560  176.8360  141.4940 C   0  0  0  0  0  2  0  0  0  0  0  0
  189.7680  177.7020  141.5950 O   0  0  0  0  0  1  0  0  0  0  0  0
  186.7750  172.4490  135.6030 C   0  0  0  0  0  2  0  0  0  0  0  0
  184.7090  172.4680  136.9660 C   0  0  0  0  0  2  0  0  0  0  0  0
  184.9630  170.9260  135.1780 O   0  0  0  0  0  0  0  0  0  0  0  0
  182.8520  170.0380  135.2960 O   0  0  0  0  0  1  0  0  0  0  0  0
  183.5520  171.5300  137.0070 C   0  0  0  0  0  2  0  0  0  0  0  0
  183.9600  170.4450  136.0410 C   0  0  2  0  0  3  0  0  0  0  0  0
  185.2690  172.2370  135.5870 C   0  0  2  0  0  3  0  0  0  0  0  0
  189.0590  178.6320  138.2630 C   0  0  0  0  0  2  0  0  0  0  0  0
  188.8030  179.2130  136.8860 C   0  0  0  0  0  2  0  0  0  0  0  0
  187.5220  179.7590  136.8410 O   0  0  0  0  0  1  0  0  0  0  0  0
  2 13  1  1  0  0  0
  2  6  1  0  0  0  0
  3 22  1  1  0  0  0
  3  8  1  0  0  0  0
  3  1  1  0  0  0  0
  4  7  1  0  0  0  0
  5  7  1  0  0  0  0
  5 14  1  0  0  0  0
  5  2  1  0  0  0  0
  6 35  1  0  0  0  0
  8 11  1  0  0  0  0
  9  6  1  0  0  0  0
  9 23  1  0  0  0  0
 10 13  1  0  0  0  0
 11 17  1  0  0  0  0
 11 19  1  0  0  0  0
 12  4  1  0  0  0  0
 14  9  1  0  0  0  0
 15  7  1  0  0  0  0
 16 12  1  0  0  0  0
 16 11  1  0  0  0  0
 17  1  1  0  0  0  0
 17 14  1  0  0  0  0
 18 15  1  0  0  0  0
 18 10  1  0  0  0  0
 19 20  1  0  0  0  0
 22 21  1  0  0  0  0
 23 25  1  0  0  0  0
 24 23  2  0  0  0  0
 25 26  1  0  0  0  0
 26 27  1  0  0  0  0
 28 15  1  0  0  0  0
 29 32  1  0  0  0  0
 30 34  1  0  0  0  0
 30 33  1  0  0  0  0
 31 33  1  0  0  0  0
 33 32  1  0  0  0  0
 34 28  1  0  0  0  0
 34 29  1  0  0  0  0
 36 35  1  0  0  0  0
 37 36  1  0  0  0  0
M  END
>  <MODEL>
8

>  <REMARK>
 VINA RESULT:      -4.5      5.503      9.597
  Name = 
  9 active torsions:
  status: ('A' for Active; 'I' for Inactive)
    1  A    between atoms: C_3  and  O_32
    2  A    between atoms: C_5  and  C_23
    3  A    between atoms: C_6  and  C_31
    4  A    between atoms: C_6  and  C_35
    5  A    between atoms: C_9  and  C_13
    6  A    between atoms: C_9  and  C_16
    7  A    between atoms: C_11  and  C_26
    8  A    between atoms: C_20  and  C_21
    9  A    between atoms: C_21  and  O_32
                            x       y       z     vdW  Elec       q    Type
                         _______ _______ _______ _____ _____    ______ ____

>  <TORSDO>
F 9

$$$$
=
 OpenBabel10262423023D

 37 41  0  0  1  0  0  0  0  0999 V2000
  189.3640  176.7050  139.2350 S   0  0  0  0  0  0  0  0  0  0  0  0
  188.0990  173.6000  135.9460 C   0  0  2  0  0  3  0  0  0  0  0  0
  188.2400  177.7900  140.1350 C   0  0  2  0  0  3  0  0  0  0  0  0
  185.5490  176.6450  135.8210 C   0  0  0  0  0  2  0  0  0  0  0  0
  187.2920  174.8420  136.3620 C   0  0  2  0  0  3  0  0  0  0  0  0
  189.5240  174.0620  135.7270 C   0  0  1  0  0  3  0  0  0  0  0  0
  186.2330  175.3550  135.3420 C   0  0  1  0  0  3  0  0  0  0  0  0
  187.5850  178.6320  139.2240 O   0  0  0  0  0  0  0  0  0  0  0  0
  189.6860  175.2980  136.5860 C   0  0  2  0  0  3  0  0  0  0  0  0
  186.5460  172.1520  135.1990 C   0  0  0  0  0  2  0  0  0  0  0  0
  187.2250  177.8760  138.0840 C   0  0  2  0  0  0  0  0  0  0  0  0
  185.1200  176.5410  137.2780 C   0  0  0  0  0  2  0  0  0  0  0  0
  187.6000  172.9860  134.7880 O   0  0  0  0  0  0  0  0  0  0  0  0
  188.3030  175.9250  136.7180 C   0  0  2  0  0  3  0  0  0  0  0  0
  185.2450  174.2780  134.7900 C   0  0  1  0  0  3  0  0  0  0  0  0
  185.6910  177.6850  138.1190 C   0  0  0  0  0  2  0  0  0  0  0  0
  187.9710  176.5190  138.1090 C   0  0  1  0  0  3  0  0  0  0  0  0
  185.2800  172.9500  135.5400 C   0  0  0  0  0  2  0  0  0  0  0  0
  187.6280  178.6990  136.8470 C   0  0  0  0  0  2  0  0  0  0  0  0
  188.9780  179.3820  137.0060 C   0  0  0  0  0  1  0  0  0  0  0  0
  189.7050  177.7400  142.1490 C   0  0  0  0  0  1  0  0  0  0  0  0
  189.0090  178.6310  141.1380 C   0  0  0  0  0  2  0  0  0  0  0  0
  190.6370  176.2580  135.9510 C   0  0  0  0  0  0  0  0  0  0  0  0
  190.4020  176.6820  134.7880 O   0  0  0  0  0  0  0  0  0  0  0  0
  191.7710  176.6830  136.6500 O   0  0  0  0  0  0  0  0  0  0  0  0
  192.9390  175.8810  136.7640 C   0  0  0  0  0  2  0  0  0  0  0  0
  192.9230  175.1910  137.9760 O   0  0  0  0  0  1  0  0  0  0  0  0
  183.8020  174.7360  134.5960 C   0  0  0  0  0  2  0  0  0  0  0  0
  181.7190  173.3990  134.5950 C   0  0  0  0  0  2  0  0  0  0  0  0
  182.3300  174.6820  136.4980 O   0  0  0  0  0  0  0  0  0  0  0  0
  180.6260  173.9660  137.8550 O   0  0  0  0  0  1  0  0  0  0  0  0
  180.5870  173.3450  135.5620 C   0  0  0  0  0  2  0  0  0  0  0  0
  180.9520  174.4060  136.5720 C   0  0  2  0  0  3  0  0  0  0  0  0
  182.8530  173.9060  135.4470 C   0  0  2  0  0  3  0  0  0  0  0  0
  190.5110  172.9940  136.1660 C   0  0  0  0  0  2  0  0  0  0  0  0
  191.6000  172.8180  135.1250 C   0  0  0  0  0  2  0  0  0  0  0  0
  192.2650  171.6130  135.3450 O   0  0  0  0  0  1  0  0  0  0  0  0
  1  3  1  0  0  0  0
  2 13  1  6  0  0  0
  2  5  1  0  0  0  0
  3 22  1  1  0  0  0
  4 12  1  0  0  0  0
  5 14  1  0  0  0  0
  6  2  1  0  0  0  0
  6 35  1  0  0  0  0
  6  9  1  0  0  0  0
  7  4  1  0  0  0  0
  7  5  1  0  0  0  0
  8  3  1  0  0  0  0
  9 14  1  0  0  0  0
 10 18  1  0  0  0  0
 11 17  1  0  0  0  0
 11 16  1  0  0  0  0
 11  8  1  0  0  0  0
 12 16  1  0  0  0  0
 13 10  1  0  0  0  0
 14 17  1  0  0  0  0
 15  7  1  0  0  0  0
 15 18  1  0  0  0  0
 17  1  1  0  0  0  0
 19 20  1  0  0  0  0
 19 11  1  0  0  0  0
 22 21  1  0  0  0  0
 23  9  1  0  0  0  0
 23 25  1  0  0  0  0
 24 23  2  0  0  0  0
 25 26  1  0  0  0  0
 26 27  1  0  0  0  0
 28 15  1  0  0  0  0
 28 34  1  0  0  0  0
 29 34  1  0  0  0  0
 29 32  1  0  0  0  0
 30 33  1  0  0  0  0
 32 33  1  0  0  0  0
 33 31  1  0  0  0  0
 34 30  1  0  0  0  0
 36 37  1  0  0  0  0
 36 35  1  0  0  0  0
M  END
>  <MODEL>
9

>  <REMARK>
 VINA RESULT:      -4.2      4.096      9.322
  Name = 
  9 active torsions:
  status: ('A' for Active; 'I' for Inactive)
    1  A    between atoms: C_3  and  O_32
    2  A    between atoms: C_5  and  C_23
    3  A    between atoms: C_6  and  C_31
    4  A    between atoms: C_6  and  C_35
    5  A    between atoms: C_9  and  C_13
    6  A    between atoms: C_9  and  C_16
    7  A    between atoms: C_11  and  C_26
    8  A    between atoms: C_20  and  C_21
    9  A    between atoms: C_21  and  O_32
                            x       y       z     vdW  Elec       q    Type
                         _______ _______ _______ _____ _____    ______ ____

>  <TORSDO>
F 9

$$$$
