=
 OpenBabel10262422243D

 43 48  0  0  1  0  0  0  0  0999 V2000
  181.6220  179.0050  142.1600 C   0  0  0  0  0  0  0  0  0  0  0  0
  185.9090  178.1690  144.7800 C   0  0  0  0  0  0  0  0  0  0  0  0
  187.8420  177.3880  142.8780 C   0  0  0  0  0  0  0  0  0  0  0  0
  183.2990  178.8070  143.9340 C   0  0  0  0  0  0  0  0  0  0  0  0
  182.4740  178.6070  141.2140 C   0  0  0  0  0  3  0  0  0  0  0  0
  180.3470  179.3170  141.8250 F   0  0  0  0  0  0  0  0  0  0  0  0
  184.2560  178.3750  142.9880 C   0  0  0  0  0  0  0  0  0  0  0  0
  182.0520  179.1080  143.5630 C   0  0  0  0  0  3  0  0  0  0  0  0
  183.9040  178.2490  141.5230 C   0  0  0  0  0  2  0  0  0  0  0  0
  186.5260  177.6630  142.4820 O   0  0  0  0  0  0  0  0  0  0  0  0
  185.5590  178.0660  143.4140 C   0  0  0  0  0  0  0  0  0  0  0  0
  184.9460  178.6120  145.6980 C   0  0  0  0  0  3  0  0  0  0  0  0
  187.1700  177.8650  145.1690 C   0  0  0  0  0  0  0  0  0  0  0  0
  188.1820  177.4820  144.1640 C   0  0  0  0  0  3  0  0  0  0  0  0
  183.6520  178.9250  145.2790 C   0  0  0  0  0  3  0  0  0  0  0  0
  188.8620  176.9870  141.8680 C   0  0  1  0  0  3  0  0  0  0  0  0
  188.3720  177.3050  140.4720 C   0  0  0  0  0  2  0  0  0  0  0  0
  190.0620  177.6780  142.0920 O   0  0  0  0  0  0  0  0  0  0  0  0
  189.5770  177.8720  139.7850 C   0  0  1  0  0  3  0  0  0  0  0  0
  190.6670  177.7840  140.8310 C   0  0  0  0  0  2  0  0  0  0  0  0
  189.9320  177.0190  138.5800 C   0  0  0  0  0  2  0  0  0  0  0  0
  189.7640  177.7880  137.3450 N   0  0  0  0  0  0  0  0  0  0  0  0
  187.7110  177.8670  136.1760 N   0  0  0  0  0  0  0  0  0  0  0  0
  188.9870  178.9090  137.6730 N   0  0  0  0  0  2  0  0  0  0  0  0
  188.9460  177.0970  136.3070 C   0  0  1  0  0  0  0  0  0  0  0  0
  189.7060  177.1560  134.9910 C   0  0  0  0  0  1  0  0  0  0  0  0
  187.7760  178.8850  136.9530 C   0  0  0  0  0  3  0  0  0  0  0  0
  188.6160  175.6230  136.6270 C   0  0  0  0  0  2  0  0  0  0  0  0
  186.4500  174.6890  136.9740 C   0  0  0  0  0  2  0  0  0  0  0  0
  187.7500  174.1890  134.9380 C   0  0  0  0  0  2  0  0  0  0  0  0
  187.9150  172.7630  136.8870 O   0  0  0  0  0  0  0  0  0  0  0  0
  187.8310  172.7560  135.4890 C   0  0  0  0  0  2  0  0  0  0  0  0
  186.6610  173.2070  137.3280 C   0  0  0  0  0  2  0  0  0  0  0  0
  187.3920  175.1890  135.9570 N   0  0  0  0  0  0  0  0  0  0  0  0
  187.5910  177.9560  146.5380 N   0  0  0  0  0  2  0  0  0  0  0  0
  188.9160  177.6930  147.0190 C   0  0  0  0  0  0  0  0  0  0  0  0
  189.4240  178.2670  148.4700 S   0  0  0  0  0  0  0  0  0  0  0  0
  189.7540  176.6830  146.3120 C   0  0  0  0  0  2  0  0  0  0  0  0
  191.2120  177.1160  146.2750 C   0  0  2  0  0  3  0  0  0  0  0  0
  191.6160  177.3330  144.9560 O   0  0  0  0  0  1  0  0  0  0  0  0
  192.3910  174.9130  146.1910 O   0  0  0  0  0  0  0  0  0  0  0  0
  192.4830  176.2160  148.0740 O   0  0  0  0  0  1  0  0  0  0  0  0
  192.0680  176.0660  146.8960 C   0  0  0  0  0  0  0  0  0  0  0  0
  1  8  1  0  0  0  0
  2 13  2  0  0  0  0
  2 12  1  0  0  0  0
  3 14  2  0  0  0  0
  4 15  1  0  0  0  0
  5  9  1  0  0  0  0
  5  1  2  0  0  0  0
  6  1  1  0  0  0  0
  7 11  2  0  0  0  0
  7  4  1  0  0  0  0
  8  4  2  0  0  0  0
  9  7  1  0  0  0  0
 10  3  1  0  0  0  0
 10 11  1  0  0  0  0
 11  2  1  0  0  0  0
 13 35  1  0  0  0  0
 14 13  1  0  0  0  0
 15 12  2  0  0  0  0
 16 18  1  0  0  0  0
 16  3  1  1  0  0  0
 17 16  1  0  0  0  0
 19 21  1  6  0  0  0
 19 17  1  0  0  0  0
 19 20  1  0  0  0  0
 20 18  1  0  0  0  0
 22 24  1  0  0  0  0
 22 21  1  0  0  0  0
 23 25  1  0  0  0  0
 23 27  2  0  0  0  0
 25 26  1  6  0  0  0
 25 28  1  0  0  0  0
 25 22  1  0  0  0  0
 27 24  1  0  0  0  0
 29 33  1  0  0  0  0
 30 32  1  0  0  0  0
 30 34  1  0  0  0  0
 31 33  1  0  0  0  0
 32 31  1  0  0  0  0
 34 28  1  0  0  0  0
 34 29  1  0  0  0  0
 35 36  1  0  0  0  0
 36 37  2  0  0  0  0
 38 36  1  0  0  0  0
 39 40  1  6  0  0  0
 39 38  1  0  0  0  0
 39 43  1  0  0  0  0
 41 43  2  0  0  0  0
 43 42  1  0  0  0  0
M  END
>  <MODEL>
1

>  <REMARK>
 VINA RESULT:      -9.8      0.000      0.000
  Name = 
  10 active torsions:
  status: ('A' for Active; 'I' for Inactive)
    1  A    between atoms: C_1  and  C_9
    2  A    between atoms: C_1  and  N_35
    3  A    between atoms: C_2  and  C_13
    4  A    between atoms: C_3  and  N_4
    5  A    between atoms: C_3  and  C_12
    6  A    between atoms: C_9  and  C_32
    7  A    between atoms: C_14  and  C_22
    8  A    between atoms: C_14  and  N_40
    9  A    between atoms: C_32  and  C_37
   10  A    between atoms: C_34  and  N_35
                            x       y       z     vdW  Elec       q    Type
                         _______ _______ _______ _____ _____    ______ ____

>  <TORSDO>
F 10

$$$$
=
 OpenBabel10262422243D

 43 48  0  0  1  0  0  0  0  0999 V2000
  190.8050  176.7970  146.7230 C   0  0  0  0  0  0  0  0  0  0  0  0
  189.6120  177.5650  141.8310 C   0  0  0  0  0  0  0  0  0  0  0  0
  186.9820  178.5890  141.8240 C   0  0  0  0  0  0  0  0  0  0  0  0
  190.8650  176.9570  144.2790 C   0  0  0  0  0  0  0  0  0  0  0  0
  189.5490  177.2410  146.7900 C   0  0  0  0  0  3  0  0  0  0  0  0
  191.4640  176.4760  147.8610 F   0  0  0  0  0  0  0  0  0  0  0  0
  189.5330  177.4300  144.2720 C   0  0  0  0  0  0  0  0  0  0  0  0
  191.4810  176.6540  145.4240 C   0  0  0  0  0  3  0  0  0  0  0  0
  188.7640  177.6180  145.5610 C   0  0  0  0  0  3  0  0  0  0  0  0
  187.6040  178.2360  143.0290 O   0  0  0  0  0  0  0  0  0  0  0  0
  188.9160  177.7400  143.0480 C   0  0  0  0  0  0  0  0  0  0  0  0
  190.9380  177.1070  141.8640 C   0  0  0  0  0  2  0  0  0  0  0  0
  188.9970  177.8690  140.6630 C   0  0  0  0  0  0  0  0  0  0  0  0
  187.6300  178.4270  140.6700 C   0  0  0  0  0  3  0  0  0  0  0  0
  191.5560  176.8040  143.0770 C   0  0  0  0  0  3  0  0  0  0  0  0
  185.5970  179.1400  141.8270 C   0  0  1  0  0  3  0  0  0  0  0  0
  184.8050  178.5760  140.6680 C   0  0  0  0  0  2  0  0  0  0  0  0
  184.9460  178.8040  143.0230 O   0  0  0  0  0  0  0  0  0  0  0  0
  183.4620  178.2730  141.2590 C   0  0  1  0  0  3  0  0  0  0  0  0
  183.5840  178.7370  142.6940 C   0  0  0  0  0  2  0  0  0  0  0  0
  182.3900  179.0710  140.5370 C   0  0  0  0  0  2  0  0  0  0  0  0
  181.1380  179.0440  141.2970 N   0  0  0  0  0  0  0  0  0  0  0  0
  179.0230  178.9700  140.2440 N   0  0  0  0  0  0  0  0  0  0  0  0
  180.6270  177.7420  141.1810 N   0  0  0  0  0  2  0  0  0  0  0  0
  180.0570  179.8890  140.7140 C   0  0  1  0  0  0  0  0  0  0  0  0
  179.4800  180.7510  141.8260 C   0  0  0  0  0  1  0  0  0  0  0  0
  179.3760  177.7710  140.5340 C   0  0  0  0  0  3  0  0  0  0  0  0
  180.5120  180.8050  139.5570 C   0  0  0  0  0  2  0  0  0  0  0  0
  179.8170  180.5740  137.2890 C   0  0  0  0  0  2  0  0  0  0  0  0
  179.1200  182.5080  138.6510 C   0  0  0  0  0  2  0  0  0  0  0  0
  181.1250  182.6110  137.2990 O   0  0  0  0  0  0  0  0  0  0  0  0
  179.9970  183.3390  137.7010 C   0  0  0  0  0  2  0  0  0  0  0  0
  180.6300  181.5930  136.4730 C   0  0  0  0  0  2  0  0  0  0  0  0
  179.4230  181.0670  138.6190 N   0  0  0  0  0  0  0  0  0  0  0  0
  189.6510  177.7220  139.3940 N   0  0  0  0  0  2  0  0  0  0  0  0
  189.4120  176.6670  138.4530 C   0  0  0  0  0  0  0  0  0  0  0  0
  188.0530  176.6380  137.5330 S   0  0  0  0  0  0  0  0  0  0  0  0
  190.5200  175.7240  138.1280 C   0  0  0  0  0  2  0  0  0  0  0  0
  191.6410  176.4360  137.3860 C   0  0  2  0  0  3  0  0  0  0  0  0
  191.7100  175.9820  136.0680 O   0  0  0  0  0  1  0  0  0  0  0  0
  193.5740  174.9570  137.9560 O   0  0  0  0  0  0  0  0  0  0  0  0
  193.4560  177.0930  138.7770 O   0  0  0  0  0  1  0  0  0  0  0  0
  192.9400  176.1880  138.0720 C   0  0  0  0  0  0  0  0  0  0  0  0
  1  5  1  0  0  0  0
  1  6  1  0  0  0  0
  2 12  1  0  0  0  0
  2 11  1  0  0  0  0
  3 10  1  0  0  0  0
  4  8  1  0  0  0  0
  7  4  1  0  0  0  0
  7  9  1  0  0  0  0
  8  1  2  0  0  0  0
  9  5  2  0  0  0  0
 10 11  1  0  0  0  0
 11  7  2  0  0  0  0
 12 15  1  0  0  0  0
 13 14  1  0  0  0  0
 13  2  2  0  0  0  0
 14  3  2  0  0  0  0
 15  4  2  0  0  0  0
 16  3  1  1  0  0  0
 16 18  1  0  0  0  0
 17 19  1  0  0  0  0
 17 16  1  0  0  0  0
 19 21  1  6  0  0  0
 19 20  1  0  0  0  0
 20 18  1  0  0  0  0
 21 22  1  0  0  0  0
 23 27  2  0  0  0  0
 23 25  1  0  0  0  0
 24 22  1  0  0  0  0
 25 22  1  0  0  0  0
 25 26  1  1  0  0  0
 27 24  1  0  0  0  0
 28 25  1  0  0  0  0
 29 34  1  0  0  0  0
 31 32  1  0  0  0  0
 32 30  1  0  0  0  0
 33 29  1  0  0  0  0
 33 31  1  0  0  0  0
 34 30  1  0  0  0  0
 34 28  1  0  0  0  0
 35 13  1  0  0  0  0
 36 35  1  0  0  0  0
 37 36  2  0  0  0  0
 38 36  1  0  0  0  0
 39 40  1  6  0  0  0
 39 43  1  0  0  0  0
 39 38  1  0  0  0  0
 41 43  2  0  0  0  0
 43 42  1  0  0  0  0
M  END
>  <MODEL>
2

>  <REMARK>
 VINA RESULT:      -9.5      4.844      8.658
  Name = 
  10 active torsions:
  status: ('A' for Active; 'I' for Inactive)
    1  A    between atoms: C_1  and  C_9
    2  A    between atoms: C_1  and  N_35
    3  A    between atoms: C_2  and  C_13
    4  A    between atoms: C_3  and  N_4
    5  A    between atoms: C_3  and  C_12
    6  A    between atoms: C_9  and  C_32
    7  A    between atoms: C_14  and  C_22
    8  A    between atoms: C_14  and  N_40
    9  A    between atoms: C_32  and  C_37
   10  A    between atoms: C_34  and  N_35
                            x       y       z     vdW  Elec       q    Type
                         _______ _______ _______ _____ _____    ______ ____

>  <TORSDO>
F 10

$$$$
=
 OpenBabel10262422243D

 43 48  0  0  1  0  0  0  0  0999 V2000
  190.7600  176.7040  146.7700 C   0  0  0  0  0  0  0  0  0  0  0  0
  189.8120  177.5940  141.8450 C   0  0  0  0  0  0  0  0  0  0  0  0
  187.1700  178.5830  141.7290 C   0  0  0  0  0  0  0  0  0  0  0  0
  190.9440  176.9330  144.3380 C   0  0  0  0  0  0  0  0  0  0  0  0
  189.4950  177.1290  146.7830 C   0  0  0  0  0  3  0  0  0  0  0  0
  191.3630  176.3590  147.9320 F   0  0  0  0  0  0  0  0  0  0  0  0
  189.6070  177.3890  144.2740 C   0  0  0  0  0  0  0  0  0  0  0  0
  191.5050  176.6060  145.5050 C   0  0  0  0  0  3  0  0  0  0  0  0
  188.7700  177.5300  145.5260 C   0  0  0  0  0  3  0  0  0  0  0  0
  187.7340  178.2040  142.9540 O   0  0  0  0  0  0  0  0  0  0  0  0
  189.0500  177.7250  143.0290 C   0  0  0  0  0  0  0  0  0  0  0  0
  191.1400  177.1530  141.9350 C   0  0  0  0  0  2  0  0  0  0  0  0
  189.2540  177.9220  140.6560 C   0  0  0  0  0  0  0  0  0  0  0  0
  187.8800  178.4620  140.6060 C   0  0  0  0  0  3  0  0  0  0  0  0
  191.6990  176.8230  143.1690 C   0  0  0  0  0  3  0  0  0  0  0  0
  185.7790  179.1150  141.6740 C   0  0  1  0  0  3  0  0  0  0  0  0
  184.9150  178.2370  140.7960 C   0  0  0  0  0  2  0  0  0  0  0  0
  185.2240  179.1490  142.9630 O   0  0  0  0  0  0  0  0  0  0  0  0
  183.6250  178.1280  141.5500 C   0  0  1  0  0  3  0  0  0  0  0  0
  183.8440  178.9940  142.7720 C   0  0  0  0  0  2  0  0  0  0  0  0
  182.4880  178.6810  140.7090 C   0  0  0  0  0  2  0  0  0  0  0  0
  182.9250  178.8660  139.3240 N   0  0  0  0  0  0  0  0  0  0  0  0
  181.4350  178.6910  137.4960 N   0  0  0  0  0  0  0  0  0  0  0  0
  182.4180  180.1070  138.9060 N   0  0  0  0  0  2  0  0  0  0  0  0
  182.3130  177.9050  138.3610 C   0  0  1  0  0  0  0  0  0  0  0  0
  183.4280  177.3060  137.5180 C   0  0  0  0  0  1  0  0  0  0  0  0
  181.5300  179.9260  137.8270 C   0  0  0  0  0  3  0  0  0  0  0  0
  181.5140  176.7590  139.0190 C   0  0  0  0  0  2  0  0  0  0  0  0
  179.2480  176.8840  139.7480 C   0  0  0  0  0  2  0  0  0  0  0  0
  179.8950  175.5130  137.8020 C   0  0  0  0  0  2  0  0  0  0  0  0
  179.8270  174.5490  140.0220 O   0  0  0  0  0  0  0  0  0  0  0  0
  179.5120  174.3080  138.6780 C   0  0  0  0  0  2  0  0  0  0  0  0
  178.9330  175.5450  140.4350 C   0  0  0  0  0  2  0  0  0  0  0  0
  180.1240  176.7470  138.5710 N   0  0  0  0  0  0  0  0  0  0  0  0
  189.9750  177.8200  139.4180 N   0  0  0  0  0  2  0  0  0  0  0  0
  189.8640  176.7430  138.4790 C   0  0  0  0  0  0  0  0  0  0  0  0
  191.1010  175.6910  138.2400 S   0  0  0  0  0  0  0  0  0  0  0  0
  188.5280  176.4250  137.8980 C   0  0  0  0  0  2  0  0  0  0  0  0
  188.2490  177.2820  136.6730 C   0  0  2  0  0  3  0  0  0  0  0  0
  189.3980  177.3830  135.8850 O   0  0  0  0  0  1  0  0  0  0  0  0
  188.7150  179.6950  137.1340 O   0  0  0  0  0  0  0  0  0  0  0  0
  186.6140  178.8320  137.4390 O   0  0  0  0  0  1  0  0  0  0  0  0
  187.8090  178.6420  137.0950 C   0  0  0  0  0  0  0  0  0  0  0  0
  1  5  1  0  0  0  0
  1  6  1  0  0  0  0
  2 12  1  0  0  0  0
  2 11  1  0  0  0  0
  3 10  1  0  0  0  0
  4  8  1  0  0  0  0
  7  4  1  0  0  0  0
  7  9  1  0  0  0  0
  8  1  2  0  0  0  0
  9  5  2  0  0  0  0
 10 11  1  0  0  0  0
 11  7  2  0  0  0  0
 12 15  1  0  0  0  0
 13  2  2  0  0  0  0
 14 13  1  0  0  0  0
 14  3  2  0  0  0  0
 15  4  2  0  0  0  0
 16  3  1  1  0  0  0
 16 18  1  0  0  0  0
 17 19  1  0  0  0  0
 17 16  1  0  0  0  0
 19 21  1  6  0  0  0
 19 20  1  0  0  0  0
 20 18  1  0  0  0  0
 22 21  1  0  0  0  0
 23 27  2  0  0  0  0
 23 25  1  0  0  0  0
 24 22  1  0  0  0  0
 25 26  1  6  0  0  0
 25 28  1  0  0  0  0
 25 22  1  0  0  0  0
 27 24  1  0  0  0  0
 29 33  1  0  0  0  0
 30 34  1  0  0  0  0
 30 32  1  0  0  0  0
 31 33  1  0  0  0  0
 32 31  1  0  0  0  0
 34 28  1  0  0  0  0
 34 29  1  0  0  0  0
 35 13  1  0  0  0  0
 36 35  1  0  0  0  0
 37 36  2  0  0  0  0
 38 36  1  0  0  0  0
 39 40  1  6  0  0  0
 39 43  1  0  0  0  0
 39 38  1  0  0  0  0
 43 41  2  0  0  0  0
 43 42  1  0  0  0  0
M  END
>  <MODEL>
3

>  <REMARK>
 VINA RESULT:      -9.4      4.307      7.885
  Name = 
  10 active torsions:
  status: ('A' for Active; 'I' for Inactive)
    1  A    between atoms: C_1  and  C_9
    2  A    between atoms: C_1  and  N_35
    3  A    between atoms: C_2  and  C_13
    4  A    between atoms: C_3  and  N_4
    5  A    between atoms: C_3  and  C_12
    6  A    between atoms: C_9  and  C_32
    7  A    between atoms: C_14  and  C_22
    8  A    between atoms: C_14  and  N_40
    9  A    between atoms: C_32  and  C_37
   10  A    between atoms: C_34  and  N_35
                            x       y       z     vdW  Elec       q    Type
                         _______ _______ _______ _____ _____    ______ ____

>  <TORSDO>
F 10

$$$$
=
 OpenBabel10262422243D

 43 48  0  0  1  0  0  0  0  0999 V2000
  190.7750  176.7530  146.6600 C   0  0  0  0  0  0  0  0  0  0  0  0
  189.6000  177.6990  141.7950 C   0  0  0  0  0  0  0  0  0  0  0  0
  186.9260  178.6030  141.8030 C   0  0  0  0  0  0  0  0  0  0  0  0
  190.8530  177.0310  144.2270 C   0  0  0  0  0  0  0  0  0  0  0  0
  189.4990  177.1360  146.7320 C   0  0  0  0  0  3  0  0  0  0  0  0
  191.4360  176.4070  147.7900 F   0  0  0  0  0  0  0  0  0  0  0  0
  189.5010  177.4440  144.2260 C   0  0  0  0  0  0  0  0  0  0  0  0
  191.4710  176.7020  145.3650 C   0  0  0  0  0  3  0  0  0  0  0  0
  188.7110  177.5350  145.5120 C   0  0  0  0  0  3  0  0  0  0  0  0
  187.5510  178.2210  142.9980 O   0  0  0  0  0  0  0  0  0  0  0  0
  188.8840  177.7840  143.0100 C   0  0  0  0  0  0  0  0  0  0  0  0
  190.9440  177.3000  141.8230 C   0  0  0  0  0  2  0  0  0  0  0  0
  188.9840  178.0300  140.6350 C   0  0  0  0  0  0  0  0  0  0  0  0
  187.5930  178.5250  140.6510 C   0  0  0  0  0  3  0  0  0  0  0  0
  191.5630  176.9670  143.0280 C   0  0  0  0  0  3  0  0  0  0  0  0
  185.5180  179.0900  141.8150 C   0  0  1  0  0  3  0  0  0  0  0  0
  184.7490  178.5000  140.6530 C   0  0  0  0  0  2  0  0  0  0  0  0
  184.8860  178.7150  143.0100 O   0  0  0  0  0  0  0  0  0  0  0  0
  183.4220  178.1320  141.2450 C   0  0  1  0  0  3  0  0  0  0  0  0
  183.5280  178.5890  142.6840 C   0  0  0  0  0  2  0  0  0  0  0  0
  182.3130  178.8860  140.5330 C   0  0  0  0  0  2  0  0  0  0  0  0
  181.0750  178.8260  141.3140 N   0  0  0  0  0  0  0  0  0  0  0  0
  178.9400  178.9220  140.3050 N   0  0  0  0  0  0  0  0  0  0  0  0
  180.5180  177.5590  141.0850 N   0  0  0  0  0  2  0  0  0  0  0  0
  180.0130  179.7590  140.8380 C   0  0  1  0  0  0  0  0  0  0  0  0
  179.4870  180.5270  142.0400 C   0  0  0  0  0  1  0  0  0  0  0  0
  179.2570  177.6910  140.4710 C   0  0  0  0  0  3  0  0  0  0  0  0
  180.4770  180.7670  139.7660 C   0  0  0  0  0  2  0  0  0  0  0  0
  179.9020  180.5580  137.4620 C   0  0  0  0  0  2  0  0  0  0  0  0
  179.0950  182.4540  138.8170 C   0  0  0  0  0  2  0  0  0  0  0  0
  181.1620  182.6230  137.5690 O   0  0  0  0  0  0  0  0  0  0  0  0
  180.0000  183.3190  137.9240 C   0  0  0  0  0  2  0  0  0  0  0  0
  180.7320  181.6070  136.7040 C   0  0  0  0  0  2  0  0  0  0  0  0
  179.4310  181.0210  138.7780 N   0  0  0  0  0  0  0  0  0  0  0  0
  189.6570  177.9730  139.3680 N   0  0  0  0  0  2  0  0  0  0  0  0
  189.4930  176.9420  138.3860 C   0  0  0  0  0  0  0  0  0  0  0  0
  190.6520  175.8050  138.1450 S   0  0  0  0  0  0  0  0  0  0  0  0
  188.1560  176.7520  137.7540 C   0  0  0  0  0  2  0  0  0  0  0  0
  187.7240  178.0060  137.0080 C   0  0  2  0  0  3  0  0  0  0  0  0
  186.4280  178.3660  137.3820 O   0  0  0  0  0  1  0  0  0  0  0  0
  188.8910  177.1680  134.9620 O   0  0  0  0  0  1  0  0  0  0  0  0
  186.8100  178.1170  134.8140 O   0  0  0  0  0  0  0  0  0  0  0  0
  187.7750  177.7630  135.5390 C   0  0  0  0  0  0  0  0  0  0  0  0
  1  5  1  0  0  0  0
  1  6  1  0  0  0  0
  2 12  1  0  0  0  0
  2 11  1  0  0  0  0
  3 10  1  0  0  0  0
  4  8  1  0  0  0  0
  7  4  1  0  0  0  0
  7  9  1  0  0  0  0
  8  1  2  0  0  0  0
  9  5  2  0  0  0  0
 10 11  1  0  0  0  0
 11  7  2  0  0  0  0
 12 15  1  0  0  0  0
 13 14  1  0  0  0  0
 13  2  2  0  0  0  0
 14  3  2  0  0  0  0
 15  4  2  0  0  0  0
 16  3  1  1  0  0  0
 16 18  1  0  0  0  0
 17 19  1  0  0  0  0
 17 16  1  0  0  0  0
 19 21  1  6  0  0  0
 19 20  1  0  0  0  0
 20 18  1  0  0  0  0
 21 22  1  0  0  0  0
 23 27  2  0  0  0  0
 23 25  1  0  0  0  0
 24 22  1  0  0  0  0
 25 22  1  0  0  0  0
 25 26  1  1  0  0  0
 27 24  1  0  0  0  0
 28 25  1  0  0  0  0
 29 34  1  0  0  0  0
 31 32  1  0  0  0  0
 32 30  1  0  0  0  0
 33 29  1  0  0  0  0
 33 31  1  0  0  0  0
 34 30  1  0  0  0  0
 34 28  1  0  0  0  0
 35 13  1  0  0  0  0
 36 35  1  0  0  0  0
 37 36  2  0  0  0  0
 38 36  1  0  0  0  0
 39 40  1  1  0  0  0
 39 38  1  0  0  0  0
 41 43  1  0  0  0  0
 42 43  2  0  0  0  0
 43 39  1  0  0  0  0
M  END
>  <MODEL>
4

>  <REMARK>
 VINA RESULT:      -9.3      4.767      9.048
  Name = 
  10 active torsions:
  status: ('A' for Active; 'I' for Inactive)
    1  A    between atoms: C_1  and  C_9
    2  A    between atoms: C_1  and  N_35
    3  A    between atoms: C_2  and  C_13
    4  A    between atoms: C_3  and  N_4
    5  A    between atoms: C_3  and  C_12
    6  A    between atoms: C_9  and  C_32
    7  A    between atoms: C_14  and  C_22
    8  A    between atoms: C_14  and  N_40
    9  A    between atoms: C_32  and  C_37
   10  A    between atoms: C_34  and  N_35
                            x       y       z     vdW  Elec       q    Type
                         _______ _______ _______ _____ _____    ______ ____

>  <TORSDO>
F 10

$$$$
=
 OpenBabel10262422243D

 43 48  0  0  1  0  0  0  0  0999 V2000
  191.1830  176.3580  146.8260 C   0  0  0  0  0  0  0  0  0  0  0  0
  187.2350  178.1930  144.1820 C   0  0  0  0  0  0  0  0  0  0  0  0
  188.0670  178.2520  141.4850 C   0  0  0  0  0  0  0  0  0  0  0  0
  188.9940  177.2340  146.1620 C   0  0  0  0  0  0  0  0  0  0  0  0
  191.6530  176.3940  145.5790 C   0  0  0  0  0  3  0  0  0  0  0  0
  191.9790  175.9180  147.8300 F   0  0  0  0  0  0  0  0  0  0  0  0
  189.4240  177.3040  144.8170 C   0  0  0  0  0  0  0  0  0  0  0  0
  189.8080  176.7910  147.1230 C   0  0  0  0  0  3  0  0  0  0  0  0
  190.8170  176.8700  144.4200 C   0  0  0  0  0  2  0  0  0  0  0  0
  188.9440  177.8230  142.4900 O   0  0  0  0  0  0  0  0  0  0  0  0
  188.5390  177.7750  143.8320 C   0  0  0  0  0  0  0  0  0  0  0  0
  186.8270  178.1030  145.5210 C   0  0  0  0  0  3  0  0  0  0  0  0
  186.4000  178.6450  143.2160 C   0  0  0  0  0  0  0  0  0  0  0  0
  186.8350  178.6490  141.8050 C   0  0  0  0  0  3  0  0  0  0  0  0
  187.6990  177.6300  146.5010 C   0  0  0  0  0  3  0  0  0  0  0  0
  188.5070  178.2700  140.0610 C   0  0  1  0  0  3  0  0  0  0  0  0
  188.9920  176.8990  139.6450 C   0  0  0  0  0  2  0  0  0  0  0  0
  187.4400  178.6420  139.2300 O   0  0  0  0  0  0  0  0  0  0  0  0
  188.4170  176.7120  138.2730 C   0  0  1  0  0  3  0  0  0  0  0  0
  187.6940  178.0140  138.0030 C   0  0  0  0  0  2  0  0  0  0  0  0
  189.5380  176.5130  137.2680 C   0  0  0  0  0  2  0  0  0  0  0  0
  189.1620  175.4970  136.2830 N   0  0  0  0  0  0  0  0  0  0  0  0
  189.3700  173.1820  136.7160 N   0  0  0  0  0  0  0  0  0  0  0  0
  187.9710  174.9140  136.7420 N   0  0  0  0  0  2  0  0  0  0  0  0
  190.1040  174.3410  136.2150 C   0  0  1  0  0  0  0  0  0  0  0  0
  190.4590  174.1070  134.7550 C   0  0  0  0  0  1  0  0  0  0  0  0
  188.1710  173.5420  136.9920 C   0  0  0  0  0  3  0  0  0  0  0  0
  191.4070  174.5280  137.0210 C   0  0  0  0  0  2  0  0  0  0  0  0
  193.6330  173.6940  136.8460 C   0  0  0  0  0  2  0  0  0  0  0  0
  192.9870  175.8460  135.8280 C   0  0  0  0  0  2  0  0  0  0  0  0
  193.8760  175.7650  138.0780 O   0  0  0  0  0  0  0  0  0  0  0  0
  193.9160  176.4810  136.8750 C   0  0  0  0  0  2  0  0  0  0  0  0
  194.4970  174.5400  137.7970 C   0  0  0  0  0  2  0  0  0  0  0  0
  192.5850  174.4690  136.1590 N   0  0  0  0  0  0  0  0  0  0  0  0
  185.0620  179.0770  143.5030 N   0  0  0  0  0  2  0  0  0  0  0  0
  183.8710  178.5400  142.9140 C   0  0  0  0  0  0  0  0  0  0  0  0
  182.3950  178.8090  143.5790 S   0  0  0  0  0  0  0  0  0  0  0  0
  183.9460  177.9420  141.5490 C   0  0  0  0  0  2  0  0  0  0  0  0
  183.0730  178.7120  140.5700 C   0  0  2  0  0  3  0  0  0  0  0  0
  181.9510  177.9550  140.2280 O   0  0  0  0  0  1  0  0  0  0  0  0
  184.5050  180.2580  139.2230 O   0  0  0  0  0  1  0  0  0  0  0  0
  183.9080  178.2040  138.4000 O   0  0  0  0  0  0  0  0  0  0  0  0
  183.8540  179.0350  139.3420 C   0  0  0  0  0  0  0  0  0  0  0  0
  1  8  1  0  0  0  0
  1  6  1  0  0  0  0
  2 12  1  0  0  0  0
  3 14  2  0  0  0  0
  3 10  1  0  0  0  0
  4 15  1  0  0  0  0
  4  8  2  0  0  0  0
  5  1  2  0  0  0  0
  7  4  1  0  0  0  0
  9  7  1  0  0  0  0
  9  5  1  0  0  0  0
 10 11  1  0  0  0  0
 11  2  1  0  0  0  0
 11  7  2  0  0  0  0
 12 15  2  0  0  0  0
 13 35  1  0  0  0  0
 13  2  2  0  0  0  0
 14 13  1  0  0  0  0
 16  3  1  1  0  0  0
 17 16  1  0  0  0  0
 18 16  1  0  0  0  0
 19 21  1  6  0  0  0
 19 17  1  0  0  0  0
 20 19  1  0  0  0  0
 20 18  1  0  0  0  0
 22 24  1  0  0  0  0
 22 21  1  0  0  0  0
 23 27  2  0  0  0  0
 24 27  1  0  0  0  0
 25 26  1  6  0  0  0
 25 22  1  0  0  0  0
 25 23  1  0  0  0  0
 25 28  1  0  0  0  0
 29 33  1  0  0  0  0
 30 34  1  0  0  0  0
 30 32  1  0  0  0  0
 32 31  1  0  0  0  0
 33 31  1  0  0  0  0
 34 29  1  0  0  0  0
 34 28  1  0  0  0  0
 36 35  1  0  0  0  0
 36 37  2  0  0  0  0
 38 36  1  0  0  0  0
 39 40  1  6  0  0  0
 39 38  1  0  0  0  0
 41 43  1  0  0  0  0
 42 43  2  0  0  0  0
 43 39  1  0  0  0  0
M  END
>  <MODEL>
5

>  <REMARK>
 VINA RESULT:      -9.3      3.645      6.741
  Name = 
  10 active torsions:
  status: ('A' for Active; 'I' for Inactive)
    1  A    between atoms: C_1  and  C_9
    2  A    between atoms: C_1  and  N_35
    3  A    between atoms: C_2  and  C_13
    4  A    between atoms: C_3  and  N_4
    5  A    between atoms: C_3  and  C_12
    6  A    between atoms: C_9  and  C_32
    7  A    between atoms: C_14  and  C_22
    8  A    between atoms: C_14  and  N_40
    9  A    between atoms: C_32  and  C_37
   10  A    between atoms: C_34  and  N_35
                            x       y       z     vdW  Elec       q    Type
                         _______ _______ _______ _____ _____    ______ ____

>  <TORSDO>
F 10

$$$$
=
 OpenBabel10262422243D

 43 48  0  0  1  0  0  0  0  0999 V2000
  181.8440  178.9520  142.1870 C   0  0  0  0  0  0  0  0  0  0  0  0
  186.0110  178.1180  144.9940 C   0  0  0  0  0  0  0  0  0  0  0  0
  187.9870  177.2000  143.1980 C   0  0  0  0  0  0  0  0  0  0  0  0
  183.4520  178.7880  144.0280 C   0  0  0  0  0  0  0  0  0  0  0  0
  182.7170  178.4890  141.2910 C   0  0  0  0  0  3  0  0  0  0  0  0
  180.5910  179.2830  141.7930 F   0  0  0  0  0  0  0  0  0  0  0  0
  184.4290  178.2880  143.1360 C   0  0  0  0  0  0  0  0  0  0  0  0
  182.2280  179.1060  143.5990 C   0  0  0  0  0  3  0  0  0  0  0  0
  184.1240  178.1060  141.6660 C   0  0  0  0  0  2  0  0  0  0  0  0
  186.6940  177.4930  142.7440 O   0  0  0  0  0  0  0  0  0  0  0  0
  185.7070  177.9640  143.6220 C   0  0  0  0  0  0  0  0  0  0  0  0
  185.0300  178.6280  145.8570 C   0  0  0  0  0  3  0  0  0  0  0  0
  187.2490  177.7970  145.4410 C   0  0  0  0  0  0  0  0  0  0  0  0
  188.2830  177.3420  144.4910 C   0  0  0  0  0  3  0  0  0  0  0  0
  183.7620  178.9570  145.3780 C   0  0  0  0  0  3  0  0  0  0  0  0
  189.0290  176.7270  142.2440 C   0  0  1  0  0  3  0  0  0  0  0  0
  188.6290  177.0580  140.8230 C   0  0  0  0  0  2  0  0  0  0  0  0
  190.2560  177.3460  142.5220 O   0  0  0  0  0  0  0  0  0  0  0  0
  189.8990  177.5430  140.1930 C   0  0  1  0  0  3  0  0  0  0  0  0
  190.9280  177.4000  141.2930 C   0  0  0  0  0  2  0  0  0  0  0  0
  190.2600  176.6560  139.0140 C   0  0  0  0  0  2  0  0  0  0  0  0
  189.2870  176.8260  137.9330 N   0  0  0  0  0  0  0  0  0  0  0  0
  189.3620  175.5360  135.9540 N   0  0  0  0  0  0  0  0  0  0  0  0
  188.4420  175.7060  137.9740 N   0  0  0  0  0  2  0  0  0  0  0  0
  189.8810  176.7560  136.5660 C   0  0  1  0  0  0  0  0  0  0  0  0
  189.3840  177.9550  135.7750 C   0  0  0  0  0  1  0  0  0  0  0  0
  188.5480  174.9780  136.7720 C   0  0  0  0  0  3  0  0  0  0  0  0
  191.4250  176.7440  136.5380 C   0  0  0  0  0  2  0  0  0  0  0  0
  192.5330  174.8130  137.3890 C   0  0  0  0  0  2  0  0  0  0  0  0
  192.8990  175.5840  135.0750 C   0  0  0  0  0  2  0  0  0  0  0  0
  194.3350  176.3440  136.8700 O   0  0  0  0  0  0  0  0  0  0  0  0
  194.3290  175.9070  135.5390 C   0  0  0  0  0  2  0  0  0  0  0  0
  193.9970  175.2150  137.6280 C   0  0  0  0  0  2  0  0  0  0  0  0
  191.9450  175.4250  136.1850 N   0  0  0  0  0  0  0  0  0  0  0  0
  187.6250  177.9380  146.8190 N   0  0  0  0  0  2  0  0  0  0  0  0
  188.9340  177.6980  147.3520 C   0  0  0  0  0  0  0  0  0  0  0  0
  189.3850  178.3070  148.8070 S   0  0  0  0  0  0  0  0  0  0  0  0
  189.8060  176.6810  146.6960 C   0  0  0  0  0  2  0  0  0  0  0  0
  191.2610  177.1250  146.7060 C   0  0  2  0  0  3  0  0  0  0  0  0
  191.6340  177.5770  145.4390 O   0  0  0  0  0  1  0  0  0  0  0  0
  192.4100  174.9580  146.2180 O   0  0  0  0  0  0  0  0  0  0  0  0
  192.6070  175.9480  148.2760 O   0  0  0  0  0  1  0  0  0  0  0  0
  192.1340  175.9870  147.1110 C   0  0  0  0  0  0  0  0  0  0  0  0
  1  8  1  0  0  0  0
  2 13  2  0  0  0  0
  2 12  1  0  0  0  0
  3 14  2  0  0  0  0
  4 15  1  0  0  0  0
  5  9  1  0  0  0  0
  5  1  2  0  0  0  0
  6  1  1  0  0  0  0
  7 11  2  0  0  0  0
  7  4  1  0  0  0  0
  8  4  2  0  0  0  0
  9  7  1  0  0  0  0
 10  3  1  0  0  0  0
 10 11  1  0  0  0  0
 11  2  1  0  0  0  0
 13 35  1  0  0  0  0
 14 13  1  0  0  0  0
 15 12  2  0  0  0  0
 16 18  1  0  0  0  0
 16  3  1  1  0  0  0
 17 16  1  0  0  0  0
 19 21  1  6  0  0  0
 19 17  1  0  0  0  0
 19 20  1  0  0  0  0
 20 18  1  0  0  0  0
 22 24  1  0  0  0  0
 22 21  1  0  0  0  0
 23 25  1  0  0  0  0
 23 27  2  0  0  0  0
 25 26  1  6  0  0  0
 25 22  1  0  0  0  0
 27 24  1  0  0  0  0
 28 25  1  0  0  0  0
 29 33  1  0  0  0  0
 30 32  1  0  0  0  0
 30 34  1  0  0  0  0
 31 33  1  0  0  0  0
 32 31  1  0  0  0  0
 34 28  1  0  0  0  0
 34 29  1  0  0  0  0
 35 36  1  0  0  0  0
 36 37  2  0  0  0  0
 38 39  1  0  0  0  0
 38 36  1  0  0  0  0
 39 40  1  6  0  0  0
 39 43  1  0  0  0  0
 41 43  2  0  0  0  0
 43 42  1  0  0  0  0
M  END
>  <MODEL>
6

>  <REMARK>
 VINA RESULT:      -9.3      1.881      2.653
  Name = 
  10 active torsions:
  status: ('A' for Active; 'I' for Inactive)
    1  A    between atoms: C_1  and  C_9
    2  A    between atoms: C_1  and  N_35
    3  A    between atoms: C_2  and  C_13
    4  A    between atoms: C_3  and  N_4
    5  A    between atoms: C_3  and  C_12
    6  A    between atoms: C_9  and  C_32
    7  A    between atoms: C_14  and  C_22
    8  A    between atoms: C_14  and  N_40
    9  A    between atoms: C_32  and  C_37
   10  A    between atoms: C_34  and  N_35
                            x       y       z     vdW  Elec       q    Type
                         _______ _______ _______ _____ _____    ______ ____

>  <TORSDO>
F 10

$$$$
=
 OpenBabel10262422243D

 43 48  0  0  1  0  0  0  0  0999 V2000
  188.1390  177.2880  147.2490 C   0  0  0  0  0  0  0  0  0  0  0  0
  186.1490  178.5590  142.7360 C   0  0  0  0  0  0  0  0  0  0  0  0
  188.2230  178.2270  140.8510 C   0  0  0  0  0  0  0  0  0  0  0  0
  186.6250  177.9770  145.4510 C   0  0  0  0  0  0  0  0  0  0  0  0
  189.1730  177.1460  146.4190 C   0  0  0  0  0  3  0  0  0  0  0  0
  188.3000  177.0360  148.5700 F   0  0  0  0  0  0  0  0  0  0  0  0
  187.6750  177.8520  144.5120 C   0  0  0  0  0  0  0  0  0  0  0  0
  186.8240  177.7160  146.7450 C   0  0  0  0  0  3  0  0  0  0  0  0
  189.0560  177.4090  144.9410 C   0  0  0  0  0  2  0  0  0  0  0  0
  188.4550  177.9880  142.2130 O   0  0  0  0  0  0  0  0  0  0  0  0
  187.4300  178.1350  143.1580 C   0  0  0  0  0  0  0  0  0  0  0  0
  185.1190  178.6630  143.6830 C   0  0  0  0  0  3  0  0  0  0  0  0
  185.9350  178.8280  141.4260 C   0  0  0  0  0  0  0  0  0  0  0  0
  187.0190  178.6280  140.4440 C   0  0  0  0  0  3  0  0  0  0  0  0
  185.3570  178.3780  145.0280 C   0  0  0  0  0  3  0  0  0  0  0  0
  189.3190  178.0390  139.8590 C   0  0  1  0  0  3  0  0  0  0  0  0
  189.4900  176.5710  139.5370 C   0  0  0  0  0  2  0  0  0  0  0  0
  189.0220  178.7290  138.6740 O   0  0  0  0  0  0  0  0  0  0  0  0
  189.6880  176.5460  138.0520 C   0  0  1  0  0  3  0  0  0  0  0  0
  189.6640  178.0070  137.6580 C   0  0  0  0  0  2  0  0  0  0  0  0
  191.0380  175.9340  137.7220 C   0  0  0  0  0  2  0  0  0  0  0  0
  191.0470  175.4320  136.3470 N   0  0  0  0  0  0  0  0  0  0  0  0
  191.3460  173.1420  135.8390 N   0  0  0  0  0  0  0  0  0  0  0  0
  189.8360  174.7470  136.1620 N   0  0  0  0  0  2  0  0  0  0  0  0
  192.0760  174.3830  136.0900 C   0  0  1  0  0  0  0  0  0  0  0  0
  192.8390  174.7680  134.8330 C   0  0  0  0  0  1  0  0  0  0  0  0
  190.0880  173.3900  135.8780 C   0  0  0  0  0  3  0  0  0  0  0  0
  193.0830  174.1780  137.2420 C   0  0  0  0  0  2  0  0  0  0  0  0
  194.8210  172.6370  136.7070 C   0  0  0  0  0  2  0  0  0  0  0  0
  195.3270  174.8790  137.6000 C   0  0  0  0  0  2  0  0  0  0  0  0
  195.0610  172.9900  139.0900 O   0  0  0  0  0  0  0  0  0  0  0  0
  195.8310  174.1350  138.8480 C   0  0  0  0  0  2  0  0  0  0  0  0
  195.3700  172.1110  138.0440 C   0  0  0  0  0  2  0  0  0  0  0  0
  194.4520  174.0620  136.7440 N   0  0  0  0  0  0  0  0  0  0  0  0
  184.6570  179.2540  140.9310 N   0  0  0  0  0  2  0  0  0  0  0  0
  183.5610  178.3890  140.6050 C   0  0  0  0  0  0  0  0  0  0  0  0
  182.0560  178.6600  141.2000 S   0  0  0  0  0  0  0  0  0  0  0  0
  183.7350  177.3810  139.5200 C   0  0  0  0  0  2  0  0  0  0  0  0
  184.0260  178.0590  138.1900 C   0  0  2  0  0  3  0  0  0  0  0  0
  182.8620  178.1310  137.4220 O   0  0  0  0  0  1  0  0  0  0  0  0
  184.9160  175.9320  137.2220 O   0  0  0  0  0  1  0  0  0  0  0  0
  186.1070  177.8830  137.0480 O   0  0  0  0  0  0  0  0  0  0  0  0
  185.0700  177.2940  137.4500 C   0  0  0  0  0  0  0  0  0  0  0  0
  1  6  1  0  0  0  0
  2 11  1  0  0  0  0
  2 12  1  0  0  0  0
  3 10  1  0  0  0  0
  4  8  2  0  0  0  0
  5  1  2  0  0  0  0
  7  9  1  0  0  0  0
  7  4  1  0  0  0  0
  8  1  1  0  0  0  0
  9  5  1  0  0  0  0
 10 11  1  0  0  0  0
 11  7  2  0  0  0  0
 12 15  2  0  0  0  0
 13  2  2  0  0  0  0
 14  3  2  0  0  0  0
 14 13  1  0  0  0  0
 15  4  1  0  0  0  0
 16  3  1  1  0  0  0
 17 16  1  0  0  0  0
 18 16  1  0  0  0  0
 19 21  1  1  0  0  0
 19 17  1  0  0  0  0
 20 19  1  0  0  0  0
 20 18  1  0  0  0  0
 22 21  1  0  0  0  0
 23 27  2  0  0  0  0
 23 25  1  0  0  0  0
 24 22  1  0  0  0  0
 25 26  1  6  0  0  0
 25 22  1  0  0  0  0
 25 28  1  0  0  0  0
 27 24  1  0  0  0  0
 29 34  1  0  0  0  0
 29 33  1  0  0  0  0
 30 32  1  0  0  0  0
 32 31  1  0  0  0  0
 33 31  1  0  0  0  0
 34 28  1  0  0  0  0
 34 30  1  0  0  0  0
 35 13  1  0  0  0  0
 36 35  1  0  0  0  0
 36 37  2  0  0  0  0
 38 36  1  0  0  0  0
 39 40  1  6  0  0  0
 39 38  1  0  0  0  0
 41 43  1  0  0  0  0
 42 43  2  0  0  0  0
 43 39  1  0  0  0  0
M  END
>  <MODEL>
7

>  <REMARK>
 VINA RESULT:      -9.2      4.221      6.843
  Name = 
  10 active torsions:
  status: ('A' for Active; 'I' for Inactive)
    1  A    between atoms: C_1  and  C_9
    2  A    between atoms: C_1  and  N_35
    3  A    between atoms: C_2  and  C_13
    4  A    between atoms: C_3  and  N_4
    5  A    between atoms: C_3  and  C_12
    6  A    between atoms: C_9  and  C_32
    7  A    between atoms: C_14  and  C_22
    8  A    between atoms: C_14  and  N_40
    9  A    between atoms: C_32  and  C_37
   10  A    between atoms: C_34  and  N_35
                            x       y       z     vdW  Elec       q    Type
                         _______ _______ _______ _____ _____    ______ ____

>  <TORSDO>
F 10

$$$$
=
 OpenBabel10262422243D

 43 48  0  0  1  0  0  0  0  0999 V2000
  190.0220  177.0490  146.5000 C   0  0  0  0  0  0  0  0  0  0  0  0
  189.3880  177.7600  141.4960 C   0  0  0  0  0  0  0  0  0  0  0  0
  186.7030  178.5620  141.1600 C   0  0  0  0  0  0  0  0  0  0  0  0
  190.3730  177.2350  144.0830 C   0  0  0  0  0  0  0  0  0  0  0  0
  188.7350  177.3860  146.4090 C   0  0  0  0  0  3  0  0  0  0  0  0
  190.5590  176.7720  147.7120 F   0  0  0  0  0  0  0  0  0  0  0  0
  189.0170  177.5960  143.9090 C   0  0  0  0  0  0  0  0  0  0  0  0
  190.8650  176.9740  145.2960 C   0  0  0  0  0  3  0  0  0  0  0  0
  188.0810  177.7070  145.0910 C   0  0  0  0  0  3  0  0  0  0  0  0
  187.1980  178.2510  142.4330 O   0  0  0  0  0  0  0  0  0  0  0  0
  188.5330  177.8650  142.6170 C   0  0  0  0  0  0  0  0  0  0  0  0
  190.7330  177.4130  141.6950 C   0  0  0  0  0  2  0  0  0  0  0  0
  188.9000  178.0220  140.2600 C   0  0  0  0  0  0  0  0  0  0  0  0
  187.5010  178.4650  140.0960 C   0  0  0  0  0  3  0  0  0  0  0  0
  191.2190  177.1510  142.9760 C   0  0  0  0  0  3  0  0  0  0  0  0
  185.2870  178.9960  140.9890 C   0  0  1  0  0  3  0  0  0  0  0  0
  184.9160  179.0090  139.5230 C   0  0  0  0  0  2  0  0  0  0  0  0
  184.4270  178.1160  141.6630 O   0  0  0  0  0  0  0  0  0  0  0  0
  183.5400  178.4170  139.4920 C   0  0  1  0  0  3  0  0  0  0  0  0
  183.2220  178.1610  140.9490 C   0  0  0  0  0  2  0  0  0  0  0  0
  182.5600  179.4190  138.9070 C   0  0  0  0  0  2  0  0  0  0  0  0
  181.4880  178.7240  138.1910 N   0  0  0  0  0  0  0  0  0  0  0  0
  181.0270  179.1250  135.9080 N   0  0  0  0  0  0  0  0  0  0  0  0
  182.1100  177.8020  137.3350 N   0  0  0  0  0  2  0  0  0  0  0  0
  180.7190  179.5950  137.2570 C   0  0  1  0  0  0  0  0  0  0  0  0
  179.2370  179.3830  137.5260 C   0  0  0  0  0  1  0  0  0  0  0  0
  181.8040  178.1090  135.9940 C   0  0  0  0  0  3  0  0  0  0  0  0
  181.0370  181.1010  137.3750 C   0  0  0  0  0  2  0  0  0  0  0  0
  179.9750  182.3570  135.6500 C   0  0  0  0  0  2  0  0  0  0  0  0
  179.8100  183.0360  138.0150 C   0  0  0  0  0  2  0  0  0  0  0  0
  181.5760  183.9030  136.6040 O   0  0  0  0  0  0  0  0  0  0  0  0
  180.6520  184.2530  137.5990 C   0  0  0  0  0  2  0  0  0  0  0  0
  180.8050  183.6390  135.4640 C   0  0  0  0  0  2  0  0  0  0  0  0
  179.8720  181.9230  137.0530 N   0  0  0  0  0  0  0  0  0  0  0  0
  189.7170  177.9410  139.0830 N   0  0  0  0  0  2  0  0  0  0  0  0
  189.8120  176.8050  138.2140 C   0  0  0  0  0  0  0  0  0  0  0  0
  188.8370  176.6530  136.9020 S   0  0  0  0  0  0  0  0  0  0  0  0
  190.9720  175.8800  138.3580 C   0  0  0  0  0  2  0  0  0  0  0  0
  191.8840  175.9570  137.1440 C   0  0  2  0  0  3  0  0  0  0  0  0
  192.0040  174.6980  136.5510 O   0  0  0  0  0  1  0  0  0  0  0  0
  194.2540  176.5570  136.6180 O   0  0  0  0  0  0  0  0  0  0  0  0
  193.4450  176.7530  138.7540 O   0  0  0  0  0  1  0  0  0  0  0  0
  193.2300  176.4500  137.5520 C   0  0  0  0  0  0  0  0  0  0  0  0
  1  6  1  0  0  0  0
  2 12  1  0  0  0  0
  2 11  1  0  0  0  0
  3 10  1  0  0  0  0
  4  8  1  0  0  0  0
  5  1  1  0  0  0  0
  7  4  1  0  0  0  0
  7  9  1  0  0  0  0
  8  1  2  0  0  0  0
  9  5  2  0  0  0  0
 10 11  1  0  0  0  0
 11  7  2  0  0  0  0
 12 15  1  0  0  0  0
 13  2  2  0  0  0  0
 14 13  1  0  0  0  0
 14  3  2  0  0  0  0
 15  4  2  0  0  0  0
 16  3  1  6  0  0  0
 16 18  1  0  0  0  0
 17 16  1  0  0  0  0
 19 21  1  1  0  0  0
 19 17  1  0  0  0  0
 19 20  1  0  0  0  0
 20 18  1  0  0  0  0
 22 21  1  0  0  0  0
 23 27  2  0  0  0  0
 23 25  1  0  0  0  0
 24 22  1  0  0  0  0
 25 28  1  0  0  0  0
 25 26  1  1  0  0  0
 25 22  1  0  0  0  0
 27 24  1  0  0  0  0
 29 34  1  0  0  0  0
 31 32  1  0  0  0  0
 32 30  1  0  0  0  0
 33 29  1  0  0  0  0
 33 31  1  0  0  0  0
 34 28  1  0  0  0  0
 34 30  1  0  0  0  0
 35 13  1  0  0  0  0
 36 38  1  0  0  0  0
 36 35  1  0  0  0  0
 37 36  2  0  0  0  0
 39 40  1  1  0  0  0
 39 43  1  0  0  0  0
 39 38  1  0  0  0  0
 41 43  2  0  0  0  0
 43 42  1  0  0  0  0
M  END
>  <MODEL>
8

>  <REMARK>
 VINA RESULT:      -9.1      4.921      8.405
  Name = 
  10 active torsions:
  status: ('A' for Active; 'I' for Inactive)
    1  A    between atoms: C_1  and  C_9
    2  A    between atoms: C_1  and  N_35
    3  A    between atoms: C_2  and  C_13
    4  A    between atoms: C_3  and  N_4
    5  A    between atoms: C_3  and  C_12
    6  A    between atoms: C_9  and  C_32
    7  A    between atoms: C_14  and  C_22
    8  A    between atoms: C_14  and  N_40
    9  A    between atoms: C_32  and  C_37
   10  A    between atoms: C_34  and  N_35
                            x       y       z     vdW  Elec       q    Type
                         _______ _______ _______ _____ _____    ______ ____

>  <TORSDO>
F 10

$$$$
=
 OpenBabel10262422243D

 43 48  0  0  1  0  0  0  0  0999 V2000
  182.2330  178.9770  143.6020 C   0  0  0  0  0  0  0  0  0  0  0  0
  187.1040  178.2430  144.8970 C   0  0  0  0  0  0  0  0  0  0  0  0
  188.3900  177.2860  142.5730 C   0  0  0  0  0  0  0  0  0  0  0  0
  184.3600  178.8720  144.8130 C   0  0  0  0  0  0  0  0  0  0  0  0
  182.7680  178.4940  142.4800 C   0  0  0  0  0  3  0  0  0  0  0  0
  180.9160  179.2910  143.6350 F   0  0  0  0  0  0  0  0  0  0  0  0
  184.9950  178.3530  143.6610 C   0  0  0  0  0  0  0  0  0  0  0  0
  183.0590  179.1720  144.8040 C   0  0  0  0  0  3  0  0  0  0  0  0
  184.2260  178.1300  142.3790 C   0  0  0  0  0  2  0  0  0  0  0  0
  187.0150  177.5600  142.5640 O   0  0  0  0  0  0  0  0  0  0  0  0
  186.3660  178.0490  143.7070 C   0  0  0  0  0  0  0  0  0  0  0  0
  186.4550  178.7710  146.0220 C   0  0  0  0  0  3  0  0  0  0  0  0
  188.4240  177.9410  144.9180 C   0  0  0  0  0  0  0  0  0  0  0  0
  189.0940  177.4650  143.6910 C   0  0  0  0  0  3  0  0  0  0  0  0
  185.0950  179.0800  145.9800 C   0  0  0  0  0  3  0  0  0  0  0  0
  189.0660  176.7930  141.3400 C   0  0  1  0  0  3  0  0  0  0  0  0
  189.2500  177.9240  140.3540 C   0  0  0  0  0  2  0  0  0  0  0  0
  190.3250  176.2630  141.6590 O   0  0  0  0  0  0  0  0  0  0  0  0
  190.6350  177.7190  139.8200 C   0  0  1  0  0  3  0  0  0  0  0  0
  191.1060  176.4570  140.5110 C   0  0  0  0  0  2  0  0  0  0  0  0
  190.5830  177.5080  138.3170 C   0  0  0  0  0  2  0  0  0  0  0  0
  190.9610  176.1340  137.9830 N   0  0  0  0  0  0  0  0  0  0  0  0
  191.2960  175.4230  135.7540 N   0  0  0  0  0  0  0  0  0  0  0  0
  192.3080  176.1720  137.5900 N   0  0  0  0  0  2  0  0  0  0  0  0
  190.2690  175.5900  136.7790 C   0  0  1  0  0  0  0  0  0  0  0  0
  189.7020  174.2250  137.1360 C   0  0  0  0  0  1  0  0  0  0  0  0
  192.4320  175.7510  136.2510 C   0  0  0  0  0  3  0  0  0  0  0  0
  189.1270  176.4780  136.2400 C   0  0  0  0  0  2  0  0  0  0  0  0
  187.0160  175.8740  135.3120 C   0  0  0  0  0  2  0  0  0  0  0  0
  187.2070  176.7150  137.6230 C   0  0  0  0  0  2  0  0  0  0  0  0
  186.7950  178.2380  135.7870 O   0  0  0  0  0  0  0  0  0  0  0  0
  186.4390  177.9440  137.1100 C   0  0  0  0  0  2  0  0  0  0  0  0
  186.2700  177.1880  135.0230 C   0  0  0  0  0  2  0  0  0  0  0  0
  187.8160  175.9130  136.5480 N   0  0  0  0  0  0  0  0  0  0  0  0
  189.2310  178.1220  146.0910 N   0  0  0  0  0  2  0  0  0  0  0  0
  189.2940  177.2210  147.2040 C   0  0  0  0  0  0  0  0  0  0  0  0
  188.2470  177.3470  148.4610 S   0  0  0  0  0  0  0  0  0  0  0  0
  190.1520  176.0060  147.1020 C   0  0  0  0  0  2  0  0  0  0  0  0
  191.5970  176.3830  146.8110 C   0  0  2  0  0  3  0  0  0  0  0  0
  192.1390  175.5160  145.8600 O   0  0  0  0  0  1  0  0  0  0  0  0
  192.4580  177.4150  148.9190 O   0  0  0  0  0  1  0  0  0  0  0  0
  193.0410  175.2740  148.3430 O   0  0  0  0  0  0  0  0  0  0  0  0
  192.3990  176.3190  148.0650 C   0  0  0  0  0  0  0  0  0  0  0  0
  1  6  1  0  0  0  0
  1  8  1  0  0  0  0
  2 13  2  0  0  0  0
  2 12  1  0  0  0  0
  3 14  2  0  0  0  0
  4 15  1  0  0  0  0
  5  1  2  0  0  0  0
  7 11  2  0  0  0  0
  7  4  1  0  0  0  0
  8  4  2  0  0  0  0
  9  5  1  0  0  0  0
  9  7  1  0  0  0  0
 10  3  1  0  0  0  0
 10 11  1  0  0  0  0
 11  2  1  0  0  0  0
 13 35  1  0  0  0  0
 14 13  1  0  0  0  0
 15 12  2  0  0  0  0
 16 18  1  0  0  0  0
 16  3  1  1  0  0  0
 17 16  1  0  0  0  0
 19 21  1  6  0  0  0
 19 17  1  0  0  0  0
 19 20  1  0  0  0  0
 20 18  1  0  0  0  0
 22 21  1  0  0  0  0
 23 27  2  0  0  0  0
 23 25  1  0  0  0  0
 24 22  1  0  0  0  0
 25 26  1  1  0  0  0
 25 22  1  0  0  0  0
 27 24  1  0  0  0  0
 28 34  1  0  0  0  0
 28 25  1  0  0  0  0
 29 34  1  0  0  0  0
 31 32  1  0  0  0  0
 32 30  1  0  0  0  0
 33 29  1  0  0  0  0
 33 31  1  0  0  0  0
 34 30  1  0  0  0  0
 35 36  1  0  0  0  0
 36 37  2  0  0  0  0
 38 36  1  0  0  0  0
 39 40  1  6  0  0  0
 39 38  1  0  0  0  0
 39 43  1  0  0  0  0
 43 42  2  0  0  0  0
 43 41  1  0  0  0  0
M  END
>  <MODEL>
9

>  <REMARK>
 VINA RESULT:      -9.0      1.721      2.451
  Name = 
  10 active torsions:
  status: ('A' for Active; 'I' for Inactive)
    1  A    between atoms: C_1  and  C_9
    2  A    between atoms: C_1  and  N_35
    3  A    between atoms: C_2  and  C_13
    4  A    between atoms: C_3  and  N_4
    5  A    between atoms: C_3  and  C_12
    6  A    between atoms: C_9  and  C_32
    7  A    between atoms: C_14  and  C_22
    8  A    between atoms: C_14  and  N_40
    9  A    between atoms: C_32  and  C_37
   10  A    between atoms: C_34  and  N_35
                            x       y       z     vdW  Elec       q    Type
                         _______ _______ _______ _____ _____    ______ ____

>  <TORSDO>
F 10

$$$$
