=
 OpenBabel10262420233D

 55 59  0  0  1  0  0  0  0  0999 V2000
  179.3910  177.1560  140.6080 C   0  0  0  0  0  2  0  0  0  0  0  0
  184.8930  179.8620  138.9210 O   0  0  0  0  0  0  0  0  0  0  0  0
  186.4900  177.4300  136.7360 N   0  0  0  0  0  2  0  0  0  0  0  0
  186.2440  174.7000  135.4330 C   0  0  0  0  0  3  0  0  0  0  0  0
  185.6220  173.7720  134.5940 C   0  0  0  0  0  3  0  0  0  0  0  0
  184.2730  174.7460  136.8560 C   0  0  0  0  0  0  0  0  0  0  0  0
  183.6590  173.8120  136.0050 C   0  0  0  0  0  3  0  0  0  0  0  0
  187.5440  175.6390  138.0310 C   0  0  0  0  0  1  0  0  0  0  0  0
  184.3300  173.3280  134.8800 C   0  0  0  0  0  3  0  0  0  0  0  0
  185.5790  175.1850  136.5710 C   0  0  0  0  0  0  0  0  0  0  0  0
  180.0350  179.4100  140.6680 C   0  0  1  0  0  3  0  0  0  0  0  0
  180.5510  174.9630  140.1500 C   0  0  0  0  0  2  0  0  0  0  0  0
  180.4380  180.4510  139.6240 C   0  0  0  0  0  2  0  0  0  0  0  0
  181.9200  175.4410  139.6780 C   0  0  0  0  0  2  0  0  0  0  0  0
  181.9440  180.6890  139.5450 C   0  0  0  0  0  2  0  0  0  0  0  0
  183.6050  175.2510  137.9800 O   0  0  0  0  0  0  0  0  0  0  0  0
  185.0350  179.1040  137.7470 C   0  0  0  0  0  2  0  0  0  0  0  0
  186.4360  178.5210  137.6980 C   0  0  0  0  0  2  0  0  0  0  0  0
  183.7480  179.4130  139.6160 C   0  0  1  0  0  3  0  0  0  0  0  0
  179.4420  175.9190  139.7260 C   0  0  0  0  0  2  0  0  0  0  0  0
  186.2440  176.1910  137.4640 C   0  0  2  0  0  3  0  0  0  0  0  0
  180.4610  178.0790  140.2600 N   0  0  0  0  0  2  0  0  0  0  0  0
  182.5770  179.6360  138.8830 O   0  0  0  0  0  0  0  0  0  0  0  0
  182.2210  175.0270  138.2400 C   0  0  2  0  0  3  0  0  0  0  0  0
  180.9810  177.9880  134.5940 C   0  0  0  0  0  2  0  0  0  0  0  0
  181.3940  175.8060  137.2660 C   0  0  0  0  0  0  0  0  0  0  0  0
  180.5310  179.9280  136.0760 C   0  0  0  0  0  1  0  0  0  0  0  0
  180.5030  177.4310  135.9130 C   0  0  2  0  0  0  0  0  0  0  0  0
  180.3780  175.2770  136.5920 C   0  0  0  0  0  3  0  0  0  0  0  0
  179.7980  176.2210  135.7590 O   0  0  0  0  0  0  0  0  0  0  0  0
  179.9090  178.7260  135.3920 C   0  0  2  0  0  3  0  0  0  0  0  0
  181.6110  177.2490  136.9320 C   0  0  0  0  0  2  0  0  0  0  0  0
  183.8510  177.9550  140.0580 C   0  0  0  0  0  2  0  0  0  0  0  0
  184.1790  177.8610  141.5390 C   0  0  0  0  0  2  0  0  0  0  0  0
  186.1380  176.6050  143.8680 C   0  0  0  0  0  1  0  0  0  0  0  0
  186.2360  179.0690  141.5230 C   0  0  0  0  0  2  0  0  0  0  0  0
  186.0580  179.0070  144.1880 C   0  0  2  0  0  3  0  0  0  0  0  0
  184.8420  179.0800  141.9880 N   0  0  0  0  0  0  0  0  0  0  0  0
  184.7210  179.1800  143.4530 C   0  0  0  0  0  2  0  0  0  0  0  0
  186.8430  177.8670  143.6760 N   0  0  0  0  0  0  0  0  0  0  0  0
  187.1000  178.0000  142.2330 C   0  0  2  0  0  3  0  0  0  0  0  0
  187.0760  178.3360  146.3930 C   0  0  0  0  0  1  0  0  0  0  0  0
  184.5990  178.5780  146.2460 C   0  0  0  0  0  1  0  0  0  0  0  0
  185.9360  179.0740  145.7170 C   0  0  0  0  0  3  0  0  0  0  0  0
  188.4530  178.2760  142.0240 O   0  0  0  0  0  0  0  0  0  0  0  0
  188.9720  177.1220  141.4290 C   0  0  0  0  0  2  0  0  0  0  0  0
  190.2680  176.7040  142.1120 C   0  0  2  0  0  3  0  0  0  0  0  0
  190.0930  175.4750  142.7520 O   0  0  0  0  0  1  0  0  0  0  0  0
  190.6570  177.6690  143.0450 O   0  0  0  0  0  0  0  0  0  0  0  0
  191.5210  177.6240  145.2590 C   0  0  0  0  0  1  0  0  0  0  0  0
  190.5160  177.0450  144.2860 C   0  0  0  0  0  2  0  0  0  0  0  0
  180.5840  179.7640  142.0500 C   0  0  0  0  0  2  0  0  0  0  0  0
  179.5950  179.5900  143.0550 O   0  0  0  0  0  0  0  0  0  0  0  0
  179.7180  177.6540  144.6740 N   0  0  0  0  0  0  0  0  0  0  0  0
  179.6620  178.5400  143.9310 C   0  0  0  0  0  0  0  0  0  0  0  0
  2 19  1  0  0  0  0
  3 21  1  0  0  0  0
  3 18  1  0  0  0  0
  4 10  1  0  0  0  0
  5  9  1  0  0  0  0
  5  4  2  0  0  0  0
  6 16  1  0  0  0  0
  7  6  1  0  0  0  0
  9  7  2  0  0  0  0
 10  6  2  0  0  0  0
 10 21  1  0  0  0  0
 11 52  1  1  0  0  0
 13 11  1  0  0  0  0
 14 12  1  0  0  0  0
 15 13  1  0  0  0  0
 16 24  1  0  0  0  0
 17  2  1  0  0  0  0
 18 17  1  0  0  0  0
 19 33  1  6  0  0  0
 20 12  1  0  0  0  0
 20  1  1  0  0  0  0
 21  8  1  6  0  0  0
 22  1  1  0  0  0  0
 22 11  1  0  0  0  0
 23 15  1  0  0  0  0
 23 19  1  0  0  0  0
 24 26  1  6  0  0  0
 24 14  1  0  0  0  0
 25 31  1  0  0  0  0
 28 25  1  6  0  0  0
 28 32  1  0  0  0  0
 29 26  2  0  0  0  0
 30 28  1  0  0  0  0
 30 29  1  0  0  0  0
 31 28  1  0  0  0  0
 31 27  1  1  0  0  0
 32 26  1  0  0  0  0
 33 34  1  0  0  0  0
 34 38  1  0  0  0  0
 36 38  1  0  0  0  0
 36 41  1  0  0  0  0
 37 44  1  1  0  0  0
 38 39  1  0  0  0  0
 39 37  1  0  0  0  0
 40 35  1  0  0  0  0
 40 37  1  0  0  0  0
 41 45  1  1  0  0  0
 41 40  1  0  0  0  0
 44 43  1  0  0  0  0
 44 42  1  0  0  0  0
 46 45  1  0  0  0  0
 46 47  1  0  0  0  0
 47 48  1  1  0  0  0
 47 49  1  0  0  0  0
 49 51  1  0  0  0  0
 51 50  1  0  0  0  0
 52 53  1  0  0  0  0
 53 55  1  0  0  0  0
 55 54  3  0  0  0  0
M  END
>  <MODEL>
1

>  <REMARK>
 VINA RESULT:      -5.3      0.000      0.000
  Name = 
  13 active torsions:
  status: ('A' for Active; 'I' for Inactive)
    1  A    between atoms: C_3  and  C_6
    2  A    between atoms: C_3  and  O_21
    3  A    between atoms: C_6  and  O_25
    4  A    between atoms: C_8  and  N_20
    5  A    between atoms: C_8  and  C_22
    6  A    between atoms: C_12  and  C_50
    7  A    between atoms: C_13  and  C_52
    8  A    between atoms: O_21  and  C_53
    9  A    between atoms: C_22  and  C_43
   10  A    between atoms: O_25  and  C_38
   11  A    between atoms: C_27  and  C_54
   12  A    between atoms: C_41  and  O_55
   13  A    between atoms: C_54  and  O_55
                            x       y       z     vdW  Elec       q    Type
                         _______ _______ _______ _____ _____    ______ ____

>  <TORSDO>
F 13

$$$$
