=
 OpenBabel10262419313D

 31 35  0  0  0  0  0  0  0  0999 V2000
  185.2150  178.6070  144.1770 C   0  0  0  0  0  0  0  0  0  0  0  0
  188.8030  177.4960  143.9100 C   0  0  0  0  0  0  0  0  0  0  0  0
  189.3080  177.3940  145.2430 C   0  0  0  0  0  0  0  0  0  0  0  0
  188.7050  177.3150  138.6440 O   0  0  0  0  0  0  0  0  0  0  0  0
  189.8540  176.9780  139.0360 C   0  0  0  0  0  0  0  0  0  0  0  0
  189.0810  177.5610  147.6620 C   0  0  0  0  0  0  0  0  0  0  0  0
  187.4720  177.8910  143.5770 C   0  0  0  0  0  0  0  0  0  0  0  0
  184.8600  178.6620  142.8300 C   0  0  0  0  0  3  0  0  0  0  0  0
  188.5400  177.6770  146.3830 C   0  0  0  0  0  3  0  0  0  0  0  0
  189.2550  177.2610  141.5090 C   0  0  0  0  0  0  0  0  0  0  0  0
  184.3070  178.9240  145.1300 F   0  0  0  0  0  0  0  0  0  0  0  0
  191.4490  176.7050  144.3910 N   0  0  0  0  0  0  0  0  0  0  0  0
  188.2520  177.8640  148.8570 C   0  0  0  0  0  1  0  0  0  0  0  0
  187.9800  177.6410  141.2380 N   0  0  0  0  0  0  0  0  0  0  0  0
  189.6890  177.1820  142.8420 C   0  0  0  0  0  0  0  0  0  0  0  0
  190.1580  176.9410  140.4380 N   0  0  0  0  0  2  0  0  0  0  0  0
  186.5070  178.2250  144.5430 C   0  0  0  0  0  3  0  0  0  0  0  0
  190.4060  177.1600  147.8070 C   0  0  0  0  0  3  0  0  0  0  0  0
  187.0930  177.9520  142.2120 C   0  0  0  0  0  0  0  0  0  0  0  0
  185.7970  178.3350  141.8510 C   0  0  0  0  0  3  0  0  0  0  0  0
  191.0020  176.7890  143.1170 C   0  0  0  0  0  3  0  0  0  0  0  0
  190.6510  176.9910  145.4480 C   0  0  0  0  0  0  0  0  0  0  0  0
  191.1560  176.8870  146.7080 N   0  0  0  0  0  0  0  0  0  0  0  0
  192.8340  175.9150  136.1370 C   0  0  0  0  0  0  0  0  0  0  0  0
  190.5190  176.2040  136.7700 C   0  0  0  0  0  3  0  0  0  0  0  0
  192.7050  177.0670  139.5960 F   0  0  0  0  0  0  0  0  0  0  0  0
  193.8550  175.5440  135.1220 C   0  0  0  0  0  1  0  0  0  0  0  0
  191.4780  175.8550  135.8160 C   0  0  0  0  0  3  0  0  0  0  0  0
  192.2780  176.6760  138.3700 C   0  0  0  0  0  0  0  0  0  0  0  0
  190.9020  176.6170  138.0550 C   0  0  0  0  0  0  0  0  0  0  0  0
  193.2330  176.3250  137.4100 C   0  0  0  0  0  3  0  0  0  0  0  0
  1 17  1  0  0  0  0
  1 11  1  0  0  0  0
  2  3  2  0  0  0  0
  3 22  1  0  0  0  0
  3  9  1  0  0  0  0
  4  5  2  0  0  0  0
  5 16  1  0  0  0  0
  6 18  1  0  0  0  0
  6 13  1  0  0  0  0
  7  2  1  0  0  0  0
  7 17  2  0  0  0  0
  8  1  2  0  0  0  0
  9  6  2  0  0  0  0
 10 15  1  0  0  0  0
 12 22  2  0  0  0  0
 14 10  2  0  0  0  0
 14 19  1  0  0  0  0
 15 21  2  0  0  0  0
 15  2  1  0  0  0  0
 16 10  1  0  0  0  0
 19  7  1  0  0  0  0
 20 19  2  0  0  0  0
 20  8  1  0  0  0  0
 21 12  1  0  0  0  0
 22 23  1  0  0  0  0
 23 18  2  0  0  0  0
 24 31  1  0  0  0  0
 25 30  2  0  0  0  0
 27 24  1  0  0  0  0
 28 24  2  0  0  0  0
 28 25  1  0  0  0  0
 29 26  1  0  0  0  0
 30 29  1  0  0  0  0
 30  5  1  0  0  0  0
 31 29  2  0  0  0  0
M  END
>  <MODEL>
1

>  <REMARK>
 VINA RESULT:     -11.5      0.000      0.000
  Name = 
  1 active torsions:
  status: ('A' for Active; 'I' for Inactive)
    1  A    between atoms: C_9  and  C_22
                            x       y       z     vdW  Elec       q    Type
                         _______ _______ _______ _____ _____    ______ ____

>  <TORSDO>
F 1

$$$$
=
 OpenBabel10262419313D

 31 35  0  0  0  0  0  0  0  0999 V2000
  184.5600  178.8190  144.5760 C   0  0  0  0  0  0  0  0  0  0  0  0
  188.0870  177.6520  143.9570 C   0  0  0  0  0  0  0  0  0  0  0  0
  188.7060  177.5000  145.2360 C   0  0  0  0  0  0  0  0  0  0  0  0
  187.5170  177.6360  138.7170 O   0  0  0  0  0  0  0  0  0  0  0  0
  188.6900  177.2660  138.9960 C   0  0  0  0  0  0  0  0  0  0  0  0
  188.6970  177.5960  147.6690 C   0  0  0  0  0  0  0  0  0  0  0  0
  186.7400  178.0810  143.7560 C   0  0  0  0  0  0  0  0  0  0  0  0
  184.0890  178.9220  143.2690 C   0  0  0  0  0  3  0  0  0  0  0  0
  188.0470  177.7600  146.4480 C   0  0  0  0  0  3  0  0  0  0  0  0
  188.3180  177.4830  141.5190 C   0  0  0  0  0  0  0  0  0  0  0  0
  183.7470  179.1220  145.6160 F   0  0  0  0  0  0  0  0  0  0  0  0
  190.7480  176.7980  144.1770 N   0  0  0  0  0  0  0  0  0  0  0  0
  187.9840  177.8760  148.9420 C   0  0  0  0  0  1  0  0  0  0  0  0
  187.0320  177.8940  141.3750 N   0  0  0  0  0  0  0  0  0  0  0  0
  188.8670  177.3540  142.8060 C   0  0  0  0  0  0  0  0  0  0  0  0
  189.1160  177.1800  140.3630 N   0  0  0  0  0  2  0  0  0  0  0  0
  185.8710  178.4030  144.8140 C   0  0  0  0  0  3  0  0  0  0  0  0
  190.0220  177.1670  147.6830 C   0  0  0  0  0  3  0  0  0  0  0  0
  186.2420  178.1910  142.4330 C   0  0  0  0  0  0  0  0  0  0  0  0
  184.9280  178.6090  142.2000 C   0  0  0  0  0  3  0  0  0  0  0  0
  190.1910  176.9300  142.9500 C   0  0  0  0  0  3  0  0  0  0  0  0
  190.0530  177.0660  145.3090 C   0  0  0  0  0  0  0  0  0  0  0  0
  190.6650  176.9130  146.5140 N   0  0  0  0  0  0  0  0  0  0  0  0
  191.5000  176.2450  135.9170 C   0  0  0  0  0  0  0  0  0  0  0  0
  190.9680  176.6130  138.2470 C   0  0  0  0  0  3  0  0  0  0  0  0
  187.9790  177.1650  136.1790 F   0  0  0  0  0  0  0  0  0  0  0  0
  192.4840  175.8890  134.8610 C   0  0  0  0  0  1  0  0  0  0  0  0
  191.8940  176.2780  137.2550 C   0  0  0  0  0  3  0  0  0  0  0  0
  189.2490  176.8800  136.5570 C   0  0  0  0  0  0  0  0  0  0  0  0
  189.6390  176.9170  137.9150 C   0  0  0  0  0  0  0  0  0  0  0  0
  190.1810  176.5440  135.5700 C   0  0  0  0  0  3  0  0  0  0  0  0
  1 17  1  0  0  0  0
  1 11  1  0  0  0  0
  2  3  2  0  0  0  0
  3 22  1  0  0  0  0
  3  9  1  0  0  0  0
  4  5  2  0  0  0  0
  5 16  1  0  0  0  0
  6 18  1  0  0  0  0
  6 13  1  0  0  0  0
  7  2  1  0  0  0  0
  7 17  2  0  0  0  0
  8  1  2  0  0  0  0
  9  6  2  0  0  0  0
 10 15  1  0  0  0  0
 12 22  2  0  0  0  0
 14 10  2  0  0  0  0
 14 19  1  0  0  0  0
 15 21  2  0  0  0  0
 15  2  1  0  0  0  0
 16 10  1  0  0  0  0
 19  7  1  0  0  0  0
 20 19  2  0  0  0  0
 20  8  1  0  0  0  0
 21 12  1  0  0  0  0
 22 23  1  0  0  0  0
 23 18  2  0  0  0  0
 24 28  1  0  0  0  0
 26 29  1  0  0  0  0
 27 24  1  0  0  0  0
 28 25  2  0  0  0  0
 29 30  2  0  0  0  0
 30 25  1  0  0  0  0
 30  5  1  0  0  0  0
 31 24  2  0  0  0  0
 31 29  1  0  0  0  0
M  END
>  <MODEL>
2

>  <REMARK>
 VINA RESULT:     -11.3      1.354      1.657
  Name = 
  1 active torsions:
  status: ('A' for Active; 'I' for Inactive)
    1  A    between atoms: C_9  and  C_22
                            x       y       z     vdW  Elec       q    Type
                         _______ _______ _______ _____ _____    ______ ____

>  <TORSDO>
F 1

$$$$
=
 OpenBabel10262419313D

 31 35  0  0  0  0  0  0  0  0999 V2000
  191.1560  177.2740  141.7560 C   0  0  0  0  0  0  0  0  0  0  0  0
  187.8390  177.8780  143.4330 C   0  0  0  0  0  0  0  0  0  0  0  0
  188.0370  177.6750  144.8330 C   0  0  0  0  0  0  0  0  0  0  0  0
  185.3710  178.9700  138.9050 O   0  0  0  0  0  0  0  0  0  0  0  0
  184.5400  179.0630  139.8490 C   0  0  0  0  0  0  0  0  0  0  0  0
  189.4120  177.1310  146.7680 C   0  0  0  0  0  0  0  0  0  0  0  0
  188.8600  177.7450  142.4430 C   0  0  0  0  0  0  0  0  0  0  0  0
  190.8180  177.5030  140.4230 C   0  0  0  0  0  3  0  0  0  0  0  0
  189.2730  177.3170  145.3940 C   0  0  0  0  0  3  0  0  0  0  0  0
  186.2730  178.4520  141.6320 C   0  0  0  0  0  0  0  0  0  0  0  0
  192.4260  176.9350  142.0840 F   0  0  0  0  0  0  0  0  0  0  0  0
  185.7220  178.1800  145.2450 N   0  0  0  0  0  0  0  0  0  0  0  0
  190.7290  176.7530  147.3430 C   0  0  0  0  0  1  0  0  0  0  0  0
  187.2740  178.3140  140.7260 N   0  0  0  0  0  0  0  0  0  0  0  0
  186.5340  178.2370  142.9950 C   0  0  0  0  0  0  0  0  0  0  0  0
  184.9510  178.8140  141.2010 N   0  0  0  0  0  2  0  0  0  0  0  0
  190.1860  177.3940  142.7530 C   0  0  0  0  0  3  0  0  0  0  0  0
  188.3050  177.3030  147.5940 C   0  0  0  0  0  3  0  0  0  0  0  0
  188.5350  177.9740  141.0820 C   0  0  0  0  0  0  0  0  0  0  0  0
  189.5110  177.8520  140.0880 C   0  0  0  0  0  3  0  0  0  0  0  0
  185.5000  178.3800  143.9250 C   0  0  0  0  0  3  0  0  0  0  0  0
  186.9430  177.8360  145.7200 C   0  0  0  0  0  0  0  0  0  0  0  0
  187.1060  177.6480  147.0580 N   0  0  0  0  0  0  0  0  0  0  0  0
  180.4870  180.1870  138.9960 C   0  0  0  0  0  0  0  0  0  0  0  0
  182.8670  180.5120  138.7190 C   0  0  0  0  0  3  0  0  0  0  0  0
  182.2470  177.6720  140.9690 F   0  0  0  0  0  0  0  0  0  0  0  0
  179.0880  180.5870  138.6910 C   0  0  0  0  0  1  0  0  0  0  0  0
  181.5530  180.8890  138.4310 C   0  0  0  0  0  3  0  0  0  0  0  0
  182.0480  178.7240  140.1380 C   0  0  0  0  0  0  0  0  0  0  0  0
  183.1330  179.4290  139.5710 C   0  0  0  0  0  0  0  0  0  0  0  0
  180.7350  179.1070  139.8470 C   0  0  0  0  0  3  0  0  0  0  0  0
  1 11  1  0  0  0  0
  1 17  1  0  0  0  0
  2  3  2  0  0  0  0
  3  9  1  0  0  0  0
  3 22  1  0  0  0  0
  4  5  2  0  0  0  0
  5 16  1  0  0  0  0
  6 13  1  0  0  0  0
  6 18  1  0  0  0  0
  7 17  2  0  0  0  0
  7  2  1  0  0  0  0
  8  1  2  0  0  0  0
  9  6  2  0  0  0  0
 10 15  1  0  0  0  0
 12 22  2  0  0  0  0
 14 19  1  0  0  0  0
 14 10  2  0  0  0  0
 15  2  1  0  0  0  0
 15 21  2  0  0  0  0
 16 10  1  0  0  0  0
 19  7  1  0  0  0  0
 20  8  1  0  0  0  0
 20 19  2  0  0  0  0
 21 12  1  0  0  0  0
 22 23  1  0  0  0  0
 23 18  2  0  0  0  0
 24 31  1  0  0  0  0
 25 30  2  0  0  0  0
 27 24  1  0  0  0  0
 28 25  1  0  0  0  0
 28 24  2  0  0  0  0
 29 26  1  0  0  0  0
 30  5  1  0  0  0  0
 30 29  1  0  0  0  0
 31 29  2  0  0  0  0
M  END
>  <MODEL>
3

>  <REMARK>
 VINA RESULT:     -11.1      3.214      7.045
  Name = 
  1 active torsions:
  status: ('A' for Active; 'I' for Inactive)
    1  A    between atoms: C_9  and  C_22
                            x       y       z     vdW  Elec       q    Type
                         _______ _______ _______ _____ _____    ______ ____

>  <TORSDO>
F 1

$$$$
=
 OpenBabel10262419313D

 31 35  0  0  0  0  0  0  0  0999 V2000
  186.3450  178.0420  146.9680 C   0  0  0  0  0  0  0  0  0  0  0  0
  187.2520  178.0370  143.3130 C   0  0  0  0  0  0  0  0  0  0  0  0
  188.6560  177.7820  143.2330 C   0  0  0  0  0  0  0  0  0  0  0  0
  182.3160  179.0160  141.7440 O   0  0  0  0  0  0  0  0  0  0  0  0
  183.0520  178.9250  140.7240 C   0  0  0  0  0  0  0  0  0  0  0  0
  190.8340  177.3370  144.2250 C   0  0  0  0  0  0  0  0  0  0  0  0
  186.5130  178.1190  144.5320 C   0  0  0  0  0  0  0  0  0  0  0  0
  184.9760  178.2970  146.8950 C   0  0  0  0  0  3  0  0  0  0  0  0
  189.4700  177.5830  144.3590 C   0  0  0  0  0  3  0  0  0  0  0  0
  185.1610  178.4760  142.1040 C   0  0  0  0  0  0  0  0  0  0  0  0
  186.9400  177.8780  148.1740 F   0  0  0  0  0  0  0  0  0  0  0  0
  188.5520  177.9090  140.8330 N   0  0  0  0  0  0  0  0  0  0  0  0
  191.6810  177.1280  145.4280 C   0  0  0  0  0  1  0  0  0  0  0  0
  184.4990  178.5450  143.2870 N   0  0  0  0  0  0  0  0  0  0  0  0
  186.5430  178.2220  142.0940 C   0  0  0  0  0  0  0  0  0  0  0  0
  184.4550  178.6610  140.8660 N   0  0  0  0  0  2  0  0  0  0  0  0
  187.1020  177.9540  145.7980 C   0  0  0  0  0  3  0  0  0  0  0  0
  191.3960  177.2900  142.9520 C   0  0  0  0  0  3  0  0  0  0  0  0
  185.1200  178.3780  144.4780 C   0  0  0  0  0  0  0  0  0  0  0  0
  184.3660  178.4640  145.6520 C   0  0  0  0  0  3  0  0  0  0  0  0
  187.2210  178.1510  140.8740 C   0  0  0  0  0  3  0  0  0  0  0  0
  189.2790  177.7240  141.9610 C   0  0  0  0  0  0  0  0  0  0  0  0
  190.6140  177.4830  141.8580 N   0  0  0  0  0  0  0  0  0  0  0  0
  181.3600  179.4830  136.8200 C   0  0  0  0  0  0  0  0  0  0  0  0
  181.8990  180.3230  139.0220 C   0  0  0  0  0  3  0  0  0  0  0  0
  183.0300  176.8400  138.7000 F   0  0  0  0  0  0  0  0  0  0  0  0
  180.7710  179.6910  135.4710 C   0  0  0  0  0  1  0  0  0  0  0  0
  181.3450  180.5190  137.7550 C   0  0  0  0  0  3  0  0  0  0  0  0
  182.4870  178.0490  138.4170 C   0  0  0  0  0  0  0  0  0  0  0  0
  182.4760  179.0910  139.3710 C   0  0  0  0  0  0  0  0  0  0  0  0
  181.9310  178.2520  137.1510 C   0  0  0  0  0  3  0  0  0  0  0  0
  1 11  1  0  0  0  0
  2  7  1  0  0  0  0
  3  2  2  0  0  0  0
  3  9  1  0  0  0  0
  5 16  1  0  0  0  0
  5  4  2  0  0  0  0
  6  9  2  0  0  0  0
  6 13  1  0  0  0  0
  7 17  1  0  0  0  0
  8  1  1  0  0  0  0
 10 14  2  0  0  0  0
 12 21  1  0  0  0  0
 12 22  2  0  0  0  0
 14 19  1  0  0  0  0
 15 10  1  0  0  0  0
 15  2  1  0  0  0  0
 16 10  1  0  0  0  0
 17  1  2  0  0  0  0
 18  6  1  0  0  0  0
 19  7  2  0  0  0  0
 19 20  1  0  0  0  0
 20  8  2  0  0  0  0
 21 15  2  0  0  0  0
 22  3  1  0  0  0  0
 23 22  1  0  0  0  0
 23 18  2  0  0  0  0
 24 31  2  0  0  0  0
 24 28  1  0  0  0  0
 25 30  1  0  0  0  0
 27 24  1  0  0  0  0
 28 25  2  0  0  0  0
 29 26  1  0  0  0  0
 29 30  2  0  0  0  0
 30  5  1  0  0  0  0
 31 29  1  0  0  0  0
M  END
>  <MODEL>
4

>  <REMARK>
 VINA RESULT:     -10.8      4.071      6.675
  Name = 
  1 active torsions:
  status: ('A' for Active; 'I' for Inactive)
    1  A    between atoms: C_9  and  C_22
                            x       y       z     vdW  Elec       q    Type
                         _______ _______ _______ _____ _____    ______ ____

>  <TORSDO>
F 1

$$$$
=
 OpenBabel10262419313D

 31 35  0  0  0  0  0  0  0  0999 V2000
  183.9250  179.2440  139.2640 C   0  0  0  0  0  0  0  0  0  0  0  0
  187.4810  178.0330  139.5440 C   0  0  0  0  0  0  0  0  0  0  0  0
  187.9830  177.9050  138.2130 C   0  0  0  0  0  0  0  0  0  0  0  0
  187.3740  177.9040  144.8120 O   0  0  0  0  0  0  0  0  0  0  0  0
  188.5140  177.5310  144.4230 C   0  0  0  0  0  0  0  0  0  0  0  0
  187.7620  178.0550  135.7920 C   0  0  0  0  0  0  0  0  0  0  0  0
  186.1610  178.4690  139.8730 C   0  0  0  0  0  0  0  0  0  0  0  0
  183.5720  179.3220  140.6100 C   0  0  0  0  0  3  0  0  0  0  0  0
  187.2230  178.1970  137.0690 C   0  0  0  0  0  3  0  0  0  0  0  0
  187.9240  177.8080  141.9480 C   0  0  0  0  0  0  0  0  0  0  0  0
  183.0270  179.5780  138.3070 F   0  0  0  0  0  0  0  0  0  0  0  0
  190.1020  177.1600  139.0720 N   0  0  0  0  0  0  0  0  0  0  0  0
  186.9420  178.3700  134.5940 C   0  0  0  0  0  1  0  0  0  0  0  0
  186.6600  178.2270  142.2140 N   0  0  0  0  0  0  0  0  0  0  0  0
  188.3560  177.7030  140.6160 C   0  0  0  0  0  0  0  0  0  0  0  0
  188.8170  177.4720  143.0220 N   0  0  0  0  0  2  0  0  0  0  0  0
  185.2070  178.8220  138.9020 C   0  0  0  0  0  3  0  0  0  0  0  0
  189.0750  177.6150  135.6520 C   0  0  0  0  0  3  0  0  0  0  0  0
  185.7830  178.5540  141.2370 C   0  0  0  0  0  0  0  0  0  0  0  0
  184.4990  178.9780  141.5930 C   0  0  0  0  0  3  0  0  0  0  0  0
  189.6580  177.2720  140.3460 C   0  0  0  0  0  3  0  0  0  0  0  0
  189.3140  177.4610  138.0120 C   0  0  0  0  0  0  0  0  0  0  0  0
  189.8160  177.3300  136.7540 N   0  0  0  0  0  0  0  0  0  0  0  0
  191.5710  176.4110  147.2190 C   0  0  0  0  0  0  0  0  0  0  0  0
  190.8210  176.7690  144.9490 C   0  0  0  0  0  3  0  0  0  0  0  0
  188.0940  177.5140  147.3000 F   0  0  0  0  0  0  0  0  0  0  0  0
  192.6400  176.0220  148.1760 C   0  0  0  0  0  1  0  0  0  0  0  0
  191.8260  176.4030  145.8470 C   0  0  0  0  0  3  0  0  0  0  0  0
  189.3030  177.1560  146.7990 C   0  0  0  0  0  0  0  0  0  0  0  0
  189.5510  177.1500  145.4090 C   0  0  0  0  0  0  0  0  0  0  0  0
  190.3130  176.7870  147.6930 C   0  0  0  0  0  3  0  0  0  0  0  0
  1  8  1  0  0  0  0
  2  7  1  0  0  0  0
  2 15  1  0  0  0  0
  3  2  2  0  0  0  0
  5  4  2  0  0  0  0
  5 30  1  0  0  0  0
  6  9  2  0  0  0  0
  7 19  2  0  0  0  0
  8 20  2  0  0  0  0
  9  3  1  0  0  0  0
 10 14  2  0  0  0  0
 10 16  1  0  0  0  0
 11  1  1  0  0  0  0
 12 21  1  0  0  0  0
 13  6  1  0  0  0  0
 15 10  1  0  0  0  0
 16  5  1  0  0  0  0
 17  1  2  0  0  0  0
 17  7  1  0  0  0  0
 18  6  1  0  0  0  0
 18 23  2  0  0  0  0
 19 20  1  0  0  0  0
 19 14  1  0  0  0  0
 21 15  2  0  0  0  0
 22  3  1  0  0  0  0
 22 12  2  0  0  0  0
 23 22  1  0  0  0  0
 24 31  1  0  0  0  0
 24 27  1  0  0  0  0
 25 30  2  0  0  0  0
 25 28  1  0  0  0  0
 28 24  2  0  0  0  0
 29 26  1  0  0  0  0
 29 31  2  0  0  0  0
 30 29  1  0  0  0  0
M  END
>  <MODEL>
5

>  <REMARK>
 VINA RESULT:     -10.2      3.109      7.795
  Name = 
  1 active torsions:
  status: ('A' for Active; 'I' for Inactive)
    1  A    between atoms: C_9  and  C_22
                            x       y       z     vdW  Elec       q    Type
                         _______ _______ _______ _____ _____    ______ ____

>  <TORSDO>
F 1

$$$$
=
 OpenBabel10262419313D

 31 35  0  0  0  0  0  0  0  0999 V2000
  185.4110  178.2540  146.6410 C   0  0  0  0  0  0  0  0  0  0  0  0
  185.4050  178.3070  142.8750 C   0  0  0  0  0  0  0  0  0  0  0  0
  184.0720  178.6170  142.4650 C   0  0  0  0  0  0  0  0  0  0  0  0
  190.5320  177.1390  142.5170 O   0  0  0  0  0  0  0  0  0  0  0  0
  190.0650  177.2620  141.3530 C   0  0  0  0  0  0  0  0  0  0  0  0
  181.7370  179.1440  142.9140 C   0  0  0  0  0  0  0  0  0  0  0  0
  185.8280  178.1910  144.2340 C   0  0  0  0  0  0  0  0  0  0  0  0
  186.7470  177.9450  146.8930 C   0  0  0  0  0  3  0  0  0  0  0  0
  183.0200  178.8440  143.3670 C   0  0  0  0  0  3  0  0  0  0  0  0
  187.7060  177.7900  142.1940 C   0  0  0  0  0  0  0  0  0  0  0  0
  184.5520  178.4360  147.6720 F   0  0  0  0  0  0  0  0  0  0  0  0
  184.7410  178.4950  140.1580 N   0  0  0  0  0  0  0  0  0  0  0  0
  180.6360  179.3830  143.8840 C   0  0  0  0  0  1  0  0  0  0  0  0
  188.0630  177.6910  143.5000 N   0  0  0  0  0  0  0  0  0  0  0  0
  186.3770  178.0980  141.8580 C   0  0  0  0  0  0  0  0  0  0  0  0
  188.6800  177.5810  141.1590 N   0  0  0  0  0  2  0  0  0  0  0  0
  184.9600  178.3750  145.3250 C   0  0  0  0  0  3  0  0  0  0  0  0
  181.4980  179.2180  141.5450 C   0  0  0  0  0  3  0  0  0  0  0  0
  187.1830  177.8780  144.5110 C   0  0  0  0  0  0  0  0  0  0  0  0
  187.6300  177.7580  145.8300 C   0  0  0  0  0  3  0  0  0  0  0  0
  186.0130  178.2000  140.5120 C   0  0  0  0  0  3  0  0  0  0  0  0
  183.7720  178.7040  141.0830 C   0  0  0  0  0  0  0  0  0  0  0  0
  182.5110  178.9980  140.6670 N   0  0  0  0  0  0  0  0  0  0  0  0
  192.6700  176.7490  137.9810 C   0  0  0  0  0  0  0  0  0  0  0  0
  192.3210  177.2920  140.3110 C   0  0  0  0  0  3  0  0  0  0  0  0
  189.1090  176.4730  138.7230 F   0  0  0  0  0  0  0  0  0  0  0  0
  193.5840  176.5750  136.8220 C   0  0  0  0  0  1  0  0  0  0  0  0
  193.1820  177.1280  139.2220 C   0  0  0  0  0  3  0  0  0  0  0  0
  190.4330  176.6930  138.9130 C   0  0  0  0  0  0  0  0  0  0  0  0
  190.9410  177.0780  140.1740 C   0  0  0  0  0  0  0  0  0  0  0  0
  191.2990  176.5320  137.8270 C   0  0  0  0  0  3  0  0  0  0  0  0
  1  8  1  0  0  0  0
  1 11  1  0  0  0  0
  2  7  1  0  0  0  0
  3  2  2  0  0  0  0
  3  9  1  0  0  0  0
  5  4  2  0  0  0  0
  6  9  2  0  0  0  0
  6 13  1  0  0  0  0
  7 19  2  0  0  0  0
  7 17  1  0  0  0  0
 10 14  2  0  0  0  0
 12 21  1  0  0  0  0
 12 22  2  0  0  0  0
 14 19  1  0  0  0  0
 15 10  1  0  0  0  0
 15  2  1  0  0  0  0
 16  5  1  0  0  0  0
 16 10  1  0  0  0  0
 17  1  2  0  0  0  0
 18  6  1  0  0  0  0
 19 20  1  0  0  0  0
 20  8  2  0  0  0  0
 21 15  2  0  0  0  0
 22  3  1  0  0  0  0
 23 22  1  0  0  0  0
 23 18  2  0  0  0  0
 24 28  1  0  0  0  0
 26 29  1  0  0  0  0
 27 24  1  0  0  0  0
 28 25  2  0  0  0  0
 29 30  2  0  0  0  0
 30 25  1  0  0  0  0
 30  5  1  0  0  0  0
 31 24  2  0  0  0  0
 31 29  1  0  0  0  0
M  END
>  <MODEL>
6

>  <REMARK>
 VINA RESULT:     -10.0      2.322      5.214
  Name = 
  1 active torsions:
  status: ('A' for Active; 'I' for Inactive)
    1  A    between atoms: C_9  and  C_22
                            x       y       z     vdW  Elec       q    Type
                         _______ _______ _______ _____ _____    ______ ____

>  <TORSDO>
F 1

$$$$
=
 OpenBabel10262419313D

 31 35  0  0  0  0  0  0  0  0999 V2000
  185.0610  179.0260  141.4070 C   0  0  0  0  0  0  0  0  0  0  0  0
  188.2910  177.4700  142.5610 C   0  0  0  0  0  0  0  0  0  0  0  0
  188.2750  177.4880  143.9900 C   0  0  0  0  0  0  0  0  0  0  0  0
  190.0140  176.6020  137.6560 O   0  0  0  0  0  0  0  0  0  0  0  0
  190.8840  176.1870  138.4680 C   0  0  0  0  0  0  0  0  0  0  0  0
  187.2450  178.0020  146.1360 C   0  0  0  0  0  0  0  0  0  0  0  0
  187.2420  177.9730  141.7340 C   0  0  0  0  0  0  0  0  0  0  0  0
  185.2140  178.9430  140.0240 C   0  0  0  0  0  3  0  0  0  0  0  0
  187.2110  178.0090  144.7430 C   0  0  0  0  0  3  0  0  0  0  0  0
  189.5100  176.8660  140.5190 C   0  0  0  0  0  0  0  0  0  0  0  0
  183.9400  179.5730  141.9330 F   0  0  0  0  0  0  0  0  0  0  0  0
  190.4400  176.4410  144.0390 N   0  0  0  0  0  0  0  0  0  0  0  0
  186.1100  178.5570  146.9170 C   0  0  0  0  0  1  0  0  0  0  0  0
  188.4890  177.3550  139.7710 N   0  0  0  0  0  0  0  0  0  0  0  0
  189.4320  176.9140  141.9200 C   0  0  0  0  0  0  0  0  0  0  0  0
  190.6680  176.3010  139.8820 N   0  0  0  0  0  2  0  0  0  0  0  0
  186.0660  178.5460  142.2500 C   0  0  0  0  0  3  0  0  0  0  0  0
  188.3540  177.4690  146.7870 C   0  0  0  0  0  3  0  0  0  0  0  0
  187.3780  177.8970  140.3240 C   0  0  0  0  0  0  0  0  0  0  0  0
  186.3690  178.3790  139.4850 C   0  0  0  0  0  3  0  0  0  0  0  0
  190.4870  176.4080  142.6870 C   0  0  0  0  0  3  0  0  0  0  0  0
  189.3790  176.9590  144.7040 C   0  0  0  0  0  0  0  0  0  0  0  0
  189.3870  176.9640  146.0650 N   0  0  0  0  0  0  0  0  0  0  0  0
  194.4740  174.3620  136.9840 C   0  0  0  0  0  0  0  0  0  0  0  0
  192.0620  174.4710  137.1090 C   0  0  0  0  0  3  0  0  0  0  0  0
  193.5420  177.1340  139.1650 F   0  0  0  0  0  0  0  0  0  0  0  0
  195.7090  173.7200  136.4620 C   0  0  0  0  0  1  0  0  0  0  0  0
  193.2220  173.8670  136.6180 C   0  0  0  0  0  3  0  0  0  0  0  0
  193.4100  176.0700  138.3360 C   0  0  0  0  0  0  0  0  0  0  0  0
  192.1380  175.5760  137.9710 C   0  0  0  0  0  0  0  0  0  0  0  0
  194.5670  175.4610  137.8410 C   0  0  0  0  0  3  0  0  0  0  0  0
  1 11  1  0  0  0  0
  1 17  1  0  0  0  0
  2  3  2  0  0  0  0
  3 22  1  0  0  0  0
  3  9  1  0  0  0  0
  4  5  2  0  0  0  0
  5 16  1  0  0  0  0
  6 18  1  0  0  0  0
  6 13  1  0  0  0  0
  7 17  2  0  0  0  0
  7  2  1  0  0  0  0
  8  1  2  0  0  0  0
  9  6  2  0  0  0  0
 10 15  1  0  0  0  0
 12 22  2  0  0  0  0
 14 19  1  0  0  0  0
 14 10  2  0  0  0  0
 15  2  1  0  0  0  0
 15 21  2  0  0  0  0
 16 10  1  0  0  0  0
 19  7  1  0  0  0  0
 20  8  1  0  0  0  0
 20 19  2  0  0  0  0
 21 12  1  0  0  0  0
 22 23  1  0  0  0  0
 23 18  2  0  0  0  0
 24 31  1  0  0  0  0
 25 30  2  0  0  0  0
 27 24  1  0  0  0  0
 28 24  2  0  0  0  0
 28 25  1  0  0  0  0
 29 26  1  0  0  0  0
 30 29  1  0  0  0  0
 30  5  1  0  0  0  0
 31 29  2  0  0  0  0
M  END
>  <MODEL>
7

>  <REMARK>
 VINA RESULT:      -9.5      1.598      2.036
  Name = 
  1 active torsions:
  status: ('A' for Active; 'I' for Inactive)
    1  A    between atoms: C_9  and  C_22
                            x       y       z     vdW  Elec       q    Type
                         _______ _______ _______ _____ _____    ______ ____

>  <TORSDO>
F 1

$$$$
=
 OpenBabel10262419313D

 31 35  0  0  0  0  0  0  0  0999 V2000
  190.9930  177.0210  145.5000 C   0  0  0  0  0  0  0  0  0  0  0  0
  189.0570  177.5940  142.3210 C   0  0  0  0  0  0  0  0  0  0  0  0
  189.9890  177.4950  141.2420 C   0  0  0  0  0  0  0  0  0  0  0  0
  184.4760  178.2700  144.8370 O   0  0  0  0  0  0  0  0  0  0  0  0
  184.2760  178.3910  143.5980 C   0  0  0  0  0  0  0  0  0  0  0  0
  192.2230  177.1430  140.3370 C   0  0  0  0  0  0  0  0  0  0  0  0
  189.3950  177.4380  143.6990 C   0  0  0  0  0  0  0  0  0  0  0  0
  189.9770  177.1450  146.4470 C   0  0  0  0  0  3  0  0  0  0  0  0
  191.3560  177.2310  141.4250 C   0  0  0  0  0  3  0  0  0  0  0  0
  186.7330  177.9770  143.0110 C   0  0  0  0  0  0  0  0  0  0  0  0
  192.2610  176.7590  145.8970 F   0  0  0  0  0  0  0  0  0  0  0  0
  188.2270  177.9280  139.6640 N   0  0  0  0  0  0  0  0  0  0  0  0
  193.6660  176.8620  140.5500 C   0  0  0  0  0  1  0  0  0  0  0  0
  187.1000  177.8210  144.3090 N   0  0  0  0  0  0  0  0  0  0  0  0
  187.6990  177.8670  141.9970 C   0  0  0  0  0  0  0  0  0  0  0  0
  185.3640  178.2530  142.6730 N   0  0  0  0  0  2  0  0  0  0  0  0
  190.7020  177.1660  144.1420 C   0  0  0  0  0  3  0  0  0  0  0  0
  191.7220  177.3230  139.0510 C   0  0  0  0  0  3  0  0  0  0  0  0
  188.3760  177.5600  144.6770 C   0  0  0  0  0  0  0  0  0  0  0  0
  188.6720  177.4130  146.0360 C   0  0  0  0  0  3  0  0  0  0  0  0
  187.3180  178.0280  140.6620 C   0  0  0  0  0  3  0  0  0  0  0  0
  189.5340  177.6700  139.9120 C   0  0  0  0  0  0  0  0  0  0  0  0
  190.4010  177.5800  138.8670 N   0  0  0  0  0  0  0  0  0  0  0  0
  180.3100  179.2300  142.1890 C   0  0  0  0  0  0  0  0  0  0  0  0
  181.8940  178.9740  143.9980 C   0  0  0  0  0  3  0  0  0  0  0  0
  183.5660  178.3780  140.7790 F   0  0  0  0  0  0  0  0  0  0  0  0
  178.9320  179.5230  141.7150 C   0  0  0  0  0  1  0  0  0  0  0  0
  180.5980  179.2500  143.5540 C   0  0  0  0  0  3  0  0  0  0  0  0
  182.6170  178.6600  141.7050 C   0  0  0  0  0  0  0  0  0  0  0  0
  182.9170  178.6770  143.0850 C   0  0  0  0  0  0  0  0  0  0  0  0
  181.3170  178.9360  141.2670 C   0  0  0  0  0  3  0  0  0  0  0  0
  1 11  1  0  0  0  0
  1  8  1  0  0  0  0
  2  7  1  0  0  0  0
  3  9  1  0  0  0  0
  3  2  2  0  0  0  0
  5  4  2  0  0  0  0
  6 13  1  0  0  0  0
  6  9  2  0  0  0  0
  7 17  1  0  0  0  0
  7 19  2  0  0  0  0
 10 14  2  0  0  0  0
 12 22  2  0  0  0  0
 12 21  1  0  0  0  0
 14 19  1  0  0  0  0
 15  2  1  0  0  0  0
 15 10  1  0  0  0  0
 16 10  1  0  0  0  0
 16  5  1  0  0  0  0
 17  1  2  0  0  0  0
 18  6  1  0  0  0  0
 19 20  1  0  0  0  0
 20  8  2  0  0  0  0
 21 15  2  0  0  0  0
 22  3  1  0  0  0  0
 23 18  2  0  0  0  0
 23 22  1  0  0  0  0
 24 28  1  0  0  0  0
 26 29  1  0  0  0  0
 27 24  1  0  0  0  0
 28 25  2  0  0  0  0
 29 30  2  0  0  0  0
 30  5  1  0  0  0  0
 30 25  1  0  0  0  0
 31 29  1  0  0  0  0
 31 24  2  0  0  0  0
M  END
>  <MODEL>
8

>  <REMARK>
 VINA RESULT:      -9.5      3.016      8.184
  Name = 
  1 active torsions:
  status: ('A' for Active; 'I' for Inactive)
    1  A    between atoms: C_9  and  C_22
                            x       y       z     vdW  Elec       q    Type
                         _______ _______ _______ _____ _____    ______ ____

>  <TORSDO>
F 1

$$$$
=
 OpenBabel10262419313D

 31 35  0  0  0  0  0  0  0  0999 V2000
  187.3810  178.5740  136.6360 C   0  0  0  0  0  0  0  0  0  0  0  0
  186.3490  178.2830  140.2460 C   0  0  0  0  0  0  0  0  0  0  0  0
  184.9520  178.5810  140.3050 C   0  0  0  0  0  0  0  0  0  0  0  0
  191.1920  176.9900  141.8740 O   0  0  0  0  0  0  0  0  0  0  0  0
  190.4240  177.0150  142.8750 C   0  0  0  0  0  0  0  0  0  0  0  0
  182.8250  179.1920  139.2900 C   0  0  0  0  0  0  0  0  0  0  0  0
  187.1270  178.2840  139.0490 C   0  0  0  0  0  0  0  0  0  0  0  0
  188.7370  178.2630  136.7290 C   0  0  0  0  0  3  0  0  0  0  0  0
  184.1850  178.9110  139.1770 C   0  0  0  0  0  3  0  0  0  0  0  0
  188.3810  177.6630  141.4760 C   0  0  0  0  0  0  0  0  0  0  0  0
  186.8340  178.8650  135.4320 F   0  0  0  0  0  0  0  0  0  0  0  0
  184.9690  178.2380  142.6860 N   0  0  0  0  0  0  0  0  0  0  0  0
  182.0290  179.5390  138.0840 C   0  0  0  0  0  1  0  0  0  0  0  0
  189.0810  177.6750  140.3130 N   0  0  0  0  0  0  0  0  0  0  0  0
  187.0090  177.9650  141.4660 C   0  0  0  0  0  0  0  0  0  0  0  0
  189.0370  177.3420  142.7130 N   0  0  0  0  0  2  0  0  0  0  0  0
  186.5870  178.5830  137.7850 C   0  0  0  0  0  3  0  0  0  0  0  0
  182.2220  179.1450  140.5430 C   0  0  0  0  0  3  0  0  0  0  0  0
  188.5080  177.9710  139.1230 C   0  0  0  0  0  0  0  0  0  0  0  0
  189.2980  177.9630  137.9700 C   0  0  0  0  0  3  0  0  0  0  0  0
  186.2910  177.9500  142.6650 C   0  0  0  0  0  3  0  0  0  0  0  0
  184.2880  178.5480  141.5570 C   0  0  0  0  0  0  0  0  0  0  0  0
  182.9580  178.8270  141.6390 N   0  0  0  0  0  0  0  0  0  0  0  0
  191.9790  176.0570  146.7590 C   0  0  0  0  0  0  0  0  0  0  0  0
  191.7700  175.5840  144.3970 C   0  0  0  0  0  3  0  0  0  0  0  0
  189.8550  178.6060  145.2400 F   0  0  0  0  0  0  0  0  0  0  0  0
  192.5250  175.7130  148.0980 C   0  0  0  0  0  1  0  0  0  0  0  0
  192.2840  175.2600  145.6550 C   0  0  0  0  0  3  0  0  0  0  0  0
  190.6450  177.5090  145.3480 C   0  0  0  0  0  0  0  0  0  0  0  0
  190.9480  176.7070  144.2250 C   0  0  0  0  0  0  0  0  0  0  0  0
  191.1620  177.1790  146.6050 C   0  0  0  0  0  3  0  0  0  0  0  0
  1  8  2  0  0  0  0
  1 17  1  0  0  0  0
  2  3  2  0  0  0  0
  2 15  1  0  0  0  0
  3 22  1  0  0  0  0
  4  5  2  0  0  0  0
  5 30  1  0  0  0  0
  6 18  1  0  0  0  0
  7 19  1  0  0  0  0
  7  2  1  0  0  0  0
  8 20  1  0  0  0  0
  9  6  2  0  0  0  0
  9  3  1  0  0  0  0
 10 16  1  0  0  0  0
 11  1  1  0  0  0  0
 13  6  1  0  0  0  0
 14 10  2  0  0  0  0
 15 10  1  0  0  0  0
 15 21  2  0  0  0  0
 16  5  1  0  0  0  0
 17  7  2  0  0  0  0
 18 23  2  0  0  0  0
 19 14  1  0  0  0  0
 20 19  2  0  0  0  0
 21 12  1  0  0  0  0
 22 23  1  0  0  0  0
 22 12  2  0  0  0  0
 24 27  1  0  0  0  0
 25 28  1  0  0  0  0
 26 29  1  0  0  0  0
 28 24  2  0  0  0  0
 29 31  2  0  0  0  0
 30 25  2  0  0  0  0
 30 29  1  0  0  0  0
 31 24  1  0  0  0  0
M  END
>  <MODEL>
9

>  <REMARK>
 VINA RESULT:      -9.4      3.110      7.601
  Name = 
  1 active torsions:
  status: ('A' for Active; 'I' for Inactive)
    1  A    between atoms: C_9  and  C_22
                            x       y       z     vdW  Elec       q    Type
                         _______ _______ _______ _____ _____    ______ ____

>  <TORSDO>
F 1

$$$$
