=
 OpenBabel10262423013D

 37 38  0  0  1  0  0  0  0  0999 V2000
  190.4310  177.8070  138.2350 O   0  0  0  0  0  0  0  0  0  0  0  0
  187.1070  174.9080  137.1630 C   0  0  0  0  0  2  0  0  0  0  0  0
  190.9530  176.5650  138.6880 C   0  0  2  0  0  3  0  0  0  0  0  0
  188.4560  175.6210  137.1390 C   0  0  1  0  0  3  0  0  0  0  0  0
  188.3710  176.7830  137.9150 O   0  0  0  0  0  0  0  0  0  0  0  0
  189.5670  174.6890  137.6640 C   0  0  1  0  0  3  0  0  0  0  0  0
  188.2730  172.6980  136.8440 C   0  0  0  0  0  2  0  0  0  0  0  0
  189.3280  177.6440  137.3660 C   0  0  1  0  0  3  0  0  0  0  0  0
  189.6150  173.4210  136.8080 C   0  0  0  0  0  2  0  0  0  0  0  0
  190.9360  175.3940  137.6770 C   0  0  2  0  0  3  0  0  0  0  0  0
  187.1660  173.6220  136.3370 C   0  0  1  0  0  3  0  0  0  0  0  0
  185.8140  172.9120  136.3090 C   0  0  0  0  0  2  0  0  0  0  0  0
  185.0600  173.0440  137.6250 C   0  0  0  0  0  1  0  0  0  0  0  0
  188.6910  178.9940  137.0830 C   0  0  0  0  0  2  0  0  0  0  0  0
  187.3230  178.8050  136.4540 C   0  0  0  0  0  1  0  0  0  0  0  0
  190.3920  176.2080  139.9180 O   0  0  0  0  0  0  0  0  0  0  0  0
  190.4140  177.3830  140.6750 C   0  0  0  0  0  2  0  0  0  0  0  0
  191.6230  177.3840  141.5940 C   0  0  0  0  0  2  0  0  0  0  0  0
  191.3100  176.6360  142.8760 C   0  0  0  0  0  2  0  0  0  0  0  0
  191.5370  177.5320  144.0820 C   0  0  0  0  0  2  0  0  0  0  0  0
  190.7290  177.0580  145.2910 C   0  0  1  0  0  3  0  0  0  0  0  0
  191.5470  176.5490  146.4830 C   0  0  0  0  0  2  0  0  0  0  0  0
  192.3020  175.4410  146.1360 F   0  0  0  0  0  0  0  0  0  0  0  0
  189.6370  177.9060  145.6160 O   0  0  0  0  0  0  0  0  0  0  0  0
  187.2560  177.7760  146.0980 C   0  0  0  0  0  1  0  0  0  0  0  0
  188.0880  177.7910  143.8390 F   0  0  0  0  0  0  0  0  0  0  0  0
  188.3870  177.4300  145.1450 C   0  0  1  0  0  3  0  0  0  0  0  0
  191.9470  174.4780  138.0360 O   0  0  0  0  0  0  0  0  0  0  0  0
  193.0630  174.5610  137.1590 C   0  0  1  0  0  0  0  0  0  0  0  0
  193.4170  173.2050  136.5440 C   0  0  0  0  0  1  0  0  0  0  0  0
  192.8840  175.6400  136.0680 C   0  0  0  0  0  2  0  0  0  0  0  0
  194.1770  176.3130  135.6240 C   0  0  0  0  0  1  0  0  0  0  0  0
  194.2830  174.9570  137.9970 C   0  0  0  0  0  2  0  0  0  0  0  0
  195.1410  173.7720  138.4450 C   0  0  0  0  0  2  0  0  0  0  0  0
  196.5950  174.1740  138.6690 C   0  0  0  0  0  2  0  0  0  0  0  0
  197.6540  174.9010  136.5300 C   0  0  0  0  0  1  0  0  0  0  0  0
  197.4750  173.7510  137.5030 C   0  0  0  0  0  2  0  0  0  0  0  0
  1  3  1  0  0  0  0
  3 16  1  1  0  0  0
  4  2  1  1  0  0  0
  4  6  1  0  0  0  0
  4  5  1  0  0  0  0
  6  9  1  6  0  0  0
  6 10  1  0  0  0  0
  8 14  1  1  0  0  0
  8  5  1  0  0  0  0
  8  1  1  0  0  0  0
  9  7  1  0  0  0  0
 10 28  1  1  0  0  0
 10  3  1  0  0  0  0
 11 12  1  1  0  0  0
 11  7  1  0  0  0  0
 11  2  1  0  0  0  0
 12 13  1  0  0  0  0
 15 14  1  0  0  0  0
 16 17  1  0  0  0  0
 17 18  1  0  0  0  0
 18 19  1  0  0  0  0
 19 20  1  0  0  0  0
 21 20  1  6  0  0  0
 21 24  1  0  0  0  0
 21 22  1  0  0  0  0
 23 22  1  0  0  0  0
 26 27  1  0  0  0  0
 27 24  1  0  0  0  0
 27 25  1  1  0  0  0
 29 30  1  6  0  0  0
 29 33  1  0  0  0  0
 29 28  1  0  0  0  0
 31 29  1  0  0  0  0
 32 31  1  0  0  0  0
 33 34  1  0  0  0  0
 34 35  1  0  0  0  0
 36 37  1  0  0  0  0
 37 35  1  0  0  0  0
M  END
>  <MODEL>
1

>  <REMARK>
 VINA RESULT:      -6.0      0.000      0.000
  Name = 
  18 active torsions:
  status: ('A' for Active; 'I' for Inactive)
    1  A    between atoms: C_1  and  C_5
    2  A    between atoms: C_1  and  C_17
    3  A    between atoms: C_1  and  O_36
    4  A    between atoms: O_2  and  C_6
    5  A    between atoms: O_2  and  C_35
    6  A    between atoms: C_3  and  C_32
    7  A    between atoms: C_6  and  C_8
    8  A    between atoms: C_6  and  C_31
    9  A    between atoms: C_7  and  O_14
   10  A    between atoms: C_7  and  C_27
   11  A    between atoms: C_10  and  O_14
   12  A    between atoms: C_17  and  C_33
   13  A    between atoms: C_22  and  C_24
   14  A    between atoms: C_26  and  C_33
   15  A    between atoms: C_26  and  C_34
   16  A    between atoms: C_27  and  C_37
   17  A    between atoms: C_29  and  O_36
   18  A    between atoms: C_31  and  C_37
                            x       y       z     vdW  Elec       q    Type
                         _______ _______ _______ _____ _____    ______ ____

>  <TORSDO>
F 18

$$$$
=
 OpenBabel10262423013D

 37 38  0  0  1  0  0  0  0  0999 V2000
  184.3180  180.0700  139.3700 O   0  0  0  0  0  0  0  0  0  0  0  0
  181.9020  176.5800  137.7620 C   0  0  0  0  0  2  0  0  0  0  0  0
  185.2050  178.9750  139.5580 C   0  0  2  0  0  3  0  0  0  0  0  0
  182.9840  177.6500  137.8700 C   0  0  1  0  0  3  0  0  0  0  0  0
  182.6230  178.5650  138.8670 O   0  0  0  0  0  0  0  0  0  0  0  0
  184.3490  177.0050  138.1860 C   0  0  1  0  0  3  0  0  0  0  0  0
  183.6280  174.9160  136.9910 C   0  0  0  0  0  2  0  0  0  0  0  0
  183.2520  179.7580  138.4950 C   0  0  1  0  0  3  0  0  0  0  0  0
  184.7010  175.9950  137.0910 C   0  0  0  0  0  2  0  0  0  0  0  0
  185.4560  178.0660  138.3300 C   0  0  2  0  0  3  0  0  0  0  0  0
  182.2720  175.5510  136.6910 C   0  0  1  0  0  3  0  0  0  0  0  0
  181.1820  174.4930  136.5320 C   0  0  0  0  0  2  0  0  0  0  0  0
  180.6330  174.0170  137.8700 C   0  0  0  0  0  1  0  0  0  0  0  0
  182.2360  180.8880  138.4970 C   0  0  0  0  0  2  0  0  0  0  0  0
  180.9930  180.4720  139.2620 C   0  0  0  0  0  1  0  0  0  0  0  0
  184.8550  178.2400  140.6950 O   0  0  0  0  0  0  0  0  0  0  0  0
  185.2830  179.0220  141.7710 C   0  0  0  0  0  2  0  0  0  0  0  0
  186.7230  178.6880  142.1120 C   0  0  0  0  0  2  0  0  0  0  0  0
  186.7800  177.4830  143.0330 C   0  0  0  0  0  2  0  0  0  0  0  0
  186.4020  177.8810  144.4500 C   0  0  0  0  0  2  0  0  0  0  0  0
  187.6290  177.9390  145.3610 C   0  0  1  0  0  3  0  0  0  0  0  0
  187.3790  177.6260  146.8400 C   0  0  0  0  0  2  0  0  0  0  0  0
  188.3380  176.7610  147.3390 F   0  0  0  0  0  0  0  0  0  0  0  0
  188.7880  177.3430  144.7980 O   0  0  0  0  0  0  0  0  0  0  0  0
  191.1750  177.3120  145.2640 C   0  0  0  0  0  1  0  0  0  0  0  0
  190.1910  178.9730  143.8270 F   0  0  0  0  0  0  0  0  0  0  0  0
  189.9530  178.1430  144.9120 C   0  0  1  0  0  3  0  0  0  0  0  0
  186.7090  177.4380  138.4880 O   0  0  0  0  0  0  0  0  0  0  0  0
  187.5950  177.7660  137.4250 C   0  0  1  0  0  0  0  0  0  0  0  0
  188.1960  176.5210  136.7680 C   0  0  0  0  0  1  0  0  0  0  0  0
  186.9470  178.6950  136.3740 C   0  0  0  0  0  2  0  0  0  0  0  0
  186.9630  178.1500  134.9520 C   0  0  0  0  0  1  0  0  0  0  0  0
  188.7840  178.5200  138.0280 C   0  0  0  0  0  2  0  0  0  0  0  0
  189.0080  178.2400  139.5170 C   0  0  0  0  0  2  0  0  0  0  0  0
  189.8900  177.0170  139.7390 C   0  0  0  0  0  2  0  0  0  0  0  0
  191.7490  177.5180  141.3270 C   0  0  0  0  0  1  0  0  0  0  0  0
  190.3600  176.9250  141.1830 C   0  0  0  0  0  2  0  0  0  0  0  0
  1  3  1  0  0  0  0
  3 16  1  1  0  0  0
  4  2  1  1  0  0  0
  4  6  1  0  0  0  0
  4  5  1  0  0  0  0
  6  9  1  6  0  0  0
  6 10  1  0  0  0  0
  7  9  1  0  0  0  0
  8 14  1  1  0  0  0
  8  5  1  0  0  0  0
  8  1  1  0  0  0  0
 10 28  1  1  0  0  0
 10  3  1  0  0  0  0
 11 12  1  1  0  0  0
 11  7  1  0  0  0  0
 11  2  1  0  0  0  0
 12 13  1  0  0  0  0
 14 15  1  0  0  0  0
 16 17  1  0  0  0  0
 17 18  1  0  0  0  0
 18 19  1  0  0  0  0
 19 20  1  0  0  0  0
 21 20  1  6  0  0  0
 21 22  1  0  0  0  0
 22 23  1  0  0  0  0
 24 27  1  0  0  0  0
 24 21  1  0  0  0  0
 26 27  1  0  0  0  0
 27 25  1  6  0  0  0
 29 30  1  6  0  0  0
 29 33  1  0  0  0  0
 29 28  1  0  0  0  0
 31 29  1  0  0  0  0
 32 31  1  0  0  0  0
 33 34  1  0  0  0  0
 34 35  1  0  0  0  0
 35 37  1  0  0  0  0
 37 36  1  0  0  0  0
M  END
>  <MODEL>
2

>  <REMARK>
 VINA RESULT:      -5.9      3.775      5.814
  Name = 
  18 active torsions:
  status: ('A' for Active; 'I' for Inactive)
    1  A    between atoms: C_1  and  C_5
    2  A    between atoms: C_1  and  C_17
    3  A    between atoms: C_1  and  O_36
    4  A    between atoms: O_2  and  C_6
    5  A    between atoms: O_2  and  C_35
    6  A    between atoms: C_3  and  C_32
    7  A    between atoms: C_6  and  C_8
    8  A    between atoms: C_6  and  C_31
    9  A    between atoms: C_7  and  O_14
   10  A    between atoms: C_7  and  C_27
   11  A    between atoms: C_10  and  O_14
   12  A    between atoms: C_17  and  C_33
   13  A    between atoms: C_22  and  C_24
   14  A    between atoms: C_26  and  C_33
   15  A    between atoms: C_26  and  C_34
   16  A    between atoms: C_27  and  C_37
   17  A    between atoms: C_29  and  O_36
   18  A    between atoms: C_31  and  C_37
                            x       y       z     vdW  Elec       q    Type
                         _______ _______ _______ _____ _____    ______ ____

>  <TORSDO>
F 18

$$$$
=
 OpenBabel10262423013D

 37 38  0  0  1  0  0  0  0  0999 V2000
  184.3770  180.1580  139.3710 O   0  0  0  0  0  0  0  0  0  0  0  0
  181.6040  176.9040  137.8490 C   0  0  0  0  0  2  0  0  0  0  0  0
  185.1840  178.9940  139.4860 C   0  0  2  0  0  3  0  0  0  0  0  0
  182.7720  177.8830  137.9120 C   0  0  1  0  0  3  0  0  0  0  0  0
  182.5420  178.8010  138.9440 O   0  0  0  0  0  0  0  0  0  0  0  0
  184.0970  177.1270  138.1340 C   0  0  1  0  0  3  0  0  0  0  0  0
  183.1460  175.1280  136.9470 C   0  0  0  0  0  2  0  0  0  0  0  0
  183.2410  179.9500  138.5560 C   0  0  1  0  0  3  0  0  0  0  0  0
  184.3040  176.1180  137.0020 C   0  0  0  0  0  2  0  0  0  0  0  0
  185.2910  178.0960  138.2300 C   0  0  2  0  0  3  0  0  0  0  0  0
  181.8280  175.8730  136.7400 C   0  0  1  0  0  3  0  0  0  0  0  0
  180.6510  174.9070  136.6280 C   0  0  0  0  0  2  0  0  0  0  0  0
  180.4280  174.1090  137.9060 C   0  0  0  0  0  1  0  0  0  0  0  0
  182.3200  181.1540  138.6390 C   0  0  0  0  0  2  0  0  0  0  0  0
  180.9460  180.7300  139.1240 C   0  0  0  0  0  1  0  0  0  0  0  0
  184.8440  178.2630  140.6290 O   0  0  0  0  0  0  0  0  0  0  0  0
  185.5760  178.8540  141.6610 C   0  0  0  0  0  2  0  0  0  0  0  0
  185.1460  178.2770  142.9970 C   0  0  0  0  0  2  0  0  0  0  0  0
  186.3350  177.6670  143.7150 C   0  0  0  0  0  2  0  0  0  0  0  0
  186.2800  177.9850  145.1990 C   0  0  0  0  0  2  0  0  0  0  0  0
  187.6750  177.9640  145.8280 C   0  0  1  0  0  3  0  0  0  0  0  0
  187.7440  177.4910  147.2840 C   0  0  0  0  0  2  0  0  0  0  0  0
  187.7920  178.5650  148.1580 F   0  0  0  0  0  0  0  0  0  0  0  0
  188.6800  177.4470  144.9700 O   0  0  0  0  0  0  0  0  0  0  0  0
  191.0560  177.2010  145.4330 C   0  0  0  0  0  1  0  0  0  0  0  0
  190.2290  178.9130  143.9570 F   0  0  0  0  0  0  0  0  0  0  0  0
  189.9170  178.1350  145.0630 C   0  0  1  0  0  3  0  0  0  0  0  0
  186.4970  177.3690  138.3010 O   0  0  0  0  0  0  0  0  0  0  0  0
  187.4900  177.9180  137.4430 C   0  0  1  0  0  0  0  0  0  0  0  0
  186.8940  178.8750  136.4080 C   0  0  0  0  0  1  0  0  0  0  0  0
  188.6460  178.5850  138.2210 C   0  0  0  0  0  2  0  0  0  0  0  0
  188.7610  178.1530  139.6780 C   0  0  0  0  0  1  0  0  0  0  0  0
  188.0900  176.7660  136.6320 C   0  0  0  0  0  2  0  0  0  0  0  0
  187.7550  175.3770  137.1800 C   0  0  0  0  0  2  0  0  0  0  0  0
  187.5130  174.3680  136.0640 C   0  0  0  0  0  2  0  0  0  0  0  0
  186.1080  172.9440  137.5560 C   0  0  0  0  0  1  0  0  0  0  0  0
  187.2990  172.9660  136.6170 C   0  0  0  0  0  2  0  0  0  0  0  0
  1  3  1  0  0  0  0
  3 16  1  1  0  0  0
  4  2  1  1  0  0  0
  4  6  1  0  0  0  0
  4  5  1  0  0  0  0
  6  9  1  6  0  0  0
  6 10  1  0  0  0  0
  7  9  1  0  0  0  0
  8 14  1  1  0  0  0
  8  5  1  0  0  0  0
  8  1  1  0  0  0  0
 10 28  1  1  0  0  0
 10  3  1  0  0  0  0
 11 12  1  1  0  0  0
 11  7  1  0  0  0  0
 11  2  1  0  0  0  0
 12 13  1  0  0  0  0
 14 15  1  0  0  0  0
 16 17  1  0  0  0  0
 17 18  1  0  0  0  0
 18 19  1  0  0  0  0
 19 20  1  0  0  0  0
 21 20  1  6  0  0  0
 21 22  1  0  0  0  0
 22 23  1  0  0  0  0
 24 27  1  0  0  0  0
 24 21  1  0  0  0  0
 26 27  1  0  0  0  0
 27 25  1  6  0  0  0
 29 30  1  6  0  0  0
 29 31  1  0  0  0  0
 29 28  1  0  0  0  0
 31 32  1  0  0  0  0
 33 34  1  0  0  0  0
 33 29  1  0  0  0  0
 35 37  1  0  0  0  0
 35 34  1  0  0  0  0
 37 36  1  0  0  0  0
M  END
>  <MODEL>
3

>  <REMARK>
 VINA RESULT:      -5.7      4.265      6.340
  Name = 
  18 active torsions:
  status: ('A' for Active; 'I' for Inactive)
    1  A    between atoms: C_1  and  C_5
    2  A    between atoms: C_1  and  C_17
    3  A    between atoms: C_1  and  O_36
    4  A    between atoms: O_2  and  C_6
    5  A    between atoms: O_2  and  C_35
    6  A    between atoms: C_3  and  C_32
    7  A    between atoms: C_6  and  C_8
    8  A    between atoms: C_6  and  C_31
    9  A    between atoms: C_7  and  O_14
   10  A    between atoms: C_7  and  C_27
   11  A    between atoms: C_10  and  O_14
   12  A    between atoms: C_17  and  C_33
   13  A    between atoms: C_22  and  C_24
   14  A    between atoms: C_26  and  C_33
   15  A    between atoms: C_26  and  C_34
   16  A    between atoms: C_27  and  C_37
   17  A    between atoms: C_29  and  O_36
   18  A    between atoms: C_31  and  C_37
                            x       y       z     vdW  Elec       q    Type
                         _______ _______ _______ _____ _____    ______ ____

>  <TORSDO>
F 18

$$$$
=
 OpenBabel10262423013D

 37 38  0  0  1  0  0  0  0  0999 V2000
  184.1510  180.1910  139.1350 O   0  0  0  0  0  0  0  0  0  0  0  0
  180.8010  177.1400  138.8800 C   0  0  0  0  0  2  0  0  0  0  0  0
  184.8350  178.9690  139.3760 C   0  0  2  0  0  3  0  0  0  0  0  0
  182.0570  177.9280  138.5210 C   0  0  1  0  0  3  0  0  0  0  0  0
  182.1330  179.0610  139.3410 O   0  0  0  0  0  0  0  0  0  0  0  0
  183.3110  177.0460  138.6850 C   0  0  1  0  0  3  0  0  0  0  0  0
  181.9380  175.0090  138.1620 C   0  0  0  0  0  2  0  0  0  0  0  0
  182.8620  179.9900  138.5900 C   0  0  1  0  0  3  0  0  0  0  0  0
  183.1840  175.8080  137.7950 C   0  0  0  0  0  2  0  0  0  0  0  0
  184.5980  177.8270  138.3570 C   0  0  2  0  0  3  0  0  0  0  0  0
  180.6930  175.8830  138.0130 C   0  0  1  0  0  3  0  0  0  0  0  0
  179.4190  175.0980  138.3220 C   0  0  0  0  0  2  0  0  0  0  0  0
  179.5950  173.5990  138.1210 C   0  0  0  0  0  1  0  0  0  0  0  0
  182.1090  181.3090  138.5490 C   0  0  0  0  0  2  0  0  0  0  0  0
  181.0740  181.2870  137.4390 C   0  0  0  0  0  1  0  0  0  0  0  0
  184.6480  178.5450  140.6950 O   0  0  0  0  0  0  0  0  0  0  0  0
  185.7160  179.1020  141.4030 C   0  0  0  0  0  2  0  0  0  0  0  0
  186.1730  178.1440  142.4890 C   0  0  0  0  0  2  0  0  0  0  0  0
  187.6570  177.8610  142.3510 C   0  0  0  0  0  2  0  0  0  0  0  0
  188.0410  176.6360  143.1640 C   0  0  0  0  0  2  0  0  0  0  0  0
  189.1370  176.9610  144.1810 C   0  0  1  0  0  3  0  0  0  0  0  0
  190.5760  176.8770  143.6620 C   0  0  0  0  0  2  0  0  0  0  0  0
  191.2820  175.8680  144.2970 F   0  0  0  0  0  0  0  0  0  0  0  0
  188.8450  178.0860  144.9950 O   0  0  0  0  0  0  0  0  0  0  0  0
  186.9820  177.7370  146.5200 C   0  0  0  0  0  1  0  0  0  0  0  0
  189.0770  176.5890  146.8040 F   0  0  0  0  0  0  0  0  0  0  0  0
  188.4880  177.7500  146.3260 C   0  0  1  0  0  3  0  0  0  0  0  0
  185.7100  176.9610  138.3900 O   0  0  0  0  0  0  0  0  0  0  0  0
  186.4960  177.0740  137.2100 C   0  0  1  0  0  0  0  0  0  0  0  0
  187.1260  175.7390  136.8060 C   0  0  0  0  0  1  0  0  0  0  0  0
  185.7170  177.7040  136.0340 C   0  0  0  0  0  2  0  0  0  0  0  0
  186.5330  177.8910  134.7620 C   0  0  0  0  0  1  0  0  0  0  0  0
  187.6740  178.0000  137.5250 C   0  0  0  0  0  2  0  0  0  0  0  0
  188.2660  177.8020  138.9240 C   0  0  0  0  0  2  0  0  0  0  0  0
  189.7820  177.9620  138.9280 C   0  0  0  0  0  2  0  0  0  0  0  0
  190.6810  175.7620  138.1680 C   0  0  0  0  0  1  0  0  0  0  0  0
  190.4750  176.6780  139.3600 C   0  0  0  0  0  2  0  0  0  0  0  0
  1  3  1  0  0  0  0
  3 16  1  1  0  0  0
  4  6  1  0  0  0  0
  4  2  1  1  0  0  0
  4  5  1  0  0  0  0
  6  9  1  6  0  0  0
  8 14  1  1  0  0  0
  8  1  1  0  0  0  0
  8  5  1  0  0  0  0
  9  7  1  0  0  0  0
 10 28  1  1  0  0  0
 10  6  1  0  0  0  0
 10  3  1  0  0  0  0
 11  7  1  0  0  0  0
 11 12  1  1  0  0  0
 11  2  1  0  0  0  0
 13 12  1  0  0  0  0
 15 14  1  0  0  0  0
 16 17  1  0  0  0  0
 17 18  1  0  0  0  0
 19 18  1  0  0  0  0
 19 20  1  0  0  0  0
 21 20  1  6  0  0  0
 21 24  1  0  0  0  0
 22 21  1  0  0  0  0
 22 23  1  0  0  0  0
 24 27  1  0  0  0  0
 27 25  1  6  0  0  0
 27 26  1  0  0  0  0
 29 30  1  6  0  0  0
 29 33  1  0  0  0  0
 29 28  1  0  0  0  0
 31 29  1  0  0  0  0
 32 31  1  0  0  0  0
 33 34  1  0  0  0  0
 34 35  1  0  0  0  0
 35 37  1  0  0  0  0
 36 37  1  0  0  0  0
M  END
>  <MODEL>
4

>  <REMARK>
 VINA RESULT:      -5.7      3.850      6.151
  Name = 
  18 active torsions:
  status: ('A' for Active; 'I' for Inactive)
    1  A    between atoms: C_1  and  C_5
    2  A    between atoms: C_1  and  C_17
    3  A    between atoms: C_1  and  O_36
    4  A    between atoms: O_2  and  C_6
    5  A    between atoms: O_2  and  C_35
    6  A    between atoms: C_3  and  C_32
    7  A    between atoms: C_6  and  C_8
    8  A    between atoms: C_6  and  C_31
    9  A    between atoms: C_7  and  O_14
   10  A    between atoms: C_7  and  C_27
   11  A    between atoms: C_10  and  O_14
   12  A    between atoms: C_17  and  C_33
   13  A    between atoms: C_22  and  C_24
   14  A    between atoms: C_26  and  C_33
   15  A    between atoms: C_26  and  C_34
   16  A    between atoms: C_27  and  C_37
   17  A    between atoms: C_29  and  O_36
   18  A    between atoms: C_31  and  C_37
                            x       y       z     vdW  Elec       q    Type
                         _______ _______ _______ _____ _____    ______ ____

>  <TORSDO>
F 18

$$$$
=
 OpenBabel10262423013D

 37 38  0  0  1  0  0  0  0  0999 V2000
  184.2610  180.1360  139.5350 O   0  0  0  0  0  0  0  0  0  0  0  0
  181.5600  176.9530  137.7520 C   0  0  0  0  0  2  0  0  0  0  0  0
  185.0290  178.9520  139.7110 C   0  0  2  0  0  3  0  0  0  0  0  0
  182.7390  177.9060  137.9230 C   0  0  1  0  0  3  0  0  0  0  0  0
  182.4410  178.8230  138.9390 O   0  0  0  0  0  0  0  0  0  0  0  0
  184.0230  177.1180  138.2550 C   0  0  1  0  0  3  0  0  0  0  0  0
  183.1350  175.1480  136.9750 C   0  0  0  0  0  2  0  0  0  0  0  0
  183.1960  179.9570  138.6220 C   0  0  1  0  0  3  0  0  0  0  0  0
  184.3060  176.1110  137.1380 C   0  0  0  0  0  2  0  0  0  0  0  0
  185.2250  178.0590  138.4620 C   0  0  2  0  0  3  0  0  0  0  0  0
  181.8580  175.9240  136.6590 C   0  0  1  0  0  3  0  0  0  0  0  0
  180.6740  174.9850  136.4370 C   0  0  0  0  0  2  0  0  0  0  0  0
  181.0430  173.7700  135.5960 C   0  0  0  0  0  1  0  0  0  0  0  0
  182.2980  181.1820  138.6330 C   0  0  0  0  0  2  0  0  0  0  0  0
  181.2040  181.0390  137.5910 C   0  0  0  0  0  1  0  0  0  0  0  0
  184.5740  178.2240  140.8140 O   0  0  0  0  0  0  0  0  0  0  0  0
  184.8820  179.0200  141.9200 C   0  0  0  0  0  2  0  0  0  0  0  0
  183.8340  178.8320  143.0010 C   0  0  0  0  0  2  0  0  0  0  0  0
  184.4990  178.6140  144.3470 C   0  0  0  0  0  2  0  0  0  0  0  0
  185.9260  178.1260  144.1610 C   0  0  0  0  0  2  0  0  0  0  0  0
  186.7180  178.2020  145.4670 C   0  0  1  0  0  3  0  0  0  0  0  0
  185.8840  178.2600  146.7520 C   0  0  0  0  0  2  0  0  0  0  0  0
  185.9120  179.5260  147.3120 F   0  0  0  0  0  0  0  0  0  0  0  0
  187.8410  177.3340  145.5060 O   0  0  0  0  0  0  0  0  0  0  0  0
  189.9600  177.5890  144.3390 C   0  0  0  0  0  1  0  0  0  0  0  0
  188.3310  175.9560  143.6530 F   0  0  0  0  0  0  0  0  0  0  0  0
  188.4960  177.1940  144.2560 C   0  0  1  0  0  3  0  0  0  0  0  0
  186.4040  177.3050  138.6330 O   0  0  0  0  0  0  0  0  0  0  0  0
  187.4590  177.7890  137.8100 C   0  0  1  0  0  0  0  0  0  0  0  0
  186.9410  178.6440  136.6510 C   0  0  0  0  0  1  0  0  0  0  0  0
  188.5450  178.5370  138.6140 C   0  0  0  0  0  2  0  0  0  0  0  0
  188.8440  177.9390  139.9830 C   0  0  0  0  0  1  0  0  0  0  0  0
  188.1280  176.5790  137.1540 C   0  0  0  0  0  2  0  0  0  0  0  0
  189.0260  176.9320  135.9650 C   0  0  0  0  0  2  0  0  0  0  0  0
  190.4690  176.4960  136.1930 C   0  0  0  0  0  2  0  0  0  0  0  0
  191.8270  176.0860  138.2460 C   0  0  0  0  0  1  0  0  0  0  0  0
  190.6050  175.6580  137.4550 C   0  0  0  0  0  2  0  0  0  0  0  0
  1  3  1  0  0  0  0
  3 16  1  1  0  0  0
  4  2  1  1  0  0  0
  4  6  1  0  0  0  0
  4  5  1  0  0  0  0
  6  9  1  6  0  0  0
  6 10  1  0  0  0  0
  7  9  1  0  0  0  0
  8 14  1  1  0  0  0
  8  5  1  0  0  0  0
  8  1  1  0  0  0  0
 10 28  1  1  0  0  0
 10  3  1  0  0  0  0
 11 12  1  1  0  0  0
 11  7  1  0  0  0  0
 11  2  1  0  0  0  0
 13 12  1  0  0  0  0
 15 14  1  0  0  0  0
 16 17  1  0  0  0  0
 17 18  1  0  0  0  0
 18 19  1  0  0  0  0
 20 19  1  0  0  0  0
 21 20  1  6  0  0  0
 21 24  1  0  0  0  0
 21 22  1  0  0  0  0
 22 23  1  0  0  0  0
 26 27  1  0  0  0  0
 27 25  1  1  0  0  0
 27 24  1  0  0  0  0
 29 30  1  6  0  0  0
 29 31  1  0  0  0  0
 29 28  1  0  0  0  0
 31 32  1  0  0  0  0
 33 29  1  0  0  0  0
 34 35  1  0  0  0  0
 34 33  1  0  0  0  0
 35 37  1  0  0  0  0
 37 36  1  0  0  0  0
M  END
>  <MODEL>
5

>  <REMARK>
 VINA RESULT:      -5.7      3.647      6.129
  Name = 
  18 active torsions:
  status: ('A' for Active; 'I' for Inactive)
    1  A    between atoms: C_1  and  C_5
    2  A    between atoms: C_1  and  C_17
    3  A    between atoms: C_1  and  O_36
    4  A    between atoms: O_2  and  C_6
    5  A    between atoms: O_2  and  C_35
    6  A    between atoms: C_3  and  C_32
    7  A    between atoms: C_6  and  C_8
    8  A    between atoms: C_6  and  C_31
    9  A    between atoms: C_7  and  O_14
   10  A    between atoms: C_7  and  C_27
   11  A    between atoms: C_10  and  O_14
   12  A    between atoms: C_17  and  C_33
   13  A    between atoms: C_22  and  C_24
   14  A    between atoms: C_26  and  C_33
   15  A    between atoms: C_26  and  C_34
   16  A    between atoms: C_27  and  C_37
   17  A    between atoms: C_29  and  O_36
   18  A    between atoms: C_31  and  C_37
                            x       y       z     vdW  Elec       q    Type
                         _______ _______ _______ _____ _____    ______ ____

>  <TORSDO>
F 18

$$$$
=
 OpenBabel10262423013D

 37 38  0  0  1  0  0  0  0  0999 V2000
  184.4390  180.0510  139.2050 O   0  0  0  0  0  0  0  0  0  0  0  0
  181.9530  176.4730  137.9300 C   0  0  0  0  0  2  0  0  0  0  0  0
  185.3720  178.9830  139.3010 C   0  0  2  0  0  3  0  0  0  0  0  0
  183.0100  177.5730  137.8990 C   0  0  1  0  0  3  0  0  0  0  0  0
  182.7400  178.4930  138.9200 O   0  0  0  0  0  0  0  0  0  0  0  0
  184.4200  176.9700  138.0620 C   0  0  1  0  0  3  0  0  0  0  0  0
  183.6250  174.8450  136.9830 C   0  0  0  0  0  2  0  0  0  0  0  0
  183.2880  179.6970  138.4640 C   0  0  1  0  0  3  0  0  0  0  0  0
  184.6710  175.9540  136.9450 C   0  0  0  0  0  2  0  0  0  0  0  0
  185.5050  178.0630  138.0630 C   0  0  2  0  0  3  0  0  0  0  0  0
  182.2260  175.4390  136.8360 C   0  0  1  0  0  3  0  0  0  0  0  0
  181.1550  174.3490  136.8170 C   0  0  0  0  0  2  0  0  0  0  0  0
  180.1950  174.4560  137.9940 C   0  0  0  0  0  1  0  0  0  0  0  0
  182.2470  180.7980  138.5710 C   0  0  0  0  0  2  0  0  0  0  0  0
  180.9040  180.2130  138.9670 C   0  0  0  0  0  1  0  0  0  0  0  0
  185.1780  178.2560  140.4790 O   0  0  0  0  0  0  0  0  0  0  0  0
  185.7570  179.0390  141.4810 C   0  0  0  0  0  2  0  0  0  0  0  0
  187.0720  178.4240  141.9230 C   0  0  0  0  0  2  0  0  0  0  0  0
  186.8750  177.6160  143.1920 C   0  0  0  0  0  2  0  0  0  0  0  0
  185.8040  178.2500  144.0640 C   0  0  0  0  0  2  0  0  0  0  0  0
  186.2110  178.2490  145.5390 C   0  0  1  0  0  3  0  0  0  0  0  0
  185.0780  178.4780  146.5450 C   0  0  0  0  0  2  0  0  0  0  0  0
  183.8550  178.5890  145.9050 F   0  0  0  0  0  0  0  0  0  0  0  0
  187.1300  177.2210  145.8770 O   0  0  0  0  0  0  0  0  0  0  0  0
  188.4880  177.3790  147.8900 C   0  0  0  0  0  1  0  0  0  0  0  0
  189.4810  177.3300  145.6980 F   0  0  0  0  0  0  0  0  0  0  0  0
  188.3520  177.7030  146.4120 C   0  0  1  0  0  3  0  0  0  0  0  0
  186.7850  177.4720  138.0810 O   0  0  0  0  0  0  0  0  0  0  0  0
  187.5990  177.9530  137.0180 C   0  0  1  0  0  0  0  0  0  0  0  0
  186.7810  178.6880  135.9520 C   0  0  0  0  0  1  0  0  0  0  0  0
  188.7760  178.8210  137.5170 C   0  0  0  0  0  2  0  0  0  0  0  0
  189.1430  178.6100  138.9800 C   0  0  0  0  0  1  0  0  0  0  0  0
  188.1970  176.7380  136.3050 C   0  0  0  0  0  2  0  0  0  0  0  0
  188.6300  175.6120  137.2480 C   0  0  0  0  0  2  0  0  0  0  0  0
  189.7830  174.7980  136.6720 C   0  0  0  0  0  2  0  0  0  0  0  0
  191.6300  176.3040  137.4130 C   0  0  0  0  0  1  0  0  0  0  0  0
  191.0310  174.9150  137.5340 C   0  0  0  0  0  2  0  0  0  0  0  0
  1  3  1  0  0  0  0
  3 16  1  1  0  0  0
  4  2  1  1  0  0  0
  4  6  1  0  0  0  0
  4  5  1  0  0  0  0
  6  9  1  6  0  0  0
  6 10  1  0  0  0  0
  8 14  1  1  0  0  0
  8  5  1  0  0  0  0
  8  1  1  0  0  0  0
  9  7  1  0  0  0  0
 10 28  1  1  0  0  0
 10  3  1  0  0  0  0
 11 12  1  1  0  0  0
 11  7  1  0  0  0  0
 11  2  1  0  0  0  0
 12 13  1  0  0  0  0
 14 15  1  0  0  0  0
 16 17  1  0  0  0  0
 17 18  1  0  0  0  0
 18 19  1  0  0  0  0
 19 20  1  0  0  0  0
 21 20  1  6  0  0  0
 21 24  1  0  0  0  0
 21 22  1  0  0  0  0
 23 22  1  0  0  0  0
 24 27  1  0  0  0  0
 26 27  1  0  0  0  0
 27 25  1  1  0  0  0
 29 30  1  6  0  0  0
 29 31  1  0  0  0  0
 29 28  1  0  0  0  0
 31 32  1  0  0  0  0
 33 29  1  0  0  0  0
 33 34  1  0  0  0  0
 35 34  1  0  0  0  0
 35 37  1  0  0  0  0
 36 37  1  0  0  0  0
M  END
>  <MODEL>
6

>  <REMARK>
 VINA RESULT:      -5.6      3.458      5.850
  Name = 
  18 active torsions:
  status: ('A' for Active; 'I' for Inactive)
    1  A    between atoms: C_1  and  C_5
    2  A    between atoms: C_1  and  C_17
    3  A    between atoms: C_1  and  O_36
    4  A    between atoms: O_2  and  C_6
    5  A    between atoms: O_2  and  C_35
    6  A    between atoms: C_3  and  C_32
    7  A    between atoms: C_6  and  C_8
    8  A    between atoms: C_6  and  C_31
    9  A    between atoms: C_7  and  O_14
   10  A    between atoms: C_7  and  C_27
   11  A    between atoms: C_10  and  O_14
   12  A    between atoms: C_17  and  C_33
   13  A    between atoms: C_22  and  C_24
   14  A    between atoms: C_26  and  C_33
   15  A    between atoms: C_26  and  C_34
   16  A    between atoms: C_27  and  C_37
   17  A    between atoms: C_29  and  O_36
   18  A    between atoms: C_31  and  C_37
                            x       y       z     vdW  Elec       q    Type
                         _______ _______ _______ _____ _____    ______ ____

>  <TORSDO>
F 18

$$$$
=
 OpenBabel10262423013D

 37 38  0  0  1  0  0  0  0  0999 V2000
  190.9900  175.8480  137.0040 O   0  0  0  0  0  0  0  0  0  0  0  0
  190.6960  176.8130  141.4290 C   0  0  0  0  0  2  0  0  0  0  0  0
  189.5960  175.7150  137.2520 C   0  0  2  0  0  3  0  0  0  0  0  0
  190.5510  176.9470  139.9170 C   0  0  1  0  0  3  0  0  0  0  0  0
  191.3480  175.9780  139.2950 O   0  0  0  0  0  0  0  0  0  0  0  0
  189.0740  176.7930  139.5010 C   0  0  1  0  0  3  0  0  0  0  0  0
  188.3600  177.7080  141.7290 C   0  0  0  0  0  2  0  0  0  0  0  0
  191.6610  176.5280  138.0460 C   0  0  1  0  0  3  0  0  0  0  0  0
  188.2300  177.8510  140.2160 C   0  0  0  0  0  2  0  0  0  0  0  0
  188.9030  176.8960  137.9730 C   0  0  2  0  0  3  0  0  0  0  0  0
  189.8240  177.8480  142.1440 C   0  0  1  0  0  3  0  0  0  0  0  0
  189.9850  177.7630  143.6610 C   0  0  0  0  0  2  0  0  0  0  0  0
  188.6990  177.3430  144.3610 C   0  0  0  0  0  1  0  0  0  0  0  0
  193.1620  176.4570  137.8240 C   0  0  0  0  0  2  0  0  0  0  0  0
  193.4670  175.7180  136.5350 C   0  0  0  0  0  1  0  0  0  0  0  0
  189.3140  174.4870  137.8580 O   0  0  0  0  0  0  0  0  0  0  0  0
  189.2460  173.5750  136.8020 C   0  0  0  0  0  2  0  0  0  0  0  0
  188.3060  172.4380  137.1590 C   0  0  0  0  0  2  0  0  0  0  0  0
  186.9350  172.6790  136.5550 C   0  0  0  0  0  2  0  0  0  0  0  0
  186.0030  173.2950  137.5840 C   0  0  0  0  0  2  0  0  0  0  0  0
  184.5430  172.9340  137.3030 C   0  0  1  0  0  3  0  0  0  0  0  0
  183.6410  174.0930  136.8650 C   0  0  0  0  0  2  0  0  0  0  0  0
  182.9040  174.5850  137.9300 F   0  0  0  0  0  0  0  0  0  0  0  0
  184.3830  171.7270  136.5730 O   0  0  0  0  0  0  0  0  0  0  0  0
  182.8930  170.1540  135.4660 C   0  0  0  0  0  1  0  0  0  0  0  0
  182.3550  171.1070  137.6100 F   0  0  0  0  0  0  0  0  0  0  0  0
  183.0310  171.3290  136.4190 C   0  0  1  0  0  3  0  0  0  0  0  0
  187.5330  176.8810  137.6390 O   0  0  0  0  0  0  0  0  0  0  0  0
  187.1910  177.9680  136.7870 C   0  0  1  0  0  0  0  0  0  0  0  0
  188.2340  179.0880  136.8330 C   0  0  0  0  0  1  0  0  0  0  0  0
  186.9150  177.5200  135.3350 C   0  0  0  0  0  2  0  0  0  0  0  0
  186.5450  176.0500  135.1840 C   0  0  0  0  0  1  0  0  0  0  0  0
  185.9010  178.5920  137.3260 C   0  0  0  0  0  2  0  0  0  0  0  0
  184.9440  177.5850  137.9700 C   0  0  0  0  0  2  0  0  0  0  0  0
  184.0750  178.2330  139.0420 C   0  0  0  0  0  2  0  0  0  0  0  0
  184.5880  178.5590  141.4630 C   0  0  0  0  0  1  0  0  0  0  0  0
  184.9150  179.0040  140.0490 C   0  0  0  0  0  2  0  0  0  0  0  0
  1  3  1  0  0  0  0
  1  8  1  0  0  0  0
  2 11  1  0  0  0  0
  3 16  1  1  0  0  0
  3 10  1  0  0  0  0
  4  2  1  1  0  0  0
  5  4  1  0  0  0  0
  6  4  1  0  0  0  0
  6  9  1  1  0  0  0
  7 11  1  0  0  0  0
  8 14  1  6  0  0  0
  8  5  1  0  0  0  0
  9  7  1  0  0  0  0
 10 28  1  1  0  0  0
 10  6  1  0  0  0  0
 11 12  1  1  0  0  0
 12 13  1  0  0  0  0
 15 14  1  0  0  0  0
 17 18  1  0  0  0  0
 17 16  1  0  0  0  0
 19 18  1  0  0  0  0
 19 20  1  0  0  0  0
 21 22  1  6  0  0  0
 21 20  1  0  0  0  0
 22 23  1  0  0  0  0
 24 21  1  0  0  0  0
 27 25  1  6  0  0  0
 27 24  1  0  0  0  0
 27 26  1  0  0  0  0
 29 30  1  1  0  0  0
 29 33  1  0  0  0  0
 29 28  1  0  0  0  0
 31 29  1  0  0  0  0
 32 31  1  0  0  0  0
 33 34  1  0  0  0  0
 34 35  1  0  0  0  0
 35 37  1  0  0  0  0
 37 36  1  0  0  0  0
M  END
>  <MODEL>
7

>  <REMARK>
 VINA RESULT:      -5.3      3.328      8.667
  Name = 
  18 active torsions:
  status: ('A' for Active; 'I' for Inactive)
    1  A    between atoms: C_1  and  C_5
    2  A    between atoms: C_1  and  C_17
    3  A    between atoms: C_1  and  O_36
    4  A    between atoms: O_2  and  C_6
    5  A    between atoms: O_2  and  C_35
    6  A    between atoms: C_3  and  C_32
    7  A    between atoms: C_6  and  C_8
    8  A    between atoms: C_6  and  C_31
    9  A    between atoms: C_7  and  O_14
   10  A    between atoms: C_7  and  C_27
   11  A    between atoms: C_10  and  O_14
   12  A    between atoms: C_17  and  C_33
   13  A    between atoms: C_22  and  C_24
   14  A    between atoms: C_26  and  C_33
   15  A    between atoms: C_26  and  C_34
   16  A    between atoms: C_27  and  C_37
   17  A    between atoms: C_29  and  O_36
   18  A    between atoms: C_31  and  C_37
                            x       y       z     vdW  Elec       q    Type
                         _______ _______ _______ _____ _____    ______ ____

>  <TORSDO>
F 18

$$$$
=
 OpenBabel10262423013D

 37 38  0  0  1  0  0  0  0  0999 V2000
  185.8080  176.7750  137.9670 O   0  0  0  0  0  0  0  0  0  0  0  0
  181.8360  178.7340  136.9760 C   0  0  0  0  0  2  0  0  0  0  0  0
  185.9290  178.0430  138.5990 C   0  0  2  0  0  3  0  0  0  0  0  0
  182.9520  178.0760  137.7810 C   0  0  1  0  0  3  0  0  0  0  0  0
  183.8910  177.5320  136.8960 O   0  0  0  0  0  0  0  0  0  0  0  0
  183.6150  179.1030  138.7220 C   0  0  1  0  0  3  0  0  0  0  0  0
  181.4480  180.3670  138.8550 C   0  0  0  0  0  2  0  0  0  0  0  0
  184.4740  176.4760  137.6080 C   0  0  1  0  0  3  0  0  0  0  0  0
  182.5570  179.6940  139.6570 C   0  0  0  0  0  2  0  0  0  0  0  0
  184.7670  178.4710  139.5260 C   0  0  2  0  0  3  0  0  0  0  0  0
  180.7970  179.3570  137.9120 C   0  0  1  0  0  3  0  0  0  0  0  0
  179.6440  179.9840  137.1300 C   0  0  0  0  0  2  0  0  0  0  0  0
  180.1070  181.1040  136.2080 C   0  0  0  0  0  1  0  0  0  0  0  0
  184.4390  175.2160  136.7610 C   0  0  0  0  0  2  0  0  0  0  0  0
  185.0870  175.4720  135.4120 C   0  0  0  0  0  1  0  0  0  0  0  0
  186.2520  179.0340  137.6670 O   0  0  0  0  0  0  0  0  0  0  0  0
  187.1870  178.4360  136.8180 C   0  0  0  0  0  2  0  0  0  0  0  0
  188.5900  178.8530  137.2160 C   0  0  0  0  0  2  0  0  0  0  0  0
  189.6040  177.8460  136.7060 C   0  0  0  0  0  2  0  0  0  0  0  0
  189.1590  176.4310  137.0360 C   0  0  0  0  0  2  0  0  0  0  0  0
  190.1940  175.7070  137.9000 C   0  0  1  0  0  3  0  0  0  0  0  0
  190.9650  174.5770  137.2100 C   0  0  0  0  0  2  0  0  0  0  0  0
  190.2490  173.3920  137.2360 F   0  0  0  0  0  0  0  0  0  0  0  0
  190.9740  176.5770  138.7060 O   0  0  0  0  0  0  0  0  0  0  0  0
  191.4510  177.5010  140.9060 C   0  0  0  0  0  1  0  0  0  0  0  0
  189.1940  177.1750  140.1360 F   0  0  0  0  0  0  0  0  0  0  0  0
  190.4950  176.7040  140.0350 C   0  0  1  0  0  3  0  0  0  0  0  0
  185.2630  179.3970  140.4670 O   0  0  0  0  0  0  0  0  0  0  0  0
  185.4790  178.7900  141.7350 C   0  0  1  0  0  0  0  0  0  0  0  0
  184.6650  177.5050  141.9060 C   0  0  0  0  0  1  0  0  0  0  0  0
  186.9760  178.5470  142.0290 C   0  0  0  0  0  2  0  0  0  0  0  0
  187.2610  177.3200  142.8870 C   0  0  0  0  0  1  0  0  0  0  0  0
  184.9530  179.7500  142.8050 C   0  0  0  0  0  2  0  0  0  0  0  0
  184.4410  179.0530  144.0690 C   0  0  0  0  0  2  0  0  0  0  0  0
  185.3000  179.3790  145.2850 C   0  0  0  0  0  2  0  0  0  0  0  0
  186.9810  177.9230  146.4180 C   0  0  0  0  0  1  0  0  0  0  0  0
  185.5030  178.1550  146.1670 C   0  0  0  0  0  2  0  0  0  0  0  0
  1  3  1  0  0  0  0
  2 11  1  0  0  0  0
  3 16  1  6  0  0  0
  3 10  1  0  0  0  0
  4  2  1  6  0  0  0
  4  6  1  0  0  0  0
  5  8  1  0  0  0  0
  5  4  1  0  0  0  0
  6 10  1  0  0  0  0
  6  9  1  1  0  0  0
  7  9  1  0  0  0  0
  8 14  1  6  0  0  0
  8  1  1  0  0  0  0
 10 28  1  1  0  0  0
 11 12  1  6  0  0  0
 11  7  1  0  0  0  0
 13 12  1  0  0  0  0
 15 14  1  0  0  0  0
 17 18  1  0  0  0  0
 17 16  1  0  0  0  0
 19 20  1  0  0  0  0
 19 18  1  0  0  0  0
 21 20  1  6  0  0  0
 21 24  1  0  0  0  0
 22 23  1  0  0  0  0
 22 21  1  0  0  0  0
 24 27  1  0  0  0  0
 27 26  1  0  0  0  0
 27 25  1  1  0  0  0
 28 29  1  0  0  0  0
 29 30  1  1  0  0  0
 29 31  1  0  0  0  0
 29 33  1  0  0  0  0
 31 32  1  0  0  0  0
 33 34  1  0  0  0  0
 34 35  1  0  0  0  0
 35 37  1  0  0  0  0
 37 36  1  0  0  0  0
M  END
>  <MODEL>
8

>  <REMARK>
 VINA RESULT:      -5.3      4.084      8.696
  Name = 
  18 active torsions:
  status: ('A' for Active; 'I' for Inactive)
    1  A    between atoms: C_1  and  C_5
    2  A    between atoms: C_1  and  C_17
    3  A    between atoms: C_1  and  O_36
    4  A    between atoms: O_2  and  C_6
    5  A    between atoms: O_2  and  C_35
    6  A    between atoms: C_3  and  C_32
    7  A    between atoms: C_6  and  C_8
    8  A    between atoms: C_6  and  C_31
    9  A    between atoms: C_7  and  O_14
   10  A    between atoms: C_7  and  C_27
   11  A    between atoms: C_10  and  O_14
   12  A    between atoms: C_17  and  C_33
   13  A    between atoms: C_22  and  C_24
   14  A    between atoms: C_26  and  C_33
   15  A    between atoms: C_26  and  C_34
   16  A    between atoms: C_27  and  C_37
   17  A    between atoms: C_29  and  O_36
   18  A    between atoms: C_31  and  C_37
                            x       y       z     vdW  Elec       q    Type
                         _______ _______ _______ _____ _____    ______ ____

>  <TORSDO>
F 18

$$$$
=
 OpenBabel10262423013D

 37 38  0  0  1  0  0  0  0  0999 V2000
  190.2350  177.7850  138.6120 O   0  0  0  0  0  0  0  0  0  0  0  0
  187.0660  174.9000  137.1160 C   0  0  0  0  0  2  0  0  0  0  0  0
  190.8010  176.5210  138.9300 C   0  0  2  0  0  3  0  0  0  0  0  0
  188.3830  175.6650  137.2120 C   0  0  1  0  0  3  0  0  0  0  0  0
  188.2300  176.7220  138.1170 O   0  0  0  0  0  0  0  0  0  0  0  0
  189.5220  174.7240  137.6540 C   0  0  1  0  0  3  0  0  0  0  0  0
  188.3350  172.7930  136.5700 C   0  0  0  0  0  2  0  0  0  0  0  0
  189.1600  177.6810  137.6990 C   0  0  1  0  0  3  0  0  0  0  0  0
  189.6450  173.5690  136.6560 C   0  0  0  0  0  2  0  0  0  0  0  0
  190.8580  175.4780  137.7870 C   0  0  2  0  0  3  0  0  0  0  0  0
  187.2010  173.7240  136.1450 C   0  0  1  0  0  3  0  0  0  0  0  0
  185.8820  172.9680  135.9970 C   0  0  0  0  0  2  0  0  0  0  0  0
  186.0830  171.5340  135.5250 C   0  0  0  0  0  1  0  0  0  0  0  0
  188.4700  179.0270  137.5600 C   0  0  0  0  0  2  0  0  0  0  0  0
  187.5560  179.0250  136.3490 C   0  0  0  0  0  1  0  0  0  0  0  0
  190.2290  175.9970  140.0930 O   0  0  0  0  0  0  0  0  0  0  0  0
  190.3170  177.0300  141.0300 C   0  0  0  0  0  2  0  0  0  0  0  0
  189.8160  176.5490  142.3790 C   0  0  0  0  0  2  0  0  0  0  0  0
  188.4660  177.1690  142.6910 C   0  0  0  0  0  2  0  0  0  0  0  0
  187.8700  176.5420  143.9400 C   0  0  0  0  0  2  0  0  0  0  0  0
  187.4790  177.6060  144.9670 C   0  0  1  0  0  3  0  0  0  0  0  0
  185.9820  177.7160  145.2780 C   0  0  0  0  0  2  0  0  0  0  0  0
  185.3440  178.5580  144.3820 F   0  0  0  0  0  0  0  0  0  0  0  0
  188.3420  177.6580  146.0930 O   0  0  0  0  0  0  0  0  0  0  0  0
  188.6230  177.8910  148.4980 C   0  0  0  0  0  1  0  0  0  0  0  0
  186.8450  179.0070  147.3220 F   0  0  0  0  0  0  0  0  0  0  0  0
  187.6670  177.8900  147.3180 C   0  0  1  0  0  3  0  0  0  0  0  0
  191.9000  174.5680  138.0640 O   0  0  0  0  0  0  0  0  0  0  0  0
  192.9760  174.7110  137.1450 C   0  0  1  0  0  0  0  0  0  0  0  0
  193.1560  173.4680  136.2690 C   0  0  0  0  0  1  0  0  0  0  0  0
  192.8590  175.9890  136.2860 C   0  0  0  0  0  2  0  0  0  0  0  0
  193.4970  175.8850  134.9060 C   0  0  0  0  0  1  0  0  0  0  0  0
  194.2680  174.8240  137.9580 C   0  0  0  0  0  2  0  0  0  0  0  0
  195.3940  173.9080  137.4700 C   0  0  0  0  0  2  0  0  0  0  0  0
  196.7710  174.4870  137.7730 C   0  0  0  0  0  2  0  0  0  0  0  0
  198.0770  174.2260  135.6630 C   0  0  0  0  0  1  0  0  0  0  0  0
  197.8710  173.7030  137.0720 C   0  0  0  0  0  2  0  0  0  0  0  0
  1  3  1  0  0  0  0
  3 16  1  1  0  0  0
  4  2  1  1  0  0  0
  4  6  1  0  0  0  0
  4  5  1  0  0  0  0
  6  9  1  6  0  0  0
  6 10  1  0  0  0  0
  7  9  1  0  0  0  0
  8 14  1  1  0  0  0
  8  5  1  0  0  0  0
  8  1  1  0  0  0  0
 10 28  1  1  0  0  0
 10  3  1  0  0  0  0
 11 12  1  1  0  0  0
 11  7  1  0  0  0  0
 11  2  1  0  0  0  0
 13 12  1  0  0  0  0
 15 14  1  0  0  0  0
 16 17  1  0  0  0  0
 17 18  1  0  0  0  0
 18 19  1  0  0  0  0
 19 20  1  0  0  0  0
 21 20  1  1  0  0  0
 21 22  1  0  0  0  0
 21 24  1  0  0  0  0
 23 22  1  0  0  0  0
 24 27  1  0  0  0  0
 27 26  1  0  0  0  0
 27 25  1  1  0  0  0
 29 30  1  6  0  0  0
 29 33  1  0  0  0  0
 29 28  1  0  0  0  0
 31 29  1  0  0  0  0
 32 31  1  0  0  0  0
 34 35  1  0  0  0  0
 34 33  1  0  0  0  0
 36 37  1  0  0  0  0
 37 35  1  0  0  0  0
M  END
>  <MODEL>
9

>  <REMARK>
 VINA RESULT:      -5.0      1.662      2.195
  Name = 
  18 active torsions:
  status: ('A' for Active; 'I' for Inactive)
    1  A    between atoms: C_1  and  C_5
    2  A    between atoms: C_1  and  C_17
    3  A    between atoms: C_1  and  O_36
    4  A    between atoms: O_2  and  C_6
    5  A    between atoms: O_2  and  C_35
    6  A    between atoms: C_3  and  C_32
    7  A    between atoms: C_6  and  C_8
    8  A    between atoms: C_6  and  C_31
    9  A    between atoms: C_7  and  O_14
   10  A    between atoms: C_7  and  C_27
   11  A    between atoms: C_10  and  O_14
   12  A    between atoms: C_17  and  C_33
   13  A    between atoms: C_22  and  C_24
   14  A    between atoms: C_26  and  C_33
   15  A    between atoms: C_26  and  C_34
   16  A    between atoms: C_27  and  C_37
   17  A    between atoms: C_29  and  O_36
   18  A    between atoms: C_31  and  C_37
                            x       y       z     vdW  Elec       q    Type
                         _______ _______ _______ _____ _____    ______ ____

>  <TORSDO>
F 18

$$$$
