=
 OpenBabel10262421573D

 30 32  0  0  1  0  0  0  0  0999 V2000
  187.4620  178.0260  142.4240 N   0  0  0  0  0  0  0  0  0  0  0  0
  186.2830  178.5800  140.4140 C   0  0  0  0  0  0  0  0  0  0  0  0
  184.1010  178.7960  144.7870 C   0  0  0  0  0  3  0  0  0  0  0  0
  187.5560  177.8780  143.7730 C   0  0  0  0  0  0  0  0  0  0  0  0
  184.1720  178.6240  146.1710 C   0  0  0  0  0  3  0  0  0  0  0  0
  188.7930  177.4140  144.3380 N   0  0  0  0  0  0  0  0  0  0  0  0
  185.1040  178.9960  139.7880 C   0  0  0  0  0  3  0  0  0  0  0  0
  187.6980  178.2530  139.4270 Cl  0  0  0  0  0  0  0  0  0  0  0  0
  185.2240  178.5550  143.9780 C   0  0  0  0  0  0  0  0  0  0  0  0
  183.9620  179.2680  140.5440 C   0  0  0  0  0  3  0  0  0  0  0  0
  186.3210  178.4350  141.8110 C   0  0  0  0  0  0  0  0  0  0  0  0
  186.4340  178.1360  144.5820 C   0  0  0  0  0  0  0  0  0  0  0  0
  185.3650  178.2070  146.7630 C   0  0  0  0  0  3  0  0  0  0  0  0
  186.4900  177.9640  145.9730 C   0  0  0  0  0  3  0  0  0  0  0  0
  183.9910  179.1250  141.9320 C   0  0  0  0  0  3  0  0  0  0  0  0
  185.1660  178.7090  142.5800 C   0  0  0  0  0  0  0  0  0  0  0  0
  190.5320  178.9710  143.5260 C   0  0  0  0  0  1  0  0  0  0  0  0
  189.8450  178.3510  144.7330 C   0  0  2  0  0  3  0  0  0  0  0  0
  192.0550  177.7050  145.4000 O   0  0  0  0  0  0  0  0  0  0  0  0
  190.8230  177.7190  145.6760 C   0  0  0  0  0  0  0  0  0  0  0  0
  190.3330  177.0910  146.8630 N   0  0  0  0  0  0  0  0  0  0  0  0
  188.9540  178.3250  148.5590 O   0  0  0  0  0  0  0  0  0  0  0  0
  189.6330  177.7170  147.7230 C   0  0  0  0  0  0  0  0  0  0  0  0
  189.1720  176.0180  144.1660 C   0  0  0  0  0  2  0  0  0  0  0  0
  189.1790  175.6370  142.6940 C   0  0  0  0  0  2  0  0  0  0  0  0
  190.4520  176.0030  142.0970 N   0  0  0  0  0  2  0  0  0  0  0  0
  190.1860  176.3780  140.7740 N   0  0  0  0  0  2  0  0  0  0  0  0
  192.4550  177.5030  140.5960 C   0  0  0  0  0  1  0  0  0  0  0  0
  191.1480  177.1000  140.0050 C   0  0  0  0  0  0  0  0  0  0  0  0
  190.8850  177.4100  138.8140 O   0  0  0  0  0  0  0  0  0  0  0  0
  1  4  1  0  0  0  0
  2 11  1  0  0  0  0
  3  5  2  0  0  0  0
  4  6  1  0  0  0  0
  4 12  2  0  0  0  0
  5 13  1  0  0  0  0
  6 18  1  0  0  0  0
  7  2  2  0  0  0  0
  7 10  1  0  0  0  0
  8  2  1  0  0  0  0
  9 12  1  0  0  0  0
  9  3  1  0  0  0  0
 10 15  2  0  0  0  0
 11  1  2  0  0  0  0
 11 16  1  0  0  0  0
 12 14  1  0  0  0  0
 14 13  2  0  0  0  0
 15 16  1  0  0  0  0
 16  9  2  0  0  0  0
 18 17  1  6  0  0  0
 18 20  1  0  0  0  0
 19 20  2  0  0  0  0
 20 21  1  0  0  0  0
 21 23  2  0  0  0  0
 23 22  2  0  0  0  0
 24  6  1  0  0  0  0
 25 24  1  0  0  0  0
 26 25  1  0  0  0  0
 27 26  1  0  0  0  0
 29 28  1  0  0  0  0
 29 27  1  0  0  0  0
 30 29  2  0  0  0  0
M  END
>  <MODEL>
1

>  <REMARK>
 VINA RESULT:      -7.6      0.000      0.000
  Name = 
  7 active torsions:
  status: ('A' for Active; 'I' for Inactive)
    1  A    between atoms: N_5  and  C_12
    2  A    between atoms: N_7  and  N_16
    3  A    between atoms: C_8  and  C_12
    4  A    between atoms: C_8  and  N_13
    5  A    between atoms: N_13  and  C_27
    6  A    between atoms: N_16  and  C_30
    7  A    between atoms: C_27  and  C_30
                            x       y       z     vdW  Elec       q    Type
                         _______ _______ _______ _____ _____    ______ ____

>  <TORSDO>
F 7

$$$$
=
 OpenBabel10262421573D

 30 32  0  0  1  0  0  0  0  0999 V2000
  183.6380  178.7770  141.2070 N   0  0  0  0  0  0  0  0  0  0  0  0
  185.3640  178.7860  142.8680 C   0  0  0  0  0  0  0  0  0  0  0  0
  180.6330  178.8200  144.1120 C   0  0  0  0  0  3  0  0  0  0  0  0
  182.3380  178.7650  140.8110 C   0  0  0  0  0  0  0  0  0  0  0  0
  179.2920  178.8350  143.7220 C   0  0  0  0  0  3  0  0  0  0  0  0
  182.0380  178.7880  139.4050 N   0  0  0  0  0  0  0  0  0  0  0  0
  185.7340  178.7970  144.2160 C   0  0  0  0  0  3  0  0  0  0  0  0
  186.6220  178.7690  141.6430 Cl  0  0  0  0  0  0  0  0  0  0  0  0
  181.6570  178.7930  143.1500 C   0  0  0  0  0  0  0  0  0  0  0  0
  184.7600  178.8070  145.2160 C   0  0  0  0  0  3  0  0  0  0  0  0
  184.0040  178.7830  142.5150 C   0  0  0  0  0  0  0  0  0  0  0  0
  181.3140  178.7770  141.7760 C   0  0  0  0  0  0  0  0  0  0  0  0
  178.9580  178.8230  142.3670 C   0  0  0  0  0  3  0  0  0  0  0  0
  179.9630  178.7950  141.3990 C   0  0  0  0  0  3  0  0  0  0  0  0
  183.4060  178.8050  144.8730 C   0  0  0  0  0  3  0  0  0  0  0  0
  183.0130  178.7920  143.5250 C   0  0  0  0  0  0  0  0  0  0  0  0
  181.9140  176.3230  139.5370 C   0  0  0  0  0  1  0  0  0  0  0  0
  181.9050  177.5490  138.6380 C   0  0  2  0  0  3  0  0  0  0  0  0
  182.6070  177.6670  136.3490 O   0  0  0  0  0  0  0  0  0  0  0  0
  182.9330  177.4590  137.5510 C   0  0  0  0  0  0  0  0  0  0  0  0
  184.2710  177.0890  137.8920 N   0  0  0  0  0  0  0  0  0  0  0  0
  186.1140  178.7780  138.1120 O   0  0  0  0  0  0  0  0  0  0  0  0
  185.2060  177.9460  138.0030 C   0  0  0  0  0  0  0  0  0  0  0  0
  182.2480  180.0190  138.6550 C   0  0  0  0  0  2  0  0  0  0  0  0
  180.9370  180.7640  138.4580 C   0  0  0  0  0  2  0  0  0  0  0  0
  181.0520  181.6730  137.3330 N   0  0  0  0  0  2  0  0  0  0  0  0
  181.5850  182.8690  137.8300 N   0  0  0  0  0  2  0  0  0  0  0  0
  180.8990  184.0990  135.7190 C   0  0  0  0  0  1  0  0  0  0  0  0
  181.5160  184.0780  137.0750 C   0  0  0  0  0  0  0  0  0  0  0  0
  181.9920  185.1390  137.5560 O   0  0  0  0  0  0  0  0  0  0  0  0
  1 11  1  0  0  0  0
  2  7  1  0  0  0  0
  4  1  2  0  0  0  0
  4 12  1  0  0  0  0
  5  3  1  0  0  0  0
  6  4  1  0  0  0  0
  7 10  2  0  0  0  0
  8  2  1  0  0  0  0
  9 16  1  0  0  0  0
  9  3  2  0  0  0  0
 11  2  2  0  0  0  0
 11 16  1  0  0  0  0
 12  9  1  0  0  0  0
 13  5  2  0  0  0  0
 14 12  2  0  0  0  0
 14 13  1  0  0  0  0
 15 10  1  0  0  0  0
 16 15  2  0  0  0  0
 18  6  1  0  0  0  0
 18 17  1  1  0  0  0
 19 20  2  0  0  0  0
 20 21  1  0  0  0  0
 20 18  1  0  0  0  0
 21 23  2  0  0  0  0
 23 22  2  0  0  0  0
 24  6  1  0  0  0  0
 25 24  1  0  0  0  0
 26 27  1  0  0  0  0
 26 25  1  0  0  0  0
 28 29  1  0  0  0  0
 29 30  2  0  0  0  0
 29 27  1  0  0  0  0
M  END
>  <MODEL>
2

>  <REMARK>
 VINA RESULT:      -7.6      5.018      8.620
  Name = 
  7 active torsions:
  status: ('A' for Active; 'I' for Inactive)
    1  A    between atoms: N_5  and  C_12
    2  A    between atoms: N_7  and  N_16
    3  A    between atoms: C_8  and  C_12
    4  A    between atoms: C_8  and  N_13
    5  A    between atoms: N_13  and  C_27
    6  A    between atoms: N_16  and  C_30
    7  A    between atoms: C_27  and  C_30
                            x       y       z     vdW  Elec       q    Type
                         _______ _______ _______ _____ _____    ______ ____

>  <TORSDO>
F 7

$$$$
=
 OpenBabel10262421573D

 30 32  0  0  1  0  0  0  0  0999 V2000
  187.9710  177.7760  144.4440 N   0  0  0  0  0  0  0  0  0  0  0  0
  186.9550  177.7250  146.6130 C   0  0  0  0  0  0  0  0  0  0  0  0
  184.3860  178.9220  142.6250 C   0  0  0  0  0  3  0  0  0  0  0  0
  187.9440  177.9570  143.0970 C   0  0  0  0  0  0  0  0  0  0  0  0
  184.3470  179.1380  141.2470 C   0  0  0  0  0  3  0  0  0  0  0  0
  189.1590  177.7960  142.3470 N   0  0  0  0  0  0  0  0  0  0  0  0
  185.8220  177.8940  147.4130 C   0  0  0  0  0  3  0  0  0  0  0  0
  188.4650  177.2450  147.3710 Cl  0  0  0  0  0  0  0  0  0  0  0  0
  185.5790  178.5240  143.2530 C   0  0  0  0  0  0  0  0  0  0  0  0
  184.6050  178.2710  146.8420 C   0  0  0  0  0  3  0  0  0  0  0  0
  186.8720  177.9340  145.2260 C   0  0  0  0  0  0  0  0  0  0  0  0
  186.7440  178.3410  142.4690 C   0  0  0  0  0  0  0  0  0  0  0  0
  185.4980  178.9590  140.4780 C   0  0  0  0  0  3  0  0  0  0  0  0
  186.6900  178.5640  141.0850 C   0  0  0  0  0  3  0  0  0  0  0  0
  184.5140  178.4820  145.4650 C   0  0  0  0  0  3  0  0  0  0  0  0
  185.6410  178.3160  144.6430 C   0  0  0  0  0  0  0  0  0  0  0  0
  190.1970  175.6110  142.8510 C   0  0  0  0  0  1  0  0  0  0  0  0
  189.5470  176.4960  141.8000 C   0  0  2  0  0  3  0  0  0  0  0  0
  191.6610  176.6570  140.6810 O   0  0  0  0  0  0  0  0  0  0  0  0
  190.4030  176.6440  140.5780 C   0  0  0  0  0  0  0  0  0  0  0  0
  189.7720  176.8190  139.3070 N   0  0  0  0  0  0  0  0  0  0  0  0
  189.1020  179.0780  138.4430 O   0  0  0  0  0  0  0  0  0  0  0  0
  189.4330  177.9650  138.8690 C   0  0  0  0  0  0  0  0  0  0  0  0
  190.1990  178.8120  142.4550 C   0  0  0  0  0  2  0  0  0  0  0  0
  190.6130  179.0110  143.9050 C   0  0  0  0  0  2  0  0  0  0  0  0
  191.5590  177.9790  144.2910 N   0  0  0  0  0  2  0  0  0  0  0  0
  191.5750  177.9480  145.6910 N   0  0  0  0  0  2  0  0  0  0  0  0
  192.0420  175.4530  145.6690 C   0  0  0  0  0  1  0  0  0  0  0  0
  191.8220  176.7330  146.3990 C   0  0  0  0  0  0  0  0  0  0  0  0
  191.8440  176.7410  147.6570 O   0  0  0  0  0  0  0  0  0  0  0  0
  1 11  1  0  0  0  0
  2  8  1  0  0  0  0
  2  7  1  0  0  0  0
  3  9  1  0  0  0  0
  4  1  2  0  0  0  0
  5  3  2  0  0  0  0
  6 24  1  0  0  0  0
  6  4  1  0  0  0  0
  9 16  1  0  0  0  0
 10  7  2  0  0  0  0
 11  2  2  0  0  0  0
 12  4  1  0  0  0  0
 12  9  2  0  0  0  0
 13 14  2  0  0  0  0
 13  5  1  0  0  0  0
 14 12  1  0  0  0  0
 15 10  1  0  0  0  0
 16 11  1  0  0  0  0
 16 15  2  0  0  0  0
 18  6  1  0  0  0  0
 18 17  1  1  0  0  0
 20 19  2  0  0  0  0
 20 18  1  0  0  0  0
 21 20  1  0  0  0  0
 22 23  2  0  0  0  0
 23 21  2  0  0  0  0
 24 25  1  0  0  0  0
 25 26  1  0  0  0  0
 26 27  1  0  0  0  0
 27 29  1  0  0  0  0
 28 29  1  0  0  0  0
 29 30  2  0  0  0  0
M  END
>  <MODEL>
3

>  <REMARK>
 VINA RESULT:      -7.6      2.099      5.396
  Name = 
  7 active torsions:
  status: ('A' for Active; 'I' for Inactive)
    1  A    between atoms: N_5  and  C_12
    2  A    between atoms: N_7  and  N_16
    3  A    between atoms: C_8  and  C_12
    4  A    between atoms: C_8  and  N_13
    5  A    between atoms: N_13  and  C_27
    6  A    between atoms: N_16  and  C_30
    7  A    between atoms: C_27  and  C_30
                            x       y       z     vdW  Elec       q    Type
                         _______ _______ _______ _____ _____    ______ ____

>  <TORSDO>
F 7

$$$$
=
 OpenBabel10262421573D

 30 32  0  0  1  0  0  0  0  0999 V2000
  187.3790  177.6760  143.6020 N   0  0  0  0  0  0  0  0  0  0  0  0
  185.0960  178.2200  143.1200 C   0  0  0  0  0  0  0  0  0  0  0  0
  186.8610  178.4470  147.6770 C   0  0  0  0  0  3  0  0  0  0  0  0
  188.4400  177.5340  144.4400 C   0  0  0  0  0  0  0  0  0  0  0  0
  187.9330  178.2800  148.5560 C   0  0  0  0  0  3  0  0  0  0  0  0
  189.6930  177.0750  143.9060 N   0  0  0  0  0  0  0  0  0  0  0  0
  183.8390  178.6310  143.5700 C   0  0  0  0  0  3  0  0  0  0  0  0
  185.3200  177.8920  141.4090 Cl  0  0  0  0  0  0  0  0  0  0  0  0
  187.0200  178.2050  146.3020 C   0  0  0  0  0  0  0  0  0  0  0  0
  183.6270  178.9020  144.9230 C   0  0  0  0  0  3  0  0  0  0  0  0
  186.1560  178.0800  144.0330 C   0  0  0  0  0  0  0  0  0  0  0  0
  188.2830  177.7910  145.8140 C   0  0  0  0  0  0  0  0  0  0  0  0
  189.1760  177.8690  148.0720 C   0  0  0  0  0  3  0  0  0  0  0  0
  189.3500  177.6250  146.7090 C   0  0  0  0  0  3  0  0  0  0  0  0
  184.6740  178.7640  145.8360 C   0  0  0  0  0  3  0  0  0  0  0  0
  185.9460  178.3550  145.4040 C   0  0  0  0  0  0  0  0  0  0  0  0
  190.5390  179.3940  144.0160 C   0  0  0  0  0  1  0  0  0  0  0  0
  190.6890  178.0160  143.3920 C   0  0  2  0  0  3  0  0  0  0  0  0
  191.7440  177.8760  141.2440 O   0  0  0  0  0  0  0  0  0  0  0  0
  190.6790  178.0690  141.8950 C   0  0  0  0  0  0  0  0  0  0  0  0
  189.4590  178.3880  141.2220 N   0  0  0  0  0  0  0  0  0  0  0  0
  188.6800  177.1330  139.1930 O   0  0  0  0  0  0  0  0  0  0  0  0
  189.0640  177.7510  140.1930 C   0  0  0  0  0  0  0  0  0  0  0  0
  189.8270  175.6790  143.5100 C   0  0  0  0  0  2  0  0  0  0  0  0
  191.2870  175.2520  143.5150 C   0  0  0  0  0  2  0  0  0  0  0  0
  191.6350  174.7090  144.8160 N   0  0  0  0  0  2  0  0  0  0  0  0
  192.1720  175.7630  145.5650 N   0  0  0  0  0  2  0  0  0  0  0  0
  191.3020  174.7300  147.7150 C   0  0  0  0  0  1  0  0  0  0  0  0
  192.0410  175.7990  146.9860 C   0  0  0  0  0  0  0  0  0  0  0  0
  192.5470  176.7530  147.6320 O   0  0  0  0  0  0  0  0  0  0  0  0
  1 11  2  0  0  0  0
  1  4  1  0  0  0  0
  2  7  2  0  0  0  0
  2 11  1  0  0  0  0
  3  5  2  0  0  0  0
  4 12  2  0  0  0  0
  6  4  1  0  0  0  0
  7 10  1  0  0  0  0
  8  2  1  0  0  0  0
  9  3  1  0  0  0  0
 10 15  2  0  0  0  0
 11 16  1  0  0  0  0
 12  9  1  0  0  0  0
 12 14  1  0  0  0  0
 13  5  1  0  0  0  0
 14 13  2  0  0  0  0
 16 15  1  0  0  0  0
 16  9  2  0  0  0  0
 18  6  1  0  0  0  0
 18 17  1  1  0  0  0
 19 20  2  0  0  0  0
 20 18  1  0  0  0  0
 21 20  1  0  0  0  0
 22 23  2  0  0  0  0
 23 21  2  0  0  0  0
 24 25  1  0  0  0  0
 24  6  1  0  0  0  0
 25 26  1  0  0  0  0
 26 27  1  0  0  0  0
 27 29  1  0  0  0  0
 29 30  2  0  0  0  0
 29 28  1  0  0  0  0
M  END
>  <MODEL>
4

>  <REMARK>
 VINA RESULT:      -7.4      1.964      4.524
  Name = 
  7 active torsions:
  status: ('A' for Active; 'I' for Inactive)
    1  A    between atoms: N_5  and  C_12
    2  A    between atoms: N_7  and  N_16
    3  A    between atoms: C_8  and  C_12
    4  A    between atoms: C_8  and  N_13
    5  A    between atoms: N_13  and  C_27
    6  A    between atoms: N_16  and  C_30
    7  A    between atoms: C_27  and  C_30
                            x       y       z     vdW  Elec       q    Type
                         _______ _______ _______ _____ _____    ______ ____

>  <TORSDO>
F 7

$$$$
=
 OpenBabel10262421573D

 30 32  0  0  1  0  0  0  0  0999 V2000
  184.3350  177.9340  141.6040 N   0  0  0  0  0  0  0  0  0  0  0  0
  185.7230  178.0910  143.5500 C   0  0  0  0  0  0  0  0  0  0  0  0
  181.0000  179.3600  143.6820 C   0  0  0  0  0  3  0  0  0  0  0  0
  183.1500  178.0530  140.9480 C   0  0  0  0  0  0  0  0  0  0  0  0
  179.7820  179.5130  143.0160 C   0  0  0  0  0  3  0  0  0  0  0  0
  183.0940  177.7310  139.5480 N   0  0  0  0  0  0  0  0  0  0  0  0
  185.8630  178.4150  144.9030 C   0  0  0  0  0  3  0  0  0  0  0  0
  187.1200  177.4930  142.6710 Cl  0  0  0  0  0  0  0  0  0  0  0  0
  182.1280  178.8700  143.0030 C   0  0  0  0  0  0  0  0  0  0  0  0
  184.7710  178.8900  145.6320 C   0  0  0  0  0  3  0  0  0  0  0  0
  184.4760  178.2430  142.9200 C   0  0  0  0  0  0  0  0  0  0  0  0
  182.0170  178.5290  141.6330 C   0  0  0  0  0  0  0  0  0  0  0  0
  179.6770  179.1800  141.6650 C   0  0  0  0  0  3  0  0  0  0  0  0
  180.7890  178.6910  140.9770 C   0  0  0  0  0  3  0  0  0  0  0  0
  183.5300  179.0440  145.0120 C   0  0  0  0  0  3  0  0  0  0  0  0
  183.3670  178.7230  143.6550 C   0  0  0  0  0  0  0  0  0  0  0  0
  183.7150  175.9390  137.9630 C   0  0  0  0  0  1  0  0  0  0  0  0
  182.7950  176.3730  139.0930 C   0  0  2  0  0  3  0  0  0  0  0  0
  180.7970  177.0340  137.9430 O   0  0  0  0  0  0  0  0  0  0  0  0
  181.3480  176.2170  138.7340 C   0  0  0  0  0  0  0  0  0  0  0  0
  180.5950  175.1620  139.3360 N   0  0  0  0  0  0  0  0  0  0  0  0
  179.1540  175.5310  141.3580 O   0  0  0  0  0  0  0  0  0  0  0  0
  179.8640  175.3490  140.3620 C   0  0  0  0  0  0  0  0  0  0  0  0
  183.7100  178.6370  138.5870 C   0  0  0  0  0  2  0  0  0  0  0  0
  185.0420  179.1540  139.1060 C   0  0  0  0  0  2  0  0  0  0  0  0
  186.1200  178.6680  138.2640 N   0  0  0  0  0  2  0  0  0  0  0  0
  187.1870  178.3520  139.1140 N   0  0  0  0  0  2  0  0  0  0  0  0
  188.8540  178.8090  137.2550 C   0  0  0  0  0  1  0  0  0  0  0  0
  188.5380  178.4240  138.6590 C   0  0  0  0  0  0  0  0  0  0  0  0
  189.4760  178.1470  139.4510 O   0  0  0  0  0  0  0  0  0  0  0  0
  1 11  1  0  0  0  0
  2  7  1  0  0  0  0
  4  1  2  0  0  0  0
  4 12  1  0  0  0  0
  5  3  1  0  0  0  0
  6  4  1  0  0  0  0
  7 10  2  0  0  0  0
  8  2  1  0  0  0  0
  9 16  1  0  0  0  0
  9  3  2  0  0  0  0
 11  2  2  0  0  0  0
 11 16  1  0  0  0  0
 12  9  1  0  0  0  0
 13  5  2  0  0  0  0
 14 12  2  0  0  0  0
 14 13  1  0  0  0  0
 15 10  1  0  0  0  0
 16 15  2  0  0  0  0
 18 17  1  6  0  0  0
 18  6  1  0  0  0  0
 19 20  2  0  0  0  0
 20 18  1  0  0  0  0
 20 21  1  0  0  0  0
 21 23  2  0  0  0  0
 23 22  2  0  0  0  0
 24 25  1  0  0  0  0
 24  6  1  0  0  0  0
 26 25  1  0  0  0  0
 26 27  1  0  0  0  0
 28 29  1  0  0  0  0
 29 27  1  0  0  0  0
 29 30  2  0  0  0  0
M  END
>  <MODEL>
5

>  <REMARK>
 VINA RESULT:      -7.3      4.396      7.192
  Name = 
  7 active torsions:
  status: ('A' for Active; 'I' for Inactive)
    1  A    between atoms: N_5  and  C_12
    2  A    between atoms: N_7  and  N_16
    3  A    between atoms: C_8  and  C_12
    4  A    between atoms: C_8  and  N_13
    5  A    between atoms: N_13  and  C_27
    6  A    between atoms: N_16  and  C_30
    7  A    between atoms: C_27  and  C_30
                            x       y       z     vdW  Elec       q    Type
                         _______ _______ _______ _____ _____    ______ ____

>  <TORSDO>
F 7

$$$$
=
 OpenBabel10262421573D

 30 32  0  0  1  0  0  0  0  0999 V2000
  185.6920  178.5960  140.1620 N   0  0  0  0  0  0  0  0  0  0  0  0
  188.0220  178.2490  140.5970 C   0  0  0  0  0  0  0  0  0  0  0  0
  184.7750  178.5950  144.2400 C   0  0  0  0  0  3  0  0  0  0  0  0
  184.3980  178.7540  140.5470 C   0  0  0  0  0  0  0  0  0  0  0  0
  183.4550  178.7820  144.6540 C   0  0  0  0  0  3  0  0  0  0  0  0
  183.3930  178.9650  139.5410 N   0  0  0  0  0  0  0  0  0  0  0  0
  189.0590  178.0700  141.5170 C   0  0  0  0  0  3  0  0  0  0  0  0
  188.4010  178.2530  138.8820 Cl  0  0  0  0  0  0  0  0  0  0  0  0
  185.1010  178.5790  142.8730 C   0  0  0  0  0  0  0  0  0  0  0  0
  188.7920  178.0590  142.8880 C   0  0  0  0  0  3  0  0  0  0  0  0
  186.7030  178.4170  141.0510 C   0  0  0  0  0  0  0  0  0  0  0  0
  184.0720  178.7530  141.9160 C   0  0  0  0  0  0  0  0  0  0  0  0
  182.4440  178.9570  143.7080 C   0  0  0  0  0  3  0  0  0  0  0  0
  182.7510  178.9440  142.3460 C   0  0  0  0  0  3  0  0  0  0  0  0
  187.4850  178.2270  143.3470 C   0  0  0  0  0  3  0  0  0  0  0  0
  186.4280  178.4060  142.4390 C   0  0  0  0  0  0  0  0  0  0  0  0
  182.6850  176.6140  139.8200 C   0  0  0  0  0  1  0  0  0  0  0  0
  182.6910  177.8410  138.9220 C   0  0  2  0  0  3  0  0  0  0  0  0
  182.5640  177.8450  136.5280 O   0  0  0  0  0  0  0  0  0  0  0  0
  183.2290  177.5380  137.5560 C   0  0  0  0  0  0  0  0  0  0  0  0
  184.4800  176.8570  137.4400 N   0  0  0  0  0  0  0  0  0  0  0  0
  186.4010  177.7960  136.1260 O   0  0  0  0  0  0  0  0  0  0  0  0
  185.4550  177.3330  136.7740 C   0  0  0  0  0  0  0  0  0  0  0  0
  183.3370  180.2480  138.8530 C   0  0  0  0  0  2  0  0  0  0  0  0
  181.9020  180.7360  138.7330 C   0  0  0  0  0  2  0  0  0  0  0  0
  181.8890  182.1360  138.3470 N   0  0  0  0  0  2  0  0  0  0  0  0
  181.0760  182.2360  137.2110 N   0  0  0  0  0  2  0  0  0  0  0  0
  181.3860  184.7550  137.1630 C   0  0  0  0  0  1  0  0  0  0  0  0
  180.8190  183.4980  136.5960 C   0  0  0  0  0  0  0  0  0  0  0  0
  180.0960  183.5530  135.5680 O   0  0  0  0  0  0  0  0  0  0  0  0
  1  4  2  0  0  0  0
  1 11  1  0  0  0  0
  2 11  2  0  0  0  0
  2  7  1  0  0  0  0
  3  5  1  0  0  0  0
  4 12  1  0  0  0  0
  6  4  1  0  0  0  0
  7 10  2  0  0  0  0
  8  2  1  0  0  0  0
  9  3  2  0  0  0  0
 10 15  1  0  0  0  0
 11 16  1  0  0  0  0
 12 14  2  0  0  0  0
 12  9  1  0  0  0  0
 13  5  2  0  0  0  0
 14 13  1  0  0  0  0
 16  9  1  0  0  0  0
 16 15  2  0  0  0  0
 18  6  1  0  0  0  0
 18 17  1  1  0  0  0
 19 20  2  0  0  0  0
 20 18  1  0  0  0  0
 21 20  1  0  0  0  0
 22 23  2  0  0  0  0
 23 21  2  0  0  0  0
 24  6  1  0  0  0  0
 25 24  1  0  0  0  0
 26 25  1  0  0  0  0
 27 26  1  0  0  0  0
 29 28  1  0  0  0  0
 29 27  1  0  0  0  0
 30 29  2  0  0  0  0
M  END
>  <MODEL>
6

>  <REMARK>
 VINA RESULT:      -7.2      4.661      8.248
  Name = 
  7 active torsions:
  status: ('A' for Active; 'I' for Inactive)
    1  A    between atoms: N_5  and  C_12
    2  A    between atoms: N_7  and  N_16
    3  A    between atoms: C_8  and  C_12
    4  A    between atoms: C_8  and  N_13
    5  A    between atoms: N_13  and  C_27
    6  A    between atoms: N_16  and  C_30
    7  A    between atoms: C_27  and  C_30
                            x       y       z     vdW  Elec       q    Type
                         _______ _______ _______ _____ _____    ______ ____

>  <TORSDO>
F 7

$$$$
=
 OpenBabel10262421573D

 30 32  0  0  1  0  0  0  0  0999 V2000
  183.5740  178.8090  141.1990 N   0  0  0  0  0  0  0  0  0  0  0  0
  185.3360  178.6760  142.8170 C   0  0  0  0  0  0  0  0  0  0  0  0
  180.6430  178.9200  144.1770 C   0  0  0  0  0  3  0  0  0  0  0  0
  182.2660  178.8770  140.8350 C   0  0  0  0  0  0  0  0  0  0  0  0
  179.2960  179.0160  143.8210 C   0  0  0  0  0  3  0  0  0  0  0  0
  181.9350  178.9580  139.4380 N   0  0  0  0  0  0  0  0  0  0  0  0
  185.7370  178.6260  144.1550 C   0  0  0  0  0  3  0  0  0  0  0  0
  186.5620  178.6310  141.5600 Cl  0  0  0  0  0  0  0  0  0  0  0  0
  181.6410  178.8680  143.1900 C   0  0  0  0  0  0  0  0  0  0  0  0
  184.7870  178.6560  145.1780 C   0  0  0  0  0  3  0  0  0  0  0  0
  183.9700  178.7550  142.4970 C   0  0  0  0  0  0  0  0  0  0  0  0
  181.2670  178.9130  141.8250 C   0  0  0  0  0  0  0  0  0  0  0  0
  178.9310  179.0640  142.4750 C   0  0  0  0  0  3  0  0  0  0  0  0
  179.9100  179.0130  141.4820 C   0  0  0  0  0  3  0  0  0  0  0  0
  183.4280  178.7360  144.8690 C   0  0  0  0  0  3  0  0  0  0  0  0
  183.0040  178.7850  143.5310 C   0  0  0  0  0  0  0  0  0  0  0  0
  182.3120  177.8850  137.2440 C   0  0  0  0  0  1  0  0  0  0  0  0
  181.7190  177.7530  138.6380 C   0  0  2  0  0  3  0  0  0  0  0  0
  179.4330  178.0970  138.0030 O   0  0  0  0  0  0  0  0  0  0  0  0
  180.2710  177.3660  138.6010 C   0  0  0  0  0  0  0  0  0  0  0  0
  179.8510  176.1880  139.2930 N   0  0  0  0  0  0  0  0  0  0  0  0
  179.9730  173.9080  138.2520 O   0  0  0  0  0  0  0  0  0  0  0  0
  179.9130  175.0310  138.7650 C   0  0  0  0  0  0  0  0  0  0  0  0
  182.1920  180.1990  138.7190 C   0  0  0  0  0  2  0  0  0  0  0  0
  180.9880  181.1240  138.7870 C   0  0  0  0  0  2  0  0  0  0  0  0
  181.0020  182.0340  137.6550 N   0  0  0  0  0  2  0  0  0  0  0  0
  180.1310  183.0850  137.9690 N   0  0  0  0  0  2  0  0  0  0  0  0
  181.1780  184.5400  136.1710 C   0  0  0  0  0  1  0  0  0  0  0  0
  180.1790  184.3200  137.2550 C   0  0  0  0  0  0  0  0  0  0  0  0
  179.3740  185.2400  137.5510 O   0  0  0  0  0  0  0  0  0  0  0  0
  1 11  1  0  0  0  0
  2  7  1  0  0  0  0
  4  1  2  0  0  0  0
  4 12  1  0  0  0  0
  5  3  1  0  0  0  0
  6  4  1  0  0  0  0
  7 10  2  0  0  0  0
  8  2  1  0  0  0  0
  9 16  1  0  0  0  0
  9  3  2  0  0  0  0
 11  2  2  0  0  0  0
 11 16  1  0  0  0  0
 12  9  1  0  0  0  0
 13  5  2  0  0  0  0
 14 12  2  0  0  0  0
 14 13  1  0  0  0  0
 15 10  1  0  0  0  0
 16 15  2  0  0  0  0
 18 17  1  6  0  0  0
 18  6  1  0  0  0  0
 19 20  2  0  0  0  0
 20 18  1  0  0  0  0
 20 21  1  0  0  0  0
 22 23  2  0  0  0  0
 23 21  2  0  0  0  0
 24 25  1  0  0  0  0
 24  6  1  0  0  0  0
 26 27  1  0  0  0  0
 26 25  1  0  0  0  0
 28 29  1  0  0  0  0
 29 30  2  0  0  0  0
 29 27  1  0  0  0  0
M  END
>  <MODEL>
7

>  <REMARK>
 VINA RESULT:      -6.8      6.023      9.385
  Name = 
  7 active torsions:
  status: ('A' for Active; 'I' for Inactive)
    1  A    between atoms: N_5  and  C_12
    2  A    between atoms: N_7  and  N_16
    3  A    between atoms: C_8  and  C_12
    4  A    between atoms: C_8  and  N_13
    5  A    between atoms: N_13  and  C_27
    6  A    between atoms: N_16  and  C_30
    7  A    between atoms: C_27  and  C_30
                            x       y       z     vdW  Elec       q    Type
                         _______ _______ _______ _____ _____    ______ ____

>  <TORSDO>
F 7

$$$$
=
 OpenBabel10262421573D

 30 32  0  0  1  0  0  0  0  0999 V2000
  188.6680  177.3410  140.1410 N   0  0  0  0  0  0  0  0  0  0  0  0
  188.5010  177.7920  142.4870 C   0  0  0  0  0  0  0  0  0  0  0  0
  192.8390  177.1280  140.3260 C   0  0  0  0  0  3  0  0  0  0  0  0
  189.3670  177.0990  139.0000 C   0  0  0  0  0  0  0  0  0  0  0  0
  193.5710  176.8550  139.1690 C   0  0  0  0  0  3  0  0  0  0  0  0
  188.6480  176.8760  137.7760 N   0  0  0  0  0  0  0  0  0  0  0  0
  189.1280  177.9870  143.7210 C   0  0  0  0  0  3  0  0  0  0  0  0
  186.7490  177.8780  142.4030 Cl  0  0  0  0  0  0  0  0  0  0  0  0
  191.4370  177.2160  140.2810 C   0  0  0  0  0  0  0  0  0  0  0  0
  190.5190  177.9290  143.8220 C   0  0  0  0  0  3  0  0  0  0  0  0
  189.2730  177.5360  141.3420 C   0  0  0  0  0  0  0  0  0  0  0  0
  190.7720  177.0270  139.0450 C   0  0  0  0  0  0  0  0  0  0  0  0
  192.9120  176.6650  137.9530 C   0  0  0  0  0  3  0  0  0  0  0  0
  191.5200  176.7500  137.8910 C   0  0  0  0  0  3  0  0  0  0  0  0
  191.2930  177.6740  142.6890 C   0  0  0  0  0  3  0  0  0  0  0  0
  190.6830  177.4770  141.4400 C   0  0  0  0  0  0  0  0  0  0  0  0
  189.0260  179.2640  137.2650 C   0  0  0  0  0  1  0  0  0  0  0  0
  188.2920  177.9860  136.8920 C   0  0  2  0  0  3  0  0  0  0  0  0
  186.1800  177.9340  135.7600 O   0  0  0  0  0  0  0  0  0  0  0  0
  186.8090  178.1860  136.8250 C   0  0  0  0  0  0  0  0  0  0  0  0
  186.1290  178.7120  137.9680 N   0  0  0  0  0  0  0  0  0  0  0  0
  183.9200  177.8070  138.7450 O   0  0  0  0  0  0  0  0  0  0  0  0
  185.0090  178.2530  138.3620 C   0  0  0  0  0  0  0  0  0  0  0  0
  187.9310  175.6210  137.5940 C   0  0  0  0  0  2  0  0  0  0  0  0
  188.4840  174.8490  136.4060 C   0  0  0  0  0  2  0  0  0  0  0  0
  188.9530  173.5460  136.8420 N   0  0  0  0  0  2  0  0  0  0  0  0
  190.2920  173.7020  137.2190 N   0  0  0  0  0  2  0  0  0  0  0  0
  191.0690  172.7180  135.0110 C   0  0  0  0  0  1  0  0  0  0  0  0
  191.3540  173.3220  136.3440 C   0  0  0  0  0  0  0  0  0  0  0  0
  192.5470  173.4880  136.7060 O   0  0  0  0  0  0  0  0  0  0  0  0
  1 11  1  0  0  0  0
  2  7  1  0  0  0  0
  4 12  1  0  0  0  0
  4  1  2  0  0  0  0
  5  3  2  0  0  0  0
  6  4  1  0  0  0  0
  7 10  2  0  0  0  0
  8  2  1  0  0  0  0
  9  3  1  0  0  0  0
  9 16  1  0  0  0  0
 11 16  1  0  0  0  0
 11  2  2  0  0  0  0
 12  9  2  0  0  0  0
 13  5  1  0  0  0  0
 14 13  2  0  0  0  0
 14 12  1  0  0  0  0
 15 10  1  0  0  0  0
 16 15  2  0  0  0  0
 18 17  1  1  0  0  0
 18  6  1  0  0  0  0
 19 20  2  0  0  0  0
 20 18  1  0  0  0  0
 20 21  1  0  0  0  0
 21 23  2  0  0  0  0
 23 22  2  0  0  0  0
 24  6  1  0  0  0  0
 25 26  1  0  0  0  0
 25 24  1  0  0  0  0
 26 27  1  0  0  0  0
 28 29  1  0  0  0  0
 29 30  2  0  0  0  0
 29 27  1  0  0  0  0
M  END
>  <MODEL>
8

>  <REMARK>
 VINA RESULT:      -6.8      4.199      7.667
  Name = 
  7 active torsions:
  status: ('A' for Active; 'I' for Inactive)
    1  A    between atoms: N_5  and  C_12
    2  A    between atoms: N_7  and  N_16
    3  A    between atoms: C_8  and  C_12
    4  A    between atoms: C_8  and  N_13
    5  A    between atoms: N_13  and  C_27
    6  A    between atoms: N_16  and  C_30
    7  A    between atoms: C_27  and  C_30
                            x       y       z     vdW  Elec       q    Type
                         _______ _______ _______ _____ _____    ______ ____

>  <TORSDO>
F 7

$$$$
=
 OpenBabel10262421573D

 30 32  0  0  1  0  0  0  0  0999 V2000
  188.5540  176.6640  139.0350 N   0  0  0  0  0  0  0  0  0  0  0  0
  188.0000  175.9080  136.8300 C   0  0  0  0  0  0  0  0  0  0  0  0
  192.6450  176.6370  138.1810 C   0  0  0  0  0  3  0  0  0  0  0  0
  189.4330  177.0220  140.0080 C   0  0  0  0  0  0  0  0  0  0  0  0
  193.5600  177.0270  139.1610 C   0  0  0  0  0  3  0  0  0  0  0  0
  188.9250  177.4450  141.2840 N   0  0  0  0  0  0  0  0  0  0  0  0
  188.4170  175.5160  135.5540 C   0  0  0  0  0  3  0  0  0  0  0  0
  186.2820  175.9240  137.1940 Cl  0  0  0  0  0  0  0  0  0  0  0  0
  191.2670  176.6270  138.4530 C   0  0  0  0  0  0  0  0  0  0  0  0
  189.7750  175.4890  135.2320 C   0  0  0  0  0  3  0  0  0  0  0  0
  188.9520  176.2770  137.7950 C   0  0  0  0  0  0  0  0  0  0  0  0
  190.8130  177.0160  139.7370 C   0  0  0  0  0  0  0  0  0  0  0  0
  193.1100  177.4130  140.4240 C   0  0  0  0  0  3  0  0  0  0  0  0
  191.7440  177.4080  140.7110 C   0  0  0  0  0  3  0  0  0  0  0  0
  190.7270  175.8560  136.1850 C   0  0  0  0  0  3  0  0  0  0  0  0
  190.3300  176.2510  137.4730 C   0  0  0  0  0  0  0  0  0  0  0  0
  187.5420  176.9240  143.2650 C   0  0  0  0  0  1  0  0  0  0  0  0
  188.6830  176.4840  142.3610 C   0  0  2  0  0  3  0  0  0  0  0  0
  190.5450  175.1000  142.9620 O   0  0  0  0  0  0  0  0  0  0  0  0
  189.9340  176.1920  143.1320 C   0  0  0  0  0  0  0  0  0  0  0  0
  190.3940  177.1450  144.0930 N   0  0  0  0  0  0  0  0  0  0  0  0
  191.9190  176.5120  145.9830 O   0  0  0  0  0  0  0  0  0  0  0  0
  191.1680  176.8240  145.0510 C   0  0  0  0  0  0  0  0  0  0  0  0
  188.2820  178.7480  141.3950 C   0  0  0  0  0  2  0  0  0  0  0  0
  186.9290  178.7460  140.7020 C   0  0  0  0  0  2  0  0  0  0  0  0
  185.9930  179.5660  141.4490 N   0  0  0  0  0  2  0  0  0  0  0  0
  184.7080  179.2040  141.0260 N   0  0  0  0  0  2  0  0  0  0  0  0
  184.0640  178.5650  143.3970 C   0  0  0  0  0  1  0  0  0  0  0  0
  183.7340  178.7230  141.9520 C   0  0  0  0  0  0  0  0  0  0  0  0
  182.5840  178.4190  141.5430 O   0  0  0  0  0  0  0  0  0  0  0  0
  1  4  1  0  0  0  0
  2  8  1  0  0  0  0
  2 11  1  0  0  0  0
  3  9  1  0  0  0  0
  3  5  2  0  0  0  0
  4  6  1  0  0  0  0
  5 13  1  0  0  0  0
  6 24  1  0  0  0  0
  6 18  1  0  0  0  0
  7  2  2  0  0  0  0
  9 12  1  0  0  0  0
 10  7  1  0  0  0  0
 10 15  2  0  0  0  0
 11  1  2  0  0  0  0
 12  4  2  0  0  0  0
 12 14  1  0  0  0  0
 13 14  2  0  0  0  0
 15 16  1  0  0  0  0
 16 11  1  0  0  0  0
 16  9  2  0  0  0  0
 18 20  1  0  0  0  0
 18 17  1  1  0  0  0
 19 20  2  0  0  0  0
 20 21  1  0  0  0  0
 21 23  2  0  0  0  0
 23 22  2  0  0  0  0
 25 24  1  0  0  0  0
 25 26  1  0  0  0  0
 27 26  1  0  0  0  0
 27 29  1  0  0  0  0
 29 28  1  0  0  0  0
 30 29  2  0  0  0  0
M  END
>  <MODEL>
9

>  <REMARK>
 VINA RESULT:      -6.7      3.026      6.612
  Name = 
  7 active torsions:
  status: ('A' for Active; 'I' for Inactive)
    1  A    between atoms: N_5  and  C_12
    2  A    between atoms: N_7  and  N_16
    3  A    between atoms: C_8  and  C_12
    4  A    between atoms: C_8  and  N_13
    5  A    between atoms: N_13  and  C_27
    6  A    between atoms: N_16  and  C_30
    7  A    between atoms: C_27  and  C_30
                            x       y       z     vdW  Elec       q    Type
                         _______ _______ _______ _____ _____    ______ ____

>  <TORSDO>
F 7

$$$$
