=
 OpenBabel10262419403D

 31 34  0  0  1  0  0  0  0  0999 V2000
  188.4980  177.7180  143.9060 C   0  0  0  0  0  0  0  0  0  0  0  0
  189.0870  177.3690  145.1380 C   0  0  0  0  0  0  0  0  0  0  0  0
  188.9380  176.9950  147.4720 C   0  0  0  0  0  3  0  0  0  0  0  0
  187.0680  178.0470  143.7600 C   0  0  0  0  0  0  0  0  0  0  0  0
  184.9500  178.5010  143.9610 C   0  0  0  0  0  0  0  0  0  0  0  0
  188.3590  177.3280  146.2880 N   0  0  0  0  0  2  0  0  0  0  0  0
  188.7170  178.2120  141.4030 C   0  0  1  0  0  3  0  0  0  0  0  0
  191.2040  177.0980  144.0380 N   0  0  0  0  0  0  0  0  0  0  0  0
  190.2610  176.6920  147.5240 N   0  0  0  0  0  0  0  0  0  0  0  0
  187.2010  177.9610  141.2460 C   0  0  0  0  0  2  0  0  0  0  0  0
  189.2920  177.7300  142.7330 C   0  0  0  0  0  0  0  0  0  0  0  0
  186.0910  178.2520  144.7180 C   0  0  0  0  0  3  0  0  0  0  0  0
  192.2570  176.4180  146.4850 O   0  0  0  0  0  0  0  0  0  0  0  0
  186.4770  178.1830  142.5330 C   0  0  0  0  0  0  0  0  0  0  0  0
  185.2050  178.4470  142.6710 O   0  0  0  0  0  0  0  0  0  0  0  0
  190.6570  177.4340  142.8400 C   0  0  0  0  0  3  0  0  0  0  0  0
  190.4600  177.0540  145.1760 C   0  0  0  0  0  0  0  0  0  0  0  0
  191.0330  176.7120  146.4060 C   0  0  0  0  0  0  0  0  0  0  0  0
  189.6910  177.7210  136.4800 C   0  0  0  0  0  1  0  0  0  0  0  0
  188.4930  179.0050  138.6680 O   0  0  0  0  0  0  0  0  0  0  0  0
  189.2460  178.0270  138.9280 C   0  0  0  0  0  0  0  0  0  0  0  0
  189.9290  177.3420  137.8680 N   0  0  0  0  0  0  0  0  0  0  0  0
  189.4240  177.6020  140.2830 N   0  0  0  0  0  2  0  0  0  0  0  0
  192.0980  176.6660  138.7920 C   0  0  0  0  0  1  0  0  0  0  0  0
  190.7880  176.2020  138.1740 C   0  0  2  0  0  3  0  0  0  0  0  0
  191.0300  175.4420  136.9940 O   0  0  0  0  0  0  0  0  0  0  0  0
  190.8570  174.0570  136.9480 C   0  0  0  0  0  0  0  0  0  0  0  0
  189.8540  173.5130  137.4840 O   0  0  0  0  0  0  0  0  0  0  0  0
  191.8710  173.2110  136.2570 C   0  0  0  0  0  1  0  0  0  0  0  0
  183.6220  178.7850  144.5040 C   0  0  0  0  0  3  0  0  0  0  0  0
  183.4700  179.0560  145.7250 O   0  0  0  0  0  0  0  0  0  0  0  0
  1  2  1  0  0  0  0
  2 17  2  0  0  0  0
  2  6  1  0  0  0  0
  3  9  2  0  0  0  0
  4  1  1  0  0  0  0
  4 12  1  0  0  0  0
  5 30  1  0  0  0  0
  5 12  2  0  0  0  0
  6  3  1  0  0  0  0
  7 23  1  6  0  0  0
  7 11  1  0  0  0  0
  8 17  1  0  0  0  0
 10  7  1  0  0  0  0
 10 14  1  0  0  0  0
 11 16  1  0  0  0  0
 11  1  2  0  0  0  0
 14 15  1  0  0  0  0
 14  4  2  0  0  0  0
 15  5  1  0  0  0  0
 16  8  2  0  0  0  0
 17 18  1  0  0  0  0
 18 13  2  0  0  0  0
 18  9  1  0  0  0  0
 19 22  1  0  0  0  0
 20 21  2  0  0  0  0
 21 23  1  0  0  0  0
 22 25  1  0  0  0  0
 22 21  1  0  0  0  0
 25 24  1  6  0  0  0
 26 25  1  0  0  0  0
 27 26  1  0  0  0  0
 27 28  2  0  0  0  0
 29 27  1  0  0  0  0
 30 31  2  0  0  0  0
M  END
>  <MODEL>
1

>  <REMARK>
 VINA RESULT:      -9.2      0.000      0.000
  Name = 
  5 active torsions:
  status: ('A' for Active; 'I' for Inactive)
    1  A    between atoms: C_1  and  O_24
    2  A    between atoms: C_2  and  C_13
    3  A    between atoms: C_15  and  N_23
    4  A    between atoms: C_19  and  N_22
    5  A    between atoms: C_19  and  O_24
                            x       y       z     vdW  Elec       q    Type
                         _______ _______ _______ _____ _____    ______ ____

>  <TORSDO>
F 5

$$$$
=
 OpenBabel10262419403D

 31 34  0  0  1  0  0  0  0  0999 V2000
  188.2440  177.5010  144.8980 C   0  0  0  0  0  0  0  0  0  0  0  0
  187.1560  177.9700  145.6610 C   0  0  0  0  0  0  0  0  0  0  0  0
  186.1790  178.5470  147.7400 C   0  0  0  0  0  3  0  0  0  0  0  0
  189.5440  177.1310  145.4900 C   0  0  0  0  0  0  0  0  0  0  0  0
  191.2660  176.6520  146.7280 C   0  0  0  0  0  0  0  0  0  0  0  0
  187.2370  178.0990  147.0130 N   0  0  0  0  0  2  0  0  0  0  0  0
  189.2340  176.7910  142.6450 C   0  0  1  0  0  3  0  0  0  0  0  0
  185.8560  178.1870  143.6520 N   0  0  0  0  0  0  0  0  0  0  0  0
  185.0170  178.8810  147.1200 N   0  0  0  0  0  0  0  0  0  0  0  0
  190.6490  176.9960  143.2310 C   0  0  0  0  0  2  0  0  0  0  0  0
  188.1190  177.4020  143.4910 C   0  0  0  0  0  0  0  0  0  0  0  0
  189.9200  176.9910  146.8140 C   0  0  0  0  0  3  0  0  0  0  0  0
  183.7950  179.1040  145.2240 O   0  0  0  0  0  0  0  0  0  0  0  0
  190.6450  176.8730  144.7190 C   0  0  0  0  0  0  0  0  0  0  0  0
  191.6720  176.5960  145.4770 O   0  0  0  0  0  0  0  0  0  0  0  0
  186.8930  177.7350  142.8980 C   0  0  0  0  0  3  0  0  0  0  0  0
  185.9580  178.3160  145.0030 C   0  0  0  0  0  0  0  0  0  0  0  0
  184.8840  178.7780  145.7720 C   0  0  0  0  0  0  0  0  0  0  0  0
  190.9210  176.9930  137.8980 C   0  0  0  0  0  1  0  0  0  0  0  0
  190.8380  175.8710  140.4690 O   0  0  0  0  0  0  0  0  0  0  0  0
  190.0490  176.8290  140.2420 C   0  0  0  0  0  0  0  0  0  0  0  0
  190.0010  177.4310  138.9410 N   0  0  0  0  0  0  0  0  0  0  0  0
  189.1960  177.3130  141.2840 N   0  0  0  0  0  2  0  0  0  0  0  0
  187.6670  178.1770  139.0610 C   0  0  0  0  0  1  0  0  0  0  0  0
  189.0950  178.5470  138.6890 C   0  0  2  0  0  3  0  0  0  0  0  0
  189.1730  178.9420  137.3230 O   0  0  0  0  0  0  0  0  0  0  0  0
  188.0720  178.8910  136.4650 C   0  0  0  0  0  0  0  0  0  0  0  0
  187.2100  179.8100  136.4650 O   0  0  0  0  0  0  0  0  0  0  0  0
  187.9140  177.7340  135.5390 C   0  0  0  0  0  1  0  0  0  0  0  0
  192.1460  176.3890  147.8680 C   0  0  0  0  0  3  0  0  0  0  0  0
  193.1530  175.6430  147.7440 O   0  0  0  0  0  0  0  0  0  0  0  0
  1  4  1  0  0  0  0
  1  2  1  0  0  0  0
  2  6  1  0  0  0  0
  4 12  1  0  0  0  0
  5 12  2  0  0  0  0
  5 30  1  0  0  0  0
  6  3  1  0  0  0  0
  7 23  1  6  0  0  0
  7 10  1  0  0  0  0
  7 11  1  0  0  0  0
  8 17  1  0  0  0  0
  9  3  2  0  0  0  0
 10 14  1  0  0  0  0
 11  1  2  0  0  0  0
 13 18  2  0  0  0  0
 14 15  1  0  0  0  0
 14  4  2  0  0  0  0
 15  5  1  0  0  0  0
 16 11  1  0  0  0  0
 16  8  2  0  0  0  0
 17  2  2  0  0  0  0
 17 18  1  0  0  0  0
 18  9  1  0  0  0  0
 19 22  1  0  0  0  0
 21 20  2  0  0  0  0
 21 23  1  0  0  0  0
 22 21  1  0  0  0  0
 25 22  1  0  0  0  0
 25 24  1  6  0  0  0
 26 25  1  0  0  0  0
 27 26  1  0  0  0  0
 28 27  2  0  0  0  0
 29 27  1  0  0  0  0
 31 30  2  0  0  0  0
M  END
>  <MODEL>
2

>  <REMARK>
 VINA RESULT:      -9.1      1.972      5.113
  Name = 
  5 active torsions:
  status: ('A' for Active; 'I' for Inactive)
    1  A    between atoms: C_1  and  O_24
    2  A    between atoms: C_2  and  C_13
    3  A    between atoms: C_15  and  N_23
    4  A    between atoms: C_19  and  N_22
    5  A    between atoms: C_19  and  O_24
                            x       y       z     vdW  Elec       q    Type
                         _______ _______ _______ _____ _____    ______ ____

>  <TORSDO>
F 5

$$$$
=
 OpenBabel10262419403D

 31 34  0  0  1  0  0  0  0  0999 V2000
  187.3640  178.0890  142.6920 C   0  0  0  0  0  0  0  0  0  0  0  0
  188.3820  177.8080  141.7580 C   0  0  0  0  0  0  0  0  0  0  0  0
  190.5530  177.0210  141.2360 C   0  0  0  0  0  3  0  0  0  0  0  0
  187.5020  177.8290  144.1380 C   0  0  0  0  0  0  0  0  0  0  0  0
  188.0990  177.3440  146.1720 C   0  0  0  0  0  0  0  0  0  0  0  0
  189.5770  177.2830  142.1440 N   0  0  0  0  0  0  0  0  0  0  0  0
  185.0490  179.0410  143.2330 C   0  0  1  0  0  3  0  0  0  0  0  0
  186.9650  178.6080  139.9910 N   0  0  0  0  0  0  0  0  0  0  0  0
  190.3460  177.2770  139.9170 N   0  0  0  0  0  2  0  0  0  0  0  0
  185.0480  178.2260  144.5460 C   0  0  0  0  0  2  0  0  0  0  0  0
  186.1300  178.6180  142.2410 C   0  0  0  0  0  0  0  0  0  0  0  0
  188.6070  177.4560  144.8810 C   0  0  0  0  0  3  0  0  0  0  0  0
  189.0050  178.0140  138.2460 O   0  0  0  0  0  0  0  0  0  0  0  0
  186.4380  177.9170  144.9950 C   0  0  0  0  0  0  0  0  0  0  0  0
  186.8120  177.6150  146.2090 O   0  0  0  0  0  0  0  0  0  0  0  0
  185.9710  178.8880  140.8750 C   0  0  0  0  0  3  0  0  0  0  0  0
  188.1510  178.0760  140.3940 C   0  0  0  0  0  0  0  0  0  0  0  0
  189.1700  177.7950  139.4760 C   0  0  0  0  0  0  0  0  0  0  0  0
  180.0290  178.6430  143.4930 C   0  0  0  0  0  1  0  0  0  0  0  0
  182.5660  178.9830  144.6430 O   0  0  0  0  0  0  0  0  0  0  0  0
  182.5190  178.9110  143.3840 C   0  0  0  0  0  0  0  0  0  0  0  0
  181.2560  178.7780  142.7170 N   0  0  0  0  0  0  0  0  0  0  0  0
  183.7280  178.9670  142.6200 N   0  0  0  0  0  2  0  0  0  0  0  0
  180.4180  179.8390  140.6700 C   0  0  0  0  0  1  0  0  0  0  0  0
  181.2100  178.6820  141.2610 C   0  0  2  0  0  3  0  0  0  0  0  0
  180.6460  177.4350  140.8710 O   0  0  0  0  0  0  0  0  0  0  0  0
  181.3080  176.5480  140.0190 C   0  0  0  0  0  0  0  0  0  0  0  0
  180.6880  175.5990  139.4660 O   0  0  0  0  0  0  0  0  0  0  0  0
  182.7640  176.7240  139.7600 C   0  0  0  0  0  1  0  0  0  0  0  0
  188.8740  176.9690  147.3550 C   0  0  0  0  0  3  0  0  0  0  0  0
  189.3530  177.8520  148.1160 O   0  0  0  0  0  0  0  0  0  0  0  0
  1  4  1  0  0  0  0
  2  6  1  0  0  0  0
  2  1  2  0  0  0  0
  3  6  2  0  0  0  0
  4 12  1  0  0  0  0
  4 14  2  0  0  0  0
  5 15  1  0  0  0  0
  5 30  1  0  0  0  0
  7 23  1  6  0  0  0
  7 10  1  0  0  0  0
  8 17  2  0  0  0  0
  8 16  1  0  0  0  0
  9  3  1  0  0  0  0
 10 14  1  0  0  0  0
 11  1  1  0  0  0  0
 11  7  1  0  0  0  0
 12  5  2  0  0  0  0
 13 18  2  0  0  0  0
 14 15  1  0  0  0  0
 16 11  2  0  0  0  0
 17  2  1  0  0  0  0
 18  9  1  0  0  0  0
 18 17  1  0  0  0  0
 21 20  2  0  0  0  0
 22 21  1  0  0  0  0
 22 19  1  0  0  0  0
 23 21  1  0  0  0  0
 25 24  1  1  0  0  0
 25 22  1  0  0  0  0
 26 25  1  0  0  0  0
 27 26  1  0  0  0  0
 28 27  2  0  0  0  0
 29 27  1  0  0  0  0
 30 31  2  0  0  0  0
M  END
>  <MODEL>
3

>  <REMARK>
 VINA RESULT:      -8.7      3.284      7.280
  Name = 
  5 active torsions:
  status: ('A' for Active; 'I' for Inactive)
    1  A    between atoms: C_1  and  O_24
    2  A    between atoms: C_2  and  C_13
    3  A    between atoms: C_15  and  N_23
    4  A    between atoms: C_19  and  N_22
    5  A    between atoms: C_19  and  O_24
                            x       y       z     vdW  Elec       q    Type
                         _______ _______ _______ _____ _____    ______ ____

>  <TORSDO>
F 5

$$$$
=
 OpenBabel10262419403D

 31 34  0  0  1  0  0  0  0  0999 V2000
  188.7110  177.1950  145.0110 C   0  0  0  0  0  0  0  0  0  0  0  0
  187.5200  177.7970  145.4630 C   0  0  0  0  0  0  0  0  0  0  0  0
  186.2330  178.8160  147.1710 C   0  0  0  0  0  3  0  0  0  0  0  0
  189.8970  177.0090  145.8680 C   0  0  0  0  0  0  0  0  0  0  0  0
  191.3980  176.8810  147.4350 C   0  0  0  0  0  0  0  0  0  0  0  0
  187.3880  178.2400  146.7430 N   0  0  0  0  0  0  0  0  0  0  0  0
  190.0360  176.0060  143.1700 C   0  0  1  0  0  3  0  0  0  0  0  0
  186.5550  177.5030  143.2830 N   0  0  0  0  0  0  0  0  0  0  0  0
  185.1870  178.9630  146.3170 N   0  0  0  0  0  2  0  0  0  0  0  0
  191.3430  176.3820  143.9030 C   0  0  0  0  0  2  0  0  0  0  0  0
  188.8070  176.7650  143.6640 C   0  0  0  0  0  0  0  0  0  0  0  0
  190.0580  177.1930  147.2290 C   0  0  0  0  0  3  0  0  0  0  0  0
  184.2810  178.7030  144.2560 O   0  0  0  0  0  0  0  0  0  0  0  0
  191.1030  176.6090  145.3590 C   0  0  0  0  0  0  0  0  0  0  0  0
  191.9950  176.5460  146.3110 O   0  0  0  0  0  0  0  0  0  0  0  0
  187.6940  176.9170  142.8270 C   0  0  0  0  0  3  0  0  0  0  0  0
  186.4440  177.9460  144.5650 C   0  0  0  0  0  0  0  0  0  0  0  0
  185.2660  178.5450  145.0270 C   0  0  0  0  0  0  0  0  0  0  0  0
  192.6570  177.6420  139.1840 C   0  0  0  0  0  1  0  0  0  0  0  0
  192.3660  177.0870  141.9200 O   0  0  0  0  0  0  0  0  0  0  0  0
  191.4000  176.7720  141.1710 C   0  0  0  0  0  0  0  0  0  0  0  0
  191.4870  176.9850  139.7550 N   0  0  0  0  0  0  0  0  0  0  0  0
  190.2180  176.1950  141.7350 N   0  0  0  0  0  2  0  0  0  0  0  0
  190.6790  175.3880  138.0770 C   0  0  0  0  0  1  0  0  0  0  0  0
  190.3610  176.6300  138.8960 C   0  0  2  0  0  3  0  0  0  0  0  0
  190.0320  177.7230  138.0450 O   0  0  0  0  0  0  0  0  0  0  0  0
  188.9750  178.5930  138.3210 C   0  0  0  0  0  0  0  0  0  0  0  0
  188.8580  179.6850  137.7010 O   0  0  0  0  0  0  0  0  0  0  0  0
  187.9710  178.2270  139.3600 C   0  0  0  0  0  1  0  0  0  0  0  0
  192.0850  176.9160  148.7270 C   0  0  0  0  0  3  0  0  0  0  0  0
  193.2570  176.4690  148.8460 O   0  0  0  0  0  0  0  0  0  0  0  0
  1  2  1  0  0  0  0
  1  4  1  0  0  0  0
  2  6  1  0  0  0  0
  4 12  1  0  0  0  0
  5 30  1  0  0  0  0
  6  3  2  0  0  0  0
  7 23  1  6  0  0  0
  7 11  1  0  0  0  0
  7 10  1  0  0  0  0
  8 17  1  0  0  0  0
  9  3  1  0  0  0  0
 10 14  1  0  0  0  0
 11  1  2  0  0  0  0
 12  5  2  0  0  0  0
 13 18  2  0  0  0  0
 14  4  2  0  0  0  0
 14 15  1  0  0  0  0
 15  5  1  0  0  0  0
 16  8  2  0  0  0  0
 16 11  1  0  0  0  0
 17 18  1  0  0  0  0
 17  2  2  0  0  0  0
 18  9  1  0  0  0  0
 19 22  1  0  0  0  0
 21 23  1  0  0  0  0
 21 20  2  0  0  0  0
 22 21  1  0  0  0  0
 25 24  1  6  0  0  0
 25 22  1  0  0  0  0
 26 27  1  0  0  0  0
 26 25  1  0  0  0  0
 27 29  1  0  0  0  0
 28 27  2  0  0  0  0
 30 31  2  0  0  0  0
M  END
>  <MODEL>
4

>  <REMARK>
 VINA RESULT:      -8.3      1.906      5.195
  Name = 
  5 active torsions:
  status: ('A' for Active; 'I' for Inactive)
    1  A    between atoms: C_1  and  O_24
    2  A    between atoms: C_2  and  C_13
    3  A    between atoms: C_15  and  N_23
    4  A    between atoms: C_19  and  N_22
    5  A    between atoms: C_19  and  O_24
                            x       y       z     vdW  Elec       q    Type
                         _______ _______ _______ _____ _____    ______ ____

>  <TORSDO>
F 5

$$$$
=
 OpenBabel10262419403D

 31 34  0  0  1  0  0  0  0  0999 V2000
  186.4660  177.9140  142.1760 C   0  0  0  0  0  0  0  0  0  0  0  0
  186.7280  178.1640  140.8140 C   0  0  0  0  0  0  0  0  0  0  0  0
  186.0670  178.9900  138.6950 C   0  0  0  0  0  3  0  0  0  0  0  0
  185.1980  178.2820  142.8340 C   0  0  0  0  0  0  0  0  0  0  0  0
  183.2070  178.9320  143.4190 C   0  0  0  0  0  0  0  0  0  0  0  0
  185.8060  178.7580  140.0090 N   0  0  0  0  0  0  0  0  0  0  0  0
  187.1760  176.9200  144.4270 C   0  0  1  0  0  3  0  0  0  0  0  0
  188.9090  177.1890  141.0660 N   0  0  0  0  0  0  0  0  0  0  0  0
  187.2660  178.6340  138.1640 N   0  0  0  0  0  2  0  0  0  0  0  0
  186.1380  177.8250  145.1260 C   0  0  0  0  0  2  0  0  0  0  0  0
  187.4640  177.3100  142.9790 C   0  0  0  0  0  0  0  0  0  0  0  0
  184.0100  178.7460  142.2980 C   0  0  0  0  0  3  0  0  0  0  0  0
  189.3310  177.7310  138.4040 O   0  0  0  0  0  0  0  0  0  0  0  0
  185.0410  178.2160  144.1920 C   0  0  0  0  0  0  0  0  0  0  0  0
  183.8430  178.6180  144.5270 O   0  0  0  0  0  0  0  0  0  0  0  0
  188.6760  176.9370  142.3810 C   0  0  0  0  0  3  0  0  0  0  0  0
  187.9770  177.7910  140.2780 C   0  0  0  0  0  0  0  0  0  0  0  0
  188.2250  178.0430  138.9240 C   0  0  0  0  0  0  0  0  0  0  0  0
  189.9020  178.1920  148.4730 C   0  0  0  0  0  1  0  0  0  0  0  0
  187.4990  178.0430  147.0330 O   0  0  0  0  0  0  0  0  0  0  0  0
  188.5120  177.5090  146.5030 C   0  0  0  0  0  0  0  0  0  0  0  0
  189.7690  177.5070  147.1930 N   0  0  0  0  0  0  0  0  0  0  0  0
  188.4050  176.9010  145.2120 N   0  0  0  0  0  2  0  0  0  0  0  0
  191.8140  176.2170  147.6100 C   0  0  0  0  0  1  0  0  0  0  0  0
  190.9400  176.8990  146.5680 C   0  0  2  0  0  3  0  0  0  0  0  0
  191.6820  177.8850  145.8570 O   0  0  0  0  0  0  0  0  0  0  0  0
  191.5450  178.0750  144.4800 C   0  0  0  0  0  0  0  0  0  0  0  0
  191.8420  177.1570  143.6690 O   0  0  0  0  0  0  0  0  0  0  0  0
  191.0430  179.3790  143.9630 C   0  0  0  0  0  1  0  0  0  0  0  0
  181.8270  179.4180  143.3980 C   0  0  0  0  0  3  0  0  0  0  0  0
  180.8820  178.6900  143.8050 O   0  0  0  0  0  0  0  0  0  0  0  0
  1  4  1  0  0  0  0
  1 11  1  0  0  0  0
  2  1  2  0  0  0  0
  3  6  2  0  0  0  0
  4 14  2  0  0  0  0
  5 15  1  0  0  0  0
  6  2  1  0  0  0  0
  7 10  1  0  0  0  0
  7 23  1  1  0  0  0
  8 16  1  0  0  0  0
  9  3  1  0  0  0  0
  9 18  1  0  0  0  0
 11  7  1  0  0  0  0
 12  4  1  0  0  0  0
 12  5  2  0  0  0  0
 13 18  2  0  0  0  0
 14 15  1  0  0  0  0
 14 10  1  0  0  0  0
 16 11  2  0  0  0  0
 17  2  1  0  0  0  0
 17  8  2  0  0  0  0
 18 17  1  0  0  0  0
 21 20  2  0  0  0  0
 21 22  1  0  0  0  0
 22 19  1  0  0  0  0
 23 21  1  0  0  0  0
 25 22  1  0  0  0  0
 25 24  1  1  0  0  0
 26 25  1  0  0  0  0
 27 26  1  0  0  0  0
 28 27  2  0  0  0  0
 29 27  1  0  0  0  0
 30  5  1  0  0  0  0
 30 31  2  0  0  0  0
M  END
>  <MODEL>
5

>  <REMARK>
 VINA RESULT:      -8.3      2.468      6.684
  Name = 
  5 active torsions:
  status: ('A' for Active; 'I' for Inactive)
    1  A    between atoms: C_1  and  O_24
    2  A    between atoms: C_2  and  C_13
    3  A    between atoms: C_15  and  N_23
    4  A    between atoms: C_19  and  N_22
    5  A    between atoms: C_19  and  O_24
                            x       y       z     vdW  Elec       q    Type
                         _______ _______ _______ _____ _____    ______ ____

>  <TORSDO>
F 5

$$$$
=
 OpenBabel10262419403D

 31 34  0  0  1  0  0  0  0  0999 V2000
  187.5820  178.0330  142.8470 C   0  0  0  0  0  0  0  0  0  0  0  0
  188.7370  177.7310  142.0980 C   0  0  0  0  0  0  0  0  0  0  0  0
  190.9780  176.9790  141.9610 C   0  0  0  0  0  3  0  0  0  0  0  0
  187.5000  177.8570  144.3090 C   0  0  0  0  0  0  0  0  0  0  0  0
  187.7850  177.5030  146.4360 C   0  0  0  0  0  0  0  0  0  0  0  0
  189.8680  177.2630  142.6920 N   0  0  0  0  0  0  0  0  0  0  0  0
  185.1920  178.9470  142.9700 C   0  0  1  0  0  3  0  0  0  0  0  0
  187.5950  178.3910  140.0910 N   0  0  0  0  0  0  0  0  0  0  0  0
  190.9730  177.1550  140.6140 N   0  0  0  0  0  2  0  0  0  0  0  0
  185.0050  178.2060  144.3120 C   0  0  0  0  0  2  0  0  0  0  0  0
  186.4220  178.5010  142.1820 C   0  0  0  0  0  0  0  0  0  0  0  0
  188.4840  177.5580  145.2340 C   0  0  0  0  0  3  0  0  0  0  0  0
  189.8910  177.7600  138.7160 O   0  0  0  0  0  0  0  0  0  0  0  0
  186.3150  177.9620  144.9860 C   0  0  0  0  0  0  0  0  0  0  0  0
  186.5020  177.7380  146.2600 O   0  0  0  0  0  0  0  0  0  0  0  0
  186.4710  178.6900  140.7940 C   0  0  0  0  0  3  0  0  0  0  0  0
  188.7140  177.9160  140.7010 C   0  0  0  0  0  0  0  0  0  0  0  0
  189.8690  177.6140  139.9690 C   0  0  0  0  0  0  0  0  0  0  0  0
  180.1810  178.7200  142.4570 C   0  0  0  0  0  1  0  0  0  0  0  0
  182.5170  179.1900  143.9390 O   0  0  0  0  0  0  0  0  0  0  0  0
  182.6670  178.9060  142.7190 C   0  0  0  0  0  0  0  0  0  0  0  0
  181.5210  178.6910  141.8830 N   0  0  0  0  0  0  0  0  0  0  0  0
  183.9830  178.8020  142.1670 N   0  0  0  0  0  2  0  0  0  0  0  0
  182.5310  177.0820  140.3310 C   0  0  0  0  0  1  0  0  0  0  0  0
  181.7030  178.3490  140.4750 C   0  0  2  0  0  3  0  0  0  0  0  0
  182.3170  179.4330  139.7850 O   0  0  0  0  0  0  0  0  0  0  0  0
  181.8180  179.9300  138.5790 C   0  0  0  0  0  0  0  0  0  0  0  0
  181.5860  179.1580  137.6090 O   0  0  0  0  0  0  0  0  0  0  0  0
  181.5580  181.3900  138.4350 C   0  0  0  0  0  1  0  0  0  0  0  0
  188.3750  177.2170  147.7440 C   0  0  0  0  0  3  0  0  0  0  0  0
  188.1630  177.9770  148.7260 O   0  0  0  0  0  0  0  0  0  0  0  0
  1  4  1  0  0  0  0
  2  6  1  0  0  0  0
  2  1  2  0  0  0  0
  3  6  2  0  0  0  0
  4 14  2  0  0  0  0
  4 12  1  0  0  0  0
  5 30  1  0  0  0  0
  7 23  1  6  0  0  0
  7 10  1  0  0  0  0
  8 17  2  0  0  0  0
  8 16  1  0  0  0  0
  9  3  1  0  0  0  0
 10 14  1  0  0  0  0
 11  1  1  0  0  0  0
 11  7  1  0  0  0  0
 12  5  2  0  0  0  0
 13 18  2  0  0  0  0
 14 15  1  0  0  0  0
 15  5  1  0  0  0  0
 16 11  2  0  0  0  0
 17  2  1  0  0  0  0
 18  9  1  0  0  0  0
 18 17  1  0  0  0  0
 21 20  2  0  0  0  0
 22 19  1  0  0  0  0
 22 21  1  0  0  0  0
 23 21  1  0  0  0  0
 25 24  1  1  0  0  0
 25 22  1  0  0  0  0
 26 25  1  0  0  0  0
 27 26  1  0  0  0  0
 28 27  2  0  0  0  0
 29 27  1  0  0  0  0
 30 31  2  0  0  0  0
M  END
>  <MODEL>
6

>  <REMARK>
 VINA RESULT:      -8.1      3.465      6.965
  Name = 
  5 active torsions:
  status: ('A' for Active; 'I' for Inactive)
    1  A    between atoms: C_1  and  O_24
    2  A    between atoms: C_2  and  C_13
    3  A    between atoms: C_15  and  N_23
    4  A    between atoms: C_19  and  N_22
    5  A    between atoms: C_19  and  O_24
                            x       y       z     vdW  Elec       q    Type
                         _______ _______ _______ _____ _____    ______ ____

>  <TORSDO>
F 5

$$$$
=
 OpenBabel10262419403D

 31 34  0  0  1  0  0  0  0  0999 V2000
  185.6220  178.4100  142.7140 C   0  0  0  0  0  0  0  0  0  0  0  0
  186.0070  178.3630  144.0690 C   0  0  0  0  0  0  0  0  0  0  0  0
  187.6740  178.1990  145.7430 C   0  0  0  0  0  3  0  0  0  0  0  0
  186.5850  178.3520  141.5990 C   0  0  0  0  0  0  0  0  0  0  0  0
  188.2880  178.2000  140.2560 C   0  0  0  0  0  0  0  0  0  0  0  0
  187.3130  178.2480  144.4340 N   0  0  0  0  0  2  0  0  0  0  0  0
  183.7850  178.4870  140.9310 C   0  0  1  0  0  3  0  0  0  0  0  0
  183.7030  178.5500  144.7200 N   0  0  0  0  0  0  0  0  0  0  0  0
  186.7280  178.2710  146.7160 N   0  0  0  0  0  0  0  0  0  0  0  0
  184.8290  179.0020  139.9150 C   0  0  0  0  0  2  0  0  0  0  0  0
  184.2510  178.5490  142.3840 C   0  0  0  0  0  0  0  0  0  0  0  0
  187.9420  178.0830  141.5980 C   0  0  0  0  0  3  0  0  0  0  0  0
  184.5560  178.4660  147.3330 O   0  0  0  0  0  0  0  0  0  0  0  0
  186.2120  178.6000  140.3060 C   0  0  0  0  0  0  0  0  0  0  0  0
  187.2480  178.5140  139.5140 O   0  0  0  0  0  0  0  0  0  0  0  0
  183.3090  178.5940  143.4200 C   0  0  0  0  0  3  0  0  0  0  0  0
  185.0140  178.4420  145.0660 C   0  0  0  0  0  0  0  0  0  0  0  0
  185.4100  178.3930  146.4080 C   0  0  0  0  0  0  0  0  0  0  0  0
  178.9420  178.7940  139.5630 C   0  0  0  0  0  1  0  0  0  0  0  0
  181.2960  177.3630  140.0950 O   0  0  0  0  0  0  0  0  0  0  0  0
  181.3290  178.6070  140.3050 C   0  0  0  0  0  0  0  0  0  0  0  0
  180.1540  179.4040  140.0960 N   0  0  0  0  0  0  0  0  0  0  0  0
  182.5390  179.2240  140.7560 N   0  0  0  0  0  2  0  0  0  0  0  0
  179.1720  181.2570  141.3690 C   0  0  0  0  0  1  0  0  0  0  0  0
  180.2020  180.8440  140.3290 C   0  0  2  0  0  3  0  0  0  0  0  0
  179.9910  181.5430  139.1060 O   0  0  0  0  0  0  0  0  0  0  0  0
  181.0460  182.0230  138.3270 C   0  0  0  0  0  0  0  0  0  0  0  0
  182.1990  181.5240  138.4230 O   0  0  0  0  0  0  0  0  0  0  0  0
  180.8050  183.1390  137.3690 C   0  0  0  0  0  1  0  0  0  0  0  0
  189.6320  178.0080  139.7100 C   0  0  0  0  0  3  0  0  0  0  0  0
  190.5430  177.4900  140.4100 O   0  0  0  0  0  0  0  0  0  0  0  0
  1  2  1  0  0  0  0
  2  6  1  0  0  0  0
  2 17  2  0  0  0  0
  3  9  2  0  0  0  0
  4  1  1  0  0  0  0
  5 12  2  0  0  0  0
  6  3  1  0  0  0  0
  7 23  1  1  0  0  0
  7 11  1  0  0  0  0
  8 17  1  0  0  0  0
 10 14  1  0  0  0  0
 10  7  1  0  0  0  0
 11  1  2  0  0  0  0
 11 16  1  0  0  0  0
 12  4  1  0  0  0  0
 14  4  2  0  0  0  0
 15  5  1  0  0  0  0
 15 14  1  0  0  0  0
 16  8  2  0  0  0  0
 17 18  1  0  0  0  0
 18  9  1  0  0  0  0
 18 13  2  0  0  0  0
 19 22  1  0  0  0  0
 20 21  2  0  0  0  0
 21 23  1  0  0  0  0
 22 21  1  0  0  0  0
 22 25  1  0  0  0  0
 25 24  1  1  0  0  0
 26 25  1  0  0  0  0
 27 28  2  0  0  0  0
 27 26  1  0  0  0  0
 29 27  1  0  0  0  0
 30  5  1  0  0  0  0
 30 31  2  0  0  0  0
M  END
>  <MODEL>
7

>  <REMARK>
 VINA RESULT:      -8.0      4.430      7.957
  Name = 
  5 active torsions:
  status: ('A' for Active; 'I' for Inactive)
    1  A    between atoms: C_1  and  O_24
    2  A    between atoms: C_2  and  C_13
    3  A    between atoms: C_15  and  N_23
    4  A    between atoms: C_19  and  N_22
    5  A    between atoms: C_19  and  O_24
                            x       y       z     vdW  Elec       q    Type
                         _______ _______ _______ _____ _____    ______ ____

>  <TORSDO>
F 5

$$$$
=
 OpenBabel10262419403D

 31 34  0  0  1  0  0  0  0  0999 V2000
  186.3350  178.1980  143.3860 C   0  0  0  0  0  0  0  0  0  0  0  0
  186.9280  177.9130  144.6320 C   0  0  0  0  0  0  0  0  0  0  0  0
  186.7780  177.6100  146.9760 C   0  0  0  0  0  3  0  0  0  0  0  0
  184.8940  178.4700  143.2210 C   0  0  0  0  0  0  0  0  0  0  0  0
  182.7600  178.8520  143.3970 C   0  0  0  0  0  0  0  0  0  0  0  0
  186.1960  177.8820  145.7780 N   0  0  0  0  0  2  0  0  0  0  0  0
  186.5510  178.6190  140.8690 C   0  0  1  0  0  3  0  0  0  0  0  0
  189.0610  177.6840  143.5510 N   0  0  0  0  0  0  0  0  0  0  0  0
  188.1120  177.3570  147.0450 N   0  0  0  0  0  0  0  0  0  0  0  0
  185.0460  178.3070  140.7130 C   0  0  0  0  0  2  0  0  0  0  0  0
  187.1350  178.2020  142.2160 C   0  0  0  0  0  0  0  0  0  0  0  0
  183.9050  178.6700  144.1680 C   0  0  0  0  0  3  0  0  0  0  0  0
  190.1220  177.1220  146.0250 O   0  0  0  0  0  0  0  0  0  0  0  0
  184.3070  178.5450  141.9880 C   0  0  0  0  0  0  0  0  0  0  0  0
  183.0250  178.7660  142.1110 O   0  0  0  0  0  0  0  0  0  0  0  0
  188.5090  177.9590  142.3400 C   0  0  0  0  0  3  0  0  0  0  0  0
  188.3110  177.6500  144.6860 C   0  0  0  0  0  0  0  0  0  0  0  0
  188.8890  177.3690  145.9300 C   0  0  0  0  0  0  0  0  0  0  0  0
  187.2950  177.6650  135.9730 C   0  0  0  0  0  1  0  0  0  0  0  0
  186.0210  178.9990  138.0880 O   0  0  0  0  0  0  0  0  0  0  0  0
  186.9530  178.2070  138.3970 C   0  0  0  0  0  0  0  0  0  0  0  0
  187.6820  177.5170  137.3710 N   0  0  0  0  0  0  0  0  0  0  0  0
  187.2870  177.9990  139.7730 N   0  0  0  0  0  2  0  0  0  0  0  0
  190.1130  177.2370  137.5350 C   0  0  0  0  0  1  0  0  0  0  0  0
  188.7500  176.5920  137.7360 C   0  0  2  0  0  3  0  0  0  0  0  0
  188.6420  175.3950  136.9730 O   0  0  0  0  0  0  0  0  0  0  0  0
  189.7400  174.5700  136.7150 C   0  0  0  0  0  0  0  0  0  0  0  0
  190.2940  173.9230  137.6440 O   0  0  0  0  0  0  0  0  0  0  0  0
  190.2620  174.4540  135.3240 C   0  0  0  0  0  1  0  0  0  0  0  0
  181.4190  179.1050  143.9240 C   0  0  0  0  0  3  0  0  0  0  0  0
  180.4850  178.2830  143.7270 O   0  0  0  0  0  0  0  0  0  0  0  0
  1  2  1  0  0  0  0
  2 17  2  0  0  0  0
  2  6  1  0  0  0  0
  3  9  2  0  0  0  0
  4  1  1  0  0  0  0
  4 12  1  0  0  0  0
  5 30  1  0  0  0  0
  5 12  2  0  0  0  0
  6  3  1  0  0  0  0
  7 23  1  6  0  0  0
  7 11  1  0  0  0  0
  8 17  1  0  0  0  0
 10  7  1  0  0  0  0
 10 14  1  0  0  0  0
 11 16  1  0  0  0  0
 11  1  2  0  0  0  0
 14 15  1  0  0  0  0
 14  4  2  0  0  0  0
 15  5  1  0  0  0  0
 16  8  2  0  0  0  0
 17 18  1  0  0  0  0
 18 13  2  0  0  0  0
 18  9  1  0  0  0  0
 19 22  1  0  0  0  0
 20 21  2  0  0  0  0
 21 23  1  0  0  0  0
 22 25  1  0  0  0  0
 22 21  1  0  0  0  0
 25 24  1  6  0  0  0
 26 25  1  0  0  0  0
 27 26  1  0  0  0  0
 27 28  2  0  0  0  0
 29 27  1  0  0  0  0
 31 30  2  0  0  0  0
M  END
>  <MODEL>
8

>  <REMARK>
 VINA RESULT:      -7.9      1.856      2.298
  Name = 
  5 active torsions:
  status: ('A' for Active; 'I' for Inactive)
    1  A    between atoms: C_1  and  O_24
    2  A    between atoms: C_2  and  C_13
    3  A    between atoms: C_15  and  N_23
    4  A    between atoms: C_19  and  N_22
    5  A    between atoms: C_19  and  O_24
                            x       y       z     vdW  Elec       q    Type
                         _______ _______ _______ _____ _____    ______ ____

>  <TORSDO>
F 5

$$$$
=
 OpenBabel10262419403D

 31 34  0  0  1  0  0  0  0  0999 V2000
  188.7000  178.0270  140.4980 C   0  0  0  0  0  0  0  0  0  0  0  0
  187.5090  178.1100  139.7500 C   0  0  0  0  0  0  0  0  0  0  0  0
  186.3080  177.8210  137.7290 C   0  0  0  0  0  3  0  0  0  0  0  0
  189.9690  177.5220  139.9410 C   0  0  0  0  0  0  0  0  0  0  0  0
  191.6300  176.7650  138.7570 C   0  0  0  0  0  0  0  0  0  0  0  0
  187.4610  177.7330  138.4430 N   0  0  0  0  0  0  0  0  0  0  0  0
  189.9910  178.4470  142.6700 C   0  0  1  0  0  3  0  0  0  0  0  0
  186.3710  178.9790  141.6790 N   0  0  0  0  0  0  0  0  0  0  0  0
  185.1740  178.2860  138.3180 N   0  0  0  0  0  2  0  0  0  0  0  0
  191.0410  177.4080  142.2170 C   0  0  0  0  0  2  0  0  0  0  0  0
  188.6970  178.4140  141.8610 C   0  0  0  0  0  0  0  0  0  0  0  0
  190.3160  177.2090  138.6380 C   0  0  0  0  0  3  0  0  0  0  0  0
  184.0950  179.0890  140.1410 O   0  0  0  0  0  0  0  0  0  0  0  0
  191.0550  177.2610  140.7320 C   0  0  0  0  0  0  0  0  0  0  0  0
  192.0400  176.8000  140.0070 O   0  0  0  0  0  0  0  0  0  0  0  0
  187.5100  178.9100  142.4170 C   0  0  0  0  0  3  0  0  0  0  0  0
  186.3410  178.5910  140.3750 C   0  0  0  0  0  0  0  0  0  0  0  0
  185.1640  178.6690  139.6210 C   0  0  0  0  0  0  0  0  0  0  0  0
  190.9760  176.4160  147.1790 C   0  0  0  0  0  1  0  0  0  0  0  0
  191.5910  176.9360  144.4910 O   0  0  0  0  0  0  0  0  0  0  0  0
  190.5430  177.4720  144.9470 C   0  0  0  0  0  0  0  0  0  0  0  0
  190.1810  177.2880  146.3230 N   0  0  0  0  0  0  0  0  0  0  0  0
  189.7180  178.2670  144.0910 N   0  0  0  0  0  2  0  0  0  0  0  0
  189.0880  178.1790  148.3300 C   0  0  0  0  0  1  0  0  0  0  0  0
  188.9610  177.8990  146.8400 C   0  0  2  0  0  3  0  0  0  0  0  0
  187.8430  177.0560  146.5810 O   0  0  0  0  0  0  0  0  0  0  0  0
  186.6770  177.5250  145.9730 C   0  0  0  0  0  0  0  0  0  0  0  0
  186.3220  177.0990  144.8400 O   0  0  0  0  0  0  0  0  0  0  0  0
  185.8400  178.5410  146.6710 C   0  0  0  0  0  1  0  0  0  0  0  0
  192.4710  176.3090  137.6500 C   0  0  0  0  0  3  0  0  0  0  0  0
  193.6280  176.7790  137.4850 O   0  0  0  0  0  0  0  0  0  0  0  0
  1 11  1  0  0  0  0
  2 17  1  0  0  0  0
  2  1  2  0  0  0  0
  3  9  1  0  0  0  0
  3  6  2  0  0  0  0
  4  1  1  0  0  0  0
  4 14  2  0  0  0  0
  5 15  1  0  0  0  0
  6  2  1  0  0  0  0
  7 23  1  1  0  0  0
  8 16  1  0  0  0  0
  9 18  1  0  0  0  0
 10  7  1  0  0  0  0
 11 16  2  0  0  0  0
 11  7  1  0  0  0  0
 12  5  2  0  0  0  0
 12  4  1  0  0  0  0
 14 10  1  0  0  0  0
 15 14  1  0  0  0  0
 17  8  2  0  0  0  0
 18 13  2  0  0  0  0
 18 17  1  0  0  0  0
 20 21  2  0  0  0  0
 21 22  1  0  0  0  0
 22 25  1  0  0  0  0
 22 19  1  0  0  0  0
 23 21  1  0  0  0  0
 25 24  1  1  0  0  0
 26 25  1  0  0  0  0
 27 26  1  0  0  0  0
 27 29  1  0  0  0  0
 28 27  2  0  0  0  0
 30  5  1  0  0  0  0
 31 30  2  0  0  0  0
M  END
>  <MODEL>
9

>  <REMARK>
 VINA RESULT:      -7.8      2.295      8.258
  Name = 
  5 active torsions:
  status: ('A' for Active; 'I' for Inactive)
    1  A    between atoms: C_1  and  O_24
    2  A    between atoms: C_2  and  C_13
    3  A    between atoms: C_15  and  N_23
    4  A    between atoms: C_19  and  N_22
    5  A    between atoms: C_19  and  O_24
                            x       y       z     vdW  Elec       q    Type
                         _______ _______ _______ _____ _____    ______ ____

>  <TORSDO>
F 5

$$$$
