=
 OpenBabel10262420353D

 55 59  0  0  1  0  0  0  0  0999 V2000
  183.7510  177.4320  135.0700 C   0  0  0  0  0  2  0  0  0  0  0  0
  182.5510  178.6340  141.2760 C   0  0  0  0  0  0  0  0  0  0  0  0
  182.9870  176.1690  139.7500 O   0  0  0  0  0  0  0  0  0  0  0  0
  180.9560  176.4750  138.7150 O   0  0  0  0  0  0  0  0  0  0  0  0
  186.0940  177.1930  135.9400 C   0  0  0  0  0  2  0  0  0  0  0  0
  185.6180  178.2440  138.0090 C   0  0  2  0  0  3  0  0  0  0  0  0
  183.0270  176.2730  135.7420 C   0  0  0  0  0  2  0  0  0  0  0  0
  184.4280  178.2500  137.2670 O   0  0  0  0  0  0  0  0  0  0  0  0
  182.1070  179.6970  142.0580 O   0  0  0  0  0  1  0  0  0  0  0  0
  181.6420  177.9590  140.5640 C   0  0  0  0  0  3  0  0  0  0  0  0
  181.9120  176.8240  139.6680 C   0  0  0  0  0  0  0  0  0  0  0  0
  186.5780  177.2580  137.3560 C   0  0  1  0  0  3  0  0  0  0  0  0
  184.0250  178.3210  141.2000 C   0  0  1  0  0  3  0  0  0  0  0  0
  184.8460  178.0490  135.9410 C   0  0  2  0  0  3  0  0  0  0  0  0
  181.3320  175.7720  137.5360 C   0  0  2  0  0  3  0  0  0  0  0  0
  181.8180  176.7960  136.5010 C   0  0  2  0  0  3  0  0  0  0  0  0
  184.6130  178.9360  140.0860 O   0  0  0  0  0  0  0  0  0  0  0  0
  185.3620  177.9250  139.4770 C   0  0  0  0  0  2  0  0  0  0  0  0
  186.4670  175.9830  137.9190 O   0  0  0  0  0  1  0  0  0  0  0  0
  179.3150  174.3730  138.2060 C   0  0  0  0  0  2  0  0  0  0  0  0
  180.0580  173.3190  139.0230 C   0  0  0  0  0  2  0  0  0  0  0  0
  180.6840  173.7260  136.1690 C   0  0  2  0  0  3  0  0  0  0  0  0
  181.3590  172.6320  137.0000 C   0  0  0  0  0  2  0  0  0  0  0  0
  180.4530  172.1500  138.1300 C   0  0  0  0  0  2  0  0  0  0  0  0
  180.1740  174.8870  137.0410 C   0  0  2  0  0  3  0  0  0  0  0  0
  179.5660  173.1530  135.3180 C   0  0  0  0  0  1  0  0  0  0  0  0
  184.1990  177.8190  143.4970 F   0  0  0  0  0  0  0  0  0  0  0  0
  184.8330  178.5430  142.5000 C   0  0  0  0  0  0  0  0  0  0  0  0
  184.7940  179.8800  142.8590 F   0  0  0  0  0  0  0  0  0  0  0  0
  186.2980  178.0620  142.3660 C   0  0  1  0  0  3  0  0  0  0  0  0
  187.1010  179.0550  141.7970 O   0  0  0  0  0  1  0  0  0  0  0  0
  186.9420  177.4900  143.6590 C   0  0  2  0  0  0  0  0  0  0  0  0
  186.4790  176.1870  143.8630 O   0  0  0  0  0  1  0  0  0  0  0  0
  186.1270  177.5110  145.9430 O   0  0  0  0  0  1  0  0  0  0  0  0
  186.5520  178.3240  144.8880 C   0  0  0  0  0  2  0  0  0  0  0  0
  188.4840  177.4430  143.5290 C   0  0  2  0  0  3  0  0  0  0  0  0
  188.9480  176.7310  142.2500 C   0  0  2  0  0  3  0  0  0  0  0  0
  189.6030  175.5340  142.5520 O   0  0  0  0  0  1  0  0  0  0  0  0
  189.8710  177.6280  141.4510 C   0  0  0  0  0  1  0  0  0  0  0  0
  189.0670  176.8460  144.6590 O   0  0  0  0  0  0  0  0  0  0  0  0
  189.5290  178.0500  146.5410 O   0  0  0  0  0  1  0  0  0  0  0  0
  189.8980  177.8230  145.2150 C   0  0  1  0  0  3  0  0  0  0  0  0
  191.9680  176.9670  146.3260 O   0  0  0  0  0  1  0  0  0  0  0  0
  191.3200  177.3720  145.1650 C   0  0  0  0  0  0  0  0  0  0  0  0
  191.9480  177.4070  144.0740 O   0  0  0  0  0  0  0  0  0  0  0  0
  180.7940  177.1610  135.6140 O   0  0  0  0  0  0  0  0  0  0  0  0
  180.3820  182.6290  135.9810 C   0  0  0  0  0  2  0  0  0  0  0  0
  181.3170  179.1650  136.8000 C   0  0  0  0  0  3  0  0  0  0  0  0
  179.3590  182.1370  137.0090 C   0  0  1  0  0  3  0  0  0  0  0  0
  180.1570  181.1510  136.1760 C   0  0  1  0  0  0  0  0  0  0  0  0
  179.5070  179.0890  135.0560 C   0  0  0  0  0  3  0  0  0  0  0  0
  179.4440  180.4270  135.0750 C   0  0  0  0  0  3  0  0  0  0  0  0
  179.8940  182.2580  138.2940 O   0  0  0  0  0  1  0  0  0  0  0  0
  181.2520  180.4550  136.8210 N   0  0  0  0  0  0  0  0  0  0  0  0
  180.2340  178.3290  136.1430 C   0  0  1  0  0  3  0  0  0  0  0  0
  1  7  1  0  0  0  0
  2  9  1  0  0  0  0
  4 11  1  0  0  0  0
  5 14  1  0  0  0  0
  5 12  1  0  0  0  0
  6 18  1  1  0  0  0
  7 16  1  0  0  0  0
  8  6  1  0  0  0  0
 10  2  2  0  0  0  0
 11  3  2  0  0  0  0
 11 10  1  0  0  0  0
 12 19  1  1  0  0  0
 12  6  1  0  0  0  0
 13  2  1  0  0  0  0
 13 28  1  1  0  0  0
 14  1  1  6  0  0  0
 14  8  1  0  0  0  0
 15  4  1  1  0  0  0
 16 46  1  6  0  0  0
 16 15  1  0  0  0  0
 17 13  1  0  0  0  0
 18 17  1  0  0  0  0
 20 21  1  0  0  0  0
 22 26  1  1  0  0  0
 22 23  1  0  0  0  0
 22 25  1  0  0  0  0
 23 24  1  0  0  0  0
 24 21  1  0  0  0  0
 25 15  1  0  0  0  0
 25 20  1  1  0  0  0
 28 29  1  0  0  0  0
 28 27  1  0  0  0  0
 30 31  1  1  0  0  0
 30 28  1  0  0  0  0
 30 32  1  0  0  0  0
 32 33  1  1  0  0  0
 32 35  1  0  0  0  0
 35 34  1  0  0  0  0
 36 32  1  0  0  0  0
 36 40  1  1  0  0  0
 37 39  1  1  0  0  0
 37 38  1  0  0  0  0
 37 36  1  0  0  0  0
 40 42  1  0  0  0  0
 42 41  1  1  0  0  0
 44 42  1  0  0  0  0
 44 43  1  0  0  0  0
 45 44  2  0  0  0  0
 47 50  1  0  0  0  0
 47 49  1  0  0  0  0
 48 54  2  0  0  0  0
 49 53  1  1  0  0  0
 50 52  1  6  0  0  0
 50 54  1  0  0  0  0
 50 49  1  0  0  0  0
 51 52  2  0  0  0  0
 51 55  1  0  0  0  0
 55 46  1  6  0  0  0
 55 48  1  0  0  0  0
M  END
>  <MODEL>
1

>  <REMARK>
 VINA RESULT:      -5.7      0.000      0.000
  Name = 
  12 active torsions:
  status: ('A' for Active; 'I' for Inactive)
    1  A    between atoms: C_1  and  C_53
    2  A    between atoms: C_6  and  C_14
    3  A    between atoms: C_6  and  C_20
    4  A    between atoms: C_6  and  C_53
    5  A    between atoms: C_8  and  C_20
    6  A    between atoms: C_8  and  C_43
    7  A    between atoms: C_11  and  C_29
    8  A    between atoms: C_11  and  O_38
    9  A    between atoms: C_26  and  C_45
   10  A    between atoms: O_33  and  C_49
   11  A    between atoms: O_33  and  C_52
   12  A    between atoms: O_38  and  C_53
                            x       y       z     vdW  Elec       q    Type
                         _______ _______ _______ _____ _____    ______ ____

>  <TORSDO>
F 12

$$$$
=
 OpenBabel10262420353D

 55 59  0  0  1  0  0  0  0  0999 V2000
  184.0550  177.7260  135.3000 C   0  0  0  0  0  2  0  0  0  0  0  0
  184.6130  178.9210  141.5980 C   0  0  0  0  0  0  0  0  0  0  0  0
  183.9450  176.5180  140.0560 O   0  0  0  0  0  0  0  0  0  0  0  0
  181.9340  177.4740  139.4770 O   0  0  0  0  0  0  0  0  0  0  0  0
  186.3410  176.7490  135.6480 C   0  0  0  0  0  2  0  0  0  0  0  0
  186.6550  177.7890  137.7530 C   0  0  2  0  0  3  0  0  0  0  0  0
  183.1710  176.8070  136.1310 C   0  0  0  0  0  2  0  0  0  0  0  0
  185.3960  178.1910  137.2850 O   0  0  0  0  0  0  0  0  0  0  0  0
  184.6890  180.0270  142.4400 O   0  0  0  0  0  1  0  0  0  0  0  0
  183.4130  178.5870  141.1100 C   0  0  0  0  0  3  0  0  0  0  0  0
  183.1290  177.4700  140.1960 C   0  0  0  0  0  0  0  0  0  0  0  0
  187.1090  176.5940  136.9250 C   0  0  1  0  0  3  0  0  0  0  0  0
  185.8710  178.1820  141.2110 C   0  0  1  0  0  3  0  0  0  0  0  0
  185.4430  177.9400  135.9040 C   0  0  2  0  0  3  0  0  0  0  0  0
  181.8210  176.7500  138.2570 C   0  0  2  0  0  3  0  0  0  0  0  0
  182.3670  177.6310  137.1240 C   0  0  2  0  0  3  0  0  0  0  0  0
  186.3700  178.6470  139.9860 O   0  0  0  0  0  0  0  0  0  0  0  0
  186.6290  177.4890  139.2470 C   0  0  0  0  0  2  0  0  0  0  0  0
  186.7350  175.3850  137.5200 O   0  0  0  0  0  1  0  0  0  0  0  0
  179.6340  176.0770  139.3700 C   0  0  0  0  0  2  0  0  0  0  0  0
  180.1500  174.8440  140.1080 C   0  0  0  0  0  2  0  0  0  0  0  0
  180.3130  175.0130  137.1680 C   0  0  2  0  0  3  0  0  0  0  0  0
  180.7570  173.7650  137.9350 C   0  0  0  0  0  2  0  0  0  0  0  0
  179.9790  173.6050  139.2390 C   0  0  0  0  0  2  0  0  0  0  0  0
  180.3720  176.2810  138.0390 C   0  0  2  0  0  3  0  0  0  0  0  0
  178.9310  174.8250  136.5720 C   0  0  0  0  0  1  0  0  0  0  0  0
  186.7230  176.9170  143.0080 F   0  0  0  0  0  0  0  0  0  0  0  0
  186.9620  178.0850  142.3020 C   0  0  0  0  0  0  0  0  0  0  0  0
  186.8440  179.1450  143.1860 F   0  0  0  0  0  0  0  0  0  0  0  0
  188.3870  178.0420  141.7000 C   0  0  1  0  0  3  0  0  0  0  0  0
  188.8420  179.3280  141.3970 O   0  0  0  0  0  1  0  0  0  0  0  0
  189.4430  177.2500  142.5200 C   0  0  2  0  0  0  0  0  0  0  0  0
  190.6440  177.2100  141.8040 O   0  0  0  0  0  1  0  0  0  0  0  0
  190.0800  174.9300  142.8230 O   0  0  0  0  0  1  0  0  0  0  0  0
  188.9900  175.8020  142.7550 C   0  0  0  0  0  2  0  0  0  0  0  0
  189.7120  177.9400  143.8790 C   0  0  2  0  0  3  0  0  0  0  0  0
  191.1830  178.3430  144.0570 C   0  0  2  0  0  3  0  0  0  0  0  0
  191.7850  177.6040  145.0790 O   0  0  0  0  0  1  0  0  0  0  0  0
  191.2910  179.8220  144.3690 C   0  0  0  0  0  1  0  0  0  0  0  0
  189.2950  177.1280  144.9480 O   0  0  0  0  0  0  0  0  0  0  0  0
  187.3210  177.8960  145.7930 O   0  0  0  0  0  1  0  0  0  0  0  0
  188.7100  177.9970  145.8730 C   0  0  1  0  0  3  0  0  0  0  0  0
  188.9620  178.5390  148.3010 O   0  0  0  0  0  1  0  0  0  0  0  0
  189.1540  177.6450  147.2540 C   0  0  0  0  0  0  0  0  0  0  0  0
  189.7500  176.5550  147.4600 O   0  0  0  0  0  0  0  0  0  0  0  0
  181.3400  178.3320  136.4730 O   0  0  0  0  0  0  0  0  0  0  0  0
  179.7540  183.4680  137.6180 C   0  0  0  0  0  2  0  0  0  0  0  0
  180.8570  180.5330  135.6890 C   0  0  0  0  0  3  0  0  0  0  0  0
  181.2700  183.6050  137.4520 C   0  0  1  0  0  3  0  0  0  0  0  0
  180.5950  182.2520  137.3200 C   0  0  1  0  0  0  0  0  0  0  0  0
  181.2310  180.0450  138.1270 C   0  0  0  0  0  3  0  0  0  0  0  0
  180.7750  181.2670  138.4340 C   0  0  0  0  0  3  0  0  0  0  0  0
  181.5550  184.1500  136.1980 O   0  0  0  0  0  1  0  0  0  0  0  0
  180.4220  181.7130  135.9850 N   0  0  0  0  0  0  0  0  0  0  0  0
  181.6010  179.6870  136.7060 C   0  0  1  0  0  3  0  0  0  0  0  0
  1  7  1  0  0  0  0
  2  9  1  0  0  0  0
  3 11  2  0  0  0  0
  4 11  1  0  0  0  0
  5 14  1  0  0  0  0
  5 12  1  0  0  0  0
  6 18  1  1  0  0  0
  7 16  1  0  0  0  0
  8  6  1  0  0  0  0
 10  2  2  0  0  0  0
 11 10  1  0  0  0  0
 12 19  1  1  0  0  0
 12  6  1  0  0  0  0
 13  2  1  0  0  0  0
 13 28  1  1  0  0  0
 14  1  1  1  0  0  0
 14  8  1  0  0  0  0
 15  4  1  1  0  0  0
 16 46  1  6  0  0  0
 16 15  1  0  0  0  0
 17 13  1  0  0  0  0
 18 17  1  0  0  0  0
 20 21  1  0  0  0  0
 22 26  1  1  0  0  0
 22 23  1  0  0  0  0
 22 25  1  0  0  0  0
 23 24  1  0  0  0  0
 24 21  1  0  0  0  0
 25 15  1  0  0  0  0
 25 20  1  1  0  0  0
 28 27  1  0  0  0  0
 28 29  1  0  0  0  0
 30 31  1  1  0  0  0
 30 28  1  0  0  0  0
 30 32  1  0  0  0  0
 32 33  1  6  0  0  0
 32 35  1  0  0  0  0
 32 36  1  0  0  0  0
 35 34  1  0  0  0  0
 36 37  1  0  0  0  0
 36 40  1  1  0  0  0
 37 39  1  1  0  0  0
 37 38  1  0  0  0  0
 40 42  1  0  0  0  0
 42 41  1  1  0  0  0
 42 44  1  0  0  0  0
 44 45  2  0  0  0  0
 44 43  1  0  0  0  0
 48 54  2  0  0  0  0
 48 55  1  0  0  0  0
 49 53  1  6  0  0  0
 49 47  1  0  0  0  0
 50 49  1  0  0  0  0
 50 47  1  1  0  0  0
 50 52  1  0  0  0  0
 51 52  2  0  0  0  0
 54 50  1  0  0  0  0
 55 46  1  6  0  0  0
 55 51  1  0  0  0  0
M  END
>  <MODEL>
2

>  <REMARK>
 VINA RESULT:      -5.5      1.513      2.420
  Name = 
  12 active torsions:
  status: ('A' for Active; 'I' for Inactive)
    1  A    between atoms: C_1  and  C_53
    2  A    between atoms: C_6  and  C_14
    3  A    between atoms: C_6  and  C_20
    4  A    between atoms: C_6  and  C_53
    5  A    between atoms: C_8  and  C_20
    6  A    between atoms: C_8  and  C_43
    7  A    between atoms: C_11  and  C_29
    8  A    between atoms: C_11  and  O_38
    9  A    between atoms: C_26  and  C_45
   10  A    between atoms: O_33  and  C_49
   11  A    between atoms: O_33  and  C_52
   12  A    between atoms: O_38  and  C_53
                            x       y       z     vdW  Elec       q    Type
                         _______ _______ _______ _____ _____    ______ ____

>  <TORSDO>
F 12

$$$$
=
 OpenBabel10262420353D

 55 59  0  0  1  0  0  0  0  0999 V2000
  181.3190  178.6260  142.9300 C   0  0  0  0  0  2  0  0  0  0  0  0
  185.3950  177.7920  138.0210 C   0  0  0  0  0  0  0  0  0  0  0  0
  184.1700  180.1600  139.2420 O   0  0  0  0  0  0  0  0  0  0  0  0
  182.1310  179.5160  138.3960 O   0  0  0  0  0  0  0  0  0  0  0  0
  183.4440  179.2300  144.1230 C   0  0  0  0  0  2  0  0  0  0  0  0
  184.8480  178.3000  142.4580 C   0  0  2  0  0  3  0  0  0  0  0  0
  181.1930  179.7350  141.8940 C   0  0  0  0  0  2  0  0  0  0  0  0
  183.5260  178.0830  142.0420 O   0  0  0  0  0  0  0  0  0  0  0  0
  185.8530  176.7490  137.2210 O   0  0  0  0  0  1  0  0  0  0  0  0
  184.1780  178.2860  137.7700 C   0  0  0  0  0  3  0  0  0  0  0  0
  183.5130  179.3700  138.5110 C   0  0  0  0  0  0  0  0  0  0  0  0
  184.8300  179.3430  143.5670 C   0  0  1  0  0  3  0  0  0  0  0  0
  186.2400  178.2830  139.1720 C   0  0  1  0  0  3  0  0  0  0  0  0
  182.7670  178.2260  143.2150 C   0  0  2  0  0  3  0  0  0  0  0  0
  181.3830  180.1620  139.4190 C   0  0  2  0  0  3  0  0  0  0  0  0
  181.0640  179.1270  140.5070 C   0  0  2  0  0  3  0  0  0  0  0  0
  185.8670  177.6580  140.3710 O   0  0  0  0  0  0  0  0  0  0  0  0
  185.7430  178.7020  141.2920 C   0  0  0  0  0  2  0  0  0  0  0  0
  184.9980  180.6350  143.0610 O   0  0  0  0  0  1  0  0  0  0  0  0
  179.7990  180.3070  137.4340 C   0  0  0  0  0  2  0  0  0  0  0  0
  180.8150  180.7700  136.3930 C   0  0  0  0  0  2  0  0  0  0  0  0
  180.2960  182.3810  138.8090 C   0  0  2  0  0  3  0  0  0  0  0  0
  181.2560  182.8490  137.7120 C   0  0  0  0  0  2  0  0  0  0  0  0
  180.8590  182.2920  136.3480 C   0  0  0  0  0  2  0  0  0  0  0  0
  180.1390  180.8500  138.8290 C   0  0  2  0  0  3  0  0  0  0  0  0
  178.9490  183.0650  138.6820 C   0  0  0  0  0  1  0  0  0  0  0  0
  188.2880  179.3480  139.6450 F   0  0  0  0  0  0  0  0  0  0  0  0
  187.7690  178.2720  138.9440 C   0  0  0  0  0  0  0  0  0  0  0  0
  188.0490  178.4660  137.6010 F   0  0  0  0  0  0  0  0  0  0  0  0
  188.4240  176.9630  139.4480 C   0  0  1  0  0  3  0  0  0  0  0  0
  188.4120  175.9810  138.4530 O   0  0  0  0  0  1  0  0  0  0  0  0
  189.8390  177.1140  140.0730 C   0  0  2  0  0  0  0  0  0  0  0  0
  190.2780  178.4300  139.9000 O   0  0  0  0  0  1  0  0  0  0  0  0
  192.0820  176.8230  139.1990 O   0  0  0  0  0  1  0  0  0  0  0  0
  190.8510  176.1880  139.3830 C   0  0  0  0  0  2  0  0  0  0  0  0
  189.8030  176.8090  141.5900 C   0  0  2  0  0  3  0  0  0  0  0  0
  188.5420  177.3580  142.2740 C   0  0  2  0  0  3  0  0  0  0  0  0
  188.7780  178.6240  142.8170 O   0  0  0  0  0  1  0  0  0  0  0  0
  188.0790  176.4150  143.3650 C   0  0  0  0  0  1  0  0  0  0  0  0
  190.9560  177.2950  142.2300 O   0  0  0  0  0  0  0  0  0  0  0  0
  192.1130  175.5620  143.1570 O   0  0  0  0  0  1  0  0  0  0  0  0
  191.1110  176.5080  143.3740 C   0  0  1  0  0  3  0  0  0  0  0  0
  191.7090  176.7960  145.7840 O   0  0  0  0  0  1  0  0  0  0  0  0
  191.4820  177.3660  144.5370 C   0  0  0  0  0  0  0  0  0  0  0  0
  191.5400  178.6160  144.3970 O   0  0  0  0  0  0  0  0  0  0  0  0
  179.7910  178.5630  140.3270 O   0  0  0  0  0  0  0  0  0  0  0  0
  182.1630  174.9280  136.9560 C   0  0  0  0  0  2  0  0  0  0  0  0
  179.6170  177.1550  138.4090 C   0  0  0  0  0  3  0  0  0  0  0  0
  181.2730  174.0490  137.8390 C   0  0  1  0  0  3  0  0  0  0  0  0
  181.3440  175.5490  138.0600 C   0  0  1  0  0  0  0  0  0  0  0  0
  181.4600  176.8770  140.0970 C   0  0  0  0  0  3  0  0  0  0  0  0
  182.0930  176.0460  139.2570 C   0  0  0  0  0  3  0  0  0  0  0  0
  180.1190  173.6980  137.1360 O   0  0  0  0  0  1  0  0  0  0  0  0
  180.2260  176.3510  137.6020 N   0  0  0  0  0  0  0  0  0  0  0  0
  180.0150  177.2600  139.8690 C   0  0  1  0  0  3  0  0  0  0  0  0
  2 13  1  0  0  0  0
  4 11  1  0  0  0  0
  6 18  1  6  0  0  0
  6 12  1  0  0  0  0
  7  1  1  0  0  0  0
  8  6  1  0  0  0  0
  8 14  1  0  0  0  0
  9  2  1  0  0  0  0
 10  2  2  0  0  0  0
 10 11  1  0  0  0  0
 11  3  2  0  0  0  0
 12 19  1  6  0  0  0
 12  5  1  0  0  0  0
 13 28  1  6  0  0  0
 13 17  1  0  0  0  0
 14  1  1  6  0  0  0
 14  5  1  0  0  0  0
 15  4  1  6  0  0  0
 15 16  1  0  0  0  0
 16 46  1  6  0  0  0
 16  7  1  0  0  0  0
 17 18  1  0  0  0  0
 21 20  1  0  0  0  0
 22 26  1  6  0  0  0
 22 25  1  0  0  0  0
 23 22  1  0  0  0  0
 24 21  1  0  0  0  0
 24 23  1  0  0  0  0
 25 20  1  6  0  0  0
 25 15  1  0  0  0  0
 28 30  1  0  0  0  0
 28 27  1  0  0  0  0
 29 28  1  0  0  0  0
 30 31  1  6  0  0  0
 30 32  1  0  0  0  0
 32 33  1  6  0  0  0
 32 36  1  0  0  0  0
 34 35  1  0  0  0  0
 35 32  1  0  0  0  0
 36 40  1  1  0  0  0
 36 37  1  0  0  0  0
 37 38  1  0  0  0  0
 37 39  1  1  0  0  0
 40 42  1  0  0  0  0
 42 41  1  6  0  0  0
 42 44  1  0  0  0  0
 44 43  1  0  0  0  0
 45 44  2  0  0  0  0
 47 49  1  0  0  0  0
 48 55  1  0  0  0  0
 49 53  1  6  0  0  0
 49 50  1  0  0  0  0
 50 47  1  6  0  0  0
 50 52  1  0  0  0  0
 52 51  2  0  0  0  0
 54 50  1  0  0  0  0
 54 48  2  0  0  0  0
 55 51  1  0  0  0  0
 55 46  1  6  0  0  0
M  END
>  <MODEL>
3

>  <REMARK>
 VINA RESULT:      -5.1      2.309      5.878
  Name = 
  12 active torsions:
  status: ('A' for Active; 'I' for Inactive)
    1  A    between atoms: C_1  and  C_53
    2  A    between atoms: C_6  and  C_14
    3  A    between atoms: C_6  and  C_20
    4  A    between atoms: C_6  and  C_53
    5  A    between atoms: C_8  and  C_20
    6  A    between atoms: C_8  and  C_43
    7  A    between atoms: C_11  and  C_29
    8  A    between atoms: C_11  and  O_38
    9  A    between atoms: C_26  and  C_45
   10  A    between atoms: O_33  and  C_49
   11  A    between atoms: O_33  and  C_52
   12  A    between atoms: O_38  and  C_53
                            x       y       z     vdW  Elec       q    Type
                         _______ _______ _______ _____ _____    ______ ____

>  <TORSDO>
F 12

$$$$
=
 OpenBabel10262420353D

 55 59  0  0  1  0  0  0  0  0999 V2000
  192.5890  176.8310  139.1290 C   0  0  0  0  0  2  0  0  0  0  0  0
  186.4500  178.4620  138.1040 C   0  0  0  0  0  0  0  0  0  0  0  0
  187.7870  175.9200  138.6930 O   0  0  0  0  0  0  0  0  0  0  0  0
  188.7370  175.9580  136.5980 O   0  0  0  0  0  0  0  0  0  0  0  0
  191.8260  176.8730  141.5210 C   0  0  0  0  0  2  0  0  0  0  0  0
  189.8290  178.0540  141.0450 C   0  0  2  0  0  3  0  0  0  0  0  0
  191.7870  175.6770  138.5440 C   0  0  0  0  0  2  0  0  0  0  0  0
  190.5060  177.8930  139.8270 O   0  0  0  0  0  0  0  0  0  0  0  0
  185.7370  179.5460  137.6010 O   0  0  0  0  0  1  0  0  0  0  0  0
  187.0550  177.6510  137.2290 C   0  0  0  0  0  3  0  0  0  0  0  0
  187.8670  176.4690  137.5600 C   0  0  0  0  0  0  0  0  0  0  0  0
  190.4470  177.1020  142.0590 C   0  0  1  0  0  3  0  0  0  0  0  0
  186.5760  178.2710  139.5950 C   0  0  1  0  0  3  0  0  0  0  0  0
  191.8310  177.6140  140.2010 C   0  0  2  0  0  3  0  0  0  0  0  0
  189.8710  175.1890  136.9830 C   0  0  2  0  0  3  0  0  0  0  0  0
  191.0120  176.1580  137.3280 C   0  0  2  0  0  3  0  0  0  0  0  0
  187.7670  178.8360  140.0750 O   0  0  0  0  0  0  0  0  0  0  0  0
  188.3290  177.8440  140.8840 C   0  0  0  0  0  2  0  0  0  0  0  0
  189.7760  175.8760  142.0900 O   0  0  0  0  0  1  0  0  0  0  0  0
  189.3800  174.3670  134.6260 C   0  0  0  0  0  2  0  0  0  0  0  0
  187.9330  173.9370  134.8560 C   0  0  0  0  0  2  0  0  0  0  0  0
  190.1270  172.7230  136.4100 C   0  0  2  0  0  3  0  0  0  0  0  0
  188.6730  172.2670  136.5650 C   0  0  0  0  0  2  0  0  0  0  0  0
  187.8840  172.4740  135.2750 C   0  0  0  0  0  2  0  0  0  0  0  0
  190.2300  174.1680  135.8900 C   0  0  2  0  0  3  0  0  0  0  0  0
  190.9060  171.7690  135.5260 C   0  0  0  0  0  1  0  0  0  0  0  0
  184.4130  177.6570  140.3020 F   0  0  0  0  0  0  0  0  0  0  0  0
  185.3440  178.6750  140.4370 C   0  0  0  0  0  0  0  0  0  0  0  0
  184.7810  179.8330  139.9270 F   0  0  0  0  0  0  0  0  0  0  0  0
  185.6930  178.8590  141.9340 C   0  0  1  0  0  3  0  0  0  0  0  0
  186.0470  180.1840  142.2060 O   0  0  0  0  0  1  0  0  0  0  0  0
  184.6330  178.3400  142.9430 C   0  0  2  0  0  0  0  0  0  0  0  0
  184.1150  177.1260  142.4810 O   0  0  0  0  0  1  0  0  0  0  0  0
  182.3450  178.8930  142.3600 O   0  0  0  0  0  1  0  0  0  0  0  0
  183.4640  179.3260  143.0760 C   0  0  0  0  0  2  0  0  0  0  0  0
  185.2710  178.0970  144.3330 C   0  0  2  0  0  3  0  0  0  0  0  0
  184.6730  178.9970  145.4240 C   0  0  2  0  0  3  0  0  0  0  0  0
  185.4350  180.1560  145.5930 O   0  0  0  0  0  1  0  0  0  0  0  0
  184.5880  178.2480  146.7380 C   0  0  0  0  0  1  0  0  0  0  0  0
  186.6670  178.2560  144.2810 O   0  0  0  0  0  0  0  0  0  0  0  0
  187.6100  176.2110  143.9220 O   0  0  0  0  0  1  0  0  0  0  0  0
  187.1970  177.1190  144.8960 C   0  0  1  0  0  3  0  0  0  0  0  0
  189.4630  178.1350  145.1860 O   0  0  0  0  0  0  0  0  0  0  0  0
  188.3630  177.4970  145.7470 C   0  0  0  0  0  0  0  0  0  0  0  0
  188.3710  177.1910  146.9690 O   0  0  0  0  0  1  0  0  0  0  0  0
  191.8710  176.3540  136.2360 O   0  0  0  0  0  0  0  0  0  0  0  0
  196.8740  174.2310  135.4200 C   0  0  0  0  0  2  0  0  0  0  0  0
  193.3420  174.4840  136.4240 C   0  0  0  0  0  3  0  0  0  0  0  0
  196.8720  174.5410  136.9190 C   0  0  1  0  0  3  0  0  0  0  0  0
  195.6660  174.8680  136.0590 C   0  0  1  0  0  0  0  0  0  0  0  0
  194.2000  176.8110  136.0070 C   0  0  0  0  0  3  0  0  0  0  0  0
  195.4090  176.3070  135.7300 C   0  0  0  0  0  3  0  0  0  0  0  0
  196.6710  173.3610  137.6400 O   0  0  0  0  0  1  0  0  0  0  0  0
  194.5100  174.0000  136.1610 N   0  0  0  0  0  0  0  0  0  0  0  0
  193.1410  175.9670  136.6790 C   0  0  1  0  0  3  0  0  0  0  0  0
  2 13  1  0  0  0  0
  4 11  1  0  0  0  0
  5 12  1  0  0  0  0
  6 18  1  6  0  0  0
  6 12  1  0  0  0  0
  7  1  1  0  0  0  0
  8 14  1  0  0  0  0
  8  6  1  0  0  0  0
  9  2  1  0  0  0  0
 10 11  1  0  0  0  0
 10  2  2  0  0  0  0
 11  3  2  0  0  0  0
 12 19  1  6  0  0  0
 13 17  1  0  0  0  0
 13 28  1  1  0  0  0
 14  1  1  6  0  0  0
 14  5  1  0  0  0  0
 15  4  1  6  0  0  0
 15 16  1  0  0  0  0
 16 46  1  6  0  0  0
 16  7  1  0  0  0  0
 17 18  1  0  0  0  0
 20 21  1  0  0  0  0
 21 24  1  0  0  0  0
 22 26  1  6  0  0  0
 22 23  1  0  0  0  0
 24 23  1  0  0  0  0
 25 20  1  6  0  0  0
 25 22  1  0  0  0  0
 25 15  1  0  0  0  0
 27 28  1  0  0  0  0
 28 30  1  0  0  0  0
 29 28  1  0  0  0  0
 30 31  1  6  0  0  0
 30 32  1  0  0  0  0
 32 33  1  6  0  0  0
 32 35  1  0  0  0  0
 32 36  1  0  0  0  0
 34 35  1  0  0  0  0
 36 40  1  6  0  0  0
 36 37  1  0  0  0  0
 37 38  1  0  0  0  0
 37 39  1  1  0  0  0
 40 42  1  0  0  0  0
 42 41  1  6  0  0  0
 42 44  1  0  0  0  0
 43 44  2  0  0  0  0
 44 45  1  0  0  0  0
 47 49  1  0  0  0  0
 48 55  1  0  0  0  0
 49 53  1  1  0  0  0
 50 47  1  6  0  0  0
 50 54  1  0  0  0  0
 50 49  1  0  0  0  0
 51 55  1  0  0  0  0
 52 51  2  0  0  0  0
 52 50  1  0  0  0  0
 54 48  2  0  0  0  0
 55 46  1  6  0  0  0
M  END
>  <MODEL>
4

>  <REMARK>
 VINA RESULT:      -3.0      4.876      8.869
  Name = 
  12 active torsions:
  status: ('A' for Active; 'I' for Inactive)
    1  A    between atoms: C_1  and  C_53
    2  A    between atoms: C_6  and  C_14
    3  A    between atoms: C_6  and  C_20
    4  A    between atoms: C_6  and  C_53
    5  A    between atoms: C_8  and  C_20
    6  A    between atoms: C_8  and  C_43
    7  A    between atoms: C_11  and  C_29
    8  A    between atoms: C_11  and  O_38
    9  A    between atoms: C_26  and  C_45
   10  A    between atoms: O_33  and  C_49
   11  A    between atoms: O_33  and  C_52
   12  A    between atoms: O_38  and  C_53
                            x       y       z     vdW  Elec       q    Type
                         _______ _______ _______ _____ _____    ______ ____

>  <TORSDO>
F 12

$$$$
=
 OpenBabel10262420353D

 55 59  0  0  1  0  0  0  0  0999 V2000
  191.9040  176.6880  138.9670 C   0  0  0  0  0  2  0  0  0  0  0  0
  185.8680  178.7300  138.0760 C   0  0  0  0  0  0  0  0  0  0  0  0
  187.0440  176.1010  138.6250 O   0  0  0  0  0  0  0  0  0  0  0  0
  187.9520  176.0880  136.5120 O   0  0  0  0  0  0  0  0  0  0  0  0
  191.1940  176.7650  141.3740 C   0  0  0  0  0  2  0  0  0  0  0  0
  189.2710  178.0800  140.9450 C   0  0  2  0  0  3  0  0  0  0  0  0
  191.0150  175.5930  138.3930 C   0  0  0  0  0  2  0  0  0  0  0  0
  189.9110  177.8820  139.7130 O   0  0  0  0  0  0  0  0  0  0  0  0
  185.2180  179.8630  137.5930 O   0  0  0  0  0  1  0  0  0  0  0  0
  186.4000  177.8860  137.1850 C   0  0  0  0  0  3  0  0  0  0  0  0
  187.1380  176.6510  137.4940 C   0  0  0  0  0  0  0  0  0  0  0  0
  189.8450  177.0830  141.9420 C   0  0  1  0  0  3  0  0  0  0  0  0
  186.0110  178.5220  139.5630 C   0  0  1  0  0  3  0  0  0  0  0  0
  191.2210  177.5130  140.0580 C   0  0  2  0  0  3  0  0  0  0  0  0
  189.0400  175.2440  136.8700 C   0  0  2  0  0  3  0  0  0  0  0  0
  190.2500  176.1320  137.1950 C   0  0  2  0  0  3  0  0  0  0  0  0
  187.2470  179.0030  140.0210 O   0  0  0  0  0  0  0  0  0  0  0  0
  187.7570  177.9710  140.8140 C   0  0  0  0  0  2  0  0  0  0  0  0
  189.0940  175.9040  141.9800 O   0  0  0  0  0  1  0  0  0  0  0  0
  188.3250  174.3600  134.5940 C   0  0  0  0  0  2  0  0  0  0  0  0
  186.9210  173.9020  134.9820 C   0  0  0  0  0  2  0  0  0  0  0  0
  189.2950  172.7720  136.3200 C   0  0  2  0  0  3  0  0  0  0  0  0
  187.8780  172.2870  136.6350 C   0  0  0  0  0  2  0  0  0  0  0  0
  186.9530  172.4470  135.4320 C   0  0  0  0  0  2  0  0  0  0  0  0
  189.3080  174.2070  135.7640 C   0  0  2  0  0  3  0  0  0  0  0  0
  190.0020  171.8180  135.3770 C   0  0  0  0  0  1  0  0  0  0  0  0
  184.3070  180.1300  139.8170 F   0  0  0  0  0  0  0  0  0  0  0  0
  184.8250  179.0020  140.4320 C   0  0  0  0  0  0  0  0  0  0  0  0
  185.2770  179.3740  141.6870 F   0  0  0  0  0  0  0  0  0  0  0  0
  183.7190  177.9260  140.5540 C   0  0  1  0  0  3  0  0  0  0  0  0
  183.5890  177.4890  141.8750 O   0  0  0  0  0  1  0  0  0  0  0  0
  182.3390  178.3050  139.9480 C   0  0  2  0  0  0  0  0  0  0  0  0
  182.5070  179.3670  139.0540 O   0  0  0  0  0  1  0  0  0  0  0  0
  180.5320  179.7920  140.5840 O   0  0  0  0  0  1  0  0  0  0  0  0
  181.3620  178.7630  141.0400 C   0  0  0  0  0  2  0  0  0  0  0  0
  181.7330  177.1090  139.1740 C   0  0  2  0  0  3  0  0  0  0  0  0
  180.5680  176.4480  139.9240 C   0  0  2  0  0  3  0  0  0  0  0  0
  180.9220  175.1740  140.3780 O   0  0  0  0  0  1  0  0  0  0  0  0
  179.3510  176.3470  139.0270 C   0  0  0  0  0  1  0  0  0  0  0  0
  182.7190  176.1560  138.8670 O   0  0  0  0  0  0  0  0  0  0  0  0
  183.2510  176.9180  136.7840 O   0  0  0  0  0  1  0  0  0  0  0  0
  182.5940  175.9150  137.4960 C   0  0  1  0  0  3  0  0  0  0  0  0
  184.4640  174.2590  137.6080 O   0  0  0  0  0  1  0  0  0  0  0  0
  183.1930  174.5910  137.1550 C   0  0  0  0  0  0  0  0  0  0  0  0
  182.5620  173.7940  136.4110 O   0  0  0  0  0  0  0  0  0  0  0  0
  191.0980  176.2780  136.0870 O   0  0  0  0  0  0  0  0  0  0  0  0
  196.0720  174.2800  134.8760 C   0  0  0  0  0  2  0  0  0  0  0  0
  192.4460  174.4000  135.4940 C   0  0  0  0  0  3  0  0  0  0  0  0
  195.8660  173.8340  136.3260 C   0  0  1  0  0  3  0  0  0  0  0  0
  194.8120  174.6600  135.6120 C   0  0  1  0  0  0  0  0  0  0  0  0
  193.4520  176.5360  136.3600 C   0  0  0  0  0  3  0  0  0  0  0  0
  194.6670  176.0990  136.0020 C   0  0  0  0  0  3  0  0  0  0  0  0
  195.5130  172.4830  136.3530 O   0  0  0  0  0  1  0  0  0  0  0  0
  193.6180  173.9780  135.1530 N   0  0  0  0  0  0  0  0  0  0  0  0
  192.2720  175.5920  136.4170 C   0  0  1  0  0  3  0  0  0  0  0  0
  2 13  1  0  0  0  0
  4 11  1  0  0  0  0
  5 12  1  0  0  0  0
  6 18  1  6  0  0  0
  6 12  1  0  0  0  0
  7  1  1  0  0  0  0
  8 14  1  0  0  0  0
  8  6  1  0  0  0  0
  9  2  1  0  0  0  0
 10 11  1  0  0  0  0
 10  2  2  0  0  0  0
 11  3  2  0  0  0  0
 12 19  1  6  0  0  0
 13 17  1  0  0  0  0
 13 28  1  1  0  0  0
 14  1  1  6  0  0  0
 14  5  1  0  0  0  0
 15  4  1  6  0  0  0
 15 16  1  0  0  0  0
 16 46  1  6  0  0  0
 16  7  1  0  0  0  0
 17 18  1  0  0  0  0
 20 21  1  0  0  0  0
 21 24  1  0  0  0  0
 22 26  1  6  0  0  0
 22 23  1  0  0  0  0
 24 23  1  0  0  0  0
 25 20  1  6  0  0  0
 25 22  1  0  0  0  0
 25 15  1  0  0  0  0
 27 28  1  0  0  0  0
 28 30  1  0  0  0  0
 28 29  1  0  0  0  0
 30 31  1  1  0  0  0
 32 33  1  6  0  0  0
 32 30  1  0  0  0  0
 32 35  1  0  0  0  0
 34 35  1  0  0  0  0
 36 40  1  1  0  0  0
 36 37  1  0  0  0  0
 36 32  1  0  0  0  0
 37 39  1  6  0  0  0
 37 38  1  0  0  0  0
 42 41  1  6  0  0  0
 42 40  1  0  0  0  0
 44 42  1  0  0  0  0
 44 43  1  0  0  0  0
 45 44  2  0  0  0  0
 47 49  1  0  0  0  0
 48 55  1  0  0  0  0
 49 53  1  6  0  0  0
 50 47  1  6  0  0  0
 50 52  1  0  0  0  0
 50 49  1  0  0  0  0
 51 55  1  0  0  0  0
 52 51  2  0  0  0  0
 54 48  2  0  0  0  0
 54 50  1  0  0  0  0
 55 46  1  6  0  0  0
M  END
>  <MODEL>
5

>  <REMARK>
 VINA RESULT:      -3.0      4.383      9.447
  Name = 
  12 active torsions:
  status: ('A' for Active; 'I' for Inactive)
    1  A    between atoms: C_1  and  C_53
    2  A    between atoms: C_6  and  C_14
    3  A    between atoms: C_6  and  C_20
    4  A    between atoms: C_6  and  C_53
    5  A    between atoms: C_8  and  C_20
    6  A    between atoms: C_8  and  C_43
    7  A    between atoms: C_11  and  C_29
    8  A    between atoms: C_11  and  O_38
    9  A    between atoms: C_26  and  C_45
   10  A    between atoms: O_33  and  C_49
   11  A    between atoms: O_33  and  C_52
   12  A    between atoms: O_38  and  C_53
                            x       y       z     vdW  Elec       q    Type
                         _______ _______ _______ _____ _____    ______ ____

>  <TORSDO>
F 12

$$$$
=
 OpenBabel10262420353D

 55 59  0  0  1  0  0  0  0  0999 V2000
  191.6450  177.2290  139.9900 C   0  0  0  0  0  2  0  0  0  0  0  0
  185.5710  178.6510  138.4140 C   0  0  0  0  0  0  0  0  0  0  0  0
  187.0070  176.1280  138.8280 O   0  0  0  0  0  0  0  0  0  0  0  0
  188.1940  176.5100  136.8950 O   0  0  0  0  0  0  0  0  0  0  0  0
  190.6030  176.8940  142.2490 C   0  0  0  0  0  2  0  0  0  0  0  0
  188.5970  178.0200  141.6820 C   0  0  2  0  0  3  0  0  0  0  0  0
  191.0030  176.1260  139.1600 C   0  0  0  0  0  2  0  0  0  0  0  0
  189.4240  178.0680  140.5500 O   0  0  0  0  0  0  0  0  0  0  0  0
  184.8470  179.7550  137.9720 O   0  0  0  0  0  1  0  0  0  0  0  0
  186.3330  178.0050  137.5240 C   0  0  0  0  0  3  0  0  0  0  0  0
  187.1820  176.8340  137.7970 C   0  0  0  0  0  0  0  0  0  0  0  0
  189.1570  176.9710  142.6330 C   0  0  1  0  0  3  0  0  0  0  0  0
  185.5330  178.2610  139.8710 C   0  0  1  0  0  3  0  0  0  0  0  0
  190.7110  177.8120  141.0500 C   0  0  2  0  0  3  0  0  0  0  0  0
  189.3260  175.7590  137.3170 C   0  0  2  0  0  3  0  0  0  0  0  0
  190.3460  176.7300  137.9290 C   0  0  2  0  0  3  0  0  0  0  0  0
  186.6150  178.8170  140.5690 O   0  0  0  0  0  0  0  0  0  0  0  0
  187.1450  177.7530  141.3050 C   0  0  0  0  0  2  0  0  0  0  0  0
  188.5760  175.7180  142.4150 O   0  0  0  0  0  1  0  0  0  0  0  0
  189.0380  175.0820  134.8810 C   0  0  0  0  0  2  0  0  0  0  0  0
  187.6870  174.3840  135.0200 C   0  0  0  0  0  2  0  0  0  0  0  0
  190.0310  173.4390  136.5420 C   0  0  2  0  0  3  0  0  0  0  0  0
  188.6800  172.7220  136.6040 C   0  0  0  0  0  2  0  0  0  0  0  0
  187.8920  172.9030  135.3080 C   0  0  0  0  0  2  0  0  0  0  0  0
  189.8840  174.9210  136.1530 C   0  0  2  0  0  3  0  0  0  0  0  0
  190.9870  172.7230  135.6070 C   0  0  0  0  0  1  0  0  0  0  0  0
  183.9740  179.8430  140.6580 F   0  0  0  0  0  0  0  0  0  0  0  0
  184.1830  178.4750  140.5940 C   0  0  0  0  0  0  0  0  0  0  0  0
  184.2590  177.9970  141.8920 F   0  0  0  0  0  0  0  0  0  0  0  0
  183.0060  177.8080  139.8420 C   0  0  1  0  0  3  0  0  0  0  0  0
  182.8630  176.4700  140.2210 O   0  0  0  0  0  1  0  0  0  0  0  0
  181.6470  178.5600  139.9120 C   0  0  2  0  0  0  0  0  0  0  0  0
  181.5910  179.2950  141.1000 O   0  0  0  0  0  1  0  0  0  0  0  0
  179.8270  177.5490  141.1540 O   0  0  0  0  0  1  0  0  0  0  0  0
  180.4690  177.5770  139.9130 C   0  0  0  0  0  2  0  0  0  0  0  0
  181.5050  179.5440  138.7250 C   0  0  2  0  0  3  0  0  0  0  0  0
  180.8910  180.8880  139.1420 C   0  0  2  0  0  3  0  0  0  0  0  0
  179.5050  180.8850  138.9600 O   0  0  0  0  0  1  0  0  0  0  0  0
  181.5060  182.0200  138.3430 C   0  0  0  0  0  1  0  0  0  0  0  0
  180.7600  178.9700  137.6810 O   0  0  0  0  0  0  0  0  0  0  0  0
  182.2520  177.7710  136.4410 O   0  0  0  0  0  1  0  0  0  0  0  0
  181.5970  178.9960  136.5630 C   0  0  1  0  0  3  0  0  0  0  0  0
  180.2660  178.1940  134.6040 O   0  0  0  0  0  0  0  0  0  0  0  0
  180.7950  179.2540  135.3310 C   0  0  0  0  0  0  0  0  0  0  0  0
  180.6410  180.4350  134.9210 O   0  0  0  0  0  1  0  0  0  0  0  0
  191.3130  177.1240  136.9910 O   0  0  0  0  0  0  0  0  0  0  0  0
  196.0140  174.6630  135.5640 C   0  0  0  0  0  2  0  0  0  0  0  0
  192.5940  175.9990  135.3220 C   0  0  0  0  0  3  0  0  0  0  0  0
  195.0710  173.4830  135.8150 C   0  0  1  0  0  3  0  0  0  0  0  0
  194.5980  174.9110  136.0160 C   0  0  1  0  0  0  0  0  0  0  0  0
  193.2290  175.9280  137.7540 C   0  0  0  0  0  3  0  0  0  0  0  0
  194.4130  175.3970  137.4210 C   0  0  0  0  0  3  0  0  0  0  0  0
  194.6270  172.9730  134.5940 O   0  0  0  0  0  1  0  0  0  0  0  0
  193.7340  175.4830  135.0020 N   0  0  0  0  0  0  0  0  0  0  0  0
  192.0950  175.9880  136.7550 C   0  0  1  0  0  3  0  0  0  0  0  0
  2 13  1  0  0  0  0
  4 11  1  0  0  0  0
  5 12  1  0  0  0  0
  6 18  1  6  0  0  0
  6 12  1  0  0  0  0
  7  1  1  0  0  0  0
  8 14  1  0  0  0  0
  8  6  1  0  0  0  0
  9  2  1  0  0  0  0
 10 11  1  0  0  0  0
 10  2  2  0  0  0  0
 11  3  2  0  0  0  0
 12 19  1  6  0  0  0
 13 17  1  0  0  0  0
 13 28  1  1  0  0  0
 14  1  1  6  0  0  0
 14  5  1  0  0  0  0
 15  4  1  6  0  0  0
 15 16  1  0  0  0  0
 16 46  1  6  0  0  0
 16  7  1  0  0  0  0
 17 18  1  0  0  0  0
 20 21  1  0  0  0  0
 21 24  1  0  0  0  0
 22 26  1  6  0  0  0
 22 23  1  0  0  0  0
 24 23  1  0  0  0  0
 25 20  1  6  0  0  0
 25 22  1  0  0  0  0
 25 15  1  0  0  0  0
 28 27  1  0  0  0  0
 28 29  1  0  0  0  0
 30 32  1  0  0  0  0
 30 31  1  1  0  0  0
 30 28  1  0  0  0  0
 32 35  1  0  0  0  0
 32 33  1  1  0  0  0
 35 34  1  0  0  0  0
 36 40  1  6  0  0  0
 36 37  1  0  0  0  0
 36 32  1  0  0  0  0
 37 39  1  6  0  0  0
 38 37  1  0  0  0  0
 42 41  1  6  0  0  0
 42 40  1  0  0  0  0
 43 44  2  0  0  0  0
 44 42  1  0  0  0  0
 45 44  1  0  0  0  0
 47 49  1  0  0  0  0
 48 55  1  0  0  0  0
 49 53  1  6  0  0  0
 49 50  1  0  0  0  0
 50 47  1  6  0  0  0
 50 52  1  0  0  0  0
 52 51  2  0  0  0  0
 54 48  2  0  0  0  0
 54 50  1  0  0  0  0
 55 46  1  1  0  0  0
 55 51  1  0  0  0  0
M  END
>  <MODEL>
6

>  <REMARK>
 VINA RESULT:      -2.9      4.159      9.906
  Name = 
  12 active torsions:
  status: ('A' for Active; 'I' for Inactive)
    1  A    between atoms: C_1  and  C_53
    2  A    between atoms: C_6  and  C_14
    3  A    between atoms: C_6  and  C_20
    4  A    between atoms: C_6  and  C_53
    5  A    between atoms: C_8  and  C_20
    6  A    between atoms: C_8  and  C_43
    7  A    between atoms: C_11  and  C_29
    8  A    between atoms: C_11  and  O_38
    9  A    between atoms: C_26  and  C_45
   10  A    between atoms: O_33  and  C_49
   11  A    between atoms: O_33  and  C_52
   12  A    between atoms: O_38  and  C_53
                            x       y       z     vdW  Elec       q    Type
                         _______ _______ _______ _____ _____    ______ ____

>  <TORSDO>
F 12

$$$$
=
 OpenBabel10262420353D

 55 59  0  0  1  0  0  0  0  0999 V2000
  192.0100  177.2330  139.9640 C   0  0  0  0  0  2  0  0  0  0  0  0
  186.0100  178.6180  138.0990 C   0  0  0  0  0  0  0  0  0  0  0  0
  187.4240  176.1050  138.6280 O   0  0  0  0  0  0  0  0  0  0  0  0
  188.6930  176.4460  136.7410 O   0  0  0  0  0  0  0  0  0  0  0  0
  190.8710  176.9460  142.1830 C   0  0  0  0  0  2  0  0  0  0  0  0
  188.8920  178.0590  141.5070 C   0  0  2  0  0  3  0  0  0  0  0  0
  191.4030  176.1120  139.1320 C   0  0  0  0  0  2  0  0  0  0  0  0
  189.7670  178.0830  140.4110 O   0  0  0  0  0  0  0  0  0  0  0  0
  185.3060  179.7120  137.6020 O   0  0  0  0  0  1  0  0  0  0  0  0
  186.8080  177.9530  137.2570 C   0  0  0  0  0  3  0  0  0  0  0  0
  187.6440  176.7890  137.5920 C   0  0  0  0  0  0  0  0  0  0  0  0
  189.4100  177.0310  142.5030 C   0  0  1  0  0  3  0  0  0  0  0  0
  185.9080  178.2590  139.5610 C   0  0  1  0  0  3  0  0  0  0  0  0
  191.0310  177.8380  140.9710 C   0  0  2  0  0  3  0  0  0  0  0  0
  189.8060  175.7030  137.2270 C   0  0  2  0  0  3  0  0  0  0  0  0
  190.7990  176.6880  137.8610 C   0  0  2  0  0  3  0  0  0  0  0  0
  186.9600  178.8310  140.2930 O   0  0  0  0  0  0  0  0  0  0  0  0
  187.4580  177.7840  141.0740 C   0  0  0  0  0  2  0  0  0  0  0  0
  188.8380  175.7740  142.2880 O   0  0  0  0  0  1  0  0  0  0  0  0
  189.7260  175.0980  134.7570 C   0  0  0  0  0  2  0  0  0  0  0  0
  188.3130  174.5200  134.7320 C   0  0  0  0  0  2  0  0  0  0  0  0
  190.3900  173.3450  136.4680 C   0  0  2  0  0  3  0  0  0  0  0  0
  188.9840  172.7480  136.3670 C   0  0  0  0  0  2  0  0  0  0  0  0
  188.3590  173.0210  135.0010 C   0  0  0  0  0  2  0  0  0  0  0  0
  190.4130  174.8410  136.1060 C   0  0  2  0  0  3  0  0  0  0  0  0
  191.3760  172.5650  135.6210 C   0  0  0  0  0  1  0  0  0  0  0  0
  184.3920  179.8560  140.4010 F   0  0  0  0  0  0  0  0  0  0  0  0
  184.5290  178.4890  140.2210 C   0  0  0  0  0  0  0  0  0  0  0  0
  184.4960  177.8930  141.4710 F   0  0  0  0  0  0  0  0  0  0  0  0
  183.3670  177.9650  139.3420 C   0  0  1  0  0  3  0  0  0  0  0  0
  183.4840  176.5890  139.1260 O   0  0  0  0  0  1  0  0  0  0  0  0
  181.9370  178.3400  139.8200 C   0  0  2  0  0  0  0  0  0  0  0  0
  182.0320  179.1680  140.9440 O   0  0  0  0  0  1  0  0  0  0  0  0
  179.9320  177.4300  140.8350 O   0  0  0  0  0  1  0  0  0  0  0  0
  181.1420  177.0910  140.2240 C   0  0  0  0  0  2  0  0  0  0  0  0
  181.1740  179.1090  138.7140 C   0  0  2  0  0  3  0  0  0  0  0  0
  180.5140  178.1730  137.6920 C   0  0  2  0  0  3  0  0  0  0  0  0
  181.1820  178.2190  136.4650 O   0  0  0  0  0  1  0  0  0  0  0  0
  179.0600  178.5490  137.4920 C   0  0  0  0  0  1  0  0  0  0  0  0
  182.0170  180.0250  138.0630 O   0  0  0  0  0  0  0  0  0  0  0  0
  182.9160  182.0170  138.7180 O   0  0  0  0  0  1  0  0  0  0  0  0
  181.7420  181.2660  138.6440 C   0  0  1  0  0  3  0  0  0  0  0  0
  180.7660  181.9190  136.4370 O   0  0  0  0  0  0  0  0  0  0  0  0
  180.7350  182.0010  137.8240 C   0  0  0  0  0  0  0  0  0  0  0  0
  179.8860  182.7390  138.3900 O   0  0  0  0  0  1  0  0  0  0  0  0
  191.8060  177.0620  136.9570 O   0  0  0  0  0  0  0  0  0  0  0  0
  196.4990  174.3960  135.9220 C   0  0  0  0  0  2  0  0  0  0  0  0
  193.2390  176.0110  135.3640 C   0  0  0  0  0  3  0  0  0  0  0  0
  195.4570  173.2740  135.9130 C   0  0  1  0  0  3  0  0  0  0  0  0
  195.0500  174.7080  136.2020 C   0  0  1  0  0  0  0  0  0  0  0  0
  193.5140  175.6510  137.8380 C   0  0  0  0  0  3  0  0  0  0  0  0
  194.6980  175.0660  137.6130 C   0  0  0  0  0  3  0  0  0  0  0  0
  195.1610  172.9240  134.5940 O   0  0  0  0  0  1  0  0  0  0  0  0
  194.3780  175.4430  135.1480 N   0  0  0  0  0  0  0  0  0  0  0  0
  192.5410  175.8980  136.7070 C   0  0  1  0  0  3  0  0  0  0  0  0
  2 13  1  0  0  0  0
  4 11  1  0  0  0  0
  5 12  1  0  0  0  0
  6 18  1  6  0  0  0
  6 12  1  0  0  0  0
  7  1  1  0  0  0  0
  8 14  1  0  0  0  0
  8  6  1  0  0  0  0
  9  2  1  0  0  0  0
 10 11  1  0  0  0  0
 10  2  2  0  0  0  0
 11  3  2  0  0  0  0
 12 19  1  6  0  0  0
 13 28  1  1  0  0  0
 13 17  1  0  0  0  0
 14  1  1  6  0  0  0
 14  5  1  0  0  0  0
 15  4  1  6  0  0  0
 15 16  1  0  0  0  0
 16 46  1  6  0  0  0
 16  7  1  0  0  0  0
 17 18  1  0  0  0  0
 21 20  1  0  0  0  0
 21 24  1  0  0  0  0
 22 26  1  6  0  0  0
 23 22  1  0  0  0  0
 24 23  1  0  0  0  0
 25 20  1  6  0  0  0
 25 22  1  0  0  0  0
 25 15  1  0  0  0  0
 28 27  1  0  0  0  0
 28 29  1  0  0  0  0
 30 31  1  1  0  0  0
 30 32  1  0  0  0  0
 30 28  1  0  0  0  0
 32 35  1  0  0  0  0
 32 33  1  1  0  0  0
 35 34  1  0  0  0  0
 36 40  1  6  0  0  0
 36 32  1  0  0  0  0
 37 39  1  6  0  0  0
 37 36  1  0  0  0  0
 38 37  1  0  0  0  0
 40 42  1  0  0  0  0
 42 41  1  6  0  0  0
 43 44  2  0  0  0  0
 44 45  1  0  0  0  0
 44 42  1  0  0  0  0
 48 55  1  0  0  0  0
 49 53  1  6  0  0  0
 49 47  1  0  0  0  0
 49 50  1  0  0  0  0
 50 47  1  6  0  0  0
 50 52  1  0  0  0  0
 52 51  2  0  0  0  0
 54 48  2  0  0  0  0
 54 50  1  0  0  0  0
 55 46  1  1  0  0  0
 55 51  1  0  0  0  0
M  END
>  <MODEL>
7

>  <REMARK>
 VINA RESULT:      -2.9      4.363     10.037
  Name = 
  12 active torsions:
  status: ('A' for Active; 'I' for Inactive)
    1  A    between atoms: C_1  and  C_53
    2  A    between atoms: C_6  and  C_14
    3  A    between atoms: C_6  and  C_20
    4  A    between atoms: C_6  and  C_53
    5  A    between atoms: C_8  and  C_20
    6  A    between atoms: C_8  and  C_43
    7  A    between atoms: C_11  and  C_29
    8  A    between atoms: C_11  and  O_38
    9  A    between atoms: C_26  and  C_45
   10  A    between atoms: O_33  and  C_49
   11  A    between atoms: O_33  and  C_52
   12  A    between atoms: O_38  and  C_53
                            x       y       z     vdW  Elec       q    Type
                         _______ _______ _______ _____ _____    ______ ____

>  <TORSDO>
F 12

$$$$
=
 OpenBabel10262420353D

 55 59  0  0  1  0  0  0  0  0999 V2000
  192.7110  177.1100  140.1070 C   0  0  0  0  0  2  0  0  0  0  0  0
  186.9480  178.5940  137.6620 C   0  0  0  0  0  0  0  0  0  0  0  0
  188.2690  176.0570  138.3080 O   0  0  0  0  0  0  0  0  0  0  0  0
  189.7250  176.3950  136.5600 O   0  0  0  0  0  0  0  0  0  0  0  0
  191.3520  176.8230  142.1980 C   0  0  0  0  0  2  0  0  0  0  0  0
  189.4660  177.9690  141.3370 C   0  0  2  0  0  3  0  0  0  0  0  0
  192.1760  176.0050  139.2080 C   0  0  0  0  0  2  0  0  0  0  0  0
  190.4460  177.9880  140.3340 O   0  0  0  0  0  0  0  0  0  0  0  0
  186.3120  179.7010  137.1070 O   0  0  0  0  0  1  0  0  0  0  0  0
  187.8180  177.9240  136.8980 C   0  0  0  0  0  3  0  0  0  0  0  0
  188.6000  176.7460  137.3050 C   0  0  0  0  0  0  0  0  0  0  0  0
  189.8670  176.9260  142.3710 C   0  0  1  0  0  3  0  0  0  0  0  0
  186.6950  178.2260  139.1040 C   0  0  1  0  0  3  0  0  0  0  0  0
  191.6450  177.7220  141.0160 C   0  0  2  0  0  3  0  0  0  0  0  0
  190.7740  175.6330  137.1490 C   0  0  2  0  0  3  0  0  0  0  0  0
  191.7110  176.5990  137.8880 C   0  0  2  0  0  3  0  0  0  0  0  0
  187.6760  178.7770  139.9420 O   0  0  0  0  0  0  0  0  0  0  0  0
  188.0790  177.7170  140.7600 C   0  0  0  0  0  2  0  0  0  0  0  0
  189.3030  175.6780  142.0880 O   0  0  0  0  0  1  0  0  0  0  0  0
  190.8640  174.9710  134.6940 C   0  0  0  0  0  2  0  0  0  0  0  0
  189.4780  174.3360  134.6010 C   0  0  0  0  0  2  0  0  0  0  0  0
  191.4910  173.2840  136.4830 C   0  0  2  0  0  3  0  0  0  0  0  0
  190.1170  172.6290  136.3150 C   0  0  0  0  0  2  0  0  0  0  0  0
  189.5650  172.8470  134.9080 C   0  0  0  0  0  2  0  0  0  0  0  0
  191.4790  174.7710  136.0870 C   0  0  2  0  0  3  0  0  0  0  0  0
  192.5550  172.5240  135.7150 C   0  0  0  0  0  1  0  0  0  0  0  0
  185.0780  179.8420  139.6740 F   0  0  0  0  0  0  0  0  0  0  0  0
  185.2600  178.4700  139.6240 C   0  0  0  0  0  0  0  0  0  0  0  0
  185.1330  177.9790  140.9130 F   0  0  0  0  0  0  0  0  0  0  0  0
  184.1890  177.8410  138.6990 C   0  0  1  0  0  3  0  0  0  0  0  0
  184.7150  176.7580  137.9880 O   0  0  0  0  0  1  0  0  0  0  0  0
  182.8440  177.4670  139.3810 C   0  0  2  0  0  0  0  0  0  0  0  0
  183.0640  177.2630  140.7470 O   0  0  0  0  0  1  0  0  0  0  0  0
  181.3570  175.5750  139.6750 O   0  0  0  0  0  1  0  0  0  0  0  0
  182.2700  176.1680  138.7990 C   0  0  0  0  0  2  0  0  0  0  0  0
  181.8120  178.6110  139.2210 C   0  0  2  0  0  3  0  0  0  0  0  0
  182.1340  179.5360  138.0390 C   0  0  2  0  0  3  0  0  0  0  0  0
  182.3240  180.8530  138.4680 O   0  0  0  0  0  1  0  0  0  0  0  0
  181.0180  179.4920  137.0150 C   0  0  0  0  0  1  0  0  0  0  0  0
  181.6990  179.3560  140.4070 O   0  0  0  0  0  0  0  0  0  0  0  0
  179.7180  178.3130  139.9710 O   0  0  0  0  0  1  0  0  0  0  0  0
  180.3710  179.2090  140.8170 C   0  0  1  0  0  3  0  0  0  0  0  0
  181.1380  179.2500  143.1970 O   0  0  0  0  0  1  0  0  0  0  0  0
  180.3240  178.6940  142.2170 C   0  0  0  0  0  0  0  0  0  0  0  0
  179.5800  177.7170  142.4980 O   0  0  0  0  0  0  0  0  0  0  0  0
  192.8080  176.9650  137.0940 O   0  0  0  0  0  0  0  0  0  0  0  0
  197.3720  173.9790  136.4170 C   0  0  0  0  0  2  0  0  0  0  0  0
  194.3910  175.9800  135.6050 C   0  0  0  0  0  3  0  0  0  0  0  0
  196.2570  172.9810  136.0940 C   0  0  1  0  0  3  0  0  0  0  0  0
  195.9280  174.4010  136.5150 C   0  0  1  0  0  0  0  0  0  0  0  0
  194.2270  175.2870  138.0160 C   0  0  0  0  0  3  0  0  0  0  0  0
  195.3790  174.6140  137.8930 C   0  0  0  0  0  3  0  0  0  0  0  0
  196.1520  172.8300  134.7090 O   0  0  0  0  0  1  0  0  0  0  0  0
  195.5000  175.3280  135.4860 N   0  0  0  0  0  0  0  0  0  0  0  0
  193.4760  175.7720  136.7970 C   0  0  1  0  0  3  0  0  0  0  0  0
  2 13  1  0  0  0  0
  4 11  1  0  0  0  0
  5 12  1  0  0  0  0
  6 18  1  6  0  0  0
  6 12  1  0  0  0  0
  7  1  1  0  0  0  0
  8 14  1  0  0  0  0
  8  6  1  0  0  0  0
  9  2  1  0  0  0  0
 10 11  1  0  0  0  0
 10  2  2  0  0  0  0
 11  3  2  0  0  0  0
 12 19  1  6  0  0  0
 13 28  1  1  0  0  0
 13 17  1  0  0  0  0
 14  1  1  6  0  0  0
 14  5  1  0  0  0  0
 15  4  1  6  0  0  0
 15 16  1  0  0  0  0
 16 46  1  6  0  0  0
 16  7  1  0  0  0  0
 17 18  1  0  0  0  0
 21 20  1  0  0  0  0
 21 24  1  0  0  0  0
 22 26  1  6  0  0  0
 23 22  1  0  0  0  0
 24 23  1  0  0  0  0
 25 20  1  6  0  0  0
 25 22  1  0  0  0  0
 25 15  1  0  0  0  0
 28 27  1  0  0  0  0
 28 29  1  0  0  0  0
 30 31  1  1  0  0  0
 30 32  1  0  0  0  0
 30 28  1  0  0  0  0
 32 33  1  1  0  0  0
 35 32  1  0  0  0  0
 35 34  1  0  0  0  0
 36 32  1  0  0  0  0
 36 40  1  1  0  0  0
 37 39  1  6  0  0  0
 37 38  1  0  0  0  0
 37 36  1  0  0  0  0
 40 42  1  0  0  0  0
 42 41  1  6  0  0  0
 42 44  1  0  0  0  0
 44 45  2  0  0  0  0
 44 43  1  0  0  0  0
 48 55  1  0  0  0  0
 49 53  1  6  0  0  0
 49 47  1  0  0  0  0
 49 50  1  0  0  0  0
 50 47  1  1  0  0  0
 50 52  1  0  0  0  0
 52 51  2  0  0  0  0
 54 48  2  0  0  0  0
 54 50  1  0  0  0  0
 55 46  1  1  0  0  0
 55 51  1  0  0  0  0
M  END
>  <MODEL>
8

>  <REMARK>
 VINA RESULT:      -2.7      4.806     10.307
  Name = 
  12 active torsions:
  status: ('A' for Active; 'I' for Inactive)
    1  A    between atoms: C_1  and  C_53
    2  A    between atoms: C_6  and  C_14
    3  A    between atoms: C_6  and  C_20
    4  A    between atoms: C_6  and  C_53
    5  A    between atoms: C_8  and  C_20
    6  A    between atoms: C_8  and  C_43
    7  A    between atoms: C_11  and  C_29
    8  A    between atoms: C_11  and  O_38
    9  A    between atoms: C_26  and  C_45
   10  A    between atoms: O_33  and  C_49
   11  A    between atoms: O_33  and  C_52
   12  A    between atoms: O_38  and  C_53
                            x       y       z     vdW  Elec       q    Type
                         _______ _______ _______ _____ _____    ______ ____

>  <TORSDO>
F 12

$$$$
