=
 OpenBabel10262420513D

 28 30  0  0  1  0  0  0  0  0999 V2000
  187.3870  178.4840  140.3760 C   0  0  0  0  0  0  0  0  0  0  0  0
  191.9080  177.2050  141.2040 O   0  0  0  0  0  0  0  0  0  0  0  0
  189.1180  177.5570  143.5700 C   0  0  0  0  0  0  0  0  0  0  0  0
  190.3520  175.4340  143.1800 C   0  0  0  0  0  1  0  0  0  0  0  0
  189.6520  177.7500  140.7250 C   0  0  0  0  0  0  0  0  0  0  0  0
  188.1870  178.0190  142.7160 C   0  0  0  0  0  3  0  0  0  0  0  0
  188.8750  178.2340  138.5470 C   0  0  0  0  0  3  0  0  0  0  0  0
  190.7260  177.3150  141.6290 C   0  0  0  0  0  0  0  0  0  0  0  0
  189.8680  177.8430  139.3860 N   0  0  0  0  0  0  0  0  0  0  0  0
  190.4090  176.9470  143.0530 C   0  0  1  0  0  3  0  0  0  0  0  0
  187.6490  178.5460  139.0420 N   0  0  0  0  0  0  0  0  0  0  0  0
  188.3990  178.0690  141.2570 C   0  0  0  0  0  0  0  0  0  0  0  0
  187.4970  177.6080  145.4780 C   0  0  0  0  0  3  0  0  0  0  0  0
  189.8630  177.5590  145.9970 C   0  0  0  0  0  0  0  0  0  0  0  0
  188.2230  177.5940  147.7820 C   0  0  0  0  0  0  0  0  0  0  0  0
  188.8310  177.5740  145.0320 C   0  0  0  0  0  0  0  0  0  0  0  0
  189.5530  177.5680  147.3600 C   0  0  0  0  0  3  0  0  0  0  0  0
  191.1710  177.5680  145.6360 F   0  0  0  0  0  0  0  0  0  0  0  0
  187.9300  177.6020  149.1050 F   0  0  0  0  0  0  0  0  0  0  0  0
  187.1940  177.6170  146.8410 C   0  0  0  0  0  3  0  0  0  0  0  0
  186.0080  178.8100  140.8890 C   0  0  1  0  0  3  0  0  0  0  0  0
  184.9130  178.7740  139.8220 C   0  0  0  0  0  2  0  0  0  0  0  0
  184.5690  180.0610  139.4020 O   0  0  0  0  0  1  0  0  0  0  0  0
  185.6320  178.0880  142.1880 C   0  0  0  0  0  2  0  0  0  0  0  0
  184.2450  178.4450  142.7060 C   0  0  0  0  0  2  0  0  0  0  0  0
  184.3560  179.4060  143.8740 C   0  0  0  0  0  2  0  0  0  0  0  0
  183.4110  178.9720  144.9740 C   0  0  0  0  0  2  0  0  0  0  0  0
  184.0950  178.9490  146.1890 O   0  0  0  0  0  1  0  0  0  0  0  0
  1 21  1  0  0  0  0
  1 12  1  0  0  0  0
  2  8  2  0  0  0  0
  3 16  1  0  0  0  0
  5 12  2  0  0  0  0
  5  8  1  0  0  0  0
  6  3  2  0  0  0  0
  7 11  1  0  0  0  0
  7  9  2  0  0  0  0
  8 10  1  0  0  0  0
  9  5  1  0  0  0  0
 10  4  1  6  0  0  0
 10  3  1  0  0  0  0
 11  1  2  0  0  0  0
 12  6  1  0  0  0  0
 13 20  1  0  0  0  0
 14 17  2  0  0  0  0
 15 19  1  0  0  0  0
 16 13  2  0  0  0  0
 16 14  1  0  0  0  0
 17 15  1  0  0  0  0
 18 14  1  0  0  0  0
 20 15  2  0  0  0  0
 21 22  1  6  0  0  0
 21 24  1  0  0  0  0
 23 22  1  0  0  0  0
 24 25  1  0  0  0  0
 25 26  1  0  0  0  0
 26 27  1  0  0  0  0
 27 28  1  0  0  0  0
M  END
>  <MODEL>
1

>  <REMARK>
 VINA RESULT:      -9.6      0.000      0.000
  Name = 
  7 active torsions:
  status: ('A' for Active; 'I' for Inactive)
    1  A    between atoms: C_1  and  C_2
    2  A    between atoms: C_2  and  C_3
    3  A    between atoms: C_2  and  C_8
    4  A    between atoms: C_3  and  C_7
    5  A    between atoms: C_6  and  C_22
    6  A    between atoms: C_7  and  C_22
    7  A    between atoms: C_10  and  C_13
                            x       y       z     vdW  Elec       q    Type
                         _______ _______ _______ _____ _____    ______ ____

>  <TORSDO>
F 7

$$$$
=
 OpenBabel10262420513D

 28 30  0  0  1  0  0  0  0  0999 V2000
  187.1880  177.7610  146.4340 C   0  0  0  0  0  0  0  0  0  0  0  0
  191.9080  177.1000  146.2300 O   0  0  0  0  0  0  0  0  0  0  0  0
  189.5120  177.6320  143.4950 C   0  0  0  0  0  0  0  0  0  0  0  0
  191.4320  179.1370  143.9750 C   0  0  0  0  0  1  0  0  0  0  0  0
  189.5830  177.5220  146.3940 C   0  0  0  0  0  0  0  0  0  0  0  0
  188.3800  177.6520  144.2210 C   0  0  0  0  0  3  0  0  0  0  0  0
  188.4220  177.5880  148.4510 C   0  0  0  0  0  3  0  0  0  0  0  0
  190.8400  177.4170  145.6410 C   0  0  0  0  0  0  0  0  0  0  0  0
  189.5820  177.4810  147.7520 N   0  0  0  0  0  0  0  0  0  0  0  0
  190.8680  177.7400  144.1720 C   0  0  1  0  0  3  0  0  0  0  0  0
  187.2420  177.7310  147.7940 N   0  0  0  0  0  0  0  0  0  0  0  0
  188.3780  177.6650  145.6960 C   0  0  0  0  0  0  0  0  0  0  0  0
  188.3970  178.3010  141.3550 C   0  0  0  0  0  3  0  0  0  0  0  0
  190.3300  176.8450  141.2240 C   0  0  0  0  0  0  0  0  0  0  0  0
  189.1970  177.5550  139.2010 C   0  0  0  0  0  0  0  0  0  0  0  0
  189.4190  177.5880  142.0090 C   0  0  0  0  0  0  0  0  0  0  0  0
  190.2130  176.8350  139.8310 C   0  0  0  0  0  3  0  0  0  0  0  0
  191.3120  176.1020  141.7930 F   0  0  0  0  0  0  0  0  0  0  0  0
  189.0920  177.5400  137.8510 F   0  0  0  0  0  0  0  0  0  0  0  0
  188.2860  178.2860  139.9640 C   0  0  0  0  0  3  0  0  0  0  0  0
  185.8650  177.9480  145.7370 C   0  0  1  0  0  3  0  0  0  0  0  0
  184.7060  178.3030  146.6690 C   0  0  0  0  0  2  0  0  0  0  0  0
  183.7500  179.0870  146.0180 O   0  0  0  0  0  1  0  0  0  0  0  0
  185.9350  178.8150  144.4750 C   0  0  0  0  0  2  0  0  0  0  0  0
  185.2100  178.2130  143.2780 C   0  0  0  0  0  2  0  0  0  0  0  0
  184.8500  179.3000  142.2850 C   0  0  0  0  0  2  0  0  0  0  0  0
  184.6430  178.6840  140.9180 C   0  0  0  0  0  2  0  0  0  0  0  0
  184.8810  179.6450  139.9360 O   0  0  0  0  0  1  0  0  0  0  0  0
  1 11  1  0  0  0  0
  3 10  1  0  0  0  0
  3  6  2  0  0  0  0
  5  9  2  0  0  0  0
  6 12  1  0  0  0  0
  8  2  2  0  0  0  0
  8  5  1  0  0  0  0
  9  7  1  0  0  0  0
 10  4  1  1  0  0  0
 10  8  1  0  0  0  0
 11  7  2  0  0  0  0
 12  5  1  0  0  0  0
 12  1  2  0  0  0  0
 13 16  1  0  0  0  0
 14 18  1  0  0  0  0
 14 16  2  0  0  0  0
 15 17  2  0  0  0  0
 15 20  1  0  0  0  0
 16  3  1  0  0  0  0
 17 14  1  0  0  0  0
 19 15  1  0  0  0  0
 20 13  2  0  0  0  0
 21 24  1  6  0  0  0
 21  1  1  0  0  0  0
 21 22  1  0  0  0  0
 23 22  1  0  0  0  0
 25 24  1  0  0  0  0
 26 25  1  0  0  0  0
 27 26  1  0  0  0  0
 28 27  1  0  0  0  0
M  END
>  <MODEL>
2

>  <REMARK>
 VINA RESULT:      -9.4      3.214      5.854
  Name = 
  7 active torsions:
  status: ('A' for Active; 'I' for Inactive)
    1  A    between atoms: C_1  and  C_2
    2  A    between atoms: C_2  and  C_3
    3  A    between atoms: C_2  and  C_8
    4  A    between atoms: C_3  and  C_7
    5  A    between atoms: C_6  and  C_22
    6  A    between atoms: C_7  and  C_22
    7  A    between atoms: C_10  and  C_13
                            x       y       z     vdW  Elec       q    Type
                         _______ _______ _______ _____ _____    ______ ____

>  <TORSDO>
F 7

$$$$
=
 OpenBabel10262420513D

 28 30  0  0  1  0  0  0  0  0999 V2000
  185.3300  178.6230  144.8400 C   0  0  0  0  0  0  0  0  0  0  0  0
  189.3920  176.7860  146.5380 O   0  0  0  0  0  0  0  0  0  0  0  0
  188.5220  177.7200  143.0930 C   0  0  0  0  0  0  0  0  0  0  0  0
  190.4020  178.7240  144.3730 C   0  0  0  0  0  1  0  0  0  0  0  0
  187.3900  177.7880  145.7630 C   0  0  0  0  0  0  0  0  0  0  0  0
  187.2400  178.0720  143.2970 C   0  0  0  0  0  3  0  0  0  0  0  0
  185.5600  178.2800  147.1740 C   0  0  0  0  0  3  0  0  0  0  0  0
  188.7720  177.3210  145.5810 C   0  0  0  0  0  0  0  0  0  0  0  0
  186.8330  177.8390  147.0020 N   0  0  0  0  0  0  0  0  0  0  0  0
  189.4690  177.5290  144.2640 C   0  0  1  0  0  3  0  0  0  0  0  0
  184.8230  178.6700  146.1020 N   0  0  0  0  0  0  0  0  0  0  0  0
  186.6490  178.1820  144.6440 C   0  0  0  0  0  0  0  0  0  0  0  0
  188.4900  178.4280  140.6910 C   0  0  0  0  0  3  0  0  0  0  0  0
  190.0350  176.6780  141.3390 C   0  0  0  0  0  0  0  0  0  0  0  0
  189.9470  177.4370  139.0390 C   0  0  0  0  0  0  0  0  0  0  0  0
  189.0260  177.6020  141.6960 C   0  0  0  0  0  0  0  0  0  0  0  0
  190.4860  176.6020  140.0190 C   0  0  0  0  0  3  0  0  0  0  0  0
  190.5650  175.8230  142.2500 F   0  0  0  0  0  0  0  0  0  0  0  0
  190.3900  177.3580  137.7610 F   0  0  0  0  0  0  0  0  0  0  0  0
  188.9460  178.3480  139.3740 C   0  0  0  0  0  3  0  0  0  0  0  0
  184.4950  179.0890  143.6740 C   0  0  1  0  0  3  0  0  0  0  0  0
  184.4300  178.1000  142.5100 C   0  0  0  0  0  2  0  0  0  0  0  0
  184.4590  178.7590  141.2790 O   0  0  0  0  0  1  0  0  0  0  0  0
  183.1340  179.6730  144.0690 C   0  0  0  0  0  2  0  0  0  0  0  0
  181.9670  178.7250  143.8210 C   0  0  0  0  0  2  0  0  0  0  0  0
  180.9260  179.3980  142.9470 C   0  0  0  0  0  2  0  0  0  0  0  0
  179.6130  178.6560  143.0680 C   0  0  0  0  0  2  0  0  0  0  0  0
  179.5710  177.9840  144.2890 O   0  0  0  0  0  1  0  0  0  0  0  0
  1 11  1  0  0  0  0
  3  6  2  0  0  0  0
  3 10  1  0  0  0  0
  5  9  2  0  0  0  0
  6 12  1  0  0  0  0
  8  5  1  0  0  0  0
  8  2  2  0  0  0  0
  9  7  1  0  0  0  0
 10  4  1  1  0  0  0
 10  8  1  0  0  0  0
 11  7  2  0  0  0  0
 12  1  2  0  0  0  0
 12  5  1  0  0  0  0
 13 16  1  0  0  0  0
 14 16  2  0  0  0  0
 14 18  1  0  0  0  0
 15 20  1  0  0  0  0
 15 17  2  0  0  0  0
 16  3  1  0  0  0  0
 17 14  1  0  0  0  0
 19 15  1  0  0  0  0
 20 13  2  0  0  0  0
 21 22  1  6  0  0  0
 21 24  1  0  0  0  0
 21  1  1  0  0  0  0
 23 22  1  0  0  0  0
 25 24  1  0  0  0  0
 26 27  1  0  0  0  0
 26 25  1  0  0  0  0
 27 28  1  0  0  0  0
M  END
>  <MODEL>
3

>  <REMARK>
 VINA RESULT:      -8.6      3.371      5.513
  Name = 
  7 active torsions:
  status: ('A' for Active; 'I' for Inactive)
    1  A    between atoms: C_1  and  C_2
    2  A    between atoms: C_2  and  C_3
    3  A    between atoms: C_2  and  C_8
    4  A    between atoms: C_3  and  C_7
    5  A    between atoms: C_6  and  C_22
    6  A    between atoms: C_7  and  C_22
    7  A    between atoms: C_10  and  C_13
                            x       y       z     vdW  Elec       q    Type
                         _______ _______ _______ _____ _____    ______ ____

>  <TORSDO>
F 7

$$$$
=
 OpenBabel10262420513D

 28 30  0  0  1  0  0  0  0  0999 V2000
  184.8810  178.4890  142.7330 C   0  0  0  0  0  0  0  0  0  0  0  0
  183.9990  178.3060  147.4180 O   0  0  0  0  0  0  0  0  0  0  0  0
  187.1800  177.8730  145.6300 C   0  0  0  0  0  0  0  0  0  0  0  0
  186.7660  179.6460  147.3230 C   0  0  0  0  0  1  0  0  0  0  0  0
  184.4000  178.5050  145.0920 C   0  0  0  0  0  0  0  0  0  0  0  0
  186.7150  177.9540  144.3700 C   0  0  0  0  0  3  0  0  0  0  0  0
  182.6960  178.9630  143.5210 C   0  0  0  0  0  3  0  0  0  0  0  0
  184.8440  178.3480  146.4840 C   0  0  0  0  0  0  0  0  0  0  0  0
  183.1060  178.8080  144.8060 N   0  0  0  0  0  0  0  0  0  0  0  0
  186.3120  178.2920  146.8040 C   0  0  1  0  0  3  0  0  0  0  0  0
  183.5780  178.8090  142.5010 N   0  0  0  0  0  0  0  0  0  0  0  0
  185.3250  178.3370  144.0570 C   0  0  0  0  0  0  0  0  0  0  0  0
  189.5490  177.6570  144.8480 C   0  0  0  0  0  3  0  0  0  0  0  0
  189.0000  176.8260  147.0580 C   0  0  0  0  0  0  0  0  0  0  0  0
  191.2720  176.6720  146.2260 C   0  0  0  0  0  0  0  0  0  0  0  0
  188.5890  177.4450  145.8560 C   0  0  0  0  0  0  0  0  0  0  0  0
  190.3340  176.4460  147.2340 C   0  0  0  0  0  3  0  0  0  0  0  0
  188.1180  176.5540  148.0520 F   0  0  0  0  0  0  0  0  0  0  0  0
  192.5630  176.3020  146.4050 F   0  0  0  0  0  0  0  0  0  0  0  0
  190.8800  177.2760  145.0310 C   0  0  0  0  0  3  0  0  0  0  0  0
  185.8410  178.3520  141.5800 C   0  0  1  0  0  3  0  0  0  0  0  0
  185.1840  178.4310  140.2010 C   0  0  0  0  0  2  0  0  0  0  0  0
  185.0160  179.7560  139.7930 O   0  0  0  0  0  1  0  0  0  0  0  0
  187.1110  179.2000  141.7130 C   0  0  0  0  0  2  0  0  0  0  0  0
  188.2960  178.6510  140.9290 C   0  0  0  0  0  2  0  0  0  0  0  0
  188.6340  177.2520  141.4050 C   0  0  0  0  0  2  0  0  0  0  0  0
  190.0820  176.9480  141.0870 C   0  0  0  0  0  2  0  0  0  0  0  0
  190.5180  175.8880  141.8820 O   0  0  0  0  0  1  0  0  0  0  0  0
  1 12  1  0  0  0  0
  3 16  1  0  0  0  0
  3 10  1  0  0  0  0
  5  8  1  0  0  0  0
  6  3  2  0  0  0  0
  7  9  2  0  0  0  0
  8 10  1  0  0  0  0
  8  2  2  0  0  0  0
  9  5  1  0  0  0  0
 10  4  1  6  0  0  0
 11  1  2  0  0  0  0
 11  7  1  0  0  0  0
 12  6  1  0  0  0  0
 12  5  2  0  0  0  0
 13 20  2  0  0  0  0
 13 16  1  0  0  0  0
 14 17  1  0  0  0  0
 14 18  1  0  0  0  0
 15 19  1  0  0  0  0
 15 17  2  0  0  0  0
 16 14  2  0  0  0  0
 20 15  1  0  0  0  0
 21 22  1  6  0  0  0
 21 24  1  0  0  0  0
 21  1  1  0  0  0  0
 23 22  1  0  0  0  0
 25 26  1  0  0  0  0
 25 24  1  0  0  0  0
 27 26  1  0  0  0  0
 27 28  1  0  0  0  0
M  END
>  <MODEL>
4

>  <REMARK>
 VINA RESULT:      -8.4      2.141      5.251
  Name = 
  7 active torsions:
  status: ('A' for Active; 'I' for Inactive)
    1  A    between atoms: C_1  and  C_2
    2  A    between atoms: C_2  and  C_3
    3  A    between atoms: C_2  and  C_8
    4  A    between atoms: C_3  and  C_7
    5  A    between atoms: C_6  and  C_22
    6  A    between atoms: C_7  and  C_22
    7  A    between atoms: C_10  and  C_13
                            x       y       z     vdW  Elec       q    Type
                         _______ _______ _______ _____ _____    ______ ____

>  <TORSDO>
F 7

$$$$
=
 OpenBabel10262420513D

 28 30  0  0  1  0  0  0  0  0999 V2000
  185.1950  178.7230  142.8960 C   0  0  0  0  0  0  0  0  0  0  0  0
  189.0410  178.4100  140.0910 O   0  0  0  0  0  0  0  0  0  0  0  0
  188.7150  177.6960  143.6800 C   0  0  0  0  0  0  0  0  0  0  0  0
  189.4150  176.0160  141.9860 C   0  0  0  0  0  1  0  0  0  0  0  0
  187.0800  178.4880  141.4180 C   0  0  0  0  0  0  0  0  0  0  0  0
  187.4320  178.0660  143.8430 C   0  0  0  0  0  3  0  0  0  0  0  0
  184.9730  179.1410  140.5730 C   0  0  0  0  0  3  0  0  0  0  0  0
  188.4980  178.1680  141.2020 C   0  0  0  0  0  0  0  0  0  0  0  0
  186.2860  178.8550  140.3780 N   0  0  0  0  0  0  0  0  0  0  0  0
  189.2940  177.5000  142.2900 C   0  0  1  0  0  3  0  0  0  0  0  0
  184.4380  179.0700  141.8190 N   0  0  0  0  0  0  0  0  0  0  0  0
  186.5520  178.4110  142.7110 C   0  0  0  0  0  0  0  0  0  0  0  0
  188.9070  177.1390  146.1140 C   0  0  0  0  0  3  0  0  0  0  0  0
  190.9520  177.3640  144.8340 C   0  0  0  0  0  0  0  0  0  0  0  0
  191.0440  176.8120  147.1920 C   0  0  0  0  0  0  0  0  0  0  0  0
  189.5400  177.3970  144.8840 C   0  0  0  0  0  0  0  0  0  0  0  0
  191.6910  177.0720  145.9840 C   0  0  0  0  0  3  0  0  0  0  0  0
  191.6260  177.6440  143.6900 F   0  0  0  0  0  0  0  0  0  0  0  0
  191.7680  176.5290  148.3020 F   0  0  0  0  0  0  0  0  0  0  0  0
  189.6510  176.8480  147.2590 C   0  0  0  0  0  3  0  0  0  0  0  0
  184.5640  178.6270  144.2620 C   0  0  1  0  0  3  0  0  0  0  0  0
  185.5410  178.8200  145.4220 C   0  0  0  0  0  2  0  0  0  0  0  0
  184.8670  178.9680  146.6360 O   0  0  0  0  0  1  0  0  0  0  0  0
  183.2600  179.4180  144.4100 C   0  0  0  0  0  2  0  0  0  0  0  0
  182.0080  178.5530  144.3270 C   0  0  0  0  0  2  0  0  0  0  0  0
  181.0460  179.1260  143.3050 C   0  0  0  0  0  2  0  0  0  0  0  0
  179.6230  178.8920  143.7670 C   0  0  0  0  0  2  0  0  0  0  0  0
  179.5320  177.6380  144.3680 O   0  0  0  0  0  1  0  0  0  0  0  0
  1 21  1  0  0  0  0
  2  8  2  0  0  0  0
  3  6  2  0  0  0  0
  3 16  1  0  0  0  0
  5 12  2  0  0  0  0
  7 11  1  0  0  0  0
  8  5  1  0  0  0  0
  8 10  1  0  0  0  0
  9  7  2  0  0  0  0
  9  5  1  0  0  0  0
 10  4  1  6  0  0  0
 10  3  1  0  0  0  0
 11  1  2  0  0  0  0
 12  1  1  0  0  0  0
 12  6  1  0  0  0  0
 13 20  1  0  0  0  0
 14 16  1  0  0  0  0
 14 17  2  0  0  0  0
 15 20  2  0  0  0  0
 15 19  1  0  0  0  0
 16 13  2  0  0  0  0
 17 15  1  0  0  0  0
 18 14  1  0  0  0  0
 21 24  1  6  0  0  0
 21 22  1  0  0  0  0
 22 23  1  0  0  0  0
 25 24  1  0  0  0  0
 26 27  1  0  0  0  0
 26 25  1  0  0  0  0
 27 28  1  0  0  0  0
M  END
>  <MODEL>
5

>  <REMARK>
 VINA RESULT:      -8.2      2.122      3.391
  Name = 
  7 active torsions:
  status: ('A' for Active; 'I' for Inactive)
    1  A    between atoms: C_1  and  C_2
    2  A    between atoms: C_2  and  C_3
    3  A    between atoms: C_2  and  C_8
    4  A    between atoms: C_3  and  C_7
    5  A    between atoms: C_6  and  C_22
    6  A    between atoms: C_7  and  C_22
    7  A    between atoms: C_10  and  C_13
                            x       y       z     vdW  Elec       q    Type
                         _______ _______ _______ _____ _____    ______ ____

>  <TORSDO>
F 7

$$$$
=
 OpenBabel10262420513D

 28 30  0  0  1  0  0  0  0  0999 V2000
  186.9270  178.4450  140.1540 C   0  0  0  0  0  0  0  0  0  0  0  0
  191.5440  177.4980  140.8910 O   0  0  0  0  0  0  0  0  0  0  0  0
  188.7810  177.6320  143.3090 C   0  0  0  0  0  0  0  0  0  0  0  0
  190.1590  175.6070  142.8830 C   0  0  0  0  0  1  0  0  0  0  0  0
  189.2460  177.8780  140.4560 C   0  0  0  0  0  0  0  0  0  0  0  0
  187.8030  178.0280  142.4750 C   0  0  0  0  0  3  0  0  0  0  0  0
  188.3940  178.3150  138.2960 C   0  0  0  0  0  3  0  0  0  0  0  0
  190.3660  177.5190  141.3380 C   0  0  0  0  0  0  0  0  0  0  0  0
  189.4290  177.9940  139.1140 N   0  0  0  0  0  0  0  0  0  0  0  0
  190.1030  177.1210  142.7640 C   0  0  1  0  0  3  0  0  0  0  0  0
  187.1580  178.5330  138.8150 N   0  0  0  0  0  0  0  0  0  0  0  0
  187.9830  178.1010  141.0130 C   0  0  0  0  0  0  0  0  0  0  0  0
  187.1970  177.5250  145.2470 C   0  0  0  0  0  3  0  0  0  0  0  0
  189.5670  177.7030  145.7220 C   0  0  0  0  0  0  0  0  0  0  0  0
  187.9640  177.5780  147.5370 C   0  0  0  0  0  0  0  0  0  0  0  0
  188.5210  177.6200  144.7760 C   0  0  0  0  0  0  0  0  0  0  0  0
  189.2820  177.6810  147.0910 C   0  0  0  0  0  3  0  0  0  0  0  0
  190.8610  177.8390  145.3370 F   0  0  0  0  0  0  0  0  0  0  0  0
  187.6970  177.5570  148.8650 F   0  0  0  0  0  0  0  0  0  0  0  0
  186.9200  177.5030  146.6150 C   0  0  0  0  0  3  0  0  0  0  0  0
  185.5370  178.6670  140.6940 C   0  0  1  0  0  3  0  0  0  0  0  0
  185.4930  179.3770  142.0470 C   0  0  0  0  0  2  0  0  0  0  0  0
  184.4010  178.9560  142.8090 O   0  0  0  0  0  1  0  0  0  0  0  0
  184.5440  179.2230  139.6680 C   0  0  0  0  0  2  0  0  0  0  0  0
  183.6510  178.1580  139.0430 C   0  0  0  0  0  2  0  0  0  0  0  0
  183.1770  177.1860  140.1050 C   0  0  0  0  0  2  0  0  0  0  0  0
  182.2780  176.1460  139.4720 C   0  0  0  0  0  2  0  0  0  0  0  0
  183.0500  175.2650  138.7170 O   0  0  0  0  0  1  0  0  0  0  0  0
  1 21  1  0  0  0  0
  1 12  1  0  0  0  0
  2  8  2  0  0  0  0
  3 16  1  0  0  0  0
  5 12  2  0  0  0  0
  5  8  1  0  0  0  0
  6  3  2  0  0  0  0
  7 11  1  0  0  0  0
  7  9  2  0  0  0  0
  8 10  1  0  0  0  0
  9  5  1  0  0  0  0
 10  4  1  6  0  0  0
 10  3  1  0  0  0  0
 11  1  2  0  0  0  0
 12  6  1  0  0  0  0
 13 20  1  0  0  0  0
 14 17  2  0  0  0  0
 15 19  1  0  0  0  0
 16 13  2  0  0  0  0
 16 14  1  0  0  0  0
 17 15  1  0  0  0  0
 18 14  1  0  0  0  0
 20 15  2  0  0  0  0
 21 24  1  6  0  0  0
 21 22  1  0  0  0  0
 22 23  1  0  0  0  0
 25 24  1  0  0  0  0
 25 26  1  0  0  0  0
 27 26  1  0  0  0  0
 28 27  1  0  0  0  0
M  END
>  <MODEL>
6

>  <REMARK>
 VINA RESULT:      -8.0      1.536      2.509
  Name = 
  7 active torsions:
  status: ('A' for Active; 'I' for Inactive)
    1  A    between atoms: C_1  and  C_2
    2  A    between atoms: C_2  and  C_3
    3  A    between atoms: C_2  and  C_8
    4  A    between atoms: C_3  and  C_7
    5  A    between atoms: C_6  and  C_22
    6  A    between atoms: C_7  and  C_22
    7  A    between atoms: C_10  and  C_13
                            x       y       z     vdW  Elec       q    Type
                         _______ _______ _______ _____ _____    ______ ____

>  <TORSDO>
F 7

$$$$
=
 OpenBabel10262420513D

 28 30  0  0  1  0  0  0  0  0999 V2000
  187.0550  178.3700  140.4810 C   0  0  0  0  0  0  0  0  0  0  0  0
  191.6840  177.4790  141.2140 O   0  0  0  0  0  0  0  0  0  0  0  0
  188.9190  177.5670  143.6330 C   0  0  0  0  0  0  0  0  0  0  0  0
  190.3240  175.5620  143.1980 C   0  0  0  0  0  1  0  0  0  0  0  0
  189.3810  177.8310  140.7810 C   0  0  0  0  0  0  0  0  0  0  0  0
  187.9360  177.9540  142.8010 C   0  0  0  0  0  3  0  0  0  0  0  0
  188.5240  178.2670  138.6230 C   0  0  0  0  0  3  0  0  0  0  0  0
  190.5060  177.4820  141.6610 C   0  0  0  0  0  0  0  0  0  0  0  0
  189.5630  177.9550  139.4390 N   0  0  0  0  0  0  0  0  0  0  0  0
  190.2480  177.0750  143.0860 C   0  0  1  0  0  3  0  0  0  0  0  0
  187.2850  178.4670  139.1430 N   0  0  0  0  0  0  0  0  0  0  0  0
  188.1150  178.0360  141.3390 C   0  0  0  0  0  0  0  0  0  0  0  0
  189.7440  177.5470  145.9980 C   0  0  0  0  0  3  0  0  0  0  0  0
  187.3490  177.5220  145.6280 C   0  0  0  0  0  0  0  0  0  0  0  0
  188.2350  177.5200  147.8840 C   0  0  0  0  0  0  0  0  0  0  0  0
  188.6600  177.5450  145.1000 C   0  0  0  0  0  0  0  0  0  0  0  0
  187.1470  177.5100  147.0110 C   0  0  0  0  0  3  0  0  0  0  0  0
  186.2610  177.4770  144.8190 F   0  0  0  0  0  0  0  0  0  0  0  0
  188.0310  177.5090  149.2230 F   0  0  0  0  0  0  0  0  0  0  0  0
  189.5350  177.5350  147.3780 C   0  0  0  0  0  3  0  0  0  0  0  0
  185.6620  178.5710  141.0230 C   0  0  1  0  0  3  0  0  0  0  0  0
  185.5590  179.6390  142.1130 C   0  0  0  0  0  2  0  0  0  0  0  0
  184.6000  179.2980  143.0700 O   0  0  0  0  0  1  0  0  0  0  0  0
  184.5770  178.6770  139.9460 C   0  0  0  0  0  2  0  0  0  0  0  0
  183.3410  177.8350  140.2400 C   0  0  0  0  0  2  0  0  0  0  0  0
  182.1420  178.7330  140.4720 C   0  0  0  0  0  2  0  0  0  0  0  0
  181.6360  179.2520  139.1440 C   0  0  0  0  0  2  0  0  0  0  0  0
  181.1500  180.5480  139.3070 O   0  0  0  0  0  1  0  0  0  0  0  0
  1 21  1  0  0  0  0
  1 12  1  0  0  0  0
  2  8  2  0  0  0  0
  3 16  1  0  0  0  0
  5 12  2  0  0  0  0
  5  8  1  0  0  0  0
  6  3  2  0  0  0  0
  7 11  1  0  0  0  0
  7  9  2  0  0  0  0
  8 10  1  0  0  0  0
  9  5  1  0  0  0  0
 10  4  1  6  0  0  0
 10  3  1  0  0  0  0
 11  1  2  0  0  0  0
 12  6  1  0  0  0  0
 13 20  1  0  0  0  0
 14 17  2  0  0  0  0
 15 19  1  0  0  0  0
 16 14  1  0  0  0  0
 16 13  2  0  0  0  0
 17 15  1  0  0  0  0
 18 14  1  0  0  0  0
 20 15  2  0  0  0  0
 21 24  1  6  0  0  0
 21 22  1  0  0  0  0
 22 23  1  0  0  0  0
 24 25  1  0  0  0  0
 25 26  1  0  0  0  0
 27 28  1  0  0  0  0
 27 26  1  0  0  0  0
M  END
>  <MODEL>
7

>  <REMARK>
 VINA RESULT:      -7.9      1.584      2.649
  Name = 
  7 active torsions:
  status: ('A' for Active; 'I' for Inactive)
    1  A    between atoms: C_1  and  C_2
    2  A    between atoms: C_2  and  C_3
    3  A    between atoms: C_2  and  C_8
    4  A    between atoms: C_3  and  C_7
    5  A    between atoms: C_6  and  C_22
    6  A    between atoms: C_7  and  C_22
    7  A    between atoms: C_10  and  C_13
                            x       y       z     vdW  Elec       q    Type
                         _______ _______ _______ _____ _____    ______ ____

>  <TORSDO>
F 7

$$$$
=
 OpenBabel10262420513D

 28 30  0  0  1  0  0  0  0  0999 V2000
  189.4760  177.7960  140.0080 C   0  0  0  0  0  0  0  0  0  0  0  0
  190.0840  177.9750  144.7360 O   0  0  0  0  0  0  0  0  0  0  0  0
  186.9800  178.1780  142.7800 C   0  0  0  0  0  0  0  0  0  0  0  0
  187.4450  176.4180  144.4720 C   0  0  0  0  0  1  0  0  0  0  0  0
  189.8280  177.7820  142.3890 C   0  0  0  0  0  0  0  0  0  0  0  0
  187.5180  178.1550  141.5470 C   0  0  0  0  0  3  0  0  0  0  0  0
  191.6470  177.4870  140.9100 C   0  0  0  0  0  3  0  0  0  0  0  0
  189.2980  177.8800  143.7560 C   0  0  0  0  0  0  0  0  0  0  0  0
  191.1560  177.5890  142.1720 N   0  0  0  0  0  0  0  0  0  0  0  0
  187.8140  177.8120  143.9950 C   0  0  1  0  0  3  0  0  0  0  0  0
  190.8110  177.5860  139.8440 N   0  0  0  0  0  0  0  0  0  0  0  0
  188.9490  177.8900  141.3060 C   0  0  0  0  0  0  0  0  0  0  0  0
  184.6550  178.2590  141.8530 C   0  0  0  0  0  3  0  0  0  0  0  0
  184.9980  179.0080  144.1320 C   0  0  0  0  0  0  0  0  0  0  0  0
  182.7780  179.0370  143.1600 C   0  0  0  0  0  0  0  0  0  0  0  0
  185.5310  178.4870  142.9310 C   0  0  0  0  0  0  0  0  0  0  0  0
  183.6310  179.2780  144.2380 C   0  0  0  0  0  3  0  0  0  0  0  0
  185.7930  179.2900  145.1950 F   0  0  0  0  0  0  0  0  0  0  0  0
  181.4540  179.3000  143.2710 F   0  0  0  0  0  0  0  0  0  0  0  0
  183.2900  178.5300  141.9660 C   0  0  0  0  0  3  0  0  0  0  0  0
  188.5720  177.8730  138.8040 C   0  0  1  0  0  3  0  0  0  0  0  0
  189.0040  178.9010  137.7580 C   0  0  0  0  0  2  0  0  0  0  0  0
  187.9120  179.3660  137.0200 O   0  0  0  0  0  1  0  0  0  0  0  0
  188.1890  176.5110  138.2150 C   0  0  0  0  0  2  0  0  0  0  0  0
  189.1980  175.9770  137.2060 C   0  0  0  0  0  2  0  0  0  0  0  0
  188.5810  174.8520  136.3980 C   0  0  0  0  0  2  0  0  0  0  0  0
  189.1700  173.5300  136.8420 C   0  0  0  0  0  2  0  0  0  0  0  0
  190.3580  173.7620  137.5340 O   0  0  0  0  0  1  0  0  0  0  0  0
  1 12  1  0  0  0  0
  3 16  1  0  0  0  0
  3 10  1  0  0  0  0
  5  8  1  0  0  0  0
  6  3  2  0  0  0  0
  7  9  2  0  0  0  0
  8 10  1  0  0  0  0
  8  2  2  0  0  0  0
  9  5  1  0  0  0  0
 10  4  1  6  0  0  0
 11  1  2  0  0  0  0
 11  7  1  0  0  0  0
 12  6  1  0  0  0  0
 12  5  2  0  0  0  0
 13 20  2  0  0  0  0
 13 16  1  0  0  0  0
 14 17  1  0  0  0  0
 14 18  1  0  0  0  0
 15 19  1  0  0  0  0
 15 17  2  0  0  0  0
 16 14  2  0  0  0  0
 20 15  1  0  0  0  0
 21 22  1  6  0  0  0
 21  1  1  0  0  0  0
 23 22  1  0  0  0  0
 24 21  1  0  0  0  0
 25 24  1  0  0  0  0
 26 27  1  0  0  0  0
 26 25  1  0  0  0  0
 27 28  1  0  0  0  0
M  END
>  <MODEL>
8

>  <REMARK>
 VINA RESULT:      -7.9      2.955      5.707
  Name = 
  7 active torsions:
  status: ('A' for Active; 'I' for Inactive)
    1  A    between atoms: C_1  and  C_2
    2  A    between atoms: C_2  and  C_3
    3  A    between atoms: C_2  and  C_8
    4  A    between atoms: C_3  and  C_7
    5  A    between atoms: C_6  and  C_22
    6  A    between atoms: C_7  and  C_22
    7  A    between atoms: C_10  and  C_13
                            x       y       z     vdW  Elec       q    Type
                         _______ _______ _______ _____ _____    ______ ____

>  <TORSDO>
F 7

$$$$
=
 OpenBabel10262420513D

 28 30  0  0  1  0  0  0  0  0999 V2000
  189.8820  177.3580  141.2220 C   0  0  0  0  0  0  0  0  0  0  0  0
  189.6660  178.1600  145.9200 O   0  0  0  0  0  0  0  0  0  0  0  0
  186.9530  178.1010  143.4430 C   0  0  0  0  0  0  0  0  0  0  0  0
  187.0780  176.5800  145.4050 C   0  0  0  0  0  1  0  0  0  0  0  0
  189.8160  177.6580  143.6100 C   0  0  0  0  0  0  0  0  0  0  0  0
  187.6960  177.9160  142.3360 C   0  0  0  0  0  3  0  0  0  0  0  0
  191.8560  177.1730  142.5220 C   0  0  0  0  0  3  0  0  0  0  0  0
  189.0600  177.9360  144.8390 C   0  0  0  0  0  0  0  0  0  0  0  0
  191.1570  177.4390  143.6550 N   0  0  0  0  0  0  0  0  0  0  0  0
  187.5560  177.8990  144.8220 C   0  0  1  0  0  3  0  0  0  0  0  0
  191.2200  177.1290  141.3230 N   0  0  0  0  0  0  0  0  0  0  0  0
  189.1400  177.6220  142.3850 C   0  0  0  0  0  0  0  0  0  0  0  0
  184.8440  178.1250  142.0930 C   0  0  0  0  0  3  0  0  0  0  0  0
  184.7690  179.0350  144.3380 C   0  0  0  0  0  0  0  0  0  0  0  0
  182.7700  179.0030  142.9670 C   0  0  0  0  0  0  0  0  0  0  0  0
  185.5070  178.4270  143.2980 C   0  0  0  0  0  0  0  0  0  0  0  0
  183.4100  179.3180  144.1660 C   0  0  0  0  0  3  0  0  0  0  0  0
  185.3560  179.3900  145.5090 F   0  0  0  0  0  0  0  0  0  0  0  0
  181.4530  179.2800  142.8080 F   0  0  0  0  0  0  0  0  0  0  0  0
  183.4870  178.4100  141.9280 C   0  0  0  0  0  3  0  0  0  0  0  0
  189.2020  177.2750  139.8800 C   0  0  1  0  0  3  0  0  0  0  0  0
  188.9710  178.6290  139.2070 C   0  0  0  0  0  2  0  0  0  0  0  0
  187.7600  178.6510  138.5100 O   0  0  0  0  0  1  0  0  0  0  0  0
  189.7810  176.2080  138.9450 C   0  0  0  0  0  2  0  0  0  0  0  0
  190.6920  176.7730  137.8630 C   0  0  0  0  0  2  0  0  0  0  0  0
  192.1310  176.3810  138.1350 C   0  0  0  0  0  2  0  0  0  0  0  0
  192.8050  176.0030  136.8340 C   0  0  0  0  0  2  0  0  0  0  0  0
  194.1240  176.4550  136.8470 O   0  0  0  0  0  1  0  0  0  0  0  0
  1 11  2  0  0  0  0
  1 12  1  0  0  0  0
  3 10  1  0  0  0  0
  5  9  1  0  0  0  0
  5  8  1  0  0  0  0
  6 12  1  0  0  0  0
  6  3  2  0  0  0  0
  7  9  2  0  0  0  0
  8  2  2  0  0  0  0
 10  8  1  0  0  0  0
 10  4  1  6  0  0  0
 11  7  1  0  0  0  0
 12  5  2  0  0  0  0
 13 16  1  0  0  0  0
 14 18  1  0  0  0  0
 15 17  2  0  0  0  0
 16  3  1  0  0  0  0
 16 14  2  0  0  0  0
 17 14  1  0  0  0  0
 19 15  1  0  0  0  0
 20 13  2  0  0  0  0
 20 15  1  0  0  0  0
 21 24  1  6  0  0  0
 21  1  1  0  0  0  0
 22 21  1  0  0  0  0
 23 22  1  0  0  0  0
 25 26  1  0  0  0  0
 25 24  1  0  0  0  0
 27 28  1  0  0  0  0
 27 26  1  0  0  0  0
M  END
>  <MODEL>
9

>  <REMARK>
 VINA RESULT:      -7.8      3.076      6.249
  Name = 
  7 active torsions:
  status: ('A' for Active; 'I' for Inactive)
    1  A    between atoms: C_1  and  C_2
    2  A    between atoms: C_2  and  C_3
    3  A    between atoms: C_2  and  C_8
    4  A    between atoms: C_3  and  C_7
    5  A    between atoms: C_6  and  C_22
    6  A    between atoms: C_7  and  C_22
    7  A    between atoms: C_10  and  C_13
                            x       y       z     vdW  Elec       q    Type
                         _______ _______ _______ _____ _____    ______ ____

>  <TORSDO>
F 7

$$$$
