=
 OpenBabel10262423063D

 37 40  0  0  1  0  0  0  0  0999 V2000
  184.7530  177.6600  136.3170 C   0  0  2  0  0  3  0  0  0  0  0  0
  186.9000  175.2560  134.5940 C   0  0  0  0  0  1  0  0  0  0  0  0
  184.2260  177.8790  138.9130 C   0  0  2  0  0  3  0  0  0  0  0  0
  186.1070  177.2920  135.7720 C   0  0  2  0  0  3  0  0  0  0  0  0
  185.0400  178.3320  137.6770 C   0  0  1  0  0  3  0  0  0  0  0  0
  186.2590  175.7560  135.8790 C   0  0  1  0  0  0  0  0  0  0  0  0
  183.8620  176.3980  138.8290 C   0  0  0  0  0  2  0  0  0  0  0  0
  186.4980  178.5170  137.8690 N   0  0  2  0  0  0  0  0  0  0  0  0
  182.5260  174.8630  137.5780 O   0  0  0  0  0  1  0  0  0  0  0  0
  183.0640  176.1480  137.5620 C   0  0  2  0  0  3  0  0  0  0  0  0
  183.9190  176.3760  136.3090 C   0  0  2  0  0  3  0  0  0  0  0  0
  187.0740  178.1880  136.5510 C   0  0  1  0  0  3  0  0  0  0  0  0
  184.8430  175.2160  135.9680 C   0  0  0  0  0  2  0  0  0  0  0  0
  182.6190  178.7560  140.6330 C   0  0  0  0  0  1  0  0  0  0  0  0
  182.9970  178.7650  139.1570 C   0  0  0  0  0  3  0  0  0  0  0  0
  183.2680  180.2040  138.7500 C   0  0  0  0  0  1  0  0  0  0  0  0
  186.8070  178.2360  140.1910 O   0  0  0  0  0  0  0  0  0  0  0  0
  188.1060  178.3680  139.6730 C   0  0  2  0  0  3  0  0  0  0  0  0
  187.0390  177.6500  138.9240 C   0  0  2  0  0  3  0  0  0  0  0  0
  189.0910  177.4180  140.3850 C   0  0  1  0  0  3  0  0  0  0  0  0
  190.3990  177.3510  139.5980 C   0  0  0  0  0  1  0  0  0  0  0  0
  189.3130  177.6210  141.8980 C   0  0  2  0  0  3  0  0  0  0  0  0
  190.7780  177.4720  142.2900 C   0  0  0  0  0  1  0  0  0  0  0  0
  188.4630  176.6340  142.6870 C   0  0  0  0  0  2  0  0  0  0  0  0
  188.3500  177.0200  144.1590 C   0  0  0  0  0  2  0  0  0  0  0  0
  186.9260  177.4050  144.5230 C   0  0  0  0  0  1  0  0  0  0  0  0
  187.0650  175.2790  137.1030 C   0  0  0  0  0  2  0  0  0  0  0  0
  188.1500  174.2550  136.7760 C   0  0  1  0  0  3  0  0  0  0  0  0
  189.3520  174.5680  137.5330 N   0  0  0  0  0  2  0  0  0  0  0  0
  191.6450  174.3280  137.8400 O   0  0  0  0  0  0  0  0  0  0  0  0
  190.8570  173.7890  135.7280 N   0  0  0  0  0  1  0  0  0  0  0  0
  190.6600  174.2330  137.0650 C   0  0  0  0  0  0  0  0  0  0  0  0
  187.6000  172.5930  137.2130 S   0  0  0  0  0  3  0  0  0  0  0  0
  186.9850  172.0740  135.9220 O   0  0  0  0  0  0  0  0  0  0  0  0
  188.5640  177.8450  136.5060 C   0  0  0  0  0  2  0  0  0  0  0  0
  189.0460  177.7960  135.0940 C   0  0  0  0  0  3  0  0  0  0  0  0
  189.9470  177.0340  134.7690 O   0  0  0  0  0  0  0  0  0  0  0  0
  1  5  1  0  0  0  0
  2  6  1  0  0  0  0
  3 15  1  0  0  0  0
  4  6  1  0  0  0  0
  4  1  1  0  0  0  0
  4 12  1  0  0  0  0
  5  8  1  0  0  0  0
  5  3  1  0  0  0  0
  6 13  1  0  0  0  0
  6 27  1  0  0  0  0
  7  3  1  0  0  0  0
  8 19  1  0  0  0  0
 10  9  1  0  0  0  0
 10  7  1  0  0  0  0
 11  1  1  0  0  0  0
 11 10  1  0  0  0  0
 12  8  1  0  0  0  0
 13 11  1  0  0  0  0
 15 14  1  0  0  0  0
 16 15  1  0  0  0  0
 18 17  1  0  0  0  0
 18 20  1  0  0  0  0
 19 18  1  0  0  0  0
 19 17  1  0  0  0  0
 20 22  1  0  0  0  0
 21 20  1  0  0  0  0
 22 23  1  0  0  0  0
 22 24  1  0  0  0  0
 24 25  1  0  0  0  0
 25 26  1  0  0  0  0
 28 27  1  0  0  0  0
 28 33  1  0  0  0  0
 28 29  1  0  0  0  0
 31 32  1  0  0  0  0
 32 29  1  0  0  0  0
 32 30  2  0  0  0  0
 34 33  2  0  0  0  0
 35 12  1  0  0  0  0
 36 35  1  0  0  0  0
 37 36  2  0  0  0  0
M  END
>  <MODEL>
1

>  <REMARK>
 VINA RESULT:      -5.0      0.000      0.000
  Name = 
  12 active torsions:
  status: ('A' for Active; 'I' for Inactive)
    1  A    between atoms: C_1  and  C_5
    2  A    between atoms: C_1  and  C_23
    3  A    between atoms: S_2  and  C_6
    4  A    between atoms: C_5  and  C_26
    5  A    between atoms: C_6  and  N_8
    6  A    between atoms: C_6  and  C_31
    7  A    between atoms: C_9  and  C_30
    8  A    between atoms: C_11  and  C_26
    9  A    between atoms: C_14  and  C_31
   10  A    between atoms: N_20  and  C_25
   11  A    between atoms: C_27  and  C_33
   12  A    between atoms: C_29  and  C_33
                            x       y       z     vdW  Elec       q    Type
                         _______ _______ _______ _____ _____    ______ ____

>  <TORSDO>
F 12

$$$$
=
 OpenBabel10262423063D

 37 40  0  0  1  0  0  0  0  0999 V2000
  190.8540  174.6810  134.5940 C   0  0  2  0  0  3  0  0  0  0  0  0
  194.2260  173.2730  134.6440 C   0  0  0  0  0  1  0  0  0  0  0  0
  189.0880  174.8740  136.5700 C   0  0  2  0  0  3  0  0  0  0  0  0
  192.3350  174.8750  134.7810 C   0  0  2  0  0  3  0  0  0  0  0  0
  190.1980  175.5230  135.7100 C   0  0  1  0  0  3  0  0  0  0  0  0
  192.9150  173.5620  135.3580 C   0  0  1  0  0  0  0  0  0  0  0  0
  189.3260  173.3770  136.7530 C   0  0  0  0  0  2  0  0  0  0  0  0
  191.2180  176.3220  136.4280 N   0  0  2  0  0  0  0  0  0  0  0  0
  189.3690  171.3220  135.5350 O   0  0  0  0  0  1  0  0  0  0  0  0
  189.3850  172.7080  135.3910 C   0  0  2  0  0  3  0  0  0  0  0  0
  190.6110  173.1700  134.5940 C   0  0  2  0  0  3  0  0  0  0  0  0
  192.4360  176.1580  135.6120 C   0  0  1  0  0  3  0  0  0  0  0  0
  191.9090  172.4840  134.9980 C   0  0  0  0  0  2  0  0  0  0  0  0
  186.7160  175.4390  137.1800 C   0  0  0  0  0  1  0  0  0  0  0  0
  187.6830  175.1750  136.0310 C   0  0  0  0  0  3  0  0  0  0  0  0
  187.6890  176.4010  135.1320 C   0  0  0  0  0  1  0  0  0  0  0  0
  190.2070  175.9140  138.5200 O   0  0  0  0  0  0  0  0  0  0  0  0
  191.1200  176.9530  138.7630 C   0  0  2  0  0  3  0  0  0  0  0  0
  191.4270  175.8560  137.8050 C   0  0  2  0  0  3  0  0  0  0  0  0
  191.8160  176.7780  140.1290 C   0  0  1  0  0  3  0  0  0  0  0  0
  193.3030  177.1020  139.9930 C   0  0  0  0  0  1  0  0  0  0  0  0
  191.1660  177.4520  141.3550 C   0  0  2  0  0  3  0  0  0  0  0  0
  191.9240  177.1570  142.6440 C   0  0  0  0  0  1  0  0  0  0  0  0
  189.7180  177.0020  141.4910 C   0  0  0  0  0  2  0  0  0  0  0  0
  189.5280  176.0120  142.6370 C   0  0  0  0  0  2  0  0  0  0  0  0
  188.3680  176.4160  143.5320 C   0  0  0  0  0  1  0  0  0  0  0  0
  193.1260  173.5740  136.8850 C   0  0  0  0  0  2  0  0  0  0  0  0
  194.5500  173.2410  137.3210 C   0  0  1  0  0  3  0  0  0  0  0  0
  194.8070  173.8390  138.6230 N   0  0  0  0  0  2  0  0  0  0  0  0
  196.2910  174.8330  140.1130 O   0  0  0  0  0  0  0  0  0  0  0  0
  196.9440  174.8520  137.8890 N   0  0  0  0  0  1  0  0  0  0  0  0
  196.0260  174.5220  138.9250 C   0  0  0  0  0  0  0  0  0  0  0  0
  194.7700  171.4550  137.4450 S   0  0  0  0  0  3  0  0  0  0  0  0
  196.2690  171.2980  137.6520 O   0  0  0  0  0  0  0  0  0  0  0  0
  193.7750  176.4730  136.2820 C   0  0  0  0  0  2  0  0  0  0  0  0
  194.7650  176.9510  135.2730 C   0  0  0  0  0  3  0  0  0  0  0  0
  195.9470  177.0680  135.5660 O   0  0  0  0  0  0  0  0  0  0  0  0
  1 11  1  0  0  0  0
  1  4  1  0  0  0  0
  1  5  1  0  0  0  0
  2  6  1  0  0  0  0
  3  7  1  0  0  0  0
  4  6  1  0  0  0  0
  4 12  1  0  0  0  0
  5  8  1  0  0  0  0
  5  3  1  0  0  0  0
  6 27  1  0  0  0  0
  8 19  1  0  0  0  0
 10  9  1  0  0  0  0
 10  7  1  0  0  0  0
 11 13  1  0  0  0  0
 11 10  1  0  0  0  0
 12 35  1  0  0  0  0
 12  8  1  0  0  0  0
 13  6  1  0  0  0  0
 15  3  1  0  0  0  0
 15 14  1  0  0  0  0
 16 15  1  0  0  0  0
 17 18  1  0  0  0  0
 18 20  1  0  0  0  0
 19 17  1  0  0  0  0
 19 18  1  0  0  0  0
 20 22  1  0  0  0  0
 21 20  1  0  0  0  0
 22 24  1  0  0  0  0
 22 23  1  0  0  0  0
 24 25  1  0  0  0  0
 25 26  1  0  0  0  0
 27 28  1  0  0  0  0
 28 33  1  0  0  0  0
 28 29  1  0  0  0  0
 29 32  1  0  0  0  0
 31 32  1  0  0  0  0
 32 30  2  0  0  0  0
 33 34  2  0  0  0  0
 36 37  2  0  0  0  0
 36 35  1  0  0  0  0
M  END
>  <MODEL>
2

>  <REMARK>
 VINA RESULT:      -4.1      3.443      5.925
  Name = 
  12 active torsions:
  status: ('A' for Active; 'I' for Inactive)
    1  A    between atoms: C_1  and  C_5
    2  A    between atoms: C_1  and  C_23
    3  A    between atoms: S_2  and  C_6
    4  A    between atoms: C_5  and  C_26
    5  A    between atoms: C_6  and  N_8
    6  A    between atoms: C_6  and  C_31
    7  A    between atoms: C_9  and  C_30
    8  A    between atoms: C_11  and  C_26
    9  A    between atoms: C_14  and  C_31
   10  A    between atoms: N_20  and  C_25
   11  A    between atoms: C_27  and  C_33
   12  A    between atoms: C_29  and  C_33
                            x       y       z     vdW  Elec       q    Type
                         _______ _______ _______ _____ _____    ______ ____

>  <TORSDO>
F 12

$$$$
=
 OpenBabel10262423063D

 37 40  0  0  1  0  0  0  0  0999 V2000
  184.1570  174.7510  134.9620 C   0  0  2  0  0  3  0  0  0  0  0  0
  185.8490  177.9710  134.6180 C   0  0  0  0  0  1  0  0  0  0  0  0
  183.1780  173.5950  137.1470 C   0  0  2  0  0  3  0  0  0  0  0  0
  184.0810  176.2310  134.7010 C   0  0  2  0  0  3  0  0  0  0  0  0
  182.9480  174.4450  135.8750 C   0  0  1  0  0  3  0  0  0  0  0  0
  185.2140  176.9120  135.5050 C   0  0  1  0  0  0  0  0  0  0  0  0
  184.5660  173.8350  137.7350 C   0  0  0  0  0  2  0  0  0  0  0  0
  182.0880  175.6430  136.0190 N   0  0  2  0  0  0  0  0  0  0  0  0
  186.8850  173.4910  137.2730 O   0  0  0  0  0  1  0  0  0  0  0  0
  185.6190  173.5030  136.6920 C   0  0  2  0  0  3  0  0  0  0  0  0
  185.5590  174.4780  135.5090 C   0  0  2  0  0  3  0  0  0  0  0  0
  182.6270  176.5880  135.0210 C   0  0  1  0  0  3  0  0  0  0  0  0
  186.2310  175.8180  135.7740 C   0  0  0  0  0  2  0  0  0  0  0  0
  181.4640  171.7630  137.2900 C   0  0  0  0  0  1  0  0  0  0  0  0
  182.9000  172.1050  136.9080 C   0  0  0  0  0  3  0  0  0  0  0  0
  183.0990  171.7350  135.4470 C   0  0  0  0  0  1  0  0  0  0  0  0
  181.3770  175.4000  138.2540 O   0  0  0  0  0  0  0  0  0  0  0  0
  180.7640  176.5840  137.8140 C   0  0  2  0  0  3  0  0  0  0  0  0
  182.1350  176.2070  137.3740 C   0  0  2  0  0  3  0  0  0  0  0  0
  180.7570  177.6560  138.9230 C   0  0  1  0  0  3  0  0  0  0  0  0
  179.7910  178.7790  138.5460 C   0  0  0  0  0  1  0  0  0  0  0  0
  180.5780  177.1780  140.3790 C   0  0  2  0  0  3  0  0  0  0  0  0
  179.2460  176.4700  140.5940 C   0  0  0  0  0  1  0  0  0  0  0  0
  180.6980  178.3580  141.3340 C   0  0  0  0  0  2  0  0  0  0  0  0
  182.1260  178.5500  141.8370 C   0  0  0  0  0  2  0  0  0  0  0  0
  182.1460  179.1640  143.2260 C   0  0  0  0  0  1  0  0  0  0  0  0
  184.7630  177.5310  136.8430 C   0  0  0  0  0  2  0  0  0  0  0  0
  185.8890  177.7070  137.8600 C   0  0  1  0  0  3  0  0  0  0  0  0
  186.8560  178.6640  137.3450 N   0  0  0  0  0  2  0  0  0  0  0  0
  188.9940  179.5800  137.4050 O   0  0  0  0  0  0  0  0  0  0  0  0
  188.7740  177.4890  138.3810 N   0  0  0  0  0  1  0  0  0  0  0  0
  188.2410  178.6170  137.6980 C   0  0  0  0  0  0  0  0  0  0  0  0
  185.2340  178.3210  139.4250 S   0  0  0  0  0  3  0  0  0  0  0  0
  184.8330  179.7520  139.1010 O   0  0  0  0  0  0  0  0  0  0  0  0
  182.2740  178.0670  135.1980 C   0  0  0  0  0  2  0  0  0  0  0  0
  180.9420  178.3610  134.5940 C   0  0  0  0  0  3  0  0  0  0  0  0
  180.2930  179.3320  134.9600 O   0  0  0  0  0  0  0  0  0  0  0  0
  1 11  1  0  0  0  0
  1  5  1  0  0  0  0
  2  6  1  0  0  0  0
  3  7  1  0  0  0  0
  4  1  1  0  0  0  0
  4 12  1  0  0  0  0
  4  6  1  0  0  0  0
  5  8  1  0  0  0  0
  5  3  1  0  0  0  0
  6 13  1  0  0  0  0
  6 27  1  0  0  0  0
  8 19  1  0  0  0  0
 10  9  1  0  0  0  0
 10  7  1  0  0  0  0
 11 13  1  0  0  0  0
 11 10  1  0  0  0  0
 12 35  1  0  0  0  0
 12  8  1  0  0  0  0
 15  3  1  0  0  0  0
 15 14  1  0  0  0  0
 16 15  1  0  0  0  0
 18 17  1  0  0  0  0
 18 20  1  0  0  0  0
 19 18  1  0  0  0  0
 19 17  1  0  0  0  0
 20 22  1  0  0  0  0
 21 20  1  0  0  0  0
 22 23  1  0  0  0  0
 22 24  1  0  0  0  0
 24 25  1  0  0  0  0
 25 26  1  0  0  0  0
 27 28  1  0  0  0  0
 28 33  1  0  0  0  0
 29 32  1  0  0  0  0
 29 28  1  0  0  0  0
 30 32  2  0  0  0  0
 32 31  1  0  0  0  0
 34 33  2  0  0  0  0
 36 37  2  0  0  0  0
 36 35  1  0  0  0  0
M  END
>  <MODEL>
3

>  <REMARK>
 VINA RESULT:      -3.7      3.247      6.384
  Name = 
  12 active torsions:
  status: ('A' for Active; 'I' for Inactive)
    1  A    between atoms: C_1  and  C_5
    2  A    between atoms: C_1  and  C_23
    3  A    between atoms: S_2  and  C_6
    4  A    between atoms: C_5  and  C_26
    5  A    between atoms: C_6  and  N_8
    6  A    between atoms: C_6  and  C_31
    7  A    between atoms: C_9  and  C_30
    8  A    between atoms: C_11  and  C_26
    9  A    between atoms: C_14  and  C_31
   10  A    between atoms: N_20  and  C_25
   11  A    between atoms: C_27  and  C_33
   12  A    between atoms: C_29  and  C_33
                            x       y       z     vdW  Elec       q    Type
                         _______ _______ _______ _____ _____    ______ ____

>  <TORSDO>
F 12

$$$$
=
 OpenBabel10262423063D

 37 40  0  0  1  0  0  0  0  0999 V2000
  185.7640  174.6880  134.8560 C   0  0  2  0  0  3  0  0  0  0  0  0
  186.9480  178.1150  135.3150 C   0  0  0  0  0  1  0  0  0  0  0  0
  184.8880  172.9590  136.6740 C   0  0  2  0  0  3  0  0  0  0  0  0
  185.4710  176.1630  134.9030 C   0  0  2  0  0  3  0  0  0  0  0  0
  184.5810  174.0220  135.5930 C   0  0  1  0  0  3  0  0  0  0  0  0
  186.4490  176.8090  135.9130 C   0  0  1  0  0  0  0  0  0  0  0  0
  186.1960  173.2620  137.4010 C   0  0  0  0  0  2  0  0  0  0  0  0
  183.5400  175.0250  135.9190 N   0  0  2  0  0  0  0  0  0  0  0  0
  188.5570  173.3620  137.0510 O   0  0  0  0  0  1  0  0  0  0  0  0
  187.3290  173.3170  136.3930 C   0  0  2  0  0  3  0  0  0  0  0  0
  187.1680  174.5070  135.4370 C   0  0  2  0  0  3  0  0  0  0  0  0
  183.9660  176.2300  135.1820 C   0  0  1  0  0  3  0  0  0  0  0  0
  187.6120  175.8390  136.0230 C   0  0  0  0  0  2  0  0  0  0  0  0
  183.5590  170.8320  136.5070 C   0  0  0  0  0  1  0  0  0  0  0  0
  184.8550  171.5310  136.1120 C   0  0  0  0  0  3  0  0  0  0  0  0
  184.9420  171.5360  134.5940 C   0  0  0  0  0  1  0  0  0  0  0  0
  182.8210  174.1850  138.0020 O   0  0  0  0  0  0  0  0  0  0  0  0
  182.0130  175.3110  137.7750 C   0  0  2  0  0  3  0  0  0  0  0  0
  183.4420  175.2820  137.3610 C   0  0  2  0  0  3  0  0  0  0  0  0
  181.7750  176.1000  139.0790 C   0  0  1  0  0  3  0  0  0  0  0  0
  181.8740  177.5990  138.7970 C   0  0  0  0  0  1  0  0  0  0  0  0
  180.5380  175.7310  139.9240 C   0  0  2  0  0  3  0  0  0  0  0  0
  179.7110  174.6250  139.2810 C   0  0  0  0  0  1  0  0  0  0  0  0
  179.6710  176.9640  140.1440 C   0  0  0  0  0  2  0  0  0  0  0  0
  179.7010  177.4360  141.5960 C   0  0  0  0  0  2  0  0  0  0  0  0
  180.0640  178.9080  141.6920 C   0  0  0  0  0  1  0  0  0  0  0  0
  185.8520  177.0520  137.3130 C   0  0  0  0  0  2  0  0  0  0  0  0
  186.4960  178.2080  138.0740 C   0  0  1  0  0  3  0  0  0  0  0  0
  185.9310  178.2770  139.4130 N   0  0  0  0  0  2  0  0  0  0  0  0
  184.7200  179.4480  141.0180 O   0  0  0  0  0  0  0  0  0  0  0  0
  184.4340  180.1620  138.8310 N   0  0  0  0  0  1  0  0  0  0  0  0
  185.0150  179.3020  139.8050 C   0  0  0  0  0  0  0  0  0  0  0  0
  188.2790  177.9620  138.2040 S   0  0  0  0  0  3  0  0  0  0  0  0
  188.8490  179.3270  137.8530 O   0  0  0  0  0  0  0  0  0  0  0  0
  183.3800  177.5700  135.6350 C   0  0  0  0  0  2  0  0  0  0  0  0
  182.1590  177.9000  134.8440 C   0  0  0  0  0  3  0  0  0  0  0  0
  181.0570  177.5140  135.2090 O   0  0  0  0  0  0  0  0  0  0  0  0
  1  4  1  0  0  0  0
  1 11  1  0  0  0  0
  1  5  1  0  0  0  0
  2  6  1  0  0  0  0
  3  7  1  0  0  0  0
  4 12  1  0  0  0  0
  4  6  1  0  0  0  0
  5  8  1  0  0  0  0
  5  3  1  0  0  0  0
  6 13  1  0  0  0  0
  6 27  1  0  0  0  0
  8 19  1  0  0  0  0
 10  9  1  0  0  0  0
 10  7  1  0  0  0  0
 11 13  1  0  0  0  0
 11 10  1  0  0  0  0
 12 35  1  0  0  0  0
 12  8  1  0  0  0  0
 15 14  1  0  0  0  0
 15  3  1  0  0  0  0
 16 15  1  0  0  0  0
 18 17  1  0  0  0  0
 18 20  1  0  0  0  0
 19 18  1  0  0  0  0
 19 17  1  0  0  0  0
 20 22  1  0  0  0  0
 21 20  1  0  0  0  0
 22 24  1  0  0  0  0
 23 22  1  0  0  0  0
 24 25  1  0  0  0  0
 25 26  1  0  0  0  0
 27 28  1  0  0  0  0
 28 33  1  0  0  0  0
 28 29  1  0  0  0  0
 29 32  1  0  0  0  0
 31 32  1  0  0  0  0
 32 30  2  0  0  0  0
 34 33  2  0  0  0  0
 36 37  2  0  0  0  0
 36 35  1  0  0  0  0
M  END
>  <MODEL>
4

>  <REMARK>
 VINA RESULT:      -3.7      3.302      6.757
  Name = 
  12 active torsions:
  status: ('A' for Active; 'I' for Inactive)
    1  A    between atoms: C_1  and  C_5
    2  A    between atoms: C_1  and  C_23
    3  A    between atoms: S_2  and  C_6
    4  A    between atoms: C_5  and  C_26
    5  A    between atoms: C_6  and  N_8
    6  A    between atoms: C_6  and  C_31
    7  A    between atoms: C_9  and  C_30
    8  A    between atoms: C_11  and  C_26
    9  A    between atoms: C_14  and  C_31
   10  A    between atoms: N_20  and  C_25
   11  A    between atoms: C_27  and  C_33
   12  A    between atoms: C_29  and  C_33
                            x       y       z     vdW  Elec       q    Type
                         _______ _______ _______ _____ _____    ______ ____

>  <TORSDO>
F 12

$$$$
=
 OpenBabel10262423063D

 37 40  0  0  1  0  0  0  0  0999 V2000
  182.2600  179.6410  139.2800 C   0  0  2  0  0  3  0  0  0  0  0  0
  179.0300  178.5190  137.9910 C   0  0  0  0  0  1  0  0  0  0  0  0
  184.2640  178.2000  140.2680 C   0  0  2  0  0  3  0  0  0  0  0  0
  181.4140  179.1990  138.1170 C   0  0  2  0  0  3  0  0  0  0  0  0
  183.6220  178.9410  139.0710 C   0  0  1  0  0  3  0  0  0  0  0  0
  180.3620  178.1970  138.6500 C   0  0  1  0  0  0  0  0  0  0  0  0
  183.2030  177.5970  141.1860 C   0  0  0  0  0  2  0  0  0  0  0  0
  183.6560  178.2500  137.7610 N   0  0  2  0  0  0  0  0  0  0  0  0
  181.4630  178.2150  142.7010 O   0  0  0  0  0  1  0  0  0  0  0  0
  182.2880  178.6990  141.6890 C   0  0  2  0  0  3  0  0  0  0  0  0
  181.4660  179.3080  140.5450 C   0  0  2  0  0  3  0  0  0  0  0  0
  182.4350  178.7190  137.0800 C   0  0  1  0  0  3  0  0  0  0  0  0
  180.2580  178.4770  140.1380 C   0  0  0  0  0  2  0  0  0  0  0  0
  185.0550  178.9330  142.5380 C   0  0  0  0  0  1  0  0  0  0  0  0
  185.2580  179.0840  141.0340 C   0  0  0  0  0  3  0  0  0  0  0  0
  186.6940  178.7030  140.7130 C   0  0  0  0  0  1  0  0  0  0  0  0
  185.0010  176.3210  137.9500 O   0  0  0  0  0  0  0  0  0  0  0  0
  184.3360  176.1710  136.7220 C   0  0  2  0  0  3  0  0  0  0  0  0
  183.6670  176.7880  137.9000 C   0  0  2  0  0  3  0  0  0  0  0  0
  183.9200  174.7040  136.4870 C   0  0  1  0  0  3  0  0  0  0  0  0
  183.1500  174.5940  135.1710 C   0  0  0  0  0  1  0  0  0  0  0  0
  185.0060  173.6190  136.6370 C   0  0  2  0  0  3  0  0  0  0  0  0
  185.4680  173.0760  135.2910 C   0  0  0  0  0  1  0  0  0  0  0  0
  184.4880  172.4810  137.5060 C   0  0  0  0  0  2  0  0  0  0  0  0
  183.7930  171.4000  136.6820 C   0  0  0  0  0  2  0  0  0  0  0  0
  182.2980  171.3720  136.9530 C   0  0  0  0  0  1  0  0  0  0  0  0
  180.7260  176.7150  138.4340 C   0  0  0  0  0  2  0  0  0  0  0  0
  179.5180  175.7910  138.2900 C   0  0  1  0  0  3  0  0  0  0  0  0
  179.8430  174.7160  137.3640 N   0  0  0  0  0  2  0  0  0  0  0  0
  179.5640  173.7110  135.2850 O   0  0  0  0  0  0  0  0  0  0  0  0
  178.9310  175.9370  135.4130 N   0  0  0  0  0  1  0  0  0  0  0  0
  179.4510  174.7450  135.9900 C   0  0  0  0  0  0  0  0  0  0  0  0
  179.0790  175.0750  139.8860 S   0  0  0  0  0  3  0  0  0  0  0  0
  179.5120  173.6230  139.7520 O   0  0  0  0  0  0  0  0  0  0  0  0
  181.9240  177.8820  135.9050 C   0  0  0  0  0  2  0  0  0  0  0  0
  181.5240  178.7640  134.7710 C   0  0  0  0  0  3  0  0  0  0  0  0
  180.3800  179.1920  134.6870 O   0  0  0  0  0  0  0  0  0  0  0  0
  1 11  1  0  0  0  0
  2  6  1  0  0  0  0
  3 15  1  0  0  0  0
  3  7  1  0  0  0  0
  4  6  1  0  0  0  0
  4  1  1  0  0  0  0
  5  1  1  0  0  0  0
  5  3  1  0  0  0  0
  6 13  1  0  0  0  0
  7 10  1  0  0  0  0
  8 19  1  0  0  0  0
  8  5  1  0  0  0  0
 10  9  1  0  0  0  0
 11 10  1  0  0  0  0
 12  8  1  0  0  0  0
 12  4  1  0  0  0  0
 13 11  1  0  0  0  0
 15 14  1  0  0  0  0
 16 15  1  0  0  0  0
 18 19  1  0  0  0  0
 18 17  1  0  0  0  0
 19 17  1  0  0  0  0
 20 22  1  0  0  0  0
 20 18  1  0  0  0  0
 21 20  1  0  0  0  0
 22 24  1  0  0  0  0
 23 22  1  0  0  0  0
 25 26  1  0  0  0  0
 25 24  1  0  0  0  0
 27  6  1  0  0  0  0
 28 27  1  0  0  0  0
 28 33  1  0  0  0  0
 29 28  1  0  0  0  0
 30 32  2  0  0  0  0
 31 32  1  0  0  0  0
 32 29  1  0  0  0  0
 34 33  2  0  0  0  0
 35 12  1  0  0  0  0
 36 35  1  0  0  0  0
 37 36  2  0  0  0  0
M  END
>  <MODEL>
5

>  <REMARK>
 VINA RESULT:      -3.2      3.984      7.405
  Name = 
  12 active torsions:
  status: ('A' for Active; 'I' for Inactive)
    1  A    between atoms: C_1  and  C_5
    2  A    between atoms: C_1  and  C_23
    3  A    between atoms: S_2  and  C_6
    4  A    between atoms: C_5  and  C_26
    5  A    between atoms: C_6  and  N_8
    6  A    between atoms: C_6  and  C_31
    7  A    between atoms: C_9  and  C_30
    8  A    between atoms: C_11  and  C_26
    9  A    between atoms: C_14  and  C_31
   10  A    between atoms: N_20  and  C_25
   11  A    between atoms: C_27  and  C_33
   12  A    between atoms: C_29  and  C_33
                            x       y       z     vdW  Elec       q    Type
                         _______ _______ _______ _____ _____    ______ ____

>  <TORSDO>
F 12

$$$$
=
 OpenBabel10262423063D

 37 40  0  0  1  0  0  0  0  0999 V2000
  187.4840  175.1800  135.5040 C   0  0  2  0  0  3  0  0  0  0  0  0
  190.2340  176.9630  137.1220 C   0  0  0  0  0  1  0  0  0  0  0  0
  185.2720  174.1760  136.5820 C   0  0  2  0  0  3  0  0  0  0  0  0
  188.1050  176.4800  135.9410 C   0  0  2  0  0  3  0  0  0  0  0  0
  185.9810  175.3270  135.8300 C   0  0  1  0  0  3  0  0  0  0  0  0
  188.9180  176.2080  137.2280 C   0  0  1  0  0  0  0  0  0  0  0  0
  186.2210  173.4720  137.5490 C   0  0  0  0  0  2  0  0  0  0  0  0
  185.6780  176.7050  136.2810 N   0  0  2  0  0  0  0  0  0  0  0  0
  188.1710  172.0930  137.5940 O   0  0  0  0  0  1  0  0  0  0  0  0
  187.4130  172.9320  136.7800 C   0  0  2  0  0  3  0  0  0  0  0  0
  188.2680  174.0690  136.2050 C   0  0  2  0  0  3  0  0  0  0  0  0
  186.9210  177.4500  136.0040 C   0  0  1  0  0  3  0  0  0  0  0  0
  189.2030  174.7160  137.2160 C   0  0  0  0  0  2  0  0  0  0  0  0
  183.8110  172.1380  136.4090 C   0  0  0  0  0  1  0  0  0  0  0  0
  184.5860  173.1910  135.6250 C   0  0  0  0  0  3  0  0  0  0  0  0
  183.6090  173.9070  134.7070 C   0  0  0  0  0  1  0  0  0  0  0  0
  184.0080  176.2750  137.8900 O   0  0  0  0  0  0  0  0  0  0  0  0
  184.1590  177.6710  137.9000 C   0  0  2  0  0  3  0  0  0  0  0  0
  185.3220  176.7640  137.7050 C   0  0  2  0  0  3  0  0  0  0  0  0
  184.0620  178.2340  139.3330 C   0  0  1  0  0  3  0  0  0  0  0  0
  184.1630  179.7580  139.2940 C   0  0  0  0  0  1  0  0  0  0  0  0
  182.9050  177.7330  140.2220 C   0  0  2  0  0  3  0  0  0  0  0  0
  181.6860  178.6450  140.1480 C   0  0  0  0  0  1  0  0  0  0  0  0
  183.3720  177.6100  141.6650 C   0  0  0  0  0  2  0  0  0  0  0  0
  183.0400  178.8530  142.4860 C   0  0  0  0  0  2  0  0  0  0  0  0
  183.5010  178.7050  143.9270 C   0  0  0  0  0  1  0  0  0  0  0  0
  188.1890  176.5780  138.5340 C   0  0  0  0  0  2  0  0  0  0  0  0
  188.9330  177.5950  139.3980 C   0  0  1  0  0  3  0  0  0  0  0  0
  187.9710  178.4840  140.0300 N   0  0  0  0  0  2  0  0  0  0  0  0
  186.5170  178.9380  141.7890 O   0  0  0  0  0  0  0  0  0  0  0  0
  188.1260  177.3220  142.2120 N   0  0  0  0  0  1  0  0  0  0  0  0
  187.4970  178.2760  141.3630 C   0  0  0  0  0  0  0  0  0  0  0  0
  189.8850  176.7550  140.6800 S   0  0  0  0  0  3  0  0  0  0  0  0
  191.2420  177.4380  140.6150 O   0  0  0  0  0  0  0  0  0  0  0  0
  187.1200  178.7770  136.7410 C   0  0  0  0  0  2  0  0  0  0  0  0
  188.4400  179.3770  136.3880 C   0  0  0  0  0  3  0  0  0  0  0  0
  189.0550  180.0530  137.2020 O   0  0  0  0  0  0  0  0  0  0  0  0
  1  5  1  0  0  0  0
  1  4  1  0  0  0  0
  1 11  1  0  0  0  0
  2  6  1  0  0  0  0
  3  7  1  0  0  0  0
  4 12  1  0  0  0  0
  4  6  1  0  0  0  0
  5  8  1  0  0  0  0
  5  3  1  0  0  0  0
  6 27  1  0  0  0  0
  8 19  1  0  0  0  0
 10  7  1  0  0  0  0
 10  9  1  0  0  0  0
 11 10  1  0  0  0  0
 11 13  1  0  0  0  0
 12  8  1  0  0  0  0
 12 35  1  0  0  0  0
 13  6  1  0  0  0  0
 15 14  1  0  0  0  0
 15  3  1  0  0  0  0
 16 15  1  0  0  0  0
 17 18  1  0  0  0  0
 18 20  1  0  0  0  0
 19 17  1  0  0  0  0
 19 18  1  0  0  0  0
 20 22  1  0  0  0  0
 21 20  1  0  0  0  0
 22 24  1  0  0  0  0
 23 22  1  0  0  0  0
 24 25  1  0  0  0  0
 25 26  1  0  0  0  0
 27 28  1  0  0  0  0
 28 29  1  0  0  0  0
 28 33  1  0  0  0  0
 29 32  1  0  0  0  0
 32 30  2  0  0  0  0
 32 31  1  0  0  0  0
 34 33  2  0  0  0  0
 36 35  1  0  0  0  0
 36 37  2  0  0  0  0
M  END
>  <MODEL>
6

>  <REMARK>
 VINA RESULT:      -3.2      2.462      5.329
  Name = 
  12 active torsions:
  status: ('A' for Active; 'I' for Inactive)
    1  A    between atoms: C_1  and  C_5
    2  A    between atoms: C_1  and  C_23
    3  A    between atoms: S_2  and  C_6
    4  A    between atoms: C_5  and  C_26
    5  A    between atoms: C_6  and  N_8
    6  A    between atoms: C_6  and  C_31
    7  A    between atoms: C_9  and  C_30
    8  A    between atoms: C_11  and  C_26
    9  A    between atoms: C_14  and  C_31
   10  A    between atoms: N_20  and  C_25
   11  A    between atoms: C_27  and  C_33
   12  A    between atoms: C_29  and  C_33
                            x       y       z     vdW  Elec       q    Type
                         _______ _______ _______ _____ _____    ______ ____

>  <TORSDO>
F 12

$$$$
=
 OpenBabel10262423063D

 37 40  0  0  1  0  0  0  0  0999 V2000
  185.6580  177.6160  135.7930 C   0  0  2  0  0  3  0  0  0  0  0  0
  187.9660  175.0300  134.6350 C   0  0  0  0  0  1  0  0  0  0  0  0
  184.6450  177.9950  138.2210 C   0  0  2  0  0  3  0  0  0  0  0  0
  187.0700  177.1590  135.5440 C   0  0  2  0  0  3  0  0  0  0  0  0
  185.7100  178.3450  137.1540 C   0  0  1  0  0  3  0  0  0  0  0  0
  187.1140  175.6250  135.7440 C   0  0  1  0  0  0  0  0  0  0  0  0
  184.2240  176.5300  138.1300 C   0  0  0  0  0  2  0  0  0  0  0  0
  187.1090  178.4740  137.6230 N   0  0  2  0  0  0  0  0  0  0  0  0
  183.0770  174.9930  136.7050 O   0  0  0  0  0  1  0  0  0  0  0  0
  183.6770  176.2500  136.7410 C   0  0  2  0  0  3  0  0  0  0  0  0
  184.7730  176.3730  135.6750 C   0  0  2  0  0  3  0  0  0  0  0  0
  187.9130  178.0500  136.4610 C   0  0  1  0  0  3  0  0  0  0  0  0
  185.6810  175.1550  135.5730 C   0  0  0  0  0  2  0  0  0  0  0  0
  182.1500  178.1850  138.4430 C   0  0  0  0  0  1  0  0  0  0  0  0
  183.4430  178.9470  138.1780 C   0  0  0  0  0  3  0  0  0  0  0  0
  183.5680  180.0390  139.2280 C   0  0  0  0  0  1  0  0  0  0  0  0
  186.8880  178.2750  139.9630 O   0  0  0  0  0  0  0  0  0  0  0  0
  188.2720  178.3720  139.7440 C   0  0  2  0  0  3  0  0  0  0  0  0
  187.3840  177.6400  138.8000 C   0  0  2  0  0  3  0  0  0  0  0  0
  189.0550  177.4370  140.6890 C   0  0  1  0  0  3  0  0  0  0  0  0
  190.4890  177.2800  140.1840 C   0  0  0  0  0  1  0  0  0  0  0  0
  188.9820  177.7250  142.2030 C   0  0  2  0  0  3  0  0  0  0  0  0
  190.3290  177.5390  142.8900 C   0  0  0  0  0  1  0  0  0  0  0  0
  187.9390  176.8270  142.8540 C   0  0  0  0  0  2  0  0  0  0  0  0
  188.1160  176.7450  144.3680 C   0  0  0  0  0  2  0  0  0  0  0  0
  187.2610  177.7770  145.0830 C   0  0  0  0  0  1  0  0  0  0  0  0
  187.6370  175.1770  137.1230 C   0  0  0  0  0  2  0  0  0  0  0  0
  188.0490  173.7080  137.1880 C   0  0  1  0  0  3  0  0  0  0  0  0
  187.2130  172.9340  136.2820 N   0  0  0  0  0  2  0  0  0  0  0  0
  185.3820  171.5390  135.9450 O   0  0  0  0  0  0  0  0  0  0  0  0
  185.3720  172.7440  137.9260 N   0  0  0  0  0  1  0  0  0  0  0  0
  185.9630  172.3710  136.6870 C   0  0  0  0  0  0  0  0  0  0  0  0
  189.7750  173.5160  136.6990 S   0  0  0  0  0  3  0  0  0  0  0  0
  190.5300  174.3090  137.7540 O   0  0  0  0  0  0  0  0  0  0  0  0
  189.3630  177.6380  136.7270 C   0  0  0  0  0  2  0  0  0  0  0  0
  190.1560  177.6750  135.4640 C   0  0  0  0  0  3  0  0  0  0  0  0
  190.7920  176.6950  135.0980 O   0  0  0  0  0  0  0  0  0  0  0  0
  1  5  1  0  0  0  0
  2  6  1  0  0  0  0
  4  6  1  0  0  0  0
  4  1  1  0  0  0  0
  4 12  1  0  0  0  0
  5  8  1  0  0  0  0
  5  3  1  0  0  0  0
  6 27  1  0  0  0  0
  7  3  1  0  0  0  0
  8 19  1  0  0  0  0
  9 10  1  0  0  0  0
 10  7  1  0  0  0  0
 11  1  1  0  0  0  0
 11 10  1  0  0  0  0
 12 35  1  0  0  0  0
 12  8  1  0  0  0  0
 13 11  1  0  0  0  0
 13  6  1  0  0  0  0
 15  3  1  0  0  0  0
 15 14  1  0  0  0  0
 15 16  1  0  0  0  0
 18 17  1  0  0  0  0
 18 20  1  0  0  0  0
 19 18  1  0  0  0  0
 19 17  1  0  0  0  0
 20 22  1  0  0  0  0
 21 20  1  0  0  0  0
 22 24  1  0  0  0  0
 22 23  1  0  0  0  0
 24 25  1  0  0  0  0
 25 26  1  0  0  0  0
 27 28  1  0  0  0  0
 29 32  1  0  0  0  0
 29 28  1  0  0  0  0
 30 32  2  0  0  0  0
 32 31  1  0  0  0  0
 33 28  1  0  0  0  0
 33 34  2  0  0  0  0
 36 35  1  0  0  0  0
 37 36  2  0  0  0  0
M  END
>  <MODEL>
7

>  <REMARK>
 VINA RESULT:      -3.1      1.328      2.159
  Name = 
  12 active torsions:
  status: ('A' for Active; 'I' for Inactive)
    1  A    between atoms: C_1  and  C_5
    2  A    between atoms: C_1  and  C_23
    3  A    between atoms: S_2  and  C_6
    4  A    between atoms: C_5  and  C_26
    5  A    between atoms: C_6  and  N_8
    6  A    between atoms: C_6  and  C_31
    7  A    between atoms: C_9  and  C_30
    8  A    between atoms: C_11  and  C_26
    9  A    between atoms: C_14  and  C_31
   10  A    between atoms: N_20  and  C_25
   11  A    between atoms: C_27  and  C_33
   12  A    between atoms: C_29  and  C_33
                            x       y       z     vdW  Elec       q    Type
                         _______ _______ _______ _____ _____    ______ ____

>  <TORSDO>
F 12

$$$$
=
 OpenBabel10262423063D

 37 40  0  0  1  0  0  0  0  0999 V2000
  189.2690  176.4730  135.1550 C   0  0  2  0  0  3  0  0  0  0  0  0
  188.1630  179.4990  136.8810 C   0  0  0  0  0  1  0  0  0  0  0  0
  189.1810  173.9470  135.9760 C   0  0  2  0  0  3  0  0  0  0  0  0
  188.1850  177.4780  135.4400 C   0  0  2  0  0  3  0  0  0  0  0  0
  188.5540  175.1040  135.1620 C   0  0  1  0  0  3  0  0  0  0  0  0
  188.3860  177.9950  136.8840 C   0  0  1  0  0  0  0  0  0  0  0  0
  189.8980  174.4650  137.2200 C   0  0  0  0  0  2  0  0  0  0  0  0
  187.0880  175.2820  135.2740 N   0  0  2  0  0  0  0  0  0  0  0  0
  191.7920  175.7570  137.8920 O   0  0  0  0  0  1  0  0  0  0  0  0
  190.9770  175.4490  136.8050 C   0  0  2  0  0  3  0  0  0  0  0  0
  190.3690  176.7170  136.1900 C   0  0  2  0  0  3  0  0  0  0  0  0
  186.8920  176.7330  135.0940 C   0  0  1  0  0  3  0  0  0  0  0  0
  189.8410  177.7120  137.2140 C   0  0  0  0  0  2  0  0  0  0  0  0
  191.3630  172.7060  135.8710 C   0  0  0  0  0  1  0  0  0  0  0  0
  190.0840  173.0520  135.1170 C   0  0  0  0  0  3  0  0  0  0  0  0
  189.3850  171.7520  134.7540 C   0  0  0  0  0  1  0  0  0  0  0  0
  186.6510  173.4150  136.6480 O   0  0  0  0  0  0  0  0  0  0  0  0
  185.3830  173.9450  136.3560 C   0  0  2  0  0  3  0  0  0  0  0  0
  186.5650  174.8250  136.5680 C   0  0  2  0  0  3  0  0  0  0  0  0
  184.4510  173.8750  137.5830 C   0  0  1  0  0  3  0  0  0  0  0  0
  183.9040  175.2680  137.8930 C   0  0  0  0  0  1  0  0  0  0  0  0
  183.3570  172.7880  137.5900 C   0  0  2  0  0  3  0  0  0  0  0  0
  183.6350  171.6840  136.5770 C   0  0  0  0  0  1  0  0  0  0  0  0
  181.9980  173.4150  137.3120 C   0  0  0  0  0  2  0  0  0  0  0  0
  181.3830  172.9040  136.0120 C   0  0  0  0  0  2  0  0  0  0  0  0
  181.7570  173.7910  134.8360 C   0  0  0  0  0  1  0  0  0  0  0  0
  187.4840  177.3200  137.9350 C   0  0  0  0  0  2  0  0  0  0  0  0
  186.9330  178.2750  138.9920 C   0  0  1  0  0  3  0  0  0  0  0  0
  185.5960  177.8500  139.3760 N   0  0  0  0  0  2  0  0  0  0  0  0
  183.4060  178.3930  139.9420 O   0  0  0  0  0  0  0  0  0  0  0  0
  184.5930  180.0470  138.8330 N   0  0  0  0  0  1  0  0  0  0  0  0
  184.4860  178.7490  139.4050 C   0  0  0  0  0  0  0  0  0  0  0  0
  187.9900  178.2740  140.4540 S   0  0  0  0  0  3  0  0  0  0  0  0
  188.8240  177.0140  140.2850 O   0  0  0  0  0  0  0  0  0  0  0  0
  185.5690  177.3260  135.5850 C   0  0  0  0  0  2  0  0  0  0  0  0
  184.4830  177.0720  134.5950 C   0  0  0  0  0  3  0  0  0  0  0  0
  183.3290  177.3980  134.8380 O   0  0  0  0  0  0  0  0  0  0  0  0
  1  5  1  0  0  0  0
  1  4  1  0  0  0  0
  1 11  1  0  0  0  0
  2  6  1  0  0  0  0
  3  7  1  0  0  0  0
  4  6  1  0  0  0  0
  5  8  1  0  0  0  0
  5  3  1  0  0  0  0
  6 13  1  0  0  0  0
  6 27  1  0  0  0  0
  8 19  1  0  0  0  0
 10  7  1  0  0  0  0
 10  9  1  0  0  0  0
 11 10  1  0  0  0  0
 11 13  1  0  0  0  0
 12  8  1  0  0  0  0
 12  4  1  0  0  0  0
 12 35  1  0  0  0  0
 15 14  1  0  0  0  0
 15  3  1  0  0  0  0
 16 15  1  0  0  0  0
 18 19  1  0  0  0  0
 18 17  1  0  0  0  0
 18 20  1  0  0  0  0
 19 17  1  0  0  0  0
 20 22  1  0  0  0  0
 20 21  1  0  0  0  0
 23 22  1  0  0  0  0
 24 22  1  0  0  0  0
 25 24  1  0  0  0  0
 26 25  1  0  0  0  0
 27 28  1  0  0  0  0
 28 29  1  0  0  0  0
 28 33  1  0  0  0  0
 29 32  1  0  0  0  0
 31 32  1  0  0  0  0
 32 30  2  0  0  0  0
 34 33  2  0  0  0  0
 36 37  2  0  0  0  0
 36 35  1  0  0  0  0
M  END
>  <MODEL>
8

>  <REMARK>
 VINA RESULT:      -2.9      2.786      7.301
  Name = 
  12 active torsions:
  status: ('A' for Active; 'I' for Inactive)
    1  A    between atoms: C_1  and  C_5
    2  A    between atoms: C_1  and  C_23
    3  A    between atoms: S_2  and  C_6
    4  A    between atoms: C_5  and  C_26
    5  A    between atoms: C_6  and  N_8
    6  A    between atoms: C_6  and  C_31
    7  A    between atoms: C_9  and  C_30
    8  A    between atoms: C_11  and  C_26
    9  A    between atoms: C_14  and  C_31
   10  A    between atoms: N_20  and  C_25
   11  A    between atoms: C_27  and  C_33
   12  A    between atoms: C_29  and  C_33
                            x       y       z     vdW  Elec       q    Type
                         _______ _______ _______ _____ _____    ______ ____

>  <TORSDO>
F 12

$$$$
=
 OpenBabel10262423063D

 37 40  0  0  1  0  0  0  0  0999 V2000
  186.9820  175.4660  134.6960 C   0  0  2  0  0  3  0  0  0  0  0  0
  187.1730  178.9100  135.9020 C   0  0  0  0  0  1  0  0  0  0  0  0
  186.4020  173.2480  136.0400 C   0  0  2  0  0  3  0  0  0  0  0  0
  186.3090  176.7890  134.9460 C   0  0  2  0  0  3  0  0  0  0  0  0
  185.9430  174.4040  135.1210 C   0  0  1  0  0  3  0  0  0  0  0  0
  186.9730  177.4310  136.1870 C   0  0  1  0  0  0  0  0  0  0  0  0
  187.5020  173.6990  136.9980 C   0  0  0  0  0  2  0  0  0  0  0  0
  184.6480  175.0440  135.4480 N   0  0  2  0  0  0  0  0  0  0  0  0
  189.7780  174.4240  137.0340 O   0  0  0  0  0  1  0  0  0  0  0  0
  188.6810  174.2240  136.1990 C   0  0  2  0  0  3  0  0  0  0  0  0
  188.3150  175.5090  135.4450 C   0  0  2  0  0  3  0  0  0  0  0  0
  184.8190  176.4400  135.0000 C   0  0  1  0  0  3  0  0  0  0  0  0
  188.3310  176.7630  136.3090 C   0  0  0  0  0  2  0  0  0  0  0  0
  187.6830  171.0870  136.0950 C   0  0  0  0  0  1  0  0  0  0  0  0
  186.8040  171.9970  135.2460 C   0  0  0  0  0  3  0  0  0  0  0  0
  185.5810  171.2020  134.8180 C   0  0  0  0  0  1  0  0  0  0  0  0
  183.8790  173.6760  137.2090 O   0  0  0  0  0  0  0  0  0  0  0  0
  182.8920  174.6660  137.0710 C   0  0  2  0  0  3  0  0  0  0  0  0
  184.3360  174.9750  136.8810 C   0  0  2  0  0  3  0  0  0  0  0  0
  182.3520  175.1120  138.4460 C   0  0  1  0  0  3  0  0  0  0  0  0
  182.8190  176.5370  138.7430 C   0  0  0  0  0  1  0  0  0  0  0  0
  180.8490  174.9050  138.7260 C   0  0  2  0  0  3  0  0  0  0  0  0
  180.3140  173.6320  138.0830 C   0  0  0  0  0  1  0  0  0  0  0  0
  180.0560  176.1070  138.2320 C   0  0  0  0  0  2  0  0  0  0  0  0
  179.3020  176.8030  139.3630 C   0  0  0  0  0  2  0  0  0  0  0  0
  179.2420  175.9320  140.6060 C   0  0  0  0  0  1  0  0  0  0  0  0
  186.1900  177.2370  137.5010 C   0  0  0  0  0  2  0  0  0  0  0  0
  186.6400  178.1530  138.6370 C   0  0  1  0  0  3  0  0  0  0  0  0
  185.6960  178.0510  139.7400 N   0  0  0  0  0  2  0  0  0  0  0  0
  184.0940  179.0430  141.1040 O   0  0  0  0  0  0  0  0  0  0  0  0
  184.5110  180.1280  139.0980 N   0  0  0  0  0  1  0  0  0  0  0  0
  184.7390  179.0730  140.0250 C   0  0  0  0  0  0  0  0  0  0  0  0
  188.2780  177.6740  139.2220 S   0  0  0  0  0  3  0  0  0  0  0  0
  189.0100  179.0010  139.3450 O   0  0  0  0  0  0  0  0  0  0  0  0
  183.8590  177.4820  135.5780 C   0  0  0  0  0  2  0  0  0  0  0  0
  182.6840  177.6660  134.6770 C   0  0  0  0  0  3  0  0  0  0  0  0
  181.6710  178.2250  135.0800 O   0  0  0  0  0  0  0  0  0  0  0  0
  1  4  1  0  0  0  0
  1  5  1  0  0  0  0
  1 11  1  0  0  0  0
  2  6  1  0  0  0  0
  3  7  1  0  0  0  0
  4 12  1  0  0  0  0
  4  6  1  0  0  0  0
  5  8  1  0  0  0  0
  5  3  1  0  0  0  0
  6 13  1  0  0  0  0
  6 27  1  0  0  0  0
  8 19  1  0  0  0  0
 10  7  1  0  0  0  0
 10  9  1  0  0  0  0
 11 10  1  0  0  0  0
 11 13  1  0  0  0  0
 12  8  1  0  0  0  0
 12 35  1  0  0  0  0
 15  3  1  0  0  0  0
 15 14  1  0  0  0  0
 16 15  1  0  0  0  0
 18 17  1  0  0  0  0
 18 20  1  0  0  0  0
 19 18  1  0  0  0  0
 19 17  1  0  0  0  0
 20 22  1  0  0  0  0
 20 21  1  0  0  0  0
 23 22  1  0  0  0  0
 24 22  1  0  0  0  0
 24 25  1  0  0  0  0
 25 26  1  0  0  0  0
 27 28  1  0  0  0  0
 28 33  1  0  0  0  0
 28 29  1  0  0  0  0
 29 32  1  0  0  0  0
 31 32  1  0  0  0  0
 32 30  2  0  0  0  0
 33 34  2  0  0  0  0
 36 37  2  0  0  0  0
 36 35  1  0  0  0  0
M  END
>  <MODEL>
9

>  <REMARK>
 VINA RESULT:      -2.9      3.056      6.989
  Name = 
  12 active torsions:
  status: ('A' for Active; 'I' for Inactive)
    1  A    between atoms: C_1  and  C_5
    2  A    between atoms: C_1  and  C_23
    3  A    between atoms: S_2  and  C_6
    4  A    between atoms: C_5  and  C_26
    5  A    between atoms: C_6  and  N_8
    6  A    between atoms: C_6  and  C_31
    7  A    between atoms: C_9  and  C_30
    8  A    between atoms: C_11  and  C_26
    9  A    between atoms: C_14  and  C_31
   10  A    between atoms: N_20  and  C_25
   11  A    between atoms: C_27  and  C_33
   12  A    between atoms: C_29  and  C_33
                            x       y       z     vdW  Elec       q    Type
                         _______ _______ _______ _____ _____    ______ ____

>  <TORSDO>
F 12

$$$$
