=
 OpenBabel10262420123D

 27 31  0  0  0  0  0  0  0  0999 V2000
  184.6760  178.8210  141.1670 N   0  0  0  0  0  0  0  0  0  0  0  0
  184.5340  178.8020  142.5070 C   0  0  0  0  0  0  0  0  0  0  0  0
  186.6600  178.3130  142.1090 C   0  0  0  0  0  0  0  0  0  0  0  0
  184.6450  178.5850  146.6400 N   0  0  0  0  0  0  0  0  0  0  0  0
  185.7810  178.2630  147.3150 C   0  0  0  0  0  3  0  0  0  0  0  0
  183.3660  179.0580  143.2260 C   0  0  0  0  0  3  0  0  0  0  0  0
  186.9680  178.0670  145.2260 C   0  0  0  0  0  3  0  0  0  0  0  0
  188.0670  178.1640  139.6190 N   0  0  0  0  0  0  0  0  0  0  0  0
  188.7850  178.0220  143.1560 O   0  0  0  0  0  0  0  0  0  0  0  0
  188.8000  178.2030  138.3640 C   0  0  0  0  0  1  0  0  0  0  0  0
  185.8010  178.4020  144.5360 C   0  0  0  0  0  0  0  0  0  0  0  0
  186.9620  177.9980  146.6190 C   0  0  0  0  0  3  0  0  0  0  0  0
  184.6190  178.6590  145.2820 C   0  0  0  0  0  0  0  0  0  0  0  0
  185.9740  178.5230  140.9320 C   0  0  0  0  0  0  0  0  0  0  0  0
  185.7290  178.4890  143.1350 C   0  0  0  0  0  0  0  0  0  0  0  0
  188.7680  177.6400  140.8000 C   0  0  0  0  0  2  0  0  0  0  0  0
  183.4180  178.9850  144.6250 C   0  0  0  0  0  3  0  0  0  0  0  0
  186.0320  178.6770  138.5620 O   0  0  0  0  0  0  0  0  0  0  0  0
  186.6570  178.4600  139.6350 C   0  0  0  0  0  0  0  0  0  0  0  0
  188.1010  178.0060  142.1020 C   0  0  0  0  0  0  0  0  0  0  0  0
  183.6540  179.1770  140.1870 C   0  0  0  0  0  2  0  0  0  0  0  0
  180.8550  175.9820  139.8120 C   0  0  0  0  0  3  0  0  0  0  0  0
  182.6770  178.0610  140.0340 C   0  0  0  0  0  0  0  0  0  0  0  0
  183.1050  176.8220  139.5510 C   0  0  0  0  0  3  0  0  0  0  0  0
  182.1840  175.7790  139.4390 C   0  0  0  0  0  3  0  0  0  0  0  0
  180.4660  177.2330  140.2960 C   0  0  0  0  0  3  0  0  0  0  0  0
  181.3780  178.2370  140.3980 N   0  0  0  0  0  0  0  0  0  0  0  0
  1  2  1  0  0  0  0
  2 15  2  0  0  0  0
  2  6  1  0  0  0  0
  3 15  1  0  0  0  0
  4  5  1  0  0  0  0
  6 17  2  0  0  0  0
  7 12  1  0  0  0  0
  8 19  1  0  0  0  0
  8 16  1  0  0  0  0
 10  8  1  0  0  0  0
 11  7  2  0  0  0  0
 11 13  1  0  0  0  0
 12  5  2  0  0  0  0
 13  4  2  0  0  0  0
 14  1  1  0  0  0  0
 14  3  2  0  0  0  0
 15 11  1  0  0  0  0
 16 20  1  0  0  0  0
 17 13  1  0  0  0  0
 18 19  2  0  0  0  0
 19 14  1  0  0  0  0
 20  3  1  0  0  0  0
 20  9  2  0  0  0  0
 21  1  1  0  0  0  0
 22 26  1  0  0  0  0
 23 21  1  0  0  0  0
 23 27  1  0  0  0  0
 24 23  2  0  0  0  0
 25 24  1  0  0  0  0
 25 22  2  0  0  0  0
 26 27  2  0  0  0  0
M  END
>  <MODEL>
1

>  <REMARK>
 VINA RESULT:      -9.2      0.000      0.000
  Name = 
  2 active torsions:
  status: ('A' for Active; 'I' for Inactive)
    1  A    between atoms: N_1  and  C_15
    2  A    between atoms: C_9  and  C_15
                            x       y       z     vdW  Elec       q    Type
                         _______ _______ _______ _____ _____    ______ ____

>  <TORSDO>
F 2

$$$$
=
 OpenBabel10262420123D

 27 31  0  0  0  0  0  0  0  0999 V2000
  185.3450  178.7540  140.9910 N   0  0  0  0  0  0  0  0  0  0  0  0
  184.9960  178.7800  142.2930 C   0  0  0  0  0  0  0  0  0  0  0  0
  187.1380  178.2060  142.2430 C   0  0  0  0  0  0  0  0  0  0  0  0
  184.4570  178.6840  146.3970 N   0  0  0  0  0  0  0  0  0  0  0  0
  185.4620  178.3450  147.2480 C   0  0  0  0  0  3  0  0  0  0  0  0
  183.7410  179.0970  142.8140 C   0  0  0  0  0  3  0  0  0  0  0  0
  186.9490  178.0460  145.3750 C   0  0  0  0  0  3  0  0  0  0  0  0
  188.9070  177.9340  140.0080 N   0  0  0  0  0  0  0  0  0  0  0  0
  189.0620  177.8760  143.6160 O   0  0  0  0  0  0  0  0  0  0  0  0
  189.8260  177.9100  138.8820 C   0  0  0  0  0  1  0  0  0  0  0  0
  185.9170  178.3990  144.5030 C   0  0  0  0  0  0  0  0  0  0  0  0
  186.7250  178.0190  146.7520 C   0  0  0  0  0  3  0  0  0  0  0  0
  184.6440  178.7190  145.0500 C   0  0  0  0  0  0  0  0  0  0  0  0
  186.6510  178.4040  140.9690 C   0  0  0  0  0  0  0  0  0  0  0  0
  186.0670  178.4460  143.1060 C   0  0  0  0  0  0  0  0  0  0  0  0
  189.3970  177.4230  141.2960 C   0  0  0  0  0  2  0  0  0  0  0  0
  183.5740  179.0650  144.2050 C   0  0  0  0  0  3  0  0  0  0  0  0
  187.0820  178.4840  138.6340 O   0  0  0  0  0  0  0  0  0  0  0  0
  187.5250  178.2780  139.7960 C   0  0  0  0  0  0  0  0  0  0  0  0
  188.5500  177.8510  142.4690 C   0  0  0  0  0  0  0  0  0  0  0  0
  184.5020  179.1130  139.8550 C   0  0  0  0  0  2  0  0  0  0  0  0
  182.6220  175.6680  138.1870 C   0  0  0  0  0  3  0  0  0  0  0  0
  183.8560  177.8960  139.2860 C   0  0  0  0  0  0  0  0  0  0  0  0
  182.9320  177.1770  140.0480 C   0  0  0  0  0  3  0  0  0  0  0  0
  182.3150  176.0540  139.4920 C   0  0  0  0  0  3  0  0  0  0  0  0
  183.5460  176.4160  137.4530 C   0  0  0  0  0  3  0  0  0  0  0  0
  184.1370  177.5060  138.0130 N   0  0  0  0  0  0  0  0  0  0  0  0
  1  2  1  0  0  0  0
  2  6  2  0  0  0  0
  2 15  1  0  0  0  0
  3 20  1  0  0  0  0
  3 15  1  0  0  0  0
  4  5  2  0  0  0  0
  6 17  1  0  0  0  0
  7 12  2  0  0  0  0
  8 16  1  0  0  0  0
 10  8  1  0  0  0  0
 11 13  1  0  0  0  0
 11  7  1  0  0  0  0
 12  5  1  0  0  0  0
 13  4  1  0  0  0  0
 14  1  1  0  0  0  0
 14  3  2  0  0  0  0
 15 11  2  0  0  0  0
 16 20  1  0  0  0  0
 17 13  2  0  0  0  0
 18 19  2  0  0  0  0
 19  8  1  0  0  0  0
 19 14  1  0  0  0  0
 20  9  2  0  0  0  0
 21  1  1  0  0  0  0
 22 25  1  0  0  0  0
 23 21  1  0  0  0  0
 23 24  1  0  0  0  0
 25 24  2  0  0  0  0
 26 27  1  0  0  0  0
 26 22  2  0  0  0  0
 27 23  2  0  0  0  0
M  END
>  <MODEL>
2

>  <REMARK>
 VINA RESULT:      -9.2      1.086      1.352
  Name = 
  2 active torsions:
  status: ('A' for Active; 'I' for Inactive)
    1  A    between atoms: N_1  and  C_15
    2  A    between atoms: C_9  and  C_15
                            x       y       z     vdW  Elec       q    Type
                         _______ _______ _______ _____ _____    ______ ____

>  <TORSDO>
F 2

$$$$
=
 OpenBabel10262420123D

 27 31  0  0  0  0  0  0  0  0999 V2000
  188.7310  178.4400  141.4710 N   0  0  0  0  0  0  0  0  0  0  0  0
  189.5800  178.0910  142.4590 C   0  0  0  0  0  0  0  0  0  0  0  0
  187.5410  177.9230  143.3140 C   0  0  0  0  0  0  0  0  0  0  0  0
  191.7220  176.9670  145.8190 N   0  0  0  0  0  0  0  0  0  0  0  0
  191.1100  176.6550  146.9940 C   0  0  0  0  0  3  0  0  0  0  0  0
  190.9720  178.0400  142.3840 C   0  0  0  0  0  3  0  0  0  0  0  0
  188.9600  177.0700  145.9850 C   0  0  0  0  0  3  0  0  0  0  0  0
  184.9950  178.3440  142.0720 N   0  0  0  0  0  0  0  0  0  0  0  0
  186.3180  177.1310  145.2060 O   0  0  0  0  0  0  0  0  0  0  0  0
  183.7070  178.4480  141.4050 C   0  0  0  0  0  1  0  0  0  0  0  0
  189.5910  177.3850  144.7790 C   0  0  0  0  0  0  0  0  0  0  0  0
  189.7180  176.7030  147.0970 C   0  0  0  0  0  3  0  0  0  0  0  0
  191.0090  177.3300  144.7180 C   0  0  0  0  0  0  0  0  0  0  0  0
  187.4910  178.3340  142.0000 C   0  0  0  0  0  0  0  0  0  0  0  0
  188.8940  177.7660  143.6190 C   0  0  0  0  0  0  0  0  0  0  0  0
  184.9940  178.2050  143.5350 C   0  0  0  0  0  2  0  0  0  0  0  0
  191.6850  177.6540  143.5270 C   0  0  0  0  0  3  0  0  0  0  0  0
  186.1650  178.9110  140.1150 O   0  0  0  0  0  0  0  0  0  0  0  0
  186.2070  178.5580  141.3240 C   0  0  0  0  0  0  0  0  0  0  0  0
  186.3050  177.7040  144.0880 C   0  0  0  0  0  0  0  0  0  0  0  0
  189.0860  178.7760  140.0960 C   0  0  0  0  0  2  0  0  0  0  0  0
  189.8280  175.2570  137.8050 C   0  0  0  0  0  3  0  0  0  0  0  0
  189.3310  177.5350  139.3090 C   0  0  0  0  0  0  0  0  0  0  0  0
  188.3110  176.9960  138.5200 C   0  0  0  0  0  3  0  0  0  0  0  0
  188.5650  175.8480  137.7670 C   0  0  0  0  0  3  0  0  0  0  0  0
  190.8250  175.8280  138.5990 C   0  0  0  0  0  3  0  0  0  0  0  0
  190.5590  176.9460  139.3270 N   0  0  0  0  0  0  0  0  0  0  0  0
  1 14  1  0  0  0  0
  1  2  1  0  0  0  0
  2 15  1  0  0  0  0
  3 15  1  0  0  0  0
  3 20  1  0  0  0  0
  4  5  2  0  0  0  0
  5 12  1  0  0  0  0
  6  2  2  0  0  0  0
  6 17  1  0  0  0  0
  7 12  2  0  0  0  0
  8 16  1  0  0  0  0
 10  8  1  0  0  0  0
 11  7  1  0  0  0  0
 13 11  1  0  0  0  0
 13  4  1  0  0  0  0
 14  3  2  0  0  0  0
 15 11  2  0  0  0  0
 16 20  1  0  0  0  0
 17 13  2  0  0  0  0
 18 19  2  0  0  0  0
 19 14  1  0  0  0  0
 19  8  1  0  0  0  0
 20  9  2  0  0  0  0
 21  1  1  0  0  0  0
 22 26  1  0  0  0  0
 23 27  1  0  0  0  0
 23 21  1  0  0  0  0
 24 23  2  0  0  0  0
 25 22  2  0  0  0  0
 25 24  1  0  0  0  0
 26 27  2  0  0  0  0
M  END
>  <MODEL>
3

>  <REMARK>
 VINA RESULT:      -8.8      2.735      5.695
  Name = 
  2 active torsions:
  status: ('A' for Active; 'I' for Inactive)
    1  A    between atoms: N_1  and  C_15
    2  A    between atoms: C_9  and  C_15
                            x       y       z     vdW  Elec       q    Type
                         _______ _______ _______ _____ _____    ______ ____

>  <TORSDO>
F 2

$$$$
=
 OpenBabel10262420123D

 27 31  0  0  0  0  0  0  0  0999 V2000
  188.9640  178.1270  140.2550 N   0  0  0  0  0  0  0  0  0  0  0  0
  189.7120  177.7860  141.3240 C   0  0  0  0  0  0  0  0  0  0  0  0
  187.6480  178.0670  142.0840 C   0  0  0  0  0  0  0  0  0  0  0  0
  191.5320  176.8070  144.9110 N   0  0  0  0  0  0  0  0  0  0  0  0
  190.8400  176.7630  146.0820 C   0  0  0  0  0  3  0  0  0  0  0  0
  191.0780  177.5030  141.3300 C   0  0  0  0  0  3  0  0  0  0  0  0
  188.8220  177.3740  144.9140 C   0  0  0  0  0  3  0  0  0  0  0  0
  185.2480  178.7160  140.6630 N   0  0  0  0  0  0  0  0  0  0  0  0
  186.2530  177.7500  143.9950 O   0  0  0  0  0  0  0  0  0  0  0  0
  184.0160  178.9330  139.9210 C   0  0  0  0  0  1  0  0  0  0  0  0
  189.5330  177.4150  143.7130 C   0  0  0  0  0  0  0  0  0  0  0  0
  189.4740  177.0470  146.1040 C   0  0  0  0  0  3  0  0  0  0  0  0
  190.9240  177.1240  143.7360 C   0  0  0  0  0  0  0  0  0  0  0  0
  187.7080  178.2960  140.7260 C   0  0  0  0  0  0  0  0  0  0  0  0
  188.9460  177.7390  142.4780 C   0  0  0  0  0  0  0  0  0  0  0  0
  185.1780  178.7820  142.1300 C   0  0  0  0  0  2  0  0  0  0  0  0
  191.6800  177.1680  142.5500 C   0  0  0  0  0  3  0  0  0  0  0  0
  186.5560  178.8130  138.7140 O   0  0  0  0  0  0  0  0  0  0  0  0
  186.5010  178.6280  139.9590 C   0  0  0  0  0  0  0  0  0  0  0  0
  186.3700  178.1580  142.8120 C   0  0  0  0  0  0  0  0  0  0  0  0
  189.4120  178.2100  138.8690 C   0  0  0  0  0  2  0  0  0  0  0  0
  189.3530  174.3170  137.1270 C   0  0  0  0  0  3  0  0  0  0  0  0
  189.4040  176.8570  138.2430 C   0  0  0  0  0  0  0  0  0  0  0  0
  190.5840  176.1120  138.1750 C   0  0  0  0  0  3  0  0  0  0  0  0
  190.5550  174.8360  137.6110 C   0  0  0  0  0  3  0  0  0  0  0  0
  188.1920  175.0880  137.2190 C   0  0  0  0  0  3  0  0  0  0  0  0
  188.2410  176.3300  137.7710 N   0  0  0  0  0  0  0  0  0  0  0  0
  1 14  1  0  0  0  0
  1  2  1  0  0  0  0
  2  6  2  0  0  0  0
  2 15  1  0  0  0  0
  3 15  1  0  0  0  0
  3 20  1  0  0  0  0
  4  5  2  0  0  0  0
  5 12  1  0  0  0  0
  6 17  1  0  0  0  0
  7 12  2  0  0  0  0
  8 16  1  0  0  0  0
 10  8  1  0  0  0  0
 11 13  1  0  0  0  0
 11  7  1  0  0  0  0
 13  4  1  0  0  0  0
 14  3  2  0  0  0  0
 15 11  2  0  0  0  0
 16 20  1  0  0  0  0
 17 13  2  0  0  0  0
 18 19  2  0  0  0  0
 19  8  1  0  0  0  0
 19 14  1  0  0  0  0
 20  9  2  0  0  0  0
 21  1  1  0  0  0  0
 22 26  2  0  0  0  0
 22 25  1  0  0  0  0
 23 21  1  0  0  0  0
 24 23  1  0  0  0  0
 25 24  2  0  0  0  0
 26 27  1  0  0  0  0
 27 23  2  0  0  0  0
M  END
>  <MODEL>
4

>  <REMARK>
 VINA RESULT:      -8.5      2.577      5.626
  Name = 
  2 active torsions:
  status: ('A' for Active; 'I' for Inactive)
    1  A    between atoms: N_1  and  C_15
    2  A    between atoms: C_9  and  C_15
                            x       y       z     vdW  Elec       q    Type
                         _______ _______ _______ _____ _____    ______ ____

>  <TORSDO>
F 2

$$$$
=
 OpenBabel10262420123D

 27 31  0  0  0  0  0  0  0  0999 V2000
  187.4250  178.2710  139.8370 N   0  0  0  0  0  0  0  0  0  0  0  0
  186.3970  178.4680  140.6860 C   0  0  0  0  0  0  0  0  0  0  0  0
  188.1510  177.9760  141.9510 C   0  0  0  0  0  0  0  0  0  0  0  0
  183.6050  178.9370  143.7080 N   0  0  0  0  0  0  0  0  0  0  0  0
  183.9250  178.7610  145.0180 C   0  0  0  0  0  3  0  0  0  0  0  0
  185.0870  178.8080  140.3450 C   0  0  0  0  0  3  0  0  0  0  0  0
  186.1990  178.2550  144.3970 C   0  0  0  0  0  3  0  0  0  0  0  0
  190.8630  177.4570  141.1940 N   0  0  0  0  0  0  0  0  0  0  0  0
  188.9260  177.9180  144.2080 O   0  0  0  0  0  0  0  0  0  0  0  0
  192.2590  177.3080  140.8140 C   0  0  0  0  0  1  0  0  0  0  0  0
  185.8690  178.4410  143.0520 C   0  0  0  0  0  0  0  0  0  0  0  0
  185.2270  178.4160  145.3850 C   0  0  0  0  0  3  0  0  0  0  0  0
  184.5310  178.7860  142.7210 C   0  0  0  0  0  0  0  0  0  0  0  0
  188.4900  177.9720  140.6150 C   0  0  0  0  0  0  0  0  0  0  0  0
  186.7920  178.2940  142.0030 C   0  0  0  0  0  0  0  0  0  0  0  0
  190.5030  177.1530  142.5870 C   0  0  0  0  0  2  0  0  0  0  0  0
  184.1530  178.9680  141.3780 C   0  0  0  0  0  3  0  0  0  0  0  0
  190.1820  177.7350  138.9640 O   0  0  0  0  0  0  0  0  0  0  0  0
  189.8690  177.7140  140.1850 C   0  0  0  0  0  0  0  0  0  0  0  0
  189.1610  177.7110  142.9910 C   0  0  0  0  0  0  0  0  0  0  0  0
  187.4020  178.4330  138.3870 C   0  0  0  0  0  2  0  0  0  0  0  0
  185.9700  174.8960  136.4810 C   0  0  0  0  0  3  0  0  0  0  0  0
  186.8870  177.1930  137.7380 C   0  0  0  0  0  0  0  0  0  0  0  0
  185.5920  177.1670  137.2150 C   0  0  0  0  0  3  0  0  0  0  0  0
  185.1330  176.0080  136.5850 C   0  0  0  0  0  3  0  0  0  0  0  0
  187.2620  174.9630  137.0100 C   0  0  0  0  0  3  0  0  0  0  0  0
  187.6900  176.1010  137.6200 N   0  0  0  0  0  0  0  0  0  0  0  0
  1 14  1  0  0  0  0
  1  2  1  0  0  0  0
  2 15  1  0  0  0  0
  3 15  1  0  0  0  0
  3 20  1  0  0  0  0
  4  5  2  0  0  0  0
  5 12  1  0  0  0  0
  6  2  2  0  0  0  0
  6 17  1  0  0  0  0
  7 12  2  0  0  0  0
  8 16  1  0  0  0  0
 10  8  1  0  0  0  0
 11  7  1  0  0  0  0
 13 11  1  0  0  0  0
 13  4  1  0  0  0  0
 14  3  2  0  0  0  0
 15 11  2  0  0  0  0
 16 20  1  0  0  0  0
 17 13  2  0  0  0  0
 18 19  2  0  0  0  0
 19 14  1  0  0  0  0
 19  8  1  0  0  0  0
 20  9  2  0  0  0  0
 21  1  1  0  0  0  0
 22 25  2  0  0  0  0
 22 26  1  0  0  0  0
 23 21  1  0  0  0  0
 24 23  2  0  0  0  0
 25 24  1  0  0  0  0
 26 27  2  0  0  0  0
 27 23  1  0  0  0  0
M  END
>  <MODEL>
5

>  <REMARK>
 VINA RESULT:      -8.0      2.296      3.730
  Name = 
  2 active torsions:
  status: ('A' for Active; 'I' for Inactive)
    1  A    between atoms: N_1  and  C_15
    2  A    between atoms: C_9  and  C_15
                            x       y       z     vdW  Elec       q    Type
                         _______ _______ _______ _____ _____    ______ ____

>  <TORSDO>
F 2

$$$$
=
 OpenBabel10262420123D

 27 31  0  0  0  0  0  0  0  0999 V2000
  188.0220  178.2460  140.5360 N   0  0  0  0  0  0  0  0  0  0  0  0
  186.7260  178.5240  140.7840 C   0  0  0  0  0  0  0  0  0  0  0  0
  187.5960  177.8810  142.7200 C   0  0  0  0  0  0  0  0  0  0  0  0
  182.8530  179.2060  142.0780 N   0  0  0  0  0  0  0  0  0  0  0  0
  182.4770  178.9970  143.3680 C   0  0  0  0  0  3  0  0  0  0  0  0
  185.7790  178.9730  139.8640 C   0  0  0  0  0  3  0  0  0  0  0  0
  184.7220  178.3080  143.9130 C   0  0  0  0  0  3  0  0  0  0  0  0
  190.2880  177.1420  143.3600 N   0  0  0  0  0  0  0  0  0  0  0  0
  187.1600  177.7460  145.0630 O   0  0  0  0  0  0  0  0  0  0  0  0
  191.6770  176.8790  143.7020 C   0  0  0  0  0  1  0  0  0  0  0  0
  185.1070  178.5280  142.5880 C   0  0  0  0  0  0  0  0  0  0  0  0
  183.4040  178.5430  144.3070 C   0  0  0  0  0  3  0  0  0  0  0  0
  184.1300  178.9850  141.6620 C   0  0  0  0  0  0  0  0  0  0  0  0
  188.5450  177.8560  141.7210 C   0  0  0  0  0  0  0  0  0  0  0  0
  186.4130  178.3100  142.1170 C   0  0  0  0  0  0  0  0  0  0  0  0
  189.2710  176.8610  144.3840 C   0  0  0  0  0  2  0  0  0  0  0  0
  184.4730  179.2050  140.3160 C   0  0  0  0  0  3  0  0  0  0  0  0
  190.8080  177.4880  141.0950 O   0  0  0  0  0  0  0  0  0  0  0  0
  189.9370  177.4860  142.0070 C   0  0  0  0  0  0  0  0  0  0  0  0
  187.9460  177.5270  144.1070 C   0  0  0  0  0  0  0  0  0  0  0  0
  188.7240  178.4180  139.2680 C   0  0  0  0  0  2  0  0  0  0  0  0
  188.4610  174.8120  137.0070 C   0  0  0  0  0  3  0  0  0  0  0  0
  188.6440  177.1670  138.4620 C   0  0  0  0  0  0  0  0  0  0  0  0
  189.7800  176.3690  138.2990 C   0  0  0  0  0  3  0  0  0  0  0  0
  189.6840  175.1860  137.5630 C   0  0  0  0  0  3  0  0  0  0  0  0
  187.3450  175.6310  137.1970 C   0  0  0  0  0  3  0  0  0  0  0  0
  187.4590  176.7800  137.9160 N   0  0  0  0  0  0  0  0  0  0  0  0
  1  2  1  0  0  0  0
  1 14  1  0  0  0  0
  2 15  1  0  0  0  0
  3 20  1  0  0  0  0
  4  5  2  0  0  0  0
  5 12  1  0  0  0  0
  6 17  1  0  0  0  0
  6  2  2  0  0  0  0
  7 12  2  0  0  0  0
  8 10  1  0  0  0  0
  8 16  1  0  0  0  0
 11  7  1  0  0  0  0
 13  4  1  0  0  0  0
 13 11  1  0  0  0  0
 14 19  1  0  0  0  0
 14  3  2  0  0  0  0
 15 11  2  0  0  0  0
 15  3  1  0  0  0  0
 17 13  2  0  0  0  0
 18 19  2  0  0  0  0
 19  8  1  0  0  0  0
 20 16  1  0  0  0  0
 20  9  2  0  0  0  0
 21  1  1  0  0  0  0
 22 26  2  0  0  0  0
 22 25  1  0  0  0  0
 23 21  1  0  0  0  0
 24 23  1  0  0  0  0
 25 24  2  0  0  0  0
 26 27  1  0  0  0  0
 27 23  2  0  0  0  0
M  END
>  <MODEL>
6

>  <REMARK>
 VINA RESULT:      -7.7      2.552      4.856
  Name = 
  2 active torsions:
  status: ('A' for Active; 'I' for Inactive)
    1  A    between atoms: N_1  and  C_15
    2  A    between atoms: C_9  and  C_15
                            x       y       z     vdW  Elec       q    Type
                         _______ _______ _______ _____ _____    ______ ____

>  <TORSDO>
F 2

$$$$
=
 OpenBabel10262420123D

 27 31  0  0  0  0  0  0  0  0999 V2000
  185.1140  178.7940  140.7850 N   0  0  0  0  0  0  0  0  0  0  0  0
  186.3930  178.4750  141.0670 C   0  0  0  0  0  0  0  0  0  0  0  0
  185.3130  178.4430  143.0030 C   0  0  0  0  0  0  0  0  0  0  0  0
  190.1580  177.4830  142.4760 N   0  0  0  0  0  0  0  0  0  0  0  0
  190.4000  177.2710  143.7980 C   0  0  0  0  0  3  0  0  0  0  0  0
  187.4450  178.3640  140.1560 C   0  0  0  0  0  3  0  0  0  0  0  0
  188.0810  177.7070  144.2940 C   0  0  0  0  0  3  0  0  0  0  0  0
  182.5390  178.8860  143.5570 N   0  0  0  0  0  0  0  0  0  0  0  0
  185.5190  177.8230  145.2990 O   0  0  0  0  0  0  0  0  0  0  0  0
  181.1130  178.9990  143.8170 C   0  0  0  0  0  1  0  0  0  0  0  0
  187.8340  177.9190  142.9360 C   0  0  0  0  0  0  0  0  0  0  0  0
  189.3660  177.3810  144.7300 C   0  0  0  0  0  3  0  0  0  0  0  0
  188.9160  177.8030  142.0210 C   0  0  0  0  0  0  0  0  0  0  0  0
  184.4620  178.7720  141.9700 C   0  0  0  0  0  0  0  0  0  0  0  0
  186.5690  178.2530  142.4230 C   0  0  0  0  0  0  0  0  0  0  0  0
  183.4390  178.8400  144.7190 C   0  0  0  0  0  2  0  0  0  0  0  0
  188.7130  178.0230  140.6470 C   0  0  0  0  0  3  0  0  0  0  0  0
  182.2530  179.2800  141.2590 O   0  0  0  0  0  0  0  0  0  0  0  0
  183.0330  179.0030  142.2100 C   0  0  0  0  0  0  0  0  0  0  0  0
  184.8170  178.3240  144.3850 C   0  0  0  0  0  0  0  0  0  0  0  0
  184.5450  179.0280  139.4620 C   0  0  0  0  0  2  0  0  0  0  0  0
  183.7700  175.2840  137.5730 C   0  0  0  0  0  3  0  0  0  0  0  0
  184.2660  177.7300  138.7840 C   0  0  0  0  0  0  0  0  0  0  0  0
  185.0060  177.3580  137.6590 C   0  0  0  0  0  3  0  0  0  0  0  0
  184.7510  176.1270  137.0510 C   0  0  0  0  0  3  0  0  0  0  0  0
  183.0550  175.6870  138.7040 C   0  0  0  0  0  3  0  0  0  0  0  0
  183.3170  176.8900  139.2820 N   0  0  0  0  0  0  0  0  0  0  0  0
  1  2  1  0  0  0  0
  1 14  1  0  0  0  0
  2 15  1  0  0  0  0
  3 20  1  0  0  0  0
  4  5  2  0  0  0  0
  5 12  1  0  0  0  0
  6 17  1  0  0  0  0
  6  2  2  0  0  0  0
  7 12  2  0  0  0  0
  8 10  1  0  0  0  0
  8 16  1  0  0  0  0
 11  7  1  0  0  0  0
 13  4  1  0  0  0  0
 13 11  1  0  0  0  0
 14 19  1  0  0  0  0
 14  3  2  0  0  0  0
 15 11  2  0  0  0  0
 15  3  1  0  0  0  0
 17 13  2  0  0  0  0
 18 19  2  0  0  0  0
 19  8  1  0  0  0  0
 20 16  1  0  0  0  0
 20  9  2  0  0  0  0
 21  1  1  0  0  0  0
 22 26  1  0  0  0  0
 23 27  1  0  0  0  0
 23 21  1  0  0  0  0
 24 23  2  0  0  0  0
 25 22  2  0  0  0  0
 25 24  1  0  0  0  0
 26 27  2  0  0  0  0
M  END
>  <MODEL>
7

>  <REMARK>
 VINA RESULT:      -7.6      2.150      4.429
  Name = 
  2 active torsions:
  status: ('A' for Active; 'I' for Inactive)
    1  A    between atoms: N_1  and  C_15
    2  A    between atoms: C_9  and  C_15
                            x       y       z     vdW  Elec       q    Type
                         _______ _______ _______ _____ _____    ______ ____

>  <TORSDO>
F 2

$$$$
=
 OpenBabel10262420123D

 27 31  0  0  0  0  0  0  0  0999 V2000
  185.6730  179.0060  141.1480 N   0  0  0  0  0  0  0  0  0  0  0  0
  184.6090  179.0170  141.9760 C   0  0  0  0  0  0  0  0  0  0  0  0
  183.8660  178.2520  140.0320 C   0  0  0  0  0  0  0  0  0  0  0  0
  181.0400  178.8710  144.0700 N   0  0  0  0  0  0  0  0  0  0  0  0
  179.8810  178.4550  143.4910 C   0  0  0  0  0  3  0  0  0  0  0  0
  184.5960  179.4160  143.3130 C   0  0  0  0  0  3  0  0  0  0  0  0
  181.0500  178.0830  141.4160 C   0  0  0  0  0  3  0  0  0  0  0  0
  185.2910  177.7430  137.6010 N   0  0  0  0  0  0  0  0  0  0  0  0
  181.9870  177.2310  138.9690 O   0  0  0  0  0  0  0  0  0  0  0  0
  186.0390  177.3790  136.4080 C   0  0  0  0  0  1  0  0  0  0  0  0
  182.2390  178.5060  142.0140 C   0  0  0  0  0  0  0  0  0  0  0  0
  179.8660  178.0550  142.1540 C   0  0  0  0  0  3  0  0  0  0  0  0
  182.2100  178.9100  143.3760 C   0  0  0  0  0  0  0  0  0  0  0  0
  185.2120  178.5380  139.9660 C   0  0  0  0  0  0  0  0  0  0  0  0
  183.4680  178.5640  141.3340 C   0  0  0  0  0  0  0  0  0  0  0  0
  183.8230  177.7060  137.5190 C   0  0  0  0  0  2  0  0  0  0  0  0
  183.3830  179.3570  144.0110 C   0  0  0  0  0  3  0  0  0  0  0  0
  187.2170  178.5290  138.6910 O   0  0  0  0  0  0  0  0  0  0  0  0
  185.9810  178.2890  138.7410 C   0  0  0  0  0  0  0  0  0  0  0  0
  183.1510  177.6950  138.8700 C   0  0  0  0  0  0  0  0  0  0  0  0
  187.0490  179.3490  141.4930 C   0  0  0  0  0  2  0  0  0  0  0  0
  189.0700  175.8930  142.9630 C   0  0  0  0  0  3  0  0  0  0  0  0
  187.7610  178.1520  142.0250 C   0  0  0  0  0  0  0  0  0  0  0  0
  187.2290  177.4510  143.1110 C   0  0  0  0  0  3  0  0  0  0  0  0
  187.8930  176.3160  143.5810 C   0  0  0  0  0  3  0  0  0  0  0  0
  189.5660  176.6150  141.8750 C   0  0  0  0  0  3  0  0  0  0  0  0
  188.9060  177.7190  141.4320 N   0  0  0  0  0  0  0  0  0  0  0  0
  1 21  1  0  0  0  0
  1  2  1  0  0  0  0
  2  6  1  0  0  0  0
  3 15  1  0  0  0  0
  5  4  1  0  0  0  0
  6 17  2  0  0  0  0
  7 11  2  0  0  0  0
  7 12  1  0  0  0  0
  8 19  1  0  0  0  0
 10  8  1  0  0  0  0
 11 13  1  0  0  0  0
 12  5  2  0  0  0  0
 13 17  1  0  0  0  0
 13  4  2  0  0  0  0
 14  3  2  0  0  0  0
 14  1  1  0  0  0  0
 15  2  2  0  0  0  0
 15 11  1  0  0  0  0
 16  8  1  0  0  0  0
 16 20  1  0  0  0  0
 18 19  2  0  0  0  0
 19 14  1  0  0  0  0
 20  9  2  0  0  0  0
 20  3  1  0  0  0  0
 21 23  1  0  0  0  0
 22 25  1  0  0  0  0
 23 24  1  0  0  0  0
 24 25  2  0  0  0  0
 26 22  2  0  0  0  0
 27 26  1  0  0  0  0
 27 23  2  0  0  0  0
M  END
>  <MODEL>
8

>  <REMARK>
 VINA RESULT:      -7.3      2.299      5.266
  Name = 
  2 active torsions:
  status: ('A' for Active; 'I' for Inactive)
    1  A    between atoms: N_1  and  C_15
    2  A    between atoms: C_9  and  C_15
                            x       y       z     vdW  Elec       q    Type
                         _______ _______ _______ _____ _____    ______ ____

>  <TORSDO>
F 2

$$$$
=
 OpenBabel10262420123D

 27 31  0  0  0  0  0  0  0  0999 V2000
  182.9750  178.4020  140.3180 N   0  0  0  0  0  0  0  0  0  0  0  0
  182.9870  178.5310  141.6600 C   0  0  0  0  0  0  0  0  0  0  0  0
  185.1120  178.4560  141.0330 C   0  0  0  0  0  0  0  0  0  0  0  0
  183.5900  178.8940  145.7400 N   0  0  0  0  0  0  0  0  0  0  0  0
  184.8360  178.9140  146.2860 C   0  0  0  0  0  3  0  0  0  0  0  0
  181.8760  178.6260  142.4990 C   0  0  0  0  0  3  0  0  0  0  0  0
  185.8030  178.6980  144.0880 C   0  0  0  0  0  3  0  0  0  0  0  0
  186.2380  178.2800  138.4060 N   0  0  0  0  0  0  0  0  0  0  0  0
  187.3490  178.7650  141.8090 O   0  0  0  0  0  0  0  0  0  0  0  0
  186.8030  178.3060  137.0660 C   0  0  0  0  0  1  0  0  0  0  0  0
  184.5230  178.6830  143.5300 C   0  0  0  0  0  0  0  0  0  0  0  0
  185.9640  178.8150  145.4690 C   0  0  0  0  0  3  0  0  0  0  0  0
  183.4010  178.7800  144.3980 C   0  0  0  0  0  0  0  0  0  0  0  0
  184.2730  178.3570  139.9440 C   0  0  0  0  0  0  0  0  0  0  0  0
  184.2820  178.5650  142.1500 C   0  0  0  0  0  0  0  0  0  0  0  0
  187.1640  178.0780  139.5290 C   0  0  0  0  0  2  0  0  0  0  0  0
  182.0940  178.7530  143.8780 C   0  0  0  0  0  3  0  0  0  0  0  0
  184.0390  178.2040  137.5840 O   0  0  0  0  0  0  0  0  0  0  0  0
  184.8090  178.2690  138.5800 C   0  0  0  0  0  0  0  0  0  0  0  0
  186.5760  178.4650  140.8640 C   0  0  0  0  0  0  0  0  0  0  0  0
  181.7990  178.3990  139.4530 C   0  0  0  0  0  2  0  0  0  0  0  0
  180.2940  182.3500  138.8960 C   0  0  0  0  0  3  0  0  0  0  0  0
  181.2910  179.7880  139.2700 C   0  0  0  0  0  0  0  0  0  0  0  0
  181.9600  180.6680  138.4140 C   0  0  0  0  0  3  0  0  0  0  0  0
  181.4560  181.9570  138.2310 C   0  0  0  0  0  3  0  0  0  0  0  0
  179.6490  181.4410  139.7380 C   0  0  0  0  0  3  0  0  0  0  0  0
  180.1550  180.1890  139.9040 N   0  0  0  0  0  0  0  0  0  0  0  0
  1  2  1  0  0  0  0
  2 15  2  0  0  0  0
  2  6  1  0  0  0  0
  3 15  1  0  0  0  0
  4  5  1  0  0  0  0
  6 17  2  0  0  0  0
  7 12  1  0  0  0  0
  8 19  1  0  0  0  0
  8 16  1  0  0  0  0
 10  8  1  0  0  0  0
 11  7  2  0  0  0  0
 11 13  1  0  0  0  0
 12  5  2  0  0  0  0
 13  4  2  0  0  0  0
 14  1  1  0  0  0  0
 14  3  2  0  0  0  0
 15 11  1  0  0  0  0
 16 20  1  0  0  0  0
 17 13  1  0  0  0  0
 18 19  2  0  0  0  0
 19 14  1  0  0  0  0
 20  3  1  0  0  0  0
 20  9  2  0  0  0  0
 21  1  1  0  0  0  0
 22 26  1  0  0  0  0
 23 21  1  0  0  0  0
 23 27  1  0  0  0  0
 24 23  2  0  0  0  0
 25 24  1  0  0  0  0
 25 22  2  0  0  0  0
 26 27  2  0  0  0  0
M  END
>  <MODEL>
9

>  <REMARK>
 VINA RESULT:      -7.3      2.128      2.755
  Name = 
  2 active torsions:
  status: ('A' for Active; 'I' for Inactive)
    1  A    between atoms: N_1  and  C_15
    2  A    between atoms: C_9  and  C_15
                            x       y       z     vdW  Elec       q    Type
                         _______ _______ _______ _____ _____    ______ ____

>  <TORSDO>
F 2

$$$$
