=
 OpenBabel10262419583D

 25 25  0  0  1  0  0  0  0  0999 V2000
  188.6800  177.4310  140.9260 C   0  0  1  0  0  3  0  0  0  0  0  0
  189.0140  178.9290  139.0700 O   0  0  0  0  0  0  0  0  0  0  0  0
  188.6750  176.5290  138.5560 C   0  0  0  0  0  2  0  0  0  0  0  0
  187.1800  179.2200  136.5550 O   0  0  0  0  0  1  0  0  0  0  0  0
  188.2060  178.3290  136.8680 C   0  0  2  0  0  3  0  0  0  0  0  0
  187.6260  177.1380  137.6290 C   0  0  0  0  0  2  0  0  0  0  0  0
  189.2740  177.5970  139.5080 C   0  0  2  0  0  0  0  0  0  0  0  0
  189.2810  179.0470  137.6880 C   0  0  0  0  0  2  0  0  0  0  0  0
  190.7880  177.3700  139.5810 C   0  0  0  0  0  2  0  0  0  0  0  0
  191.1180  176.1040  139.1280 F   0  0  0  0  0  0  0  0  0  0  0  0
  190.2330  178.2450  142.5460 O   0  0  0  0  0  0  0  0  0  0  0  0
  190.1290  175.9230  142.3780 N   0  0  0  0  0  2  0  0  0  0  0  0
  191.0570  175.7420  143.3480 O   0  0  0  0  0  1  0  0  0  0  0  0
  189.7260  177.2360  141.9870 C   0  0  0  0  0  0  0  0  0  0  0  0
  187.6960  178.5390  141.3060 C   0  0  0  0  0  2  0  0  0  0  0  0
  186.7650  178.0590  142.2290 O   0  0  0  0  0  0  0  0  0  0  0  0
  185.7160  178.9740  142.1740 C   0  0  0  0  0  2  0  0  0  0  0  0
  184.2220  178.4760  144.0500 N   0  0  0  0  0  0  0  0  0  0  0  0
  184.4920  178.3720  142.7930 C   0  0  0  0  0  3  0  0  0  0  0  0
  185.0660  179.1780  144.9900 C   0  0  0  0  0  2  0  0  0  0  0  0
  185.0750  178.4600  146.3270 C   0  0  0  0  0  2  0  0  0  0  0  0
  186.5070  178.2060  146.7500 C   0  0  0  0  0  2  0  0  0  0  0  0
  187.2950  177.6720  145.5720 C   0  0  0  0  0  2  0  0  0  0  0  0
  188.7750  177.7230  145.8910 C   0  0  0  0  0  2  0  0  0  0  0  0
  189.0540  176.9030  147.1340 C   0  0  0  0  0  1  0  0  0  0  0  0
  1 15  1  1  0  0  0
  1 14  1  0  0  0  0
  2  7  1  0  0  0  0
  3  7  1  0  0  0  0
  5  4  1  1  0  0  0
  5  6  1  0  0  0  0
  5  8  1  0  0  0  0
  6  3  1  0  0  0  0
  7  9  1  1  0  0  0
  7  1  1  0  0  0  0
  8  2  1  0  0  0  0
 10  9  1  0  0  0  0
 12 13  1  0  0  0  0
 14 12  1  0  0  0  0
 14 11  2  0  0  0  0
 15 16  1  0  0  0  0
 17 16  1  0  0  0  0
 17 19  1  0  0  0  0
 18 20  1  0  0  0  0
 19 18  2  0  0  0  0
 20 21  1  0  0  0  0
 21 22  1  0  0  0  0
 23 24  1  0  0  0  0
 23 22  1  0  0  0  0
 24 25  1  0  0  0  0
M  END
>  <MODEL>
1

>  <REMARK>
 VINA RESULT:      -6.4      0.000      0.000
  Name = 
  12 active torsions:
  status: ('A' for Active; 'I' for Inactive)
    1  A    between atoms: C_1  and  C_3
    2  A    between atoms: C_1  and  C_18
    3  A    between atoms: C_1  and  C_24
    4  A    between atoms: C_2  and  C_7
    5  A    between atoms: C_2  and  C_25
    6  A    between atoms: C_3  and  O_16
    7  A    between atoms: C_6  and  N_15
    8  A    between atoms: C_6  and  C_21
    9  A    between atoms: O_16  and  C_23
   10  A    between atoms: C_17  and  C_18
   11  A    between atoms: C_20  and  C_23
   12  A    between atoms: C_21  and  C_25
                            x       y       z     vdW  Elec       q    Type
                         _______ _______ _______ _____ _____    ______ ____

>  <TORSDO>
F 12

$$$$
=
 OpenBabel10262419583D

 25 25  0  0  1  0  0  0  0  0999 V2000
  188.9900  177.9820  141.5130 C   0  0  1  0  0  3  0  0  0  0  0  0
  190.1480  176.3300  142.8290 O   0  0  0  0  0  0  0  0  0  0  0  0
  191.0330  178.6440  142.8600 C   0  0  0  0  0  2  0  0  0  0  0  0
  190.8730  176.5380  145.8630 O   0  0  0  0  0  1  0  0  0  0  0  0
  191.5030  177.0160  144.7150 C   0  0  2  0  0  3  0  0  0  0  0  0
  190.9340  178.3900  144.3620 C   0  0  0  0  0  2  0  0  0  0  0  0
  190.3600  177.5060  142.0510 C   0  0  2  0  0  0  0  0  0  0  0  0
  191.3110  176.0210  143.5680 C   0  0  0  0  0  2  0  0  0  0  0  0
  191.2650  177.1720  140.8590 C   0  0  0  0  0  2  0  0  0  0  0  0
  192.3140  178.0710  140.7730 F   0  0  0  0  0  0  0  0  0  0  0  0
  188.7210  176.8110  139.4500 O   0  0  0  0  0  0  0  0  0  0  0  0
  188.9600  179.1200  139.2360 N   0  0  0  0  0  2  0  0  0  0  0  0
  188.8500  179.0750  137.8870 O   0  0  0  0  0  1  0  0  0  0  0  0
  188.8900  177.9250  140.0150 C   0  0  0  0  0  0  0  0  0  0  0  0
  187.8010  177.2880  142.1810 C   0  0  0  0  0  2  0  0  0  0  0  0
  187.1170  178.1890  142.9990 O   0  0  0  0  0  0  0  0  0  0  0  0
  186.2490  178.8550  142.1340 C   0  0  0  0  0  2  0  0  0  0  0  0
  183.9920  178.4730  143.0060 N   0  0  0  0  0  0  0  0  0  0  0  0
  184.9120  178.1810  142.1500 C   0  0  0  0  0  3  0  0  0  0  0  0
  184.1540  179.4730  144.0370 C   0  0  0  0  0  2  0  0  0  0  0  0
  184.2670  178.8130  145.3980 C   0  0  0  0  0  2  0  0  0  0  0  0
  185.5870  179.1950  146.0340 C   0  0  0  0  0  2  0  0  0  0  0  0
  186.3000  177.9450  146.5090 C   0  0  0  0  0  2  0  0  0  0  0  0
  187.2450  178.3030  147.6370 C   0  0  0  0  0  2  0  0  0  0  0  0
  188.2050  177.1550  147.8780 C   0  0  0  0  0  1  0  0  0  0  0  0
  1  7  1  0  0  0  0
  1 15  1  1  0  0  0
  2  8  1  0  0  0  0
  3  6  1  0  0  0  0
  5  4  1  1  0  0  0
  6  5  1  0  0  0  0
  7  9  1  6  0  0  0
  7  2  1  0  0  0  0
  7  3  1  0  0  0  0
  8  5  1  0  0  0  0
 10  9  1  0  0  0  0
 11 14  2  0  0  0  0
 12 14  1  0  0  0  0
 13 12  1  0  0  0  0
 14  1  1  0  0  0  0
 15 16  1  0  0  0  0
 17 19  1  0  0  0  0
 17 16  1  0  0  0  0
 18 20  1  0  0  0  0
 19 18  2  0  0  0  0
 20 21  1  0  0  0  0
 21 22  1  0  0  0  0
 22 23  1  0  0  0  0
 23 24  1  0  0  0  0
 24 25  1  0  0  0  0
M  END
>  <MODEL>
2

>  <REMARK>
 VINA RESULT:      -6.3      1.880      4.301
  Name = 
  12 active torsions:
  status: ('A' for Active; 'I' for Inactive)
    1  A    between atoms: C_1  and  C_3
    2  A    between atoms: C_1  and  C_18
    3  A    between atoms: C_1  and  C_24
    4  A    between atoms: C_2  and  C_7
    5  A    between atoms: C_2  and  C_25
    6  A    between atoms: C_3  and  O_16
    7  A    between atoms: C_6  and  N_15
    8  A    between atoms: C_6  and  C_21
    9  A    between atoms: O_16  and  C_23
   10  A    between atoms: C_17  and  C_18
   11  A    between atoms: C_20  and  C_23
   12  A    between atoms: C_21  and  C_25
                            x       y       z     vdW  Elec       q    Type
                         _______ _______ _______ _____ _____    ______ ____

>  <TORSDO>
F 12

$$$$
=
 OpenBabel10262419583D

 25 25  0  0  1  0  0  0  0  0999 V2000
  189.2070  177.5450  143.1760 C   0  0  1  0  0  3  0  0  0  0  0  0
  191.0030  176.8860  144.6400 O   0  0  0  0  0  0  0  0  0  0  0  0
  189.1550  178.2140  145.6210 C   0  0  0  0  0  2  0  0  0  0  0  0
  190.7260  175.3970  147.3750 O   0  0  0  0  0  1  0  0  0  0  0  0
  190.6290  176.7450  147.0270 C   0  0  2  0  0  3  0  0  0  0  0  0
  189.1910  177.0560  146.6140 C   0  0  0  0  0  2  0  0  0  0  0  0
  190.0690  177.9370  144.3990 C   0  0  2  0  0  0  0  0  0  0  0  0
  191.6150  177.0600  145.9000 C   0  0  0  0  0  2  0  0  0  0  0  0
  190.8270  179.2280  144.0710 C   0  0  0  0  0  2  0  0  0  0  0  0
  191.8880  178.9710  143.2190 F   0  0  0  0  0  0  0  0  0  0  0  0
  190.1540  175.4140  142.6630 O   0  0  0  0  0  0  0  0  0  0  0  0
  190.2270  176.9580  140.9180 N   0  0  0  0  0  2  0  0  0  0  0  0
  190.8270  176.0820  140.0770 O   0  0  0  0  0  1  0  0  0  0  0  0
  189.8930  176.5770  142.2530 C   0  0  0  0  0  0  0  0  0  0  0  0
  187.8040  177.0640  143.5510 C   0  0  0  0  0  2  0  0  0  0  0  0
  186.9240  177.2740  142.4880 O   0  0  0  0  0  0  0  0  0  0  0  0
  186.8560  178.6610  142.3610 C   0  0  0  0  0  2  0  0  0  0  0  0
  184.5100  178.8190  141.6780 N   0  0  0  0  0  0  0  0  0  0  0  0
  185.7550  179.0240  141.4130 C   0  0  0  0  0  3  0  0  0  0  0  0
  184.0460  178.2170  142.9070 C   0  0  0  0  0  2  0  0  0  0  0  0
  183.2790  179.2330  143.7340 C   0  0  0  0  0  2  0  0  0  0  0  0
  183.6750  179.0970  145.1890 C   0  0  0  0  0  2  0  0  0  0  0  0
  185.0050  178.3780  145.2860 C   0  0  0  0  0  2  0  0  0  0  0  0
  185.3680  178.1860  146.7440 C   0  0  0  0  0  2  0  0  0  0  0  0
  186.0380  179.4400  147.2690 C   0  0  0  0  0  1  0  0  0  0  0  0
  1 15  1  1  0  0  0
  1  7  1  0  0  0  0
  2  8  1  0  0  0  0
  3  6  1  0  0  0  0
  5  4  1  6  0  0  0
  6  5  1  0  0  0  0
  7  9  1  6  0  0  0
  7  2  1  0  0  0  0
  7  3  1  0  0  0  0
  8  5  1  0  0  0  0
 10  9  1  0  0  0  0
 12 14  1  0  0  0  0
 13 12  1  0  0  0  0
 14 11  2  0  0  0  0
 14  1  1  0  0  0  0
 16 15  1  0  0  0  0
 17 16  1  0  0  0  0
 18 20  1  0  0  0  0
 19 18  2  0  0  0  0
 19 17  1  0  0  0  0
 20 21  1  0  0  0  0
 21 22  1  0  0  0  0
 22 23  1  0  0  0  0
 23 24  1  0  0  0  0
 24 25  1  0  0  0  0
M  END
>  <MODEL>
3

>  <REMARK>
 VINA RESULT:      -6.0      2.919      5.257
  Name = 
  12 active torsions:
  status: ('A' for Active; 'I' for Inactive)
    1  A    between atoms: C_1  and  C_3
    2  A    between atoms: C_1  and  C_18
    3  A    between atoms: C_1  and  C_24
    4  A    between atoms: C_2  and  C_7
    5  A    between atoms: C_2  and  C_25
    6  A    between atoms: C_3  and  O_16
    7  A    between atoms: C_6  and  N_15
    8  A    between atoms: C_6  and  C_21
    9  A    between atoms: O_16  and  C_23
   10  A    between atoms: C_17  and  C_18
   11  A    between atoms: C_20  and  C_23
   12  A    between atoms: C_21  and  C_25
                            x       y       z     vdW  Elec       q    Type
                         _______ _______ _______ _____ _____    ______ ____

>  <TORSDO>
F 12

$$$$
=
 OpenBabel10262419583D

 25 25  0  0  1  0  0  0  0  0999 V2000
  188.7170  177.4110  140.9180 C   0  0  1  0  0  3  0  0  0  0  0  0
  188.9070  176.3310  138.7730 O   0  0  0  0  0  0  0  0  0  0  0  0
  190.8830  177.5710  139.6100 C   0  0  0  0  0  2  0  0  0  0  0  0
  191.1490  174.3430  137.8800 O   0  0  0  0  0  1  0  0  0  0  0  0
  191.0880  175.7370  137.9060 C   0  0  2  0  0  3  0  0  0  0  0  0
  191.5430  176.2360  139.2770 C   0  0  0  0  0  2  0  0  0  0  0  0
  189.3390  177.4780  139.5030 C   0  0  2  0  0  0  0  0  0  0  0  0
  189.6640  176.1980  137.5880 C   0  0  0  0  0  2  0  0  0  0  0  0
  188.8340  178.7460  138.8060 C   0  0  0  0  0  2  0  0  0  0  0  0
  187.6120  178.5180  138.1960 F   0  0  0  0  0  0  0  0  0  0  0  0
  190.2600  178.1230  142.5940 O   0  0  0  0  0  0  0  0  0  0  0  0
  190.0710  175.8120  142.3640 N   0  0  0  0  0  2  0  0  0  0  0  0
  190.9670  175.5710  143.3510 O   0  0  0  0  0  1  0  0  0  0  0  0
  189.7290  177.1490  141.9980 C   0  0  0  0  0  0  0  0  0  0  0  0
  187.8390  178.6190  141.2530 C   0  0  0  0  0  2  0  0  0  0  0  0
  186.7160  178.2110  141.9750 O   0  0  0  0  0  0  0  0  0  0  0  0
  185.7310  179.1380  141.6410 C   0  0  0  0  0  2  0  0  0  0  0  0
  183.7610  178.7720  143.0500 N   0  0  0  0  0  0  0  0  0  0  0  0
  184.3800  178.5640  141.9380 C   0  0  0  0  0  3  0  0  0  0  0  0
  184.3010  179.5750  144.1230 C   0  0  0  0  0  2  0  0  0  0  0  0
  184.3380  178.7760  145.4120 C   0  0  0  0  0  2  0  0  0  0  0  0
  185.6790  178.9730  146.0870 C   0  0  0  0  0  2  0  0  0  0  0  0
  186.4290  177.6570  146.1160 C   0  0  0  0  0  2  0  0  0  0  0  0
  187.5880  177.7170  145.1430 C   0  0  0  0  0  2  0  0  0  0  0  0
  188.8740  177.3640  145.8630 C   0  0  0  0  0  1  0  0  0  0  0  0
  1 15  1  1  0  0  0
  1 14  1  0  0  0  0
  2  7  1  0  0  0  0
  5  4  1  1  0  0  0
  5  6  1  0  0  0  0
  6  3  1  0  0  0  0
  7  9  1  6  0  0  0
  7  3  1  0  0  0  0
  7  1  1  0  0  0  0
  8  5  1  0  0  0  0
  8  2  1  0  0  0  0
 10  9  1  0  0  0  0
 12 13  1  0  0  0  0
 14 12  1  0  0  0  0
 14 11  2  0  0  0  0
 15 16  1  0  0  0  0
 17 19  1  0  0  0  0
 17 16  1  0  0  0  0
 18 20  1  0  0  0  0
 19 18  2  0  0  0  0
 20 21  1  0  0  0  0
 21 22  1  0  0  0  0
 22 23  1  0  0  0  0
 24 25  1  0  0  0  0
 24 23  1  0  0  0  0
M  END
>  <MODEL>
4

>  <REMARK>
 VINA RESULT:      -6.0      1.682      2.332
  Name = 
  12 active torsions:
  status: ('A' for Active; 'I' for Inactive)
    1  A    between atoms: C_1  and  C_3
    2  A    between atoms: C_1  and  C_18
    3  A    between atoms: C_1  and  C_24
    4  A    between atoms: C_2  and  C_7
    5  A    between atoms: C_2  and  C_25
    6  A    between atoms: C_3  and  O_16
    7  A    between atoms: C_6  and  N_15
    8  A    between atoms: C_6  and  C_21
    9  A    between atoms: O_16  and  C_23
   10  A    between atoms: C_17  and  C_18
   11  A    between atoms: C_20  and  C_23
   12  A    between atoms: C_21  and  C_25
                            x       y       z     vdW  Elec       q    Type
                         _______ _______ _______ _____ _____    ______ ____

>  <TORSDO>
F 12

$$$$
=
 OpenBabel10262419583D

 25 25  0  0  1  0  0  0  0  0999 V2000
  183.5360  178.0150  140.3210 C   0  0  1  0  0  3  0  0  0  0  0  0
  182.2570  178.2820  138.2970 O   0  0  0  0  0  0  0  0  0  0  0  0
  181.0710  178.5930  140.4510 C   0  0  0  0  0  2  0  0  0  0  0  0
  180.4760  180.7330  137.5280 O   0  0  0  0  0  1  0  0  0  0  0  0
  180.2300  179.6070  138.3120 C   0  0  2  0  0  3  0  0  0  0  0  0
  180.6670  179.8870  139.7490 C   0  0  0  0  0  2  0  0  0  0  0  0
  182.1560  177.8310  139.6470 C   0  0  2  0  0  0  0  0  0  0  0  0
  180.9690  178.4000  137.7290 C   0  0  0  0  0  2  0  0  0  0  0  0
  181.7980  176.3410  139.6620 C   0  0  0  0  0  2  0  0  0  0  0  0
  182.9400  175.5610  139.5950 F   0  0  0  0  0  0  0  0  0  0  0  0
  184.5030  180.0510  139.5320 O   0  0  0  0  0  0  0  0  0  0  0  0
  185.4450  178.1160  138.6390 N   0  0  0  0  0  2  0  0  0  0  0  0
  186.3360  178.8110  137.8930 O   0  0  0  0  0  1  0  0  0  0  0  0
  184.5080  178.7920  139.4770 C   0  0  0  0  0  0  0  0  0  0  0  0
  183.4490  178.5800  141.7400 C   0  0  0  0  0  2  0  0  0  0  0  0
  184.6160  178.2870  142.4460 O   0  0  0  0  0  0  0  0  0  0  0  0
  184.7380  179.3270  143.3650 C   0  0  0  0  0  2  0  0  0  0  0  0
  184.2140  178.9480  145.7280 N   0  0  0  0  0  0  0  0  0  0  0  0
  183.8050  179.0940  144.5130 C   0  0  0  0  0  3  0  0  0  0  0  0
  185.6080  178.9910  146.1080 C   0  0  0  0  0  2  0  0  0  0  0  0
  186.2010  177.5940  146.0910 C   0  0  0  0  0  2  0  0  0  0  0  0
  187.5180  177.6180  145.3430 C   0  0  0  0  0  2  0  0  0  0  0  0
  188.6620  177.6850  146.3350 C   0  0  0  0  0  2  0  0  0  0  0  0
  189.9570  177.3310  145.6340 C   0  0  0  0  0  2  0  0  0  0  0  0
  190.2100  178.3150  144.5100 C   0  0  0  0  0  1  0  0  0  0  0  0
  1 15  1  1  0  0  0
  2  7  1  0  0  0  0
  5  4  1  6  0  0  0
  5  6  1  0  0  0  0
  6  3  1  0  0  0  0
  7  9  1  6  0  0  0
  7  1  1  0  0  0  0
  7  3  1  0  0  0  0
  8  2  1  0  0  0  0
  8  5  1  0  0  0  0
 10  9  1  0  0  0  0
 12 14  1  0  0  0  0
 13 12  1  0  0  0  0
 14 11  2  0  0  0  0
 14  1  1  0  0  0  0
 15 16  1  0  0  0  0
 16 17  1  0  0  0  0
 17 19  1  0  0  0  0
 18 20  1  0  0  0  0
 19 18  2  0  0  0  0
 21 20  1  0  0  0  0
 22 21  1  0  0  0  0
 22 23  1  0  0  0  0
 24 23  1  0  0  0  0
 25 24  1  0  0  0  0
M  END
>  <MODEL>
5

>  <REMARK>
 VINA RESULT:      -5.9      3.944      5.734
  Name = 
  12 active torsions:
  status: ('A' for Active; 'I' for Inactive)
    1  A    between atoms: C_1  and  C_3
    2  A    between atoms: C_1  and  C_18
    3  A    between atoms: C_1  and  C_24
    4  A    between atoms: C_2  and  C_7
    5  A    between atoms: C_2  and  C_25
    6  A    between atoms: C_3  and  O_16
    7  A    between atoms: C_6  and  N_15
    8  A    between atoms: C_6  and  C_21
    9  A    between atoms: O_16  and  C_23
   10  A    between atoms: C_17  and  C_18
   11  A    between atoms: C_20  and  C_23
   12  A    between atoms: C_21  and  C_25
                            x       y       z     vdW  Elec       q    Type
                         _______ _______ _______ _____ _____    ______ ____

>  <TORSDO>
F 12

$$$$
=
 OpenBabel10262419583D

 25 25  0  0  1  0  0  0  0  0999 V2000
  190.2320  177.2900  139.0210 C   0  0  1  0  0  3  0  0  0  0  0  0
  190.5580  175.0040  138.3350 O   0  0  0  0  0  0  0  0  0  0  0  0
  190.8390  176.7660  136.6150 C   0  0  0  0  0  2  0  0  0  0  0  0
  193.0490  173.8430  136.8430 O   0  0  0  0  0  1  0  0  0  0  0  0
  191.9080  174.5050  136.3880 C   0  0  2  0  0  3  0  0  0  0  0  0
  192.1520  176.0130  136.4230 C   0  0  0  0  0  2  0  0  0  0  0  0
  190.0800  176.2650  137.8720 C   0  0  2  0  0  0  0  0  0  0  0  0
  190.7050  174.1130  137.2490 C   0  0  0  0  0  2  0  0  0  0  0  0
  188.5950  176.1480  137.5140 C   0  0  0  0  0  2  0  0  0  0  0  0
  188.3560  176.6380  136.2410 F   0  0  0  0  0  0  0  0  0  0  0  0
  188.9880  179.2270  138.3880 O   0  0  0  0  0  0  0  0  0  0  0  0
  188.0190  177.9590  140.0870 N   0  0  0  0  0  2  0  0  0  0  0  0
  186.9490  178.7830  140.1860 O   0  0  0  0  0  1  0  0  0  0  0  0
  189.0580  178.2200  139.1430 C   0  0  0  0  0  0  0  0  0  0  0  0
  190.5810  176.6470  140.3650 C   0  0  0  0  0  2  0  0  0  0  0  0
  191.3750  177.5130  141.1190 O   0  0  0  0  0  0  0  0  0  0  0  0
  190.8250  177.4660  142.3990 C   0  0  0  0  0  2  0  0  0  0  0  0
  189.0730  176.0170  143.3090 N   0  0  0  0  0  0  0  0  0  0  0  0
  190.1450  176.1470  142.6040 C   0  0  0  0  0  3  0  0  0  0  0  0
  188.4190  177.1200  143.9750 C   0  0  0  0  0  2  0  0  0  0  0  0
  188.8580  177.1940  145.4260 C   0  0  0  0  0  2  0  0  0  0  0  0
  187.8400  177.9870  146.2180 C   0  0  0  0  0  2  0  0  0  0  0  0
  186.4750  177.3450  146.0740 C   0  0  0  0  0  2  0  0  0  0  0  0
  185.4010  178.3840  146.3200 C   0  0  0  0  0  2  0  0  0  0  0  0
  185.0740  179.0920  145.0200 C   0  0  0  0  0  1  0  0  0  0  0  0
  1 14  1  0  0  0  0
  1 15  1  1  0  0  0
  3  7  1  0  0  0  0
  5  6  1  0  0  0  0
  5  4  1  1  0  0  0
  5  8  1  0  0  0  0
  6  3  1  0  0  0  0
  7  9  1  6  0  0  0
  7  2  1  0  0  0  0
  7  1  1  0  0  0  0
  8  2  1  0  0  0  0
 10  9  1  0  0  0  0
 11 14  2  0  0  0  0
 12 13  1  0  0  0  0
 14 12  1  0  0  0  0
 15 16  1  0  0  0  0
 16 17  1  0  0  0  0
 17 19  1  0  0  0  0
 18 20  1  0  0  0  0
 19 18  2  0  0  0  0
 20 21  1  0  0  0  0
 21 22  1  0  0  0  0
 23 22  1  0  0  0  0
 23 24  1  0  0  0  0
 25 24  1  0  0  0  0
M  END
>  <MODEL>
6

>  <REMARK>
 VINA RESULT:      -5.9      2.651      4.429
  Name = 
  12 active torsions:
  status: ('A' for Active; 'I' for Inactive)
    1  A    between atoms: C_1  and  C_3
    2  A    between atoms: C_1  and  C_18
    3  A    between atoms: C_1  and  C_24
    4  A    between atoms: C_2  and  C_7
    5  A    between atoms: C_2  and  C_25
    6  A    between atoms: C_3  and  O_16
    7  A    between atoms: C_6  and  N_15
    8  A    between atoms: C_6  and  C_21
    9  A    between atoms: O_16  and  C_23
   10  A    between atoms: C_17  and  C_18
   11  A    between atoms: C_20  and  C_23
   12  A    between atoms: C_21  and  C_25
                            x       y       z     vdW  Elec       q    Type
                         _______ _______ _______ _____ _____    ______ ____

>  <TORSDO>
F 12

$$$$
=
 OpenBabel10262419583D

 25 25  0  0  1  0  0  0  0  0999 V2000
  189.9200  176.3560  138.8650 C   0  0  1  0  0  3  0  0  0  0  0  0
  187.7940  176.5840  137.7570 O   0  0  0  0  0  0  0  0  0  0  0  0
  189.8360  176.9550  136.4030 C   0  0  0  0  0  2  0  0  0  0  0  0
  186.9020  175.1570  135.1220 O   0  0  0  0  0  1  0  0  0  0  0  0
  187.6450  176.3150  135.3560 C   0  0  2  0  0  3  0  0  0  0  0  0
  189.1200  175.9460  135.5110 C   0  0  0  0  0  2  0  0  0  0  0  0
  189.1220  177.1040  137.7720 C   0  0  2  0  0  0  0  0  0  0  0  0
  187.1130  177.0270  136.6010 C   0  0  0  0  0  2  0  0  0  0  0  0
  189.0830  178.5940  138.1270 C   0  0  0  0  0  2  0  0  0  0  0  0
  189.3620  179.3710  137.0150 F   0  0  0  0  0  0  0  0  0  0  0  0
  191.4260  174.7120  138.0100 O   0  0  0  0  0  0  0  0  0  0  0  0
  192.3790  176.8060  138.3800 N   0  0  0  0  0  2  0  0  0  0  0  0
  193.5970  176.4050  137.9440 O   0  0  0  0  0  1  0  0  0  0  0  0
  191.2750  175.9000  138.4020 C   0  0  0  0  0  0  0  0  0  0  0  0
  190.0080  177.1240  140.1860 C   0  0  0  0  0  2  0  0  0  0  0  0
  190.3670  176.2600  141.2210 O   0  0  0  0  0  0  0  0  0  0  0  0
  189.9840  176.9290  142.3820 C   0  0  0  0  0  2  0  0  0  0  0  0
  187.6910  177.6550  142.8420 N   0  0  0  0  0  0  0  0  0  0  0  0
  188.7520  177.7360  142.1130 C   0  0  0  0  0  3  0  0  0  0  0  0
  187.5770  176.7820  143.9870 C   0  0  0  0  0  2  0  0  0  0  0  0
  186.6080  177.3640  145.0000 C   0  0  0  0  0  2  0  0  0  0  0  0
  187.3850  177.9250  146.1730 C   0  0  0  0  0  2  0  0  0  0  0  0
  188.7750  177.3220  146.1940 C   0  0  0  0  0  2  0  0  0  0  0  0
  189.3140  177.3500  147.6090 C   0  0  0  0  0  2  0  0  0  0  0  0
  188.3140  178.0340  148.5190 C   0  0  0  0  0  1  0  0  0  0  0  0
  1 15  1  1  0  0  0
  2  7  1  0  0  0  0
  3  7  1  0  0  0  0
  5  4  1  1  0  0  0
  5  6  1  0  0  0  0
  5  8  1  0  0  0  0
  6  3  1  0  0  0  0
  7  9  1  1  0  0  0
  7  1  1  0  0  0  0
  8  2  1  0  0  0  0
 10  9  1  0  0  0  0
 11 14  2  0  0  0  0
 12 14  1  0  0  0  0
 13 12  1  0  0  0  0
 14  1  1  0  0  0  0
 15 16  1  0  0  0  0
 16 17  1  0  0  0  0
 18 20  1  0  0  0  0
 19 17  1  0  0  0  0
 19 18  2  0  0  0  0
 20 21  1  0  0  0  0
 21 22  1  0  0  0  0
 22 23  1  0  0  0  0
 23 24  1  0  0  0  0
 24 25  1  0  0  0  0
M  END
>  <MODEL>
7

>  <REMARK>
 VINA RESULT:      -5.8      2.639      3.541
  Name = 
  12 active torsions:
  status: ('A' for Active; 'I' for Inactive)
    1  A    between atoms: C_1  and  C_3
    2  A    between atoms: C_1  and  C_18
    3  A    between atoms: C_1  and  C_24
    4  A    between atoms: C_2  and  C_7
    5  A    between atoms: C_2  and  C_25
    6  A    between atoms: C_3  and  O_16
    7  A    between atoms: C_6  and  N_15
    8  A    between atoms: C_6  and  C_21
    9  A    between atoms: O_16  and  C_23
   10  A    between atoms: C_17  and  C_18
   11  A    between atoms: C_20  and  C_23
   12  A    between atoms: C_21  and  C_25
                            x       y       z     vdW  Elec       q    Type
                         _______ _______ _______ _____ _____    ______ ____

>  <TORSDO>
F 12

$$$$
=
 OpenBabel10262419583D

 25 25  0  0  1  0  0  0  0  0999 V2000
  188.1990  178.3610  141.3060 C   0  0  1  0  0  3  0  0  0  0  0  0
  189.1180  178.4820  143.5290 O   0  0  0  0  0  0  0  0  0  0  0  0
  190.3180  177.0880  141.8680 C   0  0  0  0  0  2  0  0  0  0  0  0
  192.0570  179.2290  144.2920 O   0  0  0  0  0  1  0  0  0  0  0  0
  191.4680  178.0290  143.8940 C   0  0  2  0  0  3  0  0  0  0  0  0
  191.4790  177.9440  142.3680 C   0  0  0  0  0  2  0  0  0  0  0  0
  188.9620  177.6030  142.4170 C   0  0  2  0  0  0  0  0  0  0  0  0
  190.0440  177.9420  144.4480 C   0  0  0  0  0  2  0  0  0  0  0  0
  188.1300  176.3870  142.8410 C   0  0  0  0  0  2  0  0  0  0  0  0
  187.4040  176.6650  143.9860 F   0  0  0  0  0  0  0  0  0  0  0  0
  189.0940  179.0140  139.1910 O   0  0  0  0  0  0  0  0  0  0  0  0
  188.7950  176.7180  139.4550 N   0  0  0  0  0  2  0  0  0  0  0  0
  189.2770  176.4440  138.2190 O   0  0  0  0  0  1  0  0  0  0  0  0
  188.7130  178.0630  139.9250 C   0  0  0  0  0  0  0  0  0  0  0  0
  186.6800  178.1900  141.3870 C   0  0  0  0  0  2  0  0  0  0  0  0
  186.0450  179.3970  141.0910 O   0  0  0  0  0  0  0  0  0  0  0  0
  185.3180  179.7000  142.2400 C   0  0  0  0  0  2  0  0  0  0  0  0
  184.4300  178.2500  144.0030 N   0  0  0  0  0  0  0  0  0  0  0  0
  184.6450  178.4620  142.7490 C   0  0  0  0  0  3  0  0  0  0  0  0
  184.8130  179.1760  145.0440 C   0  0  0  0  0  2  0  0  0  0  0  0
  184.8450  178.4720  146.3890 C   0  0  0  0  0  2  0  0  0  0  0  0
  186.0020  179.0070  147.2070 C   0  0  0  0  0  2  0  0  0  0  0  0
  187.1890  178.0740  147.0740 C   0  0  0  0  0  2  0  0  0  0  0  0
  187.9550  178.0450  148.3800 C   0  0  0  0  0  2  0  0  0  0  0  0
  189.4310  177.8520  148.0980 C   0  0  0  0  0  1  0  0  0  0  0  0
  1 15  1  6  0  0  0
  1  7  1  0  0  0  0
  2  8  1  0  0  0  0
  3  6  1  0  0  0  0
  3  7  1  0  0  0  0
  5  4  1  6  0  0  0
  5  8  1  0  0  0  0
  6  5  1  0  0  0  0
  7  9  1  1  0  0  0
  7  2  1  0  0  0  0
  9 10  1  0  0  0  0
 11 14  2  0  0  0  0
 12 14  1  0  0  0  0
 13 12  1  0  0  0  0
 14  1  1  0  0  0  0
 16 15  1  0  0  0  0
 16 17  1  0  0  0  0
 17 19  1  0  0  0  0
 18 20  1  0  0  0  0
 19 18  2  0  0  0  0
 20 21  1  0  0  0  0
 21 22  1  0  0  0  0
 23 22  1  0  0  0  0
 23 24  1  0  0  0  0
 25 24  1  0  0  0  0
M  END
>  <MODEL>
8

>  <REMARK>
 VINA RESULT:      -5.8      2.202      4.038
  Name = 
  12 active torsions:
  status: ('A' for Active; 'I' for Inactive)
    1  A    between atoms: C_1  and  C_3
    2  A    between atoms: C_1  and  C_18
    3  A    between atoms: C_1  and  C_24
    4  A    between atoms: C_2  and  C_7
    5  A    between atoms: C_2  and  C_25
    6  A    between atoms: C_3  and  O_16
    7  A    between atoms: C_6  and  N_15
    8  A    between atoms: C_6  and  C_21
    9  A    between atoms: O_16  and  C_23
   10  A    between atoms: C_17  and  C_18
   11  A    between atoms: C_20  and  C_23
   12  A    between atoms: C_21  and  C_25
                            x       y       z     vdW  Elec       q    Type
                         _______ _______ _______ _____ _____    ______ ____

>  <TORSDO>
F 12

$$$$
=
 OpenBabel10262419583D

 25 25  0  0  1  0  0  0  0  0999 V2000
  189.8720  176.5640  138.8540 C   0  0  1  0  0  3  0  0  0  0  0  0
  187.6580  176.8010  137.9340 O   0  0  0  0  0  0  0  0  0  0  0  0
  189.5720  176.9590  136.3670 C   0  0  0  0  0  2  0  0  0  0  0  0
  186.4580  175.2040  135.5300 O   0  0  0  0  0  1  0  0  0  0  0  0
  187.2650  176.3400  135.5900 C   0  0  2  0  0  3  0  0  0  0  0  0
  188.7320  175.9150  135.6380 C   0  0  0  0  0  2  0  0  0  0  0  0
  189.0010  177.2550  137.7790 C   0  0  2  0  0  0  0  0  0  0  0  0
  186.8860  177.1780  136.8140 C   0  0  0  0  0  2  0  0  0  0  0  0
  189.0560  178.7710  138.0040 C   0  0  0  0  0  2  0  0  0  0  0  0
  189.4240  179.4270  136.8420 F   0  0  0  0  0  0  0  0  0  0  0  0
  192.1490  176.8550  138.1990 O   0  0  0  0  0  0  0  0  0  0  0  0
  191.3410  174.6820  137.9690 N   0  0  0  0  0  2  0  0  0  0  0  0
  192.5260  174.2170  137.5050 O   0  0  0  0  0  1  0  0  0  0  0  0
  191.1820  176.0570  138.3180 C   0  0  0  0  0  0  0  0  0  0  0  0
  190.0700  177.4110  140.1120 C   0  0  0  0  0  2  0  0  0  0  0  0
  189.3020  176.9020  141.1600 O   0  0  0  0  0  0  0  0  0  0  0  0
  190.2340  176.3830  142.0560 C   0  0  0  0  0  2  0  0  0  0  0  0
  191.6840  177.7070  143.5210 N   0  0  0  0  0  0  0  0  0  0  0  0
  191.2910  177.4080  142.3300 C   0  0  0  0  0  3  0  0  0  0  0  0
  191.1470  177.0900  144.7130 C   0  0  0  0  0  2  0  0  0  0  0  0
  190.0470  177.9530  145.3030 C   0  0  0  0  0  2  0  0  0  0  0  0
  188.7270  177.2160  145.2120 C   0  0  0  0  0  2  0  0  0  0  0  0
  187.8860  177.5300  146.4320 C   0  0  0  0  0  2  0  0  0  0  0  0
  188.7480  177.4380  147.6740 C   0  0  0  0  0  2  0  0  0  0  0  0
  188.0580  178.1420  148.8250 C   0  0  0  0  0  1  0  0  0  0  0  0
  1 15  1  1  0  0  0
  3  7  1  0  0  0  0
  5  4  1  1  0  0  0
  5  6  1  0  0  0  0
  5  8  1  0  0  0  0
  6  3  1  0  0  0  0
  7  2  1  0  0  0  0
  7  9  1  1  0  0  0
  7  1  1  0  0  0  0
  8  2  1  0  0  0  0
 10  9  1  0  0  0  0
 11 14  2  0  0  0  0
 12 14  1  0  0  0  0
 13 12  1  0  0  0  0
 14  1  1  0  0  0  0
 15 16  1  0  0  0  0
 16 17  1  0  0  0  0
 17 19  1  0  0  0  0
 18 20  1  0  0  0  0
 19 18  2  0  0  0  0
 20 21  1  0  0  0  0
 22 21  1  0  0  0  0
 22 23  1  0  0  0  0
 23 24  1  0  0  0  0
 24 25  1  0  0  0  0
M  END
>  <MODEL>
9

>  <REMARK>
 VINA RESULT:      -5.7      2.916      4.132
  Name = 
  12 active torsions:
  status: ('A' for Active; 'I' for Inactive)
    1  A    between atoms: C_1  and  C_3
    2  A    between atoms: C_1  and  C_18
    3  A    between atoms: C_1  and  C_24
    4  A    between atoms: C_2  and  C_7
    5  A    between atoms: C_2  and  C_25
    6  A    between atoms: C_3  and  O_16
    7  A    between atoms: C_6  and  N_15
    8  A    between atoms: C_6  and  C_21
    9  A    between atoms: O_16  and  C_23
   10  A    between atoms: C_17  and  C_18
   11  A    between atoms: C_20  and  C_23
   12  A    between atoms: C_21  and  C_25
                            x       y       z     vdW  Elec       q    Type
                         _______ _______ _______ _____ _____    ______ ____

>  <TORSDO>
F 12

$$$$
