=
 OpenBabel10262420353D

 55 62  0  0  1  0  0  0  0  0999 V2000
  191.5850  177.7400  142.2490 C   0  0  0  0  0  3  0  0  0  0  0  0
  188.9660  177.2280  143.0940 C   0  0  0  0  0  0  0  0  0  0  0  0
  189.3180  177.0570  141.7510 C   0  0  0  0  0  3  0  0  0  0  0  0
  191.2350  177.9160  143.5870 C   0  0  0  0  0  3  0  0  0  0  0  0
  190.6330  177.3020  141.3240 C   0  0  0  0  0  0  0  0  0  0  0  0
  189.9280  177.6580  144.0090 C   0  0  0  0  0  3  0  0  0  0  0  0
  191.0230  177.2130  139.8820 C   0  0  0  0  0  2  0  0  0  0  0  0
  189.9280  176.6160  139.0140 C   0  0  0  0  0  2  0  0  0  0  0  0
  187.6380  175.0310  135.4960 C   0  0  0  0  0  2  0  0  0  0  0  0
  186.8950  172.9230  134.5940 O   0  0  0  0  0  0  0  0  0  0  0  0
  188.9480  173.8970  137.2590 C   0  0  2  0  0  3  0  0  0  0  0  0
  188.2790  172.9460  136.4510 O   0  0  0  0  0  0  0  0  0  0  0  0
  187.5490  173.5620  135.4580 C   0  0  0  0  0  0  0  0  0  0  0  0
  188.4210  175.2870  136.7920 C   0  0  1  0  0  3  0  0  0  0  0  0
  191.2080  174.8790  137.7610 C   0  0  2  0  0  3  0  0  0  0  0  0
  190.4540  173.7630  137.0380 C   0  0  0  0  0  2  0  0  0  0  0  0
  189.5170  176.2580  136.5660 N   0  0  0  0  0  0  0  0  0  0  0  0
  190.5150  176.2450  137.6540 C   0  0  1  0  0  3  0  0  0  0  0  0
  193.3420  173.7750  137.0710 C   0  0  0  0  0  3  0  0  0  0  0  0
  195.3240  175.0580  136.4950 C   0  0  0  0  0  0  0  0  0  0  0  0
  193.2720  176.1970  137.1360 C   0  0  0  0  0  3  0  0  0  0  0  0
  194.6100  176.2450  136.7310 C   0  0  0  0  0  3  0  0  0  0  0  0
  194.6810  173.8240  136.6670 C   0  0  0  0  0  3  0  0  0  0  0  0
  192.6310  174.9600  137.3050 C   0  0  0  0  0  0  0  0  0  0  0  0
  196.7330  175.1040  136.0700 C   0  0  0  0  0  0  0  0  0  0  0  0
  197.3920  174.0370  135.9240 O   0  0  0  0  0  1  0  0  0  0  0  0
  197.3530  176.3270  135.8190 O   0  0  0  0  0  0  0  0  0  0  0  0
  189.0790  177.6430  136.2860 C   0  0  1  0  0  3  0  0  0  0  0  0
  188.9510  177.8890  134.7920 C   0  0  0  0  0  1  0  0  0  0  0  0
  188.0140  178.6720  138.1340 O   0  0  0  0  0  0  0  0  0  0  0  0
  186.4750  177.8890  136.5470 C   0  0  0  0  0  1  0  0  0  0  0  0
  187.8630  178.1120  137.0570 C   0  0  0  0  0  0  0  0  0  0  0  0
  187.5840  176.9090  143.5700 C   0  0  0  0  0  2  0  0  0  0  0  0
  187.2020  177.7050  144.8120 C   0  0  0  0  0  2  0  0  0  0  0  0
  185.7310  178.0750  144.7390 C   0  0  0  0  0  2  0  0  0  0  0  0
  185.2070  177.9340  143.3120 C   0  0  0  0  0  2  0  0  0  0  0  0
  183.8720  178.6520  143.1400 C   0  0  0  0  0  2  0  0  0  0  0  0
  181.2260  179.2670  142.2700 O   0  0  0  0  0  0  0  0  0  0  0  0
  181.9790  178.6520  141.4680 C   0  0  0  0  0  0  0  0  0  0  0  0
  183.3370  178.3860  141.8140 N   0  0  0  0  0  2  0  0  0  0  0  0
  182.3740  180.4210  138.8130 S   0  0  0  0  0  0  0  0  0  0  0  0
  182.8490  178.0850  137.4750 C   0  0  2  0  0  3  0  0  0  0  0  0
  181.1010  179.1650  139.0610 C   0  0  1  0  0  0  0  0  0  0  0  0
  180.3050  177.3240  140.4260 O   0  0  0  0  0  0  0  0  0  0  0  0
  182.3670  177.1770  136.3420 C   0  0  0  0  0  2  0  0  0  0  0  0
  183.8110  180.1520  139.1670 O   0  0  0  0  0  0  0  0  0  0  0  0
  181.2480  176.2960  138.4860 C   0  0  0  0  0  2  0  0  0  0  0  0
  182.0870  181.7490  138.1660 O   0  0  0  0  0  0  0  0  0  0  0  0
  182.5280  176.6160  137.7300 C   0  0  2  0  0  0  0  0  0  0  0  0
  181.4320  178.1410  140.1720 C   0  0  2  0  0  0  0  0  0  0  0  0
  179.7150  179.7880  139.0790 C   0  0  0  0  0  1  0  0  0  0  0  0
  181.4460  176.6620  139.9490 C   0  0  1  0  0  3  0  0  0  0  0  0
  181.7320  179.1090  137.7280 C   0  0  1  0  0  3  0  0  0  0  0  0
  183.8340  174.8450  136.7810 O   0  0  0  0  0  1  0  0  0  0  0  0
  183.7350  175.7030  137.8860 C   0  0  0  0  0  2  0  0  0  0  0  0
  1  4  1  0  0  0  0
  2 33  1  0  0  0  0
  2  6  1  0  0  0  0
  3  2  2  0  0  0  0
  4  6  2  0  0  0  0
  5  3  1  0  0  0  0
  5  1  2  0  0  0  0
  7  5  1  0  0  0  0
  8  7  1  0  0  0  0
 10 13  2  0  0  0  0
 11 16  1  6  0  0  0
 12 11  1  0  0  0  0
 13  9  1  0  0  0  0
 13 12  1  0  0  0  0
 14  9  1  6  0  0  0
 14 11  1  0  0  0  0
 15 24  1  6  0  0  0
 16 15  1  0  0  0  0
 17 14  1  0  0  0  0
 17 18  1  0  0  0  0
 18 15  1  0  0  0  0
 18  8  1  1  0  0  0
 19 24  1  0  0  0  0
 20 23  1  0  0  0  0
 20 22  2  0  0  0  0
 21 24  2  0  0  0  0
 22 21  1  0  0  0  0
 23 19  2  0  0  0  0
 25 20  1  0  0  0  0
 26 25  1  0  0  0  0
 27 25  2  0  0  0  0
 28 29  1  6  0  0  0
 28 17  1  0  0  0  0
 28 32  1  0  0  0  0
 31 32  1  0  0  0  0
 32 30  2  0  0  0  0
 33 34  1  0  0  0  0
 35 34  1  0  0  0  0
 36 35  1  0  0  0  0
 37 36  1  0  0  0  0
 39 40  1  0  0  0  0
 39 38  2  0  0  0  0
 40 37  1  0  0  0  0
 41 43  1  0  0  0  0
 41 46  2  0  0  0  0
 42 45  1  6  0  0  0
 42 53  1  0  0  0  0
 42 49  1  0  0  0  0
 43 51  1  1  0  0  0
 43 50  1  0  0  0  0
 45 49  1  0  0  0  0
 48 41  2  0  0  0  0
 49 55  1  1  0  0  0
 49 47  1  0  0  0  0
 50 44  1  0  0  0  0
 50 39  1  1  0  0  0
 52 47  1  6  0  0  0
 52 50  1  0  0  0  0
 52 44  1  0  0  0  0
 53 41  1  1  0  0  0
 53 43  1  0  0  0  0
 54 55  1  0  0  0  0
M  END
>  <MODEL>
1

>  <REMARK>
 VINA RESULT:      -7.9      0.000      0.000
  Name = 
  15 active torsions:
  status: ('A' for Active; 'I' for Inactive)
    1  A    between atoms: C_2  and  C_28
    2  A    between atoms: C_2  and  C_44
    3  A    between atoms: C_8  and  N_22
    4  A    between atoms: C_8  and  C_35
    5  A    between atoms: C_10  and  C_32
    6  A    between atoms: C_19  and  C_40
    7  A    between atoms: C_19  and  N_45
    8  A    between atoms: C_20  and  C_42
    9  A    between atoms: C_25  and  C_38
   10  A    between atoms: C_27  and  C_54
   11  A    between atoms: C_28  and  C_49
   12  A    between atoms: C_33  and  C_52
   13  A    between atoms: C_35  and  C_43
   14  A    between atoms: C_43  and  C_51
   15  A    between atoms: C_51  and  C_54
                            x       y       z     vdW  Elec       q    Type
                         _______ _______ _______ _____ _____    ______ ____

>  <TORSDO>
F 15

$$$$
=
 OpenBabel10262420353D

 55 62  0  0  1  0  0  0  0  0999 V2000
  181.1540  178.6600  142.1520 C   0  0  0  0  0  3  0  0  0  0  0  0
  183.0900  178.9270  144.1580 C   0  0  0  0  0  0  0  0  0  0  0  0
  183.4750  178.6830  142.8350 C   0  0  0  0  0  3  0  0  0  0  0  0
  180.7670  178.8970  143.4710 C   0  0  0  0  0  3  0  0  0  0  0  0
  182.5090  178.5600  141.8230 C   0  0  0  0  0  0  0  0  0  0  0  0
  181.7340  179.0320  144.4710 C   0  0  0  0  0  3  0  0  0  0  0  0
  182.8810  178.2150  140.4150 C   0  0  0  0  0  2  0  0  0  0  0  0
  181.7730  177.4800  139.6790 C   0  0  0  0  0  2  0  0  0  0  0  0
  179.5030  175.1200  136.6130 C   0  0  0  0  0  2  0  0  0  0  0  0
  179.2300  172.8350  135.8940 O   0  0  0  0  0  0  0  0  0  0  0  0
  181.3140  174.4880  138.1720 C   0  0  2  0  0  3  0  0  0  0  0  0
  180.8140  173.3440  137.5060 O   0  0  0  0  0  0  0  0  0  0  0  0
  179.8080  173.6790  136.6260 C   0  0  0  0  0  0  0  0  0  0  0  0
  180.3700  175.6580  137.7600 C   0  0  1  0  0  3  0  0  0  0  0  0
  183.2750  176.0580  138.2830 C   0  0  2  0  0  3  0  0  0  0  0  0
  182.7510  174.7390  137.7180 C   0  0  0  0  0  2  0  0  0  0  0  0
  181.1190  176.8650  137.3380 N   0  0  0  0  0  0  0  0  0  0  0  0
  182.2320  177.1860  138.2530 C   0  0  1  0  0  3  0  0  0  0  0  0
  185.3460  175.5040  136.9980 C   0  0  0  0  0  3  0  0  0  0  0  0
  186.9560  177.2100  136.3580 C   0  0  0  0  0  0  0  0  0  0  0  0
  184.9480  177.8210  137.5870 C   0  0  0  0  0  3  0  0  0  0  0  0
  186.1480  178.1840  136.9660 C   0  0  0  0  0  3  0  0  0  0  0  0
  186.5470  175.8680  136.3780 C   0  0  0  0  0  3  0  0  0  0  0  0
  184.5410  176.4790  137.6030 C   0  0  0  0  0  0  0  0  0  0  0  0
  188.2200  177.5860  135.7040 C   0  0  0  0  0  0  0  0  0  0  0  0
  188.5430  177.0780  134.5940 O   0  0  0  0  0  0  0  0  0  0  0  0
  189.0710  178.5150  136.3010 O   0  0  0  0  0  1  0  0  0  0  0  0
  180.2890  178.0640  137.0960 C   0  0  1  0  0  3  0  0  0  0  0  0
  179.4110  178.3770  138.2970 C   0  0  0  0  0  1  0  0  0  0  0  0
  181.1890  179.4290  135.3840 O   0  0  0  0  0  0  0  0  0  0  0  0
  181.5990  180.3030  137.5220 C   0  0  0  0  0  1  0  0  0  0  0  0
  181.0310  179.2820  136.5880 C   0  0  0  0  0  0  0  0  0  0  0  0
  184.1140  179.1220  145.2300 C   0  0  0  0  0  2  0  0  0  0  0  0
  183.8390  178.2580  146.4550 C   0  0  0  0  0  2  0  0  0  0  0  0
  185.0690  178.2470  147.3470 C   0  0  0  0  0  2  0  0  0  0  0  0
  186.3310  178.5250  146.5340 C   0  0  0  0  0  2  0  0  0  0  0  0
  186.5290  177.4760  145.4450 C   0  0  0  0  0  2  0  0  0  0  0  0
  187.5030  176.0430  143.1790 O   0  0  0  0  0  0  0  0  0  0  0  0
  187.7780  177.2700  143.2590 C   0  0  0  0  0  0  0  0  0  0  0  0
  187.2520  178.0580  144.3260 N   0  0  0  0  0  2  0  0  0  0  0  0
  190.9160  176.5960  143.4420 S   0  0  0  0  0  0  0  0  0  0  0  0
  190.9300  176.5070  140.7100 C   0  0  2  0  0  3  0  0  0  0  0  0
  190.1970  178.0560  142.6600 C   0  0  1  0  0  0  0  0  0  0  0  0
  188.1840  179.1390  141.8470 O   0  0  0  0  0  0  0  0  0  0  0  0
  191.5240  177.1310  139.4450 C   0  0  0  0  0  2  0  0  0  0  0  0
  190.3650  175.2220  143.1770 O   0  0  0  0  0  0  0  0  0  0  0  0
  189.3150  178.3760  139.8840 C   0  0  0  0  0  2  0  0  0  0  0  0
  192.1400  176.6640  144.3150 O   0  0  0  0  0  0  0  0  0  0  0  0
  190.0300  177.0620  139.6120 C   0  0  2  0  0  0  0  0  0  0  0  0
  188.7090  177.8940  142.2680 C   0  0  2  0  0  0  0  0  0  0  0  0
  190.5870  179.3230  143.4030 C   0  0  0  0  0  1  0  0  0  0  0  0
  188.1950  178.1200  140.8810 C   0  0  1  0  0  3  0  0  0  0  0  0
  191.2870  177.4430  141.8740 C   0  0  1  0  0  3  0  0  0  0  0  0
  190.3170  175.4000  137.9090 O   0  0  0  0  0  1  0  0  0  0  0  0
  189.3620  176.0190  138.7270 C   0  0  0  0  0  2  0  0  0  0  0  0
  1  4  1  0  0  0  0
  2  6  1  0  0  0  0
  2 33  1  0  0  0  0
  3  2  2  0  0  0  0
  4  6  2  0  0  0  0
  5  1  2  0  0  0  0
  5  3  1  0  0  0  0
  7  5  1  0  0  0  0
  8  7  1  0  0  0  0
  9 13  1  0  0  0  0
 10 13  2  0  0  0  0
 11 16  1  6  0  0  0
 12 11  1  0  0  0  0
 13 12  1  0  0  0  0
 14  9  1  6  0  0  0
 14 11  1  0  0  0  0
 15 24  1  6  0  0  0
 16 15  1  0  0  0  0
 17 14  1  0  0  0  0
 17 18  1  0  0  0  0
 18 15  1  0  0  0  0
 18  8  1  1  0  0  0
 19 24  1  0  0  0  0
 20 23  1  0  0  0  0
 20 22  2  0  0  0  0
 21 24  2  0  0  0  0
 22 21  1  0  0  0  0
 23 19  2  0  0  0  0
 25 27  1  0  0  0  0
 25 20  1  0  0  0  0
 26 25  2  0  0  0  0
 28 17  1  0  0  0  0
 28 29  1  1  0  0  0
 30 32  2  0  0  0  0
 32 28  1  0  0  0  0
 32 31  1  0  0  0  0
 33 34  1  0  0  0  0
 34 35  1  0  0  0  0
 36 35  1  0  0  0  0
 37 36  1  0  0  0  0
 38 39  2  0  0  0  0
 39 40  1  0  0  0  0
 40 37  1  0  0  0  0
 41 48  2  0  0  0  0
 42 45  1  6  0  0  0
 42 53  1  0  0  0  0
 43 51  1  1  0  0  0
 43 41  1  0  0  0  0
 44 50  1  0  0  0  0
 45 49  1  0  0  0  0
 46 41  2  0  0  0  0
 49 55  1  6  0  0  0
 49 47  1  0  0  0  0
 49 42  1  0  0  0  0
 50 43  1  0  0  0  0
 50 39  1  1  0  0  0
 52 47  1  6  0  0  0
 52 44  1  0  0  0  0
 52 50  1  0  0  0  0
 53 43  1  0  0  0  0
 53 41  1  1  0  0  0
 54 55  1  0  0  0  0
M  END
>  <MODEL>
2

>  <REMARK>
 VINA RESULT:      -6.9      3.566      8.118
  Name = 
  15 active torsions:
  status: ('A' for Active; 'I' for Inactive)
    1  A    between atoms: C_2  and  C_28
    2  A    between atoms: C_2  and  C_44
    3  A    between atoms: C_8  and  N_22
    4  A    between atoms: C_8  and  C_35
    5  A    between atoms: C_10  and  C_32
    6  A    between atoms: C_19  and  C_40
    7  A    between atoms: C_19  and  N_45
    8  A    between atoms: C_20  and  C_42
    9  A    between atoms: C_25  and  C_38
   10  A    between atoms: C_27  and  C_54
   11  A    between atoms: C_28  and  C_49
   12  A    between atoms: C_33  and  C_52
   13  A    between atoms: C_35  and  C_43
   14  A    between atoms: C_43  and  C_51
   15  A    between atoms: C_51  and  C_54
                            x       y       z     vdW  Elec       q    Type
                         _______ _______ _______ _____ _____    ______ ____

>  <TORSDO>
F 15

$$$$
=
 OpenBabel10262420353D

 55 62  0  0  1  0  0  0  0  0999 V2000
  186.0880  178.0780  135.6210 C   0  0  0  0  0  3  0  0  0  0  0  0
  188.0590  176.1260  135.9970 C   0  0  0  0  0  0  0  0  0  0  0  0
  187.1500  176.4160  137.0200 C   0  0  0  0  0  3  0  0  0  0  0  0
  186.9950  177.7960  134.6000 C   0  0  0  0  0  3  0  0  0  0  0  0
  186.1530  177.3860  136.8330 C   0  0  0  0  0  0  0  0  0  0  0  0
  187.9780  176.8200  134.7880 C   0  0  0  0  0  3  0  0  0  0  0  0
  185.2200  177.7810  137.9350 C   0  0  0  0  0  2  0  0  0  0  0  0
  183.7660  177.4830  137.6090 C   0  0  0  0  0  2  0  0  0  0  0  0
  179.8110  179.5750  137.2940 C   0  0  0  0  0  2  0  0  0  0  0  0
  178.9310  181.8140  137.1280 O   0  0  0  0  0  0  0  0  0  0  0  0
  182.1030  180.4260  137.6550 C   0  0  2  0  0  3  0  0  0  0  0  0
  181.2000  181.5010  137.4740 O   0  0  0  0  0  0  0  0  0  0  0  0
  179.9150  181.0440  137.2790 C   0  0  0  0  0  0  0  0  0  0  0  0
  181.2800  179.1350  137.3670 C   0  0  1  0  0  3  0  0  0  0  0  0
  183.4730  179.2140  139.3810 C   0  0  2  0  0  3  0  0  0  0  0  0
  182.6250  180.4520  139.0910 C   0  0  0  0  0  2  0  0  0  0  0  0
  181.4710  178.1000  138.4090 N   0  0  0  0  0  0  0  0  0  0  0  0
  182.8910  177.9270  138.7770 C   0  0  1  0  0  3  0  0  0  0  0  0
  182.6440  178.7650  141.6960 C   0  0  0  0  0  3  0  0  0  0  0  0
  184.1300  178.7980  143.6210 C   0  0  0  0  0  0  0  0  0  0  0  0
  185.0060  179.2200  141.3910 C   0  0  0  0  0  3  0  0  0  0  0  0
  185.2080  179.0890  142.7690 C   0  0  0  0  0  3  0  0  0  0  0  0
  182.8470  178.6360  143.0750 C   0  0  0  0  0  3  0  0  0  0  0  0
  183.7220  179.0550  140.8480 C   0  0  0  0  0  0  0  0  0  0  0  0
  184.3370  178.6600  145.0720 C   0  0  0  0  0  0  0  0  0  0  0  0
  183.4200  178.9720  145.8810 O   0  0  0  0  0  1  0  0  0  0  0  0
  185.5480  178.1780  145.5660 O   0  0  0  0  0  0  0  0  0  0  0  0
  180.8540  176.7890  138.1110 C   0  0  1  0  0  3  0  0  0  0  0  0
  181.4730  176.1570  136.8750 C   0  0  0  0  0  1  0  0  0  0  0  0
  181.1130  174.6620  139.1170 O   0  0  0  0  0  0  0  0  0  0  0  0
  180.2640  176.2530  140.6160 C   0  0  0  0  0  1  0  0  0  0  0  0
  180.7730  175.8250  139.2760 C   0  0  0  0  0  0  0  0  0  0  0  0
  189.0850  175.0510  136.1650 C   0  0  0  0  0  2  0  0  0  0  0  0
  190.4610  175.6130  136.5000 C   0  0  0  0  0  2  0  0  0  0  0  0
  190.6980  175.5010  137.9960 C   0  0  0  0  0  2  0  0  0  0  0  0
  190.6440  176.8760  138.6580 C   0  0  0  0  0  2  0  0  0  0  0  0
  191.8670  177.1150  139.5370 C   0  0  0  0  0  2  0  0  0  0  0  0
  192.1420  176.1840  142.2190 O   0  0  0  0  0  0  0  0  0  0  0  0
  191.5770  177.2960  142.0390 C   0  0  0  0  0  0  0  0  0  0  0  0
  191.4820  177.8520  140.7290 N   0  0  0  0  0  2  0  0  0  0  0  0
  188.5490  176.5770  142.8450 S   0  0  0  0  0  0  0  0  0  0  0  0
  189.3290  176.7710  145.4580 C   0  0  2  0  0  3  0  0  0  0  0  0
  189.4060  178.1160  143.2390 C   0  0  1  0  0  0  0  0  0  0  0  0
  191.5230  179.2970  143.3220 O   0  0  0  0  0  0  0  0  0  0  0  0
  189.1020  177.5170  146.7740 C   0  0  0  0  0  2  0  0  0  0  0  0
  189.2070  175.2420  143.0690 O   0  0  0  0  0  0  0  0  0  0  0  0
  191.0390  178.7310  145.5930 C   0  0  0  0  0  2  0  0  0  0  0  0
  187.1240  176.5420  142.3640 O   0  0  0  0  0  0  0  0  0  0  0  0
  190.4860  177.4450  146.1870 C   0  0  2  0  0  0  0  0  0  0  0  0
  190.9480  178.0100  143.1940 C   0  0  2  0  0  0  0  0  0  0  0  0
  188.7670  179.2950  142.5240 C   0  0  0  0  0  1  0  0  0  0  0  0
  191.8320  178.3840  144.3420 C   0  0  1  0  0  3  0  0  0  0  0  0
  188.6140  177.5770  144.3630 C   0  0  1  0  0  3  0  0  0  0  0  0
  191.9040  177.1310  148.0920 O   0  0  0  0  0  1  0  0  0  0  0  0
  191.4210  176.5060  146.9340 C   0  0  0  0  0  2  0  0  0  0  0  0
  1  5  1  0  0  0  0
  2 33  1  0  0  0  0
  2  3  1  0  0  0  0
  4  6  1  0  0  0  0
  4  1  2  0  0  0  0
  5  3  2  0  0  0  0
  5  7  1  0  0  0  0
  6  2  2  0  0  0  0
  8  7  1  0  0  0  0
 10 13  2  0  0  0  0
 11 16  1  1  0  0  0
 12 11  1  0  0  0  0
 13  9  1  0  0  0  0
 13 12  1  0  0  0  0
 14  9  1  1  0  0  0
 14 11  1  0  0  0  0
 14 17  1  0  0  0  0
 15 24  1  1  0  0  0
 16 15  1  0  0  0  0
 17 18  1  0  0  0  0
 18  8  1  6  0  0  0
 18 15  1  0  0  0  0
 19 23  1  0  0  0  0
 20 25  1  0  0  0  0
 21 22  2  0  0  0  0
 22 20  1  0  0  0  0
 23 20  2  0  0  0  0
 24 21  1  0  0  0  0
 24 19  2  0  0  0  0
 25 27  2  0  0  0  0
 25 26  1  0  0  0  0
 28 29  1  6  0  0  0
 28 17  1  0  0  0  0
 28 32  1  0  0  0  0
 30 32  2  0  0  0  0
 32 31  1  0  0  0  0
 33 34  1  0  0  0  0
 34 35  1  0  0  0  0
 35 36  1  0  0  0  0
 36 37  1  0  0  0  0
 37 40  1  0  0  0  0
 39 38  2  0  0  0  0
 40 39  1  0  0  0  0
 41 46  2  0  0  0  0
 41 43  1  0  0  0  0
 42 49  1  0  0  0  0
 42 45  1  1  0  0  0
 43 51  1  6  0  0  0
 43 53  1  0  0  0  0
 44 52  1  0  0  0  0
 47 49  1  0  0  0  0
 48 41  2  0  0  0  0
 49 45  1  0  0  0  0
 49 55  1  1  0  0  0
 50 39  1  6  0  0  0
 50 43  1  0  0  0  0
 50 44  1  0  0  0  0
 50 52  1  0  0  0  0
 52 47  1  1  0  0  0
 53 41  1  6  0  0  0
 53 42  1  0  0  0  0
 55 54  1  0  0  0  0
M  END
>  <MODEL>
3

>  <REMARK>
 VINA RESULT:      -6.3      3.352     10.283
  Name = 
  15 active torsions:
  status: ('A' for Active; 'I' for Inactive)
    1  A    between atoms: C_2  and  C_28
    2  A    between atoms: C_2  and  C_44
    3  A    between atoms: C_8  and  N_22
    4  A    between atoms: C_8  and  C_35
    5  A    between atoms: C_10  and  C_32
    6  A    between atoms: C_19  and  C_40
    7  A    between atoms: C_19  and  N_45
    8  A    between atoms: C_20  and  C_42
    9  A    between atoms: C_25  and  C_38
   10  A    between atoms: C_27  and  C_54
   11  A    between atoms: C_28  and  C_49
   12  A    between atoms: C_33  and  C_52
   13  A    between atoms: C_35  and  C_43
   14  A    between atoms: C_43  and  C_51
   15  A    between atoms: C_51  and  C_54
                            x       y       z     vdW  Elec       q    Type
                         _______ _______ _______ _____ _____    ______ ____

>  <TORSDO>
F 15

$$$$
=
 OpenBabel10262420353D

 55 62  0  0  1  0  0  0  0  0999 V2000
  188.4300  177.8360  138.7370 C   0  0  0  0  0  3  0  0  0  0  0  0
  189.5750  177.1260  136.2830 C   0  0  0  0  0  0  0  0  0  0  0  0
  188.2580  177.5950  136.3360 C   0  0  0  0  0  3  0  0  0  0  0  0
  189.7410  177.3630  138.6880 C   0  0  0  0  0  3  0  0  0  0  0  0
  187.6820  177.9630  137.5630 C   0  0  0  0  0  0  0  0  0  0  0  0
  190.3130  177.0100  137.4620 C   0  0  0  0  0  3  0  0  0  0  0  0
  186.2510  178.3870  137.6670 C   0  0  0  0  0  2  0  0  0  0  0  0
  185.3020  177.2120  137.8310 C   0  0  0  0  0  2  0  0  0  0  0  0
  181.0470  178.6250  137.6720 C   0  0  0  0  0  2  0  0  0  0  0  0
  179.8030  180.6890  137.6050 O   0  0  0  0  0  0  0  0  0  0  0  0
  183.1740  179.8340  138.0170 C   0  0  2  0  0  3  0  0  0  0  0  0
  182.1010  180.7480  137.8930 O   0  0  0  0  0  0  0  0  0  0  0  0
  180.9050  180.0900  137.7080 C   0  0  0  0  0  0  0  0  0  0  0  0
  182.5700  178.4330  137.6990 C   0  0  1  0  0  3  0  0  0  0  0  0
  184.7700  178.8120  139.6700 C   0  0  2  0  0  3  0  0  0  0  0  0
  183.7210  179.9000  139.4420 C   0  0  0  0  0  2  0  0  0  0  0  0
  182.9570  177.4110  138.6990 N   0  0  0  0  0  0  0  0  0  0  0  0
  184.3950  177.4670  139.0330 C   0  0  1  0  0  3  0  0  0  0  0  0
  186.4060  178.4140  141.5180 C   0  0  0  0  0  3  0  0  0  0  0  0
  185.7100  178.2870  143.8440 C   0  0  0  0  0  0  0  0  0  0  0  0
  184.0700  178.7010  142.0960 C   0  0  0  0  0  3  0  0  0  0  0  0
  184.3840  178.5230  143.4480 C   0  0  0  0  0  3  0  0  0  0  0  0
  186.7190  178.2340  142.8700 C   0  0  0  0  0  3  0  0  0  0  0  0
  185.0810  178.6500  141.1250 C   0  0  0  0  0  0  0  0  0  0  0  0
  186.0450  178.0970  145.2650 C   0  0  0  0  0  0  0  0  0  0  0  0
  186.9710  177.3080  145.6040 O   0  0  0  0  0  0  0  0  0  0  0  0
  185.3470  178.7930  146.2510 O   0  0  0  0  0  1  0  0  0  0  0  0
  182.5590  176.0270  138.3670 C   0  0  1  0  0  3  0  0  0  0  0  0
  181.5040  175.5110  139.3310 C   0  0  0  0  0  1  0  0  0  0  0  0
  181.0120  175.6720  136.6100 O   0  0  0  0  0  0  0  0  0  0  0  0
  183.2310  175.6500  135.8540 C   0  0  0  0  0  1  0  0  0  0  0  0
  182.1900  175.7820  136.9190 C   0  0  0  0  0  0  0  0  0  0  0  0
  190.2160  176.7910  134.9730 C   0  0  0  0  0  2  0  0  0  0  0  0
  190.0240  175.3280  134.5940 C   0  0  0  0  0  2  0  0  0  0  0  0
  189.8840  174.4960  135.8560 C   0  0  0  0  0  2  0  0  0  0  0  0
  191.0570  173.5280  136.0010 C   0  0  0  0  0  2  0  0  0  0  0  0
  191.9300  173.8940  137.1970 C   0  0  0  0  0  2  0  0  0  0  0  0
  193.9450  175.7250  136.3460 O   0  0  0  0  0  0  0  0  0  0  0  0
  194.2550  174.5060  136.4210 C   0  0  0  0  0  0  0  0  0  0  0  0
  193.3160  173.5530  136.9170 N   0  0  0  0  0  2  0  0  0  0  0  0
  196.6180  174.0570  138.5550 S   0  0  0  0  0  0  0  0  0  0  0  0
  197.3200  171.8360  137.1250 C   0  0  2  0  0  3  0  0  0  0  0  0
  196.8380  174.3640  136.7890 C   0  0  1  0  0  0  0  0  0  0  0  0
  195.7900  174.4940  134.6060 O   0  0  0  0  0  0  0  0  0  0  0  0
  198.4380  171.1760  136.3150 C   0  0  0  0  0  2  0  0  0  0  0  0
  195.6200  173.0460  139.0490 O   0  0  0  0  0  0  0  0  0  0  0  0
  196.9570  172.4090  134.6100 C   0  0  0  0  0  2  0  0  0  0  0  0
  197.4690  174.7180  139.6050 O   0  0  0  0  0  0  0  0  0  0  0  0
  197.0770  171.3540  135.6990 C   0  0  2  0  0  0  0  0  0  0  0  0
  195.5910  174.0430  135.9320 C   0  0  2  0  0  0  0  0  0  0  0  0
  197.5240  175.6980  136.5480 C   0  0  0  0  0  1  0  0  0  0  0  0
  195.6160  173.1100  134.7620 C   0  0  1  0  0  3  0  0  0  0  0  0
  197.7210  173.3050  137.3180 C   0  0  1  0  0  3  0  0  0  0  0  0
  195.3700  169.9530  136.6290 O   0  0  0  0  0  1  0  0  0  0  0  0
  196.2860  170.0600  135.5730 C   0  0  0  0  0  2  0  0  0  0  0  0
  2  3  2  0  0  0  0
  2  6  1  0  0  0  0
  3  5  1  0  0  0  0
  4  1  1  0  0  0  0
  5  7  1  0  0  0  0
  5  1  2  0  0  0  0
  6  4  2  0  0  0  0
  7  8  1  0  0  0  0
  9 13  1  0  0  0  0
 10 13  2  0  0  0  0
 11 16  1  1  0  0  0
 12 11  1  0  0  0  0
 13 12  1  0  0  0  0
 14  9  1  1  0  0  0
 14 11  1  0  0  0  0
 14 17  1  0  0  0  0
 15 24  1  1  0  0  0
 16 15  1  0  0  0  0
 17 18  1  0  0  0  0
 18  8  1  6  0  0  0
 18 15  1  0  0  0  0
 19 23  1  0  0  0  0
 20 25  1  0  0  0  0
 21 22  2  0  0  0  0
 22 20  1  0  0  0  0
 23 20  2  0  0  0  0
 24 19  2  0  0  0  0
 24 21  1  0  0  0  0
 25 26  2  0  0  0  0
 25 27  1  0  0  0  0
 28 17  1  0  0  0  0
 28 29  1  1  0  0  0
 30 32  2  0  0  0  0
 31 32  1  0  0  0  0
 32 28  1  0  0  0  0
 33  2  1  0  0  0  0
 34 33  1  0  0  0  0
 34 35  1  0  0  0  0
 35 36  1  0  0  0  0
 36 37  1  0  0  0  0
 38 39  2  0  0  0  0
 39 40  1  0  0  0  0
 40 37  1  0  0  0  0
 41 46  2  0  0  0  0
 41 48  2  0  0  0  0
 42 45  1  6  0  0  0
 42 53  1  0  0  0  0
 43 51  1  6  0  0  0
 43 53  1  0  0  0  0
 43 41  1  0  0  0  0
 44 52  1  0  0  0  0
 44 50  1  0  0  0  0
 47 49  1  0  0  0  0
 49 55  1  6  0  0  0
 49 45  1  0  0  0  0
 49 42  1  0  0  0  0
 50 39  1  1  0  0  0
 50 43  1  0  0  0  0
 52 47  1  1  0  0  0
 52 50  1  0  0  0  0
 53 41  1  1  0  0  0
 55 54  1  0  0  0  0
M  END
>  <MODEL>
4

>  <REMARK>
 VINA RESULT:      -5.7      3.353     11.683
  Name = 
  15 active torsions:
  status: ('A' for Active; 'I' for Inactive)
    1  A    between atoms: C_2  and  C_28
    2  A    between atoms: C_2  and  C_44
    3  A    between atoms: C_8  and  N_22
    4  A    between atoms: C_8  and  C_35
    5  A    between atoms: C_10  and  C_32
    6  A    between atoms: C_19  and  C_40
    7  A    between atoms: C_19  and  N_45
    8  A    between atoms: C_20  and  C_42
    9  A    between atoms: C_25  and  C_38
   10  A    between atoms: C_27  and  C_54
   11  A    between atoms: C_28  and  C_49
   12  A    between atoms: C_33  and  C_52
   13  A    between atoms: C_35  and  C_43
   14  A    between atoms: C_43  and  C_51
   15  A    between atoms: C_51  and  C_54
                            x       y       z     vdW  Elec       q    Type
                         _______ _______ _______ _____ _____    ______ ____

>  <TORSDO>
F 15

$$$$
=
 OpenBabel10262420353D

 55 62  0  0  1  0  0  0  0  0999 V2000
  186.6290  177.8130  145.4620 C   0  0  0  0  0  3  0  0  0  0  0  0
  184.0820  178.8620  144.9610 C   0  0  0  0  0  0  0  0  0  0  0  0
  184.8580  178.3640  143.9080 C   0  0  0  0  0  3  0  0  0  0  0  0
  185.8600  178.3140  146.5120 C   0  0  0  0  0  3  0  0  0  0  0  0
  186.1320  177.8270  144.1560 C   0  0  0  0  0  0  0  0  0  0  0  0
  184.5870  178.8360  146.2610 C   0  0  0  0  0  3  0  0  0  0  0  0
  187.0220  177.3650  143.0450 C   0  0  0  0  0  2  0  0  0  0  0  0
  187.9870  176.2760  143.4810 C   0  0  0  0  0  2  0  0  0  0  0  0
  191.6620  178.4840  144.8020 C   0  0  0  0  0  2  0  0  0  0  0  0
  192.5900  180.7080  144.7230 O   0  0  0  0  0  0  0  0  0  0  0  0
  189.7750  179.1420  143.3480 C   0  0  2  0  0  3  0  0  0  0  0  0
  190.6220  180.2500  143.5910 O   0  0  0  0  0  0  0  0  0  0  0  0
  191.6840  179.8990  144.3950 C   0  0  0  0  0  0  0  0  0  0  0  0
  190.3080  178.0000  144.2640 C   0  0  1  0  0  3  0  0  0  0  0  0
  189.0970  177.4720  141.5940 C   0  0  2  0  0  3  0  0  0  0  0  0
  189.8640  178.7650  141.8690 C   0  0  0  0  0  2  0  0  0  0  0  0
  190.4550  176.7170  143.5370 N   0  0  0  0  0  0  0  0  0  0  0  0
  189.2850  176.4130  142.6890 C   0  0  1  0  0  3  0  0  0  0  0  0
  190.7320  176.4550  140.0000 C   0  0  0  0  0  3  0  0  0  0  0  0
  190.1250  175.9100  137.7100 C   0  0  0  0  0  0  0  0  0  0  0  0
  188.4770  176.8770  139.2170 C   0  0  0  0  0  3  0  0  0  0  0  0
  188.8220  176.3740  137.9580 C   0  0  0  0  0  3  0  0  0  0  0  0
  191.0760  175.9540  138.7400 C   0  0  0  0  0  3  0  0  0  0  0  0
  189.4310  176.9170  140.2450 C   0  0  0  0  0  0  0  0  0  0  0  0
  190.4920  175.3820  136.3860 C   0  0  0  0  0  0  0  0  0  0  0  0
  190.4960  174.1370  136.1730 O   0  0  0  0  0  1  0  0  0  0  0  0
  190.8350  176.2510  135.3520 O   0  0  0  0  0  0  0  0  0  0  0  0
  190.7940  175.5530  144.3840 C   0  0  1  0  0  3  0  0  0  0  0  0
  192.0500  174.8570  143.8870 C   0  0  0  0  0  1  0  0  0  0  0  0
  189.8380  176.2730  146.4270 O   0  0  0  0  0  0  0  0  0  0  0  0
  192.0550  175.5550  146.6910 C   0  0  0  0  0  1  0  0  0  0  0  0
  190.8290  175.8170  145.8750 C   0  0  0  0  0  0  0  0  0  0  0  0
  182.7000  179.3790  144.7150 C   0  0  0  0  0  2  0  0  0  0  0  0
  182.0530  178.7390  143.4930 C   0  0  0  0  0  2  0  0  0  0  0  0
  180.5430  178.7700  143.6500 C   0  0  0  0  0  2  0  0  0  0  0  0
  179.9010  179.6200  142.5560 C   0  0  0  0  0  2  0  0  0  0  0  0
  179.2270  178.7480  141.5020 C   0  0  0  0  0  2  0  0  0  0  0  0
  180.7700  176.7230  140.2150 O   0  0  0  0  0  0  0  0  0  0  0  0
  180.7330  177.8630  139.6780 C   0  0  0  0  0  0  0  0  0  0  0  0
  179.9150  178.8930  140.2290 N   0  0  0  0  0  2  0  0  0  0  0  0
  183.7900  178.7320  140.1630 S   0  0  0  0  0  0  0  0  0  0  0  0
  184.4420  177.1870  138.0040 C   0  0  2  0  0  3  0  0  0  0  0  0
  182.8150  179.0910  138.6860 C   0  0  1  0  0  0  0  0  0  0  0  0
  180.7910  178.6350  137.4300 O   0  0  0  0  0  0  0  0  0  0  0  0
  185.0580  177.1980  136.6030 C   0  0  0  0  0  2  0  0  0  0  0  0
  183.8080  177.3530  140.7660 O   0  0  0  0  0  0  0  0  0  0  0  0
  182.5200  177.4630  136.2680 C   0  0  0  0  0  2  0  0  0  0  0  0
  184.6920  179.7490  140.8070 O   0  0  0  0  0  0  0  0  0  0  0  0
  183.6770  176.6350  136.8060 C   0  0  2  0  0  0  0  0  0  0  0  0
  181.5960  178.1590  138.4920 C   0  0  2  0  0  0  0  0  0  0  0  0
  182.5810  180.5850  138.5360 C   0  0  0  0  0  1  0  0  0  0  0  0
  181.3590  177.3640  137.2460 C   0  0  1  0  0  3  0  0  0  0  0  0
  184.1940  178.6520  138.3900 C   0  0  1  0  0  3  0  0  0  0  0  0
  183.7820  174.5530  137.9880 O   0  0  0  0  0  1  0  0  0  0  0  0
  183.6140  175.1170  136.7160 C   0  0  0  0  0  2  0  0  0  0  0  0
  1  4  1  0  0  0  0
  2  6  1  0  0  0  0
  3  5  1  0  0  0  0
  3  2  2  0  0  0  0
  5  1  2  0  0  0  0
  6  4  2  0  0  0  0
  7  8  1  0  0  0  0
  7  5  1  0  0  0  0
 11 16  1  6  0  0  0
 11 12  1  0  0  0  0
 11 14  1  0  0  0  0
 12 13  1  0  0  0  0
 13 10  2  0  0  0  0
 13  9  1  0  0  0  0
 14  9  1  6  0  0  0
 15 24  1  6  0  0  0
 15 16  1  0  0  0  0
 15 18  1  0  0  0  0
 17 14  1  0  0  0  0
 17 28  1  0  0  0  0
 18  8  1  1  0  0  0
 18 17  1  0  0  0  0
 19 24  1  0  0  0  0
 20 22  2  0  0  0  0
 20 23  1  0  0  0  0
 21 24  2  0  0  0  0
 22 21  1  0  0  0  0
 23 19  2  0  0  0  0
 25 20  1  0  0  0  0
 26 25  1  0  0  0  0
 27 25  2  0  0  0  0
 28 29  1  6  0  0  0
 28 32  1  0  0  0  0
 32 30  2  0  0  0  0
 32 31  1  0  0  0  0
 33  2  1  0  0  0  0
 34 35  1  0  0  0  0
 34 33  1  0  0  0  0
 36 35  1  0  0  0  0
 37 36  1  0  0  0  0
 39 38  2  0  0  0  0
 39 40  1  0  0  0  0
 40 37  1  0  0  0  0
 41 46  2  0  0  0  0
 41 48  2  0  0  0  0
 42 45  1  6  0  0  0
 42 53  1  0  0  0  0
 43 51  1  6  0  0  0
 43 41  1  0  0  0  0
 44 50  1  0  0  0  0
 45 49  1  0  0  0  0
 47 49  1  0  0  0  0
 49 55  1  6  0  0  0
 49 42  1  0  0  0  0
 50 43  1  0  0  0  0
 50 39  1  1  0  0  0
 52 47  1  6  0  0  0
 52 44  1  0  0  0  0
 52 50  1  0  0  0  0
 53 43  1  0  0  0  0
 53 41  1  1  0  0  0
 55 54  1  0  0  0  0
M  END
>  <MODEL>
5

>  <REMARK>
 VINA RESULT:      -5.3      2.873      6.223
  Name = 
  15 active torsions:
  status: ('A' for Active; 'I' for Inactive)
    1  A    between atoms: C_2  and  C_28
    2  A    between atoms: C_2  and  C_44
    3  A    between atoms: C_8  and  N_22
    4  A    between atoms: C_8  and  C_35
    5  A    between atoms: C_10  and  C_32
    6  A    between atoms: C_19  and  C_40
    7  A    between atoms: C_19  and  N_45
    8  A    between atoms: C_20  and  C_42
    9  A    between atoms: C_25  and  C_38
   10  A    between atoms: C_27  and  C_54
   11  A    between atoms: C_28  and  C_49
   12  A    between atoms: C_33  and  C_52
   13  A    between atoms: C_35  and  C_43
   14  A    between atoms: C_43  and  C_51
   15  A    between atoms: C_51  and  C_54
                            x       y       z     vdW  Elec       q    Type
                         _______ _______ _______ _____ _____    ______ ____

>  <TORSDO>
F 15

$$$$
=
 OpenBabel10262420353D

 55 62  0  0  1  0  0  0  0  0999 V2000
  191.6800  176.5930  142.1090 C   0  0  0  0  0  3  0  0  0  0  0  0
  190.4540  177.4110  139.7290 C   0  0  0  0  0  0  0  0  0  0  0  0
  189.7400  176.6550  140.6650 C   0  0  0  0  0  3  0  0  0  0  0  0
  192.3960  177.3410  141.1760 C   0  0  0  0  0  3  0  0  0  0  0  0
  190.3470  176.2520  141.8660 C   0  0  0  0  0  0  0  0  0  0  0  0
  191.7830  177.7510  139.9880 C   0  0  0  0  0  3  0  0  0  0  0  0
  189.6410  175.3710  142.8480 C   0  0  0  0  0  2  0  0  0  0  0  0
  189.7030  175.9090  144.2680 C   0  0  0  0  0  2  0  0  0  0  0  0
  189.1470  178.4500  147.9230 C   0  0  0  0  0  2  0  0  0  0  0  0
  187.6700  178.6320  149.8200 O   0  0  0  0  0  0  0  0  0  0  0  0
  187.7320  176.7030  146.8980 C   0  0  2  0  0  3  0  0  0  0  0  0
  187.1920  177.1090  148.1420 O   0  0  0  0  0  0  0  0  0  0  0  0
  187.9650  178.0890  148.7250 C   0  0  0  0  0  0  0  0  0  0  0  0
  189.1110  177.4190  146.7870 C   0  0  1  0  0  3  0  0  0  0  0  0
  187.4030  176.8660  144.4100 C   0  0  2  0  0  3  0  0  0  0  0  0
  186.7820  177.1340  145.7810 C   0  0  0  0  0  2  0  0  0  0  0  0
  189.3030  178.0730  145.4720 N   0  0  0  0  0  0  0  0  0  0  0  0
  188.8990  177.2050  144.3470 C   0  0  1  0  0  3  0  0  0  0  0  0
  185.2730  177.7900  143.4850 C   0  0  0  0  0  3  0  0  0  0  0  0
  185.1690  178.8240  141.2870 C   0  0  0  0  0  0  0  0  0  0  0  0
  187.2800  177.9660  142.1380 C   0  0  0  0  0  3  0  0  0  0  0  0
  186.5460  178.5950  141.1270 C   0  0  0  0  0  3  0  0  0  0  0  0
  184.5380  178.4180  142.4720 C   0  0  0  0  0  3  0  0  0  0  0  0
  186.6470  177.5630  143.3230 C   0  0  0  0  0  0  0  0  0  0  0  0
  184.3910  179.4840  140.2250 C   0  0  0  0  0  0  0  0  0  0  0  0
  184.9300  179.7670  139.1190 O   0  0  0  0  0  0  0  0  0  0  0  0
  183.0490  179.7980  140.4290 O   0  0  0  0  0  1  0  0  0  0  0  0
  190.6550  178.6240  145.2370 C   0  0  1  0  0  3  0  0  0  0  0  0
  191.7270  177.5730  145.4730 C   0  0  0  0  0  1  0  0  0  0  0  0
  191.9540  179.7700  143.6230 O   0  0  0  0  0  0  0  0  0  0  0  0
  189.6980  179.6190  143.0000 C   0  0  0  0  0  1  0  0  0  0  0  0
  190.8430  179.3600  143.9270 C   0  0  0  0  0  0  0  0  0  0  0  0
  189.7980  177.8980  138.4770 C   0  0  0  0  0  2  0  0  0  0  0  0
  188.4360  177.2520  138.2490 C   0  0  0  0  0  2  0  0  0  0  0  0
  187.5090  178.2560  137.5870 C   0  0  0  0  0  2  0  0  0  0  0  0
  186.4910  177.5480  136.6960 C   0  0  0  0  0  2  0  0  0  0  0  0
  185.6770  176.5310  137.4880 C   0  0  0  0  0  2  0  0  0  0  0  0
  183.5900  174.9980  136.2910 O   0  0  0  0  0  0  0  0  0  0  0  0
  183.2880  176.1190  136.7790 C   0  0  0  0  0  0  0  0  0  0  0  0
  184.2700  176.8970  137.4620 N   0  0  0  0  0  2  0  0  0  0  0  0
  181.1610  175.8340  139.1730 S   0  0  0  0  0  0  0  0  0  0  0  0
  180.3200  178.3630  138.5620 C   0  0  2  0  0  3  0  0  0  0  0  0
  180.7570  176.0680  137.4290 C   0  0  1  0  0  0  0  0  0  0  0  0
  181.5720  176.6340  135.2160 O   0  0  0  0  0  0  0  0  0  0  0  0
  179.1250  179.2030  138.1070 C   0  0  0  0  0  2  0  0  0  0  0  0
  182.2080  176.6780  139.8490 O   0  0  0  0  0  0  0  0  0  0  0  0
  180.4170  178.5860  135.9690 C   0  0  0  0  0  2  0  0  0  0  0  0
  180.4230  174.8630  140.0530 O   0  0  0  0  0  0  0  0  0  0  0  0
  180.4140  179.2590  137.3330 C   0  0  2  0  0  0  0  0  0  0  0  0
  181.9090  176.6690  136.5900 C   0  0  2  0  0  0  0  0  0  0  0  0
  180.0460  174.8500  136.8650 C   0  0  0  0  0  1  0  0  0  0  0  0
  181.7650  177.9100  135.7670 C   0  0  1  0  0  3  0  0  0  0  0  0
  179.9370  176.8920  138.3400 C   0  0  1  0  0  3  0  0  0  0  0  0
  180.8860  181.4560  136.4990 O   0  0  0  0  0  1  0  0  0  0  0  0
  181.1910  180.5530  137.5270 C   0  0  0  0  0  2  0  0  0  0  0  0
  2  6  2  0  0  0  0
  2  3  1  0  0  0  0
  3  5  2  0  0  0  0
  4  1  2  0  0  0  0
  5  1  1  0  0  0  0
  5  7  1  0  0  0  0
  6  4  1  0  0  0  0
  7  8  1  0  0  0  0
  9 13  1  0  0  0  0
 11 16  1  6  0  0  0
 11 12  1  0  0  0  0
 12 13  1  0  0  0  0
 13 10  2  0  0  0  0
 14 11  1  0  0  0  0
 14  9  1  1  0  0  0
 15 24  1  6  0  0  0
 15 16  1  0  0  0  0
 17 14  1  0  0  0  0
 18  8  1  1  0  0  0
 18 15  1  0  0  0  0
 18 17  1  0  0  0  0
 20 23  1  0  0  0  0
 21 24  2  0  0  0  0
 22 20  2  0  0  0  0
 22 21  1  0  0  0  0
 23 19  2  0  0  0  0
 24 19  1  0  0  0  0
 25 27  1  0  0  0  0
 25 20  1  0  0  0  0
 26 25  2  0  0  0  0
 28 17  1  0  0  0  0
 28 29  1  6  0  0  0
 30 32  2  0  0  0  0
 31 32  1  0  0  0  0
 32 28  1  0  0  0  0
 33  2  1  0  0  0  0
 34 33  1  0  0  0  0
 35 34  1  0  0  0  0
 36 37  1  0  0  0  0
 36 35  1  0  0  0  0
 38 39  2  0  0  0  0
 39 40  1  0  0  0  0
 40 37  1  0  0  0  0
 41 46  2  0  0  0  0
 41 48  2  0  0  0  0
 42 45  1  1  0  0  0
 43 51  1  6  0  0  0
 43 53  1  0  0  0  0
 43 41  1  0  0  0  0
 44 52  1  0  0  0  0
 44 50  1  0  0  0  0
 47 49  1  0  0  0  0
 49 55  1  1  0  0  0
 49 45  1  0  0  0  0
 49 42  1  0  0  0  0
 50 39  1  1  0  0  0
 50 43  1  0  0  0  0
 52 47  1  1  0  0  0
 52 50  1  0  0  0  0
 53 42  1  0  0  0  0
 53 41  1  1  0  0  0
 54 55  1  0  0  0  0
M  END
>  <MODEL>
6

>  <REMARK>
 VINA RESULT:      -5.2      3.562      8.183
  Name = 
  15 active torsions:
  status: ('A' for Active; 'I' for Inactive)
    1  A    between atoms: C_2  and  C_28
    2  A    between atoms: C_2  and  C_44
    3  A    between atoms: C_8  and  N_22
    4  A    between atoms: C_8  and  C_35
    5  A    between atoms: C_10  and  C_32
    6  A    between atoms: C_19  and  C_40
    7  A    between atoms: C_19  and  N_45
    8  A    between atoms: C_20  and  C_42
    9  A    between atoms: C_25  and  C_38
   10  A    between atoms: C_27  and  C_54
   11  A    between atoms: C_28  and  C_49
   12  A    between atoms: C_33  and  C_52
   13  A    between atoms: C_35  and  C_43
   14  A    between atoms: C_43  and  C_51
   15  A    between atoms: C_51  and  C_54
                            x       y       z     vdW  Elec       q    Type
                         _______ _______ _______ _____ _____    ______ ____

>  <TORSDO>
F 15

$$$$
=
 OpenBabel10262420353D

 55 62  0  0  1  0  0  0  0  0999 V2000
  184.7740  179.5170  143.4740 C   0  0  0  0  0  3  0  0  0  0  0  0
  182.5060  178.6190  142.0990 C   0  0  0  0  0  0  0  0  0  0  0  0
  183.7360  178.7210  141.4390 C   0  0  0  0  0  3  0  0  0  0  0  0
  183.5480  179.4210  144.1330 C   0  0  0  0  0  3  0  0  0  0  0  0
  184.8790  179.1600  142.1270 C   0  0  0  0  0  0  0  0  0  0  0  0
  182.4170  178.9710  143.4460 C   0  0  0  0  0  3  0  0  0  0  0  0
  186.1880  179.3630  141.4320 C   0  0  0  0  0  2  0  0  0  0  0  0
  187.3720  179.3040  142.3820 C   0  0  0  0  0  2  0  0  0  0  0  0
  189.7940  177.1340  145.4720 C   0  0  0  0  0  2  0  0  0  0  0  0
  192.0500  177.0740  146.3220 O   0  0  0  0  0  0  0  0  0  0  0  0
  190.4410  178.6880  143.6630 C   0  0  2  0  0  3  0  0  0  0  0  0
  191.5580  178.3860  144.4780 O   0  0  0  0  0  0  0  0  0  0  0  0
  191.2170  177.5140  145.4880 C   0  0  0  0  0  0  0  0  0  0  0  0
  189.2160  178.0370  144.3740 C   0  0  1  0  0  3  0  0  0  0  0  0
  189.4140  178.2490  141.4100 C   0  0  2  0  0  3  0  0  0  0  0  0
  190.6650  178.0930  142.2730 C   0  0  0  0  0  2  0  0  0  0  0  0
  188.3690  177.2600  143.4400 N   0  0  0  0  0  0  0  0  0  0  0  0
  188.1110  177.9840  142.1790 C   0  0  1  0  0  3  0  0  0  0  0  0
  190.7000  176.7640  139.8650 C   0  0  0  0  0  3  0  0  0  0  0  0
  189.7080  175.8440  137.8450 C   0  0  0  0  0  0  0  0  0  0  0  0
  188.3920  177.2640  139.3180 C   0  0  0  0  0  3  0  0  0  0  0  0
  188.4990  176.4860  138.1600 C   0  0  0  0  0  3  0  0  0  0  0  0
  190.8070  175.9880  138.7050 C   0  0  0  0  0  3  0  0  0  0  0  0
  189.4920  177.4040  140.1780 C   0  0  0  0  0  0  0  0  0  0  0  0
  189.8260  175.0260  136.6260 C   0  0  0  0  0  0  0  0  0  0  0  0
  190.6410  174.0630  136.5790 O   0  0  0  0  0  1  0  0  0  0  0  0
  189.0330  175.3030  135.5140 O   0  0  0  0  0  0  0  0  0  0  0  0
  187.1010  176.7590  144.0140 C   0  0  1  0  0  3  0  0  0  0  0  0
  186.9750  175.2540  143.8400 C   0  0  0  0  0  1  0  0  0  0  0  0
  186.7970  176.3800  146.3310 O   0  0  0  0  0  0  0  0  0  0  0  0
  186.4910  178.6320  145.7540 C   0  0  0  0  0  1  0  0  0  0  0  0
  186.8030  177.2060  145.4290 C   0  0  0  0  0  0  0  0  0  0  0  0
  181.2990  178.0930  141.3910 C   0  0  0  0  0  2  0  0  0  0  0  0
  180.9530  178.9110  140.1520 C   0  0  0  0  0  2  0  0  0  0  0  0
  179.9670  178.1340  139.2970 C   0  0  0  0  0  2  0  0  0  0  0  0
  179.8210  178.7760  137.9190 C   0  0  0  0  0  2  0  0  0  0  0  0
  179.1990  177.8060  136.9210 C   0  0  0  0  0  2  0  0  0  0  0  0
  180.0330  175.1390  137.4940 O   0  0  0  0  0  0  0  0  0  0  0  0
  180.6650  175.7740  136.6080 C   0  0  0  0  0  0  0  0  0  0  0  0
  180.2470  177.0810  136.2200 N   0  0  0  0  0  2  0  0  0  0  0  0
  183.5150  176.4130  137.9530 S   0  0  0  0  0  0  0  0  0  0  0  0
  184.1890  173.8080  137.4700 C   0  0  2  0  0  3  0  0  0  0  0  0
  183.2500  175.8950  136.2440 C   0  0  1  0  0  0  0  0  0  0  0  0
  181.6970  174.9900  134.6150 O   0  0  0  0  0  0  0  0  0  0  0  0
  185.1670  172.8890  136.7340 C   0  0  0  0  0  2  0  0  0  0  0  0
  182.8370  175.7040  139.0940 O   0  0  0  0  0  0  0  0  0  0  0  0
  183.1430  173.1700  135.1710 C   0  0  0  0  0  2  0  0  0  0  0  0
  184.4810  177.5030  138.3290 O   0  0  0  0  0  0  0  0  0  0  0  0
  183.6860  172.7260  136.5200 C   0  0  2  0  0  0  0  0  0  0  0  0
  181.8990  175.1820  136.0020 C   0  0  2  0  0  0  0  0  0  0  0  0
  183.6400  176.9960  135.2720 C   0  0  0  0  0  1  0  0  0  0  0  0
  181.7850  173.8220  135.3880 C   0  0  1  0  0  3  0  0  0  0  0  0
  184.3900  175.2170  136.8950 C   0  0  1  0  0  3  0  0  0  0  0  0
  183.5660  170.3330  136.5510 O   0  0  0  0  0  1  0  0  0  0  0  0
  183.1010  171.4910  137.1900 C   0  0  0  0  0  2  0  0  0  0  0  0
  1  4  1  0  0  0  0
  2  6  1  0  0  0  0
  3  2  2  0  0  0  0
  3  5  1  0  0  0  0
  5  1  2  0  0  0  0
  6  4  2  0  0  0  0
  7  5  1  0  0  0  0
  7  8  1  0  0  0  0
  9 13  1  0  0  0  0
 11 16  1  6  0  0  0
 11 14  1  0  0  0  0
 11 12  1  0  0  0  0
 12 13  1  0  0  0  0
 13 10  2  0  0  0  0
 14  9  1  1  0  0  0
 15 24  1  6  0  0  0
 15 18  1  0  0  0  0
 15 16  1  0  0  0  0
 17 28  1  0  0  0  0
 17 14  1  0  0  0  0
 18  8  1  1  0  0  0
 18 17  1  0  0  0  0
 19 24  1  0  0  0  0
 20 22  2  0  0  0  0
 20 23  1  0  0  0  0
 21 24  2  0  0  0  0
 22 21  1  0  0  0  0
 23 19  2  0  0  0  0
 25 20  1  0  0  0  0
 26 25  1  0  0  0  0
 27 25  2  0  0  0  0
 28 29  1  1  0  0  0
 28 32  1  0  0  0  0
 32 31  1  0  0  0  0
 32 30  2  0  0  0  0
 33  2  1  0  0  0  0
 34 33  1  0  0  0  0
 35 34  1  0  0  0  0
 36 35  1  0  0  0  0
 37 36  1  0  0  0  0
 39 38  2  0  0  0  0
 40 39  1  0  0  0  0
 40 37  1  0  0  0  0
 41 48  2  0  0  0  0
 41 46  2  0  0  0  0
 42 45  1  6  0  0  0
 43 51  1  6  0  0  0
 43 53  1  0  0  0  0
 43 41  1  0  0  0  0
 44 52  1  0  0  0  0
 44 50  1  0  0  0  0
 47 49  1  0  0  0  0
 49 45  1  0  0  0  0
 49 55  1  1  0  0  0
 49 42  1  0  0  0  0
 50 43  1  0  0  0  0
 50 39  1  1  0  0  0
 52 47  1  6  0  0  0
 52 50  1  0  0  0  0
 53 42  1  0  0  0  0
 53 41  1  1  0  0  0
 54 55  1  0  0  0  0
M  END
>  <MODEL>
7

>  <REMARK>
 VINA RESULT:      -5.1      3.143      6.952
  Name = 
  15 active torsions:
  status: ('A' for Active; 'I' for Inactive)
    1  A    between atoms: C_2  and  C_28
    2  A    between atoms: C_2  and  C_44
    3  A    between atoms: C_8  and  N_22
    4  A    between atoms: C_8  and  C_35
    5  A    between atoms: C_10  and  C_32
    6  A    between atoms: C_19  and  C_40
    7  A    between atoms: C_19  and  N_45
    8  A    between atoms: C_20  and  C_42
    9  A    between atoms: C_25  and  C_38
   10  A    between atoms: C_27  and  C_54
   11  A    between atoms: C_28  and  C_49
   12  A    between atoms: C_33  and  C_52
   13  A    between atoms: C_35  and  C_43
   14  A    between atoms: C_43  and  C_51
   15  A    between atoms: C_51  and  C_54
                            x       y       z     vdW  Elec       q    Type
                         _______ _______ _______ _____ _____    ______ ____

>  <TORSDO>
F 15

$$$$
=
 OpenBabel10262420353D

 55 62  0  0  1  0  0  0  0  0999 V2000
  186.6650  177.0400  136.4510 C   0  0  0  0  0  3  0  0  0  0  0  0
  189.3320  176.3090  136.0140 C   0  0  0  0  0  0  0  0  0  0  0  0
  188.2950  175.5610  135.4460 C   0  0  0  0  0  3  0  0  0  0  0  0
  187.6970  177.7840  137.0230 C   0  0  0  0  0  3  0  0  0  0  0  0
  186.9560  175.9300  135.6530 C   0  0  0  0  0  0  0  0  0  0  0  0
  189.0290  177.4200  136.8030 C   0  0  0  0  0  3  0  0  0  0  0  0
  185.8210  175.1050  135.1320 C   0  0  0  0  0  2  0  0  0  0  0  0
  184.4810  175.8110  135.2470 C   0  0  0  0  0  2  0  0  0  0  0  0
  181.3350  172.6980  135.9800 C   0  0  0  0  0  2  0  0  0  0  0  0
  178.9340  172.4830  135.9720 O   0  0  0  0  0  0  0  0  0  0  0  0
  181.1890  175.1400  135.6330 C   0  0  2  0  0  3  0  0  0  0  0  0
  179.8950  174.5690  135.6690 O   0  0  0  0  0  0  0  0  0  0  0  0
  179.9570  173.2070  135.8700 C   0  0  0  0  0  0  0  0  0  0  0  0
  182.1790  173.9370  135.6510 C   0  0  1  0  0  3  0  0  0  0  0  0
  182.8090  176.5420  136.9500 C   0  0  2  0  0  3  0  0  0  0  0  0
  181.3710  176.0360  136.8580 C   0  0  0  0  0  2  0  0  0  0  0  0
  183.2670  174.1160  136.6410 N   0  0  0  0  0  0  0  0  0  0  0  0
  183.8520  175.4710  136.5960 C   0  0  1  0  0  3  0  0  0  0  0  0
  184.3450  177.7280  138.5260 C   0  0  0  0  0  3  0  0  0  0  0  0
  183.6910  178.2470  140.8090 C   0  0  0  0  0  0  0  0  0  0  0  0
  182.1390  177.1120  139.3190 C   0  0  0  0  0  3  0  0  0  0  0  0
  182.4360  177.6620  140.5710 C   0  0  0  0  0  3  0  0  0  0  0  0
  184.6420  178.2770  139.7790 C   0  0  0  0  0  3  0  0  0  0  0  0
  183.0910  177.1450  138.2900 C   0  0  0  0  0  0  0  0  0  0  0  0
  184.0090  178.8260  142.1250 C   0  0  0  0  0  0  0  0  0  0  0  0
  183.3590  178.4810  143.1500 O   0  0  0  0  0  1  0  0  0  0  0  0
  185.0380  179.7590  142.2520 O   0  0  0  0  0  0  0  0  0  0  0  0
  184.3330  173.0930  136.5910 C   0  0  1  0  0  3  0  0  0  0  0  0
  185.2380  173.1800  137.8090 C   0  0  0  0  0  1  0  0  0  0  0  0
  183.2770  171.0590  137.1840 O   0  0  0  0  0  0  0  0  0  0  0  0
  184.1400  171.0070  135.0040 C   0  0  0  0  0  1  0  0  0  0  0  0
  183.8700  171.6790  136.3130 C   0  0  0  0  0  0  0  0  0  0  0  0
  190.7620  175.9600  135.7470 C   0  0  0  0  0  2  0  0  0  0  0  0
  191.4610  175.4040  136.9810 C   0  0  0  0  0  2  0  0  0  0  0  0
  192.7030  176.2300  137.2690 C   0  0  0  0  0  2  0  0  0  0  0  0
  192.4960  177.1120  138.4980 C   0  0  0  0  0  2  0  0  0  0  0  0
  191.3970  176.5560  139.3990 C   0  0  0  0  0  2  0  0  0  0  0  0
  190.6210  175.5620  141.9570 O   0  0  0  0  0  0  0  0  0  0  0  0
  190.8470  176.7980  141.8510 C   0  0  0  0  0  0  0  0  0  0  0  0
  191.3160  177.3420  140.6190 N   0  0  0  0  0  2  0  0  0  0  0  0
  187.9230  176.7530  143.1850 S   0  0  0  0  0  0  0  0  0  0  0  0
  189.1600  176.9960  145.6110 C   0  0  2  0  0  3  0  0  0  0  0  0
  189.0980  178.1210  143.2720 C   0  0  1  0  0  0  0  0  0  0  0  0
  191.3760  178.8650  142.9000 O   0  0  0  0  0  0  0  0  0  0  0  0
  189.3000  177.8740  146.8560 C   0  0  0  0  0  2  0  0  0  0  0  0
  188.3560  175.3380  143.4520 O   0  0  0  0  0  0  0  0  0  0  0  0
  191.1940  178.5860  145.2660 C   0  0  0  0  0  2  0  0  0  0  0  0
  186.4530  176.9610  142.9360 O   0  0  0  0  0  0  0  0  0  0  0  0
  190.5270  177.4850  146.0760 C   0  0  2  0  0  0  0  0  0  0  0  0
  190.5650  177.7100  143.0030 C   0  0  2  0  0  0  0  0  0  0  0  0
  188.5710  179.3420  142.5380 C   0  0  0  0  0  1  0  0  0  0  0  0
  191.6850  177.9920  143.9550 C   0  0  1  0  0  3  0  0  0  0  0  0
  188.4270  177.8380  144.5570 C   0  0  1  0  0  3  0  0  0  0  0  0
  191.6650  175.3850  145.8920 O   0  0  0  0  0  1  0  0  0  0  0  0
  191.3910  176.4420  146.7700 C   0  0  0  0  0  2  0  0  0  0  0  0
  1  4  1  0  0  0  0
  2  6  1  0  0  0  0
  3  5  1  0  0  0  0
  3  2  2  0  0  0  0
  5  1  2  0  0  0  0
  6  4  2  0  0  0  0
  7  8  1  0  0  0  0
  7  5  1  0  0  0  0
 11 14  1  0  0  0  0
 11 12  1  0  0  0  0
 11 16  1  1  0  0  0
 12 13  1  0  0  0  0
 13 10  2  0  0  0  0
 13  9  1  0  0  0  0
 14  9  1  1  0  0  0
 14 17  1  0  0  0  0
 15 24  1  1  0  0  0
 16 15  1  0  0  0  0
 18  8  1  6  0  0  0
 18 17  1  0  0  0  0
 18 15  1  0  0  0  0
 19 23  1  0  0  0  0
 20 25  1  0  0  0  0
 21 22  2  0  0  0  0
 22 20  1  0  0  0  0
 23 20  2  0  0  0  0
 24 19  2  0  0  0  0
 24 21  1  0  0  0  0
 25 27  2  0  0  0  0
 25 26  1  0  0  0  0
 28 17  1  0  0  0  0
 28 29  1  1  0  0  0
 31 32  1  0  0  0  0
 32 28  1  0  0  0  0
 32 30  2  0  0  0  0
 33  2  1  0  0  0  0
 33 34  1  0  0  0  0
 34 35  1  0  0  0  0
 35 36  1  0  0  0  0
 36 37  1  0  0  0  0
 37 40  1  0  0  0  0
 39 38  2  0  0  0  0
 40 39  1  0  0  0  0
 41 43  1  0  0  0  0
 41 46  2  0  0  0  0
 42 49  1  0  0  0  0
 42 45  1  1  0  0  0
 43 51  1  6  0  0  0
 43 53  1  0  0  0  0
 44 50  1  0  0  0  0
 44 52  1  0  0  0  0
 47 49  1  0  0  0  0
 48 41  2  0  0  0  0
 49 55  1  1  0  0  0
 49 45  1  0  0  0  0
 50 39  1  6  0  0  0
 50 43  1  0  0  0  0
 50 52  1  0  0  0  0
 52 47  1  1  0  0  0
 53 41  1  6  0  0  0
 53 42  1  0  0  0  0
 54 55  1  0  0  0  0
M  END
>  <MODEL>
8

>  <REMARK>
 VINA RESULT:      -4.9      3.362      9.595
  Name = 
  15 active torsions:
  status: ('A' for Active; 'I' for Inactive)
    1  A    between atoms: C_2  and  C_28
    2  A    between atoms: C_2  and  C_44
    3  A    between atoms: C_8  and  N_22
    4  A    between atoms: C_8  and  C_35
    5  A    between atoms: C_10  and  C_32
    6  A    between atoms: C_19  and  C_40
    7  A    between atoms: C_19  and  N_45
    8  A    between atoms: C_20  and  C_42
    9  A    between atoms: C_25  and  C_38
   10  A    between atoms: C_27  and  C_54
   11  A    between atoms: C_28  and  C_49
   12  A    between atoms: C_33  and  C_52
   13  A    between atoms: C_35  and  C_43
   14  A    between atoms: C_43  and  C_51
   15  A    between atoms: C_51  and  C_54
                            x       y       z     vdW  Elec       q    Type
                         _______ _______ _______ _____ _____    ______ ____

>  <TORSDO>
F 15

$$$$
=
 OpenBabel10262420353D

 55 62  0  0  1  0  0  0  0  0999 V2000
  191.4190  177.0220  140.1340 C   0  0  0  0  0  3  0  0  0  0  0  0
  188.9290  177.1970  138.8660 C   0  0  0  0  0  0  0  0  0  0  0  0
  189.0150  176.7530  140.1900 C   0  0  0  0  0  3  0  0  0  0  0  0
  191.3360  177.4590  138.8120 C   0  0  0  0  0  3  0  0  0  0  0  0
  190.2610  176.6740  140.8350 C   0  0  0  0  0  0  0  0  0  0  0  0
  190.0920  177.5480  138.1800 C   0  0  0  0  0  3  0  0  0  0  0  0
  190.3980  176.1240  142.2190 C   0  0  0  0  0  2  0  0  0  0  0  0
  189.0580  175.9210  142.9060 C   0  0  0  0  0  2  0  0  0  0  0  0
  189.2190  178.4170  146.6300 C   0  0  0  0  0  2  0  0  0  0  0  0
  188.0300  178.6820  148.7100 O   0  0  0  0  0  0  0  0  0  0  0  0
  187.5310  176.8210  145.7860 C   0  0  2  0  0  3  0  0  0  0  0  0
  187.2000  177.2440  147.0950 O   0  0  0  0  0  0  0  0  0  0  0  0
  188.1270  178.1400  147.5790 C   0  0  0  0  0  0  0  0  0  0  0  0
  188.9420  177.4180  145.4980 C   0  0  1  0  0  3  0  0  0  0  0  0
  186.8900  177.0680  143.3660 C   0  0  2  0  0  3  0  0  0  0  0  0
  186.4840  177.3580  144.8110 C   0  0  0  0  0  2  0  0  0  0  0  0
  189.0130  178.0830  144.1760 N   0  0  0  0  0  0  0  0  0  0  0  0
  188.3890  177.2790  143.1060 C   0  0  1  0  0  3  0  0  0  0  0  0
  184.6640  177.8070  142.5040 C   0  0  0  0  0  3  0  0  0  0  0  0
  184.4550  179.2670  140.5710 C   0  0  0  0  0  0  0  0  0  0  0  0
  186.6540  178.6060  141.3740 C   0  0  0  0  0  3  0  0  0  0  0  0
  185.8550  179.3110  140.4680 C   0  0  0  0  0  3  0  0  0  0  0  0
  183.8650  178.5110  141.5960 C   0  0  0  0  0  3  0  0  0  0  0  0
  186.0610  177.8520  142.3990 C   0  0  0  0  0  0  0  0  0  0  0  0
  183.6100  180.0070  139.6190 C   0  0  0  0  0  0  0  0  0  0  0  0
  182.3620  179.8180  139.5910 O   0  0  0  0  0  1  0  0  0  0  0  0
  184.1800  180.9290  138.7420 O   0  0  0  0  0  0  0  0  0  0  0  0
  190.3660  178.5210  143.7680 C   0  0  1  0  0  3  0  0  0  0  0  0
  190.4170  180.0260  143.5580 C   0  0  0  0  0  1  0  0  0  0  0  0
  192.5170  178.6910  144.7410 O   0  0  0  0  0  0  0  0  0  0  0  0
  191.4330  176.6980  145.3320 C   0  0  0  0  0  1  0  0  0  0  0  0
  191.5040  178.0160  144.6290 C   0  0  0  0  0  0  0  0  0  0  0  0
  187.6010  177.3430  138.1930 C   0  0  0  0  0  2  0  0  0  0  0  0
  187.7360  177.5580  136.6900 C   0  0  0  0  0  2  0  0  0  0  0  0
  187.7380  176.2120  135.9890 C   0  0  0  0  0  2  0  0  0  0  0  0
  186.6070  176.1310  134.9660 C   0  0  0  0  0  2  0  0  0  0  0  0
  185.7630  177.4000  134.9740 C   0  0  0  0  0  2  0  0  0  0  0  0
  183.9070  177.6050  137.1310 O   0  0  0  0  0  0  0  0  0  0  0  0
  183.4950  177.1100  136.0480 C   0  0  0  0  0  0  0  0  0  0  0  0
  184.3520  177.0540  134.9090 N   0  0  0  0  0  2  0  0  0  0  0  0
  183.0210  174.1350  137.1710 S   0  0  0  0  0  0  0  0  0  0  0  0
  180.6390  175.0260  138.1740 C   0  0  2  0  0  3  0  0  0  0  0  0
  181.9860  174.9790  135.9550 C   0  0  1  0  0  0  0  0  0  0  0  0
  181.4320  177.0740  134.8680 O   0  0  0  0  0  0  0  0  0  0  0  0
  179.1210  174.8430  138.1280 C   0  0  0  0  0  2  0  0  0  0  0  0
  183.4590  174.8270  138.4320 O   0  0  0  0  0  0  0  0  0  0  0  0
  179.6660  176.7020  136.4340 C   0  0  0  0  0  2  0  0  0  0  0  0
  183.4190  172.6900  137.0330 O   0  0  0  0  0  0  0  0  0  0  0  0
  179.7170  176.2010  137.8690 C   0  0  2  0  0  0  0  0  0  0  0  0
  182.1230  176.5190  135.9710 C   0  0  2  0  0  0  0  0  0  0  0  0
  182.0550  174.2870  134.6040 C   0  0  0  0  0  1  0  0  0  0  0  0
  180.9590  177.4460  136.1360 C   0  0  1  0  0  3  0  0  0  0  0  0
  181.2140  174.2480  136.9810 C   0  0  1  0  0  3  0  0  0  0  0  0
  179.2750  176.4940  140.2060 O   0  0  0  0  0  1  0  0  0  0  0  0
  179.5170  177.1870  139.0110 C   0  0  0  0  0  2  0  0  0  0  0  0
  1  5  1  0  0  0  0
  2  3  1  0  0  0  0
  3  5  2  0  0  0  0
  4  1  2  0  0  0  0
  5  7  1  0  0  0  0
  6  4  1  0  0  0  0
  6  2  2  0  0  0  0
  7  8  1  0  0  0  0
  9 13  1  0  0  0  0
 11 16  1  6  0  0  0
 11 12  1  0  0  0  0
 12 13  1  0  0  0  0
 13 10  2  0  0  0  0
 14 11  1  0  0  0  0
 14  9  1  1  0  0  0
 15 24  1  6  0  0  0
 15 16  1  0  0  0  0
 17 14  1  0  0  0  0
 18  8  1  1  0  0  0
 18 15  1  0  0  0  0
 18 17  1  0  0  0  0
 20 23  1  0  0  0  0
 21 24  2  0  0  0  0
 22 20  2  0  0  0  0
 22 21  1  0  0  0  0
 23 19  2  0  0  0  0
 24 19  1  0  0  0  0
 25 20  1  0  0  0  0
 26 25  1  0  0  0  0
 27 25  2  0  0  0  0
 28 29  1  1  0  0  0
 28 17  1  0  0  0  0
 28 32  1  0  0  0  0
 32 30  2  0  0  0  0
 32 31  1  0  0  0  0
 33  2  1  0  0  0  0
 34 33  1  0  0  0  0
 35 34  1  0  0  0  0
 36 37  1  0  0  0  0
 36 35  1  0  0  0  0
 39 38  2  0  0  0  0
 40 37  1  0  0  0  0
 40 39  1  0  0  0  0
 41 46  2  0  0  0  0
 42 45  1  1  0  0  0
 43 51  1  6  0  0  0
 43 50  1  0  0  0  0
 43 53  1  0  0  0  0
 43 41  1  0  0  0  0
 44 50  1  0  0  0  0
 44 52  1  0  0  0  0
 47 49  1  0  0  0  0
 48 41  2  0  0  0  0
 49 45  1  0  0  0  0
 49 42  1  0  0  0  0
 49 55  1  1  0  0  0
 50 39  1  1  0  0  0
 50 52  1  0  0  0  0
 52 47  1  6  0  0  0
 53 41  1  1  0  0  0
 53 42  1  0  0  0  0
 55 54  1  0  0  0  0
M  END
>  <MODEL>
9

>  <REMARK>
 VINA RESULT:      -4.9      3.552      8.330
  Name = 
  15 active torsions:
  status: ('A' for Active; 'I' for Inactive)
    1  A    between atoms: C_2  and  C_28
    2  A    between atoms: C_2  and  C_44
    3  A    between atoms: C_8  and  N_22
    4  A    between atoms: C_8  and  C_35
    5  A    between atoms: C_10  and  C_32
    6  A    between atoms: C_19  and  C_40
    7  A    between atoms: C_19  and  N_45
    8  A    between atoms: C_20  and  C_42
    9  A    between atoms: C_25  and  C_38
   10  A    between atoms: C_27  and  C_54
   11  A    between atoms: C_28  and  C_49
   12  A    between atoms: C_33  and  C_52
   13  A    between atoms: C_35  and  C_43
   14  A    between atoms: C_43  and  C_51
   15  A    between atoms: C_51  and  C_54
                            x       y       z     vdW  Elec       q    Type
                         _______ _______ _______ _____ _____    ______ ____

>  <TORSDO>
F 15

$$$$
