=
 OpenBabel10262420423D

 28 31  0  0  1  0  0  0  0  0999 V2000
  189.0500  177.8990  140.1060 C   0  0  1  0  0  3  0  0  0  0  0  0
  184.3790  178.2670  141.7930 C   0  0  0  0  0  3  0  0  0  0  0  0
  188.4860  175.4200  143.2650 O   0  0  0  0  0  0  0  0  0  0  0  0
  184.5740  178.6000  144.1920 C   0  0  0  0  0  0  0  0  0  0  0  0
  186.5480  177.9940  142.8880 C   0  0  0  0  0  0  0  0  0  0  0  0
  182.4320  178.8830  143.0970 C   0  0  0  0  0  0  0  0  0  0  0  0
  185.1700  178.2760  142.9500 C   0  0  0  0  0  0  0  0  0  0  0  0
  186.7050  178.3160  145.3000 C   0  0  0  0  0  3  0  0  0  0  0  0
  183.2100  178.9010  144.2570 C   0  0  0  0  0  3  0  0  0  0  0  0
  189.2010  176.4490  143.3980 C   0  0  0  0  0  0  0  0  0  0  0  0
  187.1690  177.7400  141.6200 N   0  0  0  0  0  0  0  0  0  0  0  0
  185.3460  178.6320  145.3530 C   0  0  0  0  0  3  0  0  0  0  0  0
  190.5300  176.2110  141.2980 C   0  0  0  0  0  2  0  0  0  0  0  0
  188.6940  177.5930  144.0960 N   0  0  0  0  0  2  0  0  0  0  0  0
  190.5710  176.4870  142.8030 C   0  0  0  0  0  2  0  0  0  0  0  0
  180.9830  179.2020  143.1700 C   0  0  0  0  0  1  0  0  0  0  0  0
  183.0160  178.5670  141.8660 C   0  0  0  0  0  3  0  0  0  0  0  0
  187.3080  177.9680  144.0890 C   0  0  0  0  0  0  0  0  0  0  0  0
  190.4790  177.4990  140.4750 C   0  0  0  0  0  2  0  0  0  0  0  0
  188.2880  178.3100  141.3110 C   0  0  0  0  0  3  0  0  0  0  0  0
  188.9800  178.9300  138.9670 C   0  0  0  0  0  2  0  0  0  0  0  0
  188.3540  178.5340  137.6110 C   0  0  2  0  0  3  0  0  0  0  0  0
  188.0000  176.5570  136.8680 C   0  0  1  0  0  3  0  0  0  0  0  0
  187.2050  177.5470  137.7060 C   0  0  2  0  0  3  0  0  0  0  0  0
  189.3200  177.9960  135.5040 O   0  0  0  0  0  1  0  0  0  0  0  0
  189.1660  177.5310  136.8110 C   0  0  1  0  0  3  0  0  0  0  0  0
  188.3460  175.4530  137.6470 O   0  0  0  0  0  1  0  0  0  0  0  0
  186.1230  178.0210  136.9640 O   0  0  0  0  0  1  0  0  0  0  0  0
  1 21  1  6  0  0  0
  1 19  1  0  0  0  0
  1 20  1  0  0  0  0
  2 17  2  0  0  0  0
  2  7  1  0  0  0  0
  3 10  2  0  0  0  0
  4  9  1  0  0  0  0
  4 12  1  0  0  0  0
  5  7  1  0  0  0  0
  5 18  2  0  0  0  0
  6 16  1  0  0  0  0
  6  9  2  0  0  0  0
  7  4  2  0  0  0  0
  8 12  2  0  0  0  0
 10 14  1  0  0  0  0
 11  5  1  0  0  0  0
 13 15  1  0  0  0  0
 15 10  1  0  0  0  0
 17  6  1  0  0  0  0
 18 14  1  0  0  0  0
 18  8  1  0  0  0  0
 19 13  1  0  0  0  0
 20 11  2  0  0  0  0
 22 24  1  0  0  0  0
 22 21  1  1  0  0  0
 23 27  1  1  0  0  0
 23 24  1  0  0  0  0
 24 28  1  6  0  0  0
 26 25  1  6  0  0  0
 26 23  1  0  0  0  0
 26 22  1  0  0  0  0
M  END
>  <MODEL>
1

>  <REMARK>
 VINA RESULT:      -9.0      0.000      0.000
  Name = 
  2 active torsions:
  status: ('A' for Active; 'I' for Inactive)
    1  A    between atoms: C_1  and  C_2
    2  A    between atoms: C_2  and  C_3
                            x       y       z     vdW  Elec       q    Type
                         _______ _______ _______ _____ _____    ______ ____

>  <TORSDO>
F 2

$$$$
=
 OpenBabel10262420423D

 28 31  0  0  1  0  0  0  0  0999 V2000
  187.4820  177.5550  137.9260 C   0  0  1  0  0  3  0  0  0  0  0  0
  188.0250  176.9660  142.8410 C   0  0  0  0  0  3  0  0  0  0  0  0
  190.6860  175.2010  138.7250 O   0  0  0  0  0  0  0  0  0  0  0  0
  190.3550  177.4740  143.3090 C   0  0  0  0  0  0  0  0  0  0  0  0
  189.6030  177.2500  140.9960 C   0  0  0  0  0  0  0  0  0  0  0  0
  188.7820  177.2060  145.1300 C   0  0  0  0  0  0  0  0  0  0  0  0
  189.3230  177.2190  142.3740 C   0  0  0  0  0  0  0  0  0  0  0  0
  191.9380  177.7390  141.4990 C   0  0  0  0  0  3  0  0  0  0  0  0
  190.0780  177.4650  144.6790 C   0  0  0  0  0  3  0  0  0  0  0  0
  190.8630  176.3700  138.2890 C   0  0  0  0  0  0  0  0  0  0  0  0
  188.5430  177.0680  140.0470 N   0  0  0  0  0  0  0  0  0  0  0  0
  191.6490  177.7450  142.8650 C   0  0  0  0  0  3  0  0  0  0  0  0
  189.1550  176.3140  136.4690 C   0  0  0  0  0  2  0  0  0  0  0  0
  191.2990  177.4110  139.1730 N   0  0  0  0  0  2  0  0  0  0  0  0
  190.5900  176.6800  136.8520 C   0  0  0  0  0  2  0  0  0  0  0  0
  188.4920  177.1960  146.5880 C   0  0  0  0  0  1  0  0  0  0  0  0
  187.7570  176.9570  144.2130 C   0  0  0  0  0  3  0  0  0  0  0  0
  190.9400  177.4650  140.5620 C   0  0  0  0  0  0  0  0  0  0  0  0
  188.2050  177.5070  136.5800 C   0  0  0  0  0  2  0  0  0  0  0  0
  188.4320  177.8550  139.0260 C   0  0  0  0  0  3  0  0  0  0  0  0
  186.2510  178.4760  137.9260 C   0  0  0  0  0  2  0  0  0  0  0  0
  185.0360  178.1340  138.8170 C   0  0  2  0  0  3  0  0  0  0  0  0
  183.4230  179.4280  139.3720 C   0  0  1  0  0  3  0  0  0  0  0  0
  183.6880  178.4800  138.2130 C   0  0  2  0  0  3  0  0  0  0  0  0
  184.6400  178.4070  141.1480 O   0  0  0  0  0  1  0  0  0  0  0  0
  184.7920  179.1120  139.9530 C   0  0  1  0  0  3  0  0  0  0  0  0
  183.4010  180.7440  138.9090 O   0  0  0  0  0  1  0  0  0  0  0  0
  182.8380  177.3780  138.3110 O   0  0  0  0  0  1  0  0  0  0  0  0
  1 21  1  6  0  0  0
  1 20  1  0  0  0  0
  2 17  1  0  0  0  0
  4  9  2  0  0  0  0
  5  7  1  0  0  0  0
  6 16  1  0  0  0  0
  7  2  2  0  0  0  0
  7  4  1  0  0  0  0
  8 12  2  0  0  0  0
  9  6  1  0  0  0  0
 10  3  2  0  0  0  0
 10 14  1  0  0  0  0
 11  5  1  0  0  0  0
 12  4  1  0  0  0  0
 13 19  1  0  0  0  0
 13 15  1  0  0  0  0
 14 18  1  0  0  0  0
 15 10  1  0  0  0  0
 17  6  2  0  0  0  0
 18  5  2  0  0  0  0
 18  8  1  0  0  0  0
 19  1  1  0  0  0  0
 20 11  2  0  0  0  0
 22 21  1  6  0  0  0
 22 26  1  0  0  0  0
 23 27  1  6  0  0  0
 23 26  1  0  0  0  0
 24 28  1  1  0  0  0
 24 22  1  0  0  0  0
 24 23  1  0  0  0  0
 26 25  1  1  0  0  0
M  END
>  <MODEL>
2

>  <REMARK>
 VINA RESULT:      -8.5      2.746      5.361
  Name = 
  2 active torsions:
  status: ('A' for Active; 'I' for Inactive)
    1  A    between atoms: C_1  and  C_2
    2  A    between atoms: C_2  and  C_3
                            x       y       z     vdW  Elec       q    Type
                         _______ _______ _______ _____ _____    ______ ____

>  <TORSDO>
F 2

$$$$
=
 OpenBabel10262420423D

 28 31  0  0  1  0  0  0  0  0999 V2000
  188.7430  177.7590  140.9840 C   0  0  1  0  0  3  0  0  0  0  0  0
  183.7930  178.1180  141.3860 C   0  0  0  0  0  3  0  0  0  0  0  0
  187.4540  175.8700  144.3330 O   0  0  0  0  0  0  0  0  0  0  0  0
  183.3740  178.8990  143.6490 C   0  0  0  0  0  0  0  0  0  0  0  0
  185.6230  178.1970  143.0050 C   0  0  0  0  0  0  0  0  0  0  0  0
  181.5700  178.8320  142.0350 C   0  0  0  0  0  0  0  0  0  0  0  0
  184.2690  178.3920  142.6760 C   0  0  0  0  0  0  0  0  0  0  0  0
  185.1650  178.9650  145.2740 C   0  0  0  0  0  3  0  0  0  0  0  0
  182.0320  179.1150  143.3230 C   0  0  0  0  0  3  0  0  0  0  0  0
  188.0930  176.9510  144.4330 C   0  0  0  0  0  0  0  0  0  0  0  0
  186.5460  177.7560  141.9990 N   0  0  0  0  0  0  0  0  0  0  0  0
  183.8310  179.1950  144.9330 C   0  0  0  0  0  3  0  0  0  0  0  0
  189.9100  176.4220  142.8040 C   0  0  0  0  0  2  0  0  0  0  0  0
  187.4060  178.1680  144.7510 N   0  0  0  0  0  2  0  0  0  0  0  0
  189.5680  176.9710  144.1900 C   0  0  0  0  0  2  0  0  0  0  0  0
  180.1420  179.0610  141.6920 C   0  0  0  0  0  1  0  0  0  0  0  0
  182.4490  178.3350  141.0680 C   0  0  0  0  0  3  0  0  0  0  0  0
  186.0590  178.4420  144.3360 C   0  0  0  0  0  0  0  0  0  0  0  0
  190.0410  177.5290  141.7580 C   0  0  0  0  0  2  0  0  0  0  0  0
  187.6960  178.3330  141.8650 C   0  0  0  0  0  3  0  0  0  0  0  0
  188.9410  178.5560  139.6840 C   0  0  0  0  0  2  0  0  0  0  0  0
  188.0970  178.2110  138.4360 C   0  0  2  0  0  3  0  0  0  0  0  0
  188.8000  177.4680  136.5550 C   0  0  1  0  0  3  0  0  0  0  0  0
  188.3510  176.8300  137.8600 C   0  0  2  0  0  3  0  0  0  0  0  0
  187.5140  179.4730  136.5050 O   0  0  0  0  0  1  0  0  0  0  0  0
  188.5840  178.8510  137.1490 C   0  0  1  0  0  3  0  0  0  0  0  0
  190.1640  177.2430  136.3650 O   0  0  0  0  0  1  0  0  0  0  0  0
  187.1340  176.1770  137.6650 O   0  0  0  0  0  1  0  0  0  0  0  0
  1 21  1  6  0  0  0
  1 19  1  0  0  0  0
  1 20  1  0  0  0  0
  2  7  1  0  0  0  0
  3 10  2  0  0  0  0
  4 12  1  0  0  0  0
  5 18  2  0  0  0  0
  6  9  2  0  0  0  0
  7  5  1  0  0  0  0
  7  4  2  0  0  0  0
  9  4  1  0  0  0  0
 10 14  1  0  0  0  0
 11  5  1  0  0  0  0
 12  8  2  0  0  0  0
 13 15  1  0  0  0  0
 15 10  1  0  0  0  0
 16  6  1  0  0  0  0
 17  2  2  0  0  0  0
 17  6  1  0  0  0  0
 18 14  1  0  0  0  0
 18  8  1  0  0  0  0
 19 13  1  0  0  0  0
 20 11  2  0  0  0  0
 22 21  1  1  0  0  0
 23 27  1  1  0  0  0
 23 26  1  0  0  0  0
 23 24  1  0  0  0  0
 24 28  1  6  0  0  0
 24 22  1  0  0  0  0
 26 25  1  6  0  0  0
 26 22  1  0  0  0  0
M  END
>  <MODEL>
3

>  <REMARK>
 VINA RESULT:      -8.4      1.095      1.506
  Name = 
  2 active torsions:
  status: ('A' for Active; 'I' for Inactive)
    1  A    between atoms: C_1  and  C_2
    2  A    between atoms: C_2  and  C_3
                            x       y       z     vdW  Elec       q    Type
                         _______ _______ _______ _____ _____    ______ ____

>  <TORSDO>
F 2

$$$$
=
 OpenBabel10262420423D

 28 31  0  0  1  0  0  0  0  0999 V2000
  186.7340  178.1830  140.0940 C   0  0  1  0  0  3  0  0  0  0  0  0
  187.4060  177.3710  144.9610 C   0  0  0  0  0  3  0  0  0  0  0  0
  190.0930  175.9970  140.7140 O   0  0  0  0  0  0  0  0  0  0  0  0
  189.7090  177.9990  145.4180 C   0  0  0  0  0  0  0  0  0  0  0  0
  188.9290  177.8510  143.1090 C   0  0  0  0  0  0  0  0  0  0  0  0
  188.1920  177.5360  147.2470 C   0  0  0  0  0  0  0  0  0  0  0  0
  188.6770  177.7290  144.4880 C   0  0  0  0  0  0  0  0  0  0  0  0
  191.2380  178.4580  143.6010 C   0  0  0  0  0  3  0  0  0  0  0  0
  189.4600  177.9010  146.7900 C   0  0  0  0  0  3  0  0  0  0  0  0
  190.1890  177.1960  140.3380 C   0  0  0  0  0  0  0  0  0  0  0  0
  187.8630  177.6520  142.1680 N   0  0  0  0  0  0  0  0  0  0  0  0
  190.9750  178.3750  144.9690 C   0  0  0  0  0  3  0  0  0  0  0  0
  188.4520  177.1290  138.5460 C   0  0  0  0  0  2  0  0  0  0  0  0
  190.5760  178.2140  141.2700 N   0  0  0  0  0  2  0  0  0  0  0  0
  189.8690  177.5630  138.9250 C   0  0  0  0  0  2  0  0  0  0  0  0
  187.9310  177.4310  148.7060 C   0  0  0  0  0  1  0  0  0  0  0  0
  187.1660  177.2720  146.3340 C   0  0  0  0  0  3  0  0  0  0  0  0
  190.2410  178.1720  142.6660 C   0  0  0  0  0  0  0  0  0  0  0  0
  187.4320  178.2520  138.7360 C   0  0  0  0  0  2  0  0  0  0  0  0
  187.6850  178.4840  141.1930 C   0  0  0  0  0  3  0  0  0  0  0  0
  185.4480  179.0230  140.1630 C   0  0  0  0  0  2  0  0  0  0  0  0
  184.1480  178.4900  139.5190 C   0  0  2  0  0  3  0  0  0  0  0  0
  182.1830  178.4840  140.3680 C   0  0  1  0  0  3  0  0  0  0  0  0
  182.9870  179.4670  139.5320 C   0  0  2  0  0  3  0  0  0  0  0  0
  183.0490  176.3840  139.6500 O   0  0  0  0  0  1  0  0  0  0  0  0
  183.3630  177.5250  140.3880 C   0  0  1  0  0  3  0  0  0  0  0  0
  181.9790  179.0080  141.6450 O   0  0  0  0  0  1  0  0  0  0  0  0
  182.4350  179.5510  138.2530 O   0  0  0  0  0  1  0  0  0  0  0  0
  1 21  1  6  0  0  0
  1 20  1  0  0  0  0
  2 17  1  0  0  0  0
  4  9  2  0  0  0  0
  5  7  1  0  0  0  0
  6 16  1  0  0  0  0
  7  2  2  0  0  0  0
  7  4  1  0  0  0  0
  8 12  2  0  0  0  0
  9  6  1  0  0  0  0
 10  3  2  0  0  0  0
 10 14  1  0  0  0  0
 11  5  1  0  0  0  0
 12  4  1  0  0  0  0
 13 19  1  0  0  0  0
 13 15  1  0  0  0  0
 14 18  1  0  0  0  0
 15 10  1  0  0  0  0
 17  6  2  0  0  0  0
 18  5  2  0  0  0  0
 18  8  1  0  0  0  0
 19  1  1  0  0  0  0
 20 11  2  0  0  0  0
 22 24  1  0  0  0  0
 22 21  1  1  0  0  0
 22 26  1  0  0  0  0
 23 26  1  0  0  0  0
 23 27  1  1  0  0  0
 24 28  1  6  0  0  0
 24 23  1  0  0  0  0
 26 25  1  6  0  0  0
M  END
>  <MODEL>
4

>  <REMARK>
 VINA RESULT:      -8.3      2.628      5.134
  Name = 
  2 active torsions:
  status: ('A' for Active; 'I' for Inactive)
    1  A    between atoms: C_1  and  C_2
    2  A    between atoms: C_2  and  C_3
                            x       y       z     vdW  Elec       q    Type
                         _______ _______ _______ _____ _____    ______ ____

>  <TORSDO>
F 2

$$$$
=
 OpenBabel10262420423D

 28 31  0  0  1  0  0  0  0  0999 V2000
  183.5400  178.5200  141.9550 C   0  0  1  0  0  3  0  0  0  0  0  0
  188.4180  178.2320  140.9980 C   0  0  0  0  0  3  0  0  0  0  0  0
  185.6810  180.0600  145.0360 O   0  0  0  0  0  0  0  0  0  0  0  0
  189.4140  177.2180  142.9690 C   0  0  0  0  0  0  0  0  0  0  0  0
  187.0800  177.9350  143.0220 C   0  0  0  0  0  0  0  0  0  0  0  0
  190.7290  177.5020  140.9560 C   0  0  0  0  0  0  0  0  0  0  0  0
  188.2980  177.8080  142.3290 C   0  0  0  0  0  0  0  0  0  0  0  0
  188.1150  176.9330  144.9900 C   0  0  0  0  0  3  0  0  0  0  0  0
  190.6210  177.0690  142.2790 C   0  0  0  0  0  3  0  0  0  0  0  0
  185.0820  178.9600  145.1790 C   0  0  0  0  0  0  0  0  0  0  0  0
  185.9270  178.4620  142.3500 N   0  0  0  0  0  0  0  0  0  0  0  0
  189.3100  176.7730  144.2870 C   0  0  0  0  0  3  0  0  0  0  0  0
  182.9040  179.6230  144.1550 C   0  0  0  0  0  2  0  0  0  0  0  0
  185.8210  177.7310  145.1670 N   0  0  0  0  0  2  0  0  0  0  0  0
  183.5960  178.9330  145.3320 C   0  0  0  0  0  2  0  0  0  0  0  0
  192.0130  177.3450  140.2260 C   0  0  0  0  0  1  0  0  0  0  0  0
  189.6290  178.0820  140.3150 C   0  0  0  0  0  3  0  0  0  0  0  0
  187.0090  177.5350  144.3850 C   0  0  0  0  0  0  0  0  0  0  0  0
  182.4940  178.6330  143.0640 C   0  0  0  0  0  2  0  0  0  0  0  0
  184.7780  177.8770  142.4600 C   0  0  0  0  0  3  0  0  0  0  0  0
  183.0010  177.8650  140.6720 C   0  0  0  0  0  2  0  0  0  0  0  0
  183.2000  178.5670  139.3100 C   0  0  2  0  0  3  0  0  0  0  0  0
  184.9290  178.4930  138.0490 C   0  0  1  0  0  3  0  0  0  0  0  0
  183.6670  177.6560  138.1890 C   0  0  2  0  0  3  0  0  0  0  0  0
  184.1800  180.6530  138.7180 O   0  0  0  0  0  1  0  0  0  0  0  0
  184.4790  179.3780  139.2000 C   0  0  1  0  0  3  0  0  0  0  0  0
  186.0380  177.7410  138.4380 O   0  0  0  0  0  1  0  0  0  0  0  0
  182.8570  177.8450  137.0690 O   0  0  0  0  0  1  0  0  0  0  0  0
  1 21  1  6  0  0  0
  1 20  1  0  0  0  0
  1 19  1  0  0  0  0
  2  7  1  0  0  0  0
  3 10  2  0  0  0  0
  4 12  1  0  0  0  0
  5 18  2  0  0  0  0
  6  9  2  0  0  0  0
  7  4  2  0  0  0  0
  7  5  1  0  0  0  0
  9  4  1  0  0  0  0
 10 15  1  0  0  0  0
 11 20  2  0  0  0  0
 11  5  1  0  0  0  0
 12  8  2  0  0  0  0
 13 15  1  0  0  0  0
 14 10  1  0  0  0  0
 16  6  1  0  0  0  0
 17  6  1  0  0  0  0
 17  2  2  0  0  0  0
 18  8  1  0  0  0  0
 18 14  1  0  0  0  0
 19 13  1  0  0  0  0
 22 21  1  1  0  0  0
 23 24  1  0  0  0  0
 23 27  1  1  0  0  0
 23 26  1  0  0  0  0
 24 28  1  6  0  0  0
 24 22  1  0  0  0  0
 26 25  1  6  0  0  0
 26 22  1  0  0  0  0
M  END
>  <MODEL>
5

>  <REMARK>
 VINA RESULT:      -8.2      2.202      5.732
  Name = 
  2 active torsions:
  status: ('A' for Active; 'I' for Inactive)
    1  A    between atoms: C_1  and  C_2
    2  A    between atoms: C_2  and  C_3
                            x       y       z     vdW  Elec       q    Type
                         _______ _______ _______ _____ _____    ______ ____

>  <TORSDO>
F 2

$$$$
=
 OpenBabel10262420423D

 28 31  0  0  1  0  0  0  0  0999 V2000
  187.0030  178.0450  139.5680 C   0  0  1  0  0  3  0  0  0  0  0  0
  187.5270  177.3010  144.4640 C   0  0  0  0  0  3  0  0  0  0  0  0
  190.3120  175.8220  140.3170 O   0  0  0  0  0  0  0  0  0  0  0  0
  189.8250  177.9040  144.9760 C   0  0  0  0  0  0  0  0  0  0  0  0
  189.1070  177.7300  142.6480 C   0  0  0  0  0  0  0  0  0  0  0  0
  188.2500  177.4920  146.7690 C   0  0  0  0  0  0  0  0  0  0  0  0
  188.8160  177.6340  144.0210 C   0  0  0  0  0  0  0  0  0  0  0  0
  191.4110  178.3130  143.1960 C   0  0  0  0  0  3  0  0  0  0  0  0
  189.5360  177.8310  146.3420 C   0  0  0  0  0  3  0  0  0  0  0  0
  190.4350  177.0140  139.9250 C   0  0  0  0  0  0  0  0  0  0  0  0
  188.0660  177.5320  141.6810 N   0  0  0  0  0  0  0  0  0  0  0  0
  191.1090  178.2550  144.5570 C   0  0  0  0  0  3  0  0  0  0  0  0
  188.7490  176.9420  138.0860 C   0  0  0  0  0  2  0  0  0  0  0  0
  190.8110  178.0410  140.8510 N   0  0  0  0  0  2  0  0  0  0  0  0
  190.1610  177.3620  138.4980 C   0  0  0  0  0  2  0  0  0  0  0  0
  187.9470  177.4130  148.2210 C   0  0  0  0  0  1  0  0  0  0  0  0
  187.2470  177.2270  145.8310 C   0  0  0  0  0  3  0  0  0  0  0  0
  190.4360  178.0260  142.2370 C   0  0  0  0  0  0  0  0  0  0  0  0
  187.7400  178.0820  138.2290 C   0  0  0  0  0  2  0  0  0  0  0  0
  187.9270  178.3500  140.6890 C   0  0  0  0  0  3  0  0  0  0  0  0
  185.7280  178.9030  139.5870 C   0  0  0  0  0  2  0  0  0  0  0  0
  184.6180  178.6520  138.5420 C   0  0  2  0  0  3  0  0  0  0  0  0
  182.9910  177.2670  138.6790 C   0  0  1  0  0  3  0  0  0  0  0  0
  183.2040  178.7150  139.0910 C   0  0  2  0  0  3  0  0  0  0  0  0
  184.4150  177.0660  136.7800 O   0  0  0  0  0  1  0  0  0  0  0  0
  184.4210  177.1940  138.1690 C   0  0  1  0  0  3  0  0  0  0  0  0
  182.8540  176.4690  139.8160 O   0  0  0  0  0  1  0  0  0  0  0  0
  182.4280  179.5470  138.2820 O   0  0  0  0  0  1  0  0  0  0  0  0
  1 21  1  6  0  0  0
  1 20  1  0  0  0  0
  2 17  1  0  0  0  0
  4  9  2  0  0  0  0
  5  7  1  0  0  0  0
  6 16  1  0  0  0  0
  7  2  2  0  0  0  0
  7  4  1  0  0  0  0
  8 12  2  0  0  0  0
  9  6  1  0  0  0  0
 10  3  2  0  0  0  0
 10 14  1  0  0  0  0
 11  5  1  0  0  0  0
 12  4  1  0  0  0  0
 13 19  1  0  0  0  0
 13 15  1  0  0  0  0
 14 18  1  0  0  0  0
 15 10  1  0  0  0  0
 17  6  2  0  0  0  0
 18  5  2  0  0  0  0
 18  8  1  0  0  0  0
 19  1  1  0  0  0  0
 20 11  2  0  0  0  0
 22 24  1  0  0  0  0
 22 21  1  1  0  0  0
 23 24  1  0  0  0  0
 23 27  1  1  0  0  0
 24 28  1  6  0  0  0
 26 25  1  6  0  0  0
 26 22  1  0  0  0  0
 26 23  1  0  0  0  0
M  END
>  <MODEL>
6

>  <REMARK>
 VINA RESULT:      -8.0      2.576      4.711
  Name = 
  2 active torsions:
  status: ('A' for Active; 'I' for Inactive)
    1  A    between atoms: C_1  and  C_2
    2  A    between atoms: C_2  and  C_3
                            x       y       z     vdW  Elec       q    Type
                         _______ _______ _______ _____ _____    ______ ____

>  <TORSDO>
F 2

$$$$
=
 OpenBabel10262420423D

 28 31  0  0  1  0  0  0  0  0999 V2000
  190.6100  176.0560  137.1200 C   0  0  1  0  0  3  0  0  0  0  0  0
  191.2110  177.1250  141.9460 C   0  0  0  0  0  3  0  0  0  0  0  0
  189.0560  179.7040  137.9650 O   0  0  0  0  0  0  0  0  0  0  0  0
  189.0240  177.8310  142.7370 C   0  0  0  0  0  0  0  0  0  0  0  0
  189.4070  177.5270  140.3450 C   0  0  0  0  0  0  0  0  0  0  0  0
  190.8110  177.4170  144.3180 C   0  0  0  0  0  0  0  0  0  0  0  0
  189.8890  177.5010  141.6660 C   0  0  0  0  0  0  0  0  0  0  0  0
  187.2310  178.2540  141.1700 C   0  0  0  0  0  3  0  0  0  0  0  0
  189.4900  177.7870  144.0550 C   0  0  0  0  0  3  0  0  0  0  0  0
  188.2840  178.7410  137.7070 C   0  0  0  0  0  0  0  0  0  0  0  0
  190.2600  177.1180  139.2660 N   0  0  0  0  0  0  0  0  0  0  0  0
  187.7000  178.1900  142.4830 C   0  0  0  0  0  3  0  0  0  0  0  0
  189.5000  177.8590  135.7140 C   0  0  0  0  0  2  0  0  0  0  0  0
  187.5620  178.0940  138.7630 N   0  0  0  0  0  2  0  0  0  0  0  0
  188.1440  178.2540  136.3020 C   0  0  0  0  0  2  0  0  0  0  0  0
  191.3040  177.3730  145.7190 C   0  0  0  0  0  1  0  0  0  0  0  0
  191.6700  177.0860  143.2650 C   0  0  0  0  0  3  0  0  0  0  0  0
  188.0750  177.9570  140.0970 C   0  0  0  0  0  0  0  0  0  0  0  0
  189.7870  176.3650  135.8690 C   0  0  0  0  0  2  0  0  0  0  0  0
  189.8220  176.3160  138.3500 C   0  0  0  0  0  3  0  0  0  0  0  0
  191.2500  174.6580  137.0980 C   0  0  0  0  0  2  0  0  0  0  0  0
  192.7660  174.5030  137.3510 C   0  0  2  0  0  3  0  0  0  0  0  0
  194.3650  175.4690  136.3050 C   0  0  1  0  0  3  0  0  0  0  0  0
  193.5180  175.8110  137.5200 C   0  0  2  0  0  3  0  0  0  0  0  0
  194.4110  173.0880  136.3750 O   0  0  0  0  0  1  0  0  0  0  0  0
  193.5820  174.1800  136.1130 C   0  0  1  0  0  3  0  0  0  0  0  0
  194.0770  176.3540  135.2660 O   0  0  0  0  0  1  0  0  0  0  0  0
  194.3070  175.7490  138.6690 O   0  0  0  0  0  1  0  0  0  0  0  0
  1 21  1  6  0  0  0
  1 20  1  0  0  0  0
  2 17  1  0  0  0  0
  4  9  2  0  0  0  0
  5  7  1  0  0  0  0
  6 16  1  0  0  0  0
  7  2  2  0  0  0  0
  7  4  1  0  0  0  0
  8 12  2  0  0  0  0
  9  6  1  0  0  0  0
 10  3  2  0  0  0  0
 10 14  1  0  0  0  0
 11  5  1  0  0  0  0
 12  4  1  0  0  0  0
 13 19  1  0  0  0  0
 13 15  1  0  0  0  0
 14 18  1  0  0  0  0
 15 10  1  0  0  0  0
 17  6  2  0  0  0  0
 18  5  2  0  0  0  0
 18  8  1  0  0  0  0
 19  1  1  0  0  0  0
 20 11  2  0  0  0  0
 22 21  1  6  0  0  0
 22 24  1  0  0  0  0
 23 27  1  6  0  0  0
 23 24  1  0  0  0  0
 24 28  1  1  0  0  0
 26 23  1  0  0  0  0
 26 25  1  1  0  0  0
 26 22  1  0  0  0  0
M  END
>  <MODEL>
7

>  <REMARK>
 VINA RESULT:      -8.0      3.314      6.215
  Name = 
  2 active torsions:
  status: ('A' for Active; 'I' for Inactive)
    1  A    between atoms: C_1  and  C_2
    2  A    between atoms: C_2  and  C_3
                            x       y       z     vdW  Elec       q    Type
                         _______ _______ _______ _____ _____    ______ ____

>  <TORSDO>
F 2

$$$$
=
 OpenBabel10262420423D

 28 31  0  0  1  0  0  0  0  0999 V2000
  185.0610  178.5010  144.5320 C   0  0  1  0  0  3  0  0  0  0  0  0
  188.1770  178.3380  140.6510 C   0  0  0  0  0  3  0  0  0  0  0  0
  188.8900  179.0080  145.7680 O   0  0  0  0  0  0  0  0  0  0  0  0
  189.9190  176.7630  141.2750 C   0  0  0  0  0  0  0  0  0  0  0  0
  188.3060  177.5120  142.9480 C   0  0  0  0  0  0  0  0  0  0  0  0
  189.7760  177.5750  138.9980 C   0  0  0  0  0  0  0  0  0  0  0  0
  188.7980  177.5510  141.6310 C   0  0  0  0  0  0  0  0  0  0  0  0
  190.0780  175.9490  143.5470 C   0  0  0  0  0  3  0  0  0  0  0  0
  190.4000  176.7800  139.9630 C   0  0  0  0  0  3  0  0  0  0  0  0
  188.2850  177.9350  146.0330 C   0  0  0  0  0  0  0  0  0  0  0  0
  187.1240  178.2500  143.2910 N   0  0  0  0  0  0  0  0  0  0  0  0
  190.5410  175.9590  142.2300 C   0  0  0  0  0  3  0  0  0  0  0  0
  186.1310  178.9400  146.7960 C   0  0  0  0  0  2  0  0  0  0  0  0
  188.5880  176.7380  145.3040 N   0  0  0  0  0  2  0  0  0  0  0  0
  187.2290  177.9150  147.0890 C   0  0  0  0  0  2  0  0  0  0  0  0
  190.2900  177.5920  137.6040 C   0  0  0  0  0  1  0  0  0  0  0  0
  188.6650  178.3520  139.3410 C   0  0  0  0  0  3  0  0  0  0  0  0
  188.9890  176.7370  143.9250 C   0  0  0  0  0  0  0  0  0  0  0  0
  184.9490  178.3240  146.0460 C   0  0  0  0  0  2  0  0  0  0  0  0
  186.1830  177.6980  143.9870 C   0  0  0  0  0  3  0  0  0  0  0  0
  183.7350  178.2650  143.7900 C   0  0  0  0  0  2  0  0  0  0  0  0
  183.4460  179.0240  142.4750 C   0  0  2  0  0  3  0  0  0  0  0  0
  183.0380  178.1810  140.5500 C   0  0  1  0  0  3  0  0  0  0  0  0
  182.1910  178.5780  141.7480 C   0  0  2  0  0  3  0  0  0  0  0  0
  184.8570  179.7130  140.6880 O   0  0  0  0  0  1  0  0  0  0  0  0
  184.2980  178.5890  141.2960 C   0  0  1  0  0  3  0  0  0  0  0  0
  183.0120  176.7950  140.3920 O   0  0  0  0  0  1  0  0  0  0  0  0
  181.4200  179.6940  141.4230 O   0  0  0  0  0  1  0  0  0  0  0  0
  1 21  1  6  0  0  0
  1 19  1  0  0  0  0
  2  7  1  0  0  0  0
  3 10  2  0  0  0  0
  4  7  2  0  0  0  0
  4 12  1  0  0  0  0
  5 11  1  0  0  0  0
  5 18  2  0  0  0  0
  6 17  1  0  0  0  0
  6  9  2  0  0  0  0
  7  5  1  0  0  0  0
  8 18  1  0  0  0  0
  9  4  1  0  0  0  0
 10 15  1  0  0  0  0
 11 20  2  0  0  0  0
 12  8  2  0  0  0  0
 13 15  1  0  0  0  0
 14 10  1  0  0  0  0
 16  6  1  0  0  0  0
 17  2  2  0  0  0  0
 18 14  1  0  0  0  0
 19 13  1  0  0  0  0
 20  1  1  0  0  0  0
 22 21  1  1  0  0  0
 23 27  1  1  0  0  0
 23 26  1  0  0  0  0
 23 24  1  0  0  0  0
 24 28  1  6  0  0  0
 24 22  1  0  0  0  0
 26 25  1  6  0  0  0
 26 22  1  0  0  0  0
M  END
>  <MODEL>
8

>  <REMARK>
 VINA RESULT:      -8.0      2.450      6.100
  Name = 
  2 active torsions:
  status: ('A' for Active; 'I' for Inactive)
    1  A    between atoms: C_1  and  C_2
    2  A    between atoms: C_2  and  C_3
                            x       y       z     vdW  Elec       q    Type
                         _______ _______ _______ _____ _____    ______ ____

>  <TORSDO>
F 2

$$$$
=
 OpenBabel10262420423D

 28 31  0  0  1  0  0  0  0  0999 V2000
  189.5980  177.7650  139.0410 C   0  0  1  0  0  3  0  0  0  0  0  0
  185.6370  179.0250  141.7840 C   0  0  0  0  0  3  0  0  0  0  0  0
  186.8680  179.7250  136.7710 O   0  0  0  0  0  0  0  0  0  0  0  0
  183.7010  178.2630  140.5280 C   0  0  0  0  0  0  0  0  0  0  0  0
  185.9100  178.2320  139.4880 C   0  0  0  0  0  0  0  0  0  0  0  0
  183.4410  179.0370  142.8080 C   0  0  0  0  0  0  0  0  0  0  0  0
  185.0920  178.5170  140.5960 C   0  0  0  0  0  0  0  0  0  0  0  0
  183.9450  177.4950  138.2480 C   0  0  0  0  0  3  0  0  0  0  0  0
  182.8860  178.5250  141.6330 C   0  0  0  0  0  3  0  0  0  0  0  0
  187.0500  178.4900  136.6020 C   0  0  0  0  0  0  0  0  0  0  0  0
  187.3300  178.4170  139.5820 N   0  0  0  0  0  0  0  0  0  0  0  0
  183.1410  177.7420  139.3620 C   0  0  0  0  0  3  0  0  0  0  0  0
  189.5460  178.5090  136.6110 C   0  0  0  0  0  2  0  0  0  0  0  0
  186.0890  177.5460  137.0950 N   0  0  0  0  0  2  0  0  0  0  0  0
  188.2830  178.0040  135.9110 C   0  0  0  0  0  2  0  0  0  0  0  0
  182.5710  179.3140  143.9800 C   0  0  0  0  0  1  0  0  0  0  0  0
  184.8150  179.2860  142.8840 C   0  0  0  0  0  3  0  0  0  0  0  0
  185.3160  177.7610  138.2850 C   0  0  0  0  0  0  0  0  0  0  0  0
  190.0930  177.4990  137.6200 C   0  0  0  0  0  2  0  0  0  0  0  0
  188.1410  177.5050  139.1510 C   0  0  0  0  0  3  0  0  0  0  0  0
  190.4220  177.0440  140.1200 C   0  0  0  0  0  2  0  0  0  0  0  0
  190.2760  177.4580  141.6020 C   0  0  2  0  0  3  0  0  0  0  0  0
  190.3730  176.1880  143.3230 C   0  0  1  0  0  3  0  0  0  0  0  0
  191.3910  176.9710  142.5090 C   0  0  2  0  0  3  0  0  0  0  0  0
  188.4040  177.5040  143.0690 O   0  0  0  0  0  1  0  0  0  0  0  0
  189.2650  176.6430  142.3870 C   0  0  1  0  0  3  0  0  0  0  0  0
  190.5940  174.8200  143.1630 O   0  0  0  0  0  1  0  0  0  0  0  0
  191.8720  178.0380  143.2690 O   0  0  0  0  0  1  0  0  0  0  0  0
  1 20  1  0  0  0  0
  1 21  1  1  0  0  0
  2 17  1  0  0  0  0
  4  7  1  0  0  0  0
  4  9  2  0  0  0  0
  5 11  1  0  0  0  0
  5  7  1  0  0  0  0
  6 17  2  0  0  0  0
  6 16  1  0  0  0  0
  7  2  2  0  0  0  0
  8 18  1  0  0  0  0
  8 12  2  0  0  0  0
  9  6  1  0  0  0  0
 10  3  2  0  0  0  0
 10 14  1  0  0  0  0
 12  4  1  0  0  0  0
 13 19  1  0  0  0  0
 14 18  1  0  0  0  0
 15 10  1  0  0  0  0
 15 13  1  0  0  0  0
 18  5  2  0  0  0  0
 19  1  1  0  0  0  0
 20 11  2  0  0  0  0
 22 21  1  6  0  0  0
 22 26  1  0  0  0  0
 22 24  1  0  0  0  0
 23 27  1  6  0  0  0
 24 28  1  1  0  0  0
 24 23  1  0  0  0  0
 26 25  1  1  0  0  0
 26 23  1  0  0  0  0
M  END
>  <MODEL>
9

>  <REMARK>
 VINA RESULT:      -7.7      2.126      5.277
  Name = 
  2 active torsions:
  status: ('A' for Active; 'I' for Inactive)
    1  A    between atoms: C_1  and  C_2
    2  A    between atoms: C_2  and  C_3
                            x       y       z     vdW  Elec       q    Type
                         _______ _______ _______ _____ _____    ______ ____

>  <TORSDO>
F 2

$$$$
