=
 OpenBabel10262421263D

 32 37  0  0  1  0  0  0  0  0999 V2000
  194.9470  176.8000  135.4950 N   0  0  0  0  0  0  0  0  0  0  0  0
  193.8270  173.3320  134.9130 C   0  0  0  0  0  2  0  0  0  0  0  0
  192.5340  176.6880  138.9720 C   0  0  0  0  0  3  0  0  0  0  0  0
  187.3680  176.1820  136.1570 C   0  0  0  0  0  2  0  0  0  0  0  0
  187.2080  177.5290  136.8710 C   0  0  0  0  0  2  0  0  0  0  0  0
  193.8160  174.7970  137.7170 C   0  0  0  0  0  0  0  0  0  0  0  0
  191.4230  174.4960  137.1070 N   0  0  0  0  0  0  0  0  0  0  0  0
  194.2220  175.8320  134.6750 C   0  0  0  0  0  2  0  0  0  0  0  0
  193.1700  172.9560  136.2460 C   0  0  0  0  0  2  0  0  0  0  0  0
  188.8110  175.6950  136.1770 C   0  0  0  0  0  2  0  0  0  0  0  0
  190.7860  175.4590  137.6950 C   0  0  0  0  0  0  0  0  0  0  0  0
  189.3040  175.6200  137.6280 C   0  0  1  0  0  3  0  0  0  0  0  0
  190.1810  177.2280  139.0280 N   0  0  0  0  0  0  0  0  0  0  0  0
  196.0510  176.1480  136.0870 N   0  0  0  0  0  2  0  0  0  0  0  0
  195.7640  174.7200  136.1050 C   0  0  1  0  0  3  0  0  0  0  0  0
  195.4830  177.8040  134.5940 C   0  0  0  0  0  1  0  0  0  0  0  0
  192.8140  174.1470  137.0850 C   0  0  0  0  0  0  0  0  0  0  0  0
  195.2230  174.3210  137.4870 C   0  0  0  0  0  2  0  0  0  0  0  0
  194.8490  174.4870  134.9150 C   0  0  1  0  0  3  0  0  0  0  0  0
  188.4630  177.9320  137.6480 C   0  0  0  0  0  2  0  0  0  0  0  0
  188.9600  176.8140  138.4580 N   0  0  1  0  0  0  0  0  0  0  0  0
  193.6760  175.9450  138.5580 N   0  0  0  0  0  0  0  0  0  0  0  0
  191.2870  176.4580  138.5870 C   0  0  2  0  0  3  0  0  0  0  0  0
  190.2270  178.1400  140.1680 C   0  0  0  0  0  2  0  0  0  0  0  0
  188.1130  178.3910  141.3700 C   0  0  0  0  0  3  0  0  0  0  0  0
  187.1490  178.0050  142.4150 C   0  0  0  0  0  0  0  0  0  0  0  0
  189.5530  176.5620  142.1050 C   0  0  0  0  0  0  0  0  0  0  0  0
  188.5870  176.1810  143.1510 C   0  0  0  0  0  3  0  0  0  0  0  0
  187.4480  176.8630  143.2990 C   0  0  0  0  0  3  0  0  0  0  0  0
  186.0760  178.6470  142.5530 O   0  0  0  0  0  0  0  0  0  0  0  0
  190.6240  175.9110  141.9770 O   0  0  0  0  0  0  0  0  0  0  0  0
  189.2520  177.7070  141.2130 C   0  0  0  0  0  0  0  0  0  0  0  0
  1 14  1  0  0  0  0
  2 19  1  0  0  0  0
  2  9  1  0  0  0  0
  4 10  1  0  0  0  0
  4  5  1  0  0  0  0
  5 20  1  0  0  0  0
  6 22  1  0  0  0  0
  7 11  2  0  0  0  0
  8  1  1  0  0  0  0
  9 17  1  0  0  0  0
 11 23  1  0  0  0  0
 12 10  1  6  0  0  0
 12 11  1  0  0  0  0
 12 21  1  0  0  0  0
 13 24  1  0  0  0  0
 14 15  1  0  0  0  0
 15 18  1  1  0  0  0
 16  1  1  0  0  0  0
 17  7  1  0  0  0  0
 17  6  2  0  0  0  0
 18  6  1  0  0  0  0
 19  8  1  1  0  0  0
 19 15  1  0  0  0  0
 21 20  1  6  0  0  0
 21 13  1  0  0  0  0
 22  3  2  0  0  0  0
 23  3  1  6  0  0  0
 23 13  1  0  0  0  0
 24 32  1  0  0  0  0
 25 26  1  0  0  0  0
 26 30  2  0  0  0  0
 26 29  1  0  0  0  0
 27 28  1  0  0  0  0
 28 29  2  0  0  0  0
 31 27  2  0  0  0  0
 32 25  2  0  0  0  0
 32 27  1  0  0  0  0
M  END
>  <MODEL>
1

>  <REMARK>
 VINA RESULT:      -7.9      0.000      0.000
  Name = 
  2 active torsions:
  status: ('A' for Active; 'I' for Inactive)
    1  A    between atoms: N_16  and  C_27
    2  A    between atoms: C_27  and  C_32
                            x       y       z     vdW  Elec       q    Type
                         _______ _______ _______ _____ _____    ______ ____

>  <TORSDO>
F 2

$$$$
=
 OpenBabel10262421263D

 32 37  0  0  1  0  0  0  0  0999 V2000
  187.2520  174.7100  136.7490 N   0  0  0  0  0  0  0  0  0  0  0  0
  190.8670  175.3140  137.1910 C   0  0  0  0  0  2  0  0  0  0  0  0
  186.6860  178.3900  138.7650 C   0  0  0  0  0  3  0  0  0  0  0  0
  188.8870  176.6290  143.9540 C   0  0  0  0  0  2  0  0  0  0  0  0
  187.4320  176.9450  144.3190 C   0  0  0  0  0  2  0  0  0  0  0  0
  188.6320  177.5530  137.2450 C   0  0  0  0  0  0  0  0  0  0  0  0
  189.4990  177.4130  139.5720 N   0  0  0  0  0  0  0  0  0  0  0  0
  188.5330  174.3170  137.3340 C   0  0  0  0  0  2  0  0  0  0  0  0
  190.9160  176.7810  137.6340 C   0  0  0  0  0  2  0  0  0  0  0  0
  189.0970  176.5750  142.4470 C   0  0  0  0  0  2  0  0  0  0  0  0
  188.5220  177.7890  140.3350 C   0  0  0  0  0  0  0  0  0  0  0  0
  188.6380  177.8980  141.8190 C   0  0  1  0  0  3  0  0  0  0  0  0
  186.5540  178.6350  141.1640 N   0  0  0  0  0  0  0  0  0  0  0  0
  187.4970  175.2940  135.4870 N   0  0  0  0  0  2  0  0  0  0  0  0
  188.8770  175.7610  135.4760 C   0  0  1  0  0  3  0  0  0  0  0  0
  186.5010  173.4910  136.5120 C   0  0  0  0  0  1  0  0  0  0  0  0
  189.6020  177.2880  138.1480 C   0  0  0  0  0  0  0  0  0  0  0  0
  188.9140  177.2640  135.7980 C   0  0  0  0  0  2  0  0  0  0  0  0
  189.6140  174.8360  136.4280 C   0  0  1  0  0  3  0  0  0  0  0  0
  186.6050  177.3800  143.1070 C   0  0  0  0  0  2  0  0  0  0  0  0
  187.3210  178.3940  142.3220 N   0  0  1  0  0  0  0  0  0  0  0  0
  187.3200  178.0420  137.5380 N   0  0  0  0  0  0  0  0  0  0  0  0
  187.2280  178.2750  139.9690 C   0  0  2  0  0  3  0  0  0  0  0  0
  185.3410  179.4470  141.2000 C   0  0  0  0  0  2  0  0  0  0  0  0
  183.8590  177.5910  140.6200 C   0  0  0  0  0  3  0  0  0  0  0  0
  182.8390  176.9480  139.7730 C   0  0  0  0  0  0  0  0  0  0  0  0
  183.7320  179.5560  139.1770 C   0  0  0  0  0  0  0  0  0  0  0  0
  182.7140  178.9070  138.3310 C   0  0  0  0  0  3  0  0  0  0  0  0
  182.2900  177.6720  138.6130 C   0  0  0  0  0  3  0  0  0  0  0  0
  182.4390  175.7850  140.0400 O   0  0  0  0  0  0  0  0  0  0  0  0
  184.1250  180.7200  138.8990 O   0  0  0  0  0  0  0  0  0  0  0  0
  184.2830  178.8310  140.3460 C   0  0  0  0  0  0  0  0  0  0  0  0
  1  8  1  0  0  0  0
  2  9  1  0  0  0  0
  4  5  1  0  0  0  0
  6 22  1  0  0  0  0
  6 17  2  0  0  0  0
  7 11  2  0  0  0  0
  9 17  1  0  0  0  0
 10  4  1  0  0  0  0
 11 12  1  0  0  0  0
 12 21  1  0  0  0  0
 12 10  1  1  0  0  0
 13 24  1  0  0  0  0
 13 21  1  0  0  0  0
 14  1  1  0  0  0  0
 15 14  1  0  0  0  0
 15 18  1  1  0  0  0
 15 19  1  0  0  0  0
 16  1  1  0  0  0  0
 17  7  1  0  0  0  0
 18  6  1  0  0  0  0
 19  2  1  1  0  0  0
 19  8  1  0  0  0  0
 20  5  1  0  0  0  0
 21 20  1  1  0  0  0
 22  3  2  0  0  0  0
 23  3  1  1  0  0  0
 23 11  1  0  0  0  0
 23 13  1  0  0  0  0
 26 30  2  0  0  0  0
 26 25  1  0  0  0  0
 27 32  1  0  0  0  0
 28 29  2  0  0  0  0
 28 27  1  0  0  0  0
 29 26  1  0  0  0  0
 31 27  2  0  0  0  0
 32 25  2  0  0  0  0
 32 24  1  0  0  0  0
M  END
>  <MODEL>
2

>  <REMARK>
 VINA RESULT:      -6.9      3.617      6.309
  Name = 
  2 active torsions:
  status: ('A' for Active; 'I' for Inactive)
    1  A    between atoms: N_16  and  C_27
    2  A    between atoms: C_27  and  C_32
                            x       y       z     vdW  Elec       q    Type
                         _______ _______ _______ _____ _____    ______ ____

>  <TORSDO>
F 2

$$$$
=
 OpenBabel10262421263D

 32 37  0  0  1  0  0  0  0  0999 V2000
  186.9060  174.4300  136.6080 N   0  0  0  0  0  0  0  0  0  0  0  0
  189.3190  177.2210  136.7320 C   0  0  0  0  0  2  0  0  0  0  0  0
  183.9060  177.3880  137.0260 C   0  0  0  0  0  3  0  0  0  0  0  0
  185.4450  179.1050  142.4620 C   0  0  0  0  0  2  0  0  0  0  0  0
  184.0310  178.5580  142.6920 C   0  0  0  0  0  2  0  0  0  0  0  0
  186.2700  177.4910  135.9320 C   0  0  0  0  0  0  0  0  0  0  0  0
  186.4970  178.6590  138.1160 N   0  0  0  0  0  0  0  0  0  0  0  0
  188.0060  175.1150  137.2840 C   0  0  0  0  0  2  0  0  0  0  0  0
  188.4240  178.4540  136.5640 C   0  0  0  0  0  2  0  0  0  0  0  0
  185.9900  178.7160  141.0940 C   0  0  0  0  0  2  0  0  0  0  0  0
  185.3340  178.5740  138.6830 C   0  0  0  0  0  0  0  0  0  0  0  0
  185.0220  179.1950  140.0040 C   0  0  1  0  0  3  0  0  0  0  0  0
  183.1080  178.2450  139.1380 N   0  0  0  0  0  0  0  0  0  0  0  0
  187.0600  174.6030  135.2150 N   0  0  0  0  0  2  0  0  0  0  0  0
  187.8890  175.7820  135.0040 C   0  0  1  0  0  3  0  0  0  0  0  0
  187.0580  173.0120  136.8770 C   0  0  0  0  0  1  0  0  0  0  0  0
  186.9790  178.1790  136.8540 C   0  0  0  0  0  0  0  0  0  0  0  0
  186.9920  176.9960  134.7100 C   0  0  0  0  0  2  0  0  0  0  0  0
  188.7760  175.8650  136.2340 C   0  0  1  0  0  3  0  0  0  0  0  0
  183.4110  177.9830  141.4160 C   0  0  0  0  0  2  0  0  0  0  0  0
  183.5830  178.9070  140.2880 N   0  0  1  0  0  0  0  0  0  0  0  0
  184.8880  177.1350  136.0260 N   0  0  0  0  0  0  0  0  0  0  0  0
  184.1210  178.0180  138.1710 C   0  0  2  0  0  3  0  0  0  0  0  0
  181.6800  178.1020  138.8680 C   0  0  0  0  0  2  0  0  0  0  0  0
  181.2190  180.2130  137.7250 C   0  0  0  0  0  3  0  0  0  0  0  0
  180.6170  181.5560  137.6500 C   0  0  0  0  0  0  0  0  0  0  0  0
  180.2240  179.9540  139.9380 C   0  0  0  0  0  0  0  0  0  0  0  0
  179.6260  181.2990  139.8610 C   0  0  0  0  0  3  0  0  0  0  0  0
  179.8110  182.0580  138.7770 C   0  0  0  0  0  3  0  0  0  0  0  0
  180.7910  182.2700  136.6290 O   0  0  0  0  0  0  0  0  0  0  0  0
  180.0430  179.2490  140.9660 O   0  0  0  0  0  0  0  0  0  0  0  0
  181.0310  179.4460  138.8040 C   0  0  0  0  0  0  0  0  0  0  0  0
  1 16  1  0  0  0  0
  1  8  1  0  0  0  0
  4  5  1  0  0  0  0
  6 22  1  0  0  0  0
  6 17  2  0  0  0  0
  7 11  2  0  0  0  0
  9  2  1  0  0  0  0
  9 17  1  0  0  0  0
 10  4  1  0  0  0  0
 11 12  1  0  0  0  0
 12 21  1  0  0  0  0
 12 10  1  1  0  0  0
 13 21  1  0  0  0  0
 14  1  1  0  0  0  0
 15 18  1  1  0  0  0
 15 14  1  0  0  0  0
 15 19  1  0  0  0  0
 17  7  1  0  0  0  0
 18  6  1  0  0  0  0
 19  2  1  1  0  0  0
 19  8  1  0  0  0  0
 20  5  1  0  0  0  0
 21 20  1  1  0  0  0
 22  3  2  0  0  0  0
 23  3  1  1  0  0  0
 23 11  1  0  0  0  0
 23 13  1  0  0  0  0
 24 13  1  0  0  0  0
 25 32  2  0  0  0  0
 26 25  1  0  0  0  0
 26 29  1  0  0  0  0
 27 31  2  0  0  0  0
 28 27  1  0  0  0  0
 29 28  2  0  0  0  0
 30 26  2  0  0  0  0
 32 24  1  0  0  0  0
 32 27  1  0  0  0  0
M  END
>  <MODEL>
3

>  <REMARK>
 VINA RESULT:      -6.9      5.129      8.141
  Name = 
  2 active torsions:
  status: ('A' for Active; 'I' for Inactive)
    1  A    between atoms: N_16  and  C_27
    2  A    between atoms: C_27  and  C_32
                            x       y       z     vdW  Elec       q    Type
                         _______ _______ _______ _____ _____    ______ ____

>  <TORSDO>
F 2

$$$$
=
 OpenBabel10262421263D

 32 37  0  0  1  0  0  0  0  0999 V2000
  181.3410  181.3140  138.1380 N   0  0  0  0  0  0  0  0  0  0  0  0
  179.2820  178.4740  139.2860 C   0  0  0  0  0  2  0  0  0  0  0  0
  184.6800  179.0020  139.3310 C   0  0  0  0  0  3  0  0  0  0  0  0
  183.4370  179.0040  145.1040 C   0  0  0  0  0  2  0  0  0  0  0  0
  184.7780  179.7460  145.0690 C   0  0  0  0  0  2  0  0  0  0  0  0
  182.3300  178.2900  138.4560 C   0  0  0  0  0  0  0  0  0  0  0  0
  182.2760  177.8850  140.9100 N   0  0  0  0  0  0  0  0  0  0  0  0
  180.3400  180.7740  139.0560 C   0  0  0  0  0  2  0  0  0  0  0  0
  180.3170  177.3580  139.4790 C   0  0  0  0  0  2  0  0  0  0  0  0
  182.8290  178.8610  143.7140 C   0  0  0  0  0  2  0  0  0  0  0  0
  183.4280  178.2760  141.3560 C   0  0  0  0  0  0  0  0  0  0  0  0
  183.8320  178.1600  142.7880 C   0  0  1  0  0  3  0  0  0  0  0  0
  185.6050  178.9760  141.5620 N   0  0  0  0  0  0  0  0  0  0  0  0
  181.1880  180.6790  136.8860 N   0  0  0  0  0  2  0  0  0  0  0  0
  180.5040  179.4130  137.1120 C   0  0  1  0  0  3  0  0  0  0  0  0
  181.0230  182.7170  137.9410 C   0  0  0  0  0  1  0  0  0  0  0  0
  181.7220  177.8690  139.5870 C   0  0  0  0  0  0  0  0  0  0  0  0
  181.5360  178.2760  137.1800 C   0  0  0  0  0  2  0  0  0  0  0  0
  179.6510  179.6410  138.3480 C   0  0  1  0  0  3  0  0  0  0  0  0
  185.3060  179.9350  143.6460 C   0  0  0  0  0  2  0  0  0  0  0  0
  185.2290  178.6800  142.8880 N   0  0  1  0  0  0  0  0  0  0  0  0
  183.6610  178.8050  138.3560 N   0  0  0  0  0  0  0  0  0  0  0  0
  184.5580  178.7630  140.6290 C   0  0  2  0  0  3  0  0  0  0  0  0
  187.0010  179.1770  141.1850 C   0  0  0  0  0  2  0  0  0  0  0  0
  187.7710  177.9380  143.1470 C   0  0  0  0  0  3  0  0  0  0  0  0
  188.6320  176.9430  143.8110 C   0  0  0  0  0  0  0  0  0  0  0  0
  188.8460  177.3690  141.0310 C   0  0  0  0  0  0  0  0  0  0  0  0
  189.7080  176.3780  141.7000 C   0  0  0  0  0  3  0  0  0  0  0  0
  189.6060  176.1750  143.0170 C   0  0  0  0  0  3  0  0  0  0  0  0
  188.5360  176.7530  145.0510 O   0  0  0  0  0  0  0  0  0  0  0  0
  188.9520  177.5510  139.7890 O   0  0  0  0  0  0  0  0  0  0  0  0
  187.8620  178.1400  141.8280 C   0  0  0  0  0  0  0  0  0  0  0  0
  1  8  1  0  0  0  0
  2  9  1  0  0  0  0
  5  4  1  0  0  0  0
  6 17  2  0  0  0  0
  7 11  2  0  0  0  0
  9 17  1  0  0  0  0
 10  4  1  0  0  0  0
 11 12  1  0  0  0  0
 12 21  1  0  0  0  0
 12 10  1  1  0  0  0
 13 21  1  0  0  0  0
 14 15  1  0  0  0  0
 14  1  1  0  0  0  0
 15 18  1  1  0  0  0
 15 19  1  0  0  0  0
 16  1  1  0  0  0  0
 17  7  1  0  0  0  0
 18  6  1  0  0  0  0
 19  8  1  1  0  0  0
 19  2  1  0  0  0  0
 20  5  1  0  0  0  0
 21 20  1  1  0  0  0
 22  6  1  0  0  0  0
 22  3  2  0  0  0  0
 23  3  1  1  0  0  0
 23 11  1  0  0  0  0
 23 13  1  0  0  0  0
 24 13  1  0  0  0  0
 24 32  1  0  0  0  0
 25 26  1  0  0  0  0
 26 30  2  0  0  0  0
 27 28  1  0  0  0  0
 27 32  1  0  0  0  0
 28 29  2  0  0  0  0
 29 26  1  0  0  0  0
 31 27  2  0  0  0  0
 32 25  2  0  0  0  0
M  END
>  <MODEL>
4

>  <REMARK>
 VINA RESULT:      -6.5      6.157     10.223
  Name = 
  2 active torsions:
  status: ('A' for Active; 'I' for Inactive)
    1  A    between atoms: N_16  and  C_27
    2  A    between atoms: C_27  and  C_32
                            x       y       z     vdW  Elec       q    Type
                         _______ _______ _______ _____ _____    ______ ____

>  <TORSDO>
F 2

$$$$
=
 OpenBabel10262421263D

 32 37  0  0  1  0  0  0  0  0999 V2000
  187.2000  174.8380  136.8660 N   0  0  0  0  0  0  0  0  0  0  0  0
  190.3270  176.5080  137.8950 C   0  0  0  0  0  2  0  0  0  0  0  0
  185.2620  178.4500  137.9260 C   0  0  0  0  0  3  0  0  0  0  0  0
  186.4570  178.1540  143.7010 C   0  0  0  0  0  2  0  0  0  0  0  0
  184.9250  178.0880  143.6910 C   0  0  0  0  0  2  0  0  0  0  0  0
  187.6700  177.9970  137.0350 C   0  0  0  0  0  0  0  0  0  0  0  0
  187.9350  178.4460  139.4670 N   0  0  0  0  0  0  0  0  0  0  0  0
  188.3500  174.9160  137.7660 C   0  0  0  0  0  2  0  0  0  0  0  0
  189.9020  177.9760  138.0280 C   0  0  0  0  0  2  0  0  0  0  0  0
  187.0440  177.9470  142.3110 C   0  0  0  0  0  2  0  0  0  0  0  0
  186.7360  178.6310  139.9240 C   0  0  0  0  0  0  0  0  0  0  0  0
  186.4470  178.9800  141.3450 C   0  0  1  0  0  3  0  0  0  0  0  0
  184.4780  178.9870  140.1460 N   0  0  0  0  0  0  0  0  0  0  0  0
  187.6020  175.2810  135.5870 N   0  0  0  0  0  2  0  0  0  0  0  0
  188.7820  176.1170  135.7590 C   0  0  1  0  0  3  0  0  0  0  0  0
  186.8550  173.4330  136.7380 C   0  0  0  0  0  1  0  0  0  0  0  0
  188.4180  178.1530  138.1500 C   0  0  0  0  0  0  0  0  0  0  0  0
  188.3680  177.5970  135.7660 C   0  0  0  0  0  2  0  0  0  0  0  0
  189.4620  175.5870  137.0100 C   0  0  1  0  0  3  0  0  0  0  0  0
  184.3480  178.0910  142.2750 C   0  0  0  0  0  2  0  0  0  0  0  0
  184.9660  179.1440  141.4590 N   0  0  1  0  0  0  0  0  0  0  0  0
  186.2480  178.1260  136.9500 N   0  0  0  0  0  0  0  0  0  0  0  0
  185.4970  178.6680  139.2110 C   0  0  2  0  0  3  0  0  0  0  0  0
  183.1340  179.4140  139.7690 C   0  0  0  0  0  2  0  0  0  0  0  0
  182.3370  177.1760  139.1930 C   0  0  0  0  0  3  0  0  0  0  0  0
  181.3830  176.0580  139.3050 C   0  0  0  0  0  0  0  0  0  0  0  0
  181.0130  178.3920  140.8440 C   0  0  0  0  0  0  0  0  0  0  0  0
  180.0600  177.2740  140.9500 C   0  0  0  0  0  3  0  0  0  0  0  0
  180.2340  176.1670  140.2220 C   0  0  0  0  0  3  0  0  0  0  0  0
  181.5480  175.0160  138.6200 O   0  0  0  0  0  0  0  0  0  0  0  0
  180.8370  179.4310  141.5350 O   0  0  0  0  0  0  0  0  0  0  0  0
  182.1710  178.2830  139.9250 C   0  0  0  0  0  0  0  0  0  0  0  0
  1  8  1  0  0  0  0
  2  9  1  0  0  0  0
  5  4  1  0  0  0  0
  6 17  2  0  0  0  0
  7 11  2  0  0  0  0
  9 17  1  0  0  0  0
 10  4  1  0  0  0  0
 11 12  1  0  0  0  0
 12 21  1  0  0  0  0
 12 10  1  1  0  0  0
 13 21  1  0  0  0  0
 14 15  1  0  0  0  0
 14  1  1  0  0  0  0
 15 18  1  1  0  0  0
 15 19  1  0  0  0  0
 16  1  1  0  0  0  0
 17  7  1  0  0  0  0
 18  6  1  0  0  0  0
 19  8  1  1  0  0  0
 19  2  1  0  0  0  0
 20  5  1  0  0  0  0
 21 20  1  1  0  0  0
 22  6  1  0  0  0  0
 22  3  2  0  0  0  0
 23  3  1  1  0  0  0
 23 11  1  0  0  0  0
 23 13  1  0  0  0  0
 24 32  1  0  0  0  0
 24 13  1  0  0  0  0
 25 26  1  0  0  0  0
 25 32  2  0  0  0  0
 26 29  1  0  0  0  0
 27 28  1  0  0  0  0
 27 31  2  0  0  0  0
 29 28  2  0  0  0  0
 30 26  2  0  0  0  0
 32 27  1  0  0  0  0
M  END
>  <MODEL>
5

>  <REMARK>
 VINA RESULT:      -6.3      4.346      7.226
  Name = 
  2 active torsions:
  status: ('A' for Active; 'I' for Inactive)
    1  A    between atoms: N_16  and  C_27
    2  A    between atoms: C_27  and  C_32
                            x       y       z     vdW  Elec       q    Type
                         _______ _______ _______ _____ _____    ______ ____

>  <TORSDO>
F 2

$$$$
=
 OpenBabel10262421263D

 32 37  0  0  1  0  0  0  0  0999 V2000
  184.3420  173.7590  136.7160 N   0  0  0  0  0  0  0  0  0  0  0  0
  187.5420  175.5280  137.2190 C   0  0  0  0  0  2  0  0  0  0  0  0
  182.5490  177.5940  136.7510 C   0  0  0  0  0  3  0  0  0  0  0  0
  183.8350  178.8570  142.3740 C   0  0  0  0  0  2  0  0  0  0  0  0
  182.3030  178.8490  142.3940 C   0  0  0  0  0  2  0  0  0  0  0  0
  184.9230  176.8220  136.0020 C   0  0  0  0  0  0  0  0  0  0  0  0
  185.2460  177.9140  138.2130 N   0  0  0  0  0  0  0  0  0  0  0  0
  185.5090  174.0380  137.5490 C   0  0  0  0  0  2  0  0  0  0  0  0
  187.1700  176.9910  136.9450 C   0  0  0  0  0  2  0  0  0  0  0  0
  184.3900  178.2530  141.0910 C   0  0  0  0  0  2  0  0  0  0  0  0
  184.0630  178.2630  138.6100 C   0  0  0  0  0  0  0  0  0  0  0  0
  183.8110  179.0010  139.8820 C   0  0  1  0  0  3  0  0  0  0  0  0
  181.8240  178.7520  138.7420 N   0  0  0  0  0  0  0  0  0  0  0  0
  184.7360  173.8160  135.3610 N   0  0  0  0  0  2  0  0  0  0  0  0
  185.9470  174.6220  135.2860 C   0  0  1  0  0  3  0  0  0  0  0  0
  183.9460  172.3880  136.9830 C   0  0  0  0  0  1  0  0  0  0  0  0
  185.6960  177.2510  137.0240 C   0  0  0  0  0  0  0  0  0  0  0  0
  185.5840  176.0610  134.8870 C   0  0  0  0  0  2  0  0  0  0  0  0
  186.6300  174.4330  136.6300 C   0  0  1  0  0  3  0  0  0  0  0  0
  181.7000  178.4830  141.0360 C   0  0  0  0  0  2  0  0  0  0  0  0
  182.3390  179.2460  139.9570 N   0  0  1  0  0  0  0  0  0  0  0  0
  183.5050  176.9770  135.8950 N   0  0  0  0  0  0  0  0  0  0  0  0
  182.8130  178.1490  137.9240 C   0  0  2  0  0  3  0  0  0  0  0  0
  180.4880  179.1090  138.2720 C   0  0  0  0  0  2  0  0  0  0  0  0
  180.7610  180.6590  136.4010 C   0  0  0  0  0  3  0  0  0  0  0  0
  180.8060  182.0120  135.8180 C   0  0  0  0  0  0  0  0  0  0  0  0
  180.2590  181.6700  138.5640 C   0  0  0  0  0  0  0  0  0  0  0  0
  180.3090  183.0220  137.9790 C   0  0  0  0  0  3  0  0  0  0  0  0
  180.5670  183.1850  136.6780 C   0  0  0  0  0  3  0  0  0  0  0  0
  181.0490  182.1650  134.5940 O   0  0  0  0  0  0  0  0  0  0  0  0
  180.0160  181.5300  139.7920 O   0  0  0  0  0  0  0  0  0  0  0  0
  180.4950  180.4890  137.7010 C   0  0  0  0  0  0  0  0  0  0  0  0
  1 16  1  0  0  0  0
  1  8  1  0  0  0  0
  4  5  1  0  0  0  0
  6 17  2  0  0  0  0
  7 11  2  0  0  0  0
  9 17  1  0  0  0  0
  9  2  1  0  0  0  0
 10  4  1  0  0  0  0
 11 12  1  0  0  0  0
 12 21  1  0  0  0  0
 12 10  1  1  0  0  0
 13 21  1  0  0  0  0
 14  1  1  0  0  0  0
 15 18  1  1  0  0  0
 15 14  1  0  0  0  0
 15 19  1  0  0  0  0
 17  7  1  0  0  0  0
 18  6  1  0  0  0  0
 19  2  1  1  0  0  0
 19  8  1  0  0  0  0
 20  5  1  0  0  0  0
 21 20  1  1  0  0  0
 22  6  1  0  0  0  0
 22  3  2  0  0  0  0
 23  3  1  1  0  0  0
 23 11  1  0  0  0  0
 23 13  1  0  0  0  0
 24 13  1  0  0  0  0
 25 32  2  0  0  0  0
 26 25  1  0  0  0  0
 26 29  1  0  0  0  0
 27 31  2  0  0  0  0
 28 27  1  0  0  0  0
 29 28  2  0  0  0  0
 30 26  2  0  0  0  0
 32 24  1  0  0  0  0
 32 27  1  0  0  0  0
M  END
>  <MODEL>
6

>  <REMARK>
 VINA RESULT:      -6.1      6.309      9.438
  Name = 
  2 active torsions:
  status: ('A' for Active; 'I' for Inactive)
    1  A    between atoms: N_16  and  C_27
    2  A    between atoms: C_27  and  C_32
                            x       y       z     vdW  Elec       q    Type
                         _______ _______ _______ _____ _____    ______ ____

>  <TORSDO>
F 2

$$$$
=
 OpenBabel10262421263D

 32 37  0  0  1  0  0  0  0  0999 V2000
  191.4810  175.5530  143.5350 N   0  0  0  0  0  0  0  0  0  0  0  0
  188.1290  177.0180  143.0520 C   0  0  0  0  0  2  0  0  0  0  0  0
  192.4820  177.3480  139.8340 C   0  0  0  0  0  3  0  0  0  0  0  0
  188.8060  174.1150  136.5330 C   0  0  0  0  0  2  0  0  0  0  0  0
  190.1740  173.7100  135.9710 C   0  0  0  0  0  2  0  0  0  0  0  0
  190.7810  178.0600  141.6770 C   0  0  0  0  0  0  0  0  0  0  0  0
  189.4070  177.0950  139.8420 N   0  0  0  0  0  0  0  0  0  0  0  0
  190.0460  175.3720  143.3280 C   0  0  0  0  0  2  0  0  0  0  0  0
  188.3490  178.0020  141.8960 C   0  0  0  0  0  2  0  0  0  0  0  0
  188.9330  174.8780  137.8440 C   0  0  0  0  0  2  0  0  0  0  0  0
  190.2510  176.7020  138.9400 C   0  0  0  0  0  0  0  0  0  0  0  0
  189.8360  176.1020  137.6380 C   0  0  1  0  0  3  0  0  0  0  0  0
  192.1300  176.3280  137.6740 N   0  0  0  0  0  0  0  0  0  0  0  0
  191.6800  176.7230  144.3010 N   0  0  0  0  0  2  0  0  0  0  0  0
  190.4990  177.5610  144.1410 C   0  0  1  0  0  3  0  0  0  0  0  0
  191.9380  174.4360  144.3440 C   0  0  0  0  0  1  0  0  0  0  0  0
  189.5980  177.7250  141.1150 C   0  0  0  0  0  0  0  0  0  0  0  0
  190.7670  178.6280  143.0680 C   0  0  0  0  0  2  0  0  0  0  0  0
  189.3600  176.5920  143.8770 C   0  0  1  0  0  3  0  0  0  0  0  0
  191.3330  174.3820  136.7110 C   0  0  0  0  0  2  0  0  0  0  0  0
  191.0870  175.8200  136.8720 N   0  0  1  0  0  0  0  0  0  0  0  0
  192.0730  177.8780  141.0910 N   0  0  0  0  0  2  0  0  0  0  0  0
  191.6730  176.8450  138.9130 C   0  0  0  0  0  0  0  0  0  0  0  0
  193.4670  176.5650  137.1370 C   0  0  0  0  0  2  0  0  0  0  0  0
  194.4530  174.5600  138.1300 C   0  0  0  0  0  3  0  0  0  0  0  0
  195.2140  173.3000  138.0530 C   0  0  0  0  0  0  0  0  0  0  0  0
  194.7280  174.8060  135.7180 C   0  0  0  0  0  0  0  0  0  0  0  0
  195.4920  173.5480  135.6450 C   0  0  0  0  0  3  0  0  0  0  0  0
  195.7220  172.8340  136.7500 C   0  0  0  0  0  3  0  0  0  0  0  0
  195.4310  172.6280  139.0930 O   0  0  0  0  0  0  0  0  0  0  0  0
  194.5190  175.4710  134.6680 O   0  0  0  0  0  0  0  0  0  0  0  0
  194.2130  175.2760  137.0260 C   0  0  0  0  0  0  0  0  0  0  0  0
  1 14  1  0  0  0  0
  1 16  1  0  0  0  0
  3 22  1  0  0  0  0
  4 10  1  0  0  0  0
  5  4  1  0  0  0  0
  5 20  1  0  0  0  0
  6 18  1  0  0  0  0
  7 17  1  0  0  0  0
  8  1  1  0  0  0  0
  8 19  1  0  0  0  0
  9  2  1  0  0  0  0
 11  7  2  0  0  0  0
 12 10  1  1  0  0  0
 12 11  1  0  0  0  0
 13 23  1  0  0  0  0
 15 18  1  6  0  0  0
 15 14  1  0  0  0  0
 17  6  2  0  0  0  0
 17  9  1  0  0  0  0
 19  2  1  6  0  0  0
 19 15  1  0  0  0  0
 21 20  1  1  0  0  0
 21 12  1  0  0  0  0
 21 13  1  0  0  0  0
 22  6  1  0  0  0  0
 23 11  1  0  0  0  0
 23  3  2  0  0  0  0
 24 13  1  0  0  0  0
 26 25  1  0  0  0  0
 26 30  2  0  0  0  0
 27 32  1  0  0  0  0
 28 27  1  0  0  0  0
 28 29  2  0  0  0  0
 29 26  1  0  0  0  0
 31 27  2  0  0  0  0
 32 24  1  0  0  0  0
 32 25  2  0  0  0  0
M  END
>  <MODEL>
7

>  <REMARK>
 VINA RESULT:      -5.7      2.959      7.482
  Name = 
  2 active torsions:
  status: ('A' for Active; 'I' for Inactive)
    1  A    between atoms: N_16  and  C_27
    2  A    between atoms: C_27  and  C_32
                            x       y       z     vdW  Elec       q    Type
                         _______ _______ _______ _____ _____    ______ ____

>  <TORSDO>
F 2

$$$$
=
 OpenBabel10262421263D

 32 37  0  0  1  0  0  0  0  0999 V2000
  182.1660  176.2730  139.5990 N   0  0  0  0  0  0  0  0  0  0  0  0
  183.7460  178.9810  137.6500 C   0  0  0  0  0  2  0  0  0  0  0  0
  183.8480  178.1370  143.0070 C   0  0  0  0  0  3  0  0  0  0  0  0
  189.4900  177.1860  141.5470 C   0  0  0  0  0  2  0  0  0  0  0  0
  189.3600  176.3840  142.8470 C   0  0  0  0  0  2  0  0  0  0  0  0
  183.0490  179.1300  140.7330 C   0  0  0  0  0  0  0  0  0  0  0  0
  185.5320  179.0960  140.6070 N   0  0  0  0  0  0  0  0  0  0  0  0
  183.1380  176.7000  138.5940 C   0  0  0  0  0  2  0  0  0  0  0  0
  184.1650  179.9820  138.7340 C   0  0  0  0  0  2  0  0  0  0  0  0
  188.1320  177.6080  141.0010 C   0  0  0  0  0  2  0  0  0  0  0  0
  185.9340  178.5660  141.7190 C   0  0  0  0  0  0  0  0  0  0  0  0
  187.3740  178.4020  142.0740 C   0  0  1  0  0  3  0  0  0  0  0  0
  186.0720  177.7130  143.8470 N   0  0  0  0  0  0  0  0  0  0  0  0
  181.0440  177.1270  139.5280 N   0  0  0  0  0  2  0  0  0  0  0  0
  181.4750  178.3710  138.9030 C   0  0  1  0  0  3  0  0  0  0  0  0
  181.7130  174.9480  139.2150 C   0  0  0  0  0  1  0  0  0  0  0  0
  184.2190  179.3790  140.1050 C   0  0  0  0  0  0  0  0  0  0  0  0
  181.7740  179.4160  139.9900 C   0  0  0  0  0  2  0  0  0  0  0  0
  182.6250  177.9780  137.9920 C   0  0  1  0  0  3  0  0  0  0  0  0
  187.9410  176.4200  143.4180 C   0  0  0  0  0  2  0  0  0  0  0  0
  187.4190  177.7920  143.4370 N   0  0  1  0  0  0  0  0  0  0  0  0
  182.8960  178.5630  142.0370 N   0  0  0  0  0  0  0  0  0  0  0  0
  185.1630  178.1500  142.8490 C   0  0  2  0  0  3  0  0  0  0  0  0
  185.7050  177.5010  145.2440 C   0  0  0  0  0  2  0  0  0  0  0  0
  188.0170  177.1270  145.9450 C   0  0  0  0  0  3  0  0  0  0  0  0
  189.1720  177.3700  146.8280 C   0  0  0  0  0  0  0  0  0  0  0  0
  186.7560  178.7650  147.2420 C   0  0  0  0  0  0  0  0  0  0  0  0
  187.9120  179.0020  148.1250 C   0  0  0  0  0  3  0  0  0  0  0  0
  189.0570  178.3430  147.9290 C   0  0  0  0  0  3  0  0  0  0  0  0
  190.2500  176.7490  146.6430 O   0  0  0  0  0  0  0  0  0  0  0  0
  185.6810  179.3930  147.4390 O   0  0  0  0  0  0  0  0  0  0  0  0
  186.8700  177.7900  146.1320 C   0  0  0  0  0  0  0  0  0  0  0  0
  2  9  1  0  0  0  0
  4  5  1  0  0  0  0
  5 20  1  0  0  0  0
  6 22  1  0  0  0  0
  7 11  2  0  0  0  0
  8  1  1  0  0  0  0
  9 17  1  0  0  0  0
 10  4  1  0  0  0  0
 11 12  1  0  0  0  0
 11 23  1  0  0  0  0
 12 10  1  6  0  0  0
 12 21  1  0  0  0  0
 13 24  1  0  0  0  0
 14  1  1  0  0  0  0
 15 14  1  0  0  0  0
 15 18  1  1  0  0  0
 16  1  1  0  0  0  0
 17  7  1  0  0  0  0
 17  6  2  0  0  0  0
 18  6  1  0  0  0  0
 19  2  1  1  0  0  0
 19  8  1  0  0  0  0
 19 15  1  0  0  0  0
 21 20  1  6  0  0  0
 21 13  1  0  0  0  0
 22  3  2  0  0  0  0
 23  3  1  6  0  0  0
 23 13  1  0  0  0  0
 24 32  1  0  0  0  0
 25 32  2  0  0  0  0
 25 26  1  0  0  0  0
 26 29  1  0  0  0  0
 27 31  2  0  0  0  0
 27 28  1  0  0  0  0
 29 28  2  0  0  0  0
 30 26  2  0  0  0  0
 32 27  1  0  0  0  0
M  END
>  <MODEL>
8

>  <REMARK>
 VINA RESULT:      -5.7      6.160      9.500
  Name = 
  2 active torsions:
  status: ('A' for Active; 'I' for Inactive)
    1  A    between atoms: N_16  and  C_27
    2  A    between atoms: C_27  and  C_32
                            x       y       z     vdW  Elec       q    Type
                         _______ _______ _______ _____ _____    ______ ____

>  <TORSDO>
F 2

$$$$
=
 OpenBabel10262421263D

 32 37  0  0  1  0  0  0  0  0999 V2000
  186.6560  174.3960  136.7730 N   0  0  0  0  0  0  0  0  0  0  0  0
  189.1670  177.0650  137.2080 C   0  0  0  0  0  2  0  0  0  0  0  0
  183.7700  177.4910  136.8870 C   0  0  0  0  0  3  0  0  0  0  0  0
  184.7570  179.0880  142.4860 C   0  0  0  0  0  2  0  0  0  0  0  0
  183.3020  178.6090  142.5460 C   0  0  0  0  0  2  0  0  0  0  0  0
  186.2460  177.4890  136.0710 C   0  0  0  0  0  0  0  0  0  0  0  0
  186.2760  178.6270  138.2820 N   0  0  0  0  0  0  0  0  0  0  0  0
  187.7030  175.0210  137.5790 C   0  0  0  0  0  2  0  0  0  0  0  0
  188.3560  178.3420  136.9570 C   0  0  0  0  0  2  0  0  0  0  0  0
  185.4360  178.6850  141.1830 C   0  0  0  0  0  2  0  0  0  0  0  0
  185.0540  178.5940  138.7120 C   0  0  0  0  0  0  0  0  0  0  0  0
  184.6220  179.2180  139.9960 C   0  0  1  0  0  3  0  0  0  0  0  0
  182.7780  178.3690  138.9060 N   0  0  0  0  0  0  0  0  0  0  0  0
  186.9760  174.5720  135.4090 N   0  0  0  0  0  2  0  0  0  0  0  0
  187.8770  175.7120  135.3100 C   0  0  1  0  0  3  0  0  0  0  0  0
  186.7090  172.9690  137.0390 C   0  0  0  0  0  1  0  0  0  0  0  0
  186.8760  178.1350  137.0760 C   0  0  0  0  0  0  0  0  0  0  0  0
  187.0780  176.9690  134.9320 C   0  0  0  0  0  2  0  0  0  0  0  0
  188.6220  175.7420  136.6340 C   0  0  1  0  0  3  0  0  0  0  0  0
  182.8060  178.0750  141.2010 C   0  0  0  0  0  2  0  0  0  0  0  0
  183.1490  178.9980  140.1120 N   0  0  1  0  0  0  0  0  0  0  0  0
  184.8460  177.1990  136.0020 N   0  0  0  0  0  0  0  0  0  0  0  0
  183.8820  178.1010  138.0580 C   0  0  2  0  0  3  0  0  0  0  0  0
  181.3840  178.2970  138.4740 C   0  0  0  0  0  2  0  0  0  0  0  0
  180.7210  176.3040  139.7240 C   0  0  0  0  0  3  0  0  0  0  0  0
  180.2730  174.9030  139.8110 C   0  0  0  0  0  0  0  0  0  0  0  0
  180.6560  176.1130  137.2920 C   0  0  0  0  0  0  0  0  0  0  0  0
  180.2120  174.7110  137.3830 C   0  0  0  0  0  3  0  0  0  0  0  0
  180.0300  174.1370  138.5750 C   0  0  0  0  0  3  0  0  0  0  0  0
  180.1010  174.3620  140.9340 O   0  0  0  0  0  0  0  0  0  0  0  0
  180.8260  176.6420  136.1620 O   0  0  0  0  0  0  0  0  0  0  0  0
  180.8990  176.8860  138.5330 C   0  0  0  0  0  0  0  0  0  0  0  0
  1 16  1  0  0  0  0
  1  8  1  0  0  0  0
  4  5  1  0  0  0  0
  6 17  2  0  0  0  0
  7 11  2  0  0  0  0
  9 17  1  0  0  0  0
  9  2  1  0  0  0  0
 10  4  1  0  0  0  0
 11 12  1  0  0  0  0
 12 21  1  0  0  0  0
 12 10  1  1  0  0  0
 13 21  1  0  0  0  0
 14  1  1  0  0  0  0
 15 18  1  1  0  0  0
 15 14  1  0  0  0  0
 15 19  1  0  0  0  0
 17  7  1  0  0  0  0
 18  6  1  0  0  0  0
 19  2  1  1  0  0  0
 19  8  1  0  0  0  0
 20  5  1  0  0  0  0
 21 20  1  1  0  0  0
 22  6  1  0  0  0  0
 22  3  2  0  0  0  0
 23  3  1  1  0  0  0
 23 11  1  0  0  0  0
 23 13  1  0  0  0  0
 24 32  1  0  0  0  0
 24 13  1  0  0  0  0
 25 26  1  0  0  0  0
 26 30  2  0  0  0  0
 27 28  1  0  0  0  0
 27 32  1  0  0  0  0
 28 29  2  0  0  0  0
 29 26  1  0  0  0  0
 31 27  2  0  0  0  0
 32 25  2  0  0  0  0
M  END
>  <MODEL>
9

>  <REMARK>
 VINA RESULT:      -5.4      5.258      8.156
  Name = 
  2 active torsions:
  status: ('A' for Active; 'I' for Inactive)
    1  A    between atoms: N_16  and  C_27
    2  A    between atoms: C_27  and  C_32
                            x       y       z     vdW  Elec       q    Type
                         _______ _______ _______ _____ _____    ______ ____

>  <TORSDO>
F 2

$$$$
