=
 OpenBabel10252414573D

 34 37  0  0  1  0  0  0  0  0999 V2000
  181.9370  176.2960  136.8580 C   0  0  1  0  0  3  0  0  0  0  0  0
  184.0200  174.7480  137.1670 C   0  0  2  0  0  3  0  0  0  0  0  0
  187.8770  174.9300  135.0020 N   0  0  0  0  0  2  0  0  0  0  0  0
  184.2230  177.2810  137.2050 C   0  0  1  0  0  3  0  0  0  0  0  0
  185.6930  176.7190  134.6200 O   0  0  0  0  0  1  0  0  0  0  0  0
  180.1320  176.6180  138.5870 C   0  0  0  0  0  1  0  0  0  0  0  0
  183.4180  173.5600  136.4310 C   0  0  0  0  0  1  0  0  0  0  0  0
  186.1670  175.8250  137.5940 O   0  0  0  0  0  0  0  0  0  0  0  0
  189.2490  174.3930  136.8200 O   0  0  0  0  0  0  0  0  0  0  0  0
  188.2330  174.1240  136.1250 C   0  0  0  0  0  0  0  0  0  0  0  0
  183.4460  176.0800  136.6250 C   0  0  2  0  0  3  0  0  0  0  0  0
  188.4690  176.2240  134.6990 C   0  0  0  0  0  2  0  0  0  0  0  0
  186.3240  177.4050  135.6610 C   0  0  2  0  0  3  0  0  0  0  0  0
  181.0650  175.2860  136.1230 C   0  0  0  0  0  1  0  0  0  0  0  0
  186.2000  173.4590  137.4360 C   0  0  0  0  0  2  0  0  0  0  0  0
  183.8680  177.5170  138.6970 C   0  0  2  0  0  3  0  0  0  0  0  0
  181.6200  176.4090  138.3510 C   0  0  2  0  0  3  0  0  0  0  0  0
  185.5390  174.7460  136.9420 C   0  0  1  0  0  3  0  0  0  0  0  0
  187.8730  177.3560  135.5540 C   0  0  1  0  0  3  0  0  0  0  0  0
  185.7320  177.0470  137.0400 C   0  0  1  0  0  3  0  0  0  0  0  0
  182.3580  177.6140  138.9150 C   0  0  0  0  0  2  0  0  0  0  0  0
  187.3290  173.0000  136.5120 C   0  0  0  0  0  2  0  0  0  0  0  0
  188.6330  177.5980  136.8640 C   0  0  2  0  0  3  0  0  0  0  0  0
  188.6060  179.0720  137.2210 C   0  0  0  0  0  1  0  0  0  0  0  0
  189.9530  177.2020  136.7440 F   0  0  0  0  0  0  0  0  0  0  0  0
  183.7340  180.0320  139.0870 C   0  0  0  0  0  1  0  0  0  0  0  0
  184.5290  178.7570  139.3230 C   0  0  1  0  0  3  0  0  0  0  0  0
  184.3740  178.5310  143.1060 C   0  0  0  0  0  0  0  0  0  0  0  0
  185.7160  178.3260  143.4390 C   0  0  0  0  0  3  0  0  0  0  0  0
  184.9610  178.5870  140.7520 C   0  0  0  0  0  0  0  0  0  0  0  0
  186.6830  178.2530  142.4320 C   0  0  0  0  0  3  0  0  0  0  0  0
  183.9980  178.6630  141.7660 C   0  0  0  0  0  3  0  0  0  0  0  0
  186.3070  178.3850  141.0940 C   0  0  0  0  0  3  0  0  0  0  0  0
  183.1640  178.6280  144.3660 Cl  0  0  0  0  0  0  0  0  0  0  0  0
  1 14  1  1  0  0  0
  1 17  1  0  0  0  0
  2  7  1  6  0  0  0
  3 10  1  0  0  0  0
  4 16  1  0  0  0  0
  5 13  1  0  0  0  0
 10 22  1  0  0  0  0
 10  9  2  0  0  0  0
 11  1  1  0  0  0  0
 11  2  1  0  0  0  0
 11  4  1  0  0  0  0
 12  3  1  0  0  0  0
 12 19  1  0  0  0  0
 13 20  1  0  0  0  0
 16 21  1  0  0  0  0
 16 27  1  0  0  0  0
 17  6  1  0  0  0  0
 17 21  1  0  0  0  0
 18  2  1  0  0  0  0
 18 15  1  0  0  0  0
 18  8  1  0  0  0  0
 19 13  1  0  0  0  0
 19 23  1  0  0  0  0
 20  4  1  0  0  0  0
 20  8  1  0  0  0  0
 22 15  1  0  0  0  0
 23 24  1  0  0  0  0
 25 23  1  0  0  0  0
 26 27  1  0  0  0  0
 27 30  1  0  0  0  0
 28 29  1  0  0  0  0
 28 34  1  0  0  0  0
 30 33  2  0  0  0  0
 30 32  1  0  0  0  0
 31 29  2  0  0  0  0
 32 28  2  0  0  0  0
 33 31  1  0  0  0  0
M  END
>  <MODEL>
1

>  <REMARK>
 VINA RESULT:      -6.4      0.000      0.000
  Name = 
  3 active torsions:
  status: ('A' for Active; 'I' for Inactive)
    1  A    between atoms: C_12  and  C_28
    2  A    between atoms: C_13  and  C_29
    3  A    between atoms: C_21  and  C_28
                            x       y       z     vdW  Elec       q    Type
                         _______ _______ _______ _____ _____    ______ ____

>  <TORSDO>
F 3

$$$$
=
 OpenBabel10252414573D

 34 37  0  0  1  0  0  0  0  0999 V2000
  189.1430  177.8100  137.1270 C   0  0  1  0  0  3  0  0  0  0  0  0
  189.7430  175.3210  136.6070 C   0  0  2  0  0  3  0  0  0  0  0  0
  193.6240  173.7020  135.2240 N   0  0  0  0  0  2  0  0  0  0  0  0
  191.1840  176.7480  138.1380 C   0  0  1  0  0  3  0  0  0  0  0  0
  193.1050  176.4380  135.8200 O   0  0  0  0  0  1  0  0  0  0  0  0
  187.2240  178.5370  138.5910 C   0  0  0  0  0  1  0  0  0  0  0  0
  189.0080  175.2790  135.2750 C   0  0  0  0  0  1  0  0  0  0  0  0
  191.6940  174.3780  137.7270 O   0  0  0  0  0  0  0  0  0  0  0  0
  193.5630  171.7200  136.4670 O   0  0  0  0  0  0  0  0  0  0  0  0
  192.9800  172.5120  135.6810 C   0  0  0  0  0  0  0  0  0  0  0  0
  190.2450  176.7530  136.9130 C   0  0  2  0  0  3  0  0  0  0  0  0
  194.8600  174.2300  135.7790 C   0  0  0  0  0  2  0  0  0  0  0  0
  193.4700  176.0280  137.1050 C   0  0  2  0  0  3  0  0  0  0  0  0
  188.2990  178.0600  135.8840 C   0  0  0  0  0  1  0  0  0  0  0  0
  190.5660  172.9430  136.2130 C   0  0  0  0  0  2  0  0  0  0  0  0
  190.3930  176.5410  139.4560 C   0  0  2  0  0  3  0  0  0  0  0  0
  188.3150  177.5000  138.3770 C   0  0  2  0  0  3  0  0  0  0  0  0
  190.9600  174.3870  136.5260 C   0  0  1  0  0  3  0  0  0  0  0  0
  194.6320  174.9970  137.0940 C   0  0  1  0  0  3  0  0  0  0  0  0
  192.2470  175.6530  137.9680 C   0  0  1  0  0  3  0  0  0  0  0  0
  189.2350  177.5310  139.5890 C   0  0  0  0  0  2  0  0  0  0  0  0
  191.5650  172.2650  135.2720 C   0  0  0  0  0  2  0  0  0  0  0  0
  194.7450  174.1150  138.3430 C   0  0  2  0  0  3  0  0  0  0  0  0
  195.4320  174.8760  139.4610 C   0  0  0  0  0  1  0  0  0  0  0  0
  195.4830  172.9760  138.0730 F   0  0  0  0  0  0  0  0  0  0  0  0
  192.3410  177.6730  140.6490 C   0  0  0  0  0  1  0  0  0  0  0  0
  191.2470  176.6210  140.7340 C   0  0  1  0  0  3  0  0  0  0  0  0
  190.4440  176.8520  144.4340 C   0  0  0  0  0  0  0  0  0  0  0  0
  189.0500  176.7670  144.4340 C   0  0  0  0  0  3  0  0  0  0  0  0
  190.4610  176.6880  142.0130 C   0  0  0  0  0  0  0  0  0  0  0  0
  188.3570  176.6410  143.2260 C   0  0  0  0  0  3  0  0  0  0  0  0
  191.1490  176.8100  143.2270 C   0  0  0  0  0  3  0  0  0  0  0  0
  189.0600  176.5990  142.0200 C   0  0  0  0  0  3  0  0  0  0  0  0
  191.3120  177.0060  145.9450 Cl  0  0  0  0  0  0  0  0  0  0  0  0
  1 14  1  6  0  0  0
  1 17  1  0  0  0  0
  2  7  1  6  0  0  0
  2 11  1  0  0  0  0
  3 10  1  0  0  0  0
  3 12  1  0  0  0  0
  4 16  1  0  0  0  0
  5 13  1  0  0  0  0
  8 20  1  0  0  0  0
 10  9  2  0  0  0  0
 11  1  1  0  0  0  0
 11  4  1  0  0  0  0
 12 19  1  0  0  0  0
 13 20  1  0  0  0  0
 15 18  1  0  0  0  0
 16 21  1  0  0  0  0
 16 27  1  0  0  0  0
 17  6  1  0  0  0  0
 17 21  1  0  0  0  0
 18  2  1  0  0  0  0
 18  8  1  0  0  0  0
 19 13  1  0  0  0  0
 19 23  1  0  0  0  0
 20  4  1  0  0  0  0
 22 10  1  0  0  0  0
 22 15  1  0  0  0  0
 23 24  1  0  0  0  0
 25 23  1  0  0  0  0
 26 27  1  0  0  0  0
 27 30  1  0  0  0  0
 28 29  1  0  0  0  0
 28 34  1  0  0  0  0
 30 33  2  0  0  0  0
 30 32  1  0  0  0  0
 31 29  2  0  0  0  0
 32 28  2  0  0  0  0
 33 31  1  0  0  0  0
M  END
>  <MODEL>
2

>  <REMARK>
 VINA RESULT:      -6.1      4.594      6.551
  Name = 
  3 active torsions:
  status: ('A' for Active; 'I' for Inactive)
    1  A    between atoms: C_12  and  C_28
    2  A    between atoms: C_13  and  C_29
    3  A    between atoms: C_21  and  C_28
                            x       y       z     vdW  Elec       q    Type
                         _______ _______ _______ _____ _____    ______ ____

>  <TORSDO>
F 3

$$$$
=
 OpenBabel10252414573D

 34 37  0  0  1  0  0  0  0  0999 V2000
  180.9830  179.1780  141.8380 C   0  0  1  0  0  3  0  0  0  0  0  0
  180.9490  176.9080  140.5440 C   0  0  2  0  0  3  0  0  0  0  0  0
  181.9270  176.2030  136.2840 N   0  0  0  0  0  2  0  0  0  0  0  0
  182.9680  178.4500  140.4790 C   0  0  1  0  0  3  0  0  0  0  0  0
  182.0600  178.7240  137.6040 O   0  0  0  0  0  1  0  0  0  0  0  0
  181.1590  179.3870  144.3430 C   0  0  0  0  0  1  0  0  0  0  0  0
  179.4330  176.8390  140.4290 C   0  0  0  0  0  1  0  0  0  0  0  0
  182.9740  176.2700  139.3410 O   0  0  0  0  0  0  0  0  0  0  0  0
  183.0060  174.1470  136.5770 O   0  0  0  0  0  0  0  0  0  0  0  0
  182.0040  174.8760  136.8040 C   0  0  0  0  0  0  0  0  0  0  0  0
  181.4310  178.3790  140.5980 C   0  0  2  0  0  3  0  0  0  0  0  0
  183.0430  176.9120  135.6770 C   0  0  0  0  0  2  0  0  0  0  0  0
  183.3520  178.2820  137.9030 C   0  0  2  0  0  3  0  0  0  0  0  0
  179.4730  179.3650  141.9200 C   0  0  0  0  0  1  0  0  0  0  0  0
  181.1370  174.7800  139.1570 C   0  0  0  0  0  2  0  0  0  0  0  0
  183.6580  177.9780  141.7850 C   0  0  2  0  0  3  0  0  0  0  0  0
  181.6000  178.6050  143.1170 C   0  0  2  0  0  3  0  0  0  0  0  0
  181.5660  176.2400  139.3060 C   0  0  1  0  0  3  0  0  0  0  0  0
  184.0020  177.5030  136.7260 C   0  0  1  0  0  3  0  0  0  0  0  0
  183.4320  177.6030  139.2860 C   0  0  1  0  0  3  0  0  0  0  0  0
  183.1140  178.7080  143.0140 C   0  0  0  0  0  2  0  0  0  0  0  0
  180.9050  174.3940  137.6950 C   0  0  0  0  0  2  0  0  0  0  0  0
  185.1430  176.5540  137.1130 C   0  0  2  0  0  3  0  0  0  0  0  0
  186.3870  177.3480  137.4680 C   0  0  0  0  0  1  0  0  0  0  0  0
  185.4520  175.7060  136.0630 F   0  0  0  0  0  0  0  0  0  0  0  0
  185.6730  179.3780  141.0910 C   0  0  0  0  0  1  0  0  0  0  0  0
  185.1910  178.1120  141.7820 C   0  0  1  0  0  3  0  0  0  0  0  0
  185.7770  178.1110  145.5300 C   0  0  0  0  0  0  0  0  0  0  0  0
  187.0410  177.5210  145.6260 C   0  0  0  0  0  3  0  0  0  0  0  0
  185.8460  177.8810  143.1160 C   0  0  0  0  0  0  0  0  0  0  0  0
  187.7100  177.1120  144.4690 C   0  0  0  0  0  3  0  0  0  0  0  0
  185.1820  178.2920  144.2780 C   0  0  0  0  0  3  0  0  0  0  0  0
  187.1160  177.2930  143.2180 C   0  0  0  0  0  3  0  0  0  0  0  0
  184.9400  178.6270  146.9770 Cl  0  0  0  0  0  0  0  0  0  0  0  0
  1 14  1  1  0  0  0
  1 17  1  0  0  0  0
  2  7  1  6  0  0  0
  2 11  1  0  0  0  0
  3 10  1  0  0  0  0
  4 11  1  0  0  0  0
  4 16  1  0  0  0  0
  5 13  1  0  0  0  0
  9 10  2  0  0  0  0
 10 22  1  0  0  0  0
 11  1  1  0  0  0  0
 12  3  1  0  0  0  0
 12 19  1  0  0  0  0
 13 20  1  0  0  0  0
 15 18  1  0  0  0  0
 16 21  1  0  0  0  0
 17  6  1  0  0  0  0
 18  8  1  0  0  0  0
 18  2  1  0  0  0  0
 19 23  1  0  0  0  0
 19 13  1  0  0  0  0
 20  8  1  0  0  0  0
 20  4  1  0  0  0  0
 21 17  1  0  0  0  0
 22 15  1  0  0  0  0
 23 24  1  0  0  0  0
 25 23  1  0  0  0  0
 26 27  1  0  0  0  0
 27 16  1  0  0  0  0
 27 30  1  0  0  0  0
 28 29  1  0  0  0  0
 28 34  1  0  0  0  0
 30 33  2  0  0  0  0
 30 32  1  0  0  0  0
 31 29  2  0  0  0  0
 32 28  2  0  0  0  0
 33 31  1  0  0  0  0
M  END
>  <MODEL>
3

>  <REMARK>
 VINA RESULT:      -6.0      2.758      4.639
  Name = 
  3 active torsions:
  status: ('A' for Active; 'I' for Inactive)
    1  A    between atoms: C_12  and  C_28
    2  A    between atoms: C_13  and  C_29
    3  A    between atoms: C_21  and  C_28
                            x       y       z     vdW  Elec       q    Type
                         _______ _______ _______ _____ _____    ______ ____

>  <TORSDO>
F 3

$$$$
=
 OpenBabel10252414573D

 34 37  0  0  1  0  0  0  0  0999 V2000
  181.9780  172.6050  137.2990 C   0  0  1  0  0  3  0  0  0  0  0  0
  181.2740  174.9620  136.4180 C   0  0  2  0  0  3  0  0  0  0  0  0
  180.6250  178.6530  138.7740 N   0  0  0  0  0  2  0  0  0  0  0  0
  183.2810  174.6540  137.9460 C   0  0  1  0  0  3  0  0  0  0  0  0
  181.4560  176.1470  139.8430 O   0  0  0  0  0  1  0  0  0  0  0  0
  183.0400  170.8120  135.8810 C   0  0  0  0  0  1  0  0  0  0  0  0
  179.8150  174.5930  136.1940 C   0  0  0  0  0  1  0  0  0  0  0  0
  182.6770  176.8590  137.0370 O   0  0  0  0  0  0  0  0  0  0  0  0
  181.5340  180.1460  137.2180 O   0  0  0  0  0  0  0  0  0  0  0  0
  180.7500  179.1890  137.4570 C   0  0  0  0  0  0  0  0  0  0  0  0
  181.8840  174.1210  137.5660 C   0  0  2  0  0  3  0  0  0  0  0  0
  181.5210  178.9670  139.8760 C   0  0  0  0  0  2  0  0  0  0  0  0
  182.7210  176.6510  139.5300 C   0  0  2  0  0  3  0  0  0  0  0  0
  180.6190  171.9360  137.1420 C   0  0  0  0  0  1  0  0  0  0  0  0
  180.7570  177.3610  135.7380 C   0  0  0  0  0  2  0  0  0  0  0  0
  184.3370  174.2940  136.8670 C   0  0  2  0  0  3  0  0  0  0  0  0
  182.9460  172.3050  136.1510 C   0  0  2  0  0  3  0  0  0  0  0  0
  181.3510  176.4450  136.8090 C   0  0  1  0  0  3  0  0  0  0  0  0
  182.8390  178.1760  139.8040 C   0  0  1  0  0  3  0  0  0  0  0  0
  183.2140  176.1750  138.1480 C   0  0  1  0  0  3  0  0  0  0  0  0
  184.3310  172.8000  136.5410 C   0  0  0  0  0  2  0  0  0  0  0  0
  179.9920  178.5380  136.3470 C   0  0  0  0  0  2  0  0  0  0  0  0
  183.9460  178.9020  139.0300 C   0  0  2  0  0  3  0  0  0  0  0  0
  185.2960  178.6280  139.6650 C   0  0  0  0  0  1  0  0  0  0  0  0
  183.7310  180.2690  139.0350 F   0  0  0  0  0  0  0  0  0  0  0  0
  186.7560  173.5460  137.1570 C   0  0  0  0  0  1  0  0  0  0  0  0
  185.7760  174.7070  137.2180 C   0  0  1  0  0  3  0  0  0  0  0  0
  187.7270  177.8750  136.4820 C   0  0  0  0  0  0  0  0  0  0  0  0
  187.1950  178.2640  135.2490 C   0  0  0  0  0  3  0  0  0  0  0  0
  186.2710  175.9350  136.5070 C   0  0  0  0  0  0  0  0  0  0  0  0
  186.2000  177.4910  134.6430 C   0  0  0  0  0  3  0  0  0  0  0  0
  187.2650  176.7150  137.1100 C   0  0  0  0  0  3  0  0  0  0  0  0
  185.7370  176.3320  135.2710 C   0  0  0  0  0  3  0  0  0  0  0  0
  188.9700  178.8440  137.2420 Cl  0  0  0  0  0  0  0  0  0  0  0  0
  1 14  1  6  0  0  0
  1 11  1  0  0  0  0
  2  7  1  1  0  0  0
  2 18  1  0  0  0  0
  2 11  1  0  0  0  0
  3 12  1  0  0  0  0
  4 20  1  0  0  0  0
  6 17  1  0  0  0  0
  8 20  1  0  0  0  0
  9 10  2  0  0  0  0
 10  3  1  0  0  0  0
 11  4  1  0  0  0  0
 13 19  1  0  0  0  0
 13  5  1  0  0  0  0
 15 22  1  0  0  0  0
 15 18  1  0  0  0  0
 16 27  1  0  0  0  0
 16  4  1  0  0  0  0
 17 21  1  0  0  0  0
 17  1  1  0  0  0  0
 18  8  1  0  0  0  0
 19 12  1  0  0  0  0
 20 13  1  0  0  0  0
 21 16  1  0  0  0  0
 22 10  1  0  0  0  0
 23 25  1  0  0  0  0
 23 24  1  0  0  0  0
 23 19  1  0  0  0  0
 26 27  1  0  0  0  0
 28 32  1  0  0  0  0
 28 34  1  0  0  0  0
 29 28  2  0  0  0  0
 30 32  2  0  0  0  0
 30 27  1  0  0  0  0
 31 29  1  0  0  0  0
 31 33  2  0  0  0  0
 33 30  1  0  0  0  0
M  END
>  <MODEL>
4

>  <REMARK>
 VINA RESULT:      -5.4      3.354      6.334
  Name = 
  3 active torsions:
  status: ('A' for Active; 'I' for Inactive)
    1  A    between atoms: C_12  and  C_28
    2  A    between atoms: C_13  and  C_29
    3  A    between atoms: C_21  and  C_28
                            x       y       z     vdW  Elec       q    Type
                         _______ _______ _______ _____ _____    ______ ____

>  <TORSDO>
F 3

$$$$
=
 OpenBabel10252414573D

 34 37  0  0  1  0  0  0  0  0999 V2000
  187.5850  178.1790  138.4680 C   0  0  1  0  0  3  0  0  0  0  0  0
  187.7990  175.7280  137.5880 C   0  0  2  0  0  3  0  0  0  0  0  0
  190.6820  174.1580  134.6190 N   0  0  0  0  0  2  0  0  0  0  0  0
  189.8090  177.0080  138.4710 C   0  0  1  0  0  3  0  0  0  0  0  0
  190.5860  176.8480  135.5500 O   0  0  0  0  0  1  0  0  0  0  0  0
  186.4780  178.8210  140.6390 C   0  0  0  0  0  1  0  0  0  0  0  0
  186.5790  175.8020  136.6810 C   0  0  0  0  0  1  0  0  0  0  0  0
  189.9910  174.6690  137.7340 O   0  0  0  0  0  0  0  0  0  0  0  0
  191.0460  172.0860  135.6450 O   0  0  0  0  0  0  0  0  0  0  0  0
  190.2290  172.9470  135.2240 C   0  0  0  0  0  0  0  0  0  0  0  0
  188.4500  177.1240  137.7490 C   0  0  2  0  0  3  0  0  0  0  0  0
  192.0610  174.6210  134.6430 C   0  0  0  0  0  2  0  0  0  0  0  0
  191.4280  176.3320  136.5390 C   0  0  2  0  0  3  0  0  0  0  0  0
  186.3160  178.5390  137.7050 C   0  0  0  0  0  1  0  0  0  0  0  0
  188.2720  173.3760  136.7350 C   0  0  0  0  0  2  0  0  0  0  0  0
  189.6230  176.7110  139.9820 C   0  0  2  0  0  3  0  0  0  0  0  0
  187.3330  177.7860  139.9260 C   0  0  2  0  0  3  0  0  0  0  0  0
  188.8280  174.7840  136.9490 C   0  0  1  0  0  3  0  0  0  0  0  0
  192.4320  175.2870  135.9810 C   0  0  1  0  0  3  0  0  0  0  0  0
  190.6530  175.9120  137.8060 C   0  0  1  0  0  3  0  0  0  0  0  0
  188.6710  177.7070  140.6460 C   0  0  0  0  0  2  0  0  0  0  0  0
  188.7610  172.7560  135.4240 C   0  0  0  0  0  2  0  0  0  0  0  0
  193.0080  174.3080  137.0110 C   0  0  2  0  0  3  0  0  0  0  0  0
  194.1080  174.9780  137.8130 C   0  0  0  0  0  1  0  0  0  0  0  0
  193.5410  173.1950  136.3850 F   0  0  0  0  0  0  0  0  0  0  0  0
  192.0500  177.4720  140.1420 C   0  0  0  0  0  1  0  0  0  0  0  0
  190.9300  176.6770  140.7930 C   0  0  1  0  0  3  0  0  0  0  0  0
  190.9700  178.5480  144.0920 C   0  0  0  0  0  0  0  0  0  0  0  0
  190.5390  177.5660  144.9880 C   0  0  0  0  0  3  0  0  0  0  0  0
  190.7700  176.9730  142.2580 C   0  0  0  0  0  0  0  0  0  0  0  0
  190.2250  176.2860  144.5230 C   0  0  0  0  0  3  0  0  0  0  0  0
  191.0870  178.2520  142.7310 C   0  0  0  0  0  3  0  0  0  0  0  0
  190.3420  175.9900  143.1630 C   0  0  0  0  0  3  0  0  0  0  0  0
  191.3680  180.1500  144.6740 Cl  0  0  0  0  0  0  0  0  0  0  0  0
  1 14  1  6  0  0  0
  1 17  1  0  0  0  0
  2  7  1  6  0  0  0
  2 11  1  0  0  0  0
  3 12  1  0  0  0  0
  3 10  1  0  0  0  0
  4 16  1  0  0  0  0
  5 13  1  0  0  0  0
  8 20  1  0  0  0  0
 10 22  1  0  0  0  0
 10  9  2  0  0  0  0
 11  1  1  0  0  0  0
 11  4  1  0  0  0  0
 12 19  1  0  0  0  0
 13 20  1  0  0  0  0
 15 18  1  0  0  0  0
 16 21  1  0  0  0  0
 16 27  1  0  0  0  0
 17  6  1  0  0  0  0
 17 21  1  0  0  0  0
 18  2  1  0  0  0  0
 18  8  1  0  0  0  0
 19 13  1  0  0  0  0
 19 23  1  0  0  0  0
 20  4  1  0  0  0  0
 22 15  1  0  0  0  0
 23 24  1  0  0  0  0
 25 23  1  0  0  0  0
 26 27  1  0  0  0  0
 27 30  1  0  0  0  0
 28 34  1  0  0  0  0
 28 29  1  0  0  0  0
 30 32  1  0  0  0  0
 30 33  2  0  0  0  0
 31 29  2  0  0  0  0
 32 28  2  0  0  0  0
 33 31  1  0  0  0  0
M  END
>  <MODEL>
5

>  <REMARK>
 VINA RESULT:      -5.3      3.663      5.481
  Name = 
  3 active torsions:
  status: ('A' for Active; 'I' for Inactive)
    1  A    between atoms: C_12  and  C_28
    2  A    between atoms: C_13  and  C_29
    3  A    between atoms: C_21  and  C_28
                            x       y       z     vdW  Elec       q    Type
                         _______ _______ _______ _____ _____    ______ ____

>  <TORSDO>
F 3

$$$$
=
 OpenBabel10252414573D

 34 37  0  0  1  0  0  0  0  0999 V2000
  192.2500  174.4830  135.7980 C   0  0  1  0  0  3  0  0  0  0  0  0
  190.7980  175.6010  137.6600 C   0  0  2  0  0  3  0  0  0  0  0  0
  187.9840  178.9920  137.2320 N   0  0  0  0  0  2  0  0  0  0  0  0
  189.7820  174.8240  135.4640 C   0  0  1  0  0  3  0  0  0  0  0  0
  189.4710  177.8140  135.1070 O   0  0  0  0  0  1  0  0  0  0  0  0
  193.2080  172.1560  135.9430 C   0  0  0  0  0  1  0  0  0  0  0  0
  191.9530  176.3620  138.2950 C   0  0  0  0  0  1  0  0  0  0  0  0
  188.3990  175.7870  137.2550 O   0  0  0  0  0  0  0  0  0  0  0  0
  186.3610  178.2040  138.7220 O   0  0  0  0  0  0  0  0  0  0  0  0
  187.5730  178.4540  138.4890 C   0  0  0  0  0  0  0  0  0  0  0  0
  191.0480  175.3830  136.1480 C   0  0  2  0  0  3  0  0  0  0  0  0
  187.1310  179.0720  136.0560 C   0  0  0  0  0  2  0  0  0  0  0  0
  188.3570  176.9720  135.0520 C   0  0  2  0  0  3  0  0  0  0  0  0
  193.5870  175.0700  136.2300 C   0  0  0  0  0  1  0  0  0  0  0  0
  189.1880  176.7100  139.2930 C   0  0  0  0  0  2  0  0  0  0  0  0
  189.5510  173.3350  135.8330 C   0  0  2  0  0  3  0  0  0  0  0  0
  192.0240  173.0480  136.2820 C   0  0  2  0  0  3  0  0  0  0  0  0
  189.5150  176.4290  137.8250 C   0  0  1  0  0  3  0  0  0  0  0  0
  187.0260  177.7270  135.3150 C   0  0  1  0  0  3  0  0  0  0  0  0
  188.5660  175.6730  135.8590 C   0  0  1  0  0  3  0  0  0  0  0  0
  190.7970  172.4850  135.5810 C   0  0  0  0  0  2  0  0  0  0  0  0
  188.6220  178.1170  139.4970 C   0  0  0  0  0  2  0  0  0  0  0  0
  185.8560  176.8580  135.7930 C   0  0  2  0  0  3  0  0  0  0  0  0
  185.1730  176.2020  134.6070 C   0  0  0  0  0  1  0  0  0  0  0  0
  184.9210  177.6230  136.4670 F   0  0  0  0  0  0  0  0  0  0  0  0
  188.6840  171.2830  134.5940 C   0  0  0  0  0  1  0  0  0  0  0  0
  188.3620  172.6750  135.1130 C   0  0  1  0  0  3  0  0  0  0  0  0
  184.6340  172.7970  135.8060 C   0  0  0  0  0  0  0  0  0  0  0  0
  184.6010  172.9090  137.1980 C   0  0  0  0  0  3  0  0  0  0  0  0
  187.0590  172.7400  135.8610 C   0  0  0  0  0  0  0  0  0  0  0  0
  185.7950  172.9370  137.9250 C   0  0  0  0  0  3  0  0  0  0  0  0
  185.8600  172.7160  135.1380 C   0  0  0  0  0  3  0  0  0  0  0  0
  187.0200  172.8560  137.2590 C   0  0  0  0  0  3  0  0  0  0  0  0
  183.1410  172.7650  134.8940 Cl  0  0  0  0  0  0  0  0  0  0  0  0
  1 11  1  0  0  0  0
  1 14  1  1  0  0  0
  1 17  1  0  0  0  0
  2 18  1  0  0  0  0
  2  7  1  6  0  0  0
  3 10  1  0  0  0  0
  4 16  1  0  0  0  0
  4 20  1  0  0  0  0
  4 11  1  0  0  0  0
  6 17  1  0  0  0  0
  8 18  1  0  0  0  0
 10  9  2  0  0  0  0
 10 22  1  0  0  0  0
 11  2  1  0  0  0  0
 12  3  1  0  0  0  0
 13  5  1  0  0  0  0
 13 19  1  0  0  0  0
 13 20  1  0  0  0  0
 15 22  1  0  0  0  0
 18 15  1  0  0  0  0
 19 23  1  0  0  0  0
 19 12  1  0  0  0  0
 20  8  1  0  0  0  0
 21 16  1  0  0  0  0
 21 17  1  0  0  0  0
 23 25  1  0  0  0  0
 24 23  1  0  0  0  0
 26 27  1  0  0  0  0
 27 16  1  0  0  0  0
 27 30  1  0  0  0  0
 28 29  1  0  0  0  0
 29 31  2  0  0  0  0
 30 33  2  0  0  0  0
 32 28  2  0  0  0  0
 32 30  1  0  0  0  0
 33 31  1  0  0  0  0
 34 28  1  0  0  0  0
M  END
>  <MODEL>
6

>  <REMARK>
 VINA RESULT:      -5.3      3.822      7.592
  Name = 
  3 active torsions:
  status: ('A' for Active; 'I' for Inactive)
    1  A    between atoms: C_12  and  C_28
    2  A    between atoms: C_13  and  C_29
    3  A    between atoms: C_21  and  C_28
                            x       y       z     vdW  Elec       q    Type
                         _______ _______ _______ _____ _____    ______ ____

>  <TORSDO>
F 3

$$$$
=
 OpenBabel10252414573D

 34 37  0  0  1  0  0  0  0  0999 V2000
  183.9130  179.3960  139.5400 C   0  0  1  0  0  3  0  0  0  0  0  0
  184.6600  177.3180  138.1440 C   0  0  2  0  0  3  0  0  0  0  0  0
  188.0600  177.0280  135.3250 N   0  0  0  0  0  2  0  0  0  0  0  0
  186.3030  178.6200  139.5790 C   0  0  1  0  0  3  0  0  0  0  0  0
  187.3790  179.3390  136.8430 O   0  0  0  0  0  1  0  0  0  0  0  0
  182.4990  179.2790  141.6230 C   0  0  0  0  0  1  0  0  0  0  0  0
  183.5420  177.4340  137.1180 C   0  0  0  0  0  1  0  0  0  0  0  0
  186.9850  176.6060  138.3430 O   0  0  0  0  0  0  0  0  0  0  0  0
  188.6970  174.8430  135.8720 O   0  0  0  0  0  0  0  0  0  0  0  0
  187.7800  175.6470  135.5560 C   0  0  0  0  0  0  0  0  0  0  0  0
  185.0240  178.7080  138.7210 C   0  0  2  0  0  3  0  0  0  0  0  0
  189.3210  177.6750  135.6520 C   0  0  0  0  0  2  0  0  0  0  0  0
  188.2010  178.7220  137.7910 C   0  0  2  0  0  3  0  0  0  0  0  0
  182.6810  179.7410  138.7130 C   0  0  0  0  0  1  0  0  0  0  0  0
  185.6390  175.3660  136.8340 C   0  0  0  0  0  2  0  0  0  0  0  0
  186.0280  177.9190  140.9350 C   0  0  2  0  0  3  0  0  0  0  0  0
  183.5960  178.6070  140.8140 C   0  0  2  0  0  3  0  0  0  0  0  0
  185.9030  176.7400  137.4510 C   0  0  1  0  0  3  0  0  0  0  0  0
  189.4300  178.0230  137.1480 C   0  0  1  0  0  3  0  0  0  0  0  0
  187.3960  177.8760  138.7990 C   0  0  1  0  0  3  0  0  0  0  0  0
  184.8480  178.5520  141.6750 C   0  0  0  0  0  2  0  0  0  0  0  0
  186.3600  175.1880  135.4960 C   0  0  0  0  0  2  0  0  0  0  0  0
  190.0730  176.9120  137.9880 C   0  0  2  0  0  3  0  0  0  0  0  0
  190.7340  177.5030  139.2190 C   0  0  0  0  0  1  0  0  0  0  0  0
  191.0350  176.2400  137.2560 F   0  0  0  0  0  0  0  0  0  0  0  0
  188.3140  178.8830  141.5220 C   0  0  0  0  0  1  0  0  0  0  0  0
  187.2330  177.8790  141.8910 C   0  0  1  0  0  3  0  0  0  0  0  0
  187.5400  177.5150  145.6540 C   0  0  0  0  0  0  0  0  0  0  0  0
  186.2610  177.8780  146.0860 C   0  0  0  0  0  3  0  0  0  0  0  0
  186.8790  177.9020  143.3520 C   0  0  0  0  0  0  0  0  0  0  0  0
  185.2890  178.2510  145.1530 C   0  0  0  0  0  3  0  0  0  0  0  0
  187.8480  177.5250  144.2910 C   0  0  0  0  0  3  0  0  0  0  0  0
  185.5960  178.2610  143.7910 C   0  0  0  0  0  3  0  0  0  0  0  0
  188.7560  177.0440  146.8200 Cl  0  0  0  0  0  0  0  0  0  0  0  0
  1 14  1  6  0  0  0
  1 17  1  0  0  0  0
  2  7  1  6  0  0  0
  2 11  1  0  0  0  0
  3 10  1  0  0  0  0
  3 12  1  0  0  0  0
  4 16  1  0  0  0  0
  5 13  1  0  0  0  0
  8 20  1  0  0  0  0
 10  9  2  0  0  0  0
 11  1  1  0  0  0  0
 11  4  1  0  0  0  0
 12 19  1  0  0  0  0
 13 20  1  0  0  0  0
 15 18  1  0  0  0  0
 16 21  1  0  0  0  0
 16 27  1  0  0  0  0
 17  6  1  0  0  0  0
 17 21  1  0  0  0  0
 18  2  1  0  0  0  0
 18  8  1  0  0  0  0
 19 13  1  0  0  0  0
 19 23  1  0  0  0  0
 20  4  1  0  0  0  0
 22 10  1  0  0  0  0
 22 15  1  0  0  0  0
 23 24  1  0  0  0  0
 25 23  1  0  0  0  0
 26 27  1  0  0  0  0
 27 30  1  0  0  0  0
 28 29  1  0  0  0  0
 28 34  1  0  0  0  0
 30 33  2  0  0  0  0
 30 32  1  0  0  0  0
 31 29  2  0  0  0  0
 32 28  2  0  0  0  0
 33 31  1  0  0  0  0
M  END
>  <MODEL>
7

>  <REMARK>
 VINA RESULT:      -5.2      2.100      3.438
  Name = 
  3 active torsions:
  status: ('A' for Active; 'I' for Inactive)
    1  A    between atoms: C_12  and  C_28
    2  A    between atoms: C_13  and  C_29
    3  A    between atoms: C_21  and  C_28
                            x       y       z     vdW  Elec       q    Type
                         _______ _______ _______ _____ _____    ______ ____

>  <TORSDO>
F 3

$$$$
=
 OpenBabel10252414573D

 34 37  0  0  1  0  0  0  0  0999 V2000
  186.6070  176.2740  136.9990 C   0  0  1  0  0  3  0  0  0  0  0  0
  184.2670  176.3390  135.8400 C   0  0  2  0  0  3  0  0  0  0  0  0
  180.4720  174.5850  137.2950 N   0  0  0  0  0  2  0  0  0  0  0  0
  184.5720  177.0290  138.2660 C   0  0  1  0  0  3  0  0  0  0  0  0
  182.9580  174.5030  138.6830 O   0  0  0  0  0  1  0  0  0  0  0  0
  188.4810  177.8890  136.5160 C   0  0  0  0  0  1  0  0  0  0  0  0
  184.6020  175.2840  134.7950 C   0  0  0  0  0  1  0  0  0  0  0  0
  182.3880  177.1830  137.1470 O   0  0  0  0  0  0  0  0  0  0  0  0
  179.0650  176.3070  136.5660 O   0  0  0  0  0  0  0  0  0  0  0  0
  179.9900  175.4920  136.3040 C   0  0  0  0  0  0  0  0  0  0  0  0
  185.0800  176.1090  137.1370 C   0  0  2  0  0  3  0  0  0  0  0  0
  180.1420  174.6630  138.7100 C   0  0  0  0  0  2  0  0  0  0  0  0
  182.5020  175.7270  139.1780 C   0  0  2  0  0  3  0  0  0  0  0  0
  187.2430  175.2460  136.0720 C   0  0  0  0  0  1  0  0  0  0  0  0
  181.8810  176.4370  134.9530 C   0  0  0  0  0  2  0  0  0  0  0  0
  185.0030  178.5010  138.0330 C   0  0  2  0  0  3  0  0  0  0  0  0
  186.9770  177.7200  136.6570 C   0  0  2  0  0  3  0  0  0  0  0  0
  182.7730  176.2350  136.1790 C   0  0  1  0  0  3  0  0  0  0  0  0
  180.9720  175.7280  139.4480 C   0  0  1  0  0  3  0  0  0  0  0  0
  183.0440  176.9230  138.3680 C   0  0  1  0  0  3  0  0  0  0  0  0
  186.5070  178.6230  137.7880 C   0  0  0  0  0  2  0  0  0  0  0  0
  180.6610  175.5140  134.9700 C   0  0  0  0  0  2  0  0  0  0  0  0
  180.3070  177.1100  139.4750 C   0  0  2  0  0  3  0  0  0  0  0  0
  180.6360  177.8240  140.7720 C   0  0  0  0  0  1  0  0  0  0  0  0
  178.9320  176.9930  139.3780 F   0  0  0  0  0  0  0  0  0  0  0  0
  183.1720  179.9290  139.0850 C   0  0  0  0  0  1  0  0  0  0  0  0
  184.6180  179.4670  139.1670 C   0  0  1  0  0  3  0  0  0  0  0  0
  184.3970  178.6090  142.8560 C   0  0  0  0  0  0  0  0  0  0  0  0
  185.7090  178.2200  143.1420 C   0  0  0  0  0  3  0  0  0  0  0  0
  185.0150  179.0110  140.5440 C   0  0  0  0  0  0  0  0  0  0  0  0
  186.6760  178.2270  142.1320 C   0  0  0  0  0  3  0  0  0  0  0  0
  184.0510  179.0060  141.5610 C   0  0  0  0  0  3  0  0  0  0  0  0
  186.3300  178.6240  140.8390 C   0  0  0  0  0  3  0  0  0  0  0  0
  183.1880  178.6040  144.1200 Cl  0  0  0  0  0  0  0  0  0  0  0  0
  1 14  1  6  0  0  0
  1 11  1  0  0  0  0
  2  7  1  6  0  0  0
  2 18  1  0  0  0  0
  2 11  1  0  0  0  0
  3 12  1  0  0  0  0
  4 20  1  0  0  0  0
  5 13  1  0  0  0  0
  6 17  1  0  0  0  0
  8 20  1  0  0  0  0
 10  9  2  0  0  0  0
 10  3  1  0  0  0  0
 11  4  1  0  0  0  0
 12 19  1  0  0  0  0
 13 19  1  0  0  0  0
 15 22  1  0  0  0  0
 15 18  1  0  0  0  0
 16  4  1  0  0  0  0
 16 27  1  0  0  0  0
 17  1  1  0  0  0  0
 17 21  1  0  0  0  0
 18  8  1  0  0  0  0
 19 23  1  0  0  0  0
 20 13  1  0  0  0  0
 21 16  1  0  0  0  0
 22 10  1  0  0  0  0
 23 24  1  0  0  0  0
 25 23  1  0  0  0  0
 26 27  1  0  0  0  0
 27 30  1  0  0  0  0
 28 29  1  0  0  0  0
 28 34  1  0  0  0  0
 30 33  2  0  0  0  0
 30 32  1  0  0  0  0
 31 29  2  0  0  0  0
 32 28  2  0  0  0  0
 33 31  1  0  0  0  0
M  END
>  <MODEL>
8

>  <REMARK>
 VINA RESULT:      -5.2      3.024      5.592
  Name = 
  3 active torsions:
  status: ('A' for Active; 'I' for Inactive)
    1  A    between atoms: C_12  and  C_28
    2  A    between atoms: C_13  and  C_29
    3  A    between atoms: C_21  and  C_28
                            x       y       z     vdW  Elec       q    Type
                         _______ _______ _______ _____ _____    ______ ____

>  <TORSDO>
F 3

$$$$
=
 OpenBabel10252414573D

 34 37  0  0  1  0  0  0  0  0999 V2000
  184.8010  177.1180  137.8000 C   0  0  1  0  0  3  0  0  0  0  0  0
  182.9180  178.9300  137.8110 C   0  0  2  0  0  3  0  0  0  0  0  0
  179.0150  178.7700  139.8920 N   0  0  0  0  0  2  0  0  0  0  0  0
  183.8110  177.9220  139.9660 C   0  0  1  0  0  3  0  0  0  0  0  0
  181.0210  176.7500  140.0050 O   0  0  0  0  0  1  0  0  0  0  0  0
  187.2180  177.5780  137.2530 C   0  0  0  0  0  1  0  0  0  0  0  0
  182.4230  178.6210  136.4050 C   0  0  0  0  0  1  0  0  0  0  0  0
  182.1090  179.6980  139.9800 O   0  0  0  0  0  0  0  0  0  0  0  0
  178.9310  181.0250  140.5120 O   0  0  0  0  0  0  0  0  0  0  0  0
  179.1150  180.1660  139.6090 C   0  0  0  0  0  0  0  0  0  0  0  0
  183.5260  177.6680  138.4700 C   0  0  2  0  0  3  0  0  0  0  0  0
  178.9380  178.2070  141.2310 C   0  0  0  0  0  2  0  0  0  0  0  0
  181.4770  177.5350  141.0680 C   0  0  2  0  0  3  0  0  0  0  0  0
  184.5660  176.6180  136.3800 C   0  0  0  0  0  1  0  0  0  0  0  0
  181.0470  180.6370  138.0790 C   0  0  0  0  0  2  0  0  0  0  0  0
  185.0420  178.8460  140.1570 C   0  0  2  0  0  3  0  0  0  0  0  0
  185.9590  178.1130  137.9160 C   0  0  2  0  0  3  0  0  0  0  0  0
  181.7260  179.3960  138.6590 C   0  0  1  0  0  3  0  0  0  0  0  0
  180.3160  178.1280  141.9130 C   0  0  1  0  0  3  0  0  0  0  0  0
  182.5690  178.5330  140.6300 C   0  0  1  0  0  3  0  0  0  0  0  0
  186.2630  178.3360  139.3890 C   0  0  0  0  0  2  0  0  0  0  0  0
  179.5260  180.5880  138.2370 C   0  0  0  0  0  2  0  0  0  0  0  0
  180.6660  179.3770  142.7310 C   0  0  2  0  0  3  0  0  0  0  0  0
  181.4000  178.9840  143.9990 C   0  0  0  0  0  1  0  0  0  0  0  0
  179.5190  180.0660  143.0860 F   0  0  0  0  0  0  0  0  0  0  0  0
  184.2730  179.0170  142.5820 C   0  0  0  0  0  1  0  0  0  0  0  0
  185.4520  179.0690  141.6240 C   0  0  1  0  0  3  0  0  0  0  0  0
  188.8990  177.4870  141.7180 C   0  0  0  0  0  0  0  0  0  0  0  0
  188.8210  176.6900  142.8630 C   0  0  0  0  0  3  0  0  0  0  0  0
  186.6230  178.2450  142.0830 C   0  0  0  0  0  0  0  0  0  0  0  0
  187.6450  176.6670  143.6190 C   0  0  0  0  0  3  0  0  0  0  0  0
  187.8020  178.2610  141.3270 C   0  0  0  0  0  3  0  0  0  0  0  0
  186.5490  177.4390  143.2290 C   0  0  0  0  0  3  0  0  0  0  0  0
  190.3680  177.5140  140.7680 Cl  0  0  0  0  0  0  0  0  0  0  0  0
  1 14  1  6  0  0  0
  1 17  1  0  0  0  0
  1 11  1  0  0  0  0
  2  7  1  6  0  0  0
  2 11  1  0  0  0  0
  2 18  1  0  0  0  0
  3 12  1  0  0  0  0
  4 16  1  0  0  0  0
  4 20  1  0  0  0  0
  5 13  1  0  0  0  0
  6 17  1  0  0  0  0
  8 20  1  0  0  0  0
 10  3  1  0  0  0  0
 10  9  2  0  0  0  0
 11  4  1  0  0  0  0
 12 19  1  0  0  0  0
 13 19  1  0  0  0  0
 15 22  1  0  0  0  0
 15 18  1  0  0  0  0
 16 27  1  0  0  0  0
 17 21  1  0  0  0  0
 18  8  1  0  0  0  0
 19 23  1  0  0  0  0
 20 13  1  0  0  0  0
 21 16  1  0  0  0  0
 22 10  1  0  0  0  0
 23 25  1  0  0  0  0
 23 24  1  0  0  0  0
 27 30  1  0  0  0  0
 27 26  1  0  0  0  0
 28 29  1  0  0  0  0
 29 31  2  0  0  0  0
 30 33  2  0  0  0  0
 32 28  2  0  0  0  0
 32 30  1  0  0  0  0
 33 31  1  0  0  0  0
 34 28  1  0  0  0  0
M  END
>  <MODEL>
9

>  <REMARK>
 VINA RESULT:      -4.6      4.361      7.156
  Name = 
  3 active torsions:
  status: ('A' for Active; 'I' for Inactive)
    1  A    between atoms: C_12  and  C_28
    2  A    between atoms: C_13  and  C_29
    3  A    between atoms: C_21  and  C_28
                            x       y       z     vdW  Elec       q    Type
                         _______ _______ _______ _____ _____    ______ ____

>  <TORSDO>
F 3

$$$$
