=
 OpenBabel10262419363D

 31 33  0  0  1  0  0  0  0  0999 V2000
  186.9730  178.2690  147.0390 C   0  0  0  0  0  0  0  0  0  0  0  0
  189.8770  177.8870  144.6210 C   0  0  2  0  0  3  0  0  0  0  0  0
  188.4870  177.8610  145.1920 C   0  0  0  0  0  0  0  0  0  0  0  0
  185.9060  177.7860  146.2750 C   0  0  0  0  0  3  0  0  0  0  0  0
  188.6620  177.7380  142.2790 C   0  0  1  0  0  3  0  0  0  0  0  0
  186.7580  178.7010  148.3040 F   0  0  0  0  0  0  0  0  0  0  0  0
  187.6560  176.8650  143.0400 C   0  0  0  0  0  2  0  0  0  0  0  0
  189.8590  178.1230  143.1250 C   0  0  0  0  0  0  0  0  0  0  0  0
  188.2620  178.3030  146.4990 C   0  0  0  0  0  3  0  0  0  0  0  0
  187.4120  177.3820  144.4220 C   0  0  0  0  0  0  0  0  0  0  0  0
  186.1260  177.3380  144.9690 C   0  0  0  0  0  3  0  0  0  0  0  0
  190.8010  178.6930  142.6000 O   0  0  0  0  0  0  0  0  0  0  0  0
  190.6670  176.6390  145.0500 C   0  0  1  0  0  3  0  0  0  0  0  0
  192.1740  174.7080  144.3750 C   0  0  0  0  0  2  0  0  0  0  0  0
  191.6260  176.0900  143.9890 C   0  0  0  0  0  2  0  0  0  0  0  0
  191.9870  177.9710  146.5760 F   0  0  0  0  0  0  0  0  0  0  0  0
  192.0490  174.3880  145.8710 C   0  0  0  0  0  2  0  0  0  0  0  0
  192.2780  175.2930  148.0710 O   0  0  0  0  0  1  0  0  0  0  0  0
  191.3310  176.7620  146.4330 C   0  0  2  0  0  3  0  0  0  0  0  0
  192.3260  175.6270  146.7190 C   0  0  2  0  0  3  0  0  0  0  0  0
  188.5700  178.7880  139.6200 O   0  0  0  0  0  0  0  0  0  0  0  0
  189.0160  177.6180  139.7750 C   0  0  0  0  0  0  0  0  0  0  0  0
  189.1050  177.0410  141.0790 N   0  0  0  0  0  2  0  0  0  0  0  0
  190.3670  177.5290  137.8390 O   0  0  0  0  0  1  0  0  0  0  0  0
  189.4330  176.8090  138.5890 C   0  0  2  0  0  3  0  0  0  0  0  0
  188.3010  175.0990  137.3530 O   0  0  0  0  0  1  0  0  0  0  0  0
  188.2280  176.4440  137.7240 C   0  0  2  0  0  3  0  0  0  0  0  0
  188.1940  177.3150  136.4700 C   0  0  0  0  0  2  0  0  0  0  0  0
  187.0220  178.2930  136.4530 C   0  0  1  0  0  3  0  0  0  0  0  0
  185.9390  177.8910  137.4360 C   0  0  0  0  0  1  0  0  0  0  0  0
  187.4560  179.5920  136.7210 O   0  0  0  0  0  1  0  0  0  0  0  0
  1  6  1  0  0  0  0
  2  8  1  6  0  0  0
  2 13  1  0  0  0  0
  2  3  1  0  0  0  0
  3  9  2  0  0  0  0
  4  1  2  0  0  0  0
  5 23  1  6  0  0  0
  5  7  1  0  0  0  0
  5  8  1  0  0  0  0
  7 10  1  0  0  0  0
  9  1  1  0  0  0  0
 10 11  2  0  0  0  0
 10  3  1  0  0  0  0
 11  4  1  0  0  0  0
 12  8  2  0  0  0  0
 13 15  1  6  0  0  0
 13 19  1  0  0  0  0
 14 17  1  0  0  0  0
 15 14  1  0  0  0  0
 17 20  1  0  0  0  0
 19 16  1  6  0  0  0
 19 20  1  0  0  0  0
 20 18  1  1  0  0  0
 21 22  2  0  0  0  0
 22 23  1  0  0  0  0
 25 24  1  6  0  0  0
 25 22  1  0  0  0  0
 27 26  1  6  0  0  0
 27 25  1  0  0  0  0
 28 27  1  0  0  0  0
 29 28  1  0  0  0  0
 29 31  1  0  0  0  0
 29 30  1  1  0  0  0
M  END
>  <MODEL>
1

>  <REMARK>
 VINA RESULT:      -7.5      0.000      0.000
  Name = 
  6 active torsions:
  status: ('A' for Active; 'I' for Inactive)
    1  A    between atoms: C_1  and  C_24
    2  A    between atoms: C_4  and  C_5
    3  A    between atoms: C_9  and  C_22
    4  A    between atoms: C_15  and  N_23
    5  A    between atoms: C_19  and  C_22
    6  A    between atoms: C_19  and  C_24
                            x       y       z     vdW  Elec       q    Type
                         _______ _______ _______ _____ _____    ______ ____

>  <TORSDO>
F 6

$$$$
=
 OpenBabel10262419363D

 31 33  0  0  1  0  0  0  0  0999 V2000
  186.7980  178.1340  146.8280 C   0  0  0  0  0  0  0  0  0  0  0  0
  189.9160  177.9310  144.6700 C   0  0  2  0  0  3  0  0  0  0  0  0
  188.4810  177.8570  145.1070 C   0  0  0  0  0  0  0  0  0  0  0  0
  185.8130  177.6900  145.9410 C   0  0  0  0  0  3  0  0  0  0  0  0
  188.9240  177.9180  142.2220 C   0  0  1  0  0  3  0  0  0  0  0  0
  186.4610  178.4830  148.0930 F   0  0  0  0  0  0  0  0  0  0  0  0
  187.8650  176.9900  142.8310 C   0  0  0  0  0  2  0  0  0  0  0  0
  190.0320  178.2600  143.1960 C   0  0  0  0  0  0  0  0  0  0  0  0
  188.1300  178.2130  146.4140 C   0  0  0  0  0  3  0  0  0  0  0  0
  187.4870  177.4170  144.2140 C   0  0  0  0  0  0  0  0  0  0  0  0
  186.1580  177.3270  144.6360 C   0  0  0  0  0  3  0  0  0  0  0  0
  191.0090  178.8710  142.7970 O   0  0  0  0  0  0  0  0  0  0  0  0
  190.6820  176.6650  145.0920 C   0  0  1  0  0  3  0  0  0  0  0  0
  192.1630  174.7170  144.4100 C   0  0  0  0  0  2  0  0  0  0  0  0
  191.6410  176.1120  144.0340 C   0  0  0  0  0  2  0  0  0  0  0  0
  192.0100  177.9590  146.6440 F   0  0  0  0  0  0  0  0  0  0  0  0
  192.0200  174.3840  145.9010 C   0  0  0  0  0  2  0  0  0  0  0  0
  192.2450  175.2610  148.1130 O   0  0  0  0  0  1  0  0  0  0  0  0
  191.3360  176.7630  146.4830 C   0  0  2  0  0  3  0  0  0  0  0  0
  192.3100  175.6090  146.7650 C   0  0  2  0  0  3  0  0  0  0  0  0
  188.6690  178.9280  139.5570 O   0  0  0  0  0  0  0  0  0  0  0  0
  189.3060  177.8510  139.7200 C   0  0  0  0  0  0  0  0  0  0  0  0
  189.4850  177.3030  141.0260 N   0  0  0  0  0  2  0  0  0  0  0  0
  188.8890  176.2570  138.0260 O   0  0  0  0  0  1  0  0  0  0  0  0
  189.8610  177.1200  138.5400 C   0  0  2  0  0  3  0  0  0  0  0  0
  192.0000  177.1670  139.6160 O   0  0  0  0  0  1  0  0  0  0  0  0
  191.1160  176.3380  138.9210 C   0  0  2  0  0  3  0  0  0  0  0  0
  191.8050  175.8000  137.6680 C   0  0  0  0  0  2  0  0  0  0  0  0
  193.3250  175.7420  137.8000 C   0  0  1  0  0  3  0  0  0  0  0  0
  193.8560  174.3380  137.5780 C   0  0  0  0  0  1  0  0  0  0  0  0
  193.9340  176.6310  136.9120 O   0  0  0  0  0  1  0  0  0  0  0  0
  1  6  1  0  0  0  0
  2  8  1  6  0  0  0
  2 13  1  0  0  0  0
  2  3  1  0  0  0  0
  3  9  2  0  0  0  0
  4  1  2  0  0  0  0
  5 23  1  6  0  0  0
  5  7  1  0  0  0  0
  5  8  1  0  0  0  0
  7 10  1  0  0  0  0
  9  1  1  0  0  0  0
 10 11  2  0  0  0  0
 10  3  1  0  0  0  0
 11  4  1  0  0  0  0
 12  8  2  0  0  0  0
 13 15  1  6  0  0  0
 13 19  1  0  0  0  0
 14 17  1  0  0  0  0
 15 14  1  0  0  0  0
 17 20  1  0  0  0  0
 19 16  1  6  0  0  0
 19 20  1  0  0  0  0
 20 18  1  1  0  0  0
 21 22  2  0  0  0  0
 22 23  1  0  0  0  0
 25 24  1  1  0  0  0
 25 27  1  0  0  0  0
 25 22  1  0  0  0  0
 27 26  1  6  0  0  0
 28 29  1  0  0  0  0
 28 27  1  0  0  0  0
 29 30  1  6  0  0  0
 31 29  1  0  0  0  0
M  END
>  <MODEL>
2

>  <REMARK>
 VINA RESULT:      -7.4      1.590      2.720
  Name = 
  6 active torsions:
  status: ('A' for Active; 'I' for Inactive)
    1  A    between atoms: C_1  and  C_24
    2  A    between atoms: C_4  and  C_5
    3  A    between atoms: C_9  and  C_22
    4  A    between atoms: C_15  and  N_23
    5  A    between atoms: C_19  and  C_22
    6  A    between atoms: C_19  and  C_24
                            x       y       z     vdW  Elec       q    Type
                         _______ _______ _______ _____ _____    ______ ____

>  <TORSDO>
F 6

$$$$
=
 OpenBabel10262419363D

 31 33  0  0  1  0  0  0  0  0999 V2000
  179.9260  178.2730  142.2910 C   0  0  0  0  0  0  0  0  0  0  0  0
  183.5250  179.1200  141.4230 C   0  0  2  0  0  3  0  0  0  0  0  0
  182.1780  178.4530  141.4160 C   0  0  0  0  0  0  0  0  0  0  0  0
  179.6770  177.1960  141.4340 C   0  0  0  0  0  3  0  0  0  0  0  0
  183.8200  178.0140  139.0420 C   0  0  1  0  0  3  0  0  0  0  0  0
  178.9560  178.7080  143.1300 F   0  0  0  0  0  0  0  0  0  0  0  0
  183.0080  176.8660  139.6540 C   0  0  0  0  0  2  0  0  0  0  0  0
  184.1680  179.0880  140.0520 C   0  0  0  0  0  0  0  0  0  0  0  0
  181.1760  178.8980  142.2850 C   0  0  0  0  0  3  0  0  0  0  0  0
  181.9230  177.3750  140.5500 C   0  0  0  0  0  0  0  0  0  0  0  0
  180.6760  176.7440  140.5680 C   0  0  0  0  0  3  0  0  0  0  0  0
  184.9310  179.9840  139.7310 O   0  0  0  0  0  0  0  0  0  0  0  0
  184.4110  178.5490  142.5440 C   0  0  1  0  0  3  0  0  0  0  0  0
  186.7000  177.7130  143.2640 C   0  0  0  0  0  2  0  0  0  0  0  0
  185.9110  178.5310  142.2310 C   0  0  0  0  0  2  0  0  0  0  0  0
  183.9950  180.5070  143.9000 F   0  0  0  0  0  0  0  0  0  0  0  0
  185.9520  177.5020  144.5880 C   0  0  0  0  0  2  0  0  0  0  0  0
  184.5640  178.5610  146.2200 O   0  0  0  0  0  1  0  0  0  0  0  0
  184.1100  179.1300  143.9380 C   0  0  2  0  0  3  0  0  0  0  0  0
  185.1730  178.7540  144.9810 C   0  0  2  0  0  3  0  0  0  0  0  0
  184.0570  177.0280  136.3670 O   0  0  0  0  0  0  0  0  0  0  0  0
  185.0840  176.9930  137.1000 C   0  0  0  0  0  0  0  0  0  0  0  0
  185.0370  177.4860  138.4390 N   0  0  0  0  0  2  0  0  0  0  0  0
  186.5940  175.1790  137.2030 O   0  0  0  0  0  1  0  0  0  0  0  0
  186.3570  176.4080  136.5810 C   0  0  2  0  0  3  0  0  0  0  0  0
  188.2480  177.5310  135.6320 O   0  0  0  0  0  1  0  0  0  0  0  0
  187.5310  177.3560  136.8190 C   0  0  2  0  0  3  0  0  0  0  0  0
  188.4590  176.7900  137.8920 C   0  0  0  0  0  2  0  0  0  0  0  0
  188.5340  177.6660  139.1400 C   0  0  1  0  0  3  0  0  0  0  0  0
  189.6140  177.1940  140.0950 C   0  0  0  0  0  1  0  0  0  0  0  0
  188.7480  179.0020  138.7950 O   0  0  0  0  0  1  0  0  0  0  0  0
  1  6  1  0  0  0  0
  2  8  1  6  0  0  0
  2 13  1  0  0  0  0
  3  2  1  0  0  0  0
  3  9  2  0  0  0  0
  4  1  2  0  0  0  0
  5 23  1  1  0  0  0
  5  7  1  0  0  0  0
  5  8  1  0  0  0  0
  7 10  1  0  0  0  0
  9  1  1  0  0  0  0
 10 11  2  0  0  0  0
 10  3  1  0  0  0  0
 11  4  1  0  0  0  0
 12  8  2  0  0  0  0
 13 15  1  6  0  0  0
 13 19  1  0  0  0  0
 14 17  1  0  0  0  0
 15 14  1  0  0  0  0
 17 20  1  0  0  0  0
 19 16  1  6  0  0  0
 19 20  1  0  0  0  0
 20 18  1  1  0  0  0
 21 22  2  0  0  0  0
 22 23  1  0  0  0  0
 25 27  1  0  0  0  0
 25 22  1  0  0  0  0
 25 24  1  1  0  0  0
 27 26  1  6  0  0  0
 27 28  1  0  0  0  0
 28 29  1  0  0  0  0
 29 30  1  1  0  0  0
 31 29  1  0  0  0  0
M  END
>  <MODEL>
3

>  <REMARK>
 VINA RESULT:      -7.1      4.242      6.400
  Name = 
  6 active torsions:
  status: ('A' for Active; 'I' for Inactive)
    1  A    between atoms: C_1  and  C_24
    2  A    between atoms: C_4  and  C_5
    3  A    between atoms: C_9  and  C_22
    4  A    between atoms: C_15  and  N_23
    5  A    between atoms: C_19  and  C_22
    6  A    between atoms: C_19  and  C_24
                            x       y       z     vdW  Elec       q    Type
                         _______ _______ _______ _____ _____    ______ ____

>  <TORSDO>
F 6

$$$$
=
 OpenBabel10262419363D

 31 33  0  0  1  0  0  0  0  0999 V2000
  188.0980  177.6430  148.2960 C   0  0  0  0  0  0  0  0  0  0  0  0
  187.3830  176.7040  144.6860 C   0  0  2  0  0  3  0  0  0  0  0  0
  188.0520  177.2830  145.9000 C   0  0  0  0  0  0  0  0  0  0  0  0
  189.2740  178.3870  148.1650 C   0  0  0  0  0  3  0  0  0  0  0  0
  189.7380  177.0180  143.5310 C   0  0  1  0  0  3  0  0  0  0  0  0
  187.5480  177.4560  149.5200 F   0  0  0  0  0  0  0  0  0  0  0  0
  189.8230  178.2690  144.4150 C   0  0  0  0  0  2  0  0  0  0  0  0
  188.3920  176.3290  143.6210 C   0  0  0  0  0  0  0  0  0  0  0  0
  187.4850  177.0960  147.1650 C   0  0  0  0  0  3  0  0  0  0  0  0
  189.2400  178.0260  145.7710 C   0  0  0  0  0  0  0  0  0  0  0  0
  189.8420  178.5820  146.9030 C   0  0  0  0  0  3  0  0  0  0  0  0
  188.1430  175.4080  142.8610 O   0  0  0  0  0  0  0  0  0  0  0  0
  186.2600  177.6300  144.1870 C   0  0  1  0  0  3  0  0  0  0  0  0
  184.5500  179.4280  144.7330 C   0  0  0  0  0  2  0  0  0  0  0  0
  185.8390  178.7200  145.1770 C   0  0  0  0  0  2  0  0  0  0  0  0
  187.7780  178.6560  142.6090 F   0  0  0  0  0  0  0  0  0  0  0  0
  184.2320  179.2560  143.2410 C   0  0  0  0  0  2  0  0  0  0  0  0
  185.1820  179.2200  141.0490 O   0  0  0  0  0  1  0  0  0  0  0  0
  186.4890  178.1830  142.7680 C   0  0  2  0  0  3  0  0  0  0  0  0
  185.5060  179.3060  142.4020 C   0  0  2  0  0  3  0  0  0  0  0  0
  192.2880  176.8150  142.2510 O   0  0  0  0  0  0  0  0  0  0  0  0
  191.3250  177.2670  141.5730 C   0  0  0  0  0  0  0  0  0  0  0  0
  190.0220  177.3770  142.1470 N   0  0  0  0  0  2  0  0  0  0  0  0
  190.3160  177.7610  139.4950 O   0  0  0  0  0  1  0  0  0  0  0  0
  191.5420  177.7180  140.1650 C   0  0  2  0  0  3  0  0  0  0  0  0
  193.8150  177.2770  139.5550 O   0  0  0  0  0  1  0  0  0  0  0  0
  192.5110  176.7890  139.4360 C   0  0  2  0  0  3  0  0  0  0  0  0
  192.1400  176.6930  137.9580 C   0  0  0  0  0  2  0  0  0  0  0  0
  191.8730  175.2600  137.5010 C   0  0  1  0  0  3  0  0  0  0  0  0
  193.1200  174.4000  137.5890 C   0  0  0  0  0  1  0  0  0  0  0  0
  190.8400  174.6870  138.2440 O   0  0  0  0  0  1  0  0  0  0  0  0
  1  6  1  0  0  0  0
  2  8  1  6  0  0  0
  2  3  1  0  0  0  0
  3  9  1  0  0  0  0
  4  1  1  0  0  0  0
  5 23  1  6  0  0  0
  5  8  1  0  0  0  0
  5  7  1  0  0  0  0
  7 10  1  0  0  0  0
  9  1  2  0  0  0  0
 10  3  2  0  0  0  0
 10 11  1  0  0  0  0
 11  4  2  0  0  0  0
 12  8  2  0  0  0  0
 13  2  1  0  0  0  0
 13 15  1  1  0  0  0
 14 15  1  0  0  0  0
 17 14  1  0  0  0  0
 19 16  1  1  0  0  0
 19 13  1  0  0  0  0
 20 18  1  6  0  0  0
 20 19  1  0  0  0  0
 20 17  1  0  0  0  0
 22 23  1  0  0  0  0
 22 21  2  0  0  0  0
 25 24  1  6  0  0  0
 25 22  1  0  0  0  0
 27 26  1  6  0  0  0
 27 25  1  0  0  0  0
 28 27  1  0  0  0  0
 29 30  1  1  0  0  0
 29 28  1  0  0  0  0
 29 31  1  0  0  0  0
M  END
>  <MODEL>
4

>  <REMARK>
 VINA RESULT:      -6.8      3.041      5.255
  Name = 
  6 active torsions:
  status: ('A' for Active; 'I' for Inactive)
    1  A    between atoms: C_1  and  C_24
    2  A    between atoms: C_4  and  C_5
    3  A    between atoms: C_9  and  C_22
    4  A    between atoms: C_15  and  N_23
    5  A    between atoms: C_19  and  C_22
    6  A    between atoms: C_19  and  C_24
                            x       y       z     vdW  Elec       q    Type
                         _______ _______ _______ _____ _____    ______ ____

>  <TORSDO>
F 6

$$$$
=
 OpenBabel10262419363D

 31 33  0  0  1  0  0  0  0  0999 V2000
  191.2780  176.3560  143.1840 C   0  0  0  0  0  0  0  0  0  0  0  0
  189.8880  177.5460  139.8550 C   0  0  2  0  0  3  0  0  0  0  0  0
  189.9670  177.1210  141.2950 C   0  0  0  0  0  0  0  0  0  0  0  0
  190.1210  176.2970  143.9660 C   0  0  0  0  0  3  0  0  0  0  0  0
  187.5720  178.6150  140.5460 C   0  0  1  0  0  3  0  0  0  0  0  0
  192.4740  176.0140  143.7180 F   0  0  0  0  0  0  0  0  0  0  0  0
  187.4780  177.4040  141.4830 C   0  0  0  0  0  2  0  0  0  0  0  0
  188.7810  178.5560  139.6350 C   0  0  0  0  0  0  0  0  0  0  0  0
  191.2010  176.7640  141.8490 C   0  0  0  0  0  3  0  0  0  0  0  0
  188.8060  177.0680  142.0860 C   0  0  0  0  0  0  0  0  0  0  0  0
  188.8840  176.6480  143.4160 C   0  0  0  0  0  3  0  0  0  0  0  0
  188.8960  179.3820  138.7440 O   0  0  0  0  0  0  0  0  0  0  0  0
  189.8130  176.3210  138.9280 C   0  0  1  0  0  3  0  0  0  0  0  0
  188.5090  175.0260  137.1740 C   0  0  0  0  0  2  0  0  0  0  0  0
  188.6980  176.3770  137.8790 C   0  0  0  0  0  2  0  0  0  0  0  0
  191.8550  177.0020  137.8270 F   0  0  0  0  0  0  0  0  0  0  0  0
  189.7180  174.0880  137.2980 C   0  0  0  0  0  2  0  0  0  0  0  0
  192.1050  173.9870  137.2450 O   0  0  0  0  0  1  0  0  0  0  0  0
  191.1670  175.9090  138.3230 C   0  0  2  0  0  3  0  0  0  0  0  0
  191.0260  174.8680  137.2020 C   0  0  2  0  0  3  0  0  0  0  0  0
  185.0030  179.3910  141.5360 O   0  0  0  0  0  0  0  0  0  0  0  0
  185.0970  179.0940  140.3130 C   0  0  0  0  0  0  0  0  0  0  0  0
  186.3550  178.7160  139.7520 N   0  0  0  0  0  2  0  0  0  0  0  0
  183.5750  180.4280  139.0950 O   0  0  0  0  0  1  0  0  0  0  0  0
  183.8840  179.1100  139.4400 C   0  0  2  0  0  3  0  0  0  0  0  0
  182.2970  177.3160  139.4340 O   0  0  0  0  0  1  0  0  0  0  0  0
  182.6960  178.4530  140.1410 C   0  0  2  0  0  3  0  0  0  0  0  0
  181.5270  179.4320  140.2280 C   0  0  0  0  0  2  0  0  0  0  0  0
  180.7310  179.2980  141.5240 C   0  0  1  0  0  3  0  0  0  0  0  0
  181.6060  178.8440  142.6780 C   0  0  0  0  0  1  0  0  0  0  0  0
  180.0990  180.5010  141.8440 O   0  0  0  0  0  1  0  0  0  0  0  0
  1  6  1  0  0  0  0
  1  4  1  0  0  0  0
  2  8  1  1  0  0  0
  2  3  1  0  0  0  0
  3  9  1  0  0  0  0
  3 10  2  0  0  0  0
  5 23  1  6  0  0  0
  5  7  1  0  0  0  0
  7 10  1  0  0  0  0
  8  5  1  0  0  0  0
  9  1  2  0  0  0  0
 10 11  1  0  0  0  0
 11  4  2  0  0  0  0
 12  8  2  0  0  0  0
 13 15  1  6  0  0  0
 13  2  1  0  0  0  0
 14 17  1  0  0  0  0
 14 15  1  0  0  0  0
 19 16  1  6  0  0  0
 19 13  1  0  0  0  0
 20 18  1  1  0  0  0
 20 17  1  0  0  0  0
 20 19  1  0  0  0  0
 22 21  2  0  0  0  0
 23 22  1  0  0  0  0
 25 24  1  1  0  0  0
 25 27  1  0  0  0  0
 25 22  1  0  0  0  0
 27 26  1  6  0  0  0
 27 28  1  0  0  0  0
 28 29  1  0  0  0  0
 29 31  1  0  0  0  0
 29 30  1  1  0  0  0
M  END
>  <MODEL>
5

>  <REMARK>
 VINA RESULT:      -6.6      3.853      6.532
  Name = 
  6 active torsions:
  status: ('A' for Active; 'I' for Inactive)
    1  A    between atoms: C_1  and  C_24
    2  A    between atoms: C_4  and  C_5
    3  A    between atoms: C_9  and  C_22
    4  A    between atoms: C_15  and  N_23
    5  A    between atoms: C_19  and  C_22
    6  A    between atoms: C_19  and  C_24
                            x       y       z     vdW  Elec       q    Type
                         _______ _______ _______ _____ _____    ______ ____

>  <TORSDO>
F 6

$$$$
=
 OpenBabel10262419363D

 31 33  0  0  1  0  0  0  0  0999 V2000
  190.8090  177.0330  138.5450 C   0  0  0  0  0  0  0  0  0  0  0  0
  189.4330  176.6520  142.0650 C   0  0  2  0  0  3  0  0  0  0  0  0
  189.6230  177.1370  140.6550 C   0  0  0  0  0  0  0  0  0  0  0  0
  190.0050  178.0590  138.0390 C   0  0  0  0  0  3  0  0  0  0  0  0
  187.0430  177.7620  141.8730 C   0  0  1  0  0  3  0  0  0  0  0  0
  191.7730  176.4840  137.7690 F   0  0  0  0  0  0  0  0  0  0  0  0
  187.7740  178.8010  141.0130 C   0  0  0  0  0  2  0  0  0  0  0  0
  187.9850  176.7520  142.4970 C   0  0  0  0  0  0  0  0  0  0  0  0
  190.6200  176.5750  139.8520 C   0  0  0  0  0  3  0  0  0  0  0  0
  188.8110  178.1650  140.1420 C   0  0  0  0  0  0  0  0  0  0  0  0
  189.0100  178.6280  138.8390 C   0  0  0  0  0  3  0  0  0  0  0  0
  187.5510  175.9610  143.3170 O   0  0  0  0  0  0  0  0  0  0  0  0
  190.4210  177.3440  143.0180 C   0  0  1  0  0  3  0  0  0  0  0  0
  191.4300  179.5150  143.8700 C   0  0  0  0  0  2  0  0  0  0  0  0
  190.2570  178.8630  143.1220 C   0  0  0  0  0  2  0  0  0  0  0  0
  189.2920  176.3780  144.9250 F   0  0  0  0  0  0  0  0  0  0  0  0
  192.2320  178.5350  144.7370 C   0  0  0  0  0  2  0  0  0  0  0  0
  192.0560  176.6940  146.2500 O   0  0  0  0  0  1  0  0  0  0  0  0
  190.5360  176.6710  144.3980 C   0  0  2  0  0  3  0  0  0  0  0  0
  191.3110  177.5240  145.4140 C   0  0  2  0  0  3  0  0  0  0  0  0
  184.1890  177.8460  142.0480 O   0  0  0  0  0  0  0  0  0  0  0  0
  184.8510  178.4560  142.9330 C   0  0  0  0  0  0  0  0  0  0  0  0
  186.2780  178.4370  142.9130 N   0  0  0  0  0  2  0  0  0  0  0  0
  184.5580  180.5620  143.9620 O   0  0  0  0  0  1  0  0  0  0  0  0
  184.1450  179.2270  144.0010 C   0  0  2  0  0  3  0  0  0  0  0  0
  183.3220  178.8510  146.2180 O   0  0  0  0  0  1  0  0  0  0  0  0
  184.4170  178.6290  145.3800 C   0  0  2  0  0  3  0  0  0  0  0  0
  185.6630  179.2640  145.9950 C   0  0  0  0  0  2  0  0  0  0  0  0
  186.7680  178.2510  146.2860 C   0  0  1  0  0  3  0  0  0  0  0  0
  187.2320  178.3240  147.7290 C   0  0  0  0  0  1  0  0  0  0  0  0
  186.3460  176.9550  145.9820 O   0  0  0  0  0  1  0  0  0  0  0  0
  1  9  1  0  0  0  0
  2  3  1  6  0  0  0
  2  8  1  0  0  0  0
  2 13  1  0  0  0  0
  4  1  2  0  0  0  0
  4 11  1  0  0  0  0
  5  8  1  0  0  0  0
  5 23  1  1  0  0  0
  6  1  1  0  0  0  0
  7  5  1  0  0  0  0
  8 12  2  0  0  0  0
  9  3  2  0  0  0  0
 10  3  1  0  0  0  0
 10  7  1  0  0  0  0
 11 10  2  0  0  0  0
 13 15  1  1  0  0  0
 13 19  1  0  0  0  0
 14 17  1  0  0  0  0
 15 14  1  0  0  0  0
 17 20  1  0  0  0  0
 19 16  1  1  0  0  0
 19 20  1  0  0  0  0
 20 18  1  1  0  0  0
 21 22  2  0  0  0  0
 22 25  1  0  0  0  0
 23 22  1  0  0  0  0
 25 24  1  1  0  0  0
 25 27  1  0  0  0  0
 27 28  1  0  0  0  0
 27 26  1  1  0  0  0
 28 29  1  0  0  0  0
 29 30  1  1  0  0  0
 31 29  1  0  0  0  0
M  END
>  <MODEL>
6

>  <REMARK>
 VINA RESULT:      -6.4      3.375      6.703
  Name = 
  6 active torsions:
  status: ('A' for Active; 'I' for Inactive)
    1  A    between atoms: C_1  and  C_24
    2  A    between atoms: C_4  and  C_5
    3  A    between atoms: C_9  and  C_22
    4  A    between atoms: C_15  and  N_23
    5  A    between atoms: C_19  and  C_22
    6  A    between atoms: C_19  and  C_24
                            x       y       z     vdW  Elec       q    Type
                         _______ _______ _______ _____ _____    ______ ____

>  <TORSDO>
F 6

$$$$
=
 OpenBabel10262419363D

 31 33  0  0  1  0  0  0  0  0999 V2000
  186.8720  177.7480  137.3110 C   0  0  0  0  0  0  0  0  0  0  0  0
  190.0590  177.5200  139.3650 C   0  0  2  0  0  3  0  0  0  0  0  0
  188.9960  177.2140  138.3480 C   0  0  0  0  0  0  0  0  0  0  0  0
  186.9940  176.6310  136.4780 C   0  0  0  0  0  3  0  0  0  0  0  0
  191.5970  175.9740  137.8730 C   0  0  1  0  0  3  0  0  0  0  0  0
  185.7840  178.5480  137.2140 F   0  0  0  0  0  0  0  0  0  0  0  0
  190.3010  175.1870  137.6410 C   0  0  0  0  0  2  0  0  0  0  0  0
  191.4290  177.0910  138.8830 C   0  0  0  0  0  0  0  0  0  0  0  0
  187.8690  178.0360  138.2480 C   0  0  0  0  0  3  0  0  0  0  0  0
  189.1210  176.0960  137.5040 C   0  0  0  0  0  0  0  0  0  0  0  0
  188.1160  175.8030  136.5780 C   0  0  0  0  0  3  0  0  0  0  0  0
  192.4140  177.7010  139.2660 O   0  0  0  0  0  0  0  0  0  0  0  0
  189.6740  176.9560  140.7430 C   0  0  1  0  0  3  0  0  0  0  0  0
  190.4390  175.9500  142.9470 C   0  0  0  0  0  2  0  0  0  0  0  0
  190.8490  176.7560  141.7060 C   0  0  0  0  0  2  0  0  0  0  0  0
  188.6260  179.0540  141.3330 F   0  0  0  0  0  0  0  0  0  0  0  0
  188.9250  175.9300  143.2000 C   0  0  0  0  0  2  0  0  0  0  0  0
  186.9400  177.2600  143.1870 O   0  0  0  0  0  1  0  0  0  0  0  0
  188.4890  177.6800  141.4080 C   0  0  2  0  0  3  0  0  0  0  0  0
  188.3000  177.2850  142.8800 C   0  0  2  0  0  3  0  0  0  0  0  0
  194.2960  175.9890  136.9260 O   0  0  0  0  0  0  0  0  0  0  0  0
  193.9770  175.1160  137.7800 C   0  0  0  0  0  0  0  0  0  0  0  0
  192.6510  175.0660  138.3060 N   0  0  0  0  0  2  0  0  0  0  0  0
  195.8890  174.7090  139.1060 O   0  0  0  0  0  1  0  0  0  0  0  0
  194.9810  174.1050  138.2320 C   0  0  2  0  0  3  0  0  0  0  0  0
  195.5710  172.1040  137.0560 O   0  0  0  0  0  1  0  0  0  0  0  0
  195.7170  173.4940  137.0420 C   0  0  2  0  0  3  0  0  0  0  0  0
  197.2020  173.8480  137.1010 C   0  0  0  0  0  2  0  0  0  0  0  0
  197.6250  174.8350  136.0160 C   0  0  1  0  0  3  0  0  0  0  0  0
  196.7920  174.6790  134.7570 C   0  0  0  0  0  1  0  0  0  0  0  0
  197.5490  176.1480  136.4840 O   0  0  0  0  0  1  0  0  0  0  0  0
  1  9  1  0  0  0  0
  2  3  1  6  0  0  0
  2 13  1  0  0  0  0
  4 11  1  0  0  0  0
  4  1  2  0  0  0  0
  5 23  1  1  0  0  0
  5  8  1  0  0  0  0
  6  1  1  0  0  0  0
  7  5  1  0  0  0  0
  8 12  2  0  0  0  0
  8  2  1  0  0  0  0
  9  3  2  0  0  0  0
 10  7  1  0  0  0  0
 10  3  1  0  0  0  0
 11 10  2  0  0  0  0
 13 19  1  0  0  0  0
 13 15  1  1  0  0  0
 14 17  1  0  0  0  0
 15 14  1  0  0  0  0
 19 16  1  1  0  0  0
 19 20  1  0  0  0  0
 20 18  1  6  0  0  0
 20 17  1  0  0  0  0
 21 22  2  0  0  0  0
 22 25  1  0  0  0  0
 22 23  1  0  0  0  0
 25 24  1  1  0  0  0
 27 26  1  1  0  0  0
 27 28  1  0  0  0  0
 27 25  1  0  0  0  0
 29 30  1  6  0  0  0
 29 31  1  0  0  0  0
 29 28  1  0  0  0  0
M  END
>  <MODEL>
7

>  <REMARK>
 VINA RESULT:      -6.3      4.945      7.387
  Name = 
  6 active torsions:
  status: ('A' for Active; 'I' for Inactive)
    1  A    between atoms: C_1  and  C_24
    2  A    between atoms: C_4  and  C_5
    3  A    between atoms: C_9  and  C_22
    4  A    between atoms: C_15  and  N_23
    5  A    between atoms: C_19  and  C_22
    6  A    between atoms: C_19  and  C_24
                            x       y       z     vdW  Elec       q    Type
                         _______ _______ _______ _____ _____    ______ ____

>  <TORSDO>
F 6

$$$$
=
 OpenBabel10262419363D

 31 33  0  0  1  0  0  0  0  0999 V2000
  192.6130  177.1380  140.6180 C   0  0  0  0  0  0  0  0  0  0  0  0
  189.6440  177.5180  138.2800 C   0  0  2  0  0  3  0  0  0  0  0  0
  190.4630  177.4160  139.5350 C   0  0  0  0  0  0  0  0  0  0  0  0
  191.9930  177.1920  141.8700 C   0  0  0  0  0  3  0  0  0  0  0  0
  187.8110  178.5980  139.8460 C   0  0  1  0  0  3  0  0  0  0  0  0
  193.9550  176.9760  140.5340 F   0  0  0  0  0  0  0  0  0  0  0  0
  188.3550  177.6130  140.8880 C   0  0  0  0  0  2  0  0  0  0  0  0
  188.4310  178.4030  138.4780 C   0  0  0  0  0  0  0  0  0  0  0  0
  191.8490  177.2450  139.4520 C   0  0  0  0  0  3  0  0  0  0  0  0
  189.8420  177.4780  140.7960 C   0  0  0  0  0  0  0  0  0  0  0  0
  190.6080  177.3570  141.9590 C   0  0  0  0  0  3  0  0  0  0  0  0
  187.9840  179.0230  137.5270 O   0  0  0  0  0  0  0  0  0  0  0  0
  189.3170  176.1210  137.7260 C   0  0  1  0  0  3  0  0  0  0  0  0
  187.5500  174.4870  136.9120 C   0  0  0  0  0  2  0  0  0  0  0  0
  187.8890  175.9580  137.1960 C   0  0  0  0  0  2  0  0  0  0  0  0
  190.7410  176.5200  135.8140 F   0  0  0  0  0  0  0  0  0  0  0  0
  188.7830  173.5860  136.7560 C   0  0  0  0  0  2  0  0  0  0  0  0
  190.9760  173.4480  135.8170 O   0  0  0  0  0  1  0  0  0  0  0  0
  190.3720  175.5710  136.7490 C   0  0  2  0  0  3  0  0  0  0  0  0
  189.8980  174.3110  136.0080 C   0  0  2  0  0  3  0  0  0  0  0  0
  185.9300  179.6780  141.7110 O   0  0  0  0  0  0  0  0  0  0  0  0
  185.4770  179.0180  140.7350 C   0  0  0  0  0  0  0  0  0  0  0  0
  186.3620  178.4680  139.7590 N   0  0  0  0  0  2  0  0  0  0  0  0
  183.7380  177.4200  140.7570 O   0  0  0  0  0  1  0  0  0  0  0  0
  184.0080  178.7830  140.6040 C   0  0  2  0  0  3  0  0  0  0  0  0
  184.0080  180.5470  138.9840 O   0  0  0  0  0  1  0  0  0  0  0  0
  183.4920  179.2760  139.2530 C   0  0  2  0  0  3  0  0  0  0  0  0
  181.9660  179.3400  139.2610 C   0  0  0  0  0  2  0  0  0  0  0  0
  181.3230  178.3860  138.2570 C   0  0  1  0  0  3  0  0  0  0  0  0
  182.2960  177.9770  137.1660 C   0  0  0  0  0  1  0  0  0  0  0  0
  180.8190  177.2540  138.9010 O   0  0  0  0  0  1  0  0  0  0  0  0
  1  4  1  0  0  0  0
  2  8  1  1  0  0  0
  2  3  1  0  0  0  0
  3 10  2  0  0  0  0
  4 11  2  0  0  0  0
  5 23  1  6  0  0  0
  5  7  1  0  0  0  0
  6  1  1  0  0  0  0
  8  5  1  0  0  0  0
  9  3  1  0  0  0  0
  9  1  2  0  0  0  0
 10  7  1  0  0  0  0
 10 11  1  0  0  0  0
 12  8  2  0  0  0  0
 13 15  1  6  0  0  0
 13  2  1  0  0  0  0
 14 15  1  0  0  0  0
 17 14  1  0  0  0  0
 19 16  1  6  0  0  0
 19 13  1  0  0  0  0
 20 18  1  1  0  0  0
 20 19  1  0  0  0  0
 20 17  1  0  0  0  0
 22 21  2  0  0  0  0
 23 22  1  0  0  0  0
 25 22  1  0  0  0  0
 25 24  1  6  0  0  0
 27 26  1  1  0  0  0
 27 28  1  0  0  0  0
 27 25  1  0  0  0  0
 29 30  1  6  0  0  0
 29 31  1  0  0  0  0
 29 28  1  0  0  0  0
M  END
>  <MODEL>
8

>  <REMARK>
 VINA RESULT:      -6.2      4.418      7.300
  Name = 
  6 active torsions:
  status: ('A' for Active; 'I' for Inactive)
    1  A    between atoms: C_1  and  C_24
    2  A    between atoms: C_4  and  C_5
    3  A    between atoms: C_9  and  C_22
    4  A    between atoms: C_15  and  N_23
    5  A    between atoms: C_19  and  C_22
    6  A    between atoms: C_19  and  C_24
                            x       y       z     vdW  Elec       q    Type
                         _______ _______ _______ _____ _____    ______ ____

>  <TORSDO>
F 6

$$$$
=
 OpenBabel10262419363D

 31 33  0  0  1  0  0  0  0  0999 V2000
  179.9910  179.8030  136.3090 C   0  0  0  0  0  0  0  0  0  0  0  0
  182.4090  177.4480  138.0500 C   0  0  2  0  0  3  0  0  0  0  0  0
  181.6700  178.6970  137.6610 C   0  0  0  0  0  0  0  0  0  0  0  0
  180.3120  181.0260  136.9060 C   0  0  0  0  0  3  0  0  0  0  0  0
  183.0600  178.7950  140.2280 C   0  0  1  0  0  3  0  0  0  0  0  0
  179.0220  179.7450  135.3640 F   0  0  0  0  0  0  0  0  0  0  0  0
  183.0860  179.9990  139.2780 C   0  0  0  0  0  2  0  0  0  0  0  0
  182.8350  177.4840  139.5040 C   0  0  0  0  0  0  0  0  0  0  0  0
  180.6720  178.6410  136.6830 C   0  0  0  0  0  3  0  0  0  0  0  0
  181.9860  179.9270  138.2660 C   0  0  0  0  0  0  0  0  0  0  0  0
  181.3120  181.0890  137.8800 C   0  0  0  0  0  3  0  0  0  0  0  0
  182.9360  176.4370  140.1210 O   0  0  0  0  0  0  0  0  0  0  0  0
  183.5570  177.1630  137.0670 C   0  0  1  0  0  3  0  0  0  0  0  0
  186.0010  177.4930  136.4580 C   0  0  0  0  0  2  0  0  0  0  0  0
  184.9490  177.5520  137.5750 C   0  0  0  0  0  2  0  0  0  0  0  0
  183.3090  174.7860  137.4310 F   0  0  0  0  0  0  0  0  0  0  0  0
  185.5790  176.6410  135.2540 C   0  0  0  0  0  2  0  0  0  0  0  0
  184.5100  174.6060  134.5990 O   0  0  0  0  0  1  0  0  0  0  0  0
  183.5280  175.7480  136.4620 C   0  0  2  0  0  3  0  0  0  0  0  0
  184.8180  175.3970  135.7050 C   0  0  2  0  0  3  0  0  0  0  0  0
  183.2720  178.6200  143.0750 O   0  0  0  0  0  0  0  0  0  0  0  0
  184.3410  178.6690  142.4080 C   0  0  0  0  0  0  0  0  0  0  0  0
  184.3050  178.7400  140.9820 N   0  0  0  0  0  2  0  0  0  0  0  0
  186.5840  177.9270  142.3740 O   0  0  0  0  0  1  0  0  0  0  0  0
  185.6630  178.6810  143.1060 C   0  0  2  0  0  3  0  0  0  0  0  0
  185.4620  179.1860  145.4390 O   0  0  0  0  0  1  0  0  0  0  0  0
  185.5370  178.1310  144.5250 C   0  0  2  0  0  3  0  0  0  0  0  0
  186.7430  177.2550  144.8610 C   0  0  0  0  0  2  0  0  0  0  0  0
  187.8480  178.0150  145.5910 C   0  0  1  0  0  3  0  0  0  0  0  0
  188.1560  177.3990  146.9430 C   0  0  0  0  0  1  0  0  0  0  0  0
  189.0070  178.0720  144.8140 O   0  0  0  0  0  1  0  0  0  0  0  0
  1  9  2  0  0  0  0
  1  4  1  0  0  0  0
  2  3  1  6  0  0  0
  2  8  1  0  0  0  0
  3 10  2  0  0  0  0
  4 11  2  0  0  0  0
  5 23  1  6  0  0  0
  6  1  1  0  0  0  0
  7  5  1  0  0  0  0
  8 12  2  0  0  0  0
  8  5  1  0  0  0  0
  9  3  1  0  0  0  0
 10  7  1  0  0  0  0
 11 10  1  0  0  0  0
 13 15  1  1  0  0  0
 13  2  1  0  0  0  0
 14 15  1  0  0  0  0
 17 20  1  0  0  0  0
 17 14  1  0  0  0  0
 19 13  1  0  0  0  0
 19 16  1  1  0  0  0
 20 18  1  6  0  0  0
 20 19  1  0  0  0  0
 22 21  2  0  0  0  0
 22 25  1  0  0  0  0
 23 22  1  0  0  0  0
 25 24  1  6  0  0  0
 25 27  1  0  0  0  0
 27 28  1  0  0  0  0
 27 26  1  1  0  0  0
 28 29  1  0  0  0  0
 29 30  1  1  0  0  0
 31 29  1  0  0  0  0
M  END
>  <MODEL>
9

>  <REMARK>
 VINA RESULT:      -6.1      5.255     10.031
  Name = 
  6 active torsions:
  status: ('A' for Active; 'I' for Inactive)
    1  A    between atoms: C_1  and  C_24
    2  A    between atoms: C_4  and  C_5
    3  A    between atoms: C_9  and  C_22
    4  A    between atoms: C_15  and  N_23
    5  A    between atoms: C_19  and  C_22
    6  A    between atoms: C_19  and  C_24
                            x       y       z     vdW  Elec       q    Type
                         _______ _______ _______ _____ _____    ______ ____

>  <TORSDO>
F 6

$$$$
