=
 OpenBabel10262420513D

 28 31  0  0  1  0  0  0  0  0999 V2000
  187.2080  177.7750  145.5790 C   0  0  0  0  0  0  0  0  0  0  0  0
  182.8830  178.5220  143.5420 C   0  0  0  0  0  1  0  0  0  0  0  0
  186.3950  178.7980  142.0360 C   0  0  2  0  0  3  0  0  0  0  0  0
  184.3060  179.4670  141.0850 F   0  0  0  0  0  0  0  0  0  0  0  0
  185.1450  178.6220  144.6080 C   0  0  0  0  0  0  0  0  0  0  0  0
  187.0050  177.8550  143.0640 C   0  0  0  0  0  2  0  0  0  0  0  0
  185.4570  178.5190  147.0040 C   0  0  0  0  0  3  0  0  0  0  0  0
  184.3010  179.0610  143.4290 C   0  0  1  0  0  3  0  0  0  0  0  0
  184.6680  178.8480  145.9050 C   0  0  0  0  0  3  0  0  0  0  0  0
  184.8720  178.6660  142.0630 C   0  0  2  0  0  3  0  0  0  0  0  0
  186.6950  177.9930  146.8200 N   0  0  0  0  0  0  0  0  0  0  0  0
  186.4500  178.1080  144.4390 C   0  0  0  0  0  0  0  0  0  0  0  0
  189.4120  178.0800  144.7060 O   0  0  0  0  0  0  0  0  0  0  0  0
  188.5850  177.2050  145.4430 C   0  0  1  0  0  3  0  0  0  0  0  0
  190.5780  177.3880  144.2780 C   0  0  0  0  0  0  0  0  0  0  0  0
  190.7210  176.9430  146.7630 C   0  0  0  0  0  2  0  0  0  0  0  0
  191.2220  176.5250  145.3840 C   0  0  0  0  0  2  0  0  0  0  0  0
  189.1930  176.9030  146.8180 C   0  0  0  0  0  2  0  0  0  0  0  0
  190.2580  176.5100  143.0790 C   0  0  0  0  0  1  0  0  0  0  0  0
  191.5990  178.4170  143.8380 C   0  0  0  0  0  1  0  0  0  0  0  0
  186.1130  178.2300  139.5910 C   0  0  0  0  0  3  0  0  0  0  0  0
  188.3490  178.5320  140.4780 C   0  0  0  0  0  0  0  0  0  0  0  0
  188.0320  177.9830  138.1390 C   0  0  0  0  0  0  0  0  0  0  0  0
  186.9590  178.5160  140.6740 C   0  0  0  0  0  0  0  0  0  0  0  0
  188.8810  178.2660  139.2120 C   0  0  0  0  0  3  0  0  0  0  0  0
  189.1890  178.8030  141.5080 F   0  0  0  0  0  0  0  0  0  0  0  0
  188.5510  177.7270  136.9150 F   0  0  0  0  0  0  0  0  0  0  0  0
  186.6480  177.9650  138.3280 C   0  0  0  0  0  3  0  0  0  0  0  0
  1 11  1  0  0  0  0
  3 24  1  6  0  0  0
  3 10  1  0  0  0  0
  3  6  1  0  0  0  0
  5  9  2  0  0  0  0
  6 12  1  0  0  0  0
  8  2  1  1  0  0  0
  8  5  1  0  0  0  0
  9  7  1  0  0  0  0
 10  4  1  6  0  0  0
 10  8  1  0  0  0  0
 11  7  2  0  0  0  0
 12  5  1  0  0  0  0
 12  1  2  0  0  0  0
 13 14  1  0  0  0  0
 14  1  1  1  0  0  0
 14 18  1  0  0  0  0
 15 13  1  0  0  0  0
 15 17  1  0  0  0  0
 16 18  1  0  0  0  0
 17 16  1  0  0  0  0
 19 15  1  0  0  0  0
 20 15  1  0  0  0  0
 21 24  1  0  0  0  0
 22 24  2  0  0  0  0
 22 26  1  0  0  0  0
 23 28  1  0  0  0  0
 23 25  2  0  0  0  0
 25 22  1  0  0  0  0
 27 23  1  0  0  0  0
 28 21  2  0  0  0  0
M  END
>  <MODEL>
1

>  <REMARK>
 VINA RESULT:     -10.6      0.000      0.000
  Name = 
  2 active torsions:
  status: ('A' for Active; 'I' for Inactive)
    1  A    between atoms: C_1  and  C_3
    2  A    between atoms: C_10  and  C_13
                            x       y       z     vdW  Elec       q    Type
                         _______ _______ _______ _____ _____    ______ ____

>  <TORSDO>
F 2

$$$$
=
 OpenBabel10262420513D

 28 31  0  0  1  0  0  0  0  0999 V2000
  186.5760  178.1330  142.6520 C   0  0  0  0  0  0  0  0  0  0  0  0
  190.3830  176.5860  140.0970 C   0  0  0  0  0  1  0  0  0  0  0  0
  190.1010  177.4490  143.8200 C   0  0  2  0  0  3  0  0  0  0  0  0
  192.0660  176.9810  142.5410 F   0  0  0  0  0  0  0  0  0  0  0  0
  188.6310  177.8220  141.3890 C   0  0  0  0  0  0  0  0  0  0  0  0
  188.5970  177.2110  143.8500 C   0  0  0  0  0  2  0  0  0  0  0  0
  186.6390  178.7160  140.3490 C   0  0  0  0  0  3  0  0  0  0  0  0
  190.1050  177.4870  141.2910 C   0  0  1  0  0  3  0  0  0  0  0  0
  187.9760  178.3340  140.2630 C   0  0  0  0  0  3  0  0  0  0  0  0
  190.6880  176.8340  142.5490 C   0  0  2  0  0  3  0  0  0  0  0  0
  185.9740  178.6060  141.5270 N   0  0  0  0  0  0  0  0  0  0  0  0
  187.9310  177.7500  142.6140 C   0  0  0  0  0  0  0  0  0  0  0  0
  186.3700  178.8700  144.9160 O   0  0  0  0  0  0  0  0  0  0  0  0
  185.7920  178.0490  143.9240 C   0  0  1  0  0  3  0  0  0  0  0  0
  185.8520  178.5140  146.1920 C   0  0  0  0  0  0  0  0  0  0  0  0
  183.6810  178.9560  144.9720 C   0  0  0  0  0  2  0  0  0  0  0  0
  184.3210  178.3180  146.2010 C   0  0  0  0  0  2  0  0  0  0  0  0
  184.3230  178.4230  143.6900 C   0  0  0  0  0  2  0  0  0  0  0  0
  186.5230  177.2470  146.6970 C   0  0  0  0  0  1  0  0  0  0  0  0
  186.1820  179.6310  147.1600 C   0  0  0  0  0  1  0  0  0  0  0  0
  191.6930  175.8660  144.9770 C   0  0  0  0  0  3  0  0  0  0  0  0
  190.3760  177.3980  146.3180 C   0  0  0  0  0  0  0  0  0  0  0  0
  191.9140  175.8610  147.3870 C   0  0  0  0  0  0  0  0  0  0  0  0
  190.7390  176.8930  145.0590 C   0  0  0  0  0  0  0  0  0  0  0  0
  190.9650  176.8810  147.4770 C   0  0  0  0  0  3  0  0  0  0  0  0
  189.4550  178.3880  146.4240 F   0  0  0  0  0  0  0  0  0  0  0  0
  192.4820  175.3630  148.5110 F   0  0  0  0  0  0  0  0  0  0  0  0
  192.2780  175.3520  146.1370 C   0  0  0  0  0  3  0  0  0  0  0  0
  3  6  1  0  0  0  0
  3 24  1  1  0  0  0
  5 12  2  0  0  0  0
  7 11  1  0  0  0  0
  8  2  1  6  0  0  0
  8  5  1  0  0  0  0
  8 10  1  0  0  0  0
  9  7  2  0  0  0  0
  9  5  1  0  0  0  0
 10  4  1  1  0  0  0
 10  3  1  0  0  0  0
 11  1  2  0  0  0  0
 12  1  1  0  0  0  0
 12  6  1  0  0  0  0
 13 15  1  0  0  0  0
 14  1  1  6  0  0  0
 14 13  1  0  0  0  0
 15 17  1  0  0  0  0
 15 19  1  0  0  0  0
 15 20  1  0  0  0  0
 16 17  1  0  0  0  0
 18 14  1  0  0  0  0
 18 16  1  0  0  0  0
 21 24  2  0  0  0  0
 21 28  1  0  0  0  0
 22 26  1  0  0  0  0
 22 25  2  0  0  0  0
 23 25  1  0  0  0  0
 23 27  1  0  0  0  0
 24 22  1  0  0  0  0
 28 23  2  0  0  0  0
M  END
>  <MODEL>
2

>  <REMARK>
 VINA RESULT:     -10.6      2.583      6.704
  Name = 
  2 active torsions:
  status: ('A' for Active; 'I' for Inactive)
    1  A    between atoms: C_1  and  C_3
    2  A    between atoms: C_10  and  C_13
                            x       y       z     vdW  Elec       q    Type
                         _______ _______ _______ _____ _____    ______ ____

>  <TORSDO>
F 2

$$$$
=
 OpenBabel10262420513D

 28 31  0  0  1  0  0  0  0  0999 V2000
  186.6110  178.4710  141.0870 C   0  0  0  0  0  0  0  0  0  0  0  0
  182.8130  179.7550  143.7960 C   0  0  0  0  0  1  0  0  0  0  0  0
  186.0430  177.9470  144.7830 C   0  0  2  0  0  3  0  0  0  0  0  0
  184.0680  178.2910  146.0840 F   0  0  0  0  0  0  0  0  0  0  0  0
  184.5840  178.6450  142.4190 C   0  0  0  0  0  0  0  0  0  0  0  0
  186.8220  178.5100  143.6020 C   0  0  0  0  0  2  0  0  0  0  0  0
  184.4990  178.5800  140.0020 C   0  0  0  0  0  3  0  0  0  0  0  0
  183.8450  178.6390  143.7410 C   0  0  1  0  0  3  0  0  0  0  0  0
  183.8440  178.6480  141.2300 C   0  0  0  0  0  3  0  0  0  0  0  0
  184.7540  178.7460  144.9710 C   0  0  2  0  0  3  0  0  0  0  0  0
  185.8540  178.4970  139.9570 N   0  0  0  0  0  0  0  0  0  0  0  0
  185.9900  178.5220  142.3500 C   0  0  0  0  0  0  0  0  0  0  0  0
  188.5760  177.2600  141.7070 O   0  0  0  0  0  0  0  0  0  0  0  0
  188.1000  178.3660  140.9700 C   0  0  1  0  0  3  0  0  0  0  0  0
  189.9820  177.3760  141.8880 C   0  0  0  0  0  0  0  0  0  0  0  0
  189.8730  177.5510  139.3680 C   0  0  0  0  0  2  0  0  0  0  0  0
  190.7360  177.7830  140.6050 C   0  0  0  0  0  2  0  0  0  0  0  0
  188.5310  178.2730  139.5020 C   0  0  0  0  0  2  0  0  0  0  0  0
  190.2890  178.3780  142.9900 C   0  0  0  0  0  1  0  0  0  0  0  0
  190.5100  176.0270  142.3290 C   0  0  0  0  0  1  0  0  0  0  0  0
  186.4950  178.6680  147.1610 C   0  0  0  0  0  3  0  0  0  0  0  0
  188.1100  177.2520  146.0340 C   0  0  0  0  0  0  0  0  0  0  0  0
  188.5040  177.9700  148.3150 C   0  0  0  0  0  0  0  0  0  0  0  0
  186.8950  177.9560  146.0180 C   0  0  0  0  0  0  0  0  0  0  0  0
  188.9090  177.2600  147.1820 C   0  0  0  0  0  3  0  0  0  0  0  0
  188.5190  176.5590  144.9420 F   0  0  0  0  0  0  0  0  0  0  0  0
  189.2820  177.9750  149.4240 F   0  0  0  0  0  0  0  0  0  0  0  0
  187.2970  178.6740  148.3050 C   0  0  0  0  0  3  0  0  0  0  0  0
  1 12  1  0  0  0  0
  3 10  1  0  0  0  0
  3 24  1  1  0  0  0
  5  8  1  0  0  0  0
  6  3  1  0  0  0  0
  7  9  2  0  0  0  0
  8  2  1  6  0  0  0
  8 10  1  0  0  0  0
  9  5  1  0  0  0  0
 10  4  1  1  0  0  0
 11  7  1  0  0  0  0
 11  1  2  0  0  0  0
 12  5  2  0  0  0  0
 12  6  1  0  0  0  0
 13 15  1  0  0  0  0
 14  1  1  6  0  0  0
 14 13  1  0  0  0  0
 15 20  1  0  0  0  0
 15 19  1  0  0  0  0
 16 18  1  0  0  0  0
 16 17  1  0  0  0  0
 17 15  1  0  0  0  0
 18 14  1  0  0  0  0
 21 28  1  0  0  0  0
 22 25  2  0  0  0  0
 23 27  1  0  0  0  0
 24 22  1  0  0  0  0
 24 21  2  0  0  0  0
 25 23  1  0  0  0  0
 26 22  1  0  0  0  0
 28 23  2  0  0  0  0
M  END
>  <MODEL>
3

>  <REMARK>
 VINA RESULT:     -10.4      2.698      5.815
  Name = 
  2 active torsions:
  status: ('A' for Active; 'I' for Inactive)
    1  A    between atoms: C_1  and  C_3
    2  A    between atoms: C_10  and  C_13
                            x       y       z     vdW  Elec       q    Type
                         _______ _______ _______ _____ _____    ______ ____

>  <TORSDO>
F 2

$$$$
=
 OpenBabel10262420513D

 28 31  0  0  1  0  0  0  0  0999 V2000
  186.0840  178.0780  145.1160 C   0  0  0  0  0  0  0  0  0  0  0  0
  182.7340  178.5520  141.6570 C   0  0  0  0  0  1  0  0  0  0  0  0
  186.5550  178.7000  141.4210 C   0  0  2  0  0  3  0  0  0  0  0  0
  184.9340  179.2390  139.7490 F   0  0  0  0  0  0  0  0  0  0  0  0
  184.5000  178.7920  143.4150 C   0  0  0  0  0  0  0  0  0  0  0  0
  186.7520  177.8810  142.6900 C   0  0  0  0  0  2  0  0  0  0  0  0
  183.9730  178.9540  145.7700 C   0  0  0  0  0  3  0  0  0  0  0  0
  184.1190  179.0910  141.9790 C   0  0  1  0  0  3  0  0  0  0  0  0
  183.6150  179.1520  144.4390 C   0  0  0  0  0  3  0  0  0  0  0  0
  185.1110  178.5560  140.9410 C   0  0  2  0  0  3  0  0  0  0  0  0
  185.1850  178.4240  146.0780 N   0  0  0  0  0  0  0  0  0  0  0  0
  185.7690  178.2760  143.7580 C   0  0  0  0  0  0  0  0  0  0  0  0
  188.4610  178.2310  144.9130 O   0  0  0  0  0  0  0  0  0  0  0  0
  187.4090  177.5110  145.5200 C   0  0  1  0  0  3  0  0  0  0  0  0
  189.6660  177.4830  145.0040 C   0  0  0  0  0  0  0  0  0  0  0  0
  189.0350  177.5510  147.4520 C   0  0  0  0  0  2  0  0  0  0  0  0
  189.9060  176.8700  146.4000 C   0  0  0  0  0  2  0  0  0  0  0  0
  187.5610  177.5020  147.0460 C   0  0  0  0  0  2  0  0  0  0  0  0
  189.6790  176.3760  143.9620 C   0  0  0  0  0  1  0  0  0  0  0  0
  190.8210  178.4160  144.7020 C   0  0  0  0  0  1  0  0  0  0  0  0
  187.1080  177.8810  139.0970 C   0  0  0  0  0  3  0  0  0  0  0  0
  188.9140  178.2710  140.6670 C   0  0  0  0  0  0  0  0  0  0  0  0
  189.3990  177.4830  138.4280 C   0  0  0  0  0  0  0  0  0  0  0  0
  187.5410  178.2780  140.3730 C   0  0  0  0  0  0  0  0  0  0  0  0
  189.8380  177.8750  139.6950 C   0  0  0  0  0  3  0  0  0  0  0  0
  189.3580  178.6470  141.8930 F   0  0  0  0  0  0  0  0  0  0  0  0
  190.2970  177.1000  137.4890 F   0  0  0  0  0  0  0  0  0  0  0  0
  188.0340  177.4860  138.1290 C   0  0  0  0  0  3  0  0  0  0  0  0
  1 11  1  0  0  0  0
  3 24  1  6  0  0  0
  3  6  1  0  0  0  0
  5 12  1  0  0  0  0
  5  9  2  0  0  0  0
  6 12  1  0  0  0  0
  7 11  2  0  0  0  0
  8  2  1  6  0  0  0
  8  5  1  0  0  0  0
  9  7  1  0  0  0  0
 10  4  1  6  0  0  0
 10  3  1  0  0  0  0
 10  8  1  0  0  0  0
 12  1  2  0  0  0  0
 13 15  1  0  0  0  0
 13 14  1  0  0  0  0
 14  1  1  1  0  0  0
 14 18  1  0  0  0  0
 15 17  1  0  0  0  0
 17 16  1  0  0  0  0
 18 16  1  0  0  0  0
 19 15  1  0  0  0  0
 20 15  1  0  0  0  0
 21 24  1  0  0  0  0
 22 26  1  0  0  0  0
 23 25  2  0  0  0  0
 24 22  2  0  0  0  0
 25 22  1  0  0  0  0
 27 23  1  0  0  0  0
 28 23  1  0  0  0  0
 28 21  2  0  0  0  0
M  END
>  <MODEL>
4

>  <REMARK>
 VINA RESULT:      -9.9      1.102      1.369
  Name = 
  2 active torsions:
  status: ('A' for Active; 'I' for Inactive)
    1  A    between atoms: C_1  and  C_3
    2  A    between atoms: C_10  and  C_13
                            x       y       z     vdW  Elec       q    Type
                         _______ _______ _______ _____ _____    ______ ____

>  <TORSDO>
F 2

$$$$
=
 OpenBabel10262420513D

 28 31  0  0  1  0  0  0  0  0999 V2000
  184.7930  178.5410  144.4820 C   0  0  0  0  0  0  0  0  0  0  0  0
  189.1790  178.3320  146.5150 C   0  0  0  0  0  1  0  0  0  0  0  0
  188.0540  177.3730  142.9810 C   0  0  2  0  0  3  0  0  0  0  0  0
  190.1610  176.9710  144.0370 F   0  0  0  0  0  0  0  0  0  0  0  0
  186.9050  177.9590  145.5380 C   0  0  0  0  0  0  0  0  0  0  0  0
  186.8380  178.2880  143.0250 C   0  0  0  0  0  2  0  0  0  0  0  0
  184.8780  178.2080  146.8340 C   0  0  0  0  0  3  0  0  0  0  0  0
  188.3670  177.5650  145.4820 C   0  0  1  0  0  3  0  0  0  0  0  0
  186.2390  177.9200  146.7700 C   0  0  0  0  0  3  0  0  0  0  0  0
  189.0170  177.7490  144.1070 C   0  0  2  0  0  3  0  0  0  0  0  0
  184.1910  178.5120  145.7030 N   0  0  0  0  0  0  0  0  0  0  0  0
  186.1640  178.2420  144.3690 C   0  0  0  0  0  0  0  0  0  0  0  0
  184.0460  177.8210  142.3290 O   0  0  0  0  0  0  0  0  0  0  0  0
  183.9780  178.8700  143.2710 C   0  0  1  0  0  3  0  0  0  0  0  0
  183.5850  178.2810  141.0660 C   0  0  0  0  0  0  0  0  0  0  0  0
  181.5790  178.8820  142.4840 C   0  0  0  0  0  2  0  0  0  0  0  0
  182.2850  179.1090  141.1500 C   0  0  0  0  0  2  0  0  0  0  0  0
  182.5240  179.1720  143.6510 C   0  0  0  0  0  2  0  0  0  0  0  0
  184.6620  179.1080  140.3820 C   0  0  0  0  0  1  0  0  0  0  0  0
  183.3090  177.0710  140.1980 C   0  0  0  0  0  1  0  0  0  0  0  0
  188.3180  178.4160  140.6950 C   0  0  0  0  0  3  0  0  0  0  0  0
  189.7250  176.5360  141.2990 C   0  0  0  0  0  0  0  0  0  0  0  0
  189.9420  177.5660  139.1170 C   0  0  0  0  0  0  0  0  0  0  0  0
  188.7110  177.4480  141.6330 C   0  0  0  0  0  0  0  0  0  0  0  0
  190.3380  176.5990  140.0430 C   0  0  0  0  0  3  0  0  0  0  0  0
  190.1210  175.5890  142.1860 F   0  0  0  0  0  0  0  0  0  0  0  0
  190.5380  177.6240  137.9020 F   0  0  0  0  0  0  0  0  0  0  0  0
  188.9320  178.4760  139.4420 C   0  0  0  0  0  3  0  0  0  0  0  0
  1 11  1  0  0  0  0
  3 24  1  6  0  0  0
  3  6  1  0  0  0  0
  3 10  1  0  0  0  0
  5  9  2  0  0  0  0
  6 12  1  0  0  0  0
  8  5  1  0  0  0  0
  8  2  1  1  0  0  0
  9  7  1  0  0  0  0
 10  4  1  1  0  0  0
 10  8  1  0  0  0  0
 11  7  2  0  0  0  0
 12  1  2  0  0  0  0
 12  5  1  0  0  0  0
 13 14  1  0  0  0  0
 14 18  1  0  0  0  0
 14  1  1  1  0  0  0
 15 17  1  0  0  0  0
 15 13  1  0  0  0  0
 16 18  1  0  0  0  0
 17 16  1  0  0  0  0
 19 15  1  0  0  0  0
 20 15  1  0  0  0  0
 21 24  1  0  0  0  0
 22 24  2  0  0  0  0
 22 26  1  0  0  0  0
 23 28  1  0  0  0  0
 23 25  2  0  0  0  0
 25 22  1  0  0  0  0
 27 23  1  0  0  0  0
 28 21  2  0  0  0  0
M  END
>  <MODEL>
5

>  <REMARK>
 VINA RESULT:      -9.7      2.367      5.165
  Name = 
  2 active torsions:
  status: ('A' for Active; 'I' for Inactive)
    1  A    between atoms: C_1  and  C_3
    2  A    between atoms: C_10  and  C_13
                            x       y       z     vdW  Elec       q    Type
                         _______ _______ _______ _____ _____    ______ ____

>  <TORSDO>
F 2

$$$$
=
 OpenBabel10262420513D

 28 31  0  0  1  0  0  0  0  0999 V2000
  187.9990  178.1250  139.3890 C   0  0  0  0  0  0  0  0  0  0  0  0
  183.4230  179.6980  139.3390 C   0  0  0  0  0  1  0  0  0  0  0  0
  185.4340  178.0610  142.1600 C   0  0  2  0  0  3  0  0  0  0  0  0
  183.0950  178.5450  142.0810 F   0  0  0  0  0  0  0  0  0  0  0  0
  185.5890  178.4430  139.3250 C   0  0  0  0  0  0  0  0  0  0  0  0
  186.7730  178.4800  141.5660 C   0  0  0  0  0  2  0  0  0  0  0  0
  186.8630  178.0760  137.3020 C   0  0  0  0  0  3  0  0  0  0  0  0
  184.2400  178.5950  139.9960 C   0  0  1  0  0  3  0  0  0  0  0  0
  185.6400  178.2890  137.9340 C   0  0  0  0  0  3  0  0  0  0  0  0
  184.3120  178.8640  141.5030 C   0  0  2  0  0  3  0  0  0  0  0  0
  188.0040  178.0020  138.0340 N   0  0  0  0  0  0  0  0  0  0  0  0
  186.7830  178.3270  140.0700 C   0  0  0  0  0  0  0  0  0  0  0  0
  189.2130  177.0050  141.1160 O   0  0  0  0  0  0  0  0  0  0  0  0
  189.2900  178.0220  140.1400 C   0  0  1  0  0  3  0  0  0  0  0  0
  190.2800  177.1530  142.0450 C   0  0  0  0  0  0  0  0  0  0  0  0
  191.6110  177.0580  139.8960 C   0  0  0  0  0  2  0  0  0  0  0  0
  191.6430  177.4280  141.3760 C   0  0  0  0  0  2  0  0  0  0  0  0
  190.4640  177.7780  139.1850 C   0  0  0  0  0  2  0  0  0  0  0  0
  189.9690  178.2680  143.0290 C   0  0  0  0  0  1  0  0  0  0  0  0
  190.4000  175.8630  142.8300 C   0  0  0  0  0  1  0  0  0  0  0  0
  184.5920  179.1510  144.2770 C   0  0  0  0  0  3  0  0  0  0  0  0
  186.3380  177.4760  144.4310 C   0  0  0  0  0  0  0  0  0  0  0  0
  185.5020  178.5490  146.4360 C   0  0  0  0  0  0  0  0  0  0  0  0
  185.4510  178.2340  143.6500 C   0  0  0  0  0  0  0  0  0  0  0  0
  186.3610  177.6350  145.8210 C   0  0  0  0  0  3  0  0  0  0  0  0
  187.1800  176.5850  143.8500 F   0  0  0  0  0  0  0  0  0  0  0  0
  185.5270  178.7000  147.7820 F   0  0  0  0  0  0  0  0  0  0  0  0
  184.6170  179.3080  145.6650 C   0  0  0  0  0  3  0  0  0  0  0  0
  1 12  1  0  0  0  0
  3 24  1  1  0  0  0
  5  8  1  0  0  0  0
  5 12  2  0  0  0  0
  6  3  1  0  0  0  0
  7  9  2  0  0  0  0
  7 11  1  0  0  0  0
  8  2  1  6  0  0  0
  8 10  1  0  0  0  0
  9  5  1  0  0  0  0
 10  4  1  1  0  0  0
 10  3  1  0  0  0  0
 11  1  2  0  0  0  0
 12  6  1  0  0  0  0
 13 15  1  0  0  0  0
 14  1  1  6  0  0  0
 14 13  1  0  0  0  0
 15 20  1  0  0  0  0
 15 19  1  0  0  0  0
 16 17  1  0  0  0  0
 17 15  1  0  0  0  0
 18 16  1  0  0  0  0
 18 14  1  0  0  0  0
 21 28  1  0  0  0  0
 22 25  2  0  0  0  0
 23 27  1  0  0  0  0
 24 21  2  0  0  0  0
 24 22  1  0  0  0  0
 25 23  1  0  0  0  0
 26 22  1  0  0  0  0
 28 23  2  0  0  0  0
M  END
>  <MODEL>
6

>  <REMARK>
 VINA RESULT:      -9.7      2.826      5.787
  Name = 
  2 active torsions:
  status: ('A' for Active; 'I' for Inactive)
    1  A    between atoms: C_1  and  C_3
    2  A    between atoms: C_10  and  C_13
                            x       y       z     vdW  Elec       q    Type
                         _______ _______ _______ _____ _____    ______ ____

>  <TORSDO>
F 2

$$$$
=
 OpenBabel10262420513D

 28 31  0  0  1  0  0  0  0  0999 V2000
  186.8000  178.4120  139.7960 C   0  0  0  0  0  0  0  0  0  0  0  0
  184.5330  179.5400  143.9190 C   0  0  0  0  0  1  0  0  0  0  0  0
  187.6330  177.3670  143.3270 C   0  0  2  0  0  3  0  0  0  0  0  0
  186.3710  177.6510  145.3370 F   0  0  0  0  0  0  0  0  0  0  0  0
  185.4800  178.5270  141.8350 C   0  0  0  0  0  0  0  0  0  0  0  0
  187.9640  178.0460  142.0050 C   0  0  0  0  0  2  0  0  0  0  0  0
  184.4660  178.8430  139.6620 C   0  0  0  0  0  3  0  0  0  0  0  0
  185.3130  178.3720  143.3330 C   0  0  1  0  0  3  0  0  0  0  0  0
  184.3470  178.7680  141.0480 C   0  0  0  0  0  3  0  0  0  0  0  0
  186.6290  178.2210  144.1020 C   0  0  2  0  0  3  0  0  0  0  0  0
  185.6760  178.6680  139.0720 N   0  0  0  0  0  0  0  0  0  0  0  0
  186.7230  178.3130  141.1980 C   0  0  0  0  0  0  0  0  0  0  0  0
  188.3080  176.8500  138.7970 O   0  0  0  0  0  0  0  0  0  0  0  0
  188.1020  178.2170  139.0850 C   0  0  1  0  0  3  0  0  0  0  0  0
  189.6720  176.6330  138.4600 C   0  0  0  0  0  0  0  0  0  0  0  0
  189.1140  178.4400  136.7820 C   0  0  0  0  0  2  0  0  0  0  0  0
  190.2390  177.6830  137.4810 C   0  0  0  0  0  2  0  0  0  0  0  0
  188.1630  179.0610  137.8060 C   0  0  0  0  0  2  0  0  0  0  0  0
  190.5260  176.6060  139.7180 C   0  0  0  0  0  1  0  0  0  0  0  0
  189.7810  175.2750  137.7990 C   0  0  0  0  0  1  0  0  0  0  0  0
  189.1160  177.7900  145.3280 C   0  0  0  0  0  3  0  0  0  0  0  0
  189.8510  176.2220  143.6300 C   0  0  0  0  0  0  0  0  0  0  0  0
  191.2420  176.6600  145.5640 C   0  0  0  0  0  0  0  0  0  0  0  0
  188.8870  177.1230  144.1130 C   0  0  0  0  0  0  0  0  0  0  0  0
  191.0230  175.9940  144.3560 C   0  0  0  0  0  3  0  0  0  0  0  0
  189.6550  175.5680  142.4580 F   0  0  0  0  0  0  0  0  0  0  0  0
  192.3790  176.4360  146.2650 F   0  0  0  0  0  0  0  0  0  0  0  0
  190.2880  177.5590  146.0500 C   0  0  0  0  0  3  0  0  0  0  0  0
  1 12  1  0  0  0  0
  3 10  1  0  0  0  0
  3 24  1  1  0  0  0
  5  8  1  0  0  0  0
  6  3  1  0  0  0  0
  7  9  2  0  0  0  0
  8  2  1  1  0  0  0
  8 10  1  0  0  0  0
  9  5  1  0  0  0  0
 10  4  1  1  0  0  0
 11  7  1  0  0  0  0
 11  1  2  0  0  0  0
 12  5  2  0  0  0  0
 12  6  1  0  0  0  0
 13 14  1  0  0  0  0
 14  1  1  6  0  0  0
 15 13  1  0  0  0  0
 15 19  1  0  0  0  0
 16 17  1  0  0  0  0
 16 18  1  0  0  0  0
 17 15  1  0  0  0  0
 18 14  1  0  0  0  0
 20 15  1  0  0  0  0
 21 28  1  0  0  0  0
 22 24  1  0  0  0  0
 22 25  2  0  0  0  0
 23 28  2  0  0  0  0
 23 27  1  0  0  0  0
 24 21  2  0  0  0  0
 25 23  1  0  0  0  0
 26 22  1  0  0  0  0
M  END
>  <MODEL>
7

>  <REMARK>
 VINA RESULT:      -9.6      2.802      6.092
  Name = 
  2 active torsions:
  status: ('A' for Active; 'I' for Inactive)
    1  A    between atoms: C_1  and  C_3
    2  A    between atoms: C_10  and  C_13
                            x       y       z     vdW  Elec       q    Type
                         _______ _______ _______ _____ _____    ______ ____

>  <TORSDO>
F 2

$$$$
=
 OpenBabel10262420513D

 28 31  0  0  1  0  0  0  0  0999 V2000
  187.0450  178.0720  146.0950 C   0  0  0  0  0  0  0  0  0  0  0  0
  191.7120  176.9290  146.6710 C   0  0  0  0  0  1  0  0  0  0  0  0
  189.5280  176.8510  143.5250 C   0  0  2  0  0  3  0  0  0  0  0  0
  191.7380  175.9930  143.8280 F   0  0  0  0  0  0  0  0  0  0  0  0
  189.2290  177.0380  146.3680 C   0  0  0  0  0  0  0  0  0  0  0  0
  188.5460  177.8770  144.0750 C   0  0  0  0  0  2  0  0  0  0  0  0
  187.7020  177.2600  148.2300 C   0  0  0  0  0  3  0  0  0  0  0  0
  190.5310  176.4920  145.8170 C   0  0  1  0  0  3  0  0  0  0  0  0
  188.9250  176.8300  147.7180 C   0  0  0  0  0  3  0  0  0  0  0  0
  190.8080  176.8720  144.3590 C   0  0  2  0  0  3  0  0  0  0  0  0
  186.8000  177.8680  147.4180 N   0  0  0  0  0  0  0  0  0  0  0  0
  188.2620  177.6400  145.5320 C   0  0  0  0  0  0  0  0  0  0  0  0
  185.7680  177.9870  144.0760 O   0  0  0  0  0  0  0  0  0  0  0  0
  186.0040  178.7370  145.2490 C   0  0  1  0  0  3  0  0  0  0  0  0
  185.0690  178.7870  143.1310 C   0  0  0  0  0  0  0  0  0  0  0  0
  183.4980  179.0030  145.1010 C   0  0  0  0  0  2  0  0  0  0  0  0
  183.8950  179.5790  143.7450 C   0  0  0  0  0  2  0  0  0  0  0  0
  184.7050  178.9440  146.0370 C   0  0  0  0  0  2  0  0  0  0  0  0
  186.0240  179.7530  142.4500 C   0  0  0  0  0  1  0  0  0  0  0  0
  184.5030  177.8680  142.0680 C   0  0  0  0  0  1  0  0  0  0  0  0
  191.1140  177.2500  141.6000 C   0  0  0  0  0  3  0  0  0  0  0  0
  188.7270  177.2470  141.1750 C   0  0  0  0  0  0  0  0  0  0  0  0
  190.2850  177.6280  139.3590 C   0  0  0  0  0  0  0  0  0  0  0  0
  189.7990  177.1190  142.0730 C   0  0  0  0  0  0  0  0  0  0  0  0
  188.9740  177.5010  139.8220 C   0  0  0  0  0  3  0  0  0  0  0  0
  187.4470  177.1280  141.6070 F   0  0  0  0  0  0  0  0  0  0  0  0
  190.5200  177.8730  138.0470 F   0  0  0  0  0  0  0  0  0  0  0  0
  191.3560  177.5030  140.2480 C   0  0  0  0  0  3  0  0  0  0  0  0
  1 11  1  0  0  0  0
  3 24  1  6  0  0  0
  3  6  1  0  0  0  0
  3 10  1  0  0  0  0
  5  9  2  0  0  0  0
  6 12  1  0  0  0  0
  8  5  1  0  0  0  0
  8  2  1  1  0  0  0
  9  7  1  0  0  0  0
 10  4  1  6  0  0  0
 10  8  1  0  0  0  0
 11  7  2  0  0  0  0
 12  1  2  0  0  0  0
 12  5  1  0  0  0  0
 13 14  1  0  0  0  0
 14 18  1  0  0  0  0
 14  1  1  1  0  0  0
 15 17  1  0  0  0  0
 15 13  1  0  0  0  0
 16 18  1  0  0  0  0
 17 16  1  0  0  0  0
 19 15  1  0  0  0  0
 20 15  1  0  0  0  0
 21 24  1  0  0  0  0
 22 26  1  0  0  0  0
 22 24  2  0  0  0  0
 23 25  2  0  0  0  0
 23 28  1  0  0  0  0
 25 22  1  0  0  0  0
 27 23  1  0  0  0  0
 28 21  2  0  0  0  0
M  END
>  <MODEL>
8

>  <REMARK>
 VINA RESULT:      -9.4      1.776      5.065
  Name = 
  2 active torsions:
  status: ('A' for Active; 'I' for Inactive)
    1  A    between atoms: C_1  and  C_3
    2  A    between atoms: C_10  and  C_13
                            x       y       z     vdW  Elec       q    Type
                         _______ _______ _______ _____ _____    ______ ____

>  <TORSDO>
F 2

$$$$
=
 OpenBabel10262420513D

 28 31  0  0  1  0  0  0  0  0999 V2000
  183.1940  178.7480  142.0210 C   0  0  0  0  0  0  0  0  0  0  0  0
  185.6800  179.2740  146.1390 C   0  0  0  0  0  1  0  0  0  0  0  0
  186.6970  177.6050  142.8440 C   0  0  2  0  0  3  0  0  0  0  0  0
  187.8370  177.5770  144.9450 F   0  0  0  0  0  0  0  0  0  0  0  0
  184.3320  178.5430  144.1610 C   0  0  0  0  0  0  0  0  0  0  0  0
  185.6950  178.4090  142.0260 C   0  0  0  0  0  2  0  0  0  0  0  0
  181.9370  178.8520  144.0360 C   0  0  0  0  0  3  0  0  0  0  0  0
  185.5610  178.2690  145.0030 C   0  0  1  0  0  3  0  0  0  0  0  0
  183.0910  178.6710  144.7950 C   0  0  0  0  0  3  0  0  0  0  0  0
  186.8760  178.2560  144.2150 C   0  0  2  0  0  3  0  0  0  0  0  0
  182.0120  178.8890  142.6810 N   0  0  0  0  0  0  0  0  0  0  0  0
  184.3830  178.5490  142.7490 C   0  0  0  0  0  0  0  0  0  0  0  0
  183.4360  177.4950  140.0010 O   0  0  0  0  0  0  0  0  0  0  0  0
  183.2080  178.7860  140.5250 C   0  0  1  0  0  3  0  0  0  0  0  0
  183.8040  177.5940  138.6310 C   0  0  0  0  0  0  0  0  0  0  0  0
  181.6180  178.8630  138.5660 C   0  0  0  0  0  2  0  0  0  0  0  0
  182.9190  178.5680  137.8250 C   0  0  0  0  0  2  0  0  0  0  0  0
  181.9040  179.3770  139.9770 C   0  0  0  0  0  2  0  0  0  0  0  0
  185.2590  178.0180  138.5070 C   0  0  0  0  0  1  0  0  0  0  0  0
  183.6680  176.2200  138.0090 C   0  0  0  0  0  1  0  0  0  0  0  0
  188.3050  178.3700  141.0520 C   0  0  0  0  0  3  0  0  0  0  0  0
  188.9180  176.4910  142.4570 C   0  0  0  0  0  0  0  0  0  0  0  0
  190.4280  177.2570  140.7250 C   0  0  0  0  0  0  0  0  0  0  0  0
  187.9970  177.4910  142.1030 C   0  0  0  0  0  0  0  0  0  0  0  0
  190.1290  176.3780  141.7680 C   0  0  0  0  0  3  0  0  0  0  0  0
  188.6430  175.6280  143.4670 F   0  0  0  0  0  0  0  0  0  0  0  0
  191.6030  177.1440  140.0600 F   0  0  0  0  0  0  0  0  0  0  0  0
  189.5160  178.2530  140.3660 C   0  0  0  0  0  3  0  0  0  0  0  0
  1 11  2  0  0  0  0
  1 12  1  0  0  0  0
  3 24  1  6  0  0  0
  3 10  1  0  0  0  0
  5  9  1  0  0  0  0
  5  8  1  0  0  0  0
  6 12  1  0  0  0  0
  6  3  1  0  0  0  0
  7  9  2  0  0  0  0
  8  2  1  1  0  0  0
 10  4  1  1  0  0  0
 10  8  1  0  0  0  0
 11  7  1  0  0  0  0
 12  5  2  0  0  0  0
 13 14  1  0  0  0  0
 14  1  1  1  0  0  0
 15 13  1  0  0  0  0
 16 18  1  0  0  0  0
 17 16  1  0  0  0  0
 17 15  1  0  0  0  0
 18 14  1  0  0  0  0
 19 15  1  0  0  0  0
 20 15  1  0  0  0  0
 21 24  1  0  0  0  0
 22 26  1  0  0  0  0
 23 25  2  0  0  0  0
 24 22  2  0  0  0  0
 25 22  1  0  0  0  0
 27 23  1  0  0  0  0
 28 23  1  0  0  0  0
 28 21  2  0  0  0  0
M  END
>  <MODEL>
9

>  <REMARK>
 VINA RESULT:      -9.3      3.036      5.945
  Name = 
  2 active torsions:
  status: ('A' for Active; 'I' for Inactive)
    1  A    between atoms: C_1  and  C_3
    2  A    between atoms: C_10  and  C_13
                            x       y       z     vdW  Elec       q    Type
                         _______ _______ _______ _____ _____    ______ ____

>  <TORSDO>
F 2

$$$$
