=
 OpenBabel10262419153D

 34 38  0  0  1  0  0  0  0  0999 V2000
  190.2050  177.2580  147.0660 C   0  0  0  0  0  0  0  0  0  0  0  0
  191.5290  175.8170  145.6300 C   0  0  0  0  0  0  0  0  0  0  0  0
  189.5310  177.0740  144.7260 C   0  0  0  0  0  0  0  0  0  0  0  0
  188.8470  177.2560  142.3840 C   0  0  0  0  0  0  0  0  0  0  0  0
  191.1380  177.0970  148.0920 C   0  0  0  0  0  3  0  0  0  0  0  0
  192.4490  175.6600  146.6720 C   0  0  0  0  0  3  0  0  0  0  0  0
  191.2980  177.1550  142.8930 C   0  0  0  0  0  2  0  0  0  0  0  0
  190.4440  176.7290  145.7720 C   0  0  0  0  0  0  0  0  0  0  0  0
  191.5070  176.6650  141.4660 C   0  0  0  0  0  2  0  0  0  0  0  0
  189.1010  177.0840  140.9130 C   0  0  0  0  0  2  0  0  0  0  0  0
  192.2780  176.3270  147.8830 C   0  0  0  0  0  3  0  0  0  0  0  0
  188.2610  177.6030  145.1010 C   0  0  0  0  0  0  0  0  0  0  0  0
  189.0010  177.8890  147.3450 C   0  0  0  0  0  3  0  0  0  0  0  0
  191.6170  174.5970  144.3620 Cl  0  0  0  0  0  0  0  0  0  0  0  0
  187.5590  177.5860  142.7860 C   0  0  0  0  0  3  0  0  0  0  0  0
  187.2470  177.7910  144.1330 C   0  0  0  0  0  0  0  0  0  0  0  0
  190.5490  177.4030  140.5400 C   0  0  2  0  0  3  0  0  0  0  0  0
  189.8590  177.0410  143.3420 C   0  0  0  0  0  0  0  0  0  0  0  0
  188.0550  178.0070  146.3830 N   0  0  0  0  0  0  0  0  0  0  0  0
  183.5840  178.7180  143.8060 C   0  0  0  0  0  0  0  0  0  0  0  0
  183.2530  178.9420  145.1410 C   0  0  0  0  0  3  0  0  0  0  0  0
  185.8620  178.2100  144.4800 C   0  0  0  0  0  0  0  0  0  0  0  0
  184.1970  178.7980  146.1090 N   0  0  0  0  0  0  0  0  0  0  0  0
  184.8880  178.3470  143.4790 C   0  0  0  0  0  3  0  0  0  0  0  0
  185.4750  178.4390  145.8100 C   0  0  0  0  0  3  0  0  0  0  0  0
  182.5580  178.8670  142.7410 C   0  0  0  0  0  1  0  0  0  0  0  0
  190.8120  177.0750  139.1420 N   0  0  0  0  0  0  0  0  0  0  0  0
  189.4440  177.4690  135.8530 O   0  0  0  0  0  1  0  0  0  0  0  0
  189.9950  177.3850  138.1840 C   0  0  0  0  0  3  0  0  0  0  0  0
  190.2820  177.0440  136.8260 N   0  0  0  0  0  0  0  0  0  0  0  0
  191.4930  176.3210  136.4530 C   0  0  0  0  0  2  0  0  0  0  0  0
  192.0730  174.2550  135.3900 F   0  0  0  0  0  0  0  0  0  0  0  0
  191.2240  174.8260  136.3200 C   0  0  1  0  0  3  0  0  0  0  0  0
  191.3820  174.1950  137.5550 O   0  0  0  0  0  1  0  0  0  0  0  0
  1 13  1  0  0  0  0
  1  5  2  0  0  0  0
  2  8  2  0  0  0  0
  2  6  1  0  0  0  0
  3 12  1  0  0  0  0
  3  8  1  0  0  0  0
  4 15  2  0  0  0  0
  4 18  1  0  0  0  0
  6 11  2  0  0  0  0
  7 18  1  0  0  0  0
  8  1  1  0  0  0  0
  9  7  1  0  0  0  0
 10  4  1  0  0  0  0
 11  5  1  0  0  0  0
 12 19  1  0  0  0  0
 14  2  1  0  0  0  0
 15 16  1  0  0  0  0
 16 22  1  0  0  0  0
 16 12  2  0  0  0  0
 17 27  1  6  0  0  0
 17 10  1  0  0  0  0
 17  9  1  0  0  0  0
 18  3  2  0  0  0  0
 19 13  2  0  0  0  0
 20 21  1  0  0  0  0
 21 23  2  0  0  0  0
 22 25  2  0  0  0  0
 24 20  2  0  0  0  0
 24 22  1  0  0  0  0
 25 23  1  0  0  0  0
 26 20  1  0  0  0  0
 28 30  1  0  0  0  0
 29 27  2  0  0  0  0
 30 29  1  0  0  0  0
 31 30  1  0  0  0  0
 33 32  1  6  0  0  0
 33 31  1  0  0  0  0
 33 34  1  0  0  0  0
M  END
>  <MODEL>
1

>  <REMARK>
 VINA RESULT:     -10.0      0.000      0.000
  Name = 
  4 active torsions:
  status: ('A' for Active; 'I' for Inactive)
    1  A    between atoms: N_3  and  C_29
    2  A    between atoms: C_12  and  C_28
    3  A    between atoms: C_20  and  C_22
    4  A    between atoms: C_22  and  N_33
                            x       y       z     vdW  Elec       q    Type
                         _______ _______ _______ _____ _____    ______ ____

>  <TORSDO>
F 4

$$$$
=
 OpenBabel10262419153D

 34 38  0  0  1  0  0  0  0  0999 V2000
  188.8690  177.0830  146.2630 C   0  0  0  0  0  0  0  0  0  0  0  0
  186.9670  178.5270  146.6990 C   0  0  0  0  0  0  0  0  0  0  0  0
  187.5970  177.8810  144.3370 C   0  0  0  0  0  0  0  0  0  0  0  0
  186.3170  178.3300  142.3000 C   0  0  0  0  0  0  0  0  0  0  0  0
  189.0060  176.8470  147.6320 C   0  0  0  0  0  3  0  0  0  0  0  0
  187.1260  178.2870  148.0680 C   0  0  0  0  0  3  0  0  0  0  0  0
  185.0510  177.8680  144.4130 C   0  0  0  0  0  2  0  0  0  0  0  0
  187.7690  177.8210  145.7560 C   0  0  0  0  0  0  0  0  0  0  0  0
  183.8720  178.6040  143.7880 C   0  0  0  0  0  2  0  0  0  0  0  0
  185.0640  178.7620  141.5920 C   0  0  0  0  0  2  0  0  0  0  0  0
  188.1130  177.4200  148.5310 C   0  0  0  0  0  3  0  0  0  0  0  0
  188.7090  177.5280  143.5180 C   0  0  0  0  0  0  0  0  0  0  0  0
  189.8620  176.6390  145.4020 C   0  0  0  0  0  3  0  0  0  0  0  0
  186.0130  179.9510  146.2920 Cl  0  0  0  0  0  0  0  0  0  0  0  0
  187.4690  178.1660  141.5410 C   0  0  0  0  0  3  0  0  0  0  0  0
  188.6670  177.7400  142.1200 C   0  0  0  0  0  0  0  0  0  0  0  0
  183.8050  178.2690  142.3030 C   0  0  2  0  0  3  0  0  0  0  0  0
  186.3540  178.1470  143.6990 C   0  0  0  0  0  0  0  0  0  0  0  0
  189.7820  176.9040  144.0760 N   0  0  0  0  0  0  0  0  0  0  0  0
  190.7530  176.9940  139.0420 C   0  0  0  0  0  0  0  0  0  0  0  0
  192.0400  177.1590  139.5540 C   0  0  0  0  0  3  0  0  0  0  0  0
  189.8400  177.5180  141.2310 C   0  0  0  0  0  0  0  0  0  0  0  0
  192.2130  177.4970  140.8590 N   0  0  0  0  0  0  0  0  0  0  0  0
  189.6560  177.1790  139.8820 C   0  0  0  0  0  3  0  0  0  0  0  0
  191.1550  177.6810  141.6940 C   0  0  0  0  0  3  0  0  0  0  0  0
  190.5530  176.6290  137.6150 C   0  0  0  0  0  1  0  0  0  0  0  0
  182.6050  178.8330  141.6920 N   0  0  0  0  0  0  0  0  0  0  0  0
  179.9360  178.0060  139.4480 O   0  0  0  0  0  1  0  0  0  0  0  0
  181.8780  178.1770  140.8420 C   0  0  0  0  0  3  0  0  0  0  0  0
  180.7110  178.7620  140.2580 N   0  0  0  0  0  0  0  0  0  0  0  0
  180.2910  180.1220  140.5750 C   0  0  0  0  0  2  0  0  0  0  0  0
  179.0160  178.8610  142.1630 F   0  0  0  0  0  0  0  0  0  0  0  0
  179.3610  180.1460  141.7830 C   0  0  1  0  0  3  0  0  0  0  0  0
  179.9720  180.8060  142.8500 O   0  0  0  0  0  1  0  0  0  0  0  0
  1  5  2  0  0  0  0
  2  6  1  0  0  0  0
  3  8  1  0  0  0  0
  4 18  2  0  0  0  0
  5 11  1  0  0  0  0
  6 11  2  0  0  0  0
  8  1  1  0  0  0  0
  8  2  2  0  0  0  0
  9  7  1  0  0  0  0
 10  4  1  0  0  0  0
 10 17  1  0  0  0  0
 12 19  1  0  0  0  0
 12  3  2  0  0  0  0
 13  1  1  0  0  0  0
 14  2  1  0  0  0  0
 15 16  2  0  0  0  0
 15  4  1  0  0  0  0
 16 12  1  0  0  0  0
 17 27  1  6  0  0  0
 17  9  1  0  0  0  0
 18  3  1  0  0  0  0
 18  7  1  0  0  0  0
 19 13  2  0  0  0  0
 20 21  2  0  0  0  0
 20 24  1  0  0  0  0
 21 23  1  0  0  0  0
 22 25  1  0  0  0  0
 22 16  1  0  0  0  0
 23 25  2  0  0  0  0
 24 22  2  0  0  0  0
 26 20  1  0  0  0  0
 28 30  1  0  0  0  0
 29 27  2  0  0  0  0
 30 31  1  0  0  0  0
 30 29  1  0  0  0  0
 31 33  1  0  0  0  0
 33 32  1  1  0  0  0
 33 34  1  0  0  0  0
M  END
>  <MODEL>
2

>  <REMARK>
 VINA RESULT:      -9.9      4.548      7.750
  Name = 
  4 active torsions:
  status: ('A' for Active; 'I' for Inactive)
    1  A    between atoms: N_3  and  C_29
    2  A    between atoms: C_12  and  C_28
    3  A    between atoms: C_20  and  C_22
    4  A    between atoms: C_22  and  N_33
                            x       y       z     vdW  Elec       q    Type
                         _______ _______ _______ _____ _____    ______ ____

>  <TORSDO>
F 4

$$$$
=
 OpenBabel10262419153D

 34 38  0  0  1  0  0  0  0  0999 V2000
  189.7090  177.5030  146.4600 C   0  0  0  0  0  0  0  0  0  0  0  0
  191.4270  176.0970  145.4780 C   0  0  0  0  0  0  0  0  0  0  0  0
  189.6670  177.2000  144.0370 C   0  0  0  0  0  0  0  0  0  0  0  0
  189.5980  177.2620  141.5920 C   0  0  0  0  0  0  0  0  0  0  0  0
  190.3550  177.4320  147.6960 C   0  0  0  0  0  3  0  0  0  0  0  0
  192.0560  176.0300  146.7260 C   0  0  0  0  0  3  0  0  0  0  0  0
  191.8390  177.3250  142.7120 C   0  0  0  0  0  2  0  0  0  0  0  0
  190.2980  176.9460  145.2960 C   0  0  0  0  0  0  0  0  0  0  0  0
  192.4300  176.8010  141.4090 C   0  0  0  0  0  2  0  0  0  0  0  0
  190.2300  177.0560  140.2440 C   0  0  0  0  0  2  0  0  0  0  0  0
  191.5470  176.7260  147.8210 C   0  0  0  0  0  3  0  0  0  0  0  0
  188.3190  177.6640  144.0510 C   0  0  0  0  0  0  0  0  0  0  0  0
  188.4440  178.0690  146.3940 C   0  0  0  0  0  3  0  0  0  0  0  0
  191.8970  174.8420  144.3340 Cl  0  0  0  0  0  0  0  0  0  0  0  0
  188.2360  177.5270  141.6380 C   0  0  0  0  0  3  0  0  0  0  0  0
  187.5800  177.7580  142.8500 C   0  0  0  0  0  0  0  0  0  0  0  0
  191.7060  177.4490  140.2360 C   0  0  2  0  0  3  0  0  0  0  0  0
  190.3410  177.1410  142.7860 C   0  0  0  0  0  0  0  0  0  0  0  0
  187.7720  178.0980  145.2190 N   0  0  0  0  0  0  0  0  0  0  0  0
  184.0780  178.6890  143.9710 C   0  0  0  0  0  0  0  0  0  0  0  0
  183.4350  178.8120  142.7390 C   0  0  0  0  0  3  0  0  0  0  0  0
  186.1330  178.1050  142.8140 C   0  0  0  0  0  0  0  0  0  0  0  0
  184.1250  178.5940  141.5880 N   0  0  0  0  0  0  0  0  0  0  0  0
  185.4270  178.3400  144.0050 C   0  0  0  0  0  3  0  0  0  0  0  0
  185.4420  178.2520  141.6010 C   0  0  0  0  0  3  0  0  0  0  0  0
  183.3330  178.9300  145.2350 C   0  0  0  0  0  1  0  0  0  0  0  0
  192.3350  177.0900  138.9690 N   0  0  0  0  0  0  0  0  0  0  0  0
  191.6300  175.5290  135.8200 O   0  0  0  0  0  1  0  0  0  0  0  0
  191.7060  176.4530  138.0310 C   0  0  0  0  0  3  0  0  0  0  0  0
  192.3540  176.1130  136.8020 N   0  0  0  0  0  0  0  0  0  0  0  0
  193.7500  176.4510  136.5490 C   0  0  0  0  0  2  0  0  0  0  0  0
  195.7450  175.2740  135.9390 F   0  0  0  0  0  0  0  0  0  0  0  0
  194.6610  175.2530  136.7970 C   0  0  1  0  0  3  0  0  0  0  0  0
  195.1040  175.2490  138.1200 O   0  0  0  0  0  1  0  0  0  0  0  0
  1  5  2  0  0  0  0
  2  6  1  0  0  0  0
  3 12  1  0  0  0  0
  3  8  1  0  0  0  0
  4 15  2  0  0  0  0
  4 18  1  0  0  0  0
  5 11  1  0  0  0  0
  6 11  2  0  0  0  0
  7 18  1  0  0  0  0
  8  2  2  0  0  0  0
  8  1  1  0  0  0  0
  9  7  1  0  0  0  0
 10  4  1  0  0  0  0
 12 19  1  0  0  0  0
 13  1  1  0  0  0  0
 14  2  1  0  0  0  0
 15 16  1  0  0  0  0
 16 12  2  0  0  0  0
 17 27  1  6  0  0  0
 17 10  1  0  0  0  0
 17  9  1  0  0  0  0
 18  3  2  0  0  0  0
 19 13  2  0  0  0  0
 20 24  1  0  0  0  0
 20 26  1  0  0  0  0
 21 20  2  0  0  0  0
 22 16  1  0  0  0  0
 22 24  2  0  0  0  0
 23 25  2  0  0  0  0
 23 21  1  0  0  0  0
 25 22  1  0  0  0  0
 28 30  1  0  0  0  0
 29 27  2  0  0  0  0
 30 29  1  0  0  0  0
 31 33  1  0  0  0  0
 31 30  1  0  0  0  0
 33 32  1  6  0  0  0
 33 34  1  0  0  0  0
M  END
>  <MODEL>
3

>  <REMARK>
 VINA RESULT:      -9.8      1.726      2.022
  Name = 
  4 active torsions:
  status: ('A' for Active; 'I' for Inactive)
    1  A    between atoms: N_3  and  C_29
    2  A    between atoms: C_12  and  C_28
    3  A    between atoms: C_20  and  C_22
    4  A    between atoms: C_22  and  N_33
                            x       y       z     vdW  Elec       q    Type
                         _______ _______ _______ _____ _____    ______ ____

>  <TORSDO>
F 4

$$$$
=
 OpenBabel10262419153D

 34 38  0  0  1  0  0  0  0  0999 V2000
  185.9450  178.5310  146.1310 C   0  0  0  0  0  0  0  0  0  0  0  0
  187.5630  177.2790  144.8240 C   0  0  0  0  0  0  0  0  0  0  0  0
  185.5070  178.2770  143.7420 C   0  0  0  0  0  0  0  0  0  0  0  0
  185.0130  178.3840  141.3480 C   0  0  0  0  0  0  0  0  0  0  0  0
  186.7970  178.4840  147.2350 C   0  0  0  0  0  3  0  0  0  0  0  0
  188.4000  177.2330  145.9440 C   0  0  0  0  0  3  0  0  0  0  0  0
  187.4040  178.5920  142.0710 C   0  0  0  0  0  2  0  0  0  0  0  0
  186.3620  178.0450  144.8660 C   0  0  0  0  0  0  0  0  0  0  0  0
  187.7970  178.1410  140.6700 C   0  0  0  0  0  2  0  0  0  0  0  0
  185.4160  178.2540  139.9060 C   0  0  0  0  0  2  0  0  0  0  0  0
  188.0400  177.8670  147.1310 C   0  0  0  0  0  3  0  0  0  0  0  0
  184.1530  178.6380  144.0010 C   0  0  0  0  0  0  0  0  0  0  0  0
  184.6510  179.0020  146.3000 C   0  0  0  0  0  3  0  0  0  0  0  0
  187.9150  176.0870  143.5760 Cl  0  0  0  0  0  0  0  0  0  0  0  0
  183.6640  178.5450  141.6340 C   0  0  0  0  0  3  0  0  0  0  0  0
  183.2120  178.7010  142.9470 C   0  0  0  0  0  0  0  0  0  0  0  0
  186.8380  178.7560  139.6590 C   0  0  2  0  0  3  0  0  0  0  0  0
  185.9570  178.2940  142.3930 C   0  0  0  0  0  0  0  0  0  0  0  0
  183.7860  179.0060  145.2580 N   0  0  0  0  0  0  0  0  0  0  0  0
  179.6810  180.0180  142.5260 C   0  0  0  0  0  0  0  0  0  0  0  0
  179.0260  179.3400  143.5540 C   0  0  0  0  0  3  0  0  0  0  0  0
  181.7600  178.9390  143.1690 C   0  0  0  0  0  0  0  0  0  0  0  0
  179.7200  178.4870  144.3540 N   0  0  0  0  0  0  0  0  0  0  0  0
  181.0460  179.8130  142.3340 C   0  0  0  0  0  3  0  0  0  0  0  0
  181.0520  178.2740  144.1830 C   0  0  0  0  0  3  0  0  0  0  0  0
  178.9310  180.9490  141.6430 C   0  0  0  0  0  1  0  0  0  0  0  0
  187.2620  178.4720  138.2920 N   0  0  0  0  0  0  0  0  0  0  0  0
  185.9690  177.5610  135.0760 O   0  0  0  0  0  1  0  0  0  0  0  0
  186.4330  178.1160  137.3610 C   0  0  0  0  0  3  0  0  0  0  0  0
  186.8830  177.8400  136.0320 N   0  0  0  0  0  0  0  0  0  0  0  0
  188.2910  177.9310  135.6630 C   0  0  0  0  0  2  0  0  0  0  0  0
  189.3820  175.9960  134.7660 F   0  0  0  0  0  0  0  0  0  0  0  0
  189.0210  176.6220  135.9450 C   0  0  1  0  0  3  0  0  0  0  0  0
  190.1570  176.8600  136.7210 O   0  0  0  0  0  1  0  0  0  0  0  0
  1 13  1  0  0  0  0
  1  5  2  0  0  0  0
  2  8  2  0  0  0  0
  2  6  1  0  0  0  0
  3 12  1  0  0  0  0
  3  8  1  0  0  0  0
  4 15  2  0  0  0  0
  4 18  1  0  0  0  0
  6 11  2  0  0  0  0
  7 18  1  0  0  0  0
  8  1  1  0  0  0  0
  9  7  1  0  0  0  0
 10  4  1  0  0  0  0
 11  5  1  0  0  0  0
 12 19  1  0  0  0  0
 14  2  1  0  0  0  0
 15 16  1  0  0  0  0
 16 22  1  0  0  0  0
 16 12  2  0  0  0  0
 17 27  1  6  0  0  0
 17 10  1  0  0  0  0
 17  9  1  0  0  0  0
 18  3  2  0  0  0  0
 19 13  2  0  0  0  0
 20 21  1  0  0  0  0
 21 23  2  0  0  0  0
 22 25  2  0  0  0  0
 24 20  2  0  0  0  0
 24 22  1  0  0  0  0
 25 23  1  0  0  0  0
 26 20  1  0  0  0  0
 28 30  1  0  0  0  0
 29 27  2  0  0  0  0
 30 29  1  0  0  0  0
 31 33  1  0  0  0  0
 31 30  1  0  0  0  0
 33 32  1  6  0  0  0
 33 34  1  0  0  0  0
M  END
>  <MODEL>
4

>  <REMARK>
 VINA RESULT:      -9.6      2.699      4.168
  Name = 
  4 active torsions:
  status: ('A' for Active; 'I' for Inactive)
    1  A    between atoms: N_3  and  C_29
    2  A    between atoms: C_12  and  C_28
    3  A    between atoms: C_20  and  C_22
    4  A    between atoms: C_22  and  N_33
                            x       y       z     vdW  Elec       q    Type
                         _______ _______ _______ _____ _____    ______ ____

>  <TORSDO>
F 4

$$$$
=
 OpenBabel10262419153D

 34 38  0  0  1  0  0  0  0  0999 V2000
  187.1870  178.5710  146.9780 C   0  0  0  0  0  0  0  0  0  0  0  0
  189.1490  177.2200  146.5170 C   0  0  0  0  0  0  0  0  0  0  0  0
  187.6150  177.9660  144.6510 C   0  0  0  0  0  0  0  0  0  0  0  0
  187.9960  177.7150  142.2470 C   0  0  0  0  0  0  0  0  0  0  0  0
  187.5950  178.7160  148.3050 C   0  0  0  0  0  3  0  0  0  0  0  0
  189.5390  177.3680  147.8530 C   0  0  0  0  0  3  0  0  0  0  0  0
  189.9810  178.1260  143.7210 C   0  0  0  0  0  2  0  0  0  0  0  0
  188.0170  177.9300  146.0240 C   0  0  0  0  0  0  0  0  0  0  0  0
  190.8380  177.5000  142.6270 C   0  0  0  0  0  2  0  0  0  0  0  0
  188.8790  177.4010  141.0730 C   0  0  0  0  0  2  0  0  0  0  0  0
  188.7900  178.1460  148.7330 C   0  0  0  0  0  3  0  0  0  0  0  0
  186.2590  178.3000  144.3650 C   0  0  0  0  0  0  0  0  0  0  0  0
  185.9190  179.0050  146.6140 C   0  0  0  0  0  3  0  0  0  0  0  0
  189.9080  175.8810  145.6590 Cl  0  0  0  0  0  0  0  0  0  0  0  0
  186.6330  177.8550  142.0170 C   0  0  0  0  0  3  0  0  0  0  0  0
  185.7500  178.1730  143.0520 C   0  0  0  0  0  0  0  0  0  0  0  0
  190.3010  177.9250  141.2670 C   0  0  2  0  0  3  0  0  0  0  0  0
  188.5110  177.8130  143.5570 C   0  0  0  0  0  0  0  0  0  0  0  0
  185.4760  178.8240  145.3470 N   0  0  0  0  0  0  0  0  0  0  0  0
  182.4930  178.2790  141.1120 C   0  0  0  0  0  0  0  0  0  0  0  0
  181.6120  178.7060  142.1050 C   0  0  0  0  0  3  0  0  0  0  0  0
  184.3140  178.3770  142.7160 C   0  0  0  0  0  0  0  0  0  0  0  0
  182.0730  178.9520  143.3600 N   0  0  0  0  0  0  0  0  0  0  0  0
  183.8420  178.1110  141.4210 C   0  0  0  0  0  3  0  0  0  0  0  0
  183.3850  178.7950  143.6820 C   0  0  0  0  0  3  0  0  0  0  0  0
  181.9990  178.0020  139.7370 C   0  0  0  0  0  1  0  0  0  0  0  0
  191.1760  177.4710  140.1910 N   0  0  0  0  0  0  0  0  0  0  0  0
  191.1460  175.5780  137.1480 O   0  0  0  0  0  1  0  0  0  0  0  0
  190.7610  176.7180  139.2210 C   0  0  0  0  0  3  0  0  0  0  0  0
  191.6470  176.2870  138.1860 N   0  0  0  0  0  0  0  0  0  0  0  0
  193.0580  176.6580  138.1750 C   0  0  0  0  0  2  0  0  0  0  0  0
  194.2300  176.9380  136.1060 F   0  0  0  0  0  0  0  0  0  0  0  0
  193.7950  175.9940  137.0170 C   0  0  1  0  0  3  0  0  0  0  0  0
  194.8820  175.2610  137.4940 O   0  0  0  0  0  1  0  0  0  0  0  0
  1  5  2  0  0  0  0
  2  6  1  0  0  0  0
  3  8  1  0  0  0  0
  4 18  1  0  0  0  0
  5 11  1  0  0  0  0
  6 11  2  0  0  0  0
  8  2  2  0  0  0  0
  8  1  1  0  0  0  0
  9  7  1  0  0  0  0
 10 17  1  0  0  0  0
 10  4  1  0  0  0  0
 12  3  1  0  0  0  0
 12 19  1  0  0  0  0
 13  1  1  0  0  0  0
 14  2  1  0  0  0  0
 15  4  2  0  0  0  0
 15 16  1  0  0  0  0
 16 12  2  0  0  0  0
 17 27  1  6  0  0  0
 17  9  1  0  0  0  0
 18  7  1  0  0  0  0
 18  3  2  0  0  0  0
 19 13  2  0  0  0  0
 20 24  2  0  0  0  0
 20 21  1  0  0  0  0
 21 23  2  0  0  0  0
 22 16  1  0  0  0  0
 22 25  2  0  0  0  0
 23 25  1  0  0  0  0
 24 22  1  0  0  0  0
 26 20  1  0  0  0  0
 28 30  1  0  0  0  0
 29 27  2  0  0  0  0
 30 29  1  0  0  0  0
 31 30  1  0  0  0  0
 33 32  1  6  0  0  0
 33 34  1  0  0  0  0
 33 31  1  0  0  0  0
M  END
>  <MODEL>
5

>  <REMARK>
 VINA RESULT:      -9.4      1.832      2.657
  Name = 
  4 active torsions:
  status: ('A' for Active; 'I' for Inactive)
    1  A    between atoms: N_3  and  C_29
    2  A    between atoms: C_12  and  C_28
    3  A    between atoms: C_20  and  C_22
    4  A    between atoms: C_22  and  N_33
                            x       y       z     vdW  Elec       q    Type
                         _______ _______ _______ _____ _____    ______ ____

>  <TORSDO>
F 4

$$$$
=
 OpenBabel10262419153D

 34 38  0  0  1  0  0  0  0  0999 V2000
  191.9270  177.2210  140.2930 C   0  0  0  0  0  0  0  0  0  0  0  0
  190.1070  176.6300  138.8000 C   0  0  0  0  0  0  0  0  0  0  0  0
  189.6540  177.3910  141.1680 C   0  0  0  0  0  0  0  0  0  0  0  0
  187.4730  177.8960  142.1570 C   0  0  0  0  0  0  0  0  0  0  0  0
  192.8310  177.1180  139.2350 C   0  0  0  0  0  3  0  0  0  0  0  0
  191.0290  176.5230  137.7530 C   0  0  0  0  0  3  0  0  0  0  0  0
  187.8240  178.4330  139.7340 C   0  0  0  0  0  2  0  0  0  0  0  0
  190.5310  177.1070  140.0740 C   0  0  0  0  0  0  0  0  0  0  0  0
  186.3100  178.3770  139.5710 C   0  0  0  0  0  2  0  0  0  0  0  0
  185.9980  178.1570  142.0450 C   0  0  0  0  0  2  0  0  0  0  0  0
  192.3770  176.8050  137.9570 C   0  0  0  0  0  3  0  0  0  0  0  0
  190.2110  177.4030  142.4800 C   0  0  0  0  0  0  0  0  0  0  0  0
  192.4170  177.3700  141.5830 C   0  0  0  0  0  3  0  0  0  0  0  0
  188.5630  175.8260  138.5260 Cl  0  0  0  0  0  0  0  0  0  0  0  0
  188.0070  177.7130  143.4260 C   0  0  0  0  0  3  0  0  0  0  0  0
  189.3740  177.4930  143.6150 C   0  0  0  0  0  0  0  0  0  0  0  0
  185.6530  178.9810  140.8050 C   0  0  2  0  0  3  0  0  0  0  0  0
  188.2950  177.7830  141.0150 C   0  0  0  0  0  0  0  0  0  0  0  0
  191.5630  177.4150  142.6340 N   0  0  0  0  0  0  0  0  0  0  0  0
  189.5230  177.5640  147.4040 C   0  0  0  0  0  0  0  0  0  0  0  0
  190.8200  177.1020  147.6230 C   0  0  0  0  0  3  0  0  0  0  0  0
  189.8820  177.3760  145.0100 C   0  0  0  0  0  0  0  0  0  0  0  0
  191.6140  176.7840  146.5650 N   0  0  0  0  0  0  0  0  0  0  0  0
  189.0550  177.6960  146.0980 C   0  0  0  0  0  3  0  0  0  0  0  0
  191.1760  176.9060  145.2830 C   0  0  0  0  0  3  0  0  0  0  0  0
  188.6450  177.9100  148.5540 C   0  0  0  0  0  1  0  0  0  0  0  0
  184.2070  179.0840  140.6330 N   0  0  0  0  0  0  0  0  0  0  0  0
  181.3530  177.1770  139.6010 O   0  0  0  0  0  1  0  0  0  0  0  0
  183.4870  178.1120  140.1660 C   0  0  0  0  0  3  0  0  0  0  0  0
  182.0720  178.2490  140.0050 N   0  0  0  0  0  0  0  0  0  0  0  0
  181.3750  179.4850  140.3420 C   0  0  0  0  0  2  0  0  0  0  0  0
  181.4510  178.9030  142.6640 F   0  0  0  0  0  0  0  0  0  0  0  0
  180.6150  179.3500  141.6570 C   0  0  1  0  0  3  0  0  0  0  0  0
  180.0520  180.5740  142.0180 O   0  0  0  0  0  1  0  0  0  0  0  0
  1 13  1  0  0  0  0
  2  8  1  0  0  0  0
  3 12  1  0  0  0  0
  4 15  2  0  0  0  0
  5  1  1  0  0  0  0
  6 11  1  0  0  0  0
  6  2  2  0  0  0  0
  7 18  1  0  0  0  0
  8  1  2  0  0  0  0
  8  3  1  0  0  0  0
  9  7  1  0  0  0  0
  9 17  1  0  0  0  0
 10  4  1  0  0  0  0
 11  5  2  0  0  0  0
 12 19  1  0  0  0  0
 12 16  2  0  0  0  0
 13 19  2  0  0  0  0
 14  2  1  0  0  0  0
 15 16  1  0  0  0  0
 16 22  1  0  0  0  0
 17 27  1  6  0  0  0
 17 10  1  0  0  0  0
 18  3  2  0  0  0  0
 18  4  1  0  0  0  0
 20 21  1  0  0  0  0
 20 26  1  0  0  0  0
 22 25  2  0  0  0  0
 22 24  1  0  0  0  0
 23 21  2  0  0  0  0
 24 20  2  0  0  0  0
 25 23  1  0  0  0  0
 28 30  1  0  0  0  0
 29 27  2  0  0  0  0
 30 29  1  0  0  0  0
 30 31  1  0  0  0  0
 31 33  1  0  0  0  0
 33 34  1  1  0  0  0
 33 32  1  0  0  0  0
M  END
>  <MODEL>
6

>  <REMARK>
 VINA RESULT:      -9.2      4.274      7.456
  Name = 
  4 active torsions:
  status: ('A' for Active; 'I' for Inactive)
    1  A    between atoms: N_3  and  C_29
    2  A    between atoms: C_12  and  C_28
    3  A    between atoms: C_20  and  C_22
    4  A    between atoms: C_22  and  N_33
                            x       y       z     vdW  Elec       q    Type
                         _______ _______ _______ _____ _____    ______ ____

>  <TORSDO>
F 4

$$$$
=
 OpenBabel10262419153D

 34 38  0  0  1  0  0  0  0  0999 V2000
  185.1750  178.9450  144.3550 C   0  0  0  0  0  0  0  0  0  0  0  0
  187.0670  177.4250  144.3120 C   0  0  0  0  0  0  0  0  0  0  0  0
  186.0690  178.3220  142.1690 C   0  0  0  0  0  0  0  0  0  0  0  0
  186.9650  178.0570  139.9080 C   0  0  0  0  0  0  0  0  0  0  0  0
  185.2820  179.0410  145.7440 C   0  0  0  0  0  3  0  0  0  0  0  0
  187.1530  177.5260  145.7050 C   0  0  0  0  0  3  0  0  0  0  0  0
  188.5890  178.2740  141.8040 C   0  0  0  0  0  2  0  0  0  0  0  0
  186.1430  178.2390  143.5960 C   0  0  0  0  0  0  0  0  0  0  0  0
  189.6160  177.5830  140.9150 C   0  0  0  0  0  2  0  0  0  0  0  0
  188.0610  177.6750  138.9550 C   0  0  0  0  0  2  0  0  0  0  0  0
  186.2930  178.3610  146.4150 C   0  0  0  0  0  3  0  0  0  0  0  0
  184.8480  178.7800  141.5940 C   0  0  0  0  0  0  0  0  0  0  0  0
  184.0670  179.4940  143.7260 C   0  0  0  0  0  3  0  0  0  0  0  0
  187.8830  176.0300  143.6100 Cl  0  0  0  0  0  0  0  0  0  0  0  0
  185.7080  178.3230  139.3800 C   0  0  0  0  0  3  0  0  0  0  0  0
  184.6430  178.7110  140.1970 C   0  0  0  0  0  0  0  0  0  0  0  0
  189.4420  178.0660  139.4810 C   0  0  2  0  0  3  0  0  0  0  0  0
  187.1740  178.0970  141.3030 C   0  0  0  0  0  0  0  0  0  0  0  0
  183.9100  179.3650  142.3870 N   0  0  0  0  0  0  0  0  0  0  0  0
  181.8760  180.6680  138.4930 C   0  0  0  0  0  0  0  0  0  0  0  0
  180.9340  179.6610  138.2880 C   0  0  0  0  0  3  0  0  0  0  0  0
  183.3450  179.0470  139.5500 C   0  0  0  0  0  0  0  0  0  0  0  0
  181.1970  178.3910  138.6970 N   0  0  0  0  0  0  0  0  0  0  0  0
  183.0820  180.3580  139.1200 C   0  0  0  0  0  3  0  0  0  0  0  0
  182.3670  178.0690  139.3110 C   0  0  0  0  0  3  0  0  0  0  0  0
  181.6000  182.0580  138.0440 C   0  0  0  0  0  1  0  0  0  0  0  0
  190.4970  177.5430  138.6190 N   0  0  0  0  0  0  0  0  0  0  0  0
  191.0060  175.9010  135.4740 O   0  0  0  0  0  1  0  0  0  0  0  0
  190.2500  176.9430  137.4960 C   0  0  0  0  0  3  0  0  0  0  0  0
  191.3090  176.4380  136.6780 N   0  0  0  0  0  0  0  0  0  0  0  0
  192.7090  176.5590  137.0690 C   0  0  0  0  0  2  0  0  0  0  0  0
  192.2610  174.3900  137.9810 F   0  0  0  0  0  0  0  0  0  0  0  0
  193.2710  175.2180  137.5270 C   0  0  1  0  0  3  0  0  0  0  0  0
  193.9560  174.5980  136.4810 O   0  0  0  0  0  1  0  0  0  0  0  0
  1  5  2  0  0  0  0
  2  6  1  0  0  0  0
  3  8  1  0  0  0  0
  4 18  1  0  0  0  0
  5 11  1  0  0  0  0
  6 11  2  0  0  0  0
  8  2  2  0  0  0  0
  8  1  1  0  0  0  0
  9  7  1  0  0  0  0
 10 17  1  0  0  0  0
 10  4  1  0  0  0  0
 12  3  1  0  0  0  0
 12 19  1  0  0  0  0
 13  1  1  0  0  0  0
 14  2  1  0  0  0  0
 15  4  2  0  0  0  0
 15 16  1  0  0  0  0
 16 12  2  0  0  0  0
 17 27  1  6  0  0  0
 17  9  1  0  0  0  0
 18  7  1  0  0  0  0
 18  3  2  0  0  0  0
 19 13  2  0  0  0  0
 20 24  1  0  0  0  0
 21 20  2  0  0  0  0
 21 23  1  0  0  0  0
 22 16  1  0  0  0  0
 23 25  2  0  0  0  0
 24 22  2  0  0  0  0
 25 22  1  0  0  0  0
 26 20  1  0  0  0  0
 28 30  1  0  0  0  0
 29 27  2  0  0  0  0
 30 31  1  0  0  0  0
 30 29  1  0  0  0  0
 31 33  1  0  0  0  0
 33 34  1  6  0  0  0
 33 32  1  0  0  0  0
M  END
>  <MODEL>
7

>  <REMARK>
 VINA RESULT:      -9.1      2.965      4.695
  Name = 
  4 active torsions:
  status: ('A' for Active; 'I' for Inactive)
    1  A    between atoms: N_3  and  C_29
    2  A    between atoms: C_12  and  C_28
    3  A    between atoms: C_20  and  C_22
    4  A    between atoms: C_22  and  N_33
                            x       y       z     vdW  Elec       q    Type
                         _______ _______ _______ _____ _____    ______ ____

>  <TORSDO>
F 4

$$$$
=
 OpenBabel10262419153D

 34 38  0  0  1  0  0  0  0  0999 V2000
  191.3900  176.1340  145.3120 C   0  0  0  0  0  0  0  0  0  0  0  0
  189.7560  177.5390  146.4280 C   0  0  0  0  0  0  0  0  0  0  0  0
  189.6050  177.0860  143.9450 C   0  0  0  0  0  0  0  0  0  0  0  0
  187.7680  177.7010  142.4490 C   0  0  0  0  0  0  0  0  0  0  0  0
  191.9400  175.7880  146.5470 C   0  0  0  0  0  3  0  0  0  0  0  0
  190.3250  177.1880  147.6570 C   0  0  0  0  0  3  0  0  0  0  0  0
  187.2080  177.0690  144.8090 C   0  0  0  0  0  2  0  0  0  0  0  0
  190.2070  176.9120  145.2300 C   0  0  0  0  0  0  0  0  0  0  0  0
  185.9130  177.8540  144.6400 C   0  0  0  0  0  2  0  0  0  0  0  0
  186.3690  178.1890  142.2020 C   0  0  0  0  0  2  0  0  0  0  0  0
  191.3850  176.2860  147.7220 C   0  0  0  0  0  3  0  0  0  0  0  0
  190.3980  176.8000  142.7950 C   0  0  0  0  0  0  0  0  0  0  0  0
  192.0560  175.7610  144.1520 C   0  0  0  0  0  3  0  0  0  0  0  0
  188.7600  178.9920  146.4500 Cl  0  0  0  0  0  0  0  0  0  0  0  0
  188.6230  177.5970  141.3590 C   0  0  0  0  0  3  0  0  0  0  0  0
  189.9300  177.1250  141.5010 C   0  0  0  0  0  0  0  0  0  0  0  0
  185.3800  177.6410  143.2300 C   0  0  2  0  0  3  0  0  0  0  0  0
  188.2320  177.4040  143.7480 C   0  0  0  0  0  0  0  0  0  0  0  0
  191.5750  176.1330  142.9420 N   0  0  0  0  0  0  0  0  0  0  0  0
  190.9520  176.4790  137.9070 C   0  0  0  0  0  0  0  0  0  0  0  0
  192.3180  176.7520  137.9710 C   0  0  0  0  0  3  0  0  0  0  0  0
  190.7630  176.9760  140.2770 C   0  0  0  0  0  0  0  0  0  0  0  0
  192.8800  177.1290  139.1510 N   0  0  0  0  0  0  0  0  0  0  0  0
  190.1760  176.5960  139.0590 C   0  0  0  0  0  3  0  0  0  0  0  0
  192.1400  177.2480  140.2860 C   0  0  0  0  0  3  0  0  0  0  0  0
  190.3270  176.0710  136.6210 C   0  0  0  0  0  1  0  0  0  0  0  0
  184.0650  178.2530  143.0670 N   0  0  0  0  0  0  0  0  0  0  0  0
  181.6180  179.0450  140.5710 O   0  0  0  0  0  1  0  0  0  0  0  0
  183.4970  178.3940  141.9100 C   0  0  0  0  0  3  0  0  0  0  0  0
  182.2090  179.0030  141.7870 N   0  0  0  0  0  0  0  0  0  0  0  0
  181.4810  179.5070  142.9460 C   0  0  0  0  0  2  0  0  0  0  0  0
  180.2320  178.2170  144.5310 F   0  0  0  0  0  0  0  0  0  0  0  0
  180.2380  178.6690  143.2240 C   0  0  1  0  0  3  0  0  0  0  0  0
  179.0860  179.4160  142.9770 O   0  0  0  0  0  1  0  0  0  0  0  0
  1  5  2  0  0  0  0
  2 14  1  0  0  0  0
  2  6  1  0  0  0  0
  3  8  1  0  0  0  0
  4 18  2  0  0  0  0
  5 11  1  0  0  0  0
  6 11  2  0  0  0  0
  8  1  1  0  0  0  0
  8  2  2  0  0  0  0
  9  7  1  0  0  0  0
 10  4  1  0  0  0  0
 10 17  1  0  0  0  0
 12 19  1  0  0  0  0
 12  3  2  0  0  0  0
 13  1  1  0  0  0  0
 15 16  2  0  0  0  0
 15  4  1  0  0  0  0
 16 12  1  0  0  0  0
 17 27  1  1  0  0  0
 17  9  1  0  0  0  0
 18  3  1  0  0  0  0
 18  7  1  0  0  0  0
 19 13  2  0  0  0  0
 20 21  2  0  0  0  0
 20 24  1  0  0  0  0
 21 23  1  0  0  0  0
 22 25  1  0  0  0  0
 22 16  1  0  0  0  0
 23 25  2  0  0  0  0
 24 22  2  0  0  0  0
 26 20  1  0  0  0  0
 28 30  1  0  0  0  0
 29 27  2  0  0  0  0
 30 29  1  0  0  0  0
 30 31  1  0  0  0  0
 31 33  1  0  0  0  0
 33 34  1  1  0  0  0
 33 32  1  0  0  0  0
M  END
>  <MODEL>
8

>  <REMARK>
 VINA RESULT:      -9.1      4.216      7.607
  Name = 
  4 active torsions:
  status: ('A' for Active; 'I' for Inactive)
    1  A    between atoms: N_3  and  C_29
    2  A    between atoms: C_12  and  C_28
    3  A    between atoms: C_20  and  C_22
    4  A    between atoms: C_22  and  N_33
                            x       y       z     vdW  Elec       q    Type
                         _______ _______ _______ _____ _____    ______ ____

>  <TORSDO>
F 4

$$$$
=
 OpenBabel10262419153D

 34 38  0  0  1  0  0  0  0  0999 V2000
  187.3530  177.6000  145.2130 C   0  0  0  0  0  0  0  0  0  0  0  0
  185.4390  179.0890  145.1090 C   0  0  0  0  0  0  0  0  0  0  0  0
  186.5450  178.2400  143.0000 C   0  0  0  0  0  0  0  0  0  0  0  0
  185.7430  178.5230  140.7050 C   0  0  0  0  0  0  0  0  0  0  0  0
  187.1880  177.4810  146.5940 C   0  0  0  0  0  3  0  0  0  0  0  0
  185.2950  178.9660  146.4950 C   0  0  0  0  0  3  0  0  0  0  0  0
  184.0410  178.2520  142.5250 C   0  0  0  0  0  2  0  0  0  0  0  0
  186.4070  178.3010  144.4220 C   0  0  0  0  0  0  0  0  0  0  0  0
  183.0430  178.9400  141.6030 C   0  0  0  0  0  2  0  0  0  0  0  0
  184.6820  178.9020  139.7110 C   0  0  0  0  0  2  0  0  0  0  0  0
  186.1370  178.1350  147.2300 C   0  0  0  0  0  3  0  0  0  0  0  0
  187.7970  177.8110  142.4710 C   0  0  0  0  0  0  0  0  0  0  0  0
  188.4970  177.0780  144.6250 C   0  0  0  0  0  3  0  0  0  0  0  0
  184.6310  180.4810  144.3920 Cl  0  0  0  0  0  0  0  0  0  0  0  0
  187.0250  178.2860  140.2280 C   0  0  0  0  0  3  0  0  0  0  0  0
  188.0610  177.9030  141.0850 C   0  0  0  0  0  0  0  0  0  0  0  0
  183.2870  178.4800  140.1710 C   0  0  2  0  0  3  0  0  0  0  0  0
  185.4740  178.4590  142.0890 C   0  0  0  0  0  0  0  0  0  0  0  0
  188.7090  177.2300  143.2960 N   0  0  0  0  0  0  0  0  0  0  0  0
  190.7430  176.9260  138.5880 C   0  0  0  0  0  0  0  0  0  0  0  0
  191.8900  177.0820  139.3650 C   0  0  0  0  0  3  0  0  0  0  0  0
  189.3910  177.5980  140.4910 C   0  0  0  0  0  0  0  0  0  0  0  0
  191.7850  177.4890  140.6580 N   0  0  0  0  0  0  0  0  0  0  0  0
  189.4950  177.1890  139.1520 C   0  0  0  0  0  3  0  0  0  0  0  0
  190.5770  177.7500  141.2270 C   0  0  0  0  0  3  0  0  0  0  0  0
  190.8480  176.4860  137.1720 C   0  0  0  0  0  1  0  0  0  0  0  0
  182.2610  178.9980  139.2710 N   0  0  0  0  0  0  0  0  0  0  0  0
  179.2470  180.9380  139.2590 O   0  0  0  0  0  1  0  0  0  0  0  0
  181.2370  179.6730  139.6920 C   0  0  0  0  0  3  0  0  0  0  0  0
  180.2480  180.1620  138.7830 N   0  0  0  0  0  0  0  0  0  0  0  0
  180.3320  179.9160  137.3480 C   0  0  0  0  0  2  0  0  0  0  0  0
  181.1750  182.1520  137.1880 F   0  0  0  0  0  0  0  0  0  0  0  0
  180.3620  181.2240  136.5640 C   0  0  1  0  0  3  0  0  0  0  0  0
  180.8150  180.9980  135.2640 O   0  0  0  0  0  1  0  0  0  0  0  0
  1  5  2  0  0  0  0
  2  6  1  0  0  0  0
  3  8  1  0  0  0  0
  4 18  1  0  0  0  0
  5 11  1  0  0  0  0
  6 11  2  0  0  0  0
  8  2  2  0  0  0  0
  8  1  1  0  0  0  0
  9  7  1  0  0  0  0
 10 17  1  0  0  0  0
 10  4  1  0  0  0  0
 12  3  1  0  0  0  0
 12 19  1  0  0  0  0
 13  1  1  0  0  0  0
 14  2  1  0  0  0  0
 15  4  2  0  0  0  0
 15 16  1  0  0  0  0
 16 12  2  0  0  0  0
 17 27  1  6  0  0  0
 17  9  1  0  0  0  0
 18  7  1  0  0  0  0
 18  3  2  0  0  0  0
 19 13  2  0  0  0  0
 20 24  2  0  0  0  0
 20 21  1  0  0  0  0
 21 23  2  0  0  0  0
 22 16  1  0  0  0  0
 22 25  2  0  0  0  0
 23 25  1  0  0  0  0
 24 22  1  0  0  0  0
 26 20  1  0  0  0  0
 27 29  2  0  0  0  0
 30 28  1  0  0  0  0
 30 29  1  0  0  0  0
 31 30  1  0  0  0  0
 33 34  1  6  0  0  0
 33 32  1  0  0  0  0
 33 31  1  0  0  0  0
M  END
>  <MODEL>
9

>  <REMARK>
 VINA RESULT:      -8.8      4.775      7.935
  Name = 
  4 active torsions:
  status: ('A' for Active; 'I' for Inactive)
    1  A    between atoms: N_3  and  C_29
    2  A    between atoms: C_12  and  C_28
    3  A    between atoms: C_20  and  C_22
    4  A    between atoms: C_22  and  N_33
                            x       y       z     vdW  Elec       q    Type
                         _______ _______ _______ _____ _____    ______ ____

>  <TORSDO>
F 4

$$$$
