=
 OpenBabel10262421243D

 32 36  0  0  1  0  0  0  0  0999 V2000
  187.0260  177.8490  144.0630 C   0  0  0  0  0  0  0  0  0  0  0  0
  187.4100  178.1340  148.8950 C   0  0  0  0  0  2  0  0  0  0  0  0
  188.9260  178.0260  148.8360 C   0  0  0  0  0  2  0  0  0  0  0  0
  189.2380  177.6630  142.8300 C   0  0  1  0  0  3  0  0  0  0  0  0
  188.9710  176.6100  141.7460 C   0  0  0  0  0  2  0  0  0  0  0  0
  184.9140  178.2340  142.8590 C   0  0  0  0  0  0  0  0  0  0  0  0
  185.0950  178.6880  145.3970 C   0  0  0  0  0  2  0  0  0  0  0  0
  191.6620  176.7870  142.5370 C   0  0  0  0  0  2  0  0  0  0  0  0
  183.0100  178.5640  144.2600 O   0  0  0  0  0  0  0  0  0  0  0  0
  186.9020  178.8490  147.6510 C   0  0  0  0  0  2  0  0  0  0  0  0
  186.5200  178.1930  145.2660 C   0  0  0  0  0  0  0  0  0  0  0  0
  187.3720  178.1750  146.4370 N   0  0  0  0  0  0  0  0  0  0  0  0
  189.1130  176.9670  145.1490 C   0  0  2  0  0  3  0  0  0  0  0  0
  191.9420  177.3110  141.1190 C   0  0  0  0  0  2  0  0  0  0  0  0
  184.2630  178.4930  144.1640 C   0  0  0  0  0  0  0  0  0  0  0  0
  190.7340  177.9300  140.4130 C   0  0  0  0  0  2  0  0  0  0  0  0
  189.3270  177.2200  147.6090 C   0  0  0  0  0  2  0  0  0  0  0  0
  188.8170  177.8880  146.3300 C   0  0  2  0  0  3  0  0  0  0  0  0
  190.5870  177.0110  144.7700 C   0  0  0  0  0  2  0  0  0  0  0  0
  186.2080  177.9260  142.8370 C   0  0  0  0  0  3  0  0  0  0  0  0
  189.5080  177.0140  140.3670 C   0  0  0  0  0  2  0  0  0  0  0  0
  191.1970  179.0500  143.5260 C   0  0  0  0  0  1  0  0  0  0  0  0
  188.3870  177.4070  143.9760 N   0  0  0  0  0  0  0  0  0  0  0  0
  190.6810  177.6270  143.3770 C   0  0  2  0  0  0  0  0  0  0  0  0
  184.2270  178.2740  141.6380 O   0  0  0  0  0  0  0  0  0  0  0  0
  184.6790  178.9840  140.4900 C   0  0  0  0  0  2  0  0  0  0  0  0
  186.1760  178.1980  137.9110 C   0  0  0  0  0  0  0  0  0  0  0  0
  182.7670  178.3050  139.2610 O   0  0  0  0  0  0  0  0  0  0  0  0
  184.7550  178.1340  138.0750 N   0  0  0  0  0  2  0  0  0  0  0  0
  186.9320  178.5170  138.8670 O   0  0  0  0  0  0  0  0  0  0  0  0
  186.7720  177.8730  136.5890 C   0  0  0  0  0  1  0  0  0  0  0  0
  184.0160  178.4500  139.2610 C   0  0  0  0  0  0  0  0  0  0  0  0
  1 11  2  0  0  0  0
  3  2  1  0  0  0  0
  4  5  1  6  0  0  0
  4 24  1  0  0  0  0
  4 23  1  0  0  0  0
  6 15  1  0  0  0  0
  8 24  1  0  0  0  0
 10  2  1  0  0  0  0
 11  7  1  0  0  0  0
 11 12  1  0  0  0  0
 12 10  1  0  0  0  0
 13 19  1  6  0  0  0
 13 18  1  0  0  0  0
 14  8  1  0  0  0  0
 15  9  2  0  0  0  0
 15  7  1  0  0  0  0
 16 14  1  0  0  0  0
 17  3  1  0  0  0  0
 18 12  1  0  0  0  0
 18 17  1  1  0  0  0
 20  6  2  0  0  0  0
 20  1  1  0  0  0  0
 21 16  1  0  0  0  0
 21  5  1  0  0  0  0
 23  1  1  0  0  0  0
 23 13  1  0  0  0  0
 24 22  1  1  0  0  0
 24 19  1  0  0  0  0
 25  6  1  0  0  0  0
 26 25  1  0  0  0  0
 27 29  1  0  0  0  0
 27 30  2  0  0  0  0
 29 32  1  0  0  0  0
 31 27  1  0  0  0  0
 32 28  2  0  0  0  0
 32 26  1  0  0  0  0
M  END
>  <MODEL>
1

>  <REMARK>
 VINA RESULT:      -9.9      0.000      0.000
  Name = 
  3 active torsions:
  status: ('A' for Active; 'I' for Inactive)
    1  A    between atoms: C_8  and  O_23
    2  A    between atoms: C_19  and  O_23
    3  A    between atoms: C_19  and  C_24
                            x       y       z     vdW  Elec       q    Type
                         _______ _______ _______ _____ _____    ______ ____

>  <TORSDO>
F 3

$$$$
=
 OpenBabel10262421243D

 32 36  0  0  1  0  0  0  0  0999 V2000
  188.3850  178.0060  141.1930 C   0  0  0  0  0  0  0  0  0  0  0  0
  190.6180  176.8170  137.0500 C   0  0  0  0  0  2  0  0  0  0  0  0
  191.8060  176.2270  137.7950 C   0  0  0  0  0  2  0  0  0  0  0  0
  189.6380  177.3500  143.3030 C   0  0  1  0  0  3  0  0  0  0  0  0
  189.4710  178.5660  144.2260 C   0  0  0  0  0  2  0  0  0  0  0  0
  186.0650  178.8260  141.2810 C   0  0  0  0  0  0  0  0  0  0  0  0
  187.0770  177.9450  139.0720 C   0  0  0  0  0  2  0  0  0  0  0  0
  191.7870  177.0540  144.7240 C   0  0  0  0  0  2  0  0  0  0  0  0
  185.0520  179.1880  139.1510 O   0  0  0  0  0  0  0  0  0  0  0  0
  189.3530  176.6200  137.8730 C   0  0  0  0  0  2  0  0  0  0  0  0
  188.3500  177.7460  139.8700 C   0  0  0  0  0  0  0  0  0  0  0  0
  189.5140  177.1870  139.2140 N   0  0  0  0  0  0  0  0  0  0  0  0
  190.8720  177.6500  141.2380 C   0  0  2  0  0  3  0  0  0  0  0  0
  191.1420  176.6910  146.0720 C   0  0  0  0  0  2  0  0  0  0  0  0
  186.0040  178.6910  139.8080 C   0  0  0  0  0  0  0  0  0  0  0  0
  189.6170  176.8140  146.1070 C   0  0  0  0  0  2  0  0  0  0  0  0
  191.9710  176.9420  139.1280 C   0  0  0  0  0  2  0  0  0  0  0  0
  190.7110  176.7930  139.9850 C   0  0  2  0  0  3  0  0  0  0  0  0
  191.8160  176.9960  142.2370 C   0  0  0  0  0  2  0  0  0  0  0  0
  187.1940  178.5060  141.9090 C   0  0  0  0  0  3  0  0  0  0  0  0
  189.0960  178.1840  145.6630 C   0  0  0  0  0  2  0  0  0  0  0  0
  190.7730  175.1300  143.4640 C   0  0  0  0  0  1  0  0  0  0  0  0
  189.6010  177.7830  141.9190 N   0  0  0  0  0  0  0  0  0  0  0  0
  190.9950  176.6350  143.4710 C   0  0  2  0  0  0  0  0  0  0  0  0
  184.9960  179.2980  142.0530 O   0  0  0  0  0  0  0  0  0  0  0  0
  184.0910  178.4590  142.7620 C   0  0  0  0  0  2  0  0  0  0  0  0
  185.1190  178.5350  145.6680 C   0  0  0  0  0  0  0  0  0  0  0  0
  182.3990  179.8880  143.6140 O   0  0  0  0  0  0  0  0  0  0  0  0
  183.9350  179.1980  145.2110 N   0  0  0  0  0  2  0  0  0  0  0  0
  185.8780  177.9250  144.8700 O   0  0  0  0  0  0  0  0  0  0  0  0
  185.4640  178.5760  147.1130 C   0  0  0  0  0  1  0  0  0  0  0  0
  183.4370  179.2260  143.8670 C   0  0  0  0  0  0  0  0  0  0  0  0
  1 20  1  0  0  0  0
  1 23  1  0  0  0  0
  2  3  1  0  0  0  0
  2 10  1  0  0  0  0
  3 17  1  0  0  0  0
  4 24  1  0  0  0  0
  4  5  1  1  0  0  0
  5 21  1  0  0  0  0
  6 20  2  0  0  0  0
  6 25  1  0  0  0  0
  7 15  1  0  0  0  0
  7 11  1  0  0  0  0
  8 14  1  0  0  0  0
  9 15  2  0  0  0  0
 10 12  1  0  0  0  0
 11  1  2  0  0  0  0
 12 11  1  0  0  0  0
 12 18  1  0  0  0  0
 13 23  1  0  0  0  0
 13 19  1  1  0  0  0
 14 16  1  0  0  0  0
 15  6  1  0  0  0  0
 18 17  1  6  0  0  0
 18 13  1  0  0  0  0
 19 24  1  0  0  0  0
 21 16  1  0  0  0  0
 23  4  1  0  0  0  0
 24 22  1  1  0  0  0
 24  8  1  0  0  0  0
 25 26  1  0  0  0  0
 26 32  1  0  0  0  0
 27 31  1  0  0  0  0
 28 32  2  0  0  0  0
 29 27  1  0  0  0  0
 30 27  2  0  0  0  0
 32 29  1  0  0  0  0
M  END
>  <MODEL>
2

>  <REMARK>
 VINA RESULT:      -9.7      2.019      6.101
  Name = 
  3 active torsions:
  status: ('A' for Active; 'I' for Inactive)
    1  A    between atoms: C_8  and  O_23
    2  A    between atoms: C_19  and  O_23
    3  A    between atoms: C_19  and  C_24
                            x       y       z     vdW  Elec       q    Type
                         _______ _______ _______ _____ _____    ______ ____

>  <TORSDO>
F 3

$$$$
=
 OpenBabel10262421243D

 32 36  0  0  1  0  0  0  0  0999 V2000
  187.0200  177.8260  143.9910 C   0  0  0  0  0  0  0  0  0  0  0  0
  187.2550  178.1220  148.8310 C   0  0  0  0  0  2  0  0  0  0  0  0
  188.7730  178.0190  148.8190 C   0  0  0  0  0  2  0  0  0  0  0  0
  189.2700  177.6460  142.8260 C   0  0  1  0  0  3  0  0  0  0  0  0
  189.0400  176.5890  141.7370 C   0  0  0  0  0  2  0  0  0  0  0  0
  184.9440  178.2010  142.7220 C   0  0  0  0  0  0  0  0  0  0  0  0
  185.0460  178.6610  145.2630 C   0  0  0  0  0  2  0  0  0  0  0  0
  191.7040  176.7780  142.6090 C   0  0  0  0  0  2  0  0  0  0  0  0
  182.9970  178.5270  144.0640 O   0  0  0  0  0  0  0  0  0  0  0  0
  186.7840  178.8330  147.5710 C   0  0  0  0  0  2  0  0  0  0  0  0
  186.4770  178.1710  145.1770 C   0  0  0  0  0  0  0  0  0  0  0  0
  187.2920  178.1580  146.3740 N   0  0  0  0  0  0  0  0  0  0  0  0
  189.0770  176.9540  145.1420 C   0  0  2  0  0  3  0  0  0  0  0  0
  192.0260  177.3000  141.1990 C   0  0  0  0  0  2  0  0  0  0  0  0
  184.2530  178.4600  144.0060 C   0  0  0  0  0  0  0  0  0  0  0  0
  190.8380  177.9140  140.4550 C   0  0  0  0  0  2  0  0  0  0  0  0
  189.2140  177.2130  147.6060 C   0  0  0  0  0  2  0  0  0  0  0  0
  188.7410  177.8770  146.3110 C   0  0  2  0  0  3  0  0  0  0  0  0
  190.5610  177.0030  144.8070 C   0  0  0  0  0  2  0  0  0  0  0  0
  186.2400  177.8980  142.7400 C   0  0  0  0  0  3  0  0  0  0  0  0
  189.6170  176.9930  140.3740 C   0  0  0  0  0  2  0  0  0  0  0  0
  191.2010  179.0410  143.5780 C   0  0  0  0  0  1  0  0  0  0  0  0
  188.3850  177.3890  143.9460 N   0  0  0  0  0  0  0  0  0  0  0  0
  190.6950  177.6160  143.4170 C   0  0  2  0  0  0  0  0  0  0  0  0
  184.2950  178.2370  141.4810 O   0  0  0  0  0  0  0  0  0  0  0  0
  184.5200  179.2330  140.4890 C   0  0  0  0  0  2  0  0  0  0  0  0
  183.0070  178.1960  138.0110 C   0  0  0  0  0  0  0  0  0  0  0  0
  186.4330  178.5250  139.2780 O   0  0  0  0  0  0  0  0  0  0  0  0
  184.4280  178.1270  138.1800 N   0  0  0  0  0  2  0  0  0  0  0  0
  182.2740  178.7730  138.8560 O   0  0  0  0  0  0  0  0  0  0  0  0
  182.3870  177.5840  136.8070 C   0  0  0  0  0  1  0  0  0  0  0  0
  185.1800  178.6270  139.2920 C   0  0  0  0  0  0  0  0  0  0  0  0
  1 11  2  0  0  0  0
  3  2  1  0  0  0  0
  4  5  1  6  0  0  0
  4 24  1  0  0  0  0
  4 23  1  0  0  0  0
  6 20  2  0  0  0  0
  6 15  1  0  0  0  0
  8 24  1  0  0  0  0
 10  2  1  0  0  0  0
 11  7  1  0  0  0  0
 11 12  1  0  0  0  0
 12 10  1  0  0  0  0
 13 19  1  6  0  0  0
 13 18  1  0  0  0  0
 14  8  1  0  0  0  0
 15  9  2  0  0  0  0
 15  7  1  0  0  0  0
 16 14  1  0  0  0  0
 17  3  1  0  0  0  0
 18 12  1  0  0  0  0
 18 17  1  1  0  0  0
 20  1  1  0  0  0  0
 21 16  1  0  0  0  0
 21  5  1  0  0  0  0
 23  1  1  0  0  0  0
 23 13  1  0  0  0  0
 24 22  1  1  0  0  0
 24 19  1  0  0  0  0
 25  6  1  0  0  0  0
 26 25  1  0  0  0  0
 27 29  1  0  0  0  0
 27 30  2  0  0  0  0
 28 32  2  0  0  0  0
 29 32  1  0  0  0  0
 31 27  1  0  0  0  0
 32 26  1  0  0  0  0
M  END
>  <MODEL>
3

>  <REMARK>
 VINA RESULT:      -9.6      0.717      1.442
  Name = 
  3 active torsions:
  status: ('A' for Active; 'I' for Inactive)
    1  A    between atoms: C_8  and  O_23
    2  A    between atoms: C_19  and  O_23
    3  A    between atoms: C_19  and  C_24
                            x       y       z     vdW  Elec       q    Type
                         _______ _______ _______ _____ _____    ______ ____

>  <TORSDO>
F 3

$$$$
=
 OpenBabel10262421243D

 32 36  0  0  1  0  0  0  0  0999 V2000
  186.7560  178.1660  141.9750 C   0  0  0  0  0  0  0  0  0  0  0  0
  184.2960  178.6270  146.1350 C   0  0  0  0  0  2  0  0  0  0  0  0
  185.5500  178.4010  146.9660 C   0  0  0  0  0  2  0  0  0  0  0  0
  189.2470  177.7590  142.2520 C   0  0  1  0  0  3  0  0  0  0  0  0
  189.5660  176.6830  141.2050 C   0  0  0  0  0  2  0  0  0  0  0  0
  185.7730  178.6600  139.7720 C   0  0  0  0  0  0  0  0  0  0  0  0
  184.4910  179.2070  141.9490 C   0  0  0  0  0  2  0  0  0  0  0  0
  191.3060  176.6880  143.4120 C   0  0  0  0  0  2  0  0  0  0  0  0
  183.4480  179.1940  139.8110 O   0  0  0  0  0  0  0  0  0  0  0  0
  184.6670  179.3260  144.8340 C   0  0  0  0  0  2  0  0  0  0  0  0
  185.6800  178.5990  142.6640 C   0  0  0  0  0  0  0  0  0  0  0  0
  185.6910  178.5660  144.1120 N   0  0  0  0  0  0  0  0  0  0  0  0
  187.7430  177.1740  144.0620 C   0  0  2  0  0  3  0  0  0  0  0  0
  192.3990  177.1280  142.4250 C   0  0  0  0  0  2  0  0  0  0  0  0
  184.5140  179.0230  140.4600 C   0  0  0  0  0  0  0  0  0  0  0  0
  191.8830  177.8070  141.1540 C   0  0  0  0  0  2  0  0  0  0  0  0
  186.5140  177.5160  146.1910 C   0  0  0  0  0  2  0  0  0  0  0  0
  186.9000  178.1650  144.8600 C   0  0  2  0  0  3  0  0  0  0  0  0
  189.1620  177.0900  144.6090 C   0  0  0  0  0  2  0  0  0  0  0  0
  186.8090  178.2530  140.5020 C   0  0  0  0  0  3  0  0  0  0  0  0
  190.8350  176.9860  140.3970 C   0  0  0  0  0  2  0  0  0  0  0  0
  190.5540  179.0210  143.9680 C   0  0  0  0  0  1  0  0  0  0  0  0
  187.8710  177.6180  142.6890 N   0  0  0  0  0  0  0  0  0  0  0  0
  190.0980  177.6360  143.5350 C   0  0  2  0  0  0  0  0  0  0  0  0
  185.9270  178.7000  138.3800 O   0  0  0  0  0  0  0  0  0  0  0  0
  186.6090  177.7070  137.6220 C   0  0  0  0  0  2  0  0  0  0  0  0
  189.0030  175.7910  137.2980 C   0  0  0  0  0  0  0  0  0  0  0  0
  188.2440  179.3780  137.2180 O   0  0  0  0  0  0  0  0  0  0  0  0
  189.0930  177.2190  137.2320 N   0  0  0  0  0  2  0  0  0  0  0  0
  187.8920  175.2100  137.4200 O   0  0  0  0  0  0  0  0  0  0  0  0
  190.2440  174.9780  137.2120 C   0  0  0  0  0  1  0  0  0  0  0  0
  188.0080  178.1490  137.3370 C   0  0  0  0  0  0  0  0  0  0  0  0
  1 11  2  0  0  0  0
  1 23  1  0  0  0  0
  2  3  1  0  0  0  0
  4  5  1  6  0  0  0
  4 23  1  0  0  0  0
  4 24  1  0  0  0  0
  6 15  1  0  0  0  0
  6 20  2  0  0  0  0
  7 11  1  0  0  0  0
  8 24  1  0  0  0  0
  9 15  2  0  0  0  0
 10  2  1  0  0  0  0
 11 12  1  0  0  0  0
 12 10  1  0  0  0  0
 12 18  1  0  0  0  0
 13 19  1  1  0  0  0
 13 18  1  0  0  0  0
 14  8  1  0  0  0  0
 15  7  1  0  0  0  0
 16 14  1  0  0  0  0
 17  3  1  0  0  0  0
 18 17  1  1  0  0  0
 20  1  1  0  0  0  0
 21 16  1  0  0  0  0
 21  5  1  0  0  0  0
 23 13  1  0  0  0  0
 24 22  1  1  0  0  0
 24 19  1  0  0  0  0
 25  6  1  0  0  0  0
 26 25  1  0  0  0  0
 27 30  2  0  0  0  0
 28 32  2  0  0  0  0
 29 27  1  0  0  0  0
 29 32  1  0  0  0  0
 31 27  1  0  0  0  0
 32 26  1  0  0  0  0
M  END
>  <MODEL>
4

>  <REMARK>
 VINA RESULT:      -9.4      1.852      3.126
  Name = 
  3 active torsions:
  status: ('A' for Active; 'I' for Inactive)
    1  A    between atoms: C_8  and  O_23
    2  A    between atoms: C_19  and  O_23
    3  A    between atoms: C_19  and  C_24
                            x       y       z     vdW  Elec       q    Type
                         _______ _______ _______ _____ _____    ______ ____

>  <TORSDO>
F 3

$$$$
=
 OpenBabel10262421243D

 32 36  0  0  1  0  0  0  0  0999 V2000
  186.8240  177.9700  144.0320 C   0  0  0  0  0  0  0  0  0  0  0  0
  187.5560  177.9550  148.8310 C   0  0  0  0  0  2  0  0  0  0  0  0
  189.0610  177.8170  148.6570 C   0  0  0  0  0  2  0  0  0  0  0  0
  188.9380  177.8110  142.6330 C   0  0  1  0  0  3  0  0  0  0  0  0
  188.5680  176.8310  141.5110 C   0  0  0  0  0  2  0  0  0  0  0  0
  184.6430  178.4730  143.0080 C   0  0  0  0  0  0  0  0  0  0  0  0
  185.0150  178.7700  145.5480 C   0  0  0  0  0  2  0  0  0  0  0  0
  191.3120  176.9010  142.1160 C   0  0  0  0  0  2  0  0  0  0  0  0
  182.8520  178.7600  144.5590 O   0  0  0  0  0  0  0  0  0  0  0  0
  186.9810  178.7550  147.6710 C   0  0  0  0  0  2  0  0  0  0  0  0
  186.4140  178.2530  145.2860 C   0  0  0  0  0  0  0  0  0  0  0  0
  187.3450  178.1450  146.3890 N   0  0  0  0  0  0  0  0  0  0  0  0
  188.9600  176.9790  144.9100 C   0  0  2  0  0  3  0  0  0  0  0  0
  191.5050  177.5030  140.7150 C   0  0  0  0  0  2  0  0  0  0  0  0
  184.0930  178.6670  144.3680 C   0  0  0  0  0  0  0  0  0  0  0  0
  190.2660  178.1900  140.1340 C   0  0  0  0  0  2  0  0  0  0  0  0
  189.3520  177.0790  147.3590 C   0  0  0  0  0  2  0  0  0  0  0  0
  188.7720  177.8340  146.1610 C   0  0  2  0  0  3  0  0  0  0  0  0
  190.4030  177.0140  144.4290 C   0  0  0  0  0  2  0  0  0  0  0  0
  185.9240  178.1390  142.8740 C   0  0  0  0  0  3  0  0  0  0  0  0
  189.0160  177.3060  140.1240 C   0  0  0  0  0  2  0  0  0  0  0  0
  190.9770  179.1100  143.2660 C   0  0  0  0  0  1  0  0  0  0  0  0
  188.1640  177.5050  143.8200 N   0  0  0  0  0  0  0  0  0  0  0  0
  190.4150  177.7100  143.0720 C   0  0  2  0  0  0  0  0  0  0  0  0
  183.8730  178.6030  141.8440 O   0  0  0  0  0  0  0  0  0  0  0  0
  184.2450  178.0710  140.5770 C   0  0  0  0  0  2  0  0  0  0  0  0
  182.5140  179.7990  138.6980 C   0  0  0  0  0  0  0  0  0  0  0  0
  182.6840  176.3770  140.0080 O   0  0  0  0  0  0  0  0  0  0  0  0
  182.2420  178.4290  139.0180 N   0  0  0  0  0  2  0  0  0  0  0  0
  183.5520  180.3760  139.1170 O   0  0  0  0  0  0  0  0  0  0  0  0
  181.5560  180.5500  137.8460 C   0  0  0  0  0  1  0  0  0  0  0  0
  183.0350  177.5740  139.8520 C   0  0  0  0  0  0  0  0  0  0  0  0
  1 11  2  0  0  0  0
  3  2  1  0  0  0  0
  4  5  1  6  0  0  0
  4 24  1  0  0  0  0
  4 23  1  0  0  0  0
  6 15  1  0  0  0  0
  8 24  1  0  0  0  0
 10  2  1  0  0  0  0
 11  7  1  0  0  0  0
 11 12  1  0  0  0  0
 12 10  1  0  0  0  0
 13 19  1  6  0  0  0
 13 18  1  0  0  0  0
 14  8  1  0  0  0  0
 15  9  2  0  0  0  0
 15  7  1  0  0  0  0
 16 14  1  0  0  0  0
 17  3  1  0  0  0  0
 18 12  1  0  0  0  0
 18 17  1  1  0  0  0
 20  6  2  0  0  0  0
 20  1  1  0  0  0  0
 21 16  1  0  0  0  0
 21  5  1  0  0  0  0
 23  1  1  0  0  0  0
 23 13  1  0  0  0  0
 24 22  1  1  0  0  0
 24 19  1  0  0  0  0
 25  6  1  0  0  0  0
 26 25  1  0  0  0  0
 27 29  1  0  0  0  0
 27 30  2  0  0  0  0
 29 32  1  0  0  0  0
 31 27  1  0  0  0  0
 32 28  2  0  0  0  0
 32 26  1  0  0  0  0
M  END
>  <MODEL>
5

>  <REMARK>
 VINA RESULT:      -9.3      1.390      1.638
  Name = 
  3 active torsions:
  status: ('A' for Active; 'I' for Inactive)
    1  A    between atoms: C_8  and  O_23
    2  A    between atoms: C_19  and  O_23
    3  A    between atoms: C_19  and  C_24
                            x       y       z     vdW  Elec       q    Type
                         _______ _______ _______ _____ _____    ______ ____

>  <TORSDO>
F 3

$$$$
=
 OpenBabel10262421243D

 32 36  0  0  1  0  0  0  0  0999 V2000
  187.3110  178.0000  141.8880 C   0  0  0  0  0  0  0  0  0  0  0  0
  184.0480  178.6720  138.3570 C   0  0  0  0  0  2  0  0  0  0  0  0
  182.9530  179.0090  139.3570 C   0  0  0  0  0  2  0  0  0  0  0  0
  186.4330  178.3970  144.2370 C   0  0  1  0  0  3  0  0  0  0  0  0
  187.0370  177.2490  145.0580 C   0  0  0  0  0  2  0  0  0  0  0  0
  189.7130  177.6770  141.4530 C   0  0  0  0  0  0  0  0  0  0  0  0
  188.0930  178.3150  139.5420 C   0  0  0  0  0  2  0  0  0  0  0  0
  184.6230  178.2530  146.0900 C   0  0  0  0  0  2  0  0  0  0  0  0
  190.2990  177.5180  139.1450 O   0  0  0  0  0  0  0  0  0  0  0  0
  185.3930  179.1320  138.9010 C   0  0  0  0  0  2  0  0  0  0  0  0
  187.0090  178.2520  140.5970 C   0  0  0  0  0  0  0  0  0  0  0  0
  185.6420  178.5540  140.2240 N   0  0  0  0  0  0  0  0  0  0  0  0
  184.8730  177.8340  142.4690 C   0  0  2  0  0  3  0  0  0  0  0  0
  185.4550  178.7510  147.2840 C   0  0  0  0  0  2  0  0  0  0  0  0
  189.4280  177.8110  140.0060 C   0  0  0  0  0  0  0  0  0  0  0  0
  186.9450  178.9460  146.9920 C   0  0  0  0  0  2  0  0  0  0  0  0
  183.2260  178.2850  140.6670 C   0  0  0  0  0  2  0  0  0  0  0  0
  184.5830  178.6970  141.2430 C   0  0  2  0  0  3  0  0  0  0  0  0
  184.0510  178.2860  143.6690 C   0  0  0  0  0  2  0  0  0  0  0  0
  188.7040  177.7610  142.3170 C   0  0  0  0  0  3  0  0  0  0  0  0
  187.6260  177.7100  146.3970 C   0  0  0  0  0  2  0  0  0  0  0  0
  184.9310  180.3360  144.7180 C   0  0  0  0  0  1  0  0  0  0  0  0
  186.2600  177.9720  142.8620 N   0  0  0  0  0  0  0  0  0  0  0  0
  185.0270  178.8180  144.7150 C   0  0  2  0  0  0  0  0  0  0  0  0
  190.9960  177.4420  141.9640 O   0  0  0  0  0  0  0  0  0  0  0  0
  191.2560  176.8180  143.2160 C   0  0  0  0  0  2  0  0  0  0  0  0
  191.8690  176.1840  146.1710 C   0  0  0  0  0  0  0  0  0  0  0  0
  191.3270  179.0660  143.9690 O   0  0  0  0  0  0  0  0  0  0  0  0
  191.6810  177.5040  145.6480 N   0  0  0  0  0  2  0  0  0  0  0  0
  191.8730  175.1750  145.4170 O   0  0  0  0  0  0  0  0  0  0  0  0
  192.0750  176.0030  147.6310 C   0  0  0  0  0  1  0  0  0  0  0  0
  191.4330  177.8530  144.2800 C   0  0  0  0  0  0  0  0  0  0  0  0
  1 20  1  0  0  0  0
  1 23  1  0  0  0  0
  2 10  1  0  0  0  0
  2  3  1  0  0  0  0
  3 17  1  0  0  0  0
  4 24  1  0  0  0  0
  4  5  1  1  0  0  0
  5 21  1  0  0  0  0
  6 25  1  0  0  0  0
  6 20  2  0  0  0  0
  7 15  1  0  0  0  0
  7 11  1  0  0  0  0
  8 14  1  0  0  0  0
  9 15  2  0  0  0  0
 10 12  1  0  0  0  0
 11  1  2  0  0  0  0
 12 11  1  0  0  0  0
 12 18  1  0  0  0  0
 13 23  1  0  0  0  0
 13 19  1  1  0  0  0
 15  6  1  0  0  0  0
 16 14  1  0  0  0  0
 18 17  1  6  0  0  0
 18 13  1  0  0  0  0
 19 24  1  0  0  0  0
 21 16  1  0  0  0  0
 23  4  1  0  0  0  0
 24 22  1  1  0  0  0
 24  8  1  0  0  0  0
 25 26  1  0  0  0  0
 26 32  1  0  0  0  0
 27 31  1  0  0  0  0
 28 32  2  0  0  0  0
 29 27  1  0  0  0  0
 30 27  2  0  0  0  0
 32 29  1  0  0  0  0
M  END
>  <MODEL>
6

>  <REMARK>
 VINA RESULT:      -9.0      2.877      7.654
  Name = 
  3 active torsions:
  status: ('A' for Active; 'I' for Inactive)
    1  A    between atoms: C_8  and  O_23
    2  A    between atoms: C_19  and  O_23
    3  A    between atoms: C_19  and  C_24
                            x       y       z     vdW  Elec       q    Type
                         _______ _______ _______ _____ _____    ______ ____

>  <TORSDO>
F 3

$$$$
=
 OpenBabel10262421243D

 32 36  0  0  1  0  0  0  0  0999 V2000
  187.6050  177.7990  142.5980 C   0  0  0  0  0  0  0  0  0  0  0  0
  183.0790  179.0860  143.7920 C   0  0  0  0  0  2  0  0  0  0  0  0
  183.3810  178.9780  145.2790 C   0  0  0  0  0  2  0  0  0  0  0  0
  189.1450  177.3740  144.5720 C   0  0  1  0  0  3  0  0  0  0  0  0
  189.9270  176.1160  144.1680 C   0  0  0  0  0  2  0  0  0  0  0  0
  188.4700  177.9130  140.2960 C   0  0  0  0  0  0  0  0  0  0  0  0
  186.1510  178.8860  140.8900 C   0  0  0  0  0  2  0  0  0  0  0  0
  189.6770  176.4710  146.9450 C   0  0  0  0  0  2  0  0  0  0  0  0
  186.8530  178.5150  138.6480 O   0  0  0  0  0  0  0  0  0  0  0  0
  184.3330  179.5240  143.0490 C   0  0  0  0  0  2  0  0  0  0  0  0
  186.4280  178.3840  142.2920 C   0  0  0  0  0  0  0  0  0  0  0  0
  185.4470  178.6150  143.3320 N   0  0  0  0  0  0  0  0  0  0  0  0
  186.7490  177.1750  144.8770 C   0  0  2  0  0  3  0  0  0  0  0  0
  191.1980  176.6900  146.9560 C   0  0  0  0  0  2  0  0  0  0  0  0
  187.1520  178.4330  139.8690 C   0  0  0  0  0  0  0  0  0  0  0  0
  191.7920  177.1410  145.6190 C   0  0  0  0  0  2  0  0  0  0  0  0
  184.4690  177.9370  145.4970 C   0  0  0  0  0  2  0  0  0  0  0  0
  185.7470  178.3210  144.7480 C   0  0  2  0  0  3  0  0  0  0  0  0
  187.3830  177.1490  146.2600 C   0  0  0  0  0  2  0  0  0  0  0  0
  188.6580  177.6140  141.5800 C   0  0  0  0  0  3  0  0  0  0  0  0
  191.4320  176.2280  144.4430 C   0  0  0  0  0  2  0  0  0  0  0  0
  189.1040  178.8870  146.5600 C   0  0  0  0  0  1  0  0  0  0  0  0
  187.8400  177.3570  143.9420 N   0  0  0  0  0  0  0  0  0  0  0  0
  188.8660  177.4610  146.0880 C   0  0  2  0  0  0  0  0  0  0  0  0
  189.5330  177.6940  139.4100 O   0  0  0  0  0  0  0  0  0  0  0  0
  190.4000  176.5670  139.4640 C   0  0  0  0  0  2  0  0  0  0  0  0
  192.6440  176.2860  137.3670 C   0  0  0  0  0  0  0  0  0  0  0  0
  192.1220  177.5380  140.7740 O   0  0  0  0  0  0  0  0  0  0  0  0
  192.8260  176.8260  138.6810 N   0  0  0  0  0  2  0  0  0  0  0  0
  191.5040  175.9540  136.9470 O   0  0  0  0  0  0  0  0  0  0  0  0
  193.8230  176.1240  136.4770 C   0  0  0  0  0  1  0  0  0  0  0  0
  191.8110  177.0130  139.6750 C   0  0  0  0  0  0  0  0  0  0  0  0
  1 23  1  0  0  0  0
  2  3  1  0  0  0  0
  3 17  1  0  0  0  0
  4  5  1  1  0  0  0
  4 24  1  0  0  0  0
  5 21  1  0  0  0  0
  6 20  2  0  0  0  0
  7 11  1  0  0  0  0
  8 14  1  0  0  0  0
  9 15  2  0  0  0  0
 10 12  1  0  0  0  0
 10  2  1  0  0  0  0
 11  1  2  0  0  0  0
 11 12  1  0  0  0  0
 12 18  1  0  0  0  0
 13 19  1  1  0  0  0
 15  6  1  0  0  0  0
 15  7  1  0  0  0  0
 16 14  1  0  0  0  0
 18 13  1  0  0  0  0
 18 17  1  1  0  0  0
 20  1  1  0  0  0  0
 21 16  1  0  0  0  0
 23  4  1  0  0  0  0
 23 13  1  0  0  0  0
 24 19  1  0  0  0  0
 24 22  1  1  0  0  0
 24  8  1  0  0  0  0
 25 26  1  0  0  0  0
 25  6  1  0  0  0  0
 26 32  1  0  0  0  0
 27 29  1  0  0  0  0
 29 32  1  0  0  0  0
 30 27  2  0  0  0  0
 31 27  1  0  0  0  0
 32 28  2  0  0  0  0
M  END
>  <MODEL>
7

>  <REMARK>
 VINA RESULT:      -9.0      2.577      5.274
  Name = 
  3 active torsions:
  status: ('A' for Active; 'I' for Inactive)
    1  A    between atoms: C_8  and  O_23
    2  A    between atoms: C_19  and  O_23
    3  A    between atoms: C_19  and  C_24
                            x       y       z     vdW  Elec       q    Type
                         _______ _______ _______ _____ _____    ______ ____

>  <TORSDO>
F 3

$$$$
=
 OpenBabel10262421243D

 32 36  0  0  1  0  0  0  0  0999 V2000
  188.5840  177.9560  141.0650 C   0  0  0  0  0  0  0  0  0  0  0  0
  191.2210  176.7510  137.1710 C   0  0  0  0  0  2  0  0  0  0  0  0
  192.3480  176.2050  138.0340 C   0  0  0  0  0  2  0  0  0  0  0  0
  189.6500  177.3700  143.2940 C   0  0  1  0  0  3  0  0  0  0  0  0
  189.3700  178.5970  144.1730 C   0  0  0  0  0  2  0  0  0  0  0  0
  186.2470  178.7190  140.9200 C   0  0  0  0  0  0  0  0  0  0  0  0
  187.4810  177.8240  138.8330 C   0  0  0  0  0  2  0  0  0  0  0  0
  191.6640  177.1540  144.9140 C   0  0  0  0  0  2  0  0  0  0  0  0
  185.4280  179.0170  138.6990 O   0  0  0  0  0  0  0  0  0  0  0  0
  189.8890  176.5370  137.8770 C   0  0  0  0  0  2  0  0  0  0  0  0
  188.6780  177.6720  139.7490 C   0  0  0  0  0  0  0  0  0  0  0  0
  189.9110  177.1310  139.2160 N   0  0  0  0  0  0  0  0  0  0  0  0
  191.0630  177.6650  141.3460 C   0  0  2  0  0  3  0  0  0  0  0  0
  190.9050  176.7990  146.2030 C   0  0  0  0  0  2  0  0  0  0  0  0
  186.3270  178.5560  139.4510 C   0  0  0  0  0  0  0  0  0  0  0  0
  189.3810  176.8840  146.0950 C   0  0  0  0  0  2  0  0  0  0  0  0
  192.3710  176.9480  139.3620 C   0  0  0  0  0  2  0  0  0  0  0  0
  191.0410  176.7820  140.1010 C   0  0  2  0  0  3  0  0  0  0  0  0
  191.9260  177.0530  142.4420 C   0  0  0  0  0  2  0  0  0  0  0  0
  187.3200  178.4390  141.6570 C   0  0  0  0  0  3  0  0  0  0  0  0
  188.8720  178.2320  145.5770 C   0  0  0  0  0  2  0  0  0  0  0  0
  190.8180  175.1830  143.6040 C   0  0  0  0  0  1  0  0  0  0  0  0
  189.7320  177.7770  141.9040 N   0  0  0  0  0  0  0  0  0  0  0  0
  191.0020  176.6930  143.6020 C   0  0  2  0  0  0  0  0  0  0  0  0
  185.0990  179.1770  141.5810 O   0  0  0  0  0  0  0  0  0  0  0  0
  184.0880  178.3260  142.1100 C   0  0  0  0  0  2  0  0  0  0  0  0
  181.4090  178.7240  143.5840 C   0  0  0  0  0  0  0  0  0  0  0  0
  182.7590  178.6610  140.1740 O   0  0  0  0  0  0  0  0  0  0  0  0
  181.5590  178.7340  142.1590 N   0  0  0  0  0  2  0  0  0  0  0  0
  182.4060  178.6270  144.3470 O   0  0  0  0  0  0  0  0  0  0  0  0
  180.0500  178.8420  144.1730 C   0  0  0  0  0  1  0  0  0  0  0  0
  182.7840  178.5920  141.4290 C   0  0  0  0  0  0  0  0  0  0  0  0
  1 20  1  0  0  0  0
  1 23  1  0  0  0  0
  2 10  1  0  0  0  0
  2  3  1  0  0  0  0
  3 17  1  0  0  0  0
  4 24  1  0  0  0  0
  4  5  1  1  0  0  0
  5 21  1  0  0  0  0
  6 25  1  0  0  0  0
  6 20  2  0  0  0  0
  7 15  1  0  0  0  0
  7 11  1  0  0  0  0
  8 14  1  0  0  0  0
  9 15  2  0  0  0  0
 10 12  1  0  0  0  0
 11  1  2  0  0  0  0
 12 11  1  0  0  0  0
 12 18  1  0  0  0  0
 13 23  1  0  0  0  0
 13 19  1  1  0  0  0
 15  6  1  0  0  0  0
 16 14  1  0  0  0  0
 18 17  1  6  0  0  0
 18 13  1  0  0  0  0
 19 24  1  0  0  0  0
 21 16  1  0  0  0  0
 23  4  1  0  0  0  0
 24 22  1  1  0  0  0
 24  8  1  0  0  0  0
 25 26  1  0  0  0  0
 27 31  1  0  0  0  0
 27 30  2  0  0  0  0
 28 32  2  0  0  0  0
 29 27  1  0  0  0  0
 32 26  1  0  0  0  0
 32 29  1  0  0  0  0
M  END
>  <MODEL>
8

>  <REMARK>
 VINA RESULT:      -8.6      2.241      5.996
  Name = 
  3 active torsions:
  status: ('A' for Active; 'I' for Inactive)
    1  A    between atoms: C_8  and  O_23
    2  A    between atoms: C_19  and  O_23
    3  A    between atoms: C_19  and  C_24
                            x       y       z     vdW  Elec       q    Type
                         _______ _______ _______ _____ _____    ______ ____

>  <TORSDO>
F 3

$$$$
=
 OpenBabel10262421243D

 32 36  0  0  1  0  0  0  0  0999 V2000
  185.5080  178.5480  140.7520 C   0  0  0  0  0  0  0  0  0  0  0  0
  188.5020  178.1890  136.9470 C   0  0  0  0  0  2  0  0  0  0  0  0
  189.6740  177.8020  137.8360 C   0  0  0  0  0  2  0  0  0  0  0  0
  186.5670  178.0010  142.9940 C   0  0  1  0  0  3  0  0  0  0  0  0
  186.0130  179.0770  143.9390 C   0  0  0  0  0  2  0  0  0  0  0  0
  183.0760  178.8570  140.5220 C   0  0  0  0  0  0  0  0  0  0  0  0
  184.5540  178.3860  138.4550 C   0  0  0  0  0  2  0  0  0  0  0  0
  188.5100  178.0460  144.7120 C   0  0  0  0  0  2  0  0  0  0  0  0
  182.3150  179.1690  138.2820 O   0  0  0  0  0  0  0  0  0  0  0  0
  187.2080  177.6670  137.5560 C   0  0  0  0  0  2  0  0  0  0  0  0
  185.7150  178.3940  139.4280 C   0  0  0  0  0  0  0  0  0  0  0  0
  187.0530  178.1450  138.9320 N   0  0  0  0  0  0  0  0  0  0  0  0
  187.9820  178.7170  141.1600 C   0  0  2  0  0  3  0  0  0  0  0  0
  187.7790  177.4500  145.9250 C   0  0  0  0  0  2  0  0  0  0  0  0
  183.2520  178.8310  139.0530 C   0  0  0  0  0  0  0  0  0  0  0  0
  186.2740  177.2480  145.7330 C   0  0  0  0  0  2  0  0  0  0  0  0
  189.4920  178.4260  139.2110 C   0  0  0  0  0  2  0  0  0  0  0  0
  188.1880  177.9490  139.8570 C   0  0  2  0  0  3  0  0  0  0  0  0
  188.8970  178.1970  142.2590 C   0  0  0  0  0  2  0  0  0  0  0  0
  184.1490  178.7300  141.3000 C   0  0  0  0  0  3  0  0  0  0  0  0
  185.5340  178.5110  145.2820 C   0  0  0  0  0  2  0  0  0  0  0  0
  188.1260  176.0610  143.2190 C   0  0  0  0  0  1  0  0  0  0  0  0
  186.6300  178.5270  141.6440 N   0  0  0  0  0  0  0  0  0  0  0  0
  188.0110  177.5740  143.3340 C   0  0  2  0  0  0  0  0  0  0  0  0
  181.8320  179.0310  141.1440 O   0  0  0  0  0  0  0  0  0  0  0  0
  180.9010  177.9800  141.3770 C   0  0  0  0  0  2  0  0  0  0  0  0
  180.7020  176.0000  139.0220 C   0  0  0  0  0  0  0  0  0  0  0  0
  178.9310  178.8910  140.4210 O   0  0  0  0  0  0  0  0  0  0  0  0
  179.7960  177.0870  139.2450 N   0  0  0  0  0  2  0  0  0  0  0  0
  181.6180  175.7320  139.8420 O   0  0  0  0  0  0  0  0  0  0  0  0
  180.5500  175.1660  137.8010 C   0  0  0  0  0  1  0  0  0  0  0  0
  179.8230  178.0090  140.3420 C   0  0  0  0  0  0  0  0  0  0  0  0
  1 20  1  0  0  0  0
  1 23  1  0  0  0  0
  2 10  1  0  0  0  0
  2  3  1  0  0  0  0
  3 17  1  0  0  0  0
  4 24  1  0  0  0  0
  4  5  1  1  0  0  0
  5 21  1  0  0  0  0
  6 25  1  0  0  0  0
  6 20  2  0  0  0  0
  7 15  1  0  0  0  0
  7 11  1  0  0  0  0
  8 14  1  0  0  0  0
  9 15  2  0  0  0  0
 10 12  1  0  0  0  0
 11  1  2  0  0  0  0
 12 11  1  0  0  0  0
 12 18  1  0  0  0  0
 13 23  1  0  0  0  0
 13 19  1  1  0  0  0
 15  6  1  0  0  0  0
 16 14  1  0  0  0  0
 18 17  1  6  0  0  0
 18 13  1  0  0  0  0
 19 24  1  0  0  0  0
 21 16  1  0  0  0  0
 23  4  1  0  0  0  0
 24 22  1  6  0  0  0
 24  8  1  0  0  0  0
 25 26  1  0  0  0  0
 27 29  1  0  0  0  0
 27 30  2  0  0  0  0
 29 32  1  0  0  0  0
 31 27  1  0  0  0  0
 32 28  2  0  0  0  0
 32 26  1  0  0  0  0
M  END
>  <MODEL>
9

>  <REMARK>
 VINA RESULT:      -8.4      2.464      6.029
  Name = 
  3 active torsions:
  status: ('A' for Active; 'I' for Inactive)
    1  A    between atoms: C_8  and  O_23
    2  A    between atoms: C_19  and  O_23
    3  A    between atoms: C_19  and  C_24
                            x       y       z     vdW  Elec       q    Type
                         _______ _______ _______ _____ _____    ______ ____

>  <TORSDO>
F 3

$$$$
