=
 OpenBabel10262420153D

 27 31  0  0  0  0  0  0  0  0999 V2000
  189.0680  177.7500  142.7910 N   0  0  0  0  0  0  0  0  0  0  0  0
  187.9820  177.8000  143.6240 C   0  0  0  0  0  0  0  0  0  0  0  0
  186.5630  178.2520  141.7150 N   0  0  0  0  0  0  0  0  0  0  0  0
  186.9850  177.6760  145.8260 C   0  0  0  0  0  3  0  0  0  0  0  0
  189.0330  178.1810  139.3270 C   0  0  0  0  0  0  0  0  0  0  0  0
  188.1260  177.5950  145.0180 C   0  0  0  0  0  0  0  0  0  0  0  0
  185.5530  178.1530  143.9150 C   0  0  0  0  0  0  0  0  0  0  0  0
  188.8910  177.9440  141.4650 C   0  0  0  0  0  0  0  0  0  0  0  0
  186.6850  178.0770  143.0680 C   0  0  0  0  0  0  0  0  0  0  0  0
  187.7130  178.3330  139.6080 N   0  0  0  0  0  0  0  0  0  0  0  0
  185.7310  177.9460  145.2870 C   0  0  0  0  0  3  0  0  0  0  0  0
  189.8210  177.9260  140.4560 C   0  0  0  0  0  2  0  0  0  0  0  0
  187.6680  178.1830  140.9390 C   0  0  0  0  0  0  0  0  0  0  0  0
  183.1760  178.8560  144.3140 C   0  0  0  0  0  3  0  0  0  0  0  0
  181.6160  179.0520  142.4920 C   0  0  0  0  0  3  0  0  0  0  0  0
  182.5910  178.6670  141.6280 N   0  0  0  0  0  0  0  0  0  0  0  0
  183.8480  178.3710  142.0570 C   0  0  0  0  0  3  0  0  0  0  0  0
  184.1780  178.4490  143.4190 C   0  0  0  0  0  0  0  0  0  0  0  0
  181.8930  179.1550  143.8560 C   0  0  0  0  0  3  0  0  0  0  0  0
  191.8070  176.6900  146.9390 N   0  0  0  0  0  0  0  0  0  0  0  0
  189.4320  177.2890  145.6700 C   0  0  0  0  0  0  0  0  0  0  0  0
  189.5530  177.3390  147.0650 C   0  0  0  0  0  3  0  0  0  0  0  0
  190.7390  177.0400  147.6570 N   0  0  0  0  0  0  0  0  0  0  0  0
  191.7520  176.6170  145.5840 C   0  0  0  0  0  3  0  0  0  0  0  0
  190.5590  176.9140  144.9300 C   0  0  0  0  0  3  0  0  0  0  0  0
  188.6800  179.1030  137.0740 C   0  0  0  0  0  1  0  0  0  0  0  0
  189.5710  178.2360  137.9400 C   0  0  0  0  0  2  0  0  0  0  0  0
  1  2  1  0  0  0  0
  2  6  1  0  0  0  0
  3  9  1  0  0  0  0
  5 10  2  0  0  0  0
  5 12  1  0  0  0  0
  6 21  1  0  0  0  0
  6  4  2  0  0  0  0
  7 11  2  0  0  0  0
  8  1  2  0  0  0  0
  9  2  2  0  0  0  0
  9  7  1  0  0  0  0
 10 13  1  0  0  0  0
 11  4  1  0  0  0  0
 12  8  1  0  0  0  0
 13  8  1  0  0  0  0
 13  3  2  0  0  0  0
 15 19  2  0  0  0  0
 16 17  2  0  0  0  0
 16 15  1  0  0  0  0
 17 18  1  0  0  0  0
 18  7  1  0  0  0  0
 18 14  2  0  0  0  0
 19 14  1  0  0  0  0
 20 23  1  0  0  0  0
 21 22  1  0  0  0  0
 22 23  2  0  0  0  0
 24 20  2  0  0  0  0
 25 24  1  0  0  0  0
 25 21  2  0  0  0  0
 26 27  1  0  0  0  0
 27  5  1  0  0  0  0
M  END
>  <MODEL>
1

>  <REMARK>
 VINA RESULT:     -10.5      0.000      0.000
  Name = 
  3 active torsions:
  status: ('A' for Active; 'I' for Inactive)
    1  A    between atoms: C_9  and  C_15
    2  A    between atoms: C_13  and  C_22
    3  A    between atoms: C_14  and  C_17
                            x       y       z     vdW  Elec       q    Type
                         _______ _______ _______ _____ _____    ______ ____

>  <TORSDO>
F 3

$$$$
=
 OpenBabel10262420153D

 27 31  0  0  0  0  0  0  0  0999 V2000
  186.9550  178.1500  141.4430 N   0  0  0  0  0  0  0  0  0  0  0  0
  188.2370  177.7870  141.7610 C   0  0  0  0  0  0  0  0  0  0  0  0
  187.6250  177.7490  144.1040 N   0  0  0  0  0  0  0  0  0  0  0  0
  190.5140  177.2600  141.1320 C   0  0  0  0  0  3  0  0  0  0  0  0
  184.3290  178.6240  143.6920 C   0  0  0  0  0  0  0  0  0  0  0  0
  189.2140  177.6130  140.7500 C   0  0  0  0  0  0  0  0  0  0  0  0
  189.9140  177.2410  143.4930 C   0  0  0  0  0  0  0  0  0  0  0  0
  186.0480  178.2990  142.4340 C   0  0  0  0  0  0  0  0  0  0  0  0
  188.5890  177.5950  143.1420 C   0  0  0  0  0  0  0  0  0  0  0  0
  185.3280  178.2870  144.5480 N   0  0  0  0  0  0  0  0  0  0  0  0
  190.8540  177.0770  142.4690 C   0  0  0  0  0  3  0  0  0  0  0  0
  184.7210  178.6400  142.3490 C   0  0  0  0  0  2  0  0  0  0  0  0
  186.3730  178.0990  143.7320 C   0  0  0  0  0  0  0  0  0  0  0  0
  189.4740  177.2670  145.9650 C   0  0  0  0  0  3  0  0  0  0  0  0
  191.1760  176.6140  147.5350 C   0  0  0  0  0  3  0  0  0  0  0  0
  192.0290  176.3850  146.5020 N   0  0  0  0  0  0  0  0  0  0  0  0
  191.6530  176.5820  145.2100 C   0  0  0  0  0  3  0  0  0  0  0  0
  190.3620  177.0380  144.9000 C   0  0  0  0  0  0  0  0  0  0  0  0
  189.8790  177.0600  147.2830 C   0  0  0  0  0  3  0  0  0  0  0  0
  188.4530  178.1400  136.6030 N   0  0  0  0  0  0  0  0  0  0  0  0
  188.9260  177.7780  139.2960 C   0  0  0  0  0  0  0  0  0  0  0  0
  189.0560  179.0340  138.6890 C   0  0  0  0  0  3  0  0  0  0  0  0
  188.8130  179.1770  137.3600 N   0  0  0  0  0  0  0  0  0  0  0  0
  188.3170  176.8960  137.1300 C   0  0  0  0  0  3  0  0  0  0  0  0
  188.5550  176.6980  138.4880 C   0  0  0  0  0  3  0  0  0  0  0  0
  182.0030  178.9480  142.9580 C   0  0  0  0  0  1  0  0  0  0  0  0
  182.9390  178.9020  144.1490 C   0  0  0  0  0  2  0  0  0  0  0  0
  1  2  1  0  0  0  0
  1  8  2  0  0  0  0
  2  9  1  0  0  0  0
  4 11  2  0  0  0  0
  5 27  1  0  0  0  0
  5 10  2  0  0  0  0
  6  4  1  0  0  0  0
  6  2  2  0  0  0  0
  7 18  1  0  0  0  0
  8 13  1  0  0  0  0
  9  7  2  0  0  0  0
  9  3  1  0  0  0  0
 11  7  1  0  0  0  0
 12  8  1  0  0  0  0
 12  5  1  0  0  0  0
 13  3  2  0  0  0  0
 13 10  1  0  0  0  0
 14 19  1  0  0  0  0
 16 15  1  0  0  0  0
 17 16  2  0  0  0  0
 18 17  1  0  0  0  0
 18 14  2  0  0  0  0
 19 15  2  0  0  0  0
 20 24  2  0  0  0  0
 20 23  1  0  0  0  0
 21  6  1  0  0  0  0
 22 21  1  0  0  0  0
 23 22  2  0  0  0  0
 24 25  1  0  0  0  0
 25 21  2  0  0  0  0
 26 27  1  0  0  0  0
M  END
>  <MODEL>
2

>  <REMARK>
 VINA RESULT:     -10.1      1.455      7.129
  Name = 
  3 active torsions:
  status: ('A' for Active; 'I' for Inactive)
    1  A    between atoms: C_9  and  C_15
    2  A    between atoms: C_13  and  C_22
    3  A    between atoms: C_14  and  C_17
                            x       y       z     vdW  Elec       q    Type
                         _______ _______ _______ _____ _____    ______ ____

>  <TORSDO>
F 3

$$$$
=
 OpenBabel10262420153D

 27 31  0  0  0  0  0  0  0  0999 V2000
  187.6290  177.7200  144.1730 N   0  0  0  0  0  0  0  0  0  0  0  0
  188.6080  177.5730  143.2270 C   0  0  0  0  0  0  0  0  0  0  0  0
  186.9980  178.1270  141.5040 N   0  0  0  0  0  0  0  0  0  0  0  0
  190.8870  177.0690  142.5870 C   0  0  0  0  0  3  0  0  0  0  0  0
  184.3040  178.6020  143.5830 C   0  0  0  0  0  0  0  0  0  0  0  0
  189.9290  177.2230  143.5970 C   0  0  0  0  0  0  0  0  0  0  0  0
  189.2700  177.6020  140.8450 C   0  0  0  0  0  0  0  0  0  0  0  0
  186.3810  178.0620  143.7830 C   0  0  0  0  0  0  0  0  0  0  0  0
  188.2770  177.7690  141.8400 C   0  0  0  0  0  0  0  0  0  0  0  0
  184.7900  178.6090  142.3150 N   0  0  0  0  0  0  0  0  0  0  0  0
  190.5650  177.2550  141.2460 C   0  0  0  0  0  3  0  0  0  0  0  0
  185.2620  178.2730  144.5490 C   0  0  0  0  0  2  0  0  0  0  0  0
  186.0740  178.2660  142.4810 C   0  0  0  0  0  0  0  0  0  0  0  0
  188.6520  176.6640  138.5990 C   0  0  0  0  0  3  0  0  0  0  0  0
  188.4580  178.0890  136.6700 C   0  0  0  0  0  3  0  0  0  0  0  0
  188.7900  179.1590  137.4380 N   0  0  0  0  0  0  0  0  0  0  0  0
  189.0580  179.0290  138.7660 C   0  0  0  0  0  3  0  0  0  0  0  0
  189.0040  177.7720  139.3880 C   0  0  0  0  0  0  0  0  0  0  0  0
  188.3820  176.8170  137.2400 C   0  0  0  0  0  3  0  0  0  0  0  0
  191.2230  176.6610  147.6050 N   0  0  0  0  0  0  0  0  0  0  0  0
  190.3570  177.0180  145.0110 C   0  0  0  0  0  0  0  0  0  0  0  0
  191.6430  176.5430  145.2980 C   0  0  0  0  0  3  0  0  0  0  0  0
  192.0360  176.3760  146.5870 N   0  0  0  0  0  0  0  0  0  0  0  0
  189.9660  177.1310  147.3940 C   0  0  0  0  0  3  0  0  0  0  0  0
  189.5170  177.3190  146.0890 C   0  0  0  0  0  3  0  0  0  0  0  0
  182.0480  178.9080  142.6500 C   0  0  0  0  0  1  0  0  0  0  0  0
  182.8950  178.9580  143.9060 C   0  0  0  0  0  2  0  0  0  0  0  0
  2  6  1  0  0  0  0
  2  1  1  0  0  0  0
  3  9  1  0  0  0  0
  3 13  2  0  0  0  0
  4  6  2  0  0  0  0
  5 27  1  0  0  0  0
  5 12  1  0  0  0  0
  6 21  1  0  0  0  0
  7 11  2  0  0  0  0
  7  9  1  0  0  0  0
  8  1  2  0  0  0  0
  8 12  1  0  0  0  0
  9  2  2  0  0  0  0
 10 13  1  0  0  0  0
 10  5  2  0  0  0  0
 11  4  1  0  0  0  0
 13  8  1  0  0  0  0
 14 18  1  0  0  0  0
 15 19  1  0  0  0  0
 15 16  2  0  0  0  0
 16 17  1  0  0  0  0
 17 18  2  0  0  0  0
 18  7  1  0  0  0  0
 19 14  2  0  0  0  0
 21 22  2  0  0  0  0
 21 25  1  0  0  0  0
 22 23  1  0  0  0  0
 23 20  2  0  0  0  0
 24 20  1  0  0  0  0
 25 24  2  0  0  0  0
 26 27  1  0  0  0  0
M  END
>  <MODEL>
3

>  <REMARK>
 VINA RESULT:     -10.1      1.197      5.336
  Name = 
  3 active torsions:
  status: ('A' for Active; 'I' for Inactive)
    1  A    between atoms: C_9  and  C_15
    2  A    between atoms: C_13  and  C_22
    3  A    between atoms: C_14  and  C_17
                            x       y       z     vdW  Elec       q    Type
                         _______ _______ _______ _____ _____    ______ ____

>  <TORSDO>
F 3

$$$$
=
 OpenBabel10262420153D

 27 31  0  0  0  0  0  0  0  0999 V2000
  186.5650  178.2240  141.7420 N   0  0  0  0  0  0  0  0  0  0  0  0
  186.6820  178.0420  143.0940 C   0  0  0  0  0  0  0  0  0  0  0  0
  189.0490  177.6110  142.8110 N   0  0  0  0  0  0  0  0  0  0  0  0
  185.7300  177.9540  145.3180 C   0  0  0  0  0  3  0  0  0  0  0  0
  189.1440  178.0130  139.4000 C   0  0  0  0  0  0  0  0  0  0  0  0
  185.5570  178.1680  143.9440 C   0  0  0  0  0  0  0  0  0  0  0  0
  188.1060  177.4960  145.0400 C   0  0  0  0  0  0  0  0  0  0  0  0
  187.6630  178.1030  140.9630 C   0  0  0  0  0  0  0  0  0  0  0  0
  187.9680  177.7080  143.6470 C   0  0  0  0  0  0  0  0  0  0  0  0
  189.8270  177.7480  140.5430 N   0  0  0  0  0  0  0  0  0  0  0  0
  186.9730  177.6280  145.8510 C   0  0  0  0  0  3  0  0  0  0  0  0
  187.7800  178.2530  139.6030 C   0  0  0  0  0  2  0  0  0  0  0  0
  188.8760  177.8090  141.4840 C   0  0  0  0  0  0  0  0  0  0  0  0
  189.5120  177.1290  147.0880 C   0  0  0  0  0  3  0  0  0  0  0  0
  191.8010  176.4090  146.9090 C   0  0  0  0  0  3  0  0  0  0  0  0
  191.6850  176.4060  145.5550 N   0  0  0  0  0  0  0  0  0  0  0  0
  190.5230  176.7530  144.9380 C   0  0  0  0  0  3  0  0  0  0  0  0
  189.3990  177.1330  145.6880 C   0  0  0  0  0  0  0  0  0  0  0  0
  190.7110  176.7710  147.7020 C   0  0  0  0  0  3  0  0  0  0  0  0
  181.6810  179.1270  142.4910 N   0  0  0  0  0  0  0  0  0  0  0  0
  184.1950  178.5260  143.4530 C   0  0  0  0  0  0  0  0  0  0  0  0
  183.8660  178.3590  142.1010 C   0  0  0  0  0  3  0  0  0  0  0  0
  182.6180  178.6670  141.6610 N   0  0  0  0  0  0  0  0  0  0  0  0
  181.9360  179.3050  143.8130 C   0  0  0  0  0  3  0  0  0  0  0  0
  183.2000  179.0030  144.3130 C   0  0  0  0  0  3  0  0  0  0  0  0
  189.0200  179.0030  137.1510 C   0  0  0  0  0  1  0  0  0  0  0  0
  189.8050  178.0860  138.0670 C   0  0  0  0  0  2  0  0  0  0  0  0
  1  2  1  0  0  0  0
  2  9  2  0  0  0  0
  2  6  1  0  0  0  0
  3  9  1  0  0  0  0
  4 11  1  0  0  0  0
  5 12  1  0  0  0  0
  5 10  2  0  0  0  0
  6  4  2  0  0  0  0
  7 18  1  0  0  0  0
  7 11  2  0  0  0  0
  8 13  1  0  0  0  0
  8  1  2  0  0  0  0
  9  7  1  0  0  0  0
 10 13  1  0  0  0  0
 12  8  1  0  0  0  0
 13  3  2  0  0  0  0
 14 19  1  0  0  0  0
 15 19  2  0  0  0  0
 16 15  1  0  0  0  0
 17 16  2  0  0  0  0
 17 18  1  0  0  0  0
 18 14  2  0  0  0  0
 20 24  1  0  0  0  0
 21  6  1  0  0  0  0
 21 25  1  0  0  0  0
 22 21  2  0  0  0  0
 23 22  1  0  0  0  0
 23 20  2  0  0  0  0
 24 25  2  0  0  0  0
 26 27  1  0  0  0  0
 27  5  1  0  0  0  0
M  END
>  <MODEL>
4

>  <REMARK>
 VINA RESULT:     -10.1      0.843      6.137
  Name = 
  3 active torsions:
  status: ('A' for Active; 'I' for Inactive)
    1  A    between atoms: C_9  and  C_15
    2  A    between atoms: C_13  and  C_22
    3  A    between atoms: C_14  and  C_17
                            x       y       z     vdW  Elec       q    Type
                         _______ _______ _______ _____ _____    ______ ____

>  <TORSDO>
F 3

$$$$
=
 OpenBabel10262420153D

 27 31  0  0  0  0  0  0  0  0999 V2000
  190.8720  177.0410  142.8720 N   0  0  0  0  0  0  0  0  0  0  0  0
  189.7980  177.3880  142.0970 C   0  0  0  0  0  0  0  0  0  0  0  0
  188.4630  177.6530  144.1000 N   0  0  0  0  0  0  0  0  0  0  0  0
  188.7720  177.7830  139.9410 C   0  0  0  0  0  3  0  0  0  0  0  0
  190.9260  176.8520  146.3570 C   0  0  0  0  0  0  0  0  0  0  0  0
  189.9080  177.4410  140.6860 C   0  0  0  0  0  0  0  0  0  0  0  0
  187.4160  178.0300  141.9480 C   0  0  0  0  0  0  0  0  0  0  0  0
  190.7320  177.0090  144.2160 C   0  0  0  0  0  0  0  0  0  0  0  0
  188.5430  177.6900  142.7330 C   0  0  0  0  0  0  0  0  0  0  0  0
  189.6390  177.2310  146.1510 N   0  0  0  0  0  0  0  0  0  0  0  0
  187.5590  178.0730  140.5570 C   0  0  0  0  0  3  0  0  0  0  0  0
  191.6640  176.7050  145.1770 C   0  0  0  0  0  2  0  0  0  0  0  0
  189.5580  177.3120  144.8160 C   0  0  0  0  0  0  0  0  0  0  0  0
  185.8890  178.3170  143.9210 C   0  0  0  0  0  3  0  0  0  0  0  0
  183.5920  178.9710  143.6280 C   0  0  0  0  0  3  0  0  0  0  0  0
  183.7820  179.0030  142.2830 N   0  0  0  0  0  0  0  0  0  0  0  0
  184.9860  178.7030  141.7250 C   0  0  0  0  0  3  0  0  0  0  0  0
  186.0780  178.3420  142.5290 C   0  0  0  0  0  0  0  0  0  0  0  0
  184.6470  178.6280  144.4740 C   0  0  0  0  0  3  0  0  0  0  0  0
  193.5530  176.6180  138.6640 N   0  0  0  0  0  0  0  0  0  0  0  0
  191.1740  177.1570  139.9520 C   0  0  0  0  0  0  0  0  0  0  0  0
  192.4090  177.5030  140.5150 C   0  0  0  0  0  3  0  0  0  0  0  0
  193.5620  177.2260  139.8520 N   0  0  0  0  0  0  0  0  0  0  0  0
  192.3890  176.2520  138.0690 C   0  0  0  0  0  3  0  0  0  0  0  0
  191.1810  176.5140  138.7090 C   0  0  0  0  0  3  0  0  0  0  0  0
  192.6080  175.6280  147.6710 C   0  0  0  0  0  1  0  0  0  0  0  0
  191.5000  176.6610  147.7180 C   0  0  0  0  0  2  0  0  0  0  0  0
  1  8  2  0  0  0  0
  2  9  1  0  0  0  0
  2  1  1  0  0  0  0
  3 13  2  0  0  0  0
  4 11  2  0  0  0  0
  4  6  1  0  0  0  0
  5 27  1  0  0  0  0
  6  2  2  0  0  0  0
  7 18  1  0  0  0  0
  7  9  2  0  0  0  0
  8 13  1  0  0  0  0
  8 12  1  0  0  0  0
  9  3  1  0  0  0  0
 10  5  2  0  0  0  0
 11  7  1  0  0  0  0
 12  5  1  0  0  0  0
 13 10  1  0  0  0  0
 14 19  1  0  0  0  0
 15 19  2  0  0  0  0
 16 15  1  0  0  0  0
 17 16  2  0  0  0  0
 17 18  1  0  0  0  0
 18 14  2  0  0  0  0
 20 23  1  0  0  0  0
 21 22  1  0  0  0  0
 21  6  1  0  0  0  0
 23 22  2  0  0  0  0
 24 20  2  0  0  0  0
 24 25  1  0  0  0  0
 25 21  2  0  0  0  0
 26 27  1  0  0  0  0
M  END
>  <MODEL>
5

>  <REMARK>
 VINA RESULT:      -9.7      2.183      5.680
  Name = 
  3 active torsions:
  status: ('A' for Active; 'I' for Inactive)
    1  A    between atoms: C_9  and  C_15
    2  A    between atoms: C_13  and  C_22
    3  A    between atoms: C_14  and  C_17
                            x       y       z     vdW  Elec       q    Type
                         _______ _______ _______ _____ _____    ______ ____

>  <TORSDO>
F 3

$$$$
=
 OpenBabel10262420153D

 27 31  0  0  0  0  0  0  0  0999 V2000
  188.2510  177.6820  145.1470 N   0  0  0  0  0  0  0  0  0  0  0  0
  188.1220  177.7420  143.7860 C   0  0  0  0  0  0  0  0  0  0  0  0
  190.4410  177.0800  143.5580 N   0  0  0  0  0  0  0  0  0  0  0  0
  186.8200  178.1630  141.7900 C   0  0  0  0  0  3  0  0  0  0  0  0
  191.1310  176.8050  146.9130 C   0  0  0  0  0  0  0  0  0  0  0  0
  186.8900  178.1000  143.1870 C   0  0  0  0  0  0  0  0  0  0  0  0
  189.1570  177.5200  141.5510 C   0  0  0  0  0  0  0  0  0  0  0  0
  189.4400  177.3280  145.6830 C   0  0  0  0  0  0  0  0  0  0  0  0
  189.2630  177.4450  142.9610 C   0  0  0  0  0  0  0  0  0  0  0  0
  191.5810  176.6930  145.6360 N   0  0  0  0  0  0  0  0  0  0  0  0
  187.9250  177.8790  140.9930 C   0  0  0  0  0  3  0  0  0  0  0  0
  189.7890  177.1930  147.0030 C   0  0  0  0  0  2  0  0  0  0  0  0
  190.5080  177.0290  144.9080 C   0  0  0  0  0  0  0  0  0  0  0  0
  190.0540  176.7390  139.3400 C   0  0  0  0  0  3  0  0  0  0  0  0
  192.4160  176.7650  138.8800 C   0  0  0  0  0  3  0  0  0  0  0  0
  192.6440  177.2600  140.1240 N   0  0  0  0  0  0  0  0  0  0  0  0
  191.6260  177.5030  140.9930 C   0  0  0  0  0  3  0  0  0  0  0  0
  190.2950  177.2420  140.6290 C   0  0  0  0  0  0  0  0  0  0  0  0
  191.1110  176.4960  138.4640 C   0  0  0  0  0  3  0  0  0  0  0  0
  183.4250  179.0180  145.4690 N   0  0  0  0  0  0  0  0  0  0  0  0
  185.6580  178.4080  143.9700 C   0  0  0  0  0  0  0  0  0  0  0  0
  185.7180  178.5180  145.3650 C   0  0  0  0  0  3  0  0  0  0  0  0
  184.5970  178.8170  146.0730 N   0  0  0  0  0  0  0  0  0  0  0  0
  183.3040  178.9320  144.1190 C   0  0  0  0  0  3  0  0  0  0  0  0
  184.4230  178.6280  143.3490 C   0  0  0  0  0  3  0  0  0  0  0  0
  192.8090  175.2530  147.8240 C   0  0  0  0  0  1  0  0  0  0  0  0
  191.9820  176.4940  148.0950 C   0  0  0  0  0  2  0  0  0  0  0  0
  1  8  2  0  0  0  0
  2  1  1  0  0  0  0
  3 13  2  0  0  0  0
  4  6  2  0  0  0  0
  5 12  1  0  0  0  0
  5 27  1  0  0  0  0
  6  2  1  0  0  0  0
  6 21  1  0  0  0  0
  7  9  1  0  0  0  0
  8 12  1  0  0  0  0
  9  3  1  0  0  0  0
  9  2  2  0  0  0  0
 10  5  2  0  0  0  0
 11  7  2  0  0  0  0
 11  4  1  0  0  0  0
 13 10  1  0  0  0  0
 13  8  1  0  0  0  0
 14 18  1  0  0  0  0
 15 16  2  0  0  0  0
 16 17  1  0  0  0  0
 18 17  2  0  0  0  0
 18  7  1  0  0  0  0
 19 15  1  0  0  0  0
 19 14  2  0  0  0  0
 20 23  1  0  0  0  0
 21 22  1  0  0  0  0
 22 23  2  0  0  0  0
 24 20  2  0  0  0  0
 25 21  2  0  0  0  0
 25 24  1  0  0  0  0
 26 27  1  0  0  0  0
M  END
>  <MODEL>
6

>  <REMARK>
 VINA RESULT:      -9.6      2.060      7.172
  Name = 
  3 active torsions:
  status: ('A' for Active; 'I' for Inactive)
    1  A    between atoms: C_9  and  C_15
    2  A    between atoms: C_13  and  C_22
    3  A    between atoms: C_14  and  C_17
                            x       y       z     vdW  Elec       q    Type
                         _______ _______ _______ _____ _____    ______ ____

>  <TORSDO>
F 3

$$$$
=
 OpenBabel10262420153D

 27 31  0  0  0  0  0  0  0  0999 V2000
  187.5830  178.1960  143.3510 N   0  0  0  0  0  0  0  0  0  0  0  0
  186.3480  178.2760  143.9370 C   0  0  0  0  0  0  0  0  0  0  0  0
  185.3560  178.6310  141.7560 N   0  0  0  0  0  0  0  0  0  0  0  0
  184.9150  178.2440  145.8880 C   0  0  0  0  0  3  0  0  0  0  0  0
  188.2680  178.4690  139.9390 C   0  0  0  0  0  0  0  0  0  0  0  0
  186.1990  178.1350  145.3390 C   0  0  0  0  0  0  0  0  0  0  0  0
  183.9120  178.6240  143.7010 C   0  0  0  0  0  0  0  0  0  0  0  0
  187.6850  178.3280  142.0090 C   0  0  0  0  0  0  0  0  0  0  0  0
  185.1950  178.5180  143.1120 C   0  0  0  0  0  0  0  0  0  0  0  0
  186.9190  178.6240  139.9330 N   0  0  0  0  0  0  0  0  0  0  0  0
  183.8010  178.4800  145.0890 C   0  0  0  0  0  3  0  0  0  0  0  0
  188.8040  178.2720  141.2170 C   0  0  0  0  0  2  0  0  0  0  0  0
  186.5980  178.5350  141.2300 C   0  0  0  0  0  0  0  0  0  0  0  0
  181.5470  179.4530  143.5420 C   0  0  0  0  0  3  0  0  0  0  0  0
  180.3610  179.4270  141.4490 C   0  0  0  0  0  3  0  0  0  0  0  0
  181.4530  178.8880  140.8470 N   0  0  0  0  0  0  0  0  0  0  0  0
  182.5910  178.6190  141.5420 C   0  0  0  0  0  3  0  0  0  0  0  0
  182.6710  178.8870  142.9180 C   0  0  0  0  0  0  0  0  0  0  0  0
  180.3890  179.7220  142.8130 C   0  0  0  0  0  3  0  0  0  0  0  0
  189.5020  177.3910  147.9060 N   0  0  0  0  0  0  0  0  0  0  0  0
  187.3400  177.8690  146.2610 C   0  0  0  0  0  0  0  0  0  0  0  0
  188.5110  177.2680  145.7800 C   0  0  0  0  0  3  0  0  0  0  0  0
  189.5560  177.0440  146.6190 N   0  0  0  0  0  0  0  0  0  0  0  0
  188.3990  177.9820  148.4310 C   0  0  0  0  0  3  0  0  0  0  0  0
  187.3010  178.2330  147.6120 C   0  0  0  0  0  3  0  0  0  0  0  0
  190.1430  177.3850  138.7720 C   0  0  0  0  0  1  0  0  0  0  0  0
  189.0830  178.4650  138.6930 C   0  0  0  0  0  2  0  0  0  0  0  0
  1  2  1  0  0  0  0
  2  6  1  0  0  0  0
  3  9  1  0  0  0  0
  5 12  1  0  0  0  0
  6  4  2  0  0  0  0
  6 21  1  0  0  0  0
  7 11  2  0  0  0  0
  8  1  2  0  0  0  0
  9  7  1  0  0  0  0
  9  2  2  0  0  0  0
 10  5  2  0  0  0  0
 10 13  1  0  0  0  0
 11  4  1  0  0  0  0
 12  8  1  0  0  0  0
 13  3  2  0  0  0  0
 13  8  1  0  0  0  0
 15 19  1  0  0  0  0
 16 15  2  0  0  0  0
 16 17  1  0  0  0  0
 17 18  2  0  0  0  0
 18 14  1  0  0  0  0
 18  7  1  0  0  0  0
 19 14  2  0  0  0  0
 20 24  1  0  0  0  0
 21 25  1  0  0  0  0
 22 21  2  0  0  0  0
 22 23  1  0  0  0  0
 23 20  2  0  0  0  0
 25 24  2  0  0  0  0
 27 26  1  0  0  0  0
 27  5  1  0  0  0  0
M  END
>  <MODEL>
7

>  <REMARK>
 VINA RESULT:      -9.5      1.387      2.069
  Name = 
  3 active torsions:
  status: ('A' for Active; 'I' for Inactive)
    1  A    between atoms: C_9  and  C_15
    2  A    between atoms: C_13  and  C_22
    3  A    between atoms: C_14  and  C_17
                            x       y       z     vdW  Elec       q    Type
                         _______ _______ _______ _____ _____    ______ ____

>  <TORSDO>
F 3

$$$$
=
 OpenBabel10262420153D

 27 31  0  0  0  0  0  0  0  0999 V2000
  185.9910  178.1470  144.1700 N   0  0  0  0  0  0  0  0  0  0  0  0
  187.0890  178.0570  143.3580 C   0  0  0  0  0  0  0  0  0  0  0  0
  185.6950  178.5820  141.4480 N   0  0  0  0  0  0  0  0  0  0  0  0
  189.4510  177.6530  143.0130 C   0  0  0  0  0  3  0  0  0  0  0  0
  182.7370  178.9110  143.1650 C   0  0  0  0  0  0  0  0  0  0  0  0
  188.3640  177.7510  143.8920 C   0  0  0  0  0  0  0  0  0  0  0  0
  188.0520  178.1580  141.0830 C   0  0  0  0  0  0  0  0  0  0  0  0
  184.7910  178.4490  143.6260 C   0  0  0  0  0  0  0  0  0  0  0  0
  186.9330  178.2670  141.9430 C   0  0  0  0  0  0  0  0  0  0  0  0
  183.3820  178.9620  141.9710 N   0  0  0  0  0  0  0  0  0  0  0  0
  189.2980  177.8540  141.6440 C   0  0  0  0  0  3  0  0  0  0  0  0
  183.5740  178.6010  144.2430 C   0  0  0  0  0  2  0  0  0  0  0  0
  184.6470  178.6660  142.2980 C   0  0  0  0  0  0  0  0  0  0  0  0
  189.1310  178.6190  138.8640 C   0  0  0  0  0  3  0  0  0  0  0  0
  187.8350  178.6520  136.8370 C   0  0  0  0  0  3  0  0  0  0  0  0
  186.7160  178.3790  137.5580 N   0  0  0  0  0  0  0  0  0  0  0  0
  186.7590  178.2230  138.9090 C   0  0  0  0  0  3  0  0  0  0  0  0
  187.9710  178.3460  139.6060 C   0  0  0  0  0  0  0  0  0  0  0  0
  189.0670  178.7760  137.4790 C   0  0  0  0  0  3  0  0  0  0  0  0
  189.1480  177.1620  148.0260 N   0  0  0  0  0  0  0  0  0  0  0  0
  188.6130  177.5350  145.3460 C   0  0  0  0  0  0  0  0  0  0  0  0
  189.8770  177.1270  145.7940 C   0  0  0  0  0  3  0  0  0  0  0  0
  190.1050  176.9500  147.1210 N   0  0  0  0  0  0  0  0  0  0  0  0
  187.9050  177.5640  147.6570 C   0  0  0  0  0  3  0  0  0  0  0  0
  187.6210  177.7590  146.3080 C   0  0  0  0  0  3  0  0  0  0  0  0
  180.5370  178.7280  142.0780 C   0  0  0  0  0  1  0  0  0  0  0  0
  181.2840  179.2070  143.3070 C   0  0  0  0  0  2  0  0  0  0  0  0
  2  6  1  0  0  0  0
  2  1  1  0  0  0  0
  3  9  1  0  0  0  0
  3 13  2  0  0  0  0
  4  6  2  0  0  0  0
  5 27  1  0  0  0  0
  5 12  1  0  0  0  0
  6 21  1  0  0  0  0
  7 11  2  0  0  0  0
  7  9  1  0  0  0  0
  8  1  2  0  0  0  0
  8 12  1  0  0  0  0
  9  2  2  0  0  0  0
 10 13  1  0  0  0  0
 10  5  2  0  0  0  0
 11  4  1  0  0  0  0
 13  8  1  0  0  0  0
 14 18  1  0  0  0  0
 15 19  1  0  0  0  0
 15 16  2  0  0  0  0
 16 17  1  0  0  0  0
 17 18  2  0  0  0  0
 18  7  1  0  0  0  0
 19 14  2  0  0  0  0
 21 22  2  0  0  0  0
 21 25  1  0  0  0  0
 22 23  1  0  0  0  0
 23 20  2  0  0  0  0
 24 20  1  0  0  0  0
 25 24  2  0  0  0  0
 26 27  1  0  0  0  0
M  END
>  <MODEL>
8

>  <REMARK>
 VINA RESULT:      -9.3      1.246      5.371
  Name = 
  3 active torsions:
  status: ('A' for Active; 'I' for Inactive)
    1  A    between atoms: C_9  and  C_15
    2  A    between atoms: C_13  and  C_22
    3  A    between atoms: C_14  and  C_17
                            x       y       z     vdW  Elec       q    Type
                         _______ _______ _______ _____ _____    ______ ____

>  <TORSDO>
F 3

$$$$
=
 OpenBabel10262420153D

 27 31  0  0  0  0  0  0  0  0999 V2000
  187.2660  177.9150  141.0770 N   0  0  0  0  0  0  0  0  0  0  0  0
  186.6120  178.0450  142.2730 C   0  0  0  0  0  0  0  0  0  0  0  0
  188.7130  177.7180  143.4330 N   0  0  0  0  0  0  0  0  0  0  0  0
  184.5960  178.3870  143.5670 C   0  0  0  0  0  3  0  0  0  0  0  0
  190.6850  177.3630  140.6420 C   0  0  0  0  0  0  0  0  0  0  0  0
  185.2170  178.2810  142.3160 C   0  0  0  0  0  0  0  0  0  0  0  0
  186.7000  178.0370  144.7430 C   0  0  0  0  0  0  0  0  0  0  0  0
  188.6000  177.6980  141.0740 C   0  0  0  0  0  0  0  0  0  0  0  0
  187.3600  177.9260  143.4960 C   0  0  0  0  0  0  0  0  0  0  0  0
  190.6120  177.4030  141.9970 N   0  0  0  0  0  0  0  0  0  0  0  0
  185.3200  178.2700  144.7500 C   0  0  0  0  0  3  0  0  0  0  0  0
  189.4510  177.5510  140.0070 C   0  0  0  0  0  2  0  0  0  0  0  0
  189.3070  177.6070  142.2240 C   0  0  0  0  0  0  0  0  0  0  0  0
  188.7030  177.3890  146.1130 C   0  0  0  0  0  3  0  0  0  0  0  0
  188.7360  177.7190  148.4960 C   0  0  0  0  0  3  0  0  0  0  0  0
  187.4790  178.2330  148.4330 N   0  0  0  0  0  0  0  0  0  0  0  0
  186.8100  178.3390  147.2540 C   0  0  0  0  0  3  0  0  0  0  0  0
  187.4000  177.9120  146.0540 C   0  0  0  0  0  0  0  0  0  0  0  0
  189.3730  177.2880  147.3320 C   0  0  0  0  0  3  0  0  0  0  0  0
  182.8790  178.7290  138.7960 N   0  0  0  0  0  0  0  0  0  0  0  0
  184.3730  178.4310  141.0960 C   0  0  0  0  0  0  0  0  0  0  0  0
  184.6740  179.4160  140.1460 C   0  0  0  0  0  3  0  0  0  0  0  0
  183.9150  179.5370  139.0250 N   0  0  0  0  0  0  0  0  0  0  0  0
  182.5390  177.7510  139.6750 C   0  0  0  0  0  3  0  0  0  0  0  0
  183.2870  177.5870  140.8390 C   0  0  0  0  0  3  0  0  0  0  0  0
  191.7060  176.5850  138.5430 C   0  0  0  0  0  1  0  0  0  0  0  0
  191.9700  177.1830  139.9110 C   0  0  0  0  0  2  0  0  0  0  0  0
  1  2  1  0  0  0  0
  2  6  2  0  0  0  0
  2  9  1  0  0  0  0
  3  9  1  0  0  0  0
  4 11  2  0  0  0  0
  5 10  2  0  0  0  0
  6  4  1  0  0  0  0
  7 11  1  0  0  0  0
  7 18  1  0  0  0  0
  8  1  2  0  0  0  0
  8 13  1  0  0  0  0
  9  7  2  0  0  0  0
 10 13  1  0  0  0  0
 12  5  1  0  0  0  0
 12  8  1  0  0  0  0
 13  3  2  0  0  0  0
 14 19  1  0  0  0  0
 16 15  1  0  0  0  0
 17 16  2  0  0  0  0
 18 14  2  0  0  0  0
 18 17  1  0  0  0  0
 19 15  2  0  0  0  0
 20 23  2  0  0  0  0
 20 24  1  0  0  0  0
 21  6  1  0  0  0  0
 22 21  2  0  0  0  0
 23 22  1  0  0  0  0
 24 25  2  0  0  0  0
 25 21  1  0  0  0  0
 26 27  1  0  0  0  0
 27  5  1  0  0  0  0
M  END
>  <MODEL>
9

>  <REMARK>
 VINA RESULT:      -9.3      1.984      6.130
  Name = 
  3 active torsions:
  status: ('A' for Active; 'I' for Inactive)
    1  A    between atoms: C_9  and  C_15
    2  A    between atoms: C_13  and  C_22
    3  A    between atoms: C_14  and  C_17
                            x       y       z     vdW  Elec       q    Type
                         _______ _______ _______ _____ _____    ______ ____

>  <TORSDO>
F 3

$$$$
