=
 OpenBabel10262423243D

 34 39  0  0  0  0  0  0  0  0999 V2000
  187.0780  178.2250  142.9060 C   0  0  0  0  0  0  0  0  0  0  0  0
  184.1940  178.3870  145.3570 C   0  0  0  0  0  3  0  0  0  0  0  0
  186.4590  177.8970  145.6440 C   0  0  0  0  0  3  0  0  0  0  0  0
  188.6260  178.9340  141.2180 O   0  0  0  0  0  0  0  0  0  0  0  0
  187.4210  178.2600  141.4400 C   0  0  0  0  0  2  0  0  0  0  0  0
  189.4220  177.6600  143.7540 C   0  0  0  0  0  0  0  0  0  0  0  0
  189.9220  177.3670  144.9760 N   0  0  0  0  0  0  0  0  0  0  0  0
  190.3210  177.8430  142.5640 C   0  0  0  0  0  2  0  0  0  0  0  0
  189.5870  177.9790  141.3100 N   0  0  0  0  0  0  0  0  0  0  0  0
  187.7460  177.7260  145.1670 C   0  0  0  0  0  0  0  0  0  0  0  0
  188.0570  177.8890  143.8520 C   0  0  0  0  0  0  0  0  0  0  0  0
  188.8920  177.3980  145.8540 C   0  0  0  0  0  3  0  0  0  0  0  0
  182.9500  178.7070  144.8360 C   0  0  0  0  0  3  0  0  0  0  0  0
  182.5840  178.9800  143.5270 C   0  0  0  0  0  0  0  0  0  0  0  0
  183.4350  178.9860  142.4350 C   0  0  0  0  0  3  0  0  0  0  0  0
  185.4350  178.2440  144.7480 C   0  0  0  0  0  0  0  0  0  0  0  0
  184.7960  178.7360  142.3700 C   0  0  0  0  0  3  0  0  0  0  0  0
  185.7330  178.4080  143.3550 C   0  0  0  0  0  0  0  0  0  0  0  0
  189.5200  176.0730  138.0830 C   0  0  0  0  0  3  0  0  0  0  0  0
  191.4060  177.1410  139.8580 C   0  0  0  0  0  3  0  0  0  0  0  0
  192.6810  175.1030  136.4000 C   0  0  0  0  0  0  0  0  0  0  0  0
  191.3110  175.2530  136.6730 C   0  0  0  0  0  3  0  0  0  0  0  0
  190.8830  175.9270  137.8180 C   0  0  0  0  0  0  0  0  0  0  0  0
  193.1960  176.3200  138.4490 C   0  0  0  0  0  3  0  0  0  0  0  0
  191.8330  176.4650  138.7130 C   0  0  0  0  0  0  0  0  0  0  0  0
  193.6170  175.6440  137.3010 C   0  0  0  0  0  3  0  0  0  0  0  0
  190.0350  177.2900  140.1280 C   0  0  0  0  0  0  0  0  0  0  0  0
  189.0990  176.7490  139.2310 C   0  0  0  0  0  3  0  0  0  0  0  0
  193.1200  174.4070  135.2190 N   0  0  0  0  0  0  0  0  0  0  0  0
  194.4080  174.6980  134.6070 C   0  0  0  0  0  1  0  0  0  0  0  0
  192.2930  173.3870  134.5940 C   0  0  0  0  0  1  0  0  0  0  0  0
  181.1510  179.2980  143.2480 C   0  0  0  0  0  3  0  0  0  0  0  0
  180.3140  178.4540  143.9800 O   0  0  0  0  0  1  0  0  0  0  0  0
  180.8790  179.1670  141.8860 O   0  0  0  0  0  1  0  0  0  0  0  0
  1 18  2  0  0  0  0
  1 11  1  0  0  0  0
  4  9  1  0  0  0  0
  4  5  1  0  0  0  0
  5  1  1  0  0  0  0
  6 11  2  0  0  0  0
  6  7  1  0  0  0  0
  7 12  2  0  0  0  0
  8  6  1  0  0  0  0
  9  8  1  0  0  0  0
 10  3  2  0  0  0  0
 10 12  1  0  0  0  0
 11 10  1  0  0  0  0
 13  2  1  0  0  0  0
 14 13  2  0  0  0  0
 15 14  1  0  0  0  0
 16  2  2  0  0  0  0
 16  3  1  0  0  0  0
 17 15  2  0  0  0  0
 17 18  1  0  0  0  0
 18 16  1  0  0  0  0
 19 28  1  0  0  0  0
 20 27  1  0  0  0  0
 21 22  2  0  0  0  0
 21 26  1  0  0  0  0
 22 23  1  0  0  0  0
 23 19  2  0  0  0  0
 23 25  1  0  0  0  0
 24 25  1  0  0  0  0
 25 20  2  0  0  0  0
 26 24  2  0  0  0  0
 27  9  1  0  0  0  0
 28 27  2  0  0  0  0
 29 21  1  0  0  0  0
 30 29  1  0  0  0  0
 31 29  1  0  0  0  0
 32 14  1  0  0  0  0
 32 33  1  0  0  0  0
 34 32  1  0  0  0  0
M  END
>  <MODEL>
1

>  <REMARK>
 VINA RESULT:     -10.1      0.000      0.000
  Name = 
  3 active torsions:
  status: ('A' for Active; 'I' for Inactive)
    1  A    between atoms: C_3  and  C_25
    2  A    between atoms: C_7  and  N_11
    3  A    between atoms: N_18  and  C_30
                            x       y       z     vdW  Elec       q    Type
                         _______ _______ _______ _____ _____    ______ ____

>  <TORSDO>
F 3

$$$$
=
 OpenBabel10262423243D

 34 39  0  0  0  0  0  0  0  0999 V2000
  189.1180  177.7660  142.0200 C   0  0  0  0  0  0  0  0  0  0  0  0
  190.9580  177.0320  145.2500 C   0  0  0  0  0  3  0  0  0  0  0  0
  191.6580  177.0370  143.0220 C   0  0  0  0  0  3  0  0  0  0  0  0
  187.8100  178.9680  140.4110 O   0  0  0  0  0  0  0  0  0  0  0  0
  187.7530  178.0230  141.4400 C   0  0  0  0  0  2  0  0  0  0  0  0
  190.3790  177.6590  139.8000 C   0  0  0  0  0  0  0  0  0  0  0  0
  191.6580  177.3650  139.4710 N   0  0  0  0  0  0  0  0  0  0  0  0
  189.4010  178.1560  138.7730 C   0  0  0  0  0  2  0  0  0  0  0  0
  188.0370  178.2480  139.2830 N   0  0  0  0  0  0  0  0  0  0  0  0
  191.4360  177.2070  141.6680 C   0  0  0  0  0  0  0  0  0  0  0  0
  190.2180  177.5660  141.1750 C   0  0  0  0  0  0  0  0  0  0  0  0
  192.3160  177.0770  140.6180 C   0  0  0  0  0  3  0  0  0  0  0  0
  190.2210  177.1160  146.4200 C   0  0  0  0  0  3  0  0  0  0  0  0
  188.8830  177.4300  146.6010 C   0  0  0  0  0  0  0  0  0  0  0  0
  187.9820  177.7340  145.5960 C   0  0  0  0  0  3  0  0  0  0  0  0
  190.5980  177.2330  143.9230 C   0  0  0  0  0  0  0  0  0  0  0  0
  188.1720  177.8040  144.2250 C   0  0  0  0  0  3  0  0  0  0  0  0
  189.3030  177.5970  143.4280 C   0  0  0  0  0  0  0  0  0  0  0  0
  186.0710  176.4150  136.6700 C   0  0  0  0  0  3  0  0  0  0  0  0
  185.6350  178.3020  138.6940 C   0  0  0  0  0  3  0  0  0  0  0  0
  182.4220  176.9830  136.3120 C   0  0  0  0  0  0  0  0  0  0  0  0
  183.7170  176.4820  136.0990 C   0  0  0  0  0  3  0  0  0  0  0  0
  184.7860  176.9170  136.8860 C   0  0  0  0  0  0  0  0  0  0  0  0
  183.2820  178.3710  138.1220 C   0  0  0  0  0  3  0  0  0  0  0  0
  184.5670  177.8680  137.9060 C   0  0  0  0  0  0  0  0  0  0  0  0
  182.2180  177.9310  137.3310 C   0  0  0  0  0  3  0  0  0  0  0  0
  186.9290  177.7990  138.4790 C   0  0  0  0  0  0  0  0  0  0  0  0
  187.1350  176.8540  137.4610 C   0  0  0  0  0  3  0  0  0  0  0  0
  181.3210  176.5340  135.4990 N   0  0  0  0  0  0  0  0  0  0  0  0
  180.8720  175.1510  135.5370 C   0  0  0  0  0  1  0  0  0  0  0  0
  180.6180  177.4460  134.6110 C   0  0  0  0  0  1  0  0  0  0  0  0
  188.3450  177.4440  147.9950 C   0  0  0  0  0  3  0  0  0  0  0  0
  187.0570  177.9820  148.0150 O   0  0  0  0  0  1  0  0  0  0  0  0
  189.1800  178.1870  148.8310 O   0  0  0  0  0  1  0  0  0  0  0  0
  1 18  1  0  0  0  0
  2 13  2  0  0  0  0
  3 16  2  0  0  0  0
  4  5  1  0  0  0  0
  5  1  1  0  0  0  0
  6 11  1  0  0  0  0
  7  6  2  0  0  0  0
  7 12  1  0  0  0  0
  8  9  1  0  0  0  0
  8  6  1  0  0  0  0
  9  4  1  0  0  0  0
 10  3  1  0  0  0  0
 11 10  1  0  0  0  0
 11  1  2  0  0  0  0
 12 10  2  0  0  0  0
 13 14  1  0  0  0  0
 14 32  1  0  0  0  0
 15 14  2  0  0  0  0
 16  2  1  0  0  0  0
 17 15  1  0  0  0  0
 18 16  1  0  0  0  0
 18 17  2  0  0  0  0
 19 23  2  0  0  0  0
 19 28  1  0  0  0  0
 21 26  1  0  0  0  0
 22 21  2  0  0  0  0
 22 23  1  0  0  0  0
 23 25  1  0  0  0  0
 25 24  1  0  0  0  0
 25 20  2  0  0  0  0
 26 24  2  0  0  0  0
 27 20  1  0  0  0  0
 27  9  1  0  0  0  0
 28 27  2  0  0  0  0
 29 30  1  0  0  0  0
 29 21  1  0  0  0  0
 31 29  1  0  0  0  0
 32 33  1  0  0  0  0
 32 34  1  0  0  0  0
M  END
>  <MODEL>
2

>  <REMARK>
 VINA RESULT:      -9.6      4.223      7.166
  Name = 
  3 active torsions:
  status: ('A' for Active; 'I' for Inactive)
    1  A    between atoms: C_3  and  C_25
    2  A    between atoms: C_7  and  N_11
    3  A    between atoms: N_18  and  C_30
                            x       y       z     vdW  Elec       q    Type
                         _______ _______ _______ _____ _____    ______ ____

>  <TORSDO>
F 3

$$$$
=
 OpenBabel10262423243D

 34 39  0  0  0  0  0  0  0  0999 V2000
  182.3200  177.1890  139.9350 C   0  0  0  0  0  0  0  0  0  0  0  0
  180.6990  175.2850  137.0880 C   0  0  0  0  0  3  0  0  0  0  0  0
  179.7990  176.3840  138.9430 C   0  0  0  0  0  3  0  0  0  0  0  0
  183.6600  178.8310  141.0550 O   0  0  0  0  0  0  0  0  0  0  0  0
  183.6470  177.5220  140.5640 C   0  0  0  0  0  2  0  0  0  0  0  0
  180.8520  178.2500  141.7380 C   0  0  0  0  0  0  0  0  0  0  0  0
  179.5160  178.2890  141.9440 N   0  0  0  0  0  0  0  0  0  0  0  0
  181.7990  179.0430  142.5940 C   0  0  0  0  0  2  0  0  0  0  0  0
  183.2010  178.7350  142.3290 N   0  0  0  0  0  0  0  0  0  0  0  0
  179.9170  177.1240  140.1050 C   0  0  0  0  0  0  0  0  0  0  0  0
  181.1250  177.5240  140.5880 C   0  0  0  0  0  0  0  0  0  0  0  0
  178.9310  177.5890  140.9450 C   0  0  0  0  0  3  0  0  0  0  0  0
  181.5480  174.7420  136.1390 C   0  0  0  0  0  3  0  0  0  0  0  0
  182.9320  174.7820  136.0650 C   0  0  0  0  0  0  0  0  0  0  0  0
  183.7720  175.4040  136.9720 C   0  0  0  0  0  3  0  0  0  0  0  0
  180.9590  176.0240  138.2360 C   0  0  0  0  0  0  0  0  0  0  0  0
  183.4650  176.1100  138.1240 C   0  0  0  0  0  3  0  0  0  0  0  0
  182.2450  176.4210  138.7320 C   0  0  0  0  0  0  0  0  0  0  0  0
  184.6270  178.7470  145.7960 C   0  0  0  0  0  3  0  0  0  0  0  0
  185.4350  178.1130  143.1900 C   0  0  0  0  0  3  0  0  0  0  0  0
  188.1280  177.6790  146.3980 C   0  0  0  0  0  0  0  0  0  0  0  0
  186.8210  178.1410  146.6250 C   0  0  0  0  0  3  0  0  0  0  0  0
  185.9250  178.2870  145.5640 C   0  0  0  0  0  0  0  0  0  0  0  0
  187.6300  177.5090  144.0180 C   0  0  0  0  0  3  0  0  0  0  0  0
  186.3320  177.9680  144.2510 C   0  0  0  0  0  0  0  0  0  0  0  0
  188.5210  177.3650  145.0850 C   0  0  0  0  0  3  0  0  0  0  0  0
  184.1280  178.5750  143.4190 C   0  0  0  0  0  0  0  0  0  0  0  0
  183.7350  178.8910  144.7300 C   0  0  0  0  0  3  0  0  0  0  0  0
  189.0510  177.5290  147.4930 N   0  0  0  0  0  0  0  0  0  0  0  0
  188.7770  178.1170  148.7950 C   0  0  0  0  0  1  0  0  0  0  0  0
  190.2920  176.7850  147.3380 C   0  0  0  0  0  1  0  0  0  0  0  0
  183.5960  174.0980  134.9130 C   0  0  0  0  0  3  0  0  0  0  0  0
  182.9220  172.9170  134.5940 O   0  0  0  0  0  1  0  0  0  0  0  0
  184.9270  173.8140  135.2170 O   0  0  0  0  0  1  0  0  0  0  0  0
  1  5  1  0  0  0  0
  1 11  1  0  0  0  0
  2 16  2  0  0  0  0
  3 10  2  0  0  0  0
  4  9  1  0  0  0  0
  5  4  1  0  0  0  0
  6  7  1  0  0  0  0
  6  8  1  0  0  0  0
  9  8  1  0  0  0  0
  9 27  1  0  0  0  0
 10 11  1  0  0  0  0
 10 12  1  0  0  0  0
 11  6  2  0  0  0  0
 12  7  2  0  0  0  0
 13  2  1  0  0  0  0
 14 13  2  0  0  0  0
 14 15  1  0  0  0  0
 15 17  2  0  0  0  0
 16 18  1  0  0  0  0
 16  3  1  0  0  0  0
 17 18  1  0  0  0  0
 18  1  2  0  0  0  0
 20 27  2  0  0  0  0
 20 25  1  0  0  0  0
 21 22  1  0  0  0  0
 21 29  1  0  0  0  0
 23 19  1  0  0  0  0
 23 22  2  0  0  0  0
 24 25  2  0  0  0  0
 24 26  1  0  0  0  0
 25 23  1  0  0  0  0
 26 21  2  0  0  0  0
 27 28  1  0  0  0  0
 28 19  2  0  0  0  0
 29 30  1  0  0  0  0
 31 29  1  0  0  0  0
 32 34  1  0  0  0  0
 32 14  1  0  0  0  0
 33 32  1  0  0  0  0
M  END
>  <MODEL>
3

>  <REMARK>
 VINA RESULT:      -9.6      5.390      9.244
  Name = 
  3 active torsions:
  status: ('A' for Active; 'I' for Inactive)
    1  A    between atoms: C_3  and  C_25
    2  A    between atoms: C_7  and  N_11
    3  A    between atoms: N_18  and  C_30
                            x       y       z     vdW  Elec       q    Type
                         _______ _______ _______ _____ _____    ______ ____

>  <TORSDO>
F 3

$$$$
=
 OpenBabel10262423243D

 34 39  0  0  0  0  0  0  0  0999 V2000
  189.5880  177.2870  142.1340 C   0  0  0  0  0  0  0  0  0  0  0  0
  192.8400  177.4080  140.1920 C   0  0  0  0  0  3  0  0  0  0  0  0
  192.3110  178.0010  142.3890 C   0  0  0  0  0  3  0  0  0  0  0  0
  187.6000  176.3800  143.1180 O   0  0  0  0  0  0  0  0  0  0  0  0
  188.1090  177.0440  141.9980 C   0  0  0  0  0  2  0  0  0  0  0  0
  189.5510  178.0400  144.5760 C   0  0  0  0  0  0  0  0  0  0  0  0
  190.4960  178.5260  145.4130 N   0  0  0  0  0  0  0  0  0  0  0  0
  188.1690  177.7080  145.0640 C   0  0  0  0  0  2  0  0  0  0  0  0
  187.2500  177.3660  143.9840 N   0  0  0  0  0  0  0  0  0  0  0  0
  191.4260  178.1360  143.4420 C   0  0  0  0  0  0  0  0  0  0  0  0
  190.1140  177.7880  143.3330 C   0  0  0  0  0  0  0  0  0  0  0  0
  191.6560  178.5960  144.7190 C   0  0  0  0  0  3  0  0  0  0  0  0
  192.7960  176.9770  138.8760 C   0  0  0  0  0  3  0  0  0  0  0  0
  191.7230  176.5010  138.1370 C   0  0  0  0  0  0  0  0  0  0  0  0
  190.4260  176.3580  138.5970 C   0  0  0  0  0  3  0  0  0  0  0  0
  191.8490  177.4940  141.1630 C   0  0  0  0  0  0  0  0  0  0  0  0
  189.8920  176.6350  139.8450 C   0  0  0  0  0  3  0  0  0  0  0  0
  190.4680  177.1340  141.0180 C   0  0  0  0  0  0  0  0  0  0  0  0
  184.0410  178.8910  145.1790 C   0  0  0  0  0  3  0  0  0  0  0  0
  185.1350  177.8780  142.8070 C   0  0  0  0  0  3  0  0  0  0  0  0
  181.2000  179.3790  142.8420 C   0  0  0  0  0  0  0  0  0  0  0  0
  181.9730  179.3820  144.0160 C   0  0  0  0  0  3  0  0  0  0  0  0
  183.2780  178.8850  144.0090 C   0  0  0  0  0  0  0  0  0  0  0  0
  183.0670  178.3670  141.6450 C   0  0  0  0  0  3  0  0  0  0  0  0
  183.8300  178.3740  142.8150 C   0  0  0  0  0  0  0  0  0  0  0  0
  181.7620  178.8660  141.6590 C   0  0  0  0  0  3  0  0  0  0  0  0
  185.9060  177.8830  143.9820 C   0  0  0  0  0  0  0  0  0  0  0  0
  185.3460  178.3930  145.1650 C   0  0  0  0  0  3  0  0  0  0  0  0
  179.8550  179.8910  142.8510 N   0  0  0  0  0  0  0  0  0  0  0  0
  178.9310  179.5650  143.9260 C   0  0  0  0  0  1  0  0  0  0  0  0
  179.3690  180.7530  141.7850 C   0  0  0  0  0  1  0  0  0  0  0  0
  191.9680  176.1040  136.7170 C   0  0  0  0  0  3  0  0  0  0  0  0
  191.4650  174.8240  136.4760 O   0  0  0  0  0  1  0  0  0  0  0  0
  193.3330  176.1370  136.4300 O   0  0  0  0  0  1  0  0  0  0  0  0
  1 11  1  0  0  0  0
  2 16  2  0  0  0  0
  3 10  2  0  0  0  0
  4  9  1  0  0  0  0
  5  1  1  0  0  0  0
  5  4  1  0  0  0  0
  6  8  1  0  0  0  0
  6  7  1  0  0  0  0
  9  8  1  0  0  0  0
 10 12  1  0  0  0  0
 11 10  1  0  0  0  0
 11  6  2  0  0  0  0
 12  7  2  0  0  0  0
 13  2  1  0  0  0  0
 14 15  1  0  0  0  0
 14 13  2  0  0  0  0
 15 17  2  0  0  0  0
 16  3  1  0  0  0  0
 17 18  1  0  0  0  0
 18 16  1  0  0  0  0
 18  1  2  0  0  0  0
 20 25  2  0  0  0  0
 20 27  1  0  0  0  0
 21 29  1  0  0  0  0
 21 22  2  0  0  0  0
 23 22  1  0  0  0  0
 23 19  2  0  0  0  0
 24 26  2  0  0  0  0
 24 25  1  0  0  0  0
 25 23  1  0  0  0  0
 26 21  1  0  0  0  0
 27  9  1  0  0  0  0
 27 28  2  0  0  0  0
 28 19  1  0  0  0  0
 29 30  1  0  0  0  0
 31 29  1  0  0  0  0
 32 14  1  0  0  0  0
 33 32  1  0  0  0  0
 34 32  1  0  0  0  0
M  END
>  <MODEL>
4

>  <REMARK>
 VINA RESULT:      -9.5      3.027      9.647
  Name = 
  3 active torsions:
  status: ('A' for Active; 'I' for Inactive)
    1  A    between atoms: C_3  and  C_25
    2  A    between atoms: C_7  and  N_11
    3  A    between atoms: N_18  and  C_30
                            x       y       z     vdW  Elec       q    Type
                         _______ _______ _______ _____ _____    ______ ____

>  <TORSDO>
F 3

$$$$
=
 OpenBabel10262423243D

 34 39  0  0  0  0  0  0  0  0999 V2000
  183.1670  178.3650  141.1980 C   0  0  0  0  0  0  0  0  0  0  0  0
  180.8560  177.4480  138.3380 C   0  0  0  0  0  3  0  0  0  0  0  0
  180.4450  177.9070  140.5910 C   0  0  0  0  0  3  0  0  0  0  0  0
  184.8210  179.5750  142.4410 O   0  0  0  0  0  0  0  0  0  0  0  0
  184.6150  178.4860  141.5880 C   0  0  0  0  0  2  0  0  0  0  0  0
  182.1880  178.8040  143.5170 C   0  0  0  0  0  0  0  0  0  0  0  0
  180.9300  178.7730  144.0160 N   0  0  0  0  0  0  0  0  0  0  0  0
  183.3450  179.2900  144.3420 C   0  0  0  0  0  2  0  0  0  0  0  0
  184.6350  179.0830  143.6930 N   0  0  0  0  0  0  0  0  0  0  0  0
  180.8540  178.2450  141.8670 C   0  0  0  0  0  0  0  0  0  0  0  0
  182.1620  178.4760  142.1690 C   0  0  0  0  0  0  0  0  0  0  0  0
  180.1010  178.4210  143.0060 C   0  0  0  0  0  3  0  0  0  0  0  0
  181.4470  177.2320  137.1040 C   0  0  0  0  0  3  0  0  0  0  0  0
  182.7840  177.2950  136.7410 C   0  0  0  0  0  0  0  0  0  0  0  0
  183.8360  177.6030  137.5850 C   0  0  0  0  0  3  0  0  0  0  0  0
  181.4020  177.7900  139.5700 C   0  0  0  0  0  0  0  0  0  0  0  0
  183.8280  177.9110  138.9360 C   0  0  0  0  0  3  0  0  0  0  0  0
  182.7870  178.0130  139.8650 C   0  0  0  0  0  0  0  0  0  0  0  0
  186.7550  178.0020  146.5890 C   0  0  0  0  0  3  0  0  0  0  0  0
  186.9560  178.2330  143.8050 C   0  0  0  0  0  3  0  0  0  0  0  0
  190.2290  176.8180  146.0450 C   0  0  0  0  0  0  0  0  0  0  0  0
  189.0310  177.1770  146.6850 C   0  0  0  0  0  3  0  0  0  0  0  0
  187.9430  177.6470  145.9470 C   0  0  0  0  0  0  0  0  0  0  0  0
  189.2320  177.4100  143.9010 C   0  0  0  0  0  3  0  0  0  0  0  0
  188.0440  177.7640  144.5440 C   0  0  0  0  0  0  0  0  0  0  0  0
  190.3160  176.9400  144.6460 C   0  0  0  0  0  3  0  0  0  0  0  0
  185.7590  178.5910  144.4470 C   0  0  0  0  0  0  0  0  0  0  0  0
  185.6710  178.4720  145.8440 C   0  0  0  0  0  3  0  0  0  0  0  0
  191.3500  176.3340  146.8080 N   0  0  0  0  0  0  0  0  0  0  0  0
  192.2010  175.2680  146.3040 C   0  0  0  0  0  1  0  0  0  0  0  0
  191.6730  176.8930  148.1110 C   0  0  0  0  0  1  0  0  0  0  0  0
  183.1420  177.0090  135.3180 C   0  0  0  0  0  3  0  0  0  0  0  0
  182.8270  175.6880  134.9930 O   0  0  0  0  0  1  0  0  0  0  0  0
  184.5020  177.2370  135.1030 O   0  0  0  0  0  1  0  0  0  0  0  0
  1  5  1  0  0  0  0
  1 11  1  0  0  0  0
  2 16  2  0  0  0  0
  3 10  2  0  0  0  0
  4  9  1  0  0  0  0
  5  4  1  0  0  0  0
  6  7  1  0  0  0  0
  6  8  1  0  0  0  0
  9  8  1  0  0  0  0
  9 27  1  0  0  0  0
 10 11  1  0  0  0  0
 10 12  1  0  0  0  0
 11  6  2  0  0  0  0
 12  7  2  0  0  0  0
 13  2  1  0  0  0  0
 14 13  2  0  0  0  0
 14 15  1  0  0  0  0
 15 17  2  0  0  0  0
 16 18  1  0  0  0  0
 16  3  1  0  0  0  0
 17 18  1  0  0  0  0
 18  1  2  0  0  0  0
 20 27  2  0  0  0  0
 20 25  1  0  0  0  0
 21 22  1  0  0  0  0
 21 29  1  0  0  0  0
 23 19  1  0  0  0  0
 23 22  2  0  0  0  0
 24 25  2  0  0  0  0
 24 26  1  0  0  0  0
 25 23  1  0  0  0  0
 26 21  2  0  0  0  0
 27 28  1  0  0  0  0
 28 19  2  0  0  0  0
 29 31  1  0  0  0  0
 30 29  1  0  0  0  0
 32 14  1  0  0  0  0
 33 32  1  0  0  0  0
 34 32  1  0  0  0  0
M  END
>  <MODEL>
5

>  <REMARK>
 VINA RESULT:      -9.3      5.121      7.981
  Name = 
  3 active torsions:
  status: ('A' for Active; 'I' for Inactive)
    1  A    between atoms: C_3  and  C_25
    2  A    between atoms: C_7  and  N_11
    3  A    between atoms: N_18  and  C_30
                            x       y       z     vdW  Elec       q    Type
                         _______ _______ _______ _____ _____    ______ ____

>  <TORSDO>
F 3

$$$$
=
 OpenBabel10262423243D

 34 39  0  0  0  0  0  0  0  0999 V2000
  181.9180  177.4860  140.5760 C   0  0  0  0  0  0  0  0  0  0  0  0
  179.2590  175.9240  138.3730 C   0  0  0  0  0  3  0  0  0  0  0  0
  179.1170  177.2060  140.3210 C   0  0  0  0  0  3  0  0  0  0  0  0
  183.8010  178.8290  141.2040 O   0  0  0  0  0  0  0  0  0  0  0  0
  183.4020  177.5450  140.8200 C   0  0  0  0  0  2  0  0  0  0  0  0
  181.2170  178.8480  142.6220 C   0  0  0  0  0  0  0  0  0  0  0  0
  180.0180  179.1640  143.1620 N   0  0  0  0  0  0  0  0  0  0  0  0
  182.4930  179.4380  143.1520 C   0  0  0  0  0  2  0  0  0  0  0  0
  183.6860  178.8450  142.5570 N   0  0  0  0  0  0  0  0  0  0  0  0
  179.6810  177.9200  141.3620 C   0  0  0  0  0  0  0  0  0  0  0  0
  181.0280  178.0680  141.4910 C   0  0  0  0  0  0  0  0  0  0  0  0
  179.0630  178.5880  142.3940 C   0  0  0  0  0  3  0  0  0  0  0  0
  179.7030  175.2060  137.2750 C   0  0  0  0  0  3  0  0  0  0  0  0
  180.9980  174.9590  136.8450 C   0  0  0  0  0  0  0  0  0  0  0  0
  182.1530  175.4050  137.4630 C   0  0  0  0  0  3  0  0  0  0  0  0
  179.9540  176.6070  139.3650 C   0  0  0  0  0  0  0  0  0  0  0  0
  182.3080  176.1730  138.6060 C   0  0  0  0  0  3  0  0  0  0  0  0
  181.3770  176.7360  139.4860 C   0  0  0  0  0  0  0  0  0  0  0  0
  185.8250  178.3030  145.5880 C   0  0  0  0  0  3  0  0  0  0  0  0
  186.0270  178.0830  142.8020 C   0  0  0  0  0  3  0  0  0  0  0  0
  189.3280  177.1330  145.2380 C   0  0  0  0  0  0  0  0  0  0  0  0
  188.1200  177.5610  145.8140 C   0  0  0  0  0  3  0  0  0  0  0  0
  187.0230  177.8770  145.0100 C   0  0  0  0  0  0  0  0  0  0  0  0
  188.3220  177.3430  143.0280 C   0  0  0  0  0  3  0  0  0  0  0  0
  187.1240  177.7670  143.6060 C   0  0  0  0  0  0  0  0  0  0  0  0
  189.4160  177.0280  143.8390 C   0  0  0  0  0  3  0  0  0  0  0  0
  184.8190  178.5100  143.3800 C   0  0  0  0  0  0  0  0  0  0  0  0
  184.7310  178.6180  144.7780 C   0  0  0  0  0  3  0  0  0  0  0  0
  190.4590  176.8070  146.0690 N   0  0  0  0  0  0  0  0  0  0  0  0
  190.3800  176.9000  147.5180 C   0  0  0  0  0  1  0  0  0  0  0  0
  191.7200  176.3740  145.4900 C   0  0  0  0  0  1  0  0  0  0  0  0
  181.1860  174.1400  135.6100 C   0  0  0  0  0  3  0  0  0  0  0  0
  180.9150  172.7950  135.8700 O   0  0  0  0  0  1  0  0  0  0  0  0
  182.4890  174.2740  135.1300 O   0  0  0  0  0  1  0  0  0  0  0  0
  1  5  1  0  0  0  0
  1 11  1  0  0  0  0
  2 16  2  0  0  0  0
  3 10  2  0  0  0  0
  4  9  1  0  0  0  0
  5  4  1  0  0  0  0
  6  8  1  0  0  0  0
  6  7  1  0  0  0  0
  9  8  1  0  0  0  0
  9 27  1  0  0  0  0
 10 11  1  0  0  0  0
 10 12  1  0  0  0  0
 11  6  2  0  0  0  0
 12  7  2  0  0  0  0
 13  2  1  0  0  0  0
 14 13  2  0  0  0  0
 14 15  1  0  0  0  0
 15 17  2  0  0  0  0
 16 18  1  0  0  0  0
 16  3  1  0  0  0  0
 17 18  1  0  0  0  0
 18  1  2  0  0  0  0
 20 27  2  0  0  0  0
 20 25  1  0  0  0  0
 21 22  1  0  0  0  0
 21 29  1  0  0  0  0
 23 19  1  0  0  0  0
 23 22  2  0  0  0  0
 24 25  2  0  0  0  0
 24 26  1  0  0  0  0
 25 23  1  0  0  0  0
 26 21  2  0  0  0  0
 27 28  1  0  0  0  0
 28 19  2  0  0  0  0
 29 30  1  0  0  0  0
 31 29  1  0  0  0  0
 32 33  1  0  0  0  0
 32 14  1  0  0  0  0
 34 32  1  0  0  0  0
M  END
>  <MODEL>
6

>  <REMARK>
 VINA RESULT:      -9.1      4.897      8.384
  Name = 
  3 active torsions:
  status: ('A' for Active; 'I' for Inactive)
    1  A    between atoms: C_3  and  C_25
    2  A    between atoms: C_7  and  N_11
    3  A    between atoms: N_18  and  C_30
                            x       y       z     vdW  Elec       q    Type
                         _______ _______ _______ _____ _____    ______ ____

>  <TORSDO>
F 3

$$$$
=
 OpenBabel10262423243D

 34 39  0  0  0  0  0  0  0  0999 V2000
  188.0260  177.8380  141.9110 C   0  0  0  0  0  0  0  0  0  0  0  0
  190.3560  176.7840  144.7080 C   0  0  0  0  0  3  0  0  0  0  0  0
  190.5900  176.7450  142.3840 C   0  0  0  0  0  3  0  0  0  0  0  0
  186.6020  179.2450  140.5940 O   0  0  0  0  0  0  0  0  0  0  0  0
  186.6220  178.2920  141.6170 C   0  0  0  0  0  2  0  0  0  0  0  0
  188.7900  177.6120  139.4830 C   0  0  0  0  0  0  0  0  0  0  0  0
  189.9240  177.1550  138.9050 N   0  0  0  0  0  0  0  0  0  0  0  0
  187.7050  178.2620  138.6720 C   0  0  0  0  0  2  0  0  0  0  0  0
  186.4970  178.5280  139.4460 N   0  0  0  0  0  0  0  0  0  0  0  0
  190.1260  176.9760  141.1010 C   0  0  0  0  0  0  0  0  0  0  0  0
  188.8970  177.5090  140.8620 C   0  0  0  0  0  0  0  0  0  0  0  0
  190.7520  176.7520  139.8970 C   0  0  0  0  0  3  0  0  0  0  0  0
  189.8870  176.9400  146.0020 C   0  0  0  0  0  3  0  0  0  0  0  0
  188.6690  177.4290  146.4470 C   0  0  0  0  0  0  0  0  0  0  0  0
  187.6360  177.8780  145.6430 C   0  0  0  0  0  3  0  0  0  0  0  0
  189.7690  177.0630  143.4790 C   0  0  0  0  0  0  0  0  0  0  0  0
  187.5560  177.9530  144.2620 C   0  0  0  0  0  3  0  0  0  0  0  0
  188.4640  177.6120  143.2540 C   0  0  0  0  0  0  0  0  0  0  0  0
  182.8270  178.7750  138.7210 C   0  0  0  0  0  3  0  0  0  0  0  0
  185.0190  177.1990  137.9720 C   0  0  0  0  0  3  0  0  0  0  0  0
  181.2070  176.4100  136.3650 C   0  0  0  0  0  0  0  0  0  0  0  0
  181.3900  177.4620  137.2780 C   0  0  0  0  0  3  0  0  0  0  0  0
  182.6520  177.7280  137.8140 C   0  0  0  0  0  0  0  0  0  0  0  0
  183.5820  175.8860  136.5310 C   0  0  0  0  0  3  0  0  0  0  0  0
  183.7560  176.9340  137.4370 C   0  0  0  0  0  0  0  0  0  0  0  0
  182.3160  175.6270  135.9990 C   0  0  0  0  0  3  0  0  0  0  0  0
  185.1990  178.2530  138.8840 C   0  0  0  0  0  0  0  0  0  0  0  0
  184.0920  179.0350  139.2530 C   0  0  0  0  0  3  0  0  0  0  0  0
  179.9050  176.1370  135.8140 N   0  0  0  0  0  0  0  0  0  0  0  0
  179.3120  177.0120  134.8140 C   0  0  0  0  0  1  0  0  0  0  0  0
  179.1340  174.9790  136.2370 C   0  0  0  0  0  1  0  0  0  0  0  0
  188.4280  177.4840  147.9210 C   0  0  0  0  0  3  0  0  0  0  0  0
  187.1810  178.0500  148.1910 O   0  0  0  0  0  1  0  0  0  0  0  0
  189.4290  178.2260  148.5500 O   0  0  0  0  0  1  0  0  0  0  0  0
  1 18  1  0  0  0  0
  2 13  2  0  0  0  0
  3 16  2  0  0  0  0
  4  5  1  0  0  0  0
  5  1  1  0  0  0  0
  6 11  1  0  0  0  0
  7  6  2  0  0  0  0
  7 12  1  0  0  0  0
  8  9  1  0  0  0  0
  8  6  1  0  0  0  0
  9  4  1  0  0  0  0
 10  3  1  0  0  0  0
 11 10  1  0  0  0  0
 11  1  2  0  0  0  0
 12 10  2  0  0  0  0
 13 14  1  0  0  0  0
 14 32  1  0  0  0  0
 15 14  2  0  0  0  0
 16  2  1  0  0  0  0
 17 15  1  0  0  0  0
 18 16  1  0  0  0  0
 18 17  2  0  0  0  0
 19 28  1  0  0  0  0
 20 27  1  0  0  0  0
 21 22  2  0  0  0  0
 22 23  1  0  0  0  0
 23 19  2  0  0  0  0
 24 25  1  0  0  0  0
 25 23  1  0  0  0  0
 25 20  2  0  0  0  0
 26 21  1  0  0  0  0
 26 24  2  0  0  0  0
 27 28  2  0  0  0  0
 27  9  1  0  0  0  0
 29 31  1  0  0  0  0
 29 21  1  0  0  0  0
 30 29  1  0  0  0  0
 32 33  1  0  0  0  0
 32 34  1  0  0  0  0
M  END
>  <MODEL>
7

>  <REMARK>
 VINA RESULT:      -9.0      4.573      7.702
  Name = 
  3 active torsions:
  status: ('A' for Active; 'I' for Inactive)
    1  A    between atoms: C_3  and  C_25
    2  A    between atoms: C_7  and  N_11
    3  A    between atoms: N_18  and  C_30
                            x       y       z     vdW  Elec       q    Type
                         _______ _______ _______ _____ _____    ______ ____

>  <TORSDO>
F 3

$$$$
=
 OpenBabel10262423243D

 34 39  0  0  0  0  0  0  0  0999 V2000
  190.1440  176.7520  137.4730 C   0  0  0  0  0  0  0  0  0  0  0  0
  192.3530  174.7920  135.0980 C   0  0  0  0  0  3  0  0  0  0  0  0
  190.0730  175.2980  135.0500 C   0  0  0  0  0  3  0  0  0  0  0  0
  189.3500  178.5880  138.7930 O   0  0  0  0  0  0  0  0  0  0  0  0
  190.1140  177.4180  138.8220 C   0  0  0  0  0  2  0  0  0  0  0  0
  187.6630  177.0440  136.9330 C   0  0  0  0  0  0  0  0  0  0  0  0
  186.8770  176.6190  135.9180 N   0  0  0  0  0  0  0  0  0  0  0  0
  187.1460  177.9890  137.9800 C   0  0  0  0  0  2  0  0  0  0  0  0
  188.0830  178.1900  139.0800 N   0  0  0  0  0  0  0  0  0  0  0  0
  188.9370  175.8860  135.5740 C   0  0  0  0  0  0  0  0  0  0  0  0
  188.9610  176.5950  136.7360 C   0  0  0  0  0  0  0  0  0  0  0  0
  187.6540  175.8960  135.0780 C   0  0  0  0  0  3  0  0  0  0  0  0
  193.6900  174.6780  135.4430 C   0  0  0  0  0  3  0  0  0  0  0  0
  194.3640  175.1750  136.5480 C   0  0  0  0  0  0  0  0  0  0  0  0
  193.8010  175.9190  137.5690 C   0  0  0  0  0  3  0  0  0  0  0  0
  191.2930  175.4270  135.7350 C   0  0  0  0  0  0  0  0  0  0  0  0
  192.4920  176.3390  137.7440 C   0  0  0  0  0  3  0  0  0  0  0  0
  191.3420  176.1570  136.9680 C   0  0  0  0  0  0  0  0  0  0  0  0
  185.8150  178.5770  142.0390 C   0  0  0  0  0  3  0  0  0  0  0  0
  188.4780  177.8940  141.5040 C   0  0  0  0  0  3  0  0  0  0  0  0
  187.0780  177.9750  145.4750 C   0  0  0  0  0  0  0  0  0  0  0  0
  186.2160  178.2890  144.4100 C   0  0  0  0  0  3  0  0  0  0  0  0
  186.6760  178.2640  143.0920 C   0  0  0  0  0  0  0  0  0  0  0  0
  188.8800  177.6080  143.8750 C   0  0  0  0  0  3  0  0  0  0  0  0
  188.0180  177.9200  142.8220 C   0  0  0  0  0  0  0  0  0  0  0  0
  188.4130  177.6350  145.1920 C   0  0  0  0  0  3  0  0  0  0  0  0
  187.6140  178.2070  140.4410 C   0  0  0  0  0  0  0  0  0  0  0  0
  186.2810  178.5490  140.7220 C   0  0  0  0  0  3  0  0  0  0  0  0
  186.6020  178.0030  146.8340 N   0  0  0  0  0  0  0  0  0  0  0  0
  187.4930  177.7230  147.9500 C   0  0  0  0  0  1  0  0  0  0  0  0
  185.2150  178.3110  147.1410 C   0  0  0  0  0  1  0  0  0  0  0  0
  195.8270  174.8940  136.6660 C   0  0  0  0  0  3  0  0  0  0  0  0
  196.2000  174.8110  138.0090 O   0  0  0  0  0  1  0  0  0  0  0  0
  196.5680  175.8920  136.0320 O   0  0  0  0  0  1  0  0  0  0  0  0
  1  5  1  0  0  0  0
  2 13  2  0  0  0  0
  2 16  1  0  0  0  0
  3 10  1  0  0  0  0
  3 16  2  0  0  0  0
  4  5  1  0  0  0  0
  4  9  1  0  0  0  0
  6  8  1  0  0  0  0
  7  6  2  0  0  0  0
  8  9  1  0  0  0  0
  9 27  1  0  0  0  0
 10 11  1  0  0  0  0
 11  6  1  0  0  0  0
 11  1  2  0  0  0  0
 12 10  2  0  0  0  0
 12  7  1  0  0  0  0
 13 14  1  0  0  0  0
 14 32  1  0  0  0  0
 14 15  2  0  0  0  0
 15 17  1  0  0  0  0
 16 18  1  0  0  0  0
 18  1  1  0  0  0  0
 18 17  2  0  0  0  0
 19 23  1  0  0  0  0
 20 25  1  0  0  0  0
 21 29  1  0  0  0  0
 22 21  2  0  0  0  0
 23 22  1  0  0  0  0
 24 26  2  0  0  0  0
 25 23  2  0  0  0  0
 25 24  1  0  0  0  0
 26 21  1  0  0  0  0
 27 28  1  0  0  0  0
 27 20  2  0  0  0  0
 28 19  2  0  0  0  0
 29 31  1  0  0  0  0
 29 30  1  0  0  0  0
 32 33  1  0  0  0  0
 34 32  1  0  0  0  0
M  END
>  <MODEL>
8

>  <REMARK>
 VINA RESULT:      -9.0      3.201     10.458
  Name = 
  3 active torsions:
  status: ('A' for Active; 'I' for Inactive)
    1  A    between atoms: C_3  and  C_25
    2  A    between atoms: C_7  and  N_11
    3  A    between atoms: N_18  and  C_30
                            x       y       z     vdW  Elec       q    Type
                         _______ _______ _______ _____ _____    ______ ____

>  <TORSDO>
F 3

$$$$
=
 OpenBabel10262423243D

 34 39  0  0  0  0  0  0  0  0999 V2000
  185.5810  178.0320  143.0950 C   0  0  0  0  0  0  0  0  0  0  0  0
  188.6600  177.5470  145.2500 C   0  0  0  0  0  3  0  0  0  0  0  0
  186.4890  178.2400  145.7630 C   0  0  0  0  0  3  0  0  0  0  0  0
  183.8180  177.5080  141.5580 O   0  0  0  0  0  0  0  0  0  0  0  0
  185.0970  178.0610  141.6700 C   0  0  0  0  0  2  0  0  0  0  0  0
  183.3940  178.7950  144.1760 C   0  0  0  0  0  0  0  0  0  0  0  0
  183.0450  179.1060  145.4450 N   0  0  0  0  0  0  0  0  0  0  0  0
  182.3720  178.7230  143.0780 C   0  0  0  0  0  2  0  0  0  0  0  0
  182.9660  178.5470  141.7560 N   0  0  0  0  0  0  0  0  0  0  0  0
  185.1850  178.5410  145.4170 C   0  0  0  0  0  0  0  0  0  0  0  0
  184.7340  178.4370  144.1360 C   0  0  0  0  0  0  0  0  0  0  0  0
  184.1460  178.9600  146.2170 C   0  0  0  0  0  3  0  0  0  0  0  0
  189.8110  177.1240  144.6060 C   0  0  0  0  0  3  0  0  0  0  0  0
  190.0210  176.8460  143.2630 C   0  0  0  0  0  0  0  0  0  0  0  0
  189.0730  176.9440  142.2600 C   0  0  0  0  0  3  0  0  0  0  0  0
  187.3850  177.8190  144.7670 C   0  0  0  0  0  0  0  0  0  0  0  0
  187.7420  177.3210  142.3320 C   0  0  0  0  0  3  0  0  0  0  0  0
  186.9390  177.7150  143.4080 C   0  0  0  0  0  0  0  0  0  0  0  0
  182.7870  180.1470  138.3710 C   0  0  0  0  0  3  0  0  0  0  0  0
  181.2220  179.9360  140.6850 C   0  0  0  0  0  3  0  0  0  0  0  0
  179.8220  182.1480  137.3860 C   0  0  0  0  0  0  0  0  0  0  0  0
  181.0740  181.5120  137.3360 C   0  0  0  0  0  3  0  0  0  0  0  0
  181.5420  180.7780  138.4270 C   0  0  0  0  0  0  0  0  0  0  0  0
  179.5100  181.3020  139.6510 C   0  0  0  0  0  3  0  0  0  0  0  0
  180.7540  180.6710  139.5940 C   0  0  0  0  0  0  0  0  0  0  0  0
  179.0470  182.0350  138.5540 C   0  0  0  0  0  3  0  0  0  0  0  0
  182.4730  179.3000  140.6320 C   0  0  0  0  0  0  0  0  0  0  0  0
  183.2500  179.4140  139.4670 C   0  0  0  0  0  3  0  0  0  0  0  0
  179.3410  182.9060  136.2600 N   0  0  0  0  0  0  0  0  0  0  0  0
  178.9330  184.2950  136.4050 C   0  0  0  0  0  1  0  0  0  0  0  0
  179.2460  182.3110  134.9360 C   0  0  0  0  0  1  0  0  0  0  0  0
  191.3850  176.4020  142.8420 C   0  0  0  0  0  3  0  0  0  0  0  0
  192.0510  175.7950  143.9080 O   0  0  0  0  0  1  0  0  0  0  0  0
  192.1280  177.4880  142.3770 O   0  0  0  0  0  1  0  0  0  0  0  0
  1 18  2  0  0  0  0
  1 11  1  0  0  0  0
  4  5  1  0  0  0  0
  4  9  1  0  0  0  0
  5  1  1  0  0  0  0
  6  7  1  0  0  0  0
  7 12  2  0  0  0  0
  8  6  1  0  0  0  0
  9  8  1  0  0  0  0
 10  3  2  0  0  0  0
 10 12  1  0  0  0  0
 11  6  2  0  0  0  0
 11 10  1  0  0  0  0
 13  2  1  0  0  0  0
 14 13  2  0  0  0  0
 15 17  2  0  0  0  0
 15 14  1  0  0  0  0
 16  2  2  0  0  0  0
 16  3  1  0  0  0  0
 17 18  1  0  0  0  0
 18 16  1  0  0  0  0
 19 23  2  0  0  0  0
 19 28  1  0  0  0  0
 21 26  1  0  0  0  0
 22 21  2  0  0  0  0
 22 23  1  0  0  0  0
 23 25  1  0  0  0  0
 25 24  1  0  0  0  0
 25 20  2  0  0  0  0
 26 24  2  0  0  0  0
 27 20  1  0  0  0  0
 27  9  1  0  0  0  0
 28 27  2  0  0  0  0
 29 30  1  0  0  0  0
 29 21  1  0  0  0  0
 31 29  1  0  0  0  0
 32 14  1  0  0  0  0
 32 33  1  0  0  0  0
 34 32  1  0  0  0  0
M  END
>  <MODEL>
9

>  <REMARK>
 VINA RESULT:      -9.0      4.548      9.472
  Name = 
  3 active torsions:
  status: ('A' for Active; 'I' for Inactive)
    1  A    between atoms: C_3  and  C_25
    2  A    between atoms: C_7  and  N_11
    3  A    between atoms: N_18  and  C_30
                            x       y       z     vdW  Elec       q    Type
                         _______ _______ _______ _____ _____    ______ ____

>  <TORSDO>
F 3

$$$$
