=
 OpenBabel10262421443D

 30 33  0  0  1  0  0  0  0  0999 V2000
  181.9450  178.1720  138.9760 C   0  0  0  0  0  0  0  0  0  0  0  0
  181.0680  180.1290  137.5880 C   0  0  1  0  0  3  0  0  0  0  0  0
  180.1500  177.5560  136.3580 C   0  0  1  0  0  3  0  0  0  0  0  0
  182.6160  177.0490  138.1570 C   0  0  2  0  0  3  0  0  0  0  0  0
  182.4660  178.6890  140.1120 C   0  0  0  0  0  3  0  0  0  0  0  0
  186.0530  178.9380  140.6800 O   0  0  0  0  0  0  0  0  0  0  0  0
  184.8910  179.0510  139.9120 C   0  0  2  0  0  3  0  0  0  0  0  0
  184.0810  178.7450  142.0440 C   0  0  0  0  0  2  0  0  0  0  0  0
  180.1260  176.1050  136.1130 N   0  0  0  0  0  0  0  0  0  0  0  0
  183.8080  178.3110  140.6450 C   0  0  1  0  0  3  0  0  0  0  0  0
  185.0810  178.6990  138.4280 C   0  0  0  0  0  2  0  0  0  0  0  0
  179.8080  180.7550  137.0010 C   0  0  0  0  0  2  0  0  0  0  0  0
  186.3010  177.9520  142.8480 C   0  0  0  0  0  1  0  0  0  0  0  0
  181.7920  181.1870  138.4020 C   0  0  0  0  0  1  0  0  0  0  0  0
  179.3810  178.3090  135.2850 C   0  0  0  0  0  2  0  0  0  0  0  0
  179.8460  180.8070  135.4730 C   0  0  0  0  0  2  0  0  0  0  0  0
  185.5880  179.0000  142.0150 C   0  0  1  0  0  3  0  0  0  0  0  0
  180.7180  178.8920  138.4450 C   0  0  1  0  0  3  0  0  0  0  0  0
  181.7030  175.8230  138.0780 C   0  0  0  0  0  2  0  0  0  0  0  0
  178.9310  175.4650  136.6550 C   0  0  0  0  0  1  0  0  0  0  0  0
  181.3210  175.4270  136.6390 C   0  0  2  0  0  3  0  0  0  0  0  0
  183.8280  176.6070  138.7180 O   0  0  0  0  0  0  0  0  0  0  0  0
  180.2210  179.4830  134.8030 C   0  0  0  0  0  2  0  0  0  0  0  0
  179.7030  177.9600  137.7710 C   0  0  0  0  0  2  0  0  0  0  0  0
  184.8900  177.2250  138.0350 C   0  0  0  0  0  2  0  0  0  0  0  0
  182.4900  175.5020  135.6580 C   0  0  0  0  0  2  0  0  0  0  0  0
  183.1070  174.1310  135.4160 C   0  0  1  0  0  3  0  0  0  0  0  0
  184.4190  174.0510  136.1670 C   0  0  0  0  0  1  0  0  0  0  0  0
  182.1870  173.0290  135.9180 C   0  0  0  0  0  2  0  0  0  0  0  0
  182.9490  172.0560  136.7980 C   0  0  0  0  0  1  0  0  0  0  0  0
  1  5  2  0  0  0  0
  2 14  1  1  0  0  0
  2 18  1  0  0  0  0
  3 15  1  6  0  0  0
  3 24  1  0  0  0  0
  4 19  1  1  0  0  0
  4 22  1  0  0  0  0
  4  1  1  0  0  0  0
  6 17  1  0  0  0  0
  7 11  1  6  0  0  0
  7 10  1  0  0  0  0
  7  6  1  0  0  0  0
  9  3  1  0  0  0  0
  9 21  1  0  0  0  0
  9 20  1  0  0  0  0
 10  5  1  6  0  0  0
 10  8  1  0  0  0  0
 12  2  1  0  0  0  0
 16 12  1  0  0  0  0
 17  8  1  0  0  0  0
 17 13  1  1  0  0  0
 18 24  1  6  0  0  0
 18  1  1  0  0  0  0
 21 26  1  6  0  0  0
 21 19  1  0  0  0  0
 23 15  1  0  0  0  0
 23 16  1  0  0  0  0
 25 11  1  0  0  0  0
 25 22  1  0  0  0  0
 27 26  1  0  0  0  0
 27 29  1  0  0  0  0
 27 28  1  1  0  0  0
 29 30  1  0  0  0  0
M  END
>  <MODEL>
1

>  <REMARK>
 VINA RESULT:      -5.0      0.000      0.000
  Name = 
  3 active torsions:
  status: ('A' for Active; 'I' for Inactive)
    1  A    between atoms: C_7  and  C_10
    2  A    between atoms: C_7  and  C_15
    3  A    between atoms: C_10  and  C_25
                            x       y       z     vdW  Elec       q    Type
                         _______ _______ _______ _____ _____    ______ ____

>  <TORSDO>
F 3

$$$$
=
 OpenBabel10262421443D

 30 33  0  0  1  0  0  0  0  0999 V2000
  181.6810  176.6240  137.5810 C   0  0  0  0  0  0  0  0  0  0  0  0
  180.6230  178.7530  136.6480 C   0  0  1  0  0  3  0  0  0  0  0  0
  182.3520  179.4540  138.9930 C   0  0  1  0  0  3  0  0  0  0  0  0
  181.5670  176.4630  139.1120 C   0  0  2  0  0  3  0  0  0  0  0  0
  181.4240  175.6300  136.7000 C   0  0  0  0  0  3  0  0  0  0  0  0
  178.9330  173.0520  137.3310 O   0  0  0  0  0  0  0  0  0  0  0  0
  179.4070  174.3660  137.3230 C   0  0  2  0  0  3  0  0  0  0  0  0
  180.9590  173.2410  136.0490 C   0  0  0  0  0  2  0  0  0  0  0  0
  183.1420  179.2170  140.2110 N   0  0  0  0  0  0  0  0  0  0  0  0
  180.8920  174.2940  137.1010 C   0  0  1  0  0  3  0  0  0  0  0  0
  178.9310  175.2160  138.5120 C   0  0  0  0  0  2  0  0  0  0  0  0
  180.9300  180.1500  136.1200 C   0  0  0  0  0  2  0  0  0  0  0  0
  180.1500  171.0390  136.8830 C   0  0  0  0  0  1  0  0  0  0  0  0
  179.7810  178.0260  135.6150 C   0  0  0  0  0  1  0  0  0  0  0  0
  182.0520  180.9330  138.8090 C   0  0  0  0  0  2  0  0  0  0  0  0
  180.3030  181.2450  136.9830 C   0  0  0  0  0  2  0  0  0  0  0  0
  179.7240  172.3960  136.3580 C   0  0  1  0  0  3  0  0  0  0  0  0
  181.9280  177.9870  136.9600 C   0  0  1  0  0  3  0  0  0  0  0  0
  182.9180  176.7290  139.7820 C   0  0  0  0  0  2  0  0  0  0  0  0
  184.5760  179.3830  139.9910 C   0  0  0  0  0  1  0  0  0  0  0  0
  182.8910  177.8890  140.7930 C   0  0  2  0  0  3  0  0  0  0  0  0
  181.1750  175.1700  139.5040 O   0  0  0  0  0  0  0  0  0  0  0  0
  180.5750  181.1040  138.4830 C   0  0  0  0  0  2  0  0  0  0  0  0
  182.9560  178.8320  137.7240 C   0  0  0  0  0  2  0  0  0  0  0  0
  179.7980  175.1830  139.7800 C   0  0  0  0  0  2  0  0  0  0  0  0
  181.6490  177.8900  141.6840 C   0  0  0  0  0  2  0  0  0  0  0  0
  181.6160  179.1070  142.5980 C   0  0  1  0  0  3  0  0  0  0  0  0
  180.2070  179.6620  142.6160 C   0  0  0  0  0  1  0  0  0  0  0  0
  182.0110  178.7280  144.0170 C   0  0  0  0  0  2  0  0  0  0  0  0
  183.4100  179.2220  144.3320 C   0  0  0  0  0  1  0  0  0  0  0  0
  1  4  1  0  0  0  0
  2 14  1  6  0  0  0
  2 18  1  0  0  0  0
  3 24  1  6  0  0  0
  3  9  1  0  0  0  0
  4 22  1  0  0  0  0
  4 19  1  1  0  0  0
  5 10  1  0  0  0  0
  5  1  2  0  0  0  0
  7  6  1  0  0  0  0
  7 11  1  1  0  0  0
  8 17  1  0  0  0  0
  9 21  1  0  0  0  0
 10  8  1  6  0  0  0
 10  7  1  0  0  0  0
 11 25  1  0  0  0  0
 12  2  1  0  0  0  0
 12 16  1  0  0  0  0
 15  3  1  0  0  0  0
 16 23  1  0  0  0  0
 17 13  1  1  0  0  0
 17  6  1  0  0  0  0
 18  1  1  0  0  0  0
 18 24  1  1  0  0  0
 19 21  1  0  0  0  0
 20  9  1  0  0  0  0
 21 26  1  6  0  0  0
 22 25  1  0  0  0  0
 23 15  1  0  0  0  0
 26 27  1  0  0  0  0
 27 28  1  1  0  0  0
 27 29  1  0  0  0  0
 29 30  1  0  0  0  0
M  END
>  <MODEL>
2

>  <REMARK>
 VINA RESULT:      -5.0      2.396      6.503
  Name = 
  3 active torsions:
  status: ('A' for Active; 'I' for Inactive)
    1  A    between atoms: C_7  and  C_10
    2  A    between atoms: C_7  and  C_15
    3  A    between atoms: C_10  and  C_25
                            x       y       z     vdW  Elec       q    Type
                         _______ _______ _______ _____ _____    ______ ____

>  <TORSDO>
F 3

$$$$
=
 OpenBabel10262421443D

 30 33  0  0  1  0  0  0  0  0999 V2000
  185.2430  178.7530  139.9570 C   0  0  0  0  0  0  0  0  0  0  0  0
  185.8650  178.0340  142.3270 C   0  0  1  0  0  3  0  0  0  0  0  0
  188.2200  177.6240  140.5210 C   0  0  1  0  0  3  0  0  0  0  0  0
  185.6150  177.7370  138.8550 C   0  0  2  0  0  3  0  0  0  0  0  0
  184.0470  179.3790  140.0290 C   0  0  0  0  0  3  0  0  0  0  0  0
  180.9530  177.8190  138.9140 O   0  0  0  0  0  0  0  0  0  0  0  0
  182.1880  177.8350  139.5680 C   0  0  2  0  0  3  0  0  0  0  0  0
  181.7880  180.0620  139.1460 C   0  0  0  0  0  2  0  0  0  0  0  0
  188.9390  177.4850  139.2460 N   0  0  0  0  0  0  0  0  0  0  0  0
  182.9050  179.0760  139.1160 C   0  0  1  0  0  3  0  0  0  0  0  0
  182.9700  176.5150  139.4700 C   0  0  0  0  0  2  0  0  0  0  0  0
  186.8760  178.2380  143.4500 C   0  0  0  0  0  2  0  0  0  0  0  0
  180.0070  179.5020  137.4970 C   0  0  0  0  0  1  0  0  0  0  0  0
  184.4730  178.2620  142.8900 C   0  0  0  0  0  1  0  0  0  0  0  0
  189.0690  177.1460  141.6880 C   0  0  0  0  0  2  0  0  0  0  0  0
  187.6350  176.9530  143.7850 C   0  0  0  0  0  2  0  0  0  0  0  0
  180.5710  179.1800  138.8680 C   0  0  1  0  0  3  0  0  0  0  0  0
  186.1620  178.9810  141.1440 C   0  0  1  0  0  3  0  0  0  0  0  0
  186.8270  178.2280  138.0590 C   0  0  0  0  0  2  0  0  0  0  0  0
  189.8040  178.6280  138.9620 C   0  0  0  0  0  1  0  0  0  0  0  0
  188.0310  177.2700  138.1090 C   0  0  2  0  0  3  0  0  0  0  0  0
  184.5820  177.5320  137.9230 O   0  0  0  0  0  0  0  0  0  0  0  0
  188.2300  176.2340  142.5720 C   0  0  0  0  0  2  0  0  0  0  0  0
  187.6490  179.0290  140.7680 C   0  0  0  0  0  2  0  0  0  0  0  0
  183.9020  176.3490  138.2600 C   0  0  0  0  0  2  0  0  0  0  0  0
  187.6430  175.7980  137.9690 C   0  0  0  0  0  2  0  0  0  0  0  0
  187.4040  175.4180  136.5140 C   0  0  1  0  0  3  0  0  0  0  0  0
  188.6050  175.8440  135.6970 C   0  0  0  0  0  1  0  0  0  0  0  0
  187.2230  173.9150  136.3720 C   0  0  0  0  0  2  0  0  0  0  0  0
  186.0600  173.4330  137.2180 C   0  0  0  0  0  1  0  0  0  0  0  0
  1  5  2  0  0  0  0
  1 18  1  0  0  0  0
  2 14  1  1  0  0  0
  2 12  1  0  0  0  0
  3 24  1  1  0  0  0
  3 15  1  0  0  0  0
  4 19  1  6  0  0  0
  4  1  1  0  0  0  0
  6  7  1  0  0  0  0
  7 11  1  6  0  0  0
  9  3  1  0  0  0  0
 10  8  1  1  0  0  0
 10  7  1  0  0  0  0
 10  5  1  0  0  0  0
 12 16  1  0  0  0  0
 15 23  1  0  0  0  0
 17 13  1  6  0  0  0
 17  6  1  0  0  0  0
 17  8  1  0  0  0  0
 18 24  1  6  0  0  0
 18  2  1  0  0  0  0
 19 21  1  0  0  0  0
 20  9  1  0  0  0  0
 21 26  1  1  0  0  0
 21  9  1  0  0  0  0
 22 25  1  0  0  0  0
 22  4  1  0  0  0  0
 23 16  1  0  0  0  0
 25 11  1  0  0  0  0
 27 28  1  6  0  0  0
 27 26  1  0  0  0  0
 29 27  1  0  0  0  0
 29 30  1  0  0  0  0
M  END
>  <MODEL>
3

>  <REMARK>
 VINA RESULT:      -4.8      2.834      6.864
  Name = 
  3 active torsions:
  status: ('A' for Active; 'I' for Inactive)
    1  A    between atoms: C_7  and  C_10
    2  A    between atoms: C_7  and  C_15
    3  A    between atoms: C_10  and  C_25
                            x       y       z     vdW  Elec       q    Type
                         _______ _______ _______ _____ _____    ______ ____

>  <TORSDO>
F 3

$$$$
=
 OpenBabel10262421443D

 30 33  0  0  1  0  0  0  0  0999 V2000
  184.9640  178.3000  138.1230 C   0  0  0  0  0  0  0  0  0  0  0  0
  186.9690  178.2440  139.7050 C   0  0  1  0  0  3  0  0  0  0  0  0
  187.7300  176.9740  137.1000 C   0  0  1  0  0  3  0  0  0  0  0  0
  184.6530  176.9580  137.4270 C   0  0  2  0  0  3  0  0  0  0  0  0
  184.0240  179.0850  138.6960 C   0  0  0  0  0  3  0  0  0  0  0  0
  181.0320  177.7280  140.2620 O   0  0  0  0  0  0  0  0  0  0  0  0
  182.4010  177.7610  139.9860 C   0  0  2  0  0  3  0  0  0  0  0  0
  181.6580  179.7920  139.1980 C   0  0  0  0  0  2  0  0  0  0  0  0
  187.5160  176.3550  135.7830 N   0  0  0  0  0  0  0  0  0  0  0  0
  182.5890  178.6910  138.8210 C   0  0  1  0  0  3  0  0  0  0  0  0
  183.0540  176.3740  139.8710 C   0  0  0  0  0  2  0  0  0  0  0  0
  188.4380  178.6270  139.8440 C   0  0  0  0  0  2  0  0  0  0  0  0
  179.2890  179.0270  139.2570 C   0  0  0  0  0  1  0  0  0  0  0  0
  186.2090  178.8300  140.8820 C   0  0  0  0  0  1  0  0  0  0  0  0
  189.1510  176.7510  137.5910 C   0  0  0  0  0  2  0  0  0  0  0  0
  189.3370  177.4060  140.0460 C   0  0  0  0  0  2  0  0  0  0  0  0
  180.6010  179.0530  140.0180 C   0  0  1  0  0  3  0  0  0  0  0  0
  186.3990  178.7390  138.3570 C   0  0  1  0  0  3  0  0  0  0  0  0
  185.0730  177.0050  135.9560 C   0  0  0  0  0  2  0  0  0  0  0  0
  187.9310  177.2220  134.6830 C   0  0  0  0  0  1  0  0  0  0  0  0
  186.1200  175.9420  135.5760 C   0  0  2  0  0  3  0  0  0  0  0  0
  183.2840  176.6340  137.4410 O   0  0  0  0  0  0  0  0  0  0  0  0
  189.1090  176.2780  139.0370 C   0  0  0  0  0  2  0  0  0  0  0  0
  187.3280  178.4550  137.1690 C   0  0  0  0  0  2  0  0  0  0  0  0
  183.0500  175.7180  138.4800 C   0  0  0  0  0  2  0  0  0  0  0  0
  185.8410  174.5690  136.1860 C   0  0  0  0  0  2  0  0  0  0  0  0
  184.9930  173.7070  135.2620 C   0  0  1  0  0  3  0  0  0  0  0  0
  185.8330  172.5430  134.7780 C   0  0  0  0  0  1  0  0  0  0  0  0
  183.7780  173.1620  135.9960 C   0  0  0  0  0  2  0  0  0  0  0  0
  184.2030  172.3700  137.2190 C   0  0  0  0  0  1  0  0  0  0  0  0
  1 18  1  0  0  0  0
  1  5  2  0  0  0  0
  2 12  1  0  0  0  0
  2 14  1  1  0  0  0
  3 24  1  6  0  0  0
  3 15  1  0  0  0  0
  4 19  1  6  0  0  0
  4 22  1  0  0  0  0
  4  1  1  0  0  0  0
  7 11  1  6  0  0  0
  7  6  1  0  0  0  0
  8 17  1  0  0  0  0
  9  3  1  0  0  0  0
 10  5  1  1  0  0  0
 10  8  1  0  0  0  0
 10  7  1  0  0  0  0
 12 16  1  0  0  0  0
 15 23  1  0  0  0  0
 17 13  1  6  0  0  0
 17  6  1  0  0  0  0
 18 24  1  6  0  0  0
 18  2  1  0  0  0  0
 20  9  1  0  0  0  0
 21  9  1  0  0  0  0
 21 19  1  0  0  0  0
 21 26  1  1  0  0  0
 22 25  1  0  0  0  0
 23 16  1  0  0  0  0
 25 11  1  0  0  0  0
 27 28  1  1  0  0  0
 27 29  1  0  0  0  0
 27 26  1  0  0  0  0
 29 30  1  0  0  0  0
M  END
>  <MODEL>
4

>  <REMARK>
 VINA RESULT:      -4.8      2.772      5.888
  Name = 
  3 active torsions:
  status: ('A' for Active; 'I' for Inactive)
    1  A    between atoms: C_7  and  C_10
    2  A    between atoms: C_7  and  C_15
    3  A    between atoms: C_10  and  C_25
                            x       y       z     vdW  Elec       q    Type
                         _______ _______ _______ _____ _____    ______ ____

>  <TORSDO>
F 3

$$$$
=
 OpenBabel10262421443D

 30 33  0  0  1  0  0  0  0  0999 V2000
  188.2840  175.3430  135.7260 C   0  0  0  0  0  0  0  0  0  0  0  0
  187.0520  173.2210  136.4350 C   0  0  1  0  0  3  0  0  0  0  0  0
  185.0740  175.4470  136.1010 C   0  0  1  0  0  3  0  0  0  0  0  0
  187.9110  176.6060  136.5320 C   0  0  2  0  0  3  0  0  0  0  0  0
  189.5560  174.9890  135.4320 C   0  0  0  0  0  3  0  0  0  0  0  0
  192.3540  175.7240  137.6410 O   0  0  0  0  0  0  0  0  0  0  0  0
  191.0530  175.2990  137.3590 C   0  0  2  0  0  3  0  0  0  0  0  0
  192.0400  175.3750  135.2820 C   0  0  0  0  0  2  0  0  0  0  0  0
  184.6110  176.8360  135.9600 N   0  0  0  0  0  0  0  0  0  0  0  0
  190.7520  175.7170  135.9470 C   0  0  1  0  0  3  0  0  0  0  0  0
  190.0170  175.6890  138.4270 C   0  0  0  0  0  2  0  0  0  0  0  0
  185.9150  172.2760  136.0630 C   0  0  0  0  0  2  0  0  0  0  0  0
  193.9310  176.7420  136.1540 C   0  0  0  0  0  1  0  0  0  0  0  0
  188.3180  172.4010  136.6090 C   0  0  0  0  0  1  0  0  0  0  0  0
  183.9220  174.5120  136.4320 C   0  0  0  0  0  2  0  0  0  0  0  0
  184.8240  172.2350  137.1340 C   0  0  0  0  0  2  0  0  0  0  0  0
  193.0460  175.5390  136.4210 C   0  0  1  0  0  3  0  0  0  0  0  0
  187.2280  174.3160  135.3600 C   0  0  1  0  0  3  0  0  0  0  0  0
  187.0320  177.5380  135.6930 C   0  0  0  0  0  2  0  0  0  0  0  0
  184.1140  177.1280  134.6180 C   0  0  0  0  0  1  0  0  0  0  0  0
  185.6510  177.8140  136.3160 C   0  0  2  0  0  3  0  0  0  0  0  0
  189.0310  177.3610  136.9240 O   0  0  0  0  0  0  0  0  0  0  0  0
  184.3300  173.6110  137.5880 C   0  0  0  0  0  2  0  0  0  0  0  0
  185.8990  174.9380  134.9090 C   0  0  0  0  0  2  0  0  0  0  0  0
  189.3320  177.0550  138.2620 C   0  0  0  0  0  2  0  0  0  0  0  0
  185.7020  178.0600  137.8230 C   0  0  0  0  0  2  0  0  0  0  0  0
  184.3230  178.3740  138.3870 C   0  0  1  0  0  3  0  0  0  0  0  0
  183.7800  177.1320  139.0610 C   0  0  0  0  0  1  0  0  0  0  0  0
  184.4020  179.4930  139.4130 C   0  0  0  0  0  2  0  0  0  0  0  0
  185.0560  179.0030  140.6910 C   0  0  0  0  0  1  0  0  0  0  0  0
  1  4  1  0  0  0  0
  2 14  1  6  0  0  0
  3 24  1  6  0  0  0
  3 15  1  0  0  0  0
  4 19  1  6  0  0  0
  4 22  1  0  0  0  0
  5  1  2  0  0  0  0
  5 10  1  0  0  0  0
  7  6  1  0  0  0  0
  7 11  1  1  0  0  0
  8 17  1  0  0  0  0
  9  3  1  0  0  0  0
  9 21  1  0  0  0  0
 10  8  1  6  0  0  0
 10  7  1  0  0  0  0
 12  2  1  0  0  0  0
 12 16  1  0  0  0  0
 15 23  1  0  0  0  0
 16 23  1  0  0  0  0
 17 13  1  6  0  0  0
 17  6  1  0  0  0  0
 18 24  1  1  0  0  0
 18  1  1  0  0  0  0
 18  2  1  0  0  0  0
 19 21  1  0  0  0  0
 20  9  1  0  0  0  0
 21 26  1  1  0  0  0
 22 25  1  0  0  0  0
 25 11  1  0  0  0  0
 26 27  1  0  0  0  0
 27 28  1  1  0  0  0
 27 29  1  0  0  0  0
 29 30  1  0  0  0  0
M  END
>  <MODEL>
5

>  <REMARK>
 VINA RESULT:      -4.7      4.437      7.661
  Name = 
  3 active torsions:
  status: ('A' for Active; 'I' for Inactive)
    1  A    between atoms: C_7  and  C_10
    2  A    between atoms: C_7  and  C_15
    3  A    between atoms: C_10  and  C_25
                            x       y       z     vdW  Elec       q    Type
                         _______ _______ _______ _____ _____    ______ ____

>  <TORSDO>
F 3

$$$$
=
 OpenBabel10262421443D

 30 33  0  0  1  0  0  0  0  0999 V2000
  185.1320  175.3970  135.9180 C   0  0  0  0  0  0  0  0  0  0  0  0
  184.9960  177.0120  137.8910 C   0  0  1  0  0  3  0  0  0  0  0  0
  187.7170  177.1960  136.6500 C   0  0  1  0  0  3  0  0  0  0  0  0
  186.3900  174.5030  135.9000 C   0  0  2  0  0  3  0  0  0  0  0  0
  183.8810  174.9370  135.6890 C   0  0  0  0  0  3  0  0  0  0  0  0
  182.8290  171.5800  136.6210 O   0  0  0  0  0  0  0  0  0  0  0  0
  183.4770  172.7980  136.8360 C   0  0  2  0  0  3  0  0  0  0  0  0
  182.1960  173.2090  134.9680 C   0  0  0  0  0  2  0  0  0  0  0  0
  188.8530  176.7820  135.8110 N   0  0  0  0  0  0  0  0  0  0  0  0
  183.5570  173.4920  135.5050 C   0  0  1  0  0  3  0  0  0  0  0  0
  184.7880  172.6840  137.6300 C   0  0  0  0  0  2  0  0  0  0  0  0
  185.1860  178.4670  138.3070 C   0  0  0  0  0  2  0  0  0  0  0  0
  181.8300  170.7730  134.6000 C   0  0  0  0  0  1  0  0  0  0  0  0
  183.6030  176.5750  138.3080 C   0  0  0  0  0  1  0  0  0  0  0  0
  188.1210  178.2880  137.6270 C   0  0  0  0  0  2  0  0  0  0  0  0
  186.2840  178.6290  139.3590 C   0  0  0  0  0  2  0  0  0  0  0  0
  181.8560  171.8780  135.6390 C   0  0  1  0  0  3  0  0  0  0  0  0
  185.2140  176.8440  136.3710 C   0  0  1  0  0  3  0  0  0  0  0  0
  187.3710  174.9770  134.8250 C   0  0  0  0  0  2  0  0  0  0  0  0
  189.0240  177.6370  134.6390 C   0  0  0  0  0  1  0  0  0  0  0  0
  188.7500  175.3800  135.3790 C   0  0  2  0  0  3  0  0  0  0  0  0
  186.1050  173.1560  135.6130 O   0  0  0  0  0  0  0  0  0  0  0  0
  187.6020  177.9320  139.0130 C   0  0  0  0  0  2  0  0  0  0  0  0
  186.4580  177.5790  135.8550 C   0  0  0  0  0  2  0  0  0  0  0  0
  186.0710  172.4370  136.8200 C   0  0  0  0  0  2  0  0  0  0  0  0
  189.2810  174.4220  136.4450 C   0  0  0  0  0  2  0  0  0  0  0  0
  190.6120  173.8080  136.0350 C   0  0  1  0  0  3  0  0  0  0  0  0
  191.0030  174.3590  134.6800 C   0  0  0  0  0  1  0  0  0  0  0  0
  191.7000  174.1570  137.0380 C   0  0  0  0  0  2  0  0  0  0  0  0
  191.2300  175.2520  137.9770 C   0  0  0  0  0  1  0  0  0  0  0  0
  1 18  1  0  0  0  0
  2 12  1  0  0  0  0
  2 14  1  6  0  0  0
  3 24  1  6  0  0  0
  3 15  1  0  0  0  0
  4 19  1  6  0  0  0
  4  1  1  0  0  0  0
  5  1  2  0  0  0  0
  6  7  1  0  0  0  0
  7 11  1  6  0  0  0
  8 17  1  0  0  0  0
  9  3  1  0  0  0  0
 10  8  1  1  0  0  0
 10  5  1  0  0  0  0
 10  7  1  0  0  0  0
 12 16  1  0  0  0  0
 15 23  1  0  0  0  0
 17 13  1  6  0  0  0
 17  6  1  0  0  0  0
 18 24  1  1  0  0  0
 18  2  1  0  0  0  0
 19 21  1  0  0  0  0
 20  9  1  0  0  0  0
 21  9  1  0  0  0  0
 21 26  1  1  0  0  0
 22  4  1  0  0  0  0
 22 25  1  0  0  0  0
 23 16  1  0  0  0  0
 25 11  1  0  0  0  0
 27 28  1  6  0  0  0
 27 26  1  0  0  0  0
 27 29  1  0  0  0  0
 29 30  1  0  0  0  0
M  END
>  <MODEL>
6

>  <REMARK>
 VINA RESULT:      -4.4      3.998      7.613
  Name = 
  3 active torsions:
  status: ('A' for Active; 'I' for Inactive)
    1  A    between atoms: C_7  and  C_10
    2  A    between atoms: C_7  and  C_15
    3  A    between atoms: C_10  and  C_25
                            x       y       z     vdW  Elec       q    Type
                         _______ _______ _______ _____ _____    ______ ____

>  <TORSDO>
F 3

$$$$
=
 OpenBabel10262421443D

 30 33  0  0  1  0  0  0  0  0999 V2000
  184.3180  177.6420  137.0500 C   0  0  0  0  0  0  0  0  0  0  0  0
  182.6850  175.6790  137.0830 C   0  0  1  0  0  3  0  0  0  0  0  0
  181.9170  177.6370  139.2160 C   0  0  1  0  0  3  0  0  0  0  0  0
  184.8840  178.0340  138.4320 C   0  0  2  0  0  3  0  0  0  0  0  0
  185.0750  177.5160  135.9370 C   0  0  0  0  0  3  0  0  0  0  0  0
  188.5350  176.3920  136.0410 O   0  0  0  0  0  0  0  0  0  0  0  0
  187.1870  176.3450  136.4060 C   0  0  2  0  0  3  0  0  0  0  0  0
  187.1910  177.7640  134.5940 C   0  0  0  0  0  2  0  0  0  0  0  0
  182.0880  178.7720  140.1370 N   0  0  0  0  0  0  0  0  0  0  0  0
  186.5630  177.6300  135.9380 C   0  0  1  0  0  3  0  0  0  0  0  0
  186.9440  175.9580  137.8740 C   0  0  0  0  0  2  0  0  0  0  0  0
  181.2080  175.3050  137.0210 C   0  0  0  0  0  2  0  0  0  0  0  0
  189.6590  178.0630  134.7450 C   0  0  0  0  0  1  0  0  0  0  0  0
  183.4220  174.8930  136.0130 C   0  0  0  0  0  1  0  0  0  0  0  0
  180.7120  176.7930  139.5990 C   0  0  0  0  0  2  0  0  0  0  0  0
  180.7350  174.6040  138.2950 C   0  0  0  0  0  2  0  0  0  0  0  0
  188.5290  177.0520  134.7900 C   0  0  1  0  0  3  0  0  0  0  0  0
  182.8730  177.2010  136.9010 C   0  0  1  0  0  3  0  0  0  0  0  0
  184.2430  179.3340  138.9270 C   0  0  0  0  0  2  0  0  0  0  0  0
  181.2780  179.9270  139.7600 C   0  0  0  0  0  1  0  0  0  0  0  0
  183.4940  179.1850  140.2640 C   0  0  2  0  0  3  0  0  0  0  0  0
  186.2730  178.2560  138.4160 O   0  0  0  0  0  0  0  0  0  0  0  0
  181.1120  175.3250  139.5920 C   0  0  0  0  0  2  0  0  0  0  0  0
  181.8880  178.0340  137.7320 C   0  0  0  0  0  2  0  0  0  0  0  0
  186.9170  177.1040  138.8980 C   0  0  0  0  0  2  0  0  0  0  0  0
  184.2420  178.3330  141.2880 C   0  0  0  0  0  2  0  0  0  0  0  0
  185.1230  179.1860  142.1900 C   0  0  1  0  0  3  0  0  0  0  0  0
  184.5750  179.1270  143.6000 C   0  0  0  0  0  1  0  0  0  0  0  0
  186.5520  178.6660  142.1980 C   0  0  0  0  0  2  0  0  0  0  0  0
  186.7700  177.7200  143.3640 C   0  0  0  0  0  1  0  0  0  0  0  0
  1  4  1  0  0  0  0
  2 14  1  6  0  0  0
  3 24  1  6  0  0  0
  3 15  1  0  0  0  0
  3  9  1  0  0  0  0
  4 19  1  6  0  0  0
  5 10  1  0  0  0  0
  5  1  2  0  0  0  0
  6  7  1  0  0  0  0
  7 11  1  1  0  0  0
  8 17  1  0  0  0  0
  9 21  1  0  0  0  0
 10  8  1  6  0  0  0
 10  7  1  0  0  0  0
 11 25  1  0  0  0  0
 12  2  1  0  0  0  0
 12 16  1  0  0  0  0
 16 23  1  0  0  0  0
 17 13  1  1  0  0  0
 17  6  1  0  0  0  0
 18  1  1  0  0  0  0
 18  2  1  0  0  0  0
 18 24  1  1  0  0  0
 19 21  1  0  0  0  0
 20  9  1  0  0  0  0
 21 26  1  1  0  0  0
 22  4  1  0  0  0  0
 22 25  1  0  0  0  0
 23 15  1  0  0  0  0
 26 27  1  0  0  0  0
 27 29  1  0  0  0  0
 27 28  1  1  0  0  0
 29 30  1  0  0  0  0
M  END
>  <MODEL>
7

>  <REMARK>
 VINA RESULT:      -4.4      2.566      6.043
  Name = 
  3 active torsions:
  status: ('A' for Active; 'I' for Inactive)
    1  A    between atoms: C_7  and  C_10
    2  A    between atoms: C_7  and  C_15
    3  A    between atoms: C_10  and  C_25
                            x       y       z     vdW  Elec       q    Type
                         _______ _______ _______ _____ _____    ______ ____

>  <TORSDO>
F 3

$$$$
=
 OpenBabel10262421443D

 30 33  0  0  1  0  0  0  0  0999 V2000
  188.0020  178.2440  140.4950 C   0  0  0  0  0  0  0  0  0  0  0  0
  187.8430  176.6590  138.4990 C   0  0  1  0  0  3  0  0  0  0  0  0
  185.2300  178.0860  138.8380 C   0  0  1  0  0  3  0  0  0  0  0  0
  186.8250  178.1510  141.4890 C   0  0  2  0  0  3  0  0  0  0  0  0
  189.3010  178.2870  140.8710 C   0  0  0  0  0  3  0  0  0  0  0  0
  190.5330  176.5890  143.8450 O   0  0  0  0  0  0  0  0  0  0  0  0
  189.7740  176.6830  142.6760 C   0  0  2  0  0  3  0  0  0  0  0  0
  191.1710  178.5080  142.5430 C   0  0  0  0  0  2  0  0  0  0  0  0
  184.2050  178.8880  139.5230 N   0  0  0  0  0  0  0  0  0  0  0  0
  189.7520  178.1350  142.2850 C   0  0  1  0  0  3  0  0  0  0  0  0
  188.4140  175.9700  142.7470 C   0  0  0  0  0  2  0  0  0  0  0  0
  187.5040  176.5790  137.0140 C   0  0  0  0  0  2  0  0  0  0  0  0
  191.7590  178.3200  144.9560 C   0  0  0  0  0  1  0  0  0  0  0  0
  189.2270  176.0680  138.7050 C   0  0  0  0  0  1  0  0  0  0  0  0
  184.6600  177.3950  137.6100 C   0  0  0  0  0  2  0  0  0  0  0  0
  186.3130  175.6600  136.7420 C   0  0  0  0  0  2  0  0  0  0  0  0
  191.5590  177.5470  143.6670 C   0  0  1  0  0  3  0  0  0  0  0  0
  187.7680  178.1180  139.0000 C   0  0  1  0  0  3  0  0  0  0  0  0
  185.9020  179.3650  141.3440 C   0  0  0  0  0  2  0  0  0  0  0  0
  184.0650  180.2250  138.9520 C   0  0  0  0  0  1  0  0  0  0  0  0
  184.4540  179.0010  140.9680 C   0  0  2  0  0  3  0  0  0  0  0  0
  187.2380  178.1230  142.8330 O   0  0  0  0  0  0  0  0  0  0  0  0
  185.0880  175.9340  137.6180 C   0  0  0  0  0  2  0  0  0  0  0  0
  186.5170  178.8600  138.5110 C   0  0  0  0  0  2  0  0  0  0  0  0
  187.2270  176.7900  143.2780 C   0  0  0  0  0  2  0  0  0  0  0  0
  183.9140  177.7910  141.7300 C   0  0  0  0  0  2  0  0  0  0  0  0
  182.9430  178.2060  142.8260 C   0  0  1  0  0  3  0  0  0  0  0  0
  183.6780  179.0850  143.8170 C   0  0  0  0  0  1  0  0  0  0  0  0
  181.7770  178.9910  142.2460 C   0  0  0  0  0  2  0  0  0  0  0  0
  180.6630  179.1270  143.2670 C   0  0  0  0  0  1  0  0  0  0  0  0
  1  5  2  0  0  0  0
  1  4  1  0  0  0  0
  2 14  1  6  0  0  0
  2 18  1  0  0  0  0
  3 15  1  6  0  0  0
  3  9  1  0  0  0  0
  4 19  1  1  0  0  0
  4 22  1  0  0  0  0
  7 11  1  1  0  0  0
  7  6  1  0  0  0  0
  8 17  1  0  0  0  0
  9 21  1  0  0  0  0
 10  5  1  6  0  0  0
 10  8  1  0  0  0  0
 10  7  1  0  0  0  0
 11 25  1  0  0  0  0
 12  2  1  0  0  0  0
 15 23  1  0  0  0  0
 16 12  1  0  0  0  0
 16 23  1  0  0  0  0
 17  6  1  0  0  0  0
 17 13  1  1  0  0  0
 18 24  1  1  0  0  0
 18  1  1  0  0  0  0
 20  9  1  0  0  0  0
 21 19  1  0  0  0  0
 21 26  1  1  0  0  0
 22 25  1  0  0  0  0
 24  3  1  0  0  0  0
 26 27  1  0  0  0  0
 27 28  1  1  0  0  0
 29 27  1  0  0  0  0
 29 30  1  0  0  0  0
M  END
>  <MODEL>
8

>  <REMARK>
 VINA RESULT:      -4.3      3.776      7.060
  Name = 
  3 active torsions:
  status: ('A' for Active; 'I' for Inactive)
    1  A    between atoms: C_7  and  C_10
    2  A    between atoms: C_7  and  C_15
    3  A    between atoms: C_10  and  C_25
                            x       y       z     vdW  Elec       q    Type
                         _______ _______ _______ _____ _____    ______ ____

>  <TORSDO>
F 3

$$$$
=
 OpenBabel10262421443D

 30 33  0  0  1  0  0  0  0  0999 V2000
  184.4420  177.6690  137.8140 C   0  0  0  0  0  0  0  0  0  0  0  0
  184.9880  178.1900  140.2540 C   0  0  1  0  0  3  0  0  0  0  0  0
  187.5400  177.8810  138.7150 C   0  0  1  0  0  3  0  0  0  0  0  0
  185.2240  176.4790  137.2170 C   0  0  2  0  0  3  0  0  0  0  0  0
  183.1110  177.8500  137.6540 C   0  0  0  0  0  3  0  0  0  0  0  0
  180.7810  175.0700  137.3590 O   0  0  0  0  0  0  0  0  0  0  0  0
  181.8720  175.7410  137.9160 C   0  0  2  0  0  3  0  0  0  0  0  0
  180.8640  177.3600  136.6280 C   0  0  0  0  0  2  0  0  0  0  0  0
  188.4030  177.4880  137.5900 N   0  0  0  0  0  0  0  0  0  0  0  0
  182.2240  176.8600  136.9760 C   0  0  1  0  0  3  0  0  0  0  0  0
  183.0250  174.8200  138.3480 C   0  0  0  0  0  2  0  0  0  0  0  0
  185.7600  179.1360  141.1680 C   0  0  0  0  0  2  0  0  0  0  0  0
  179.5300  175.6510  135.4010 C   0  0  0  0  0  1  0  0  0  0  0  0
  183.5400  178.1610  140.7100 C   0  0  0  0  0  1  0  0  0  0  0  0
  188.3610  178.2060  139.9520 C   0  0  0  0  0  2  0  0  0  0  0  0
  186.8320  178.4090  141.9810 C   0  0  0  0  0  2  0  0  0  0  0  0
  180.0110  176.0990  136.7680 C   0  0  1  0  0  3  0  0  0  0  0  0
  185.1120  178.6320  138.7790 C   0  0  1  0  0  3  0  0  0  0  0  0
  186.3090  176.9760  136.2580 C   0  0  0  0  0  2  0  0  0  0  0  0
  188.9050  178.6360  136.8400 C   0  0  0  0  0  1  0  0  0  0  0  0
  187.7340  176.5600  136.6660 C   0  0  2  0  0  3  0  0  0  0  0  0
  184.4110  175.6000  136.4790 O   0  0  0  0  0  0  0  0  0  0  0  0
  187.7470  177.5020  141.1540 C   0  0  0  0  0  2  0  0  0  0  0  0
  186.5460  179.0030  138.3790 C   0  0  0  0  0  2  0  0  0  0  0  0
  184.0910  174.4970  137.2890 C   0  0  0  0  0  2  0  0  0  0  0  0
  187.8300  175.1140  137.1520 C   0  0  0  0  0  2  0  0  0  0  0  0
  188.8660  174.3250  136.3640 C   0  0  1  0  0  3  0  0  0  0  0  0
  189.2910  175.1460  135.1650 C   0  0  0  0  0  1  0  0  0  0  0  0
  190.0900  174.0370  137.2190 C   0  0  0  0  0  2  0  0  0  0  0  0
  191.1610  175.0860  136.9900 C   0  0  0  0  0  1  0  0  0  0  0  0
  1 18  1  0  0  0  0
  2 14  1  1  0  0  0
  2 12  1  0  0  0  0
  3 24  1  6  0  0  0
  3 15  1  0  0  0  0
  4 19  1  6  0  0  0
  4  1  1  0  0  0  0
  5  1  2  0  0  0  0
  6  7  1  0  0  0  0
  7 11  1  6  0  0  0
  8 17  1  0  0  0  0
  9  3  1  0  0  0  0
 10  8  1  1  0  0  0
 10  5  1  0  0  0  0
 10  7  1  0  0  0  0
 12 16  1  0  0  0  0
 15 23  1  0  0  0  0
 17 13  1  6  0  0  0
 17  6  1  0  0  0  0
 18 24  1  6  0  0  0
 18  2  1  0  0  0  0
 19 21  1  0  0  0  0
 20  9  1  0  0  0  0
 21 26  1  1  0  0  0
 21  9  1  0  0  0  0
 22  4  1  0  0  0  0
 22 25  1  0  0  0  0
 23 16  1  0  0  0  0
 25 11  1  0  0  0  0
 27 28  1  6  0  0  0
 27 26  1  0  0  0  0
 27 29  1  0  0  0  0
 30 29  1  0  0  0  0
M  END
>  <MODEL>
9

>  <REMARK>
 VINA RESULT:      -4.2      3.194      6.780
  Name = 
  3 active torsions:
  status: ('A' for Active; 'I' for Inactive)
    1  A    between atoms: C_7  and  C_10
    2  A    between atoms: C_7  and  C_15
    3  A    between atoms: C_10  and  C_25
                            x       y       z     vdW  Elec       q    Type
                         _______ _______ _______ _____ _____    ______ ____

>  <TORSDO>
F 3

$$$$
