=
 OpenBabel10262421313D

 32 36  0  0  1  0  0  0  0  0999 V2000
  180.2710  179.5330  142.1830 N   0  0  0  0  0  0  0  0  0  0  0  0
  185.0520  178.0080  142.9730 C   0  0  0  0  0  0  0  0  0  0  0  0
  185.9110  178.8020  147.6920 C   0  0  0  0  0  3  0  0  0  0  0  0
  187.1310  178.2230  147.5470 N   0  0  0  0  0  0  0  0  0  0  0  0
  182.9650  178.6750  141.9510 C   0  0  0  0  0  0  0  0  0  0  0  0
  183.3320  179.0990  144.3050 C   0  0  0  0  0  3  0  0  0  0  0  0
  181.1950  179.7070  143.2380 N   0  0  0  0  0  2  0  0  0  0  0  0
  185.0550  178.9170  146.5980 C   0  0  0  0  0  3  0  0  0  0  0  0
  184.6120  178.5230  144.2180 C   0  0  0  0  0  0  0  0  0  0  0  0
  185.4570  178.4330  145.3440 C   0  0  0  0  0  0  0  0  0  0  0  0
  187.1700  177.3530  143.9630 C   0  0  0  0  0  0  0  0  0  0  0  0
  180.9700  179.6350  140.8900 C   0  0  0  0  0  2  0  0  0  0  0  0
  182.5160  179.1630  143.1750 C   0  0  0  0  0  0  0  0  0  0  0  0
  182.1250  178.7880  140.8430 O   0  0  0  0  0  0  0  0  0  0  0  0
  187.5570  177.7460  146.3480 C   0  0  0  0  0  3  0  0  0  0  0  0
  186.7380  177.8410  145.2120 C   0  0  0  0  0  0  0  0  0  0  0  0
  184.2260  178.0870  141.8460 C   0  0  0  0  0  3  0  0  0  0  0  0
  186.3140  177.4300  142.8600 C   0  0  0  0  0  3  0  0  0  0  0  0
  179.7020  178.1950  142.2940 C   0  0  0  0  0  2  0  0  0  0  0  0
  179.2020  177.7310  140.9370 C   0  0  0  0  0  2  0  0  0  0  0  0
  178.9320  176.3050  140.9780 N   0  0  0  0  0  2  0  0  0  0  0  0
  180.9480  175.6140  139.8260 C   0  0  0  0  0  1  0  0  0  0  0  0
  179.4410  175.7440  139.7390 C   0  0  0  0  0  2  0  0  0  0  0  0
  188.5340  176.7200  143.8020 C   0  0  0  0  0  2  0  0  0  0  0  0
  190.1750  177.0110  141.9350 C   0  0  1  0  0  3  0  0  0  0  0  0
  190.5890  178.0320  144.0890 C   0  0  2  0  0  3  0  0  0  0  0  0
  191.7360  178.5720  143.2740 C   0  0  0  0  0  2  0  0  0  0  0  0
  191.9410  177.4550  141.8680 S   0  0  0  0  0  0  0  0  0  0  0  0
  191.1160  176.9390  145.0170 C   0  0  0  0  0  1  0  0  0  0  0  0
  189.5600  177.5650  143.1510 N   0  0  0  0  0  0  0  0  0  0  0  0
  189.4940  177.5810  140.7030 C   0  0  0  0  0  2  0  0  0  0  0  0
  190.4000  177.6730  139.6470 O   0  0  0  0  0  1  0  0  0  0  0  0
  1 19  1  0  0  0  0
  1  7  1  0  0  0  0
  2  9  1  0  0  0  0
  4  3  1  0  0  0  0
  5 13  1  0  0  0  0
  8  3  2  0  0  0  0
  9  6  1  0  0  0  0
  9 10  2  0  0  0  0
 10  8  1  0  0  0  0
 11 16  2  0  0  0  0
 12  1  1  0  0  0  0
 13  7  1  0  0  0  0
 13  6  2  0  0  0  0
 14 12  1  0  0  0  0
 14  5  1  0  0  0  0
 15  4  2  0  0  0  0
 16 10  1  0  0  0  0
 16 15  1  0  0  0  0
 17  5  2  0  0  0  0
 17  2  1  0  0  0  0
 18  2  2  0  0  0  0
 18 11  1  0  0  0  0
 20 21  1  0  0  0  0
 20 19  1  0  0  0  0
 23 22  1  0  0  0  0
 23 21  1  0  0  0  0
 24 11  1  0  0  0  0
 25 31  1  6  0  0  0
 25 30  1  0  0  0  0
 26 29  1  6  0  0  0
 27 26  1  0  0  0  0
 28 25  1  0  0  0  0
 28 27  1  0  0  0  0
 30 24  1  0  0  0  0
 30 26  1  0  0  0  0
 32 31  1  0  0  0  0
M  END
>  <MODEL>
1

>  <REMARK>
 VINA RESULT:      -8.4      0.000      0.000
  Name = 
  7 active torsions:
  status: ('A' for Active; 'I' for Inactive)
    1  A    between atoms: N_1  and  C_10
    2  A    between atoms: N_1  and  C_20
    3  A    between atoms: N_2  and  C_24
    4  A    between atoms: C_6  and  C_7
    5  A    between atoms: C_10  and  C_24
    6  A    between atoms: C_16  and  C_27
    7  A    between atoms: C_27  and  N_32
                            x       y       z     vdW  Elec       q    Type
                         _______ _______ _______ _____ _____    ______ ____

>  <TORSDO>
F 7

$$$$
=
 OpenBabel10262421313D

 32 36  0  0  1  0  0  0  0  0999 V2000
  186.6370  178.5050  137.4100 N   0  0  0  0  0  0  0  0  0  0  0  0
  187.2200  177.8500  142.4130 C   0  0  0  0  0  0  0  0  0  0  0  0
  183.0660  179.3820  144.4220 C   0  0  0  0  0  3  0  0  0  0  0  0
  183.5280  178.9830  145.6350 N   0  0  0  0  0  0  0  0  0  0  0  0
  187.6090  178.0480  140.0350 C   0  0  0  0  0  0  0  0  0  0  0  0
  185.5200  178.8300  140.9740 C   0  0  0  0  0  3  0  0  0  0  0  0
  185.9310  178.9570  138.5470 N   0  0  0  0  0  2  0  0  0  0  0  0
  183.8540  179.2190  143.2830 C   0  0  0  0  0  3  0  0  0  0  0  0
  185.9460  178.4510  142.2600 C   0  0  0  0  0  0  0  0  0  0  0  0
  185.1270  178.6410  143.3920 C   0  0  0  0  0  0  0  0  0  0  0  0
  186.8730  177.6640  144.8090 C   0  0  0  0  0  0  0  0  0  0  0  0
  188.0850  178.5410  137.6780 C   0  0  0  0  0  2  0  0  0  0  0  0
  186.3500  178.6180  139.8720 C   0  0  0  0  0  0  0  0  0  0  0  0
  188.4140  177.8830  138.9080 O   0  0  0  0  0  0  0  0  0  0  0  0
  184.7580  178.4230  145.7810 C   0  0  0  0  0  3  0  0  0  0  0  0
  185.5940  178.2400  144.6690 C   0  0  0  0  0  0  0  0  0  0  0  0
  188.0450  177.6510  141.3000 C   0  0  0  0  0  3  0  0  0  0  0  0
  187.6650  177.4630  143.6750 C   0  0  0  0  0  3  0  0  0  0  0  0
  186.2520  177.1220  137.1550 C   0  0  0  0  0  2  0  0  0  0  0  0
  184.8070  177.0640  136.6920 C   0  0  0  0  0  2  0  0  0  0  0  0
  184.0700  176.1170  137.5120 N   0  0  0  0  0  2  0  0  0  0  0  0
  182.6210  176.0160  139.4520 C   0  0  0  0  0  1  0  0  0  0  0  0
  183.1650  176.8930  138.3410 C   0  0  0  0  0  2  0  0  0  0  0  0
  187.3900  177.2320  146.1630 C   0  0  0  0  0  2  0  0  0  0  0  0
  189.8390  176.7640  146.3760 C   0  0  1  0  0  3  0  0  0  0  0  0
  188.7740  178.3650  147.8450 C   0  0  2  0  0  3  0  0  0  0  0  0
  190.2210  178.5100  148.2410 C   0  0  0  0  0  2  0  0  0  0  0  0
  191.0530  176.9930  147.7150 S   0  0  0  0  0  0  0  0  0  0  0  0
  188.0440  177.5730  148.9280 C   0  0  0  0  0  1  0  0  0  0  0  0
  188.7370  177.7280  146.5220 N   0  0  0  0  0  0  0  0  0  0  0  0
  190.5470  176.9820  145.0490 C   0  0  0  0  0  2  0  0  0  0  0  0
  191.7550  176.2870  145.0250 O   0  0  0  0  0  1  0  0  0  0  0  0
  1 12  1  0  0  0  0
  1  7  1  0  0  0  0
  2 18  1  0  0  0  0
  3  4  1  0  0  0  0
  4 15  2  0  0  0  0
  5 17  1  0  0  0  0
  6  9  2  0  0  0  0
  7 13  1  0  0  0  0
  8 10  1  0  0  0  0
  8  3  2  0  0  0  0
  9  2  1  0  0  0  0
  9 10  1  0  0  0  0
 10 16  2  0  0  0  0
 11 24  1  0  0  0  0
 12 14  1  0  0  0  0
 13  5  2  0  0  0  0
 13  6  1  0  0  0  0
 14  5  1  0  0  0  0
 16 11  1  0  0  0  0
 16 15  1  0  0  0  0
 17  2  2  0  0  0  0
 18 11  2  0  0  0  0
 19  1  1  0  0  0  0
 20 19  1  0  0  0  0
 20 21  1  0  0  0  0
 21 23  1  0  0  0  0
 23 22  1  0  0  0  0
 24 30  1  0  0  0  0
 25 31  1  6  0  0  0
 25 30  1  0  0  0  0
 25 28  1  0  0  0  0
 26 27  1  0  0  0  0
 26 29  1  1  0  0  0
 28 27  1  0  0  0  0
 30 26  1  0  0  0  0
 32 31  1  0  0  0  0
M  END
>  <MODEL>
2

>  <REMARK>
 VINA RESULT:      -7.6      3.214      4.846
  Name = 
  7 active torsions:
  status: ('A' for Active; 'I' for Inactive)
    1  A    between atoms: N_1  and  C_10
    2  A    between atoms: N_1  and  C_20
    3  A    between atoms: N_2  and  C_24
    4  A    between atoms: C_6  and  C_7
    5  A    between atoms: C_10  and  C_24
    6  A    between atoms: C_16  and  C_27
    7  A    between atoms: C_27  and  N_32
                            x       y       z     vdW  Elec       q    Type
                         _______ _______ _______ _____ _____    ______ ____

>  <TORSDO>
F 7

$$$$
=
 OpenBabel10262421313D

 32 36  0  0  1  0  0  0  0  0999 V2000
  187.0240  178.4430  137.3980 N   0  0  0  0  0  0  0  0  0  0  0  0
  187.3870  177.8450  142.4290 C   0  0  0  0  0  0  0  0  0  0  0  0
  183.1310  179.3540  144.2320 C   0  0  0  0  0  3  0  0  0  0  0  0
  183.5430  178.9720  145.4690 N   0  0  0  0  0  0  0  0  0  0  0  0
  187.8810  178.0220  140.0690 C   0  0  0  0  0  0  0  0  0  0  0  0
  185.7440  178.7930  140.9040 C   0  0  0  0  0  3  0  0  0  0  0  0
  186.2630  178.8980  138.4980 N   0  0  0  0  0  2  0  0  0  0  0  0
  183.9720  179.1870  143.1320 C   0  0  0  0  0  3  0  0  0  0  0  0
  186.1150  178.4310  142.2120 C   0  0  0  0  0  0  0  0  0  0  0  0
  185.2450  178.6240  143.3050 C   0  0  0  0  0  0  0  0  0  0  0  0
  186.9340  177.6800  144.8090 C   0  0  0  0  0  0  0  0  0  0  0  0
  188.4580  178.4970  137.7310 C   0  0  0  0  0  2  0  0  0  0  0  0
  186.6250  178.5780  139.8440 C   0  0  0  0  0  0  0  0  0  0  0  0
  188.7380  177.8550  138.9810 O   0  0  0  0  0  0  0  0  0  0  0  0
  184.7700  178.4270  145.6760 C   0  0  0  0  0  3  0  0  0  0  0  0
  185.6570  178.2420  144.6050 C   0  0  0  0  0  0  0  0  0  0  0  0
  188.2630  177.6440  141.3570 C   0  0  0  0  0  3  0  0  0  0  0  0
  187.7790  177.4760  143.7140 C   0  0  0  0  0  3  0  0  0  0  0  0
  186.6650  177.0530  137.1410 C   0  0  0  0  0  2  0  0  0  0  0  0
  187.6410  176.4400  136.1520 C   0  0  0  0  0  2  0  0  0  0  0  0
  188.0960  175.1540  136.6500 N   0  0  0  0  0  2  0  0  0  0  0  0
  190.3850  175.0040  137.4310 C   0  0  0  0  0  1  0  0  0  0  0  0
  189.4740  174.9990  136.2200 C   0  0  0  0  0  2  0  0  0  0  0  0
  187.3940  177.2670  146.1890 C   0  0  0  0  0  2  0  0  0  0  0  0
  189.8380  176.8190  146.4880 C   0  0  1  0  0  3  0  0  0  0  0  0
  188.7070  178.4030  147.9260 C   0  0  2  0  0  3  0  0  0  0  0  0
  190.1370  178.5570  148.3740 C   0  0  0  0  0  2  0  0  0  0  0  0
  191.0010  177.0510  147.8710 S   0  0  0  0  0  0  0  0  0  0  0  0
  187.9450  177.5990  148.9780 C   0  0  0  0  0  1  0  0  0  0  0  0
  188.7230  177.7730  146.5990 N   0  0  0  0  0  0  0  0  0  0  0  0
  190.5910  177.0500  145.1890 C   0  0  0  0  0  2  0  0  0  0  0  0
  191.9500  177.2290  145.4430 O   0  0  0  0  0  1  0  0  0  0  0  0
  1 12  1  0  0  0  0
  1  7  1  0  0  0  0
  2 18  1  0  0  0  0
  3  4  1  0  0  0  0
  4 15  2  0  0  0  0
  5 17  1  0  0  0  0
  6  9  2  0  0  0  0
  7 13  1  0  0  0  0
  8 10  1  0  0  0  0
  8  3  2  0  0  0  0
  9  2  1  0  0  0  0
  9 10  1  0  0  0  0
 10 16  2  0  0  0  0
 11 24  1  0  0  0  0
 12 14  1  0  0  0  0
 13  5  2  0  0  0  0
 13  6  1  0  0  0  0
 14  5  1  0  0  0  0
 16 11  1  0  0  0  0
 16 15  1  0  0  0  0
 17  2  2  0  0  0  0
 18 11  2  0  0  0  0
 19  1  1  0  0  0  0
 20 21  1  0  0  0  0
 20 19  1  0  0  0  0
 23 21  1  0  0  0  0
 23 22  1  0  0  0  0
 24 30  1  0  0  0  0
 25 31  1  6  0  0  0
 25 30  1  0  0  0  0
 25 28  1  0  0  0  0
 26 27  1  0  0  0  0
 26 29  1  1  0  0  0
 28 27  1  0  0  0  0
 30 26  1  0  0  0  0
 31 32  1  0  0  0  0
M  END
>  <MODEL>
3

>  <REMARK>
 VINA RESULT:      -7.5      3.406      5.862
  Name = 
  7 active torsions:
  status: ('A' for Active; 'I' for Inactive)
    1  A    between atoms: N_1  and  C_10
    2  A    between atoms: N_1  and  C_20
    3  A    between atoms: N_2  and  C_24
    4  A    between atoms: C_6  and  C_7
    5  A    between atoms: C_10  and  C_24
    6  A    between atoms: C_16  and  C_27
    7  A    between atoms: C_27  and  N_32
                            x       y       z     vdW  Elec       q    Type
                         _______ _______ _______ _____ _____    ______ ____

>  <TORSDO>
F 7

$$$$
=
 OpenBabel10262421313D

 32 36  0  0  1  0  0  0  0  0999 V2000
  191.4020  177.9560  144.4750 N   0  0  0  0  0  0  0  0  0  0  0  0
  189.5280  177.1840  139.8170 C   0  0  0  0  0  0  0  0  0  0  0  0
  193.3430  175.9630  137.0620 C   0  0  0  0  0  3  0  0  0  0  0  0
  192.4980  175.7520  136.0200 N   0  0  0  0  0  0  0  0  0  0  0  0
  189.8080  177.8200  142.1330 C   0  0  0  0  0  0  0  0  0  0  0  0
  191.7480  177.2250  140.8140 C   0  0  0  0  0  3  0  0  0  0  0  0
  191.9830  177.8200  143.1930 N   0  0  0  0  0  2  0  0  0  0  0  0
  192.8450  176.3830  138.2940 C   0  0  0  0  0  3  0  0  0  0  0  0
  190.9280  177.0020  139.6930 C   0  0  0  0  0  0  0  0  0  0  0  0
  191.4670  176.5880  138.4570 C   0  0  0  0  0  0  0  0  0  0  0  0
  189.2160  176.5770  137.4870 C   0  0  0  0  0  0  0  0  0  0  0  0
  190.1640  178.7490  144.3770 C   0  0  0  0  0  2  0  0  0  0  0  0
  191.1810  177.6230  142.0250 C   0  0  0  0  0  0  0  0  0  0  0  0
  189.2920  178.2470  143.3560 O   0  0  0  0  0  0  0  0  0  0  0  0
  191.1580  175.9440  136.1380 C   0  0  0  0  0  3  0  0  0  0  0  0
  190.6040  176.3710  137.3540 C   0  0  0  0  0  0  0  0  0  0  0  0
  188.9750  177.5910  141.0360 C   0  0  0  0  0  3  0  0  0  0  0  0
  188.6930  176.9670  138.7230 C   0  0  0  0  0  3  0  0  0  0  0  0
  191.0580  176.6260  144.9610 C   0  0  0  0  0  2  0  0  0  0  0  0
  191.8240  176.3270  146.2380 C   0  0  0  0  0  2  0  0  0  0  0  0
  191.2300  177.0560  147.3450 N   0  0  0  0  0  2  0  0  0  0  0  0
  189.0430  177.8790  147.9880 C   0  0  0  0  0  1  0  0  0  0  0  0
  189.8120  176.7420  147.3440 C   0  0  0  0  0  2  0  0  0  0  0  0
  188.2790  176.3530  136.3210 C   0  0  0  0  0  2  0  0  0  0  0  0
  186.5590  174.5430  136.1510 C   0  0  1  0  0  3  0  0  0  0  0  0
  185.8760  176.8530  136.3760 C   0  0  2  0  0  3  0  0  0  0  0  0
  184.5500  176.1390  136.4420 C   0  0  0  0  0  2  0  0  0  0  0  0
  184.7990  174.5180  135.6810 S   0  0  0  0  0  0  0  0  0  0  0  0
  186.0160  177.5050  135.0010 C   0  0  0  0  0  1  0  0  0  0  0  0
  186.9250  175.8690  136.6720 N   0  0  0  0  0  0  0  0  0  0  0  0
  186.7810  173.4860  137.2190 C   0  0  0  0  0  2  0  0  0  0  0  0
  185.5590  173.0480  137.7290 O   0  0  0  0  0  1  0  0  0  0  0  0
  1 19  1  0  0  0  0
  2 17  1  0  0  0  0
  3  8  1  0  0  0  0
  4 15  1  0  0  0  0
  4  3  2  0  0  0  0
  5 14  1  0  0  0  0
  6 13  2  0  0  0  0
  7  1  1  0  0  0  0
  8 10  2  0  0  0  0
  9  2  2  0  0  0  0
  9  6  1  0  0  0  0
 10  9  1  0  0  0  0
 11 18  2  0  0  0  0
 12  1  1  0  0  0  0
 13  5  1  0  0  0  0
 13  7  1  0  0  0  0
 14 12  1  0  0  0  0
 15 16  2  0  0  0  0
 16 11  1  0  0  0  0
 16 10  1  0  0  0  0
 17  5  2  0  0  0  0
 18  2  1  0  0  0  0
 19 20  1  0  0  0  0
 20 21  1  0  0  0  0
 23 21  1  0  0  0  0
 23 22  1  0  0  0  0
 24 30  1  0  0  0  0
 24 11  1  0  0  0  0
 25 30  1  0  0  0  0
 25 31  1  1  0  0  0
 26 29  1  6  0  0  0
 26 27  1  0  0  0  0
 26 30  1  0  0  0  0
 28 25  1  0  0  0  0
 28 27  1  0  0  0  0
 31 32  1  0  0  0  0
M  END
>  <MODEL>
4

>  <REMARK>
 VINA RESULT:      -7.2      5.523      9.769
  Name = 
  7 active torsions:
  status: ('A' for Active; 'I' for Inactive)
    1  A    between atoms: N_1  and  C_10
    2  A    between atoms: N_1  and  C_20
    3  A    between atoms: N_2  and  C_24
    4  A    between atoms: C_6  and  C_7
    5  A    between atoms: C_10  and  C_24
    6  A    between atoms: C_16  and  C_27
    7  A    between atoms: C_27  and  N_32
                            x       y       z     vdW  Elec       q    Type
                         _______ _______ _______ _____ _____    ______ ____

>  <TORSDO>
F 7

$$$$
=
 OpenBabel10262421313D

 32 36  0  0  1  0  0  0  0  0999 V2000
  190.7460  176.2610  147.4980 N   0  0  0  0  0  0  0  0  0  0  0  0
  189.7250  177.4490  142.6650 C   0  0  0  0  0  0  0  0  0  0  0  0
  184.9350  178.2630  142.5060 C   0  0  0  0  0  3  0  0  0  0  0  0
  185.0590  178.6230  141.2020 N   0  0  0  0  0  0  0  0  0  0  0  0
  190.8010  176.6930  144.6950 C   0  0  0  0  0  0  0  0  0  0  0  0
  188.4120  177.0790  144.6800 C   0  0  0  0  0  3  0  0  0  0  0  0
  189.5560  176.3690  146.7440 N   0  0  0  0  0  2  0  0  0  0  0  0
  186.0560  177.8650  143.2330 C   0  0  0  0  0  3  0  0  0  0  0  0
  188.4710  177.4500  143.3250 C   0  0  0  0  0  0  0  0  0  0  0  0
  187.3150  177.8370  142.6150 C   0  0  0  0  0  0  0  0  0  0  0  0
  188.6720  178.1790  140.6030 C   0  0  0  0  0  0  0  0  0  0  0  0
  191.8000  175.6410  146.6750 C   0  0  0  0  0  2  0  0  0  0  0  0
  189.5760  176.7130  145.3560 C   0  0  0  0  0  0  0  0  0  0  0  0
  191.9320  176.2910  145.4040 O   0  0  0  0  0  0  0  0  0  0  0  0
  186.2610  178.6030  140.5680 C   0  0  0  0  0  3  0  0  0  0  0  0
  187.4210  178.2060  141.2510 C   0  0  0  0  0  0  0  0  0  0  0  0
  190.8840  177.0710  143.3540 C   0  0  0  0  0  3  0  0  0  0  0  0
  189.8130  177.8140  141.3240 C   0  0  0  0  0  3  0  0  0  0  0  0
  191.1780  177.6060  147.8600 C   0  0  0  0  0  2  0  0  0  0  0  0
  190.2150  178.2040  148.8700 C   0  0  0  0  0  2  0  0  0  0  0  0
  189.1230  178.8610  148.1740 N   0  0  0  0  0  2  0  0  0  0  0  0
  186.7900  178.4590  147.6550 C   0  0  0  0  0  1  0  0  0  0  0  0
  187.8910  178.2830  148.6810 C   0  0  0  0  0  2  0  0  0  0  0  0
  188.8050  178.5680  139.1480 C   0  0  0  0  0  2  0  0  0  0  0  0
  190.1030  177.4560  137.3200 C   0  0  1  0  0  3  0  0  0  0  0  0
  187.6950  177.2410  137.4060 C   0  0  2  0  0  3  0  0  0  0  0  0
  188.0370  176.3280  136.2570 C   0  0  0  0  0  2  0  0  0  0  0  0
  189.6680  176.8370  135.6630 S   0  0  0  0  0  0  0  0  0  0  0  0
  187.1020  178.5340  136.8480 C   0  0  0  0  0  1  0  0  0  0  0  0
  188.9190  177.4440  138.1920 N   0  0  0  0  0  0  0  0  0  0  0  0
  191.1810  176.5540  137.8960 C   0  0  0  0  0  2  0  0  0  0  0  0
  190.6060  175.5350  138.6540 O   0  0  0  0  0  1  0  0  0  0  0  0
  1 19  1  0  0  0  0
  2  9  2  0  0  0  0
  2 17  1  0  0  0  0
  3  8  1  0  0  0  0
  4  3  2  0  0  0  0
  5 13  1  0  0  0  0
  5 14  1  0  0  0  0
  6 13  2  0  0  0  0
  7  1  1  0  0  0  0
  9  6  1  0  0  0  0
 10  8  2  0  0  0  0
 10  9  1  0  0  0  0
 11 16  1  0  0  0  0
 11 18  2  0  0  0  0
 12  1  1  0  0  0  0
 13  7  1  0  0  0  0
 14 12  1  0  0  0  0
 15  4  1  0  0  0  0
 15 16  2  0  0  0  0
 16 10  1  0  0  0  0
 17  5  2  0  0  0  0
 18  2  1  0  0  0  0
 19 20  1  0  0  0  0
 21 23  1  0  0  0  0
 21 20  1  0  0  0  0
 22 23  1  0  0  0  0
 24 11  1  0  0  0  0
 25 31  1  1  0  0  0
 25 30  1  0  0  0  0
 26 29  1  6  0  0  0
 26 30  1  0  0  0  0
 27 26  1  0  0  0  0
 28 27  1  0  0  0  0
 28 25  1  0  0  0  0
 30 24  1  0  0  0  0
 31 32  1  0  0  0  0
M  END
>  <MODEL>
5

>  <REMARK>
 VINA RESULT:      -6.8      3.751      8.046
  Name = 
  7 active torsions:
  status: ('A' for Active; 'I' for Inactive)
    1  A    between atoms: N_1  and  C_10
    2  A    between atoms: N_1  and  C_20
    3  A    between atoms: N_2  and  C_24
    4  A    between atoms: C_6  and  C_7
    5  A    between atoms: C_10  and  C_24
    6  A    between atoms: C_16  and  C_27
    7  A    between atoms: C_27  and  N_32
                            x       y       z     vdW  Elec       q    Type
                         _______ _______ _______ _____ _____    ______ ____

>  <TORSDO>
F 7

$$$$
=
 OpenBabel10262421313D

 32 36  0  0  1  0  0  0  0  0999 V2000
  191.9630  177.5500  143.7950 N   0  0  0  0  0  0  0  0  0  0  0  0
  188.3540  178.0060  140.2490 C   0  0  0  0  0  0  0  0  0  0  0  0
  189.8720  175.3220  136.4900 C   0  0  0  0  0  3  0  0  0  0  0  0
  188.7020  175.5870  135.8530 N   0  0  0  0  0  0  0  0  0  0  0  0
  189.7330  178.3040  142.2130 C   0  0  0  0  0  0  0  0  0  0  0  0
  190.5470  176.9570  140.3740 C   0  0  0  0  0  3  0  0  0  0  0  0
  191.8940  177.2360  142.4190 N   0  0  0  0  0  2  0  0  0  0  0  0
  190.1170  175.8520  137.7560 C   0  0  0  0  0  3  0  0  0  0  0  0
  189.3620  177.2050  139.6570 C   0  0  0  0  0  0  0  0  0  0  0  0
  189.1510  176.6620  138.3730 C   0  0  0  0  0  0  0  0  0  0  0  0
  186.9570  177.7500  138.2790 C   0  0  0  0  0  0  0  0  0  0  0  0
  191.2780  178.8300  144.0460 C   0  0  0  0  0  2  0  0  0  0  0  0
  190.7180  177.5010  141.6480 C   0  0  0  0  0  0  0  0  0  0  0  0
  189.9630  178.8490  143.4760 O   0  0  0  0  0  0  0  0  0  0  0  0
  187.7450  176.3710  136.4170 C   0  0  0  0  0  3  0  0  0  0  0  0
  187.9420  176.9340  137.6870 C   0  0  0  0  0  0  0  0  0  0  0  0
  188.5440  178.5510  141.5240 C   0  0  0  0  0  3  0  0  0  0  0  0
  187.1710  178.2650  139.5620 C   0  0  0  0  0  3  0  0  0  0  0  0
  191.2680  176.5040  144.5350 C   0  0  0  0  0  2  0  0  0  0  0  0
  191.3050  176.8090  146.0220 C   0  0  0  0  0  2  0  0  0  0  0  0
  190.0390  176.4370  146.6290 N   0  0  0  0  0  2  0  0  0  0  0  0
  188.0390  177.7370  146.2020 C   0  0  0  0  0  1  0  0  0  0  0  0
  189.3500  177.6730  146.9580 C   0  0  0  0  0  2  0  0  0  0  0  0
  185.6610  178.0530  137.5630 C   0  0  0  0  0  2  0  0  0  0  0  0
  183.5870  176.8340  136.8730 C   0  0  1  0  0  3  0  0  0  0  0  0
  183.7550  177.7900  139.0890 C   0  0  2  0  0  3  0  0  0  0  0  0
  182.4350  177.0670  139.1720 C   0  0  0  0  0  2  0  0  0  0  0  0
  181.8670  176.8350  137.4720 S   0  0  0  0  0  0  0  0  0  0  0  0
  183.4890  179.2880  138.9600 C   0  0  0  0  0  1  0  0  0  0  0  0
  184.5010  177.2230  137.9580 N   0  0  0  0  0  0  0  0  0  0  0  0
  183.9210  175.4330  136.3900 C   0  0  0  0  0  2  0  0  0  0  0  0
  184.4680  174.6800  137.4280 O   0  0  0  0  0  1  0  0  0  0  0  0
  1 12  1  0  0  0  0
  1 19  1  0  0  0  0
  2 17  1  0  0  0  0
  3  8  1  0  0  0  0
  4 15  1  0  0  0  0
  4  3  2  0  0  0  0
  5 14  1  0  0  0  0
  6 13  2  0  0  0  0
  7  1  1  0  0  0  0
  8 10  2  0  0  0  0
  9  2  2  0  0  0  0
  9  6  1  0  0  0  0
 10  9  1  0  0  0  0
 11 18  2  0  0  0  0
 13  5  1  0  0  0  0
 13  7  1  0  0  0  0
 14 12  1  0  0  0  0
 15 16  2  0  0  0  0
 16 11  1  0  0  0  0
 16 10  1  0  0  0  0
 17  5  2  0  0  0  0
 18  2  1  0  0  0  0
 19 20  1  0  0  0  0
 20 21  1  0  0  0  0
 21 23  1  0  0  0  0
 22 23  1  0  0  0  0
 24 30  1  0  0  0  0
 24 11  1  0  0  0  0
 25 31  1  1  0  0  0
 25 28  1  0  0  0  0
 25 30  1  0  0  0  0
 26 29  1  6  0  0  0
 26 27  1  0  0  0  0
 28 27  1  0  0  0  0
 30 26  1  0  0  0  0
 31 32  1  0  0  0  0
M  END
>  <MODEL>
6

>  <REMARK>
 VINA RESULT:      -6.8      4.047      9.350
  Name = 
  7 active torsions:
  status: ('A' for Active; 'I' for Inactive)
    1  A    between atoms: N_1  and  C_10
    2  A    between atoms: N_1  and  C_20
    3  A    between atoms: N_2  and  C_24
    4  A    between atoms: C_6  and  C_7
    5  A    between atoms: C_10  and  C_24
    6  A    between atoms: C_16  and  C_27
    7  A    between atoms: C_27  and  N_32
                            x       y       z     vdW  Elec       q    Type
                         _______ _______ _______ _____ _____    ______ ____

>  <TORSDO>
F 7

$$$$
=
 OpenBabel10262421313D

 32 36  0  0  1  0  0  0  0  0999 V2000
  190.4820  176.4570  143.8410 N   0  0  0  0  0  0  0  0  0  0  0  0
  186.5130  178.2330  141.2140 C   0  0  0  0  0  0  0  0  0  0  0  0
  182.8990  178.6540  144.4380 C   0  0  0  0  0  3  0  0  0  0  0  0
  182.1240  179.2050  143.4670 N   0  0  0  0  0  0  0  0  0  0  0  0
  188.6490  177.2890  141.8430 C   0  0  0  0  0  0  0  0  0  0  0  0
  186.8890  177.4700  143.4940 C   0  0  0  0  0  3  0  0  0  0  0  0
  189.0990  176.5710  144.1090 N   0  0  0  0  0  2  0  0  0  0  0  0
  184.2020  178.2530  144.1500 C   0  0  0  0  0  3  0  0  0  0  0  0
  186.0320  178.0340  142.5320 C   0  0  0  0  0  0  0  0  0  0  0  0
  184.7140  178.4190  142.8540 C   0  0  0  0  0  0  0  0  0  0  0  0
  184.3710  179.1580  140.5430 C   0  0  0  0  0  0  0  0  0  0  0  0
  190.6840  176.0530  142.4390 C   0  0  0  0  0  2  0  0  0  0  0  0
  188.1910  177.1100  143.1450 C   0  0  0  0  0  0  0  0  0  0  0  0
  189.9480  176.8860  141.5340 O   0  0  0  0  0  0  0  0  0  0  0  0
  182.5830  179.3780  142.2000 C   0  0  0  0  0  3  0  0  0  0  0  0
  183.8860  178.9870  141.8550 C   0  0  0  0  0  0  0  0  0  0  0  0
  187.8190  177.8590  140.8760 C   0  0  0  0  0  3  0  0  0  0  0  0
  185.6870  178.7910  140.2420 C   0  0  0  0  0  3  0  0  0  0  0  0
  191.0910  177.7680  144.0330 C   0  0  0  0  0  2  0  0  0  0  0  0
  191.3550  178.0060  145.5090 C   0  0  0  0  0  2  0  0  0  0  0  0
  191.8090  176.7730  146.1280 N   0  0  0  0  0  2  0  0  0  0  0  0
  189.7880  177.0670  147.4310 C   0  0  0  0  0  1  0  0  0  0  0  0
  191.2700  176.7550  147.4760 C   0  0  0  0  0  2  0  0  0  0  0  0
  183.5030  179.7610  139.4620 C   0  0  0  0  0  2  0  0  0  0  0  0
  182.9640  178.1140  137.6560 C   0  0  1  0  0  3  0  0  0  0  0  0
  181.2170  179.4910  138.6070 C   0  0  2  0  0  3  0  0  0  0  0  0
  180.4270  178.5940  137.6880 C   0  0  0  0  0  2  0  0  0  0  0  0
  181.5950  177.9520  136.4660 S   0  0  0  0  0  0  0  0  0  0  0  0
  181.3290  180.8740  137.9690 C   0  0  0  0  0  1  0  0  0  0  0  0
  182.5130  178.8450  138.8500 N   0  0  0  0  0  0  0  0  0  0  0  0
  183.4230  176.7190  138.0450 C   0  0  0  0  0  2  0  0  0  0  0  0
  182.7700  176.2990  139.2030 O   0  0  0  0  0  1  0  0  0  0  0  0
  1 19  1  0  0  0  0
  1  7  1  0  0  0  0
  2  9  1  0  0  0  0
  4  3  2  0  0  0  0
  5 13  2  0  0  0  0
  8  3  1  0  0  0  0
  9 10  1  0  0  0  0
  9  6  2  0  0  0  0
 10  8  2  0  0  0  0
 11 16  1  0  0  0  0
 12  1  1  0  0  0  0
 13  6  1  0  0  0  0
 13  7  1  0  0  0  0
 14  5  1  0  0  0  0
 14 12  1  0  0  0  0
 15  4  1  0  0  0  0
 16 15  2  0  0  0  0
 16 10  1  0  0  0  0
 17  2  2  0  0  0  0
 17  5  1  0  0  0  0
 18 11  2  0  0  0  0
 18  2  1  0  0  0  0
 19 20  1  0  0  0  0
 20 21  1  0  0  0  0
 21 23  1  0  0  0  0
 22 23  1  0  0  0  0
 24 11  1  0  0  0  0
 25 31  1  1  0  0  0
 25 30  1  0  0  0  0
 26 29  1  6  0  0  0
 26 30  1  0  0  0  0
 27 26  1  0  0  0  0
 28 25  1  0  0  0  0
 28 27  1  0  0  0  0
 30 24  1  0  0  0  0
 31 32  1  0  0  0  0
M  END
>  <MODEL>
7

>  <REMARK>
 VINA RESULT:      -6.8      3.057      8.584
  Name = 
  7 active torsions:
  status: ('A' for Active; 'I' for Inactive)
    1  A    between atoms: N_1  and  C_10
    2  A    between atoms: N_1  and  C_20
    3  A    between atoms: N_2  and  C_24
    4  A    between atoms: C_6  and  C_7
    5  A    between atoms: C_10  and  C_24
    6  A    between atoms: C_16  and  C_27
    7  A    between atoms: C_27  and  N_32
                            x       y       z     vdW  Elec       q    Type
                         _______ _______ _______ _____ _____    ______ ____

>  <TORSDO>
F 7

$$$$
=
 OpenBabel10262421313D

 32 36  0  0  1  0  0  0  0  0999 V2000
  179.9250  179.0240  140.8800 N   0  0  0  0  0  0  0  0  0  0  0  0
  184.9460  178.6900  141.5710 C   0  0  0  0  0  0  0  0  0  0  0  0
  186.8240  177.9480  137.1490 C   0  0  0  0  0  3  0  0  0  0  0  0
  188.0690  178.0160  137.6880 N   0  0  0  0  0  0  0  0  0  0  0  0
  182.5550  178.7900  141.9150 C   0  0  0  0  0  0  0  0  0  0  0  0
  183.4270  178.4170  139.6890 C   0  0  0  0  0  3  0  0  0  0  0  0
  180.9990  178.5870  140.0740 N   0  0  0  0  0  2  0  0  0  0  0  0
  185.7000  178.0910  137.9610 C   0  0  0  0  0  3  0  0  0  0  0  0
  184.7420  178.4620  140.1870 C   0  0  0  0  0  0  0  0  0  0  0  0
  185.8570  178.3040  139.3390 C   0  0  0  0  0  0  0  0  0  0  0  0
  187.3510  178.5660  141.2640 C   0  0  0  0  0  0  0  0  0  0  0  0
  180.1350  178.5820  142.2690 C   0  0  0  0  0  2  0  0  0  0  0  0
  182.3460  178.5890  140.5540 C   0  0  0  0  0  0  0  0  0  0  0  0
  181.4420  178.9270  142.7450 O   0  0  0  0  0  0  0  0  0  0  0  0
  188.2610  178.2160  139.0180 C   0  0  0  0  0  3  0  0  0  0  0  0
  187.1650  178.3610  139.8820 C   0  0  0  0  0  0  0  0  0  0  0  0
  183.8510  178.8530  142.4280 C   0  0  0  0  0  3  0  0  0  0  0  0
  186.2370  178.7420  142.0900 C   0  0  0  0  0  3  0  0  0  0  0  0
  179.9060  180.4820  140.8610 C   0  0  0  0  0  2  0  0  0  0  0  0
  179.0900  180.9740  139.6790 C   0  0  0  0  0  2  0  0  0  0  0  0
  179.5570  182.2910  139.2780 N   0  0  0  0  0  2  0  0  0  0  0  0
  180.4350  183.3130  137.2650 C   0  0  0  0  0  1  0  0  0  0  0  0
  179.3910  182.3760  137.8380 C   0  0  0  0  0  2  0  0  0  0  0  0
  188.7380  178.6280  141.8630 C   0  0  0  0  0  2  0  0  0  0  0  0
  189.5910  177.8870  144.0960 C   0  0  1  0  0  3  0  0  0  0  0  0
  190.0010  176.5390  142.1300 C   0  0  2  0  0  3  0  0  0  0  0  0
  190.5620  175.6610  143.2190 C   0  0  0  0  0  2  0  0  0  0  0  0
  190.9050  176.7430  144.6260 S   0  0  0  0  0  0  0  0  0  0  0  0
  191.1590  177.1830  141.3700 C   0  0  0  0  0  1  0  0  0  0  0  0
  189.0980  177.5090  142.7630 N   0  0  0  0  0  0  0  0  0  0  0  0
  188.4590  177.8130  145.1080 C   0  0  0  0  0  2  0  0  0  0  0  0
  188.8740  177.1270  146.2480 O   0  0  0  0  0  1  0  0  0  0  0  0
  1 12  1  0  0  0  0
  2 18  1  0  0  0  0
  2 17  1  0  0  0  0
  3  4  2  0  0  0  0
  3  8  1  0  0  0  0
  4 15  1  0  0  0  0
  5 17  2  0  0  0  0
  5 14  1  0  0  0  0
  6  9  1  0  0  0  0
  6 13  2  0  0  0  0
  7 13  1  0  0  0  0
  7  1  1  0  0  0  0
  8 10  2  0  0  0  0
  9  2  2  0  0  0  0
 10 16  1  0  0  0  0
 10  9  1  0  0  0  0
 11 24  1  0  0  0  0
 11 18  2  0  0  0  0
 12 14  1  0  0  0  0
 13  5  1  0  0  0  0
 15 16  2  0  0  0  0
 16 11  1  0  0  0  0
 19  1  1  0  0  0  0
 20 19  1  0  0  0  0
 21 20  1  0  0  0  0
 22 23  1  0  0  0  0
 23 21  1  0  0  0  0
 24 30  1  0  0  0  0
 25 28  1  0  0  0  0
 25 31  1  1  0  0  0
 26 29  1  1  0  0  0
 26 30  1  0  0  0  0
 26 27  1  0  0  0  0
 27 28  1  0  0  0  0
 30 25  1  0  0  0  0
 31 32  1  0  0  0  0
M  END
>  <MODEL>
8

>  <REMARK>
 VINA RESULT:      -6.7      2.858      4.933
  Name = 
  7 active torsions:
  status: ('A' for Active; 'I' for Inactive)
    1  A    between atoms: N_1  and  C_10
    2  A    between atoms: N_1  and  C_20
    3  A    between atoms: N_2  and  C_24
    4  A    between atoms: C_6  and  C_7
    5  A    between atoms: C_10  and  C_24
    6  A    between atoms: C_16  and  C_27
    7  A    between atoms: C_27  and  N_32
                            x       y       z     vdW  Elec       q    Type
                         _______ _______ _______ _____ _____    ______ ____

>  <TORSDO>
F 7

$$$$
=
 OpenBabel10262421313D

 32 36  0  0  1  0  0  0  0  0999 V2000
  179.9070  178.6120  142.2220 N   0  0  0  0  0  0  0  0  0  0  0  0
  184.9490  178.8060  141.6370 C   0  0  0  0  0  0  0  0  0  0  0  0
  186.8110  177.5570  145.9500 C   0  0  0  0  0  3  0  0  0  0  0  0
  188.0550  177.6160  145.4080 N   0  0  0  0  0  0  0  0  0  0  0  0
  182.5630  179.0380  141.3230 C   0  0  0  0  0  0  0  0  0  0  0  0
  183.4270  178.4150  143.4960 C   0  0  0  0  0  3  0  0  0  0  0  0
  181.0000  178.6030  143.1170 N   0  0  0  0  0  2  0  0  0  0  0  0
  185.6920  177.8410  145.1690 C   0  0  0  0  0  3  0  0  0  0  0  0
  184.7420  178.4720  142.9980 C   0  0  0  0  0  0  0  0  0  0  0  0
  185.8530  178.1890  143.8200 C   0  0  0  0  0  0  0  0  0  0  0  0
  187.3520  178.6090  141.9260 C   0  0  0  0  0  0  0  0  0  0  0  0
  180.1720  179.5580  141.1240 C   0  0  0  0  0  2  0  0  0  0  0  0
  182.3500  178.6900  142.6530 C   0  0  0  0  0  0  0  0  0  0  0  0
  181.4550  179.3330  140.5270 O   0  0  0  0  0  0  0  0  0  0  0  0
  188.2510  177.9540  144.1060 C   0  0  0  0  0  3  0  0  0  0  0  0
  187.1600  178.2540  143.2770 C   0  0  0  0  0  0  0  0  0  0  0  0
  183.8580  179.0870  140.8060 C   0  0  0  0  0  3  0  0  0  0  0  0
  186.2400  178.8670  141.1180 C   0  0  0  0  0  3  0  0  0  0  0  0
  179.7740  177.2760  141.6530 C   0  0  0  0  0  2  0  0  0  0  0  0
  178.9310  177.3310  140.3920 C   0  0  0  0  0  2  0  0  0  0  0  0
  179.6830  176.7810  139.2770 N   0  0  0  0  0  2  0  0  0  0  0  0
  181.4790  175.2530  138.7210 C   0  0  0  0  0  1  0  0  0  0  0  0
  180.6390  175.8410  139.8360 C   0  0  0  0  0  2  0  0  0  0  0  0
  188.7390  178.6860  141.3290 C   0  0  0  0  0  2  0  0  0  0  0  0
  190.6630  177.1590  140.8500 C   0  0  1  0  0  3  0  0  0  0  0  0
  188.8330  177.3400  139.2770 C   0  0  2  0  0  3  0  0  0  0  0  0
  189.6600  176.2460  138.6520 C   0  0  0  0  0  2  0  0  0  0  0  0
  191.3290  176.4120  139.3280 S   0  0  0  0  0  0  0  0  0  0  0  0
  189.0410  178.6290  138.4830 C   0  0  0  0  0  1  0  0  0  0  0  0
  189.2290  177.4450  140.6870 N   0  0  0  0  0  0  0  0  0  0  0  0
  190.8710  176.1790  141.9920 C   0  0  0  0  0  2  0  0  0  0  0  0
  191.5200  176.8060  143.0550 O   0  0  0  0  0  1  0  0  0  0  0  0
  1  7  1  0  0  0  0
  2  9  1  0  0  0  0
  4  3  1  0  0  0  0
  5 13  1  0  0  0  0
  8  3  2  0  0  0  0
  9  6  1  0  0  0  0
  9 10  2  0  0  0  0
 10  8  1  0  0  0  0
 11 16  2  0  0  0  0
 12  1  1  0  0  0  0
 13  7  1  0  0  0  0
 13  6  2  0  0  0  0
 14 12  1  0  0  0  0
 14  5  1  0  0  0  0
 15  4  2  0  0  0  0
 16 10  1  0  0  0  0
 16 15  1  0  0  0  0
 17  5  2  0  0  0  0
 17  2  1  0  0  0  0
 18  2  2  0  0  0  0
 18 11  1  0  0  0  0
 19  1  1  0  0  0  0
 20 19  1  0  0  0  0
 21 23  1  0  0  0  0
 21 20  1  0  0  0  0
 22 23  1  0  0  0  0
 24 11  1  0  0  0  0
 25 31  1  1  0  0  0
 26 29  1  6  0  0  0
 26 30  1  0  0  0  0
 27 26  1  0  0  0  0
 27 28  1  0  0  0  0
 28 25  1  0  0  0  0
 30 25  1  0  0  0  0
 30 24  1  0  0  0  0
 31 32  1  0  0  0  0
M  END
>  <MODEL>
9

>  <REMARK>
 VINA RESULT:      -6.6      1.688      2.568
  Name = 
  7 active torsions:
  status: ('A' for Active; 'I' for Inactive)
    1  A    between atoms: N_1  and  C_10
    2  A    between atoms: N_1  and  C_20
    3  A    between atoms: N_2  and  C_24
    4  A    between atoms: C_6  and  C_7
    5  A    between atoms: C_10  and  C_24
    6  A    between atoms: C_16  and  C_27
    7  A    between atoms: C_27  and  N_32
                            x       y       z     vdW  Elec       q    Type
                         _______ _______ _______ _____ _____    ______ ____

>  <TORSDO>
F 7

$$$$
