=
 OpenBabel10262421083D

 32 37  0  0  1  0  0  0  0  0999 V2000
  186.7390  178.1240  145.4630 C   0  0  0  0  0  0  0  0  0  0  0  0
  189.0440  177.0780  145.1270 C   0  0  0  0  0  0  0  0  0  0  0  0
  185.8000  178.7550  146.2710 C   0  0  0  0  0  3  0  0  0  0  0  0
  188.0350  177.7300  145.9620 C   0  0  0  0  0  0  0  0  0  0  0  0
  190.3540  176.6240  145.7220 C   0  0  1  0  0  3  0  0  0  0  0  0
  192.2750  177.7500  140.0310 C   0  0  0  0  0  1  0  0  0  0  0  0
  188.8520  176.8210  143.7270 C   0  0  0  0  0  0  0  0  0  0  0  0
  192.0670  177.2640  142.3940 N   0  0  0  0  0  0  0  0  0  0  0  0
  191.2350  176.7580  143.3920 N   0  0  0  0  0  0  0  0  0  0  0  0
  188.3440  178.0160  147.2950 C   0  0  0  0  0  0  0  0  0  0  0  0
  186.3600  177.5600  142.7870 C   0  0  1  0  0  3  0  0  0  0  0  0
  191.5230  177.0320  144.8070 C   0  0  0  0  0  2  0  0  0  0  0  0
  189.6280  177.6760  147.8310 N   0  0  0  0  0  0  0  0  0  0  0  0
  187.3950  178.6530  148.1090 C   0  0  0  0  0  3  0  0  0  0  0  0
  187.6100  177.1990  143.3090 C   0  0  0  0  0  0  0  0  0  0  0  0
  186.5930  177.8270  144.1440 C   0  0  0  0  0  0  0  0  0  0  0  0
  189.9580  176.2360  142.9040 C   0  0  2  0  0  3  0  0  0  0  0  0
  190.5630  177.0550  147.1680 C   0  0  0  0  0  0  0  0  0  0  0  0
  186.1360  179.0150  147.6040 C   0  0  0  0  0  3  0  0  0  0  0  0
  191.5350  177.2610  141.2230 C   0  0  0  0  0  0  0  0  0  0  0  0
  189.8450  176.6820  141.1300 S   0  0  0  0  0  0  0  0  0  0  0  0
  191.7450  176.7440  147.8500 O   0  0  0  0  0  0  0  0  0  0  0  0
  192.3910  175.4830  147.7550 C   0  0  0  0  0  1  0  0  0  0  0  0
  186.4880  178.8450  141.9880 C   0  0  0  0  0  2  0  0  0  0  0  0
  185.6050  178.9610  139.6160 C   0  0  0  0  0  0  0  0  0  0  0  0
  184.6030  179.6280  139.9880 O   0  0  0  0  0  0  0  0  0  0  0  0
  185.7490  178.6270  138.2350 N   0  0  0  0  0  2  0  0  0  0  0  0
  186.5920  178.5480  140.5670 N   0  0  0  0  0  2  0  0  0  0  0  0
  187.6610  178.6340  136.6870 C   0  0  0  0  0  1  0  0  0  0  0  0
  186.8750  177.8480  137.7280 C   0  0  2  0  0  3  0  0  0  0  0  0
  186.4800  176.5730  137.2640 O   0  0  0  0  0  0  0  0  0  0  0  0
  187.5960  175.7170  137.2630 C   0  0  0  0  0  1  0  0  0  0  0  0
  1  4  2  0  0  0  0
  1  3  1  0  0  0  0
  2  5  1  0  0  0  0
  2  4  1  0  0  0  0
  3 19  2  0  0  0  0
  4 10  1  0  0  0  0
  5 12  1  6  0  0  0
  5 18  1  0  0  0  0
  6 20  1  0  0  0  0
  7  2  2  0  0  0  0
  8  9  1  0  0  0  0
  9 12  1  0  0  0  0
 10 13  1  0  0  0  0
 10 14  2  0  0  0  0
 11 24  1  6  0  0  0
 11 15  1  0  0  0  0
 11 16  1  0  0  0  0
 15  7  1  0  0  0  0
 15 16  2  0  0  0  0
 16  1  1  0  0  0  0
 17 21  1  6  0  0  0
 17  9  1  0  0  0  0
 17  7  1  0  0  0  0
 18 13  2  0  0  0  0
 18 22  1  0  0  0  0
 19 14  1  0  0  0  0
 20  8  2  0  0  0  0
 21 20  1  0  0  0  0
 23 22  1  0  0  0  0
 25 26  2  0  0  0  0
 25 28  1  0  0  0  0
 27 25  1  0  0  0  0
 28 24  1  0  0  0  0
 30 29  1  6  0  0  0
 30 27  1  0  0  0  0
 31 30  1  0  0  0  0
 32 31  1  0  0  0  0
M  END
>  <MODEL>
1

>  <REMARK>
 VINA RESULT:     -10.5      0.000      0.000
  Name = 
  5 active torsions:
  status: ('A' for Active; 'I' for Inactive)
    1  A    between atoms: O_13  and  C_29
    2  A    between atoms: O_15  and  C_26
    3  A    between atoms: C_16  and  C_23
    4  A    between atoms: N_19  and  C_26
    5  A    between atoms: N_22  and  C_23
                            x       y       z     vdW  Elec       q    Type
                         _______ _______ _______ _____ _____    ______ ____

>  <TORSDO>
F 5

$$$$
=
 OpenBabel10262421083D

 32 37  0  0  1  0  0  0  0  0999 V2000
  186.7850  178.1340  145.4950 C   0  0  0  0  0  0  0  0  0  0  0  0
  189.0780  177.0670  145.1460 C   0  0  0  0  0  0  0  0  0  0  0  0
  185.8540  178.7670  146.3100 C   0  0  0  0  0  3  0  0  0  0  0  0
  188.0780  177.7210  145.9880 C   0  0  0  0  0  0  0  0  0  0  0  0
  190.3850  176.5940  145.7350 C   0  0  1  0  0  3  0  0  0  0  0  0
  192.3110  177.7550  140.0540 C   0  0  0  0  0  1  0  0  0  0  0  0
  188.8830  176.8260  143.7430 C   0  0  0  0  0  0  0  0  0  0  0  0
  192.1010  177.2480  142.4110 N   0  0  0  0  0  0  0  0  0  0  0  0
  191.2640  176.7410  143.4050 N   0  0  0  0  0  0  0  0  0  0  0  0
  188.3910  177.9910  147.3240 C   0  0  0  0  0  0  0  0  0  0  0  0
  186.3980  177.6010  142.8140 C   0  0  1  0  0  3  0  0  0  0  0  0
  191.5560  176.9990  144.8230 C   0  0  0  0  0  2  0  0  0  0  0  0
  189.6720  177.6320  147.8560 N   0  0  0  0  0  0  0  0  0  0  0  0
  187.4500  178.6290  148.1460 C   0  0  0  0  0  3  0  0  0  0  0  0
  187.6440  177.2220  143.3310 C   0  0  0  0  0  0  0  0  0  0  0  0
  186.6350  177.8520  144.1730 C   0  0  0  0  0  0  0  0  0  0  0  0
  189.9810  176.2380  142.9130 C   0  0  2  0  0  3  0  0  0  0  0  0
  190.5990  177.0080  147.1850 C   0  0  0  0  0  0  0  0  0  0  0  0
  186.1940  179.0100  147.6450 C   0  0  0  0  0  3  0  0  0  0  0  0
  191.5670  177.2630  141.2420 C   0  0  0  0  0  0  0  0  0  0  0  0
  189.8720  176.7030  141.1440 S   0  0  0  0  0  0  0  0  0  0  0  0
  191.7780  176.6780  147.8630 O   0  0  0  0  0  0  0  0  0  0  0  0
  192.3680  175.3860  147.8190 C   0  0  0  0  0  1  0  0  0  0  0  0
  186.5380  178.8930  142.0280 C   0  0  0  0  0  2  0  0  0  0  0  0
  185.9060  178.6920  139.5830 C   0  0  0  0  0  0  0  0  0  0  0  0
  187.0900  178.4020  139.2670 O   0  0  0  0  0  0  0  0  0  0  0  0
  184.9080  178.7660  138.5630 N   0  0  0  0  0  2  0  0  0  0  0  0
  185.5610  178.9370  140.9500 N   0  0  0  0  0  2  0  0  0  0  0  0
  182.5740  178.4180  137.8680 C   0  0  0  0  0  1  0  0  0  0  0  0
  183.5170  179.1070  138.8460 C   0  0  2  0  0  3  0  0  0  0  0  0
  183.3090  180.5030  138.9130 O   0  0  0  0  0  0  0  0  0  0  0  0
  181.9910  180.7920  138.5220 C   0  0  0  0  0  1  0  0  0  0  0  0
  1  4  2  0  0  0  0
  1  3  1  0  0  0  0
  2  5  1  0  0  0  0
  2  4  1  0  0  0  0
  3 19  2  0  0  0  0
  4 10  1  0  0  0  0
  5 12  1  6  0  0  0
  5 18  1  0  0  0  0
  6 20  1  0  0  0  0
  7  2  2  0  0  0  0
  8  9  1  0  0  0  0
  9 12  1  0  0  0  0
 10 13  1  0  0  0  0
 10 14  2  0  0  0  0
 11 24  1  6  0  0  0
 11 15  1  0  0  0  0
 11 16  1  0  0  0  0
 15  7  1  0  0  0  0
 15 16  2  0  0  0  0
 16  1  1  0  0  0  0
 17 21  1  6  0  0  0
 17  9  1  0  0  0  0
 17  7  1  0  0  0  0
 18 13  2  0  0  0  0
 18 22  1  0  0  0  0
 19 14  1  0  0  0  0
 20  8  2  0  0  0  0
 21 20  1  0  0  0  0
 23 22  1  0  0  0  0
 25 28  1  0  0  0  0
 26 25  2  0  0  0  0
 27 30  1  0  0  0  0
 27 25  1  0  0  0  0
 28 24  1  0  0  0  0
 30 29  1  6  0  0  0
 30 31  1  0  0  0  0
 32 31  1  0  0  0  0
M  END
>  <MODEL>
2

>  <REMARK>
 VINA RESULT:     -10.2      1.236      2.085
  Name = 
  5 active torsions:
  status: ('A' for Active; 'I' for Inactive)
    1  A    between atoms: O_13  and  C_29
    2  A    between atoms: O_15  and  C_26
    3  A    between atoms: C_16  and  C_23
    4  A    between atoms: N_19  and  C_26
    5  A    between atoms: N_22  and  C_23
                            x       y       z     vdW  Elec       q    Type
                         _______ _______ _______ _____ _____    ______ ____

>  <TORSDO>
F 5

$$$$
=
 OpenBabel10262421083D

 32 37  0  0  1  0  0  0  0  0999 V2000
  185.6390  178.7770  143.2350 C   0  0  0  0  0  0  0  0  0  0  0  0
  184.2450  178.7860  141.0960 C   0  0  0  0  0  0  0  0  0  0  0  0
  185.7310  178.7790  144.6220 C   0  0  0  0  0  3  0  0  0  0  0  0
  184.3670  178.8030  142.5540 C   0  0  0  0  0  0  0  0  0  0  0  0
  182.8900  178.8880  140.4390 C   0  0  1  0  0  3  0  0  0  0  0  0
  185.7410  175.5960  136.1530 C   0  0  0  0  0  1  0  0  0  0  0  0
  185.3780  178.6900  140.2180 C   0  0  0  0  0  0  0  0  0  0  0  0
  184.1510  176.7680  137.5520 N   0  0  0  0  0  0  0  0  0  0  0  0
  183.9770  177.7970  138.4760 N   0  0  0  0  0  0  0  0  0  0  0  0
  183.2030  178.8130  143.3290 C   0  0  0  0  0  0  0  0  0  0  0  0
  187.8090  178.6610  141.5330 C   0  0  1  0  0  3  0  0  0  0  0  0
  182.7680  177.8480  139.3110 C   0  0  0  0  0  2  0  0  0  0  0  0
  181.9140  178.8060  142.7030 N   0  0  0  0  0  0  0  0  0  0  0  0
  183.2970  178.8150  144.7290 C   0  0  0  0  0  3  0  0  0  0  0  0
  186.5540  178.6810  140.9100 C   0  0  0  0  0  0  0  0  0  0  0  0
  186.6800  178.7220  142.3620 C   0  0  0  0  0  0  0  0  0  0  0  0
  185.1840  178.5820  138.7380 C   0  0  2  0  0  3  0  0  0  0  0  0
  181.7210  178.8370  141.4140 C   0  0  0  0  0  0  0  0  0  0  0  0
  184.5470  178.8020  145.3680 C   0  0  0  0  0  3  0  0  0  0  0  0
  185.3640  176.6310  137.1490 C   0  0  0  0  0  0  0  0  0  0  0  0
  186.5670  177.7260  137.8930 S   0  0  0  0  0  0  0  0  0  0  0  0
  180.3990  178.8820  140.9580 O   0  0  0  0  0  0  0  0  0  0  0  0
  179.4580  177.8420  141.1860 C   0  0  0  0  0  1  0  0  0  0  0  0
  188.3610  177.2460  141.5320 C   0  0  0  0  0  2  0  0  0  0  0  0
  190.6860  177.2020  142.5380 C   0  0  0  0  0  0  0  0  0  0  0  0
  191.2040  177.5280  141.4370 O   0  0  0  0  0  0  0  0  0  0  0  0
  191.5300  176.9860  143.6700 N   0  0  0  0  0  2  0  0  0  0  0  0
  189.2680  177.0560  142.6550 N   0  0  0  0  0  2  0  0  0  0  0  0
  190.2640  177.7500  145.6360 C   0  0  0  0  0  1  0  0  0  0  0  0
  191.0080  176.5960  144.9760 C   0  0  2  0  0  3  0  0  0  0  0  0
  192.0070  176.0440  145.8100 O   0  0  0  0  0  0  0  0  0  0  0  0
  191.6540  176.2560  147.1540 C   0  0  0  0  0  1  0  0  0  0  0  0
  1  3  1  0  0  0  0
  2  4  1  0  0  0  0
  3 19  2  0  0  0  0
  4  1  2  0  0  0  0
  4 10  1  0  0  0  0
  5 12  1  6  0  0  0
  5  2  1  0  0  0  0
  5 18  1  0  0  0  0
  6 20  1  0  0  0  0
  7 15  1  0  0  0  0
  7  2  2  0  0  0  0
  8  9  1  0  0  0  0
  9 17  1  0  0  0  0
  9 12  1  0  0  0  0
 10 14  2  0  0  0  0
 11 24  1  1  0  0  0
 11 16  1  0  0  0  0
 13 10  1  0  0  0  0
 14 19  1  0  0  0  0
 15 11  1  0  0  0  0
 15 16  2  0  0  0  0
 16  1  1  0  0  0  0
 17 21  1  6  0  0  0
 17  7  1  0  0  0  0
 18 13  2  0  0  0  0
 20  8  2  0  0  0  0
 20 21  1  0  0  0  0
 22 23  1  0  0  0  0
 22 18  1  0  0  0  0
 24 28  1  0  0  0  0
 25 28  1  0  0  0  0
 25 27  1  0  0  0  0
 26 25  2  0  0  0  0
 27 30  1  0  0  0  0
 30 29  1  1  0  0  0
 30 31  1  0  0  0  0
 31 32  1  0  0  0  0
M  END
>  <MODEL>
3

>  <REMARK>
 VINA RESULT:      -8.5      2.871      7.699
  Name = 
  5 active torsions:
  status: ('A' for Active; 'I' for Inactive)
    1  A    between atoms: O_13  and  C_29
    2  A    between atoms: O_15  and  C_26
    3  A    between atoms: C_16  and  C_23
    4  A    between atoms: N_19  and  C_26
    5  A    between atoms: N_22  and  C_23
                            x       y       z     vdW  Elec       q    Type
                         _______ _______ _______ _____ _____    ______ ____

>  <TORSDO>
F 5

$$$$
=
 OpenBabel10262421083D

 32 37  0  0  1  0  0  0  0  0999 V2000
  189.7130  177.4500  141.8730 C   0  0  0  0  0  0  0  0  0  0  0  0
  187.4400  178.1720  142.7820 C   0  0  0  0  0  0  0  0  0  0  0  0
  190.9680  176.8820  142.0590 C   0  0  0  0  0  3  0  0  0  0  0  0
  188.7700  177.5910  142.9570 C   0  0  0  0  0  0  0  0  0  0  0  0
  186.5240  178.3590  143.9670 C   0  0  1  0  0  3  0  0  0  0  0  0
  182.2770  177.5780  139.6430 C   0  0  0  0  0  1  0  0  0  0  0  0
  186.9360  178.6030  141.5080 C   0  0  0  0  0  0  0  0  0  0  0  0
  183.5190  177.8330  141.7050 N   0  0  0  0  0  0  0  0  0  0  0  0
  184.6750  178.3470  142.2920 N   0  0  0  0  0  0  0  0  0  0  0  0
  189.1420  177.1210  144.2210 C   0  0  0  0  0  0  0  0  0  0  0  0
  188.7570  178.3470  139.4440 C   0  0  1  0  0  3  0  0  0  0  0  0
  185.1020  177.8830  143.6200 C   0  0  0  0  0  2  0  0  0  0  0  0
  188.2310  177.2070  145.3230 N   0  0  0  0  0  0  0  0  0  0  0  0
  190.4090  176.5490  144.4070 C   0  0  0  0  0  3  0  0  0  0  0  0
  187.8680  178.4600  140.5220 C   0  0  0  0  0  0  0  0  0  0  0  0
  189.2040  177.9050  140.6970 C   0  0  0  0  0  0  0  0  0  0  0  0
  185.5310  179.1020  141.3760 C   0  0  2  0  0  3  0  0  0  0  0  0
  187.0480  177.7500  145.2610 C   0  0  0  0  0  0  0  0  0  0  0  0
  191.3140  176.4330  143.3390 C   0  0  0  0  0  3  0  0  0  0  0  0
  183.4440  178.0400  140.4380 C   0  0  0  0  0  0  0  0  0  0  0  0
  184.8420  178.8710  139.6940 S   0  0  0  0  0  0  0  0  0  0  0  0
  186.2970  177.8070  146.4410 O   0  0  0  0  0  0  0  0  0  0  0  0
  185.8210  179.0210  147.0040 C   0  0  0  0  0  1  0  0  0  0  0  0
  188.3790  177.1500  138.5890 C   0  0  0  0  0  2  0  0  0  0  0  0
  190.2520  176.6330  136.9640 C   0  0  0  0  0  0  0  0  0  0  0  0
  189.8440  177.5150  136.1630 O   0  0  0  0  0  0  0  0  0  0  0  0
  191.4080  175.8630  136.6270 N   0  0  0  0  0  2  0  0  0  0  0  0
  189.5700  176.4090  138.2020 N   0  0  0  0  0  2  0  0  0  0  0  0
  193.4410  174.6630  137.3190 C   0  0  0  0  0  1  0  0  0  0  0  0
  191.9360  174.8160  137.4970 C   0  0  2  0  0  3  0  0  0  0  0  0
  191.2420  173.5940  137.3480 O   0  0  0  0  0  0  0  0  0  0  0  0
  191.3630  173.1540  136.0190 C   0  0  0  0  0  1  0  0  0  0  0  0
  1  3  2  0  0  0  0
  1  4  1  0  0  0  0
  2  4  1  0  0  0  0
  2  5  1  0  0  0  0
  3 19  1  0  0  0  0
  4 10  2  0  0  0  0
  5 12  1  6  0  0  0
  5 18  1  0  0  0  0
  6 20  1  0  0  0  0
  7  2  2  0  0  0  0
  8  9  1  0  0  0  0
  9 12  1  0  0  0  0
 10 14  1  0  0  0  0
 10 13  1  0  0  0  0
 11 24  1  6  0  0  0
 11 15  1  0  0  0  0
 11 16  1  0  0  0  0
 15 16  2  0  0  0  0
 15  7  1  0  0  0  0
 16  1  1  0  0  0  0
 17 21  1  6  0  0  0
 17  7  1  0  0  0  0
 17  9  1  0  0  0  0
 18 13  2  0  0  0  0
 18 22  1  0  0  0  0
 19 14  2  0  0  0  0
 20  8  2  0  0  0  0
 21 20  1  0  0  0  0
 22 23  1  0  0  0  0
 25 28  1  0  0  0  0
 26 25  2  0  0  0  0
 27 25  1  0  0  0  0
 27 30  1  0  0  0  0
 28 24  1  0  0  0  0
 30 29  1  6  0  0  0
 31 30  1  0  0  0  0
 32 31  1  0  0  0  0
M  END
>  <MODEL>
4

>  <REMARK>
 VINA RESULT:      -8.2      3.111      5.761
  Name = 
  5 active torsions:
  status: ('A' for Active; 'I' for Inactive)
    1  A    between atoms: O_13  and  C_29
    2  A    between atoms: O_15  and  C_26
    3  A    between atoms: C_16  and  C_23
    4  A    between atoms: N_19  and  C_26
    5  A    between atoms: N_22  and  C_23
                            x       y       z     vdW  Elec       q    Type
                         _______ _______ _______ _____ _____    ______ ____

>  <TORSDO>
F 5

$$$$
=
 OpenBabel10262421083D

 32 37  0  0  1  0  0  0  0  0999 V2000
  189.3540  177.6630  142.1690 C   0  0  0  0  0  0  0  0  0  0  0  0
  186.8990  178.3430  142.3380 C   0  0  0  0  0  0  0  0  0  0  0  0
  190.5250  177.1940  142.7530 C   0  0  0  0  0  3  0  0  0  0  0  0
  188.1460  177.8640  142.9330 C   0  0  0  0  0  0  0  0  0  0  0  0
  185.6880  178.6030  143.2000 C   0  0  1  0  0  3  0  0  0  0  0  0
  182.8170  177.1140  138.0160 C   0  0  0  0  0  1  0  0  0  0  0  0
  186.7540  178.6050  140.9330 C   0  0  0  0  0  0  0  0  0  0  0  0
  183.4360  177.6610  140.2910 N   0  0  0  0  0  0  0  0  0  0  0  0
  184.3720  178.3020  141.1020 N   0  0  0  0  0  0  0  0  0  0  0  0
  188.1690  177.5540  144.2970 C   0  0  0  0  0  0  0  0  0  0  0  0
  189.0780  178.2370  139.4830 C   0  0  1  0  0  3  0  0  0  0  0  0
  184.4300  178.0090  142.5410 C   0  0  0  0  0  2  0  0  0  0  0  0
  186.9880  177.7050  145.0940 N   0  0  0  0  0  0  0  0  0  0  0  0
  189.3510  177.0810  144.8850 C   0  0  0  0  0  3  0  0  0  0  0  0
  187.9240  178.4130  140.2590 C   0  0  0  0  0  0  0  0  0  0  0  0
  189.1760  177.9580  140.8540 C   0  0  0  0  0  0  0  0  0  0  0  0
  185.4260  179.0040  140.3680 C   0  0  2  0  0  3  0  0  0  0  0  0
  185.8530  178.1670  144.6510 C   0  0  0  0  0  0  0  0  0  0  0  0
  190.5170  176.9050  144.1230 C   0  0  0  0  0  3  0  0  0  0  0  0
  183.7070  177.7260  139.0360 C   0  0  0  0  0  0  0  0  0  0  0  0
  185.2320  178.5530  138.6020 S   0  0  0  0  0  0  0  0  0  0  0  0
  184.8060  178.3060  145.5690 O   0  0  0  0  0  0  0  0  0  0  0  0
  185.0060  178.4050  146.9710 C   0  0  0  0  0  1  0  0  0  0  0  0
  188.9820  176.9350  138.7070 C   0  0  0  0  0  2  0  0  0  0  0  0
  190.5680  175.3030  137.5930 C   0  0  0  0  0  0  0  0  0  0  0  0
  189.6930  174.3980  137.6020 O   0  0  0  0  0  0  0  0  0  0  0  0
  191.8580  175.0240  137.0450 N   0  0  0  0  0  2  0  0  0  0  0  0
  190.2720  176.6000  138.1200 N   0  0  0  0  0  2  0  0  0  0  0  0
  193.6430  176.0030  135.6640 C   0  0  0  0  0  1  0  0  0  0  0  0
  192.9280  176.0160  137.0090 C   0  0  2  0  0  3  0  0  0  0  0  0
  193.8170  175.8860  138.1000 O   0  0  0  0  0  0  0  0  0  0  0  0
  194.5360  174.6860  137.9680 C   0  0  0  0  0  1  0  0  0  0  0  0
  1  3  2  0  0  0  0
  1  4  1  0  0  0  0
  2  4  1  0  0  0  0
  2  5  1  0  0  0  0
  3 19  1  0  0  0  0
  4 10  2  0  0  0  0
  5 12  1  6  0  0  0
  5 18  1  0  0  0  0
  6 20  1  0  0  0  0
  7  2  2  0  0  0  0
  8  9  1  0  0  0  0
  9 12  1  0  0  0  0
 10 14  1  0  0  0  0
 10 13  1  0  0  0  0
 11 24  1  6  0  0  0
 11 15  1  0  0  0  0
 11 16  1  0  0  0  0
 15 16  2  0  0  0  0
 15  7  1  0  0  0  0
 16  1  1  0  0  0  0
 17 21  1  6  0  0  0
 17  7  1  0  0  0  0
 17  9  1  0  0  0  0
 18 13  2  0  0  0  0
 18 22  1  0  0  0  0
 19 14  2  0  0  0  0
 20  8  2  0  0  0  0
 21 20  1  0  0  0  0
 22 23  1  0  0  0  0
 25 26  2  0  0  0  0
 25 28  1  0  0  0  0
 27 25  1  0  0  0  0
 28 24  1  0  0  0  0
 30 29  1  6  0  0  0
 30 27  1  0  0  0  0
 30 31  1  0  0  0  0
 32 31  1  0  0  0  0
M  END
>  <MODEL>
5

>  <REMARK>
 VINA RESULT:      -8.2      3.293      6.124
  Name = 
  5 active torsions:
  status: ('A' for Active; 'I' for Inactive)
    1  A    between atoms: O_13  and  C_29
    2  A    between atoms: O_15  and  C_26
    3  A    between atoms: C_16  and  C_23
    4  A    between atoms: N_19  and  C_26
    5  A    between atoms: N_22  and  C_23
                            x       y       z     vdW  Elec       q    Type
                         _______ _______ _______ _____ _____    ______ ____

>  <TORSDO>
F 5

$$$$
=
 OpenBabel10262421083D

 32 37  0  0  1  0  0  0  0  0999 V2000
  184.3430  178.7150  140.4180 C   0  0  0  0  0  0  0  0  0  0  0  0
  186.7760  178.3980  139.7140 C   0  0  0  0  0  0  0  0  0  0  0  0
  182.9870  178.7520  140.1120 C   0  0  0  0  0  3  0  0  0  0  0  0
  185.3460  178.4550  139.4130 C   0  0  0  0  0  0  0  0  0  0  0  0
  187.7840  178.1930  138.6100 C   0  0  1  0  0  3  0  0  0  0  0  0
  190.8810  175.5630  143.1740 C   0  0  0  0  0  1  0  0  0  0  0  0
  187.3020  178.5430  141.0430 C   0  0  0  0  0  0  0  0  0  0  0  0
  190.0580  176.3720  141.0460 N   0  0  0  0  0  0  0  0  0  0  0  0
  189.2920  177.3480  140.4080 N   0  0  0  0  0  0  0  0  0  0  0  0
  184.9210  178.2180  138.1020 C   0  0  0  0  0  0  0  0  0  0  0  0
  185.3740  179.0610  142.9550 C   0  0  1  0  0  3  0  0  0  0  0  0
  188.8260  177.1410  139.0300 C   0  0  0  0  0  2  0  0  0  0  0  0
  185.8740  177.9230  137.0730 N   0  0  0  0  0  0  0  0  0  0  0  0
  183.5530  178.2550  137.7950 C   0  0  0  0  0  3  0  0  0  0  0  0
  186.3160  178.7990  141.9510 C   0  0  0  0  0  0  0  0  0  0  0  0
  184.8920  178.8810  141.6510 C   0  0  0  0  0  0  0  0  0  0  0  0
  188.7670  178.3810  141.3020 C   0  0  2  0  0  3  0  0  0  0  0  0
  187.1650  177.8970  137.2500 C   0  0  0  0  0  0  0  0  0  0  0  0
  182.5970  178.5220  138.7870 C   0  0  0  0  0  3  0  0  0  0  0  0
  190.1030  176.5010  142.3240 C   0  0  0  0  0  0  0  0  0  0  0  0
  189.1380  177.8400  143.0130 S   0  0  0  0  0  0  0  0  0  0  0  0
  187.9680  177.6470  136.1310 O   0  0  0  0  0  0  0  0  0  0  0  0
  187.4800  177.6800  134.7980 C   0  0  0  0  0  1  0  0  0  0  0  0
  185.1230  177.8020  143.7660 C   0  0  0  0  0  2  0  0  0  0  0  0
  185.5370  178.5960  146.1360 C   0  0  0  0  0  0  0  0  0  0  0  0
  184.4790  179.2790  146.1260 O   0  0  0  0  0  0  0  0  0  0  0  0
  186.3570  178.5950  147.3060 N   0  0  0  0  0  2  0  0  0  0  0  0
  185.9110  177.8240  144.9900 N   0  0  0  0  0  2  0  0  0  0  0  0
  188.1800  177.8900  148.8000 C   0  0  0  0  0  1  0  0  0  0  0  0
  187.6030  177.8390  147.3910 C   0  0  2  0  0  3  0  0  0  0  0  0
  188.5370  178.2310  146.4060 O   0  0  0  0  0  0  0  0  0  0  0  0
  189.7560  177.5710  146.6380 C   0  0  0  0  0  1  0  0  0  0  0  0
  1 16  2  0  0  0  0
  2  7  1  0  0  0  0
  3  1  1  0  0  0  0
  4  2  2  0  0  0  0
  4  1  1  0  0  0  0
  5 12  1  1  0  0  0
  5  2  1  0  0  0  0
  7 15  2  0  0  0  0
  8 20  2  0  0  0  0
  9  8  1  0  0  0  0
  9 17  1  0  0  0  0
 10  4  1  0  0  0  0
 11 24  1  1  0  0  0
 12  9  1  0  0  0  0
 13 18  2  0  0  0  0
 13 10  1  0  0  0  0
 14 10  2  0  0  0  0
 14 19  1  0  0  0  0
 15 11  1  0  0  0  0
 16 15  1  0  0  0  0
 16 11  1  0  0  0  0
 17  7  1  1  0  0  0
 17 21  1  0  0  0  0
 18  5  1  0  0  0  0
 19  3  2  0  0  0  0
 20 21  1  0  0  0  0
 20  6  1  0  0  0  0
 22 18  1  0  0  0  0
 23 22  1  0  0  0  0
 24 28  1  0  0  0  0
 25 27  1  0  0  0  0
 26 25  2  0  0  0  0
 27 30  1  0  0  0  0
 28 25  1  0  0  0  0
 30 29  1  1  0  0  0
 31 32  1  0  0  0  0
 31 30  1  0  0  0  0
M  END
>  <MODEL>
6

>  <REMARK>
 VINA RESULT:      -8.1      2.355      7.637
  Name = 
  5 active torsions:
  status: ('A' for Active; 'I' for Inactive)
    1  A    between atoms: O_13  and  C_29
    2  A    between atoms: O_15  and  C_26
    3  A    between atoms: C_16  and  C_23
    4  A    between atoms: N_19  and  C_26
    5  A    between atoms: N_22  and  C_23
                            x       y       z     vdW  Elec       q    Type
                         _______ _______ _______ _____ _____    ______ ____

>  <TORSDO>
F 5

$$$$
=
 OpenBabel10262421083D

 32 37  0  0  1  0  0  0  0  0999 V2000
  186.7550  178.2740  144.2610 C   0  0  0  0  0  0  0  0  0  0  0  0
  184.8310  178.8220  142.6760 C   0  0  0  0  0  0  0  0  0  0  0  0
  187.2330  177.9900  145.5350 C   0  0  0  0  0  3  0  0  0  0  0  0
  185.3580  178.5350  144.0090 C   0  0  0  0  0  0  0  0  0  0  0  0
  183.3720  179.1580  142.4840 C   0  0  1  0  0  3  0  0  0  0  0  0
  184.4400  176.5870  137.0450 C   0  0  0  0  0  1  0  0  0  0  0  0
  185.6490  178.8170  141.4940 C   0  0  0  0  0  0  0  0  0  0  0  0
  183.4780  177.5720  139.0350 N   0  0  0  0  0  0  0  0  0  0  0  0
  183.7090  178.4050  140.1300 N   0  0  0  0  0  0  0  0  0  0  0  0
  184.4710  178.4780  145.0890 C   0  0  0  0  0  0  0  0  0  0  0  0
  188.3250  178.3360  141.9910 C   0  0  1  0  0  3  0  0  0  0  0  0
  182.8010  178.3790  141.2850 C   0  0  0  0  0  2  0  0  0  0  0  0
  183.0700  178.6980  144.8880 N   0  0  0  0  0  0  0  0  0  0  0  0
  184.9540  178.1920  146.3740 C   0  0  0  0  0  3  0  0  0  0  0  0
  186.9590  178.5780  141.7880 C   0  0  0  0  0  0  0  0  0  0  0  0
  187.4920  178.3160  143.1190 C   0  0  0  0  0  0  0  0  0  0  0  0
  185.0340  179.0250  140.1450 C   0  0  2  0  0  3  0  0  0  0  0  0
  182.5280  179.0020  143.7420 C   0  0  0  0  0  0  0  0  0  0  0  0
  186.3200  177.9530  146.5960 C   0  0  0  0  0  3  0  0  0  0  0  0
  184.5000  177.4260  138.2690 C   0  0  0  0  0  0  0  0  0  0  0  0
  185.9970  178.2530  138.7910 S   0  0  0  0  0  0  0  0  0  0  0  0
  181.1490  179.2400  143.7190 O   0  0  0  0  0  0  0  0  0  0  0  0
  180.1790  178.2330  143.9670 C   0  0  0  0  0  1  0  0  0  0  0  0
  188.6610  176.9120  141.5830 C   0  0  0  0  0  2  0  0  0  0  0  0
  190.3450  177.1340  139.7040 C   0  0  0  0  0  0  0  0  0  0  0  0
  191.2660  177.4100  140.5180 O   0  0  0  0  0  0  0  0  0  0  0  0
  190.6390  177.0870  138.3060 N   0  0  0  0  0  2  0  0  0  0  0  0
  189.0210  176.8620  140.1730 N   0  0  0  0  0  2  0  0  0  0  0  0
  189.8590  175.4130  136.6810 C   0  0  0  0  0  1  0  0  0  0  0  0
  189.6250  176.7860  137.3000 C   0  0  2  0  0  3  0  0  0  0  0  0
  189.5100  177.8080  136.3310 O   0  0  0  0  0  0  0  0  0  0  0  0
  189.0560  178.9840  136.9540 C   0  0  0  0  0  1  0  0  0  0  0  0
  1  3  1  0  0  0  0
  2  4  1  0  0  0  0
  3 19  2  0  0  0  0
  4  1  2  0  0  0  0
  4 10  1  0  0  0  0
  5 12  1  6  0  0  0
  5  2  1  0  0  0  0
  5 18  1  0  0  0  0
  6 20  1  0  0  0  0
  7 15  1  0  0  0  0
  7  2  2  0  0  0  0
  8  9  1  0  0  0  0
  9 17  1  0  0  0  0
  9 12  1  0  0  0  0
 10 14  2  0  0  0  0
 11 24  1  6  0  0  0
 11 16  1  0  0  0  0
 13 10  1  0  0  0  0
 14 19  1  0  0  0  0
 15 11  1  0  0  0  0
 15 16  2  0  0  0  0
 16  1  1  0  0  0  0
 17 21  1  6  0  0  0
 17  7  1  0  0  0  0
 18 13  2  0  0  0  0
 20 21  1  0  0  0  0
 20  8  2  0  0  0  0
 22 18  1  0  0  0  0
 22 23  1  0  0  0  0
 25 28  1  0  0  0  0
 25 26  2  0  0  0  0
 27 25  1  0  0  0  0
 28 24  1  0  0  0  0
 30 29  1  6  0  0  0
 30 27  1  0  0  0  0
 31 32  1  0  0  0  0
 31 30  1  0  0  0  0
M  END
>  <MODEL>
7

>  <REMARK>
 VINA RESULT:      -8.1      3.290      6.165
  Name = 
  5 active torsions:
  status: ('A' for Active; 'I' for Inactive)
    1  A    between atoms: O_13  and  C_29
    2  A    between atoms: O_15  and  C_26
    3  A    between atoms: C_16  and  C_23
    4  A    between atoms: N_19  and  C_26
    5  A    between atoms: N_22  and  C_23
                            x       y       z     vdW  Elec       q    Type
                         _______ _______ _______ _____ _____    ______ ____

>  <TORSDO>
F 5

$$$$
=
 OpenBabel10262421083D

 32 37  0  0  1  0  0  0  0  0999 V2000
  185.7690  178.5630  142.6970 C   0  0  0  0  0  0  0  0  0  0  0  0
  185.7330  178.5300  140.1450 C   0  0  0  0  0  0  0  0  0  0  0  0
  185.1060  178.6010  143.9180 C   0  0  0  0  0  3  0  0  0  0  0  0
  185.0580  178.5840  141.4410 C   0  0  0  0  0  0  0  0  0  0  0  0
  184.9410  178.6290  138.8640 C   0  0  1  0  0  3  0  0  0  0  0  0
  189.5640  175.1930  136.8210 C   0  0  0  0  0  1  0  0  0  0  0  0
  187.1570  178.3980  140.0100 C   0  0  0  0  0  0  0  0  0  0  0  0
  187.5000  176.4190  137.1340 N   0  0  0  0  0  0  0  0  0  0  0  0
  186.8830  177.4750  137.8040 N   0  0  0  0  0  0  0  0  0  0  0  0
  183.6610  178.6270  141.4740 C   0  0  0  0  0  0  0  0  0  0  0  0
  188.5090  178.3790  142.4210 C   0  0  1  0  0  3  0  0  0  0  0  0
  185.4170  177.5600  137.8630 C   0  0  0  0  0  2  0  0  0  0  0  0
  182.9060  178.6180  140.2560 N   0  0  0  0  0  0  0  0  0  0  0  0
  182.9930  178.6660  142.7070 C   0  0  0  0  0  3  0  0  0  0  0  0
  187.7810  178.3950  141.2230 C   0  0  0  0  0  0  0  0  0  0  0  0
  187.1130  178.4740  142.5170 C   0  0  0  0  0  0  0  0  0  0  0  0
  187.7820  178.2530  138.6570 C   0  0  2  0  0  3  0  0  0  0  0  0
  183.4310  178.6160  139.0630 C   0  0  0  0  0  0  0  0  0  0  0  0
  183.7070  178.6570  143.9160 C   0  0  0  0  0  3  0  0  0  0  0  0
  188.7370  176.2590  137.4440 C   0  0  0  0  0  0  0  0  0  0  0  0
  189.3820  177.3610  138.6970 S   0  0  0  0  0  0  0  0  0  0  0  0
  182.5590  178.6630  137.9700 O   0  0  0  0  0  0  0  0  0  0  0  0
  181.2240  178.1800  138.0160 C   0  0  0  0  0  1  0  0  0  0  0  0
  188.9440  176.9590  142.7390 C   0  0  0  0  0  2  0  0  0  0  0  0
  191.0220  177.3380  144.1380 C   0  0  0  0  0  0  0  0  0  0  0  0
  191.6510  177.7810  143.1410 O   0  0  0  0  0  0  0  0  0  0  0  0
  191.6800  177.2630  145.4030 N   0  0  0  0  0  2  0  0  0  0  0  0
  189.6590  176.9210  144.0060 N   0  0  0  0  0  2  0  0  0  0  0  0
  189.6920  177.4530  146.8390 C   0  0  0  0  0  1  0  0  0  0  0  0
  191.0230  176.7520  146.6020 C   0  0  2  0  0  3  0  0  0  0  0  0
  191.8680  176.7890  147.7350 O   0  0  0  0  0  0  0  0  0  0  0  0
  192.6590  175.6280  147.7590 C   0  0  0  0  0  1  0  0  0  0  0  0
  1  3  1  0  0  0  0
  2  4  1  0  0  0  0
  4 10  1  0  0  0  0
  4  1  2  0  0  0  0
  5 12  1  6  0  0  0
  5 18  1  0  0  0  0
  5  2  1  0  0  0  0
  6 20  1  0  0  0  0
  7  2  2  0  0  0  0
  7 15  1  0  0  0  0
  8 20  2  0  0  0  0
  8  9  1  0  0  0  0
  9 12  1  0  0  0  0
  9 17  1  0  0  0  0
 10 14  2  0  0  0  0
 11 16  1  0  0  0  0
 11 24  1  1  0  0  0
 13 10  1  0  0  0  0
 14 19  1  0  0  0  0
 15 11  1  0  0  0  0
 15 16  2  0  0  0  0
 16  1  1  0  0  0  0
 17 21  1  1  0  0  0
 17  7  1  0  0  0  0
 18 13  2  0  0  0  0
 19  3  2  0  0  0  0
 20 21  1  0  0  0  0
 22 23  1  0  0  0  0
 22 18  1  0  0  0  0
 24 28  1  0  0  0  0
 25 27  1  0  0  0  0
 26 25  2  0  0  0  0
 27 30  1  0  0  0  0
 28 25  1  0  0  0  0
 30 29  1  1  0  0  0
 30 31  1  0  0  0  0
 31 32  1  0  0  0  0
M  END
>  <MODEL>
8

>  <REMARK>
 VINA RESULT:      -8.0      2.244      7.788
  Name = 
  5 active torsions:
  status: ('A' for Active; 'I' for Inactive)
    1  A    between atoms: O_13  and  C_29
    2  A    between atoms: O_15  and  C_26
    3  A    between atoms: C_16  and  C_23
    4  A    between atoms: N_19  and  C_26
    5  A    between atoms: N_22  and  C_23
                            x       y       z     vdW  Elec       q    Type
                         _______ _______ _______ _____ _____    ______ ____

>  <TORSDO>
F 5

$$$$
=
 OpenBabel10262421083D

 32 37  0  0  1  0  0  0  0  0999 V2000
  185.7150  178.8100  141.7840 C   0  0  0  0  0  0  0  0  0  0  0  0
  185.9730  178.2660  139.3030 C   0  0  0  0  0  0  0  0  0  0  0  0
  184.9170  179.0250  142.9010 C   0  0  0  0  0  3  0  0  0  0  0  0
  185.1530  178.5090  140.4890 C   0  0  0  0  0  0  0  0  0  0  0  0
  185.3260  178.0270  137.9600 C   0  0  1  0  0  3  0  0  0  0  0  0
  190.4050  174.7310  137.1300 C   0  0  0  0  0  1  0  0  0  0  0  0
  187.4090  178.2520  139.3350 C   0  0  0  0  0  0  0  0  0  0  0  0
  188.2290  175.7830  136.9810 N   0  0  0  0  0  0  0  0  0  0  0  0
  187.4600  176.8850  137.3550 N   0  0  0  0  0  0  0  0  0  0  0  0
  183.7610  178.4190  140.3790 C   0  0  0  0  0  0  0  0  0  0  0  0
  188.4750  178.8480  141.8150 C   0  0  1  0  0  3  0  0  0  0  0  0
  185.9950  176.8340  137.2540 C   0  0  0  0  0  2  0  0  0  0  0  0
  183.1530  178.0920  139.1240 N   0  0  0  0  0  0  0  0  0  0  0  0
  182.9570  178.6360  141.5070 C   0  0  0  0  0  3  0  0  0  0  0  0
  187.8900  178.5530  140.5760 C   0  0  0  0  0  0  0  0  0  0  0  0
  187.0750  178.8210  141.7550 C   0  0  0  0  0  0  0  0  0  0  0  0
  188.1930  177.9030  138.1080 C   0  0  2  0  0  3  0  0  0  0  0  0
  183.8090  177.9040  138.0130 C   0  0  0  0  0  0  0  0  0  0  0  0
  183.5280  178.9390  142.7540 C   0  0  0  0  0  3  0  0  0  0  0  0
  189.4320  175.8120  137.4350 C   0  0  0  0  0  0  0  0  0  0  0  0
  189.8420  177.2000  138.4850 S   0  0  0  0  0  0  0  0  0  0  0  0
  183.0660  177.6460  136.8560 O   0  0  0  0  0  0  0  0  0  0  0  0
  182.0200  176.6860  136.7990 C   0  0  0  0  0  1  0  0  0  0  0  0
  188.9800  177.5710  142.4620 C   0  0  0  0  0  2  0  0  0  0  0  0
  189.7920  177.0590  144.8070 C   0  0  0  0  0  0  0  0  0  0  0  0
  190.8030  176.4550  144.3590 O   0  0  0  0  0  0  0  0  0  0  0  0
  189.6010  177.1520  146.2190 N   0  0  0  0  0  2  0  0  0  0  0  0
  188.8470  177.6500  143.9090 N   0  0  0  0  0  2  0  0  0  0  0  0
  188.5970  177.9280  148.3270 C   0  0  0  0  0  1  0  0  0  0  0  0
  188.4510  177.8250  146.8150 C   0  0  2  0  0  3  0  0  0  0  0  0
  187.2250  177.2380  146.4250 O   0  0  0  0  0  0  0  0  0  0  0  0
  186.1950  178.1830  146.5700 C   0  0  0  0  0  1  0  0  0  0  0  0
  1  3  1  0  0  0  0
  2  7  2  0  0  0  0
  2  4  1  0  0  0  0
  4  1  2  0  0  0  0
  5 12  1  1  0  0  0
  5 18  1  0  0  0  0
  5  2  1  0  0  0  0
  6 20  1  0  0  0  0
  7 15  1  0  0  0  0
  8  9  1  0  0  0  0
  8 20  2  0  0  0  0
  9 17  1  0  0  0  0
 10  4  1  0  0  0  0
 10 14  2  0  0  0  0
 11 24  1  1  0  0  0
 12  9  1  0  0  0  0
 13 10  1  0  0  0  0
 14 19  1  0  0  0  0
 15 16  2  0  0  0  0
 15 11  1  0  0  0  0
 16  1  1  0  0  0  0
 16 11  1  0  0  0  0
 17 21  1  1  0  0  0
 17  7  1  0  0  0  0
 18 13  2  0  0  0  0
 19  3  2  0  0  0  0
 20 21  1  0  0  0  0
 22 18  1  0  0  0  0
 23 22  1  0  0  0  0
 24 28  1  0  0  0  0
 25 27  1  0  0  0  0
 26 25  2  0  0  0  0
 27 30  1  0  0  0  0
 28 25  1  0  0  0  0
 30 29  1  1  0  0  0
 31 32  1  0  0  0  0
 31 30  1  0  0  0  0
M  END
>  <MODEL>
9

>  <REMARK>
 VINA RESULT:      -7.6      2.462      7.841
  Name = 
  5 active torsions:
  status: ('A' for Active; 'I' for Inactive)
    1  A    between atoms: O_13  and  C_29
    2  A    between atoms: O_15  and  C_26
    3  A    between atoms: C_16  and  C_23
    4  A    between atoms: N_19  and  C_26
    5  A    between atoms: N_22  and  C_23
                            x       y       z     vdW  Elec       q    Type
                         _______ _______ _______ _____ _____    ______ ____

>  <TORSDO>
F 5

$$$$
