=
 OpenBabel10262420573D

 28 31  0  0  1  0  0  0  0  0999 V2000
  182.5850  179.4080  138.6860 C   0  0  2  0  0  0  0  0  0  0  0  0
  183.2470  177.1860  137.9030 N   0  0  0  0  0  0  0  0  0  0  0  0
  183.1980  178.6110  137.5420 C   0  0  0  0  0  2  0  0  0  0  0  0
  184.5770  176.7130  137.5650 C   0  0  0  0  0  1  0  0  0  0  0  0
  183.1050  177.0740  139.3540 C   0  0  2  0  0  3  0  0  0  0  0  0
  183.4480  178.9720  141.0920 C   0  0  2  0  0  3  0  0  0  0  0  0
  181.9550  178.6730  141.1490 C   0  0  0  0  0  2  0  0  0  0  0  0
  182.0430  176.0350  139.6760 C   0  0  0  0  0  1  0  0  0  0  0  0
  183.3400  180.5680  138.8830 O   0  0  0  0  0  1  0  0  0  0  0  0
  182.7130  178.4500  139.8520 C   0  0  1  0  0  0  0  0  0  0  0  0
  184.1730  177.9120  141.7860 N   0  0  0  0  0  2  0  0  0  0  0  0
  184.8880  179.1660  143.8400 C   0  0  0  0  0  2  0  0  0  0  0  0
  185.5490  177.7880  143.8550 C   0  0  1  0  0  3  0  0  0  0  0  0
  185.2770  178.5030  142.5370 C   0  0  1  0  0  0  0  0  0  0  0  0
  189.2770  176.9050  144.2170 C   0  0  0  0  0  2  0  0  0  0  0  0
  186.9890  177.9130  144.3400 C   0  0  2  0  0  3  0  0  0  0  0  0
  188.4750  177.9320  146.3560 C   0  0  1  0  0  3  0  0  0  0  0  0
  187.8360  176.7970  143.7300 C   0  0  0  0  0  2  0  0  0  0  0  0
  187.0340  177.8250  145.8650 C   0  0  0  0  0  2  0  0  0  0  0  0
  188.5100  177.7940  148.1270 Cl  0  0  0  0  0  0  0  0  0  0  0  0
  189.3250  176.8230  145.7410 C   0  0  0  0  0  2  0  0  0  0  0  0
  186.7150  178.6790  140.6610 O   0  0  0  0  0  0  0  0  0  0  0  0
  186.4260  179.0980  141.7700 C   0  0  0  0  0  3  0  0  0  0  0  0
  181.1340  179.8040  138.3760 C   0  0  0  0  0  2  0  0  0  0  0  0
  180.8320  181.2920  138.5580 C   0  0  0  0  0  2  0  0  0  0  0  0
  180.7110  181.9990  137.2140 C   0  0  0  0  0  2  0  0  0  0  0  0
  181.0300  183.4810  137.3370 C   0  0  0  0  0  2  0  0  0  0  0  0
  180.9970  184.1440  135.9730 C   0  0  0  0  0  1  0  0  0  0  0  0
  1  9  1  1  0  0  0
  1 10  1  0  0  0  0
  2  5  1  0  0  0  0
  3  2  1  0  0  0  0
  3  1  1  0  0  0  0
  4  2  1  0  0  0  0
  5  8  1  6  0  0  0
  5 10  1  0  0  0  0
  6  7  1  0  0  0  0
  6 11  1  1  0  0  0
 10  6  1  0  0  0  0
 10  7  1  1  0  0  0
 11 14  1  0  0  0  0
 13 12  1  1  0  0  0
 13 16  1  0  0  0  0
 14 23  1  6  0  0  0
 14 12  1  0  0  0  0
 14 13  1  0  0  0  0
 15 21  1  0  0  0  0
 16 18  1  6  0  0  0
 16 19  1  0  0  0  0
 17 20  1  1  0  0  0
 18 15  1  0  0  0  0
 19 17  1  0  0  0  0
 21 17  1  0  0  0  0
 22 23  2  0  0  0  0
 24 25  1  0  0  0  0
 24  1  1  0  0  0  0
 26 27  1  0  0  0  0
 26 25  1  0  0  0  0
 28 27  1  0  0  0  0
M  END
>  <MODEL>
1

>  <REMARK>
 VINA RESULT:      -6.9      0.000      0.000
  Name = 
  8 active torsions:
  status: ('A' for Active; 'I' for Inactive)
    1  A    between atoms: C_1  and  C_11
    2  A    between atoms: C_6  and  C_8
    3  A    between atoms: C_6  and  C_22
    4  A    between atoms: C_8  and  C_11
    5  A    between atoms: C_9  and  C_18
    6  A    between atoms: N_10  and  C_17
    7  A    between atoms: N_10  and  C_25
    8  A    between atoms: C_20  and  C_25
                            x       y       z     vdW  Elec       q    Type
                         _______ _______ _______ _____ _____    ______ ____

>  <TORSDO>
F 8

$$$$
=
 OpenBabel10262420573D

 28 31  0  0  1  0  0  0  0  0999 V2000
  190.3820  176.0050  137.7930 C   0  0  2  0  0  0  0  0  0  0  0  0
  188.3100  177.2240  137.3390 N   0  0  0  0  0  0  0  0  0  0  0  0
  189.0530  175.9880  137.0510 C   0  0  0  0  0  2  0  0  0  0  0  0
  186.9490  176.8300  137.6580 C   0  0  0  0  0  1  0  0  0  0  0  0
  188.8760  177.8310  138.5430 C   0  0  2  0  0  3  0  0  0  0  0  0
  190.3840  176.6580  140.3020 C   0  0  2  0  0  3  0  0  0  0  0  0
  191.3030  177.6710  139.6310 C   0  0  0  0  0  2  0  0  0  0  0  0
  189.1470  179.3040  138.2840 C   0  0  0  0  0  1  0  0  0  0  0  0
  190.5950  174.7490  138.3670 O   0  0  0  0  0  1  0  0  0  0  0  0
  190.1510  177.0710  138.8440 C   0  0  1  0  0  0  0  0  0  0  0  0
  189.4900  177.3600  141.2180 N   0  0  0  0  0  2  0  0  0  0  0  0
  190.5400  175.6290  142.7040 C   0  0  0  0  0  2  0  0  0  0  0  0
  190.5500  176.9710  143.4360 C   0  0  1  0  0  3  0  0  0  0  0  0
  189.4200  176.6200  142.4750 C   0  0  1  0  0  0  0  0  0  0  0  0
  189.1960  177.8210  146.9370 C   0  0  0  0  0  2  0  0  0  0  0  0
  190.1990  176.7580  144.9050 C   0  0  2  0  0  3  0  0  0  0  0  0
  191.1240  176.2410  147.1740 C   0  0  1  0  0  3  0  0  0  0  0  0
  189.5400  178.0180  145.4640 C   0  0  0  0  0  2  0  0  0  0  0  0
  191.4650  176.4370  145.6990 C   0  0  0  0  0  2  0  0  0  0  0  0
  192.6110  175.9020  148.0860 Cl  0  0  0  0  0  0  0  0  0  0  0  0
  190.4570  177.4940  147.7330 C   0  0  0  0  0  2  0  0  0  0  0  0
  187.1880  177.1200  143.0960 O   0  0  0  0  0  0  0  0  0  0  0  0
  188.0640  176.2740  143.0260 C   0  0  0  0  0  3  0  0  0  0  0  0
  191.5470  176.3230  136.8440 C   0  0  0  0  0  2  0  0  0  0  0  0
  192.5870  175.2080  136.7240 C   0  0  0  0  0  2  0  0  0  0  0  0
  193.7820  175.4680  137.6300 C   0  0  0  0  0  2  0  0  0  0  0  0
  194.7150  174.2680  137.6750 C   0  0  0  0  0  2  0  0  0  0  0  0
  195.4660  174.2300  138.9930 C   0  0  0  0  0  1  0  0  0  0  0  0
  1  9  1  1  0  0  0
  1 10  1  0  0  0  0
  2  4  1  0  0  0  0
  2  5  1  0  0  0  0
  3  2  1  0  0  0  0
  3  1  1  0  0  0  0
  5  8  1  6  0  0  0
  5 10  1  0  0  0  0
  6 11  1  1  0  0  0
  7  6  1  0  0  0  0
 10  7  1  6  0  0  0
 10  6  1  0  0  0  0
 11 14  1  0  0  0  0
 13 12  1  6  0  0  0
 13 16  1  0  0  0  0
 14 12  1  0  0  0  0
 14 23  1  1  0  0  0
 14 13  1  0  0  0  0
 15 21  1  0  0  0  0
 16 18  1  1  0  0  0
 16 19  1  0  0  0  0
 17 21  1  0  0  0  0
 17 20  1  1  0  0  0
 18 15  1  0  0  0  0
 19 17  1  0  0  0  0
 23 22  2  0  0  0  0
 24  1  1  0  0  0  0
 25 24  1  0  0  0  0
 25 26  1  0  0  0  0
 26 27  1  0  0  0  0
 27 28  1  0  0  0  0
M  END
>  <MODEL>
2

>  <REMARK>
 VINA RESULT:      -6.6      5.094      8.162
  Name = 
  8 active torsions:
  status: ('A' for Active; 'I' for Inactive)
    1  A    between atoms: C_1  and  C_11
    2  A    between atoms: C_6  and  C_8
    3  A    between atoms: C_6  and  C_22
    4  A    between atoms: C_8  and  C_11
    5  A    between atoms: C_9  and  C_18
    6  A    between atoms: N_10  and  C_17
    7  A    between atoms: N_10  and  C_25
    8  A    between atoms: C_20  and  C_25
                            x       y       z     vdW  Elec       q    Type
                         _______ _______ _______ _____ _____    ______ ____

>  <TORSDO>
F 8

$$$$
=
 OpenBabel10262420573D

 28 31  0  0  1  0  0  0  0  0999 V2000
  190.5860  175.7870  137.5750 C   0  0  2  0  0  0  0  0  0  0  0  0
  188.5530  176.8590  136.7350 N   0  0  0  0  0  0  0  0  0  0  0  0
  189.3720  175.6400  136.6670 C   0  0  0  0  0  2  0  0  0  0  0  0
  187.1760  176.4300  136.9070 C   0  0  0  0  0  1  0  0  0  0  0  0
  188.9270  177.5980  137.9410 C   0  0  2  0  0  3  0  0  0  0  0  0
  190.2210  176.6610  139.9880 C   0  0  2  0  0  3  0  0  0  0  0  0
  191.1870  177.6540  139.3520 C   0  0  0  0  0  2  0  0  0  0  0  0
  189.1780  179.0530  137.5810 C   0  0  0  0  0  1  0  0  0  0  0  0
  190.7630  174.5990  138.2880 O   0  0  0  0  0  1  0  0  0  0  0  0
  190.1760  176.9310  138.4800 C   0  0  1  0  0  0  0  0  0  0  0  0
  189.1860  177.3980  140.7070 N   0  0  0  0  0  2  0  0  0  0  0  0
  190.0090  178.2080  142.9360 C   0  0  0  0  0  2  0  0  0  0  0  0
  188.4870  178.0760  142.9960 C   0  0  1  0  0  3  0  0  0  0  0  0
  189.3150  177.1280  142.1360 C   0  0  1  0  0  0  0  0  0  0  0  0
  186.2460  177.3830  146.0480 C   0  0  0  0  0  2  0  0  0  0  0  0
  188.0750  177.4870  144.3420 C   0  0  2  0  0  3  0  0  0  0  0  0
  188.6410  177.3580  146.7780 C   0  0  1  0  0  3  0  0  0  0  0  0
  186.6640  177.9560  144.6970 C   0  0  0  0  0  2  0  0  0  0  0  0
  189.0580  177.9290  145.4250 C   0  0  0  0  0  2  0  0  0  0  0  0
  189.7760  177.9100  148.0290 Cl  0  0  0  0  0  0  0  0  0  0  0  0
  187.2290  177.8170  147.1320 C   0  0  0  0  0  2  0  0  0  0  0  0
  190.5350  175.3580  143.1320 O   0  0  0  0  0  0  0  0  0  0  0  0
  189.5040  175.7040  142.5800 C   0  0  0  0  0  3  0  0  0  0  0  0
  191.8580  176.0750  136.7630 C   0  0  0  0  0  2  0  0  0  0  0  0
  192.8920  174.9490  136.7870 C   0  0  0  0  0  2  0  0  0  0  0  0
  194.0180  175.2550  137.7650 C   0  0  0  0  0  2  0  0  0  0  0  0
  194.8350  174.0100  138.0760 C   0  0  0  0  0  2  0  0  0  0  0  0
  195.8210  174.2900  139.1950 C   0  0  0  0  0  1  0  0  0  0  0  0
  1  9  1  1  0  0  0
  1 10  1  0  0  0  0
  2  4  1  0  0  0  0
  2  5  1  0  0  0  0
  3  2  1  0  0  0  0
  3  1  1  0  0  0  0
  5  8  1  6  0  0  0
  5 10  1  0  0  0  0
  6 11  1  1  0  0  0
  7  6  1  0  0  0  0
 10  7  1  6  0  0  0
 10  6  1  0  0  0  0
 11 14  1  0  0  0  0
 13 12  1  1  0  0  0
 13 16  1  0  0  0  0
 14 23  1  1  0  0  0
 14 12  1  0  0  0  0
 14 13  1  0  0  0  0
 15 21  1  0  0  0  0
 16 18  1  1  0  0  0
 16 19  1  0  0  0  0
 17 21  1  0  0  0  0
 17 20  1  1  0  0  0
 18 15  1  0  0  0  0
 19 17  1  0  0  0  0
 23 22  2  0  0  0  0
 24 25  1  0  0  0  0
 24  1  1  0  0  0  0
 25 26  1  0  0  0  0
 26 27  1  0  0  0  0
 27 28  1  0  0  0  0
M  END
>  <MODEL>
3

>  <REMARK>
 VINA RESULT:      -6.5      5.309      8.183
  Name = 
  8 active torsions:
  status: ('A' for Active; 'I' for Inactive)
    1  A    between atoms: C_1  and  C_11
    2  A    between atoms: C_6  and  C_8
    3  A    between atoms: C_6  and  C_22
    4  A    between atoms: C_8  and  C_11
    5  A    between atoms: C_9  and  C_18
    6  A    between atoms: N_10  and  C_17
    7  A    between atoms: N_10  and  C_25
    8  A    between atoms: C_20  and  C_25
                            x       y       z     vdW  Elec       q    Type
                         _______ _______ _______ _____ _____    ______ ____

>  <TORSDO>
F 8

$$$$
=
 OpenBabel10262420573D

 28 31  0  0  1  0  0  0  0  0999 V2000
  188.2650  177.0030  143.8440 C   0  0  2  0  0  0  0  0  0  0  0  0
  190.4830  177.4070  144.7950 N   0  0  0  0  0  0  0  0  0  0  0  0
  189.2690  176.5850  144.9100 C   0  0  0  0  0  2  0  0  0  0  0  0
  191.6130  176.4970  144.8560 C   0  0  0  0  0  1  0  0  0  0  0  0
  190.4980  178.0220  143.4680 C   0  0  2  0  0  3  0  0  0  0  0  0
  189.1030  177.2830  141.4060 C   0  0  2  0  0  3  0  0  0  0  0  0
  188.5290  178.6430  141.7840 C   0  0  0  0  0  2  0  0  0  0  0  0
  190.7770  179.5100  143.6080 C   0  0  0  0  0  1  0  0  0  0  0  0
  187.7150  175.8550  143.2680 O   0  0  0  0  0  1  0  0  0  0  0  0
  189.1340  177.7620  142.8620 C   0  0  1  0  0  0  0  0  0  0  0  0
  190.3870  177.4780  140.7390 N   0  0  0  0  0  2  0  0  0  0  0  0
  191.4690  177.1390  138.4990 C   0  0  0  0  0  2  0  0  0  0  0  0
  190.5490  175.9510  138.7810 C   0  0  1  0  0  3  0  0  0  0  0  0
  190.2000  177.3420  139.2980 C   0  0  1  0  0  0  0  0  0  0  0  0
  187.5660  175.0000  136.5430 C   0  0  0  0  0  2  0  0  0  0  0  0
  189.8070  175.5620  137.5070 C   0  0  2  0  0  3  0  0  0  0  0  0
  189.6180  173.8460  135.6930 C   0  0  1  0  0  3  0  0  0  0  0  0
  188.3170  175.4020  137.8090 C   0  0  0  0  0  2  0  0  0  0  0  0
  190.3690  174.2510  136.9580 C   0  0  0  0  0  2  0  0  0  0  0  0
  190.2640  172.3040  135.0890 Cl  0  0  0  0  0  0  0  0  0  0  0  0
  188.1290  173.6940  135.9890 C   0  0  0  0  0  2  0  0  0  0  0  0
  189.2080  179.3030  138.4100 O   0  0  0  0  0  0  0  0  0  0  0  0
  189.0850  178.1130  138.6460 C   0  0  0  0  0  3  0  0  0  0  0  0
  187.1340  177.8510  144.4430 C   0  0  0  0  0  2  0  0  0  0  0  0
  186.7950  177.5170  145.8960 C   0  0  0  0  0  2  0  0  0  0  0  0
  185.5820  178.3030  146.3740 C   0  0  0  0  0  2  0  0  0  0  0  0
  185.0450  179.2140  145.2810 C   0  0  0  0  0  2  0  0  0  0  0  0
  183.5820  178.9170  145.0160 C   0  0  0  0  0  1  0  0  0  0  0  0
  1  9  1  6  0  0  0
  1 24  1  0  0  0  0
  1  3  1  0  0  0  0
  2  4  1  0  0  0  0
  2  3  1  0  0  0  0
  5  8  1  1  0  0  0
  5  2  1  0  0  0  0
  6 11  1  6  0  0  0
  6  7  1  0  0  0  0
  6 10  1  0  0  0  0
 10  7  1  6  0  0  0
 10  5  1  0  0  0  0
 10  1  1  0  0  0  0
 12 14  1  0  0  0  0
 13 12  1  6  0  0  0
 13 14  1  0  0  0  0
 14 23  1  6  0  0  0
 14 11  1  0  0  0  0
 15 18  1  0  0  0  0
 16 19  1  1  0  0  0
 16 18  1  0  0  0  0
 16 13  1  0  0  0  0
 17 20  1  1  0  0  0
 17 21  1  0  0  0  0
 17 19  1  0  0  0  0
 21 15  1  0  0  0  0
 22 23  2  0  0  0  0
 24 25  1  0  0  0  0
 25 26  1  0  0  0  0
 27 26  1  0  0  0  0
 28 27  1  0  0  0  0
M  END
>  <MODEL>
4

>  <REMARK>
 VINA RESULT:      -6.4      5.889      8.836
  Name = 
  8 active torsions:
  status: ('A' for Active; 'I' for Inactive)
    1  A    between atoms: C_1  and  C_11
    2  A    between atoms: C_6  and  C_8
    3  A    between atoms: C_6  and  C_22
    4  A    between atoms: C_8  and  C_11
    5  A    between atoms: C_9  and  C_18
    6  A    between atoms: N_10  and  C_17
    7  A    between atoms: N_10  and  C_25
    8  A    between atoms: C_20  and  C_25
                            x       y       z     vdW  Elec       q    Type
                         _______ _______ _______ _____ _____    ______ ____

>  <TORSDO>
F 8

$$$$
=
 OpenBabel10262420573D

 28 31  0  0  1  0  0  0  0  0999 V2000
  188.2300  177.0100  143.7100 C   0  0  2  0  0  0  0  0  0  0  0  0
  190.5220  177.3450  144.4980 N   0  0  0  0  0  0  0  0  0  0  0  0
  189.3010  176.5470  144.6880 C   0  0  0  0  0  2  0  0  0  0  0  0
  191.6320  176.4090  144.4550 C   0  0  0  0  0  1  0  0  0  0  0  0
  190.4510  177.9900  143.1880 C   0  0  2  0  0  3  0  0  0  0  0  0
  188.8890  177.3280  141.2220 C   0  0  2  0  0  3  0  0  0  0  0  0
  188.3760  178.6910  141.6710 C   0  0  0  0  0  2  0  0  0  0  0  0
  190.7740  179.4680  143.3370 C   0  0  0  0  0  1  0  0  0  0  0  0
  187.6120  175.8870  143.1540 O   0  0  0  0  0  1  0  0  0  0  0  0
  189.0400  177.7730  142.6810 C   0  0  1  0  0  0  0  0  0  0  0  0
  190.1230  177.5090  140.4640 N   0  0  0  0  0  2  0  0  0  0  0  0
  190.3970  176.0630  138.4310 C   0  0  0  0  0  2  0  0  0  0  0  0
  188.9080  176.1540  138.7670 C   0  0  1  0  0  3  0  0  0  0  0  0
  189.8400  177.3290  139.0440 C   0  0  1  0  0  0  0  0  0  0  0  0
  185.9660  177.1700  136.5040 C   0  0  0  0  0  2  0  0  0  0  0  0
  188.0980  176.2970  137.4830 C   0  0  2  0  0  3  0  0  0  0  0  0
  186.9720  175.0520  135.6250 C   0  0  1  0  0  3  0  0  0  0  0  0
  186.7910  177.0310  137.7790 C   0  0  0  0  0  2  0  0  0  0  0  0
  187.7990  174.9160  136.9020 C   0  0  0  0  0  2  0  0  0  0  0  0
  186.6060  173.4360  134.9830 Cl  0  0  0  0  0  0  0  0  0  0  0  0
  185.6700  175.7920  135.9160 C   0  0  0  0  0  2  0  0  0  0  0  0
  188.9840  179.4500  138.4240 O   0  0  0  0  0  0  0  0  0  0  0  0
  189.7660  178.5500  138.1690 C   0  0  0  0  0  3  0  0  0  0  0  0
  187.1670  177.8690  144.4110 C   0  0  0  0  0  2  0  0  0  0  0  0
  186.7560  177.3620  145.7930 C   0  0  0  0  0  2  0  0  0  0  0  0
  185.7410  178.2920  146.4430 C   0  0  0  0  0  2  0  0  0  0  0  0
  185.1510  179.2630  145.4310 C   0  0  0  0  0  2  0  0  0  0  0  0
  183.7070  178.9050  145.1360 C   0  0  0  0  0  1  0  0  0  0  0  0
  1  9  1  6  0  0  0
  1 24  1  0  0  0  0
  1  3  1  0  0  0  0
  2  3  1  0  0  0  0
  4  2  1  0  0  0  0
  5  8  1  1  0  0  0
  5  2  1  0  0  0  0
  6 11  1  6  0  0  0
  6  7  1  0  0  0  0
  6 10  1  0  0  0  0
 10  7  1  1  0  0  0
 10  5  1  0  0  0  0
 10  1  1  0  0  0  0
 12 14  1  0  0  0  0
 13 12  1  6  0  0  0
 13 14  1  0  0  0  0
 14 23  1  6  0  0  0
 14 11  1  0  0  0  0
 15 18  1  0  0  0  0
 16 19  1  1  0  0  0
 16 18  1  0  0  0  0
 16 13  1  0  0  0  0
 17 20  1  1  0  0  0
 17 21  1  0  0  0  0
 17 19  1  0  0  0  0
 21 15  1  0  0  0  0
 23 22  2  0  0  0  0
 24 25  1  0  0  0  0
 25 26  1  0  0  0  0
 27 26  1  0  0  0  0
 28 27  1  0  0  0  0
M  END
>  <MODEL>
5

>  <REMARK>
 VINA RESULT:      -6.3      5.214      8.699
  Name = 
  8 active torsions:
  status: ('A' for Active; 'I' for Inactive)
    1  A    between atoms: C_1  and  C_11
    2  A    between atoms: C_6  and  C_8
    3  A    between atoms: C_6  and  C_22
    4  A    between atoms: C_8  and  C_11
    5  A    between atoms: C_9  and  C_18
    6  A    between atoms: N_10  and  C_17
    7  A    between atoms: N_10  and  C_25
    8  A    between atoms: C_20  and  C_25
                            x       y       z     vdW  Elec       q    Type
                         _______ _______ _______ _____ _____    ______ ____

>  <TORSDO>
F 8

$$$$
=
 OpenBabel10262420573D

 28 31  0  0  1  0  0  0  0  0999 V2000
  182.0190  177.4630  138.6690 C   0  0  2  0  0  0  0  0  0  0  0  0
  180.0380  177.3080  140.0980 N   0  0  0  0  0  0  0  0  0  0  0  0
  180.7350  176.6960  138.9570 C   0  0  0  0  0  2  0  0  0  0  0  0
  179.6540  176.2250  140.9850 C   0  0  0  0  0  1  0  0  0  0  0  0
  180.9930  178.1430  140.8260 C   0  0  2  0  0  3  0  0  0  0  0  0
  183.5820  178.0360  140.6570 C   0  0  2  0  0  3  0  0  0  0  0  0
  183.2180  179.3820  140.0410 C   0  0  0  0  0  2  0  0  0  0  0  0
  180.3790  179.5120  141.0700 C   0  0  0  0  0  1  0  0  0  0  0  0
  183.0490  176.5470  138.4360 O   0  0  0  0  0  1  0  0  0  0  0  0
  182.2320  178.2300  139.9580 C   0  0  1  0  0  0  0  0  0  0  0  0
  183.4650  178.1300  142.1090 N   0  0  0  0  0  2  0  0  0  0  0  0
  184.5760  179.7310  143.6920 C   0  0  0  0  0  2  0  0  0  0  0  0
  184.9010  178.3040  144.1330 C   0  0  1  0  0  3  0  0  0  0  0  0
  184.7190  178.6370  142.6570 C   0  0  1  0  0  0  0  0  0  0  0  0
  188.4770  176.9000  144.3740 C   0  0  0  0  0  2  0  0  0  0  0  0
  186.3600  178.2210  144.5720 C   0  0  2  0  0  3  0  0  0  0  0  0
  187.8960  178.0150  146.5390 C   0  0  1  0  0  3  0  0  0  0  0  0
  187.0210  177.0000  143.9320 C   0  0  0  0  0  2  0  0  0  0  0  0
  186.4390  178.1170  146.0940 C   0  0  0  0  0  2  0  0  0  0  0  0
  187.9650  177.8610  148.3080 Cl  0  0  0  0  0  0  0  0  0  0  0  0
  188.5610  176.8020  145.8950 C   0  0  0  0  0  2  0  0  0  0  0  0
  186.3550  179.7520  141.3540 O   0  0  0  0  0  0  0  0  0  0  0  0
  185.9240  178.6850  141.7570 C   0  0  0  0  0  3  0  0  0  0  0  0
  181.8660  178.3660  137.4370 C   0  0  0  0  0  2  0  0  0  0  0  0
  180.5280  179.1000  137.3530 C   0  0  0  0  0  2  0  0  0  0  0  0
  180.6400  180.3560  136.4990 C   0  0  0  0  0  2  0  0  0  0  0  0
  180.1500  181.5840  137.2500 C   0  0  0  0  0  2  0  0  0  0  0  0
  181.2690  182.1730  138.0880 C   0  0  0  0  0  1  0  0  0  0  0  0
  1  9  1  6  0  0  0
  1  3  1  0  0  0  0
  1 10  1  0  0  0  0
  2  5  1  0  0  0  0
  2  4  1  0  0  0  0
  3  2  1  0  0  0  0
  5  8  1  6  0  0  0
  6 11  1  1  0  0  0
  7  6  1  0  0  0  0
 10  7  1  6  0  0  0
 10  6  1  0  0  0  0
 10  5  1  0  0  0  0
 11 14  1  0  0  0  0
 13 12  1  1  0  0  0
 13 16  1  0  0  0  0
 14 23  1  6  0  0  0
 14 12  1  0  0  0  0
 14 13  1  0  0  0  0
 15 21  1  0  0  0  0
 16 18  1  6  0  0  0
 16 19  1  0  0  0  0
 17 20  1  1  0  0  0
 18 15  1  0  0  0  0
 19 17  1  0  0  0  0
 21 17  1  0  0  0  0
 22 23  2  0  0  0  0
 24  1  1  0  0  0  0
 25 24  1  0  0  0  0
 26 27  1  0  0  0  0
 26 25  1  0  0  0  0
 27 28  1  0  0  0  0
M  END
>  <MODEL>
6

>  <REMARK>
 VINA RESULT:      -6.1      1.615      2.290
  Name = 
  8 active torsions:
  status: ('A' for Active; 'I' for Inactive)
    1  A    between atoms: C_1  and  C_11
    2  A    between atoms: C_6  and  C_8
    3  A    between atoms: C_6  and  C_22
    4  A    between atoms: C_8  and  C_11
    5  A    between atoms: C_9  and  C_18
    6  A    between atoms: N_10  and  C_17
    7  A    between atoms: N_10  and  C_25
    8  A    between atoms: C_20  and  C_25
                            x       y       z     vdW  Elec       q    Type
                         _______ _______ _______ _____ _____    ______ ____

>  <TORSDO>
F 8

$$$$
=
 OpenBabel10262420573D

 28 31  0  0  1  0  0  0  0  0999 V2000
  188.5040  178.4550  136.8420 C   0  0  2  0  0  0  0  0  0  0  0  0
  189.6640  176.3830  136.2530 N   0  0  0  0  0  0  0  0  0  0  0  0
  189.5270  177.8080  135.9170 C   0  0  0  0  0  2  0  0  0  0  0  0
  191.0880  176.1030  136.3160 C   0  0  0  0  0  1  0  0  0  0  0  0
  189.1250  176.1730  137.5960 C   0  0  2  0  0  3  0  0  0  0  0  0
  188.6830  177.9990  139.3880 C   0  0  2  0  0  3  0  0  0  0  0  0
  187.2940  177.5090  138.9960 C   0  0  0  0  0  2  0  0  0  0  0  0
  188.1690  174.9910  137.5740 C   0  0  0  0  0  1  0  0  0  0  0  0
  189.0010  179.6890  137.2710 O   0  0  0  0  0  1  0  0  0  0  0  0
  188.4190  177.4570  137.9780 C   0  0  1  0  0  0  0  0  0  0  0  0
  189.3150  177.0030  140.2470 N   0  0  0  0  0  2  0  0  0  0  0  0
  188.9520  178.7230  142.0400 C   0  0  0  0  0  2  0  0  0  0  0  0
  189.0630  177.3480  142.6990 C   0  0  1  0  0  3  0  0  0  0  0  0
  189.8490  177.6670  141.4320 C   0  0  1  0  0  0  0  0  0  0  0  0
  191.6650  176.3610  145.3580 C   0  0  0  0  0  2  0  0  0  0  0  0
  189.8850  177.4550  143.9790 C   0  0  2  0  0  3  0  0  0  0  0  0
  189.7730  177.5590  146.4790 C   0  0  1  0  0  3  0  0  0  0  0  0
  190.8450  176.2710  144.0750 C   0  0  0  0  0  2  0  0  0  0  0  0
  188.9560  177.4700  145.1920 C   0  0  0  0  0  2  0  0  0  0  0  0
  188.6780  177.5420  147.8780 Cl  0  0  0  0  0  0  0  0  0  0  0  0
  190.7390  176.3820  146.5730 C   0  0  0  0  0  2  0  0  0  0  0  0
  192.0700  177.5190  140.6190 O   0  0  0  0  0  0  0  0  0  0  0  0
  191.3350  177.8830  141.5210 C   0  0  0  0  0  3  0  0  0  0  0  0
  187.1650  178.6800  136.1230 C   0  0  0  0  0  2  0  0  0  0  0  0
  187.0000  177.8830  134.8290 C   0  0  0  0  0  2  0  0  0  0  0  0
  185.9980  176.7490  135.0040 C   0  0  0  0  0  2  0  0  0  0  0  0
  184.8800  177.1400  135.9580 C   0  0  0  0  0  2  0  0  0  0  0  0
  184.6340  176.0340  136.9660 C   0  0  0  0  0  1  0  0  0  0  0  0
  1  9  1  1  0  0  0
  1 10  1  0  0  0  0
  2  4  1  0  0  0  0
  2  5  1  0  0  0  0
  3  2  1  0  0  0  0
  3  1  1  0  0  0  0
  5  8  1  6  0  0  0
  5 10  1  0  0  0  0
  6 11  1  1  0  0  0
  7  6  1  0  0  0  0
 10  7  1  1  0  0  0
 10  6  1  0  0  0  0
 11 14  1  0  0  0  0
 13 12  1  1  0  0  0
 13 16  1  0  0  0  0
 14 23  1  1  0  0  0
 14 12  1  0  0  0  0
 14 13  1  0  0  0  0
 15 21  1  0  0  0  0
 16 18  1  1  0  0  0
 16 19  1  0  0  0  0
 17 21  1  0  0  0  0
 17 20  1  1  0  0  0
 18 15  1  0  0  0  0
 19 17  1  0  0  0  0
 22 23  2  0  0  0  0
 24  1  1  0  0  0  0
 25 26  1  0  0  0  0
 25 24  1  0  0  0  0
 26 27  1  0  0  0  0
 27 28  1  0  0  0  0
M  END
>  <MODEL>
7

>  <REMARK>
 VINA RESULT:      -6.1      4.414      5.584
  Name = 
  8 active torsions:
  status: ('A' for Active; 'I' for Inactive)
    1  A    between atoms: C_1  and  C_11
    2  A    between atoms: C_6  and  C_8
    3  A    between atoms: C_6  and  C_22
    4  A    between atoms: C_8  and  C_11
    5  A    between atoms: C_9  and  C_18
    6  A    between atoms: N_10  and  C_17
    7  A    between atoms: N_10  and  C_25
    8  A    between atoms: C_20  and  C_25
                            x       y       z     vdW  Elec       q    Type
                         _______ _______ _______ _____ _____    ______ ____

>  <TORSDO>
F 8

$$$$
=
 OpenBabel10262420573D

 28 31  0  0  1  0  0  0  0  0999 V2000
  191.3090  176.6040  144.2820 C   0  0  2  0  0  0  0  0  0  0  0  0
  190.5150  178.8890  144.6490 N   0  0  0  0  0  0  0  0  0  0  0  0
  191.6950  178.0130  144.7110 C   0  0  0  0  0  2  0  0  0  0  0  0
  190.9290  180.1030  143.9680 C   0  0  0  0  0  1  0  0  0  0  0  0
  189.5080  178.2460  143.8070 C   0  0  2  0  0  3  0  0  0  0  0  0
  189.9100  176.3140  142.1190 C   0  0  2  0  0  3  0  0  0  0  0  0
  189.0660  175.6840  143.2200 C   0  0  0  0  0  2  0  0  0  0  0  0
  188.1690  178.2570  144.5270 C   0  0  0  0  0  1  0  0  0  0  0  0
  192.2940  176.1070  143.4260 O   0  0  0  0  0  1  0  0  0  0  0  0
  189.9990  176.8340  143.5580 C   0  0  1  0  0  0  0  0  0  0  0  0
  189.0550  177.1530  141.2850 N   0  0  0  0  0  2  0  0  0  0  0  0
  191.2960  177.5000  140.2070 C   0  0  0  0  0  2  0  0  0  0  0  0
  190.5700  176.3740  139.4710 C   0  0  1  0  0  3  0  0  0  0  0  0
  189.7890  177.5330  140.0810 C   0  0  1  0  0  0  0  0  0  0  0  0
  189.8910  175.9400  135.7070 C   0  0  0  0  0  2  0  0  0  0  0  0
  190.8010  176.5080  137.9690 C   0  0  2  0  0  3  0  0  0  0  0  0
  192.3660  175.9860  136.0860 C   0  0  1  0  0  3  0  0  0  0  0  0
  189.6650  175.8220  137.2110 C   0  0  0  0  0  2  0  0  0  0  0  0
  192.1370  175.8710  137.5910 C   0  0  0  0  0  2  0  0  0  0  0  0
  193.9070  175.2110  135.6610 Cl  0  0  0  0  0  0  0  0  0  0  0  0
  191.2290  175.3090  135.3260 C   0  0  0  0  0  2  0  0  0  0  0  0
  187.9850  178.6160  138.9910 O   0  0  0  0  0  0  0  0  0  0  0  0
  189.1890  178.5750  139.1780 C   0  0  0  0  0  3  0  0  0  0  0  0
  191.1830  175.6670  145.4930 C   0  0  0  0  0  2  0  0  0  0  0  0
  191.1380  176.3820  146.8440 C   0  0  0  0  0  2  0  0  0  0  0  0
  189.7130  176.4770  147.3710 C   0  0  0  0  0  2  0  0  0  0  0  0
  189.4360  177.8460  147.9740 C   0  0  0  0  0  2  0  0  0  0  0  0
  187.9690  177.9760  148.3380 C   0  0  0  0  0  1  0  0  0  0  0  0
  1  9  1  6  0  0  0
  1  3  1  0  0  0  0
  1 24  1  0  0  0  0
  2  3  1  0  0  0  0
  4  2  1  0  0  0  0
  5  8  1  1  0  0  0
  5  2  1  0  0  0  0
  6 11  1  6  0  0  0
  6  7  1  0  0  0  0
  6 10  1  0  0  0  0
 10  7  1  1  0  0  0
 10  5  1  0  0  0  0
 10  1  1  0  0  0  0
 13 14  1  0  0  0  0
 13 12  1  1  0  0  0
 14 23  1  6  0  0  0
 14 12  1  0  0  0  0
 14 11  1  0  0  0  0
 15 18  1  0  0  0  0
 16 18  1  6  0  0  0
 16 13  1  0  0  0  0
 17 20  1  1  0  0  0
 17 19  1  0  0  0  0
 19 16  1  0  0  0  0
 21 15  1  0  0  0  0
 21 17  1  0  0  0  0
 22 23  2  0  0  0  0
 24 25  1  0  0  0  0
 25 26  1  0  0  0  0
 26 27  1  0  0  0  0
 27 28  1  0  0  0  0
M  END
>  <MODEL>
8

>  <REMARK>
 VINA RESULT:      -6.0      6.319      9.970
  Name = 
  8 active torsions:
  status: ('A' for Active; 'I' for Inactive)
    1  A    between atoms: C_1  and  C_11
    2  A    between atoms: C_6  and  C_8
    3  A    between atoms: C_6  and  C_22
    4  A    between atoms: C_8  and  C_11
    5  A    between atoms: C_9  and  C_18
    6  A    between atoms: N_10  and  C_17
    7  A    between atoms: N_10  and  C_25
    8  A    between atoms: C_20  and  C_25
                            x       y       z     vdW  Elec       q    Type
                         _______ _______ _______ _____ _____    ______ ____

>  <TORSDO>
F 8

$$$$
=
 OpenBabel10262420573D

 28 31  0  0  1  0  0  0  0  0999 V2000
  180.9530  178.7640  140.8480 C   0  0  2  0  0  0  0  0  0  0  0  0
  181.5090  180.0050  138.8130 N   0  0  0  0  0  0  0  0  0  0  0  0
  180.7380  180.0530  140.0640 C   0  0  0  0  0  2  0  0  0  0  0  0
  182.2020  181.2760  138.6980 C   0  0  0  0  0  1  0  0  0  0  0  0
  182.5320  178.9680  138.9430 C   0  0  2  0  0  3  0  0  0  0  0  0
  183.3770  177.8990  141.1530 C   0  0  2  0  0  3  0  0  0  0  0  0
  182.6420  176.7690  140.4430 C   0  0  0  0  0  2  0  0  0  0  0  0
  182.4940  178.0680  137.7190 C   0  0  0  0  0  1  0  0  0  0  0  0
  181.1520  179.0830  142.1930 O   0  0  0  0  0  1  0  0  0  0  0  0
  182.2080  178.2050  140.2110 C   0  0  1  0  0  0  0  0  0  0  0  0
  184.6700  178.1060  140.5070 N   0  0  0  0  0  2  0  0  0  0  0  0
  184.9970  179.4030  142.6310 C   0  0  0  0  0  2  0  0  0  0  0  0
  185.4740  177.9690  142.8580 C   0  0  1  0  0  3  0  0  0  0  0  0
  185.6150  178.6270  141.4900 C   0  0  1  0  0  0  0  0  0  0  0  0
  188.9080  176.7740  144.1190 C   0  0  0  0  0  2  0  0  0  0  0  0
  186.7570  177.9770  143.6820 C   0  0  2  0  0  3  0  0  0  0  0  0
  187.6990  177.8980  146.0010 C   0  0  1  0  0  3  0  0  0  0  0  0
  187.6270  176.7830  143.2920 C   0  0  0  0  0  2  0  0  0  0  0  0
  186.4180  177.9090  145.1710 C   0  0  0  0  0  2  0  0  0  0  0  0
  187.2850  177.7850  147.7260 Cl  0  0  0  0  0  0  0  0  0  0  0  0
  188.5730  176.7120  145.6080 C   0  0  0  0  0  2  0  0  0  0  0  0
  187.5260  178.4700  140.0970 O   0  0  0  0  0  0  0  0  0  0  0  0
  186.9760  179.0560  141.0150 C   0  0  0  0  0  3  0  0  0  0  0  0
  179.7380  177.8310  140.7310 C   0  0  0  0  0  2  0  0  0  0  0  0
  179.2380  177.6200  139.3030 C   0  0  0  0  0  2  0  0  0  0  0  0
  179.4810  176.1910  138.8380 C   0  0  0  0  0  2  0  0  0  0  0  0
  179.3250  175.2020  139.9830 C   0  0  0  0  0  2  0  0  0  0  0  0
  179.1900  173.7890  139.4470 C   0  0  0  0  0  1  0  0  0  0  0  0
  1  9  1  1  0  0  0
  2  5  1  0  0  0  0
  2  3  1  0  0  0  0
  3  1  1  0  0  0  0
  4  2  1  0  0  0  0
  5  8  1  6  0  0  0
  5 10  1  0  0  0  0
  6 11  1  6  0  0  0
  7  6  1  0  0  0  0
 10  7  1  6  0  0  0
 10  1  1  0  0  0  0
 10  6  1  0  0  0  0
 11 14  1  0  0  0  0
 13 12  1  1  0  0  0
 13 16  1  0  0  0  0
 14 23  1  6  0  0  0
 14 12  1  0  0  0  0
 14 13  1  0  0  0  0
 15 21  1  0  0  0  0
 16 18  1  6  0  0  0
 16 19  1  0  0  0  0
 17 20  1  1  0  0  0
 18 15  1  0  0  0  0
 19 17  1  0  0  0  0
 21 17  1  0  0  0  0
 22 23  2  0  0  0  0
 24  1  1  0  0  0  0
 25 24  1  0  0  0  0
 26 25  1  0  0  0  0
 26 27  1  0  0  0  0
 28 27  1  0  0  0  0
M  END
>  <MODEL>
9

>  <REMARK>
 VINA RESULT:      -5.8      1.835      3.671
  Name = 
  8 active torsions:
  status: ('A' for Active; 'I' for Inactive)
    1  A    between atoms: C_1  and  C_11
    2  A    between atoms: C_6  and  C_8
    3  A    between atoms: C_6  and  C_22
    4  A    between atoms: C_8  and  C_11
    5  A    between atoms: C_9  and  C_18
    6  A    between atoms: N_10  and  C_17
    7  A    between atoms: N_10  and  C_25
    8  A    between atoms: C_20  and  C_25
                            x       y       z     vdW  Elec       q    Type
                         _______ _______ _______ _____ _____    ______ ____

>  <TORSDO>
F 8

$$$$
