=
 OpenBabel10262419313D

 31 34  0  0  1  0  0  0  0  0999 V2000
  188.4750  177.5090  147.0210 C   0  0  0  0  0  0  0  0  0  0  0  0
  187.0430  178.1390  143.4780 C   0  0  0  0  0  0  0  0  0  0  0  0
  185.5860  178.3730  143.7350 C   0  0  0  0  0  0  0  0  0  0  0  0
  183.7060  178.7170  145.2440 C   0  0  0  0  0  3  0  0  0  0  0  0
  187.9770  177.7360  144.5780 C   0  0  0  0  0  0  0  0  0  0  0  0
  189.5480  176.7600  146.7370 C   0  0  0  0  0  3  0  0  0  0  0  0
  185.0730  178.5160  145.0330 C   0  0  0  0  0  3  0  0  0  0  0  0
  188.9410  177.8650  141.8910 C   0  0  2  0  0  3  0  0  0  0  0  0
  187.9270  177.5250  148.4050 C   0  0  0  0  0  1  0  0  0  0  0  0
  185.1880  178.1820  141.2540 C   0  0  0  0  0  2  0  0  0  0  0  0
  182.8320  178.7700  144.1570 C   0  0  0  0  0  0  0  0  0  0  0  0
  189.3160  176.2710  142.6810 S   0  0  0  0  0  0  0  0  0  0  0  0
  187.5040  178.2260  142.2030 C   0  0  0  0  0  0  0  0  0  0  0  0
  187.8380  178.3570  145.9510 C   0  0  0  0  0  2  0  0  0  0  0  0
  181.3780  178.9800  144.3820 C   0  0  0  0  0  1  0  0  0  0  0  0
  189.0610  176.9720  144.3130 C   0  0  0  0  0  0  0  0  0  0  0  0
  190.1330  176.7720  145.3510 C   0  0  0  0  0  2  0  0  0  0  0  0
  186.5990  178.7390  141.1080 C   0  0  0  0  0  2  0  0  0  0  0  0
  184.6900  178.4240  142.6440 C   0  0  0  0  0  0  0  0  0  0  0  0
  183.3220  178.6150  142.8590 C   0  0  0  0  0  3  0  0  0  0  0  0
  189.2250  177.7790  140.3960 C   0  0  0  0  0  2  0  0  0  0  0  0
  191.7500  175.5180  138.6470 N   0  0  0  0  0  2  0  0  0  0  0  0
  191.8700  175.6050  136.3060 O   0  0  0  0  0  0  0  0  0  0  0  0
  190.2730  177.1460  137.8400 O   0  0  0  0  0  0  0  0  0  0  0  0
  190.2620  176.7910  140.1430 N   0  0  0  0  0  2  0  0  0  0  0  0
  192.2840  175.1030  137.3850 C   0  0  0  0  0  0  0  0  0  0  0  0
  190.7380  176.5150  138.8260 C   0  0  0  0  0  0  0  0  0  0  0  0
  193.3610  174.0740  137.3520 C   0  0  0  0  0  2  0  0  0  0  0  0
  194.6130  174.5860  138.0420 C   0  0  2  0  0  3  0  0  0  0  0  0
  195.4190  175.2640  137.1250 O   0  0  0  0  0  1  0  0  0  0  0  0
  195.3830  173.4150  138.6120 C   0  0  0  0  0  1  0  0  0  0  0  0
  1  9  1  0  0  0  0
  2  3  1  0  0  0  0
  2  5  1  0  0  0  0
  3  7  1  0  0  0  0
  5 14  1  0  0  0  0
  6  1  2  0  0  0  0
  7  4  2  0  0  0  0
  8 21  1  6  0  0  0
  8 13  1  0  0  0  0
  8 12  1  0  0  0  0
 10 19  1  0  0  0  0
 11 15  1  0  0  0  0
 11  4  1  0  0  0  0
 12 16  1  0  0  0  0
 13  2  2  0  0  0  0
 14  1  1  0  0  0  0
 16  5  2  0  0  0  0
 16 17  1  0  0  0  0
 17  6  1  0  0  0  0
 18 10  1  0  0  0  0
 18 13  1  0  0  0  0
 19 20  1  0  0  0  0
 19  3  2  0  0  0  0
 20 11  2  0  0  0  0
 22 27  1  0  0  0  0
 23 26  2  0  0  0  0
 24 27  2  0  0  0  0
 25 21  1  0  0  0  0
 26 22  1  0  0  0  0
 27 25  1  0  0  0  0
 28 26  1  0  0  0  0
 28 29  1  0  0  0  0
 29 31  1  6  0  0  0
 30 29  1  0  0  0  0
M  END
>  <MODEL>
1

>  <REMARK>
 VINA RESULT:     -10.2      0.000      0.000
  Name = 
  4 active torsions:
  status: ('A' for Active; 'I' for Inactive)
    1  A    between atoms: C_1  and  C_24
    2  A    between atoms: N_9  and  C_23
    3  A    between atoms: C_15  and  C_23
    4  A    between atoms: C_19  and  C_24
                            x       y       z     vdW  Elec       q    Type
                         _______ _______ _______ _____ _____    ______ ____

>  <TORSDO>
F 4

$$$$
=
 OpenBabel10262419313D

 31 34  0  0  1  0  0  0  0  0999 V2000
  189.1220  177.2600  147.1830 C   0  0  0  0  0  0  0  0  0  0  0  0
  188.3230  177.9640  143.4600 C   0  0  0  0  0  0  0  0  0  0  0  0
  186.8460  178.2150  143.4690 C   0  0  0  0  0  0  0  0  0  0  0  0
  184.7400  178.5640  144.6410 C   0  0  0  0  0  3  0  0  0  0  0  0
  189.0510  177.5310  144.6960 C   0  0  0  0  0  0  0  0  0  0  0  0
  190.2180  176.4990  147.0740 C   0  0  0  0  0  3  0  0  0  0  0  0
  186.1200  178.3460  144.6630 C   0  0  0  0  0  3  0  0  0  0  0  0
  190.4610  177.6860  142.2150 C   0  0  2  0  0  3  0  0  0  0  0  0
  188.3450  177.2630  148.4540 C   0  0  0  0  0  1  0  0  0  0  0  0
  186.8750  178.0670  140.9530 C   0  0  0  0  0  2  0  0  0  0  0  0
  184.0650  178.6460  143.4220 C   0  0  0  0  0  0  0  0  0  0  0  0
  190.6760  176.0750  143.0300 S   0  0  0  0  0  0  0  0  0  0  0  0
  188.9960  178.0630  142.2840 C   0  0  0  0  0  0  0  0  0  0  0  0
  188.6860  178.1330  146.0360 C   0  0  0  0  0  2  0  0  0  0  0  0
  182.5970  178.8730  143.3990 C   0  0  0  0  0  1  0  0  0  0  0  0
  190.1550  176.7550  144.6060 C   0  0  0  0  0  0  0  0  0  0  0  0
  191.0310  176.5240  145.8090 C   0  0  0  0  0  2  0  0  0  0  0  0
  188.2970  178.6060  141.0600 C   0  0  0  0  0  2  0  0  0  0  0  0
  186.1500  178.2960  142.2420 C   0  0  0  0  0  0  0  0  0  0  0  0
  184.7680  178.5030  142.2240 C   0  0  0  0  0  3  0  0  0  0  0  0
  190.9950  177.6190  140.7900 C   0  0  0  0  0  2  0  0  0  0  0  0
  190.2540  174.9380  138.1800 N   0  0  0  0  0  2  0  0  0  0  0  0
  190.8780  175.3610  135.9580 O   0  0  0  0  0  0  0  0  0  0  0  0
  191.3560  177.0010  138.0470 O   0  0  0  0  0  0  0  0  0  0  0  0
  190.5370  176.3990  140.1450 N   0  0  0  0  0  2  0  0  0  0  0  0
  190.3460  174.5840  136.7960 C   0  0  0  0  0  0  0  0  0  0  0  0
  190.7450  176.1550  138.7540 C   0  0  0  0  0  0  0  0  0  0  0  0
  189.8200  173.2650  136.3430 C   0  0  0  0  0  2  0  0  0  0  0  0
  188.3680  173.0960  136.7580 C   0  0  2  0  0  3  0  0  0  0  0  0
  187.9380  171.8000  136.4650 O   0  0  0  0  0  1  0  0  0  0  0  0
  187.5140  174.0880  136.0000 C   0  0  0  0  0  1  0  0  0  0  0  0
  1  9  1  0  0  0  0
  2  3  1  0  0  0  0
  2  5  1  0  0  0  0
  3  7  1  0  0  0  0
  4  7  2  0  0  0  0
  5 14  1  0  0  0  0
  6  1  2  0  0  0  0
  8 21  1  6  0  0  0
  8 13  1  0  0  0  0
  8 12  1  0  0  0  0
 10 18  1  0  0  0  0
 10 19  1  0  0  0  0
 11  4  1  0  0  0  0
 12 16  1  0  0  0  0
 13  2  2  0  0  0  0
 14  1  1  0  0  0  0
 15 11  1  0  0  0  0
 16  5  2  0  0  0  0
 16 17  1  0  0  0  0
 17  6  1  0  0  0  0
 18 13  1  0  0  0  0
 19  3  2  0  0  0  0
 20 19  1  0  0  0  0
 20 11  2  0  0  0  0
 22 27  1  0  0  0  0
 23 26  2  0  0  0  0
 24 27  2  0  0  0  0
 25 21  1  0  0  0  0
 26 22  1  0  0  0  0
 27 25  1  0  0  0  0
 28 29  1  0  0  0  0
 28 26  1  0  0  0  0
 29 31  1  6  0  0  0
 30 29  1  0  0  0  0
M  END
>  <MODEL>
2

>  <REMARK>
 VINA RESULT:      -9.5      1.927      2.792
  Name = 
  4 active torsions:
  status: ('A' for Active; 'I' for Inactive)
    1  A    between atoms: C_1  and  C_24
    2  A    between atoms: N_9  and  C_23
    3  A    between atoms: C_15  and  C_23
    4  A    between atoms: C_19  and  C_24
                            x       y       z     vdW  Elec       q    Type
                         _______ _______ _______ _____ _____    ______ ____

>  <TORSDO>
F 4

$$$$
=
 OpenBabel10262419313D

 31 34  0  0  1  0  0  0  0  0999 V2000
  188.9760  177.3190  147.1320 C   0  0  0  0  0  0  0  0  0  0  0  0
  187.8550  178.0400  143.4960 C   0  0  0  0  0  0  0  0  0  0  0  0
  186.3830  178.2830  143.6340 C   0  0  0  0  0  0  0  0  0  0  0  0
  184.3850  178.6120  144.9860 C   0  0  0  0  0  3  0  0  0  0  0  0
  188.6890  177.6040  144.6620 C   0  0  0  0  0  0  0  0  0  0  0  0
  190.0630  176.5660  146.9240 C   0  0  0  0  0  3  0  0  0  0  0  0
  185.7620  178.4020  144.8870 C   0  0  0  0  0  3  0  0  0  0  0  0
  189.8790  177.7810  142.0700 C   0  0  2  0  0  3  0  0  0  0  0  0
  188.3120  177.3110  148.4650 C   0  0  0  0  0  1  0  0  0  0  0  0
  186.1960  178.1490  141.1240 C   0  0  0  0  0  2  0  0  0  0  0  0
  183.6070  178.6980  143.8300 C   0  0  0  0  0  0  0  0  0  0  0  0
  190.1720  176.1670  142.8530 S   0  0  0  0  0  0  0  0  0  0  0  0
  188.4230  178.1490  142.2670 C   0  0  0  0  0  0  0  0  0  0  0  0
  188.4380  178.1960  146.0320 C   0  0  0  0  0  2  0  0  0  0  0  0
  182.1400  178.9160  143.9350 C   0  0  0  0  0  1  0  0  0  0  0  0
  189.7850  176.8350  144.4730 C   0  0  0  0  0  0  0  0  0  0  0  0
  190.7630  176.6020  145.5930 C   0  0  0  0  0  2  0  0  0  0  0  0
  187.6180  178.6960  141.1110 C   0  0  0  0  0  2  0  0  0  0  0  0
  185.5830  178.3660  142.4720 C   0  0  0  0  0  0  0  0  0  0  0  0
  184.2040  178.5660  142.5750 C   0  0  0  0  0  3  0  0  0  0  0  0
  190.2880  177.7250  140.6030 C   0  0  0  0  0  2  0  0  0  0  0  0
  188.4280  175.7580  137.9170 N   0  0  0  0  0  2  0  0  0  0  0  0
  188.2390  176.7140  135.7830 O   0  0  0  0  0  0  0  0  0  0  0  0
  189.5780  177.7980  137.8600 O   0  0  0  0  0  0  0  0  0  0  0  0
  189.5260  176.6960  139.9140 N   0  0  0  0  0  2  0  0  0  0  0  0
  187.9810  175.7530  136.5570 C   0  0  0  0  0  0  0  0  0  0  0  0
  189.1950  176.8010  138.5300 C   0  0  0  0  0  0  0  0  0  0  0  0
  187.2170  174.5820  136.0430 C   0  0  0  0  0  2  0  0  0  0  0  0
  186.0500  174.2590  136.9610 C   0  0  2  0  0  3  0  0  0  0  0  0
  186.2480  173.0140  137.5620 O   0  0  0  0  0  1  0  0  0  0  0  0
  184.7740  174.2230  136.1500 C   0  0  0  0  0  1  0  0  0  0  0  0
  1  9  1  0  0  0  0
  2  3  1  0  0  0  0
  2  5  1  0  0  0  0
  3  7  1  0  0  0  0
  5 14  1  0  0  0  0
  6  1  2  0  0  0  0
  7  4  2  0  0  0  0
  8 21  1  6  0  0  0
  8 13  1  0  0  0  0
  8 12  1  0  0  0  0
 10 19  1  0  0  0  0
 11 15  1  0  0  0  0
 11  4  1  0  0  0  0
 12 16  1  0  0  0  0
 13  2  2  0  0  0  0
 14  1  1  0  0  0  0
 16  5  2  0  0  0  0
 16 17  1  0  0  0  0
 17  6  1  0  0  0  0
 18 10  1  0  0  0  0
 18 13  1  0  0  0  0
 19 20  1  0  0  0  0
 19  3  2  0  0  0  0
 20 11  2  0  0  0  0
 22 27  1  0  0  0  0
 23 26  2  0  0  0  0
 24 27  2  0  0  0  0
 25 21  1  0  0  0  0
 26 22  1  0  0  0  0
 27 25  1  0  0  0  0
 28 26  1  0  0  0  0
 28 29  1  0  0  0  0
 29 31  1  6  0  0  0
 29 30  1  0  0  0  0
M  END
>  <MODEL>
3

>  <REMARK>
 VINA RESULT:      -9.1      2.545      3.534
  Name = 
  4 active torsions:
  status: ('A' for Active; 'I' for Inactive)
    1  A    between atoms: C_1  and  C_24
    2  A    between atoms: N_9  and  C_23
    3  A    between atoms: C_15  and  C_23
    4  A    between atoms: C_19  and  C_24
                            x       y       z     vdW  Elec       q    Type
                         _______ _______ _______ _____ _____    ______ ____

>  <TORSDO>
F 4

$$$$
=
 OpenBabel10262419313D

 31 34  0  0  1  0  0  0  0  0999 V2000
  189.7970  177.2020  146.1150 C   0  0  0  0  0  0  0  0  0  0  0  0
  187.8980  178.0600  142.8510 C   0  0  0  0  0  0  0  0  0  0  0  0
  186.4890  178.2590  143.3170 C   0  0  0  0  0  0  0  0  0  0  0  0
  184.8290  178.4750  145.0860 C   0  0  0  0  0  3  0  0  0  0  0  0
  188.9730  177.5920  143.7840 C   0  0  0  0  0  0  0  0  0  0  0  0
  190.8230  176.4860  145.6370 C   0  0  0  0  0  3  0  0  0  0  0  0
  186.1550  178.3050  144.6800 C   0  0  0  0  0  3  0  0  0  0  0  0
  189.5650  177.9190  141.0070 C   0  0  2  0  0  3  0  0  0  0  0  0
  189.4400  177.1150  147.5580 C   0  0  0  0  0  1  0  0  0  0  0  0
  185.7590  178.2360  140.9050 C   0  0  0  0  0  2  0  0  0  0  0  0
  183.8160  178.5930  144.1340 C   0  0  0  0  0  0  0  0  0  0  0  0
  190.0460  176.2780  141.6260 S   0  0  0  0  0  0  0  0  0  0  0  0
  188.1820  178.2400  141.5340 C   0  0  0  0  0  0  0  0  0  0  0  0
  189.0190  178.1140  145.2040 C   0  0  0  0  0  2  0  0  0  0  0  0
  182.4050  178.7700  144.5660 C   0  0  0  0  0  1  0  0  0  0  0  0
  190.0130  176.8610  143.3220 C   0  0  0  0  0  0  0  0  0  0  0  0
  191.2150  176.6010  144.1900 C   0  0  0  0  0  2  0  0  0  0  0  0
  187.1360  178.8180  140.6100 C   0  0  0  0  0  2  0  0  0  0  0  0
  185.4530  178.3750  142.3630 C   0  0  0  0  0  0  0  0  0  0  0  0
  184.1260  178.5350  142.7740 C   0  0  0  0  0  3  0  0  0  0  0  0
  189.6450  177.9400  139.4860 C   0  0  0  0  0  2  0  0  0  0  0  0
  187.4590  175.6780  137.3290 N   0  0  0  0  0  2  0  0  0  0  0  0
  186.1880  176.6710  135.6270 O   0  0  0  0  0  0  0  0  0  0  0  0
  187.9060  177.9750  137.2480 O   0  0  0  0  0  0  0  0  0  0  0  0
  188.9730  176.7740  138.9360 N   0  0  0  0  0  2  0  0  0  0  0  0
  186.5250  175.6260  136.2460 C   0  0  0  0  0  0  0  0  0  0  0  0
  188.1010  176.8640  137.8100 C   0  0  0  0  0  0  0  0  0  0  0  0
  185.9600  174.3120  135.8310 C   0  0  0  0  0  2  0  0  0  0  0  0
  184.7740  173.9380  136.7040 C   0  0  2  0  0  3  0  0  0  0  0  0
  184.2580  175.0810  137.3190 O   0  0  0  0  0  1  0  0  0  0  0  0
  185.2260  172.9610  137.7680 C   0  0  0  0  0  1  0  0  0  0  0  0
  1  9  1  0  0  0  0
  2  3  1  0  0  0  0
  2  5  1  0  0  0  0
  3  7  1  0  0  0  0
  5 14  1  0  0  0  0
  6  1  2  0  0  0  0
  7  4  2  0  0  0  0
  8 21  1  6  0  0  0
  8 13  1  0  0  0  0
  8 12  1  0  0  0  0
 10 19  1  0  0  0  0
 11 15  1  0  0  0  0
 11  4  1  0  0  0  0
 12 16  1  0  0  0  0
 13  2  2  0  0  0  0
 14  1  1  0  0  0  0
 16  5  2  0  0  0  0
 16 17  1  0  0  0  0
 17  6  1  0  0  0  0
 18 10  1  0  0  0  0
 18 13  1  0  0  0  0
 19 20  1  0  0  0  0
 19  3  2  0  0  0  0
 20 11  2  0  0  0  0
 22 27  1  0  0  0  0
 23 26  2  0  0  0  0
 24 27  2  0  0  0  0
 25 21  1  0  0  0  0
 26 22  1  0  0  0  0
 27 25  1  0  0  0  0
 28 26  1  0  0  0  0
 28 29  1  0  0  0  0
 29 30  1  0  0  0  0
 29 31  1  1  0  0  0
M  END
>  <MODEL>
4

>  <REMARK>
 VINA RESULT:      -8.7      2.971      4.105
  Name = 
  4 active torsions:
  status: ('A' for Active; 'I' for Inactive)
    1  A    between atoms: C_1  and  C_24
    2  A    between atoms: N_9  and  C_23
    3  A    between atoms: C_15  and  C_23
    4  A    between atoms: C_19  and  C_24
                            x       y       z     vdW  Elec       q    Type
                         _______ _______ _______ _____ _____    ______ ____

>  <TORSDO>
F 4

$$$$
=
 OpenBabel10262419313D

 31 34  0  0  1  0  0  0  0  0999 V2000
  189.9700  177.7600  141.1390 C   0  0  0  0  0  0  0  0  0  0  0  0
  188.4660  177.8720  144.7060 C   0  0  0  0  0  0  0  0  0  0  0  0
  189.5610  177.3070  145.5570 C   0  0  0  0  0  0  0  0  0  0  0  0
  191.8440  176.5140  145.8610 C   0  0  0  0  0  3  0  0  0  0  0  0
  188.5750  177.9090  143.2120 C   0  0  0  0  0  0  0  0  0  0  0  0
  188.8610  177.6900  140.3920 C   0  0  0  0  0  3  0  0  0  0  0  0
  190.8450  177.0570  145.0480 C   0  0  0  0  0  3  0  0  0  0  0  0
  186.1450  178.7400  144.4660 C   0  0  2  0  0  3  0  0  0  0  0  0
  191.2840  177.3760  140.5530 C   0  0  0  0  0  1  0  0  0  0  0  0
  187.9130  177.1520  147.4570 C   0  0  0  0  0  2  0  0  0  0  0  0
  191.5690  176.2070  147.1940 C   0  0  0  0  0  0  0  0  0  0  0  0
  185.8610  177.4990  143.1680 S   0  0  0  0  0  0  0  0  0  0  0  0
  187.3210  178.2890  145.3060 C   0  0  0  0  0  0  0  0  0  0  0  0
  189.8970  178.2520  142.5610 C   0  0  0  0  0  2  0  0  0  0  0  0
  192.6300  175.6250  148.0570 C   0  0  0  0  0  1  0  0  0  0  0  0
  187.4670  177.8300  142.4400 C   0  0  0  0  0  0  0  0  0  0  0  0
  187.5370  178.1160  140.9640 C   0  0  0  0  0  2  0  0  0  0  0  0
  187.2440  178.3610  146.8140 C   0  0  0  0  0  2  0  0  0  0  0  0
  189.2950  176.9870  146.9070 C   0  0  0  0  0  0  0  0  0  0  0  0
  190.2940  176.4340  147.7140 C   0  0  0  0  0  3  0  0  0  0  0  0
  184.8710  178.9380  145.2770 C   0  0  0  0  0  2  0  0  0  0  0  0
  181.6170  178.5590  143.3250 N   0  0  0  0  0  2  0  0  0  0  0  0
  180.4070  180.5010  142.8110 O   0  0  0  0  0  0  0  0  0  0  0  0
  182.7870  180.4410  144.0810 O   0  0  0  0  0  0  0  0  0  0  0  0
  183.7360  178.3690  144.5690 N   0  0  0  0  0  2  0  0  0  0  0  0
  180.5010  179.2460  142.7500 C   0  0  0  0  0  0  0  0  0  0  0  0
  182.7150  179.1860  143.9960 C   0  0  0  0  0  0  0  0  0  0  0  0
  179.4430  178.4630  142.0500 C   0  0  0  0  0  2  0  0  0  0  0  0
  179.7620  178.3330  140.5710 C   0  0  2  0  0  3  0  0  0  0  0  0
  181.1350  178.4860  140.3650 O   0  0  0  0  0  1  0  0  0  0  0  0
  179.0210  179.4070  139.8040 C   0  0  0  0  0  1  0  0  0  0  0  0
  1 14  1  0  0  0  0
  2 13  2  0  0  0  0
  2  3  1  0  0  0  0
  3 19  1  0  0  0  0
  4 11  2  0  0  0  0
  5  2  1  0  0  0  0
  6 17  1  0  0  0  0
  6  1  2  0  0  0  0
  7  3  2  0  0  0  0
  7  4  1  0  0  0  0
  8 21  1  1  0  0  0
  8 13  1  0  0  0  0
  9  1  1  0  0  0  0
 11 20  1  0  0  0  0
 11 15  1  0  0  0  0
 12  8  1  0  0  0  0
 13 18  1  0  0  0  0
 14  5  1  0  0  0  0
 16 12  1  0  0  0  0
 16  5  2  0  0  0  0
 17 16  1  0  0  0  0
 18 10  1  0  0  0  0
 19 10  1  0  0  0  0
 19 20  2  0  0  0  0
 22 27  1  0  0  0  0
 25 21  1  0  0  0  0
 26 23  2  0  0  0  0
 26 22  1  0  0  0  0
 27 24  2  0  0  0  0
 27 25  1  0  0  0  0
 28 26  1  0  0  0  0
 29 31  1  6  0  0  0
 29 28  1  0  0  0  0
 30 29  1  0  0  0  0
M  END
>  <MODEL>
5

>  <REMARK>
 VINA RESULT:      -8.5      5.006      9.247
  Name = 
  4 active torsions:
  status: ('A' for Active; 'I' for Inactive)
    1  A    between atoms: C_1  and  C_24
    2  A    between atoms: N_9  and  C_23
    3  A    between atoms: C_15  and  C_23
    4  A    between atoms: C_19  and  C_24
                            x       y       z     vdW  Elec       q    Type
                         _______ _______ _______ _____ _____    ______ ____

>  <TORSDO>
F 4

$$$$
=
 OpenBabel10262419313D

 31 34  0  0  1  0  0  0  0  0999 V2000
  189.1650  177.3860  147.4300 C   0  0  0  0  0  0  0  0  0  0  0  0
  188.3400  177.9520  143.6890 C   0  0  0  0  0  0  0  0  0  0  0  0
  186.8660  178.2210  143.7000 C   0  0  0  0  0  0  0  0  0  0  0  0
  184.7750  178.6390  144.8770 C   0  0  0  0  0  3  0  0  0  0  0  0
  189.0740  177.5600  144.9340 C   0  0  0  0  0  0  0  0  0  0  0  0
  190.2520  176.6090  147.3400 C   0  0  0  0  0  3  0  0  0  0  0  0
  186.1530  178.4060  144.8950 C   0  0  0  0  0  3  0  0  0  0  0  0
  190.4620  177.6010  142.4370 C   0  0  2  0  0  3  0  0  0  0  0  0
  188.4010  177.4480  148.7060 C   0  0  0  0  0  1  0  0  0  0  0  0
  186.8700  177.9730  141.1930 C   0  0  0  0  0  2  0  0  0  0  0  0
  184.0900  178.6810  143.6620 C   0  0  0  0  0  0  0  0  0  0  0  0
  190.6670  176.0210  143.3120 S   0  0  0  0  0  0  0  0  0  0  0  0
  189.0020  177.9970  142.5030 C   0  0  0  0  0  0  0  0  0  0  0  0
  188.7290  178.2180  146.2530 C   0  0  0  0  0  2  0  0  0  0  0  0
  182.6240  178.9230  143.6430 C   0  0  0  0  0  1  0  0  0  0  0  0
  190.1690  176.7680  144.8650 C   0  0  0  0  0  0  0  0  0  0  0  0
  191.0530  176.5740  146.0680 C   0  0  0  0  0  2  0  0  0  0  0  0
  188.2980  178.5000  141.2650 C   0  0  0  0  0  2  0  0  0  0  0  0
  186.1590  178.2610  142.4780 C   0  0  0  0  0  0  0  0  0  0  0  0
  184.7790  178.4830  142.4640 C   0  0  0  0  0  3  0  0  0  0  0  0
  190.9820  177.4710  141.0100 C   0  0  0  0  0  2  0  0  0  0  0  0
  188.7940  176.3650  138.0890 N   0  0  0  0  0  2  0  0  0  0  0  0
  189.7010  174.8500  136.5450 O   0  0  0  0  0  0  0  0  0  0  0  0
  190.9470  175.7400  138.7660 O   0  0  0  0  0  0  0  0  0  0  0  0
  189.8690  177.3300  140.0860 N   0  0  0  0  0  2  0  0  0  0  0  0
  188.7250  175.5620  136.9060 C   0  0  0  0  0  0  0  0  0  0  0  0
  189.9210  176.4440  138.9690 C   0  0  0  0  0  0  0  0  0  0  0  0
  187.4710  175.5520  136.1020 C   0  0  0  0  0  2  0  0  0  0  0  0
  186.6310  176.7810  136.4040 C   0  0  2  0  0  3  0  0  0  0  0  0
  185.2770  176.4380  136.4250 O   0  0  0  0  0  1  0  0  0  0  0  0
  186.8650  177.8220  135.3320 C   0  0  0  0  0  1  0  0  0  0  0  0
  1  9  1  0  0  0  0
  2  3  1  0  0  0  0
  2  5  1  0  0  0  0
  3  7  1  0  0  0  0
  4  7  2  0  0  0  0
  5 14  1  0  0  0  0
  6  1  2  0  0  0  0
  8 21  1  6  0  0  0
  8 13  1  0  0  0  0
  8 12  1  0  0  0  0
 10 18  1  0  0  0  0
 10 19  1  0  0  0  0
 11  4  1  0  0  0  0
 12 16  1  0  0  0  0
 13  2  2  0  0  0  0
 14  1  1  0  0  0  0
 15 11  1  0  0  0  0
 16  5  2  0  0  0  0
 16 17  1  0  0  0  0
 17  6  1  0  0  0  0
 18 13  1  0  0  0  0
 19  3  2  0  0  0  0
 20 19  1  0  0  0  0
 20 11  2  0  0  0  0
 22 27  1  0  0  0  0
 23 26  2  0  0  0  0
 24 27  2  0  0  0  0
 25 21  1  0  0  0  0
 26 22  1  0  0  0  0
 27 25  1  0  0  0  0
 28 29  1  0  0  0  0
 28 26  1  0  0  0  0
 29 31  1  6  0  0  0
 29 30  1  0  0  0  0
M  END
>  <MODEL>
6

>  <REMARK>
 VINA RESULT:      -8.4      2.252      3.538
  Name = 
  4 active torsions:
  status: ('A' for Active; 'I' for Inactive)
    1  A    between atoms: C_1  and  C_24
    2  A    between atoms: N_9  and  C_23
    3  A    between atoms: C_15  and  C_23
    4  A    between atoms: C_19  and  C_24
                            x       y       z     vdW  Elec       q    Type
                         _______ _______ _______ _____ _____    ______ ____

>  <TORSDO>
F 4

$$$$
=
 OpenBabel10262419313D

 31 34  0  0  1  0  0  0  0  0999 V2000
  189.7170  177.8150  139.2450 C   0  0  0  0  0  0  0  0  0  0  0  0
  186.5730  178.4890  141.4040 C   0  0  0  0  0  0  0  0  0  0  0  0
  187.0320  178.1510  142.7900 C   0  0  0  0  0  0  0  0  0  0  0  0
  188.7750  177.5570  144.3840 C   0  0  0  0  0  3  0  0  0  0  0  0
  187.4510  178.2600  140.2120 C   0  0  0  0  0  0  0  0  0  0  0  0
  189.1620  177.5480  138.0560 C   0  0  0  0  0  3  0  0  0  0  0  0
  188.3780  177.8850  143.0850 C   0  0  0  0  0  3  0  0  0  0  0  0
  184.7680  179.1660  139.8300 C   0  0  2  0  0  3  0  0  0  0  0  0
  191.1220  177.4060  139.5160 C   0  0  0  0  0  1  0  0  0  0  0  0
  184.6270  178.2510  143.5370 C   0  0  0  0  0  2  0  0  0  0  0  0
  187.8280  177.4820  145.4050 C   0  0  0  0  0  0  0  0  0  0  0  0
  185.1470  177.6950  138.8300 S   0  0  0  0  0  0  0  0  0  0  0  0
  185.3050  178.9430  141.2280 C   0  0  0  0  0  0  0  0  0  0  0  0
  188.9340  178.5530  140.2990 C   0  0  0  0  0  2  0  0  0  0  0  0
  188.2490  177.1290  146.7860 C   0  0  0  0  0  1  0  0  0  0  0  0
  186.9100  177.9790  139.0050 C   0  0  0  0  0  0  0  0  0  0  0  0
  187.7570  177.9950  137.7600 C   0  0  0  0  0  2  0  0  0  0  0  0
  184.4540  179.2830  142.4290 C   0  0  0  0  0  2  0  0  0  0  0  0
  186.0820  178.0670  143.8330 C   0  0  0  0  0  0  0  0  0  0  0  0
  186.4820  177.7280  145.1290 C   0  0  0  0  0  3  0  0  0  0  0  0
  183.2690  179.4370  139.8020 C   0  0  0  0  0  2  0  0  0  0  0  0
  181.4740  181.9740  137.5920 N   0  0  0  0  0  2  0  0  0  0  0  0
  179.3330  182.6810  138.2400 O   0  0  0  0  0  0  0  0  0  0  0  0
  180.9000  180.9850  139.6360 O   0  0  0  0  0  0  0  0  0  0  0  0
  182.9500  180.3550  138.7210 N   0  0  0  0  0  2  0  0  0  0  0  0
  180.2790  182.7400  137.4090 C   0  0  0  0  0  0  0  0  0  0  0  0
  181.7320  181.0990  138.6950 C   0  0  0  0  0  0  0  0  0  0  0  0
  180.1610  183.6390  136.2260 C   0  0  0  0  0  2  0  0  0  0  0  0
  180.7020  185.0220  136.5470 C   0  0  2  0  0  3  0  0  0  0  0  0
  181.9240  184.9120  137.2140 O   0  0  0  0  0  1  0  0  0  0  0  0
  179.7150  185.7500  137.4320 C   0  0  0  0  0  1  0  0  0  0  0  0
  1  9  1  0  0  0  0
  1 14  1  0  0  0  0
  2  3  1  0  0  0  0
  3  7  2  0  0  0  0
  3 19  1  0  0  0  0
  4 11  2  0  0  0  0
  5 14  1  0  0  0  0
  5  2  1  0  0  0  0
  6  1  2  0  0  0  0
  7  4  1  0  0  0  0
  8 21  1  1  0  0  0
  8 13  1  0  0  0  0
 10 19  1  0  0  0  0
 11 15  1  0  0  0  0
 12 16  1  0  0  0  0
 12  8  1  0  0  0  0
 13  2  2  0  0  0  0
 13 18  1  0  0  0  0
 16  5  2  0  0  0  0
 17  6  1  0  0  0  0
 17 16  1  0  0  0  0
 18 10  1  0  0  0  0
 19 20  2  0  0  0  0
 20 11  1  0  0  0  0
 22 27  1  0  0  0  0
 25 21  1  0  0  0  0
 26 22  1  0  0  0  0
 26 23  2  0  0  0  0
 27 25  1  0  0  0  0
 27 24  2  0  0  0  0
 28 29  1  0  0  0  0
 28 26  1  0  0  0  0
 29 30  1  0  0  0  0
 29 31  1  1  0  0  0
M  END
>  <MODEL>
7

>  <REMARK>
 VINA RESULT:      -8.3      5.638      9.388
  Name = 
  4 active torsions:
  status: ('A' for Active; 'I' for Inactive)
    1  A    between atoms: C_1  and  C_24
    2  A    between atoms: N_9  and  C_23
    3  A    between atoms: C_15  and  C_23
    4  A    between atoms: C_19  and  C_24
                            x       y       z     vdW  Elec       q    Type
                         _______ _______ _______ _____ _____    ______ ____

>  <TORSDO>
F 4

$$$$
=
 OpenBabel10262419313D

 31 34  0  0  1  0  0  0  0  0999 V2000
  189.2900  177.0510  147.0680 C   0  0  0  0  0  0  0  0  0  0  0  0
  186.9670  177.9860  144.1140 C   0  0  0  0  0  0  0  0  0  0  0  0
  187.8570  177.8340  142.9180 C   0  0  0  0  0  0  0  0  0  0  0  0
  189.9510  177.1500  141.8800 C   0  0  0  0  0  3  0  0  0  0  0  0
  187.4960  177.8320  145.5070 C   0  0  0  0  0  0  0  0  0  0  0  0
  188.7180  177.7290  148.0710 C   0  0  0  0  0  3  0  0  0  0  0  0
  189.1360  177.2640  143.0090 C   0  0  0  0  0  3  0  0  0  0  0  0
  184.7810  178.6340  145.1130 C   0  0  2  0  0  3  0  0  0  0  0  0
  190.6920  176.5680  147.2030 C   0  0  0  0  0  1  0  0  0  0  0  0
  186.0960  179.0020  141.5450 C   0  0  0  0  0  2  0  0  0  0  0  0
  189.5000  177.6140  140.6440 C   0  0  0  0  0  0  0  0  0  0  0  0
  185.6740  179.7530  146.2340 S   0  0  0  0  0  0  0  0  0  0  0  0
  185.6710  178.3430  143.9220 C   0  0  0  0  0  0  0  0  0  0  0  0
  188.5120  176.7520  145.8130 C   0  0  0  0  0  2  0  0  0  0  0  0
  190.3680  177.4970  139.4430 C   0  0  0  0  0  1  0  0  0  0  0  0
  186.9370  178.5140  146.5330 C   0  0  0  0  0  0  0  0  0  0  0  0
  187.2890  178.1820  147.9580 C   0  0  0  0  0  2  0  0  0  0  0  0
  185.1010  178.3900  142.5240 C   0  0  0  0  0  2  0  0  0  0  0  0
  187.4140  178.3040  141.6610 C   0  0  0  0  0  0  0  0  0  0  0  0
  188.2370  178.1980  140.5360 C   0  0  0  0  0  3  0  0  0  0  0  0
  183.4440  179.2530  144.7240 C   0  0  0  0  0  2  0  0  0  0  0  0
  180.9720  177.9340  142.1370 N   0  0  0  0  0  2  0  0  0  0  0  0
  179.1970  179.3280  141.4970 O   0  0  0  0  0  0  0  0  0  0  0  0
  181.1650  180.0030  143.2160 O   0  0  0  0  0  0  0  0  0  0  0  0
  182.7590  178.3960  143.7700 N   0  0  0  0  0  2  0  0  0  0  0  0
  179.7870  178.2190  141.3870 C   0  0  0  0  0  0  0  0  0  0  0  0
  181.6080  178.8350  143.0490 C   0  0  0  0  0  0  0  0  0  0  0  0
  179.2540  177.1940  140.4460 C   0  0  0  0  0  2  0  0  0  0  0  0
  180.3810  176.3500  139.8780 C   0  0  2  0  0  3  0  0  0  0  0  0
  180.5840  176.6690  138.5330 O   0  0  0  0  0  1  0  0  0  0  0  0
  180.0140  174.8860  139.9920 C   0  0  0  0  0  1  0  0  0  0  0  0
  1  9  1  0  0  0  0
  1  6  2  0  0  0  0
  2  5  1  0  0  0  0
  3  7  1  0  0  0  0
  3  2  1  0  0  0  0
  4  7  2  0  0  0  0
  5 14  1  0  0  0  0
  5 16  2  0  0  0  0
  8 21  1  6  0  0  0
  8 12  1  0  0  0  0
 10 19  1  0  0  0  0
 10 18  1  0  0  0  0
 11  4  1  0  0  0  0
 12 16  1  0  0  0  0
 13  2  2  0  0  0  0
 13  8  1  0  0  0  0
 14  1  1  0  0  0  0
 15 11  1  0  0  0  0
 16 17  1  0  0  0  0
 17  6  1  0  0  0  0
 18 13  1  0  0  0  0
 19  3  2  0  0  0  0
 20 11  2  0  0  0  0
 20 19  1  0  0  0  0
 22 27  1  0  0  0  0
 25 21  1  0  0  0  0
 26 23  2  0  0  0  0
 26 22  1  0  0  0  0
 27 24  2  0  0  0  0
 27 25  1  0  0  0  0
 28 26  1  0  0  0  0
 29 31  1  6  0  0  0
 29 28  1  0  0  0  0
 30 29  1  0  0  0  0
M  END
>  <MODEL>
8

>  <REMARK>
 VINA RESULT:      -8.1      5.106      8.372
  Name = 
  4 active torsions:
  status: ('A' for Active; 'I' for Inactive)
    1  A    between atoms: C_1  and  C_24
    2  A    between atoms: N_9  and  C_23
    3  A    between atoms: C_15  and  C_23
    4  A    between atoms: C_19  and  C_24
                            x       y       z     vdW  Elec       q    Type
                         _______ _______ _______ _____ _____    ______ ____

>  <TORSDO>
F 4

$$$$
=
 OpenBabel10262419313D

 31 34  0  0  1  0  0  0  0  0999 V2000
  189.9450  177.7360  138.9760 C   0  0  0  0  0  0  0  0  0  0  0  0
  186.6840  178.4340  140.9430 C   0  0  0  0  0  0  0  0  0  0  0  0
  187.0610  178.1100  142.3560 C   0  0  0  0  0  0  0  0  0  0  0  0
  188.7080  177.5290  144.0540 C   0  0  0  0  0  3  0  0  0  0  0  0
  187.6290  178.1920  139.8060 C   0  0  0  0  0  0  0  0  0  0  0  0
  189.4590  177.4570  137.7600 C   0  0  0  0  0  3  0  0  0  0  0  0
  188.3870  177.8450  142.7310 C   0  0  0  0  0  3  0  0  0  0  0  0
  184.9730  179.0980  139.2610 C   0  0  2  0  0  3  0  0  0  0  0  0
  191.3320  177.3270  139.3320 C   0  0  0  0  0  1  0  0  0  0  0  0
  184.6170  178.2210  142.9620 C   0  0  0  0  0  2  0  0  0  0  0  0
  187.7030  177.4660  145.0200 C   0  0  0  0  0  0  0  0  0  0  0  0
  185.4070  177.6170  138.2990 S   0  0  0  0  0  0  0  0  0  0  0  0
  185.4290  178.8880  140.6900 C   0  0  0  0  0  0  0  0  0  0  0  0
  189.1040  178.4850  139.9760 C   0  0  0  0  0  2  0  0  0  0  0  0
  188.0430  177.1250  146.4260 C   0  0  0  0  0  1  0  0  0  0  0  0
  187.1570  177.9000  138.5720 C   0  0  0  0  0  0  0  0  0  0  0  0
  188.0750  177.9030  137.3790 C   0  0  0  0  0  2  0  0  0  0  0  0
  184.5100  179.2420  141.8360 C   0  0  0  0  0  2  0  0  0  0  0  0
  186.0520  178.0370  143.3430 C   0  0  0  0  0  0  0  0  0  0  0  0
  186.3760  177.7110  144.6640 C   0  0  0  0  0  3  0  0  0  0  0  0
  183.4790  179.3700  139.1440 C   0  0  0  0  0  2  0  0  0  0  0  0
  181.4120  176.3210  138.1580 N   0  0  0  0  0  2  0  0  0  0  0  0
  180.3240  175.1290  139.8600 O   0  0  0  0  0  0  0  0  0  0  0  0
  181.7680  177.3810  140.2150 O   0  0  0  0  0  0  0  0  0  0  0  0
  182.8410  178.3180  138.3700 N   0  0  0  0  0  2  0  0  0  0  0  0
  180.5890  175.2510  138.6340 C   0  0  0  0  0  0  0  0  0  0  0  0
  181.9960  177.3400  138.9760 C   0  0  0  0  0  0  0  0  0  0  0  0
  180.0200  174.2780  137.6600 C   0  0  0  0  0  2  0  0  0  0  0  0
  180.8980  173.0420  137.5600 C   0  0  2  0  0  3  0  0  0  0  0  0
  181.8070  173.1880  136.5100 O   0  0  0  0  0  1  0  0  0  0  0  0
  180.0280  171.8320  137.3020 C   0  0  0  0  0  1  0  0  0  0  0  0
  1  9  1  0  0  0  0
  1 14  1  0  0  0  0
  2  3  1  0  0  0  0
  3  7  2  0  0  0  0
  3 19  1  0  0  0  0
  4 11  2  0  0  0  0
  5 14  1  0  0  0  0
  5  2  1  0  0  0  0
  6  1  2  0  0  0  0
  7  4  1  0  0  0  0
  8 21  1  1  0  0  0
  8 13  1  0  0  0  0
 10 19  1  0  0  0  0
 11 15  1  0  0  0  0
 12 16  1  0  0  0  0
 12  8  1  0  0  0  0
 13  2  2  0  0  0  0
 13 18  1  0  0  0  0
 16  5  2  0  0  0  0
 17  6  1  0  0  0  0
 17 16  1  0  0  0  0
 18 10  1  0  0  0  0
 19 20  2  0  0  0  0
 20 11  1  0  0  0  0
 22 26  1  0  0  0  0
 22 27  1  0  0  0  0
 25 27  1  0  0  0  0
 25 21  1  0  0  0  0
 26 23  2  0  0  0  0
 27 24  2  0  0  0  0
 28 26  1  0  0  0  0
 29 31  1  6  0  0  0
 29 28  1  0  0  0  0
 30 29  1  0  0  0  0
M  END
>  <MODEL>
9

>  <REMARK>
 VINA RESULT:      -7.7      4.926      8.188
  Name = 
  4 active torsions:
  status: ('A' for Active; 'I' for Inactive)
    1  A    between atoms: C_1  and  C_24
    2  A    between atoms: N_9  and  C_23
    3  A    between atoms: C_15  and  C_23
    4  A    between atoms: C_19  and  C_24
                            x       y       z     vdW  Elec       q    Type
                         _______ _______ _______ _____ _____    ______ ____

>  <TORSDO>
F 4

$$$$
