=
 OpenBabel10262419593D

 27 31  0  0  1  0  0  0  0  0999 V2000
  187.8350  176.6630  143.5330 C   0  0  0  0  0  2  0  0  0  0  0  0
  185.9510  178.2700  143.9530 C   0  0  0  0  0  0  0  0  0  0  0  0
  186.2150  177.8270  141.5150 O   0  0  0  0  0  0  0  0  0  0  0  0
  181.8680  179.0730  143.0120 C   0  0  0  0  0  2  0  0  0  0  0  0
  181.0910  177.6020  141.2930 O   0  0  0  0  0  1  0  0  0  0  0  0
  185.0880  178.6910  144.9920 C   0  0  0  0  0  3  0  0  0  0  0  0
  183.3410  178.4020  141.1310 C   0  0  1  0  0  3  0  0  0  0  0  0
  189.4620  178.3830  139.6920 C   0  0  0  0  0  2  0  0  0  0  0  0
  183.8510  179.4750  140.1860 C   0  0  0  0  0  1  0  0  0  0  0  0
  190.2540  177.1020  139.9390 C   0  0  0  0  0  2  0  0  0  0  0  0
  184.0760  178.4600  142.4210 C   0  0  0  0  0  0  0  0  0  0  0  0
  187.3970  177.9300  144.2650 C   0  0  1  0  0  3  0  0  0  0  0  0
  181.8890  178.7230  141.5180 C   0  0  2  0  0  3  0  0  0  0  0  0
  183.2570  178.8370  143.4520 C   0  0  0  0  0  0  0  0  0  0  0  0
  188.4240  176.9800  142.1620 C   0  0  2  0  0  3  0  0  0  0  0  0
  185.4350  178.1850  142.6270 C   0  0  0  0  0  0  0  0  0  0  0  0
  187.9830  178.1050  139.9260 C   0  0  0  0  0  2  0  0  0  0  0  0
  183.7410  178.9740  144.7480 C   0  0  0  0  0  3  0  0  0  0  0  0
  190.7720  176.9880  141.3080 N   0  0  0  0  0  2  0  0  0  0  0  0
  189.8570  177.4760  142.3470 C   0  0  0  0  0  2  0  0  0  0  0  0
  187.6170  178.0520  141.4090 C   0  0  1  0  0  3  0  0  0  0  0  0
  188.3730  177.6280  148.4470 C   0  0  0  0  0  3  0  0  0  0  0  0
  187.7180  177.8270  145.7310 C   0  0  0  0  0  0  0  0  0  0  0  0
  188.8970  177.1850  146.1250 C   0  0  0  0  0  3  0  0  0  0  0  0
  189.2240  177.0840  147.4810 C   0  0  0  0  0  3  0  0  0  0  0  0
  187.1950  178.2740  148.0600 C   0  0  0  0  0  3  0  0  0  0  0  0
  186.8680  178.3750  146.7050 C   0  0  0  0  0  3  0  0  0  0  0  0
  1 12  1  0  0  0  0
  2 12  1  0  0  0  0
  2  6  1  0  0  0  0
  3 16  1  0  0  0  0
  4 14  1  0  0  0  0
  7  9  1  6  0  0  0
  7 13  1  0  0  0  0
  7 11  1  0  0  0  0
  8 17  1  0  0  0  0
  8 10  1  0  0  0  0
 10 19  1  0  0  0  0
 11 16  1  0  0  0  0
 11 14  2  0  0  0  0
 12 23  1  1  0  0  0
 13  5  1  1  0  0  0
 13  4  1  0  0  0  0
 14 18  1  0  0  0  0
 15 20  1  1  0  0  0
 15  1  1  0  0  0  0
 16  2  2  0  0  0  0
 18  6  2  0  0  0  0
 19 20  1  0  0  0  0
 21 17  1  6  0  0  0
 21  3  1  0  0  0  0
 21 15  1  0  0  0  0
 23 24  2  0  0  0  0
 23 27  1  0  0  0  0
 24 25  1  0  0  0  0
 25 22  2  0  0  0  0
 26 22  1  0  0  0  0
 27 26  2  0  0  0  0
M  END
>  <MODEL>
1

>  <REMARK>
 VINA RESULT:     -11.3      0.000      0.000
  Name = 
  1 active torsions:
  status: ('A' for Active; 'I' for Inactive)
    1  A    between atoms: C_9  and  C_15
                            x       y       z     vdW  Elec       q    Type
                         _______ _______ _______ _____ _____    ______ ____

>  <TORSDO>
F 1

$$$$
=
 OpenBabel10262419593D

 27 31  0  0  1  0  0  0  0  0999 V2000
  187.1800  179.1720  141.8070 C   0  0  0  0  0  2  0  0  0  0  0  0
  187.2760  177.6390  143.7950 C   0  0  0  0  0  0  0  0  0  0  0  0
  189.4520  177.6590  142.5810 O   0  0  0  0  0  0  0  0  0  0  0  0
  189.5970  176.6380  147.2320 C   0  0  0  0  0  2  0  0  0  0  0  0
  191.6970  177.7820  147.1960 O   0  0  0  0  0  1  0  0  0  0  0  0
  186.6050  177.3930  145.0160 C   0  0  0  0  0  3  0  0  0  0  0  0
  190.8320  176.9920  145.1090 C   0  0  1  0  0  3  0  0  0  0  0  0
  189.7410  176.8350  138.9190 C   0  0  0  0  0  2  0  0  0  0  0  0
  191.3140  175.7790  144.3340 C   0  0  0  0  0  1  0  0  0  0  0  0
  189.4150  178.1480  138.2120 C   0  0  0  0  0  2  0  0  0  0  0  0
  189.3660  177.1660  144.9360 C   0  0  0  0  0  0  0  0  0  0  0  0
  186.4820  178.0440  142.5660 C   0  0  1  0  0  3  0  0  0  0  0  0
  190.9980  176.7260  146.6130 C   0  0  2  0  0  3  0  0  0  0  0  0
  188.6920  176.9620  146.1110 C   0  0  0  0  0  0  0  0  0  0  0  0
  188.1390  178.6300  140.7520 C   0  0  2  0  0  3  0  0  0  0  0  0
  188.6930  177.4890  143.7500 C   0  0  0  0  0  0  0  0  0  0  0  0
  190.1530  177.1320  140.3540 C   0  0  0  0  0  2  0  0  0  0  0  0
  187.3070  177.0570  146.1760 C   0  0  0  0  0  3  0  0  0  0  0  0
  187.9910  178.5030  138.2610 N   0  0  0  0  0  2  0  0  0  0  0  0
  187.3290  178.1900  139.5330 C   0  0  0  0  0  2  0  0  0  0  0  0
  188.9620  177.4350  141.2630 C   0  0  1  0  0  3  0  0  0  0  0  0
  182.3550  179.0330  143.2870 C   0  0  0  0  0  3  0  0  0  0  0  0
  185.0460  178.4020  142.8330 C   0  0  0  0  0  0  0  0  0  0  0  0
  184.1040  178.2430  141.8110 C   0  0  0  0  0  3  0  0  0  0  0  0
  182.7610  178.5590  142.0360 C   0  0  0  0  0  3  0  0  0  0  0  0
  183.2900  179.1920  144.3130 C   0  0  0  0  0  3  0  0  0  0  0  0
  184.6330  178.8760  144.0890 C   0  0  0  0  0  3  0  0  0  0  0  0
  1 12  1  0  0  0  0
  2  6  1  0  0  0  0
  3 16  1  0  0  0  0
  6 18  2  0  0  0  0
  7  9  1  6  0  0  0
  7 13  1  0  0  0  0
  8 17  1  0  0  0  0
 10 19  1  0  0  0  0
 10  8  1  0  0  0  0
 11  7  1  0  0  0  0
 11 14  2  0  0  0  0
 12 23  1  1  0  0  0
 12  2  1  0  0  0  0
 13  5  1  1  0  0  0
 13  4  1  0  0  0  0
 14 18  1  0  0  0  0
 14  4  1  0  0  0  0
 15 20  1  6  0  0  0
 15 21  1  0  0  0  0
 15  1  1  0  0  0  0
 16  2  2  0  0  0  0
 16 11  1  0  0  0  0
 19 20  1  0  0  0  0
 21 17  1  6  0  0  0
 21  3  1  0  0  0  0
 22 26  1  0  0  0  0
 23 27  1  0  0  0  0
 24 25  1  0  0  0  0
 24 23  2  0  0  0  0
 25 22  2  0  0  0  0
 27 26  2  0  0  0  0
M  END
>  <MODEL>
2

>  <REMARK>
 VINA RESULT:     -11.0      2.244      5.889
  Name = 
  1 active torsions:
  status: ('A' for Active; 'I' for Inactive)
    1  A    between atoms: C_9  and  C_15
                            x       y       z     vdW  Elec       q    Type
                         _______ _______ _______ _____ _____    ______ ____

>  <TORSDO>
F 1

$$$$
=
 OpenBabel10262419593D

 27 31  0  0  1  0  0  0  0  0999 V2000
  187.3940  176.6950  144.2650 C   0  0  0  0  0  2  0  0  0  0  0  0
  187.7680  177.8830  142.0830 C   0  0  0  0  0  0  0  0  0  0  0  0
  189.8840  176.8640  142.9150 O   0  0  0  0  0  0  0  0  0  0  0  0
  189.4890  177.4460  138.2040 C   0  0  0  0  0  2  0  0  0  0  0  0
  190.7610  175.4250  138.0660 O   0  0  0  0  0  1  0  0  0  0  0  0
  187.0460  178.3620  140.9650 C   0  0  0  0  0  3  0  0  0  0  0  0
  190.8370  176.6420  140.1250 C   0  0  1  0  0  3  0  0  0  0  0  0
  191.3030  177.6270  146.3180 C   0  0  0  0  0  2  0  0  0  0  0  0
  191.9840  177.5030  140.6240 C   0  0  0  0  0  1  0  0  0  0  0  0
  190.5600  176.6780  147.2550 C   0  0  0  0  0  2  0  0  0  0  0  0
  189.5370  177.2150  140.5590 C   0  0  0  0  0  0  0  0  0  0  0  0
  187.1610  177.9800  143.4710 C   0  0  1  0  0  3  0  0  0  0  0  0
  190.7820  176.7160  138.5930 C   0  0  2  0  0  3  0  0  0  0  0  0
  188.8020  177.6620  139.4930 C   0  0  0  0  0  0  0  0  0  0  0  0
  188.6960  176.7530  145.0580 C   0  0  2  0  0  3  0  0  0  0  0  0
  189.0620  177.3240  141.8740 C   0  0  0  0  0  0  0  0  0  0  0  0
  191.2090  177.0930  144.8950 C   0  0  0  0  0  2  0  0  0  0  0  0
  187.5570  178.2530  139.6690 C   0  0  0  0  0  3  0  0  0  0  0  0
  189.1630  177.0630  147.4920 N   0  0  0  0  0  2  0  0  0  0  0  0
  188.4690  177.5940  146.3130 C   0  0  0  0  0  2  0  0  0  0  0  0
  189.8520  177.3650  144.2480 C   0  0  1  0  0  3  0  0  0  0  0  0
  183.0040  179.0910  143.5930 C   0  0  0  0  0  3  0  0  0  0  0  0
  185.7050  178.3560  143.4980 C   0  0  0  0  0  0  0  0  0  0  0  0
  185.1470  178.8320  144.6890 C   0  0  0  0  0  3  0  0  0  0  0  0
  183.7990  179.1980  144.7380 C   0  0  0  0  0  3  0  0  0  0  0  0
  183.5550  178.6190  142.3990 C   0  0  0  0  0  3  0  0  0  0  0  0
  184.9030  178.2530  142.3490 C   0  0  0  0  0  3  0  0  0  0  0  0
  2 12  1  0  0  0  0
  3 21  1  0  0  0  0
  4 13  1  0  0  0  0
  4 14  1  0  0  0  0
  6  2  2  0  0  0  0
  7 11  1  0  0  0  0
  7  9  1  1  0  0  0
  8 10  1  0  0  0  0
 10 19  1  0  0  0  0
 11 16  2  0  0  0  0
 12 23  1  6  0  0  0
 12  1  1  0  0  0  0
 13  5  1  6  0  0  0
 13  7  1  0  0  0  0
 14 18  2  0  0  0  0
 14 11  1  0  0  0  0
 15  1  1  6  0  0  0
 15 20  1  0  0  0  0
 16  2  1  0  0  0  0
 16  3  1  0  0  0  0
 17  8  1  0  0  0  0
 18  6  1  0  0  0  0
 20 19  1  0  0  0  0
 21 17  1  1  0  0  0
 21 15  1  0  0  0  0
 22 25  1  0  0  0  0
 23 24  1  0  0  0  0
 24 25  2  0  0  0  0
 26 22  2  0  0  0  0
 27 26  1  0  0  0  0
 27 23  2  0  0  0  0
M  END
>  <MODEL>
3

>  <REMARK>
 VINA RESULT:     -10.7      2.533      6.111
  Name = 
  1 active torsions:
  status: ('A' for Active; 'I' for Inactive)
    1  A    between atoms: C_9  and  C_15
                            x       y       z     vdW  Elec       q    Type
                         _______ _______ _______ _____ _____    ______ ____

>  <TORSDO>
F 1

$$$$
=
 OpenBabel10262419593D

 27 31  0  0  1  0  0  0  0  0999 V2000
  189.1060  176.2260  143.1660 C   0  0  0  0  0  2  0  0  0  0  0  0
  187.7320  177.8370  144.5190 C   0  0  0  0  0  0  0  0  0  0  0  0
  186.9550  177.7740  142.1520 O   0  0  0  0  0  0  0  0  0  0  0  0
  183.7260  178.9780  145.4410 C   0  0  0  0  0  2  0  0  0  0  0  0
  182.1740  177.8380  144.0210 O   0  0  0  0  0  1  0  0  0  0  0  0
  187.4050  178.1290  145.8630 C   0  0  0  0  0  3  0  0  0  0  0  0
  184.2470  178.5430  143.0540 C   0  0  1  0  0  3  0  0  0  0  0  0
  189.2490  178.4530  139.2440 C   0  0  0  0  0  2  0  0  0  0  0  0
  184.4530  179.7260  142.1240 C   0  0  0  0  0  1  0  0  0  0  0  0
  189.9290  177.1120  138.9820 C   0  0  0  0  0  2  0  0  0  0  0  0
  185.4360  178.3590  143.9250 C   0  0  0  0  0  0  0  0  0  0  0  0
  189.1370  177.3810  144.1660 C   0  0  1  0  0  3  0  0  0  0  0  0
  183.1130  178.8690  144.0380 C   0  0  2  0  0  3  0  0  0  0  0  0
  185.1410  178.6070  145.2400 C   0  0  0  0  0  0  0  0  0  0  0  0
  189.1320  176.7290  141.7260 C   0  0  2  0  0  3  0  0  0  0  0  0
  186.7260  177.9880  143.5200 C   0  0  0  0  0  0  0  0  0  0  0  0
  187.9640  178.2140  140.0270 C   0  0  0  0  0  2  0  0  0  0  0  0
  186.1120  178.5130  146.2300 C   0  0  0  0  0  3  0  0  0  0  0  0
  190.9330  176.7570  139.9940 N   0  0  0  0  0  2  0  0  0  0  0  0
  190.5660  177.1180  141.3680 C   0  0  0  0  0  2  0  0  0  0  0  0
  188.2150  177.9450  141.5100 C   0  0  1  0  0  3  0  0  0  0  0  0
  191.6570  176.3770  147.5080 C   0  0  0  0  0  3  0  0  0  0  0  0
  190.0010  177.0310  145.3460 C   0  0  0  0  0  0  0  0  0  0  0  0
  191.2100  176.3620  145.1280 C   0  0  0  0  0  3  0  0  0  0  0  0
  192.0360  176.0340  146.2070 C   0  0  0  0  0  3  0  0  0  0  0  0
  190.4510  177.0480  147.7320 C   0  0  0  0  0  3  0  0  0  0  0  0
  189.6250  177.3760  146.6540 C   0  0  0  0  0  3  0  0  0  0  0  0
  1 12  1  0  0  0  0
  2  6  1  0  0  0  0
  3 16  1  0  0  0  0
  6 18  2  0  0  0  0
  7  9  1  6  0  0  0
  7 11  1  0  0  0  0
  7 13  1  0  0  0  0
  8 17  1  0  0  0  0
 10  8  1  0  0  0  0
 10 19  1  0  0  0  0
 11 14  2  0  0  0  0
 12  2  1  0  0  0  0
 12 23  1  1  0  0  0
 13  5  1  1  0  0  0
 13  4  1  0  0  0  0
 14  4  1  0  0  0  0
 14 18  1  0  0  0  0
 15 20  1  1  0  0  0
 15  1  1  0  0  0  0
 16 11  1  0  0  0  0
 16  2  2  0  0  0  0
 19 20  1  0  0  0  0
 21 17  1  6  0  0  0
 21 15  1  0  0  0  0
 21  3  1  0  0  0  0
 22 26  1  0  0  0  0
 23 27  1  0  0  0  0
 24 23  2  0  0  0  0
 24 25  1  0  0  0  0
 25 22  2  0  0  0  0
 27 26  2  0  0  0  0
M  END
>  <MODEL>
4

>  <REMARK>
 VINA RESULT:     -10.5      1.413      2.244
  Name = 
  1 active torsions:
  status: ('A' for Active; 'I' for Inactive)
    1  A    between atoms: C_9  and  C_15
                            x       y       z     vdW  Elec       q    Type
                         _______ _______ _______ _____ _____    ______ ____

>  <TORSDO>
F 1

$$$$
=
 OpenBabel10262419593D

 27 31  0  0  1  0  0  0  0  0999 V2000
  184.9300  179.5320  143.4580 C   0  0  0  0  0  2  0  0  0  0  0  0
  186.7340  178.1070  142.4450 C   0  0  0  0  0  0  0  0  0  0  0  0
  185.0640  178.7840  140.7240 O   0  0  0  0  0  0  0  0  0  0  0  0
  189.4790  177.8710  139.1880 C   0  0  0  0  0  2  0  0  0  0  0  0
  189.0480  179.6000  137.5920 O   0  0  0  0  0  1  0  0  0  0  0  0
  188.0550  177.6730  142.7040 C   0  0  0  0  0  3  0  0  0  0  0  0
  187.1620  178.5770  138.6520 C   0  0  1  0  0  3  0  0  0  0  0  0
  181.3830  178.0760  141.0790 C   0  0  0  0  0  2  0  0  0  0  0  0
  186.2160  177.5660  138.0300 C   0  0  0  0  0  1  0  0  0  0  0  0
  180.8600  179.2250  141.9360 C   0  0  0  0  0  2  0  0  0  0  0  0
  187.3370  178.2970  140.1010 C   0  0  0  0  0  0  0  0  0  0  0  0
  185.7470  178.2480  143.5900 C   0  0  1  0  0  3  0  0  0  0  0  0
  188.5670  178.3800  138.0640 C   0  0  2  0  0  3  0  0  0  0  0  0
  188.6170  177.9010  140.3860 C   0  0  0  0  0  0  0  0  0  0  0  0
  183.6500  179.3040  142.6600 C   0  0  2  0  0  3  0  0  0  0  0  0
  186.3590  178.3950  141.1000 C   0  0  0  0  0  0  0  0  0  0  0  0
  182.7050  178.4890  140.4460 C   0  0  0  0  0  2  0  0  0  0  0  0
  189.0000  177.5700  141.6800 C   0  0  0  0  0  3  0  0  0  0  0  0
  181.2540  179.1300  143.3480 N   0  0  0  0  0  2  0  0  0  0  0  0
  182.6180  178.6340  143.5670 C   0  0  0  0  0  2  0  0  0  0  0  0
  183.8780  178.4180  141.4220 C   0  0  1  0  0  3  0  0  0  0  0  0
  187.4370  177.9840  147.5410 C   0  0  0  0  0  3  0  0  0  0  0  0
  186.3560  178.1530  144.9620 C   0  0  0  0  0  0  0  0  0  0  0  0
  185.7000  178.7570  146.0410 C   0  0  0  0  0  3  0  0  0  0  0  0
  186.2400  178.6740  147.3270 C   0  0  0  0  0  3  0  0  0  0  0  0
  188.0960  177.3760  146.4680 C   0  0  0  0  0  3  0  0  0  0  0  0
  187.5570  177.4590  145.1810 C   0  0  0  0  0  3  0  0  0  0  0  0
  1 12  1  0  0  0  0
  2  6  1  0  0  0  0
  2 12  1  0  0  0  0
  3 16  1  0  0  0  0
  3 21  1  0  0  0  0
  4 14  1  0  0  0  0
  7  9  1  6  0  0  0
  7 11  1  0  0  0  0
  8 10  1  0  0  0  0
 10 19  1  0  0  0  0
 11 14  2  0  0  0  0
 11 16  1  0  0  0  0
 12 23  1  1  0  0  0
 13  5  1  1  0  0  0
 13  7  1  0  0  0  0
 13  4  1  0  0  0  0
 14 18  1  0  0  0  0
 15  1  1  1  0  0  0
 15 20  1  0  0  0  0
 16  2  2  0  0  0  0
 17  8  1  0  0  0  0
 18  6  2  0  0  0  0
 19 20  1  0  0  0  0
 21 17  1  6  0  0  0
 21 15  1  0  0  0  0
 23 27  2  0  0  0  0
 23 24  1  0  0  0  0
 24 25  2  0  0  0  0
 25 22  1  0  0  0  0
 26 22  2  0  0  0  0
 27 26  1  0  0  0  0
M  END
>  <MODEL>
5

>  <REMARK>
 VINA RESULT:     -10.2      2.449      5.478
  Name = 
  1 active torsions:
  status: ('A' for Active; 'I' for Inactive)
    1  A    between atoms: C_9  and  C_15
                            x       y       z     vdW  Elec       q    Type
                         _______ _______ _______ _____ _____    ______ ____

>  <TORSDO>
F 1

$$$$
=
 OpenBabel10262419593D

 27 31  0  0  1  0  0  0  0  0999 V2000
  187.1390  176.9920  142.4260 C   0  0  0  0  0  2  0  0  0  0  0  0
  189.3820  177.5670  143.3990 C   0  0  0  0  0  0  0  0  0  0  0  0
  187.6400  177.4670  145.1780 O   0  0  0  0  0  0  0  0  0  0  0  0
  192.1200  176.5530  146.5090 C   0  0  0  0  0  2  0  0  0  0  0  0
  191.1200  175.0220  148.0510 O   0  0  0  0  0  1  0  0  0  0  0  0
  190.7590  177.4850  143.0870 C   0  0  0  0  0  3  0  0  0  0  0  0
  189.7280  176.7420  147.1400 C   0  0  1  0  0  3  0  0  0  0  0  0
  184.4940  179.5330  145.0540 C   0  0  0  0  0  2  0  0  0  0  0  0
  189.2590  177.9970  147.8550 C   0  0  0  0  0  1  0  0  0  0  0  0
  183.5450  178.7190  144.1780 C   0  0  0  0  0  2  0  0  0  0  0  0
  189.9470  177.0230  145.6970 C   0  0  0  0  0  0  0  0  0  0  0  0
  188.3780  177.8770  142.3040 C   0  0  1  0  0  3  0  0  0  0  0  0
  191.1220  176.3590  147.6590 C   0  0  2  0  0  3  0  0  0  0  0  0
  191.2710  176.9220  145.3600 C   0  0  0  0  0  0  0  0  0  0  0  0
  186.0700  177.6370  143.3010 C   0  0  2  0  0  3  0  0  0  0  0  0
  188.9720  177.3610  144.7490 C   0  0  0  0  0  0  0  0  0  0  0  0
  185.5810  178.6140  145.5960 C   0  0  0  0  0  2  0  0  0  0  0  0
  191.7080  177.1620  144.0620 C   0  0  0  0  0  3  0  0  0  0  0  0
  183.8980  178.7440  142.7520 N   0  0  0  0  0  2  0  0  0  0  0  0
  185.3390  178.7000  142.4810 C   0  0  0  0  0  2  0  0  0  0  0  0
  186.6590  178.2960  144.5610 C   0  0  1  0  0  3  0  0  0  0  0  0
  189.9720  177.6520  138.3120 C   0  0  0  0  0  3  0  0  0  0  0  0
  188.9300  177.8180  140.9070 C   0  0  0  0  0  0  0  0  0  0  0  0
  189.8720  176.8340  140.5880 C   0  0  0  0  0  3  0  0  0  0  0  0
  190.3930  176.7510  139.2940 C   0  0  0  0  0  3  0  0  0  0  0  0
  189.0300  178.6370  138.6230 C   0  0  0  0  0  3  0  0  0  0  0  0
  188.5080  178.7210  139.9160 C   0  0  0  0  0  3  0  0  0  0  0  0
  2 16  1  0  0  0  0
  4 13  1  0  0  0  0
  6  2  2  0  0  0  0
  6 18  1  0  0  0  0
  7 13  1  0  0  0  0
  7  9  1  1  0  0  0
  8 17  1  0  0  0  0
 10  8  1  0  0  0  0
 11  7  1  0  0  0  0
 12 23  1  6  0  0  0
 12  1  1  0  0  0  0
 12  2  1  0  0  0  0
 13  5  1  6  0  0  0
 14 11  1  0  0  0  0
 14  4  1  0  0  0  0
 15  1  1  6  0  0  0
 15 21  1  0  0  0  0
 16  3  1  0  0  0  0
 16 11  2  0  0  0  0
 18 14  2  0  0  0  0
 19 10  1  0  0  0  0
 20 19  1  0  0  0  0
 20 15  1  0  0  0  0
 21  3  1  0  0  0  0
 21 17  1  1  0  0  0
 22 26  2  0  0  0  0
 22 25  1  0  0  0  0
 24 23  1  0  0  0  0
 25 24  2  0  0  0  0
 26 27  1  0  0  0  0
 27 23  2  0  0  0  0
M  END
>  <MODEL>
6

>  <REMARK>
 VINA RESULT:      -9.8      2.659      7.388
  Name = 
  1 active torsions:
  status: ('A' for Active; 'I' for Inactive)
    1  A    between atoms: C_9  and  C_15
                            x       y       z     vdW  Elec       q    Type
                         _______ _______ _______ _____ _____    ______ ____

>  <TORSDO>
F 1

$$$$
=
 OpenBabel10262419593D

 27 31  0  0  1  0  0  0  0  0999 V2000
  186.6080  179.1490  140.5610 C   0  0  0  0  0  2  0  0  0  0  0  0
  185.1560  178.2770  142.4170 C   0  0  0  0  0  0  0  0  0  0  0  0
  187.5600  178.2330  143.0720 O   0  0  0  0  0  0  0  0  0  0  0  0
  184.3810  178.6170  146.5980 C   0  0  0  0  0  2  0  0  0  0  0  0
  186.0460  179.9680  147.6600 O   0  0  0  0  0  1  0  0  0  0  0  0
  183.8120  178.3060  142.8550 C   0  0  0  0  0  3  0  0  0  0  0  0
  186.7610  178.5060  145.9050 C   0  0  1  0  0  3  0  0  0  0  0  0
  190.1820  176.4380  141.0510 C   0  0  0  0  0  2  0  0  0  0  0  0
  187.5090  177.1950  146.0700 C   0  0  0  0  0  1  0  0  0  0  0  0
  190.5690  177.4390  139.9660 C   0  0  0  0  0  2  0  0  0  0  0  0
  185.8390  178.4300  144.7420 C   0  0  0  0  0  0  0  0  0  0  0  0
  185.4650  178.2060  140.9320 C   0  0  1  0  0  3  0  0  0  0  0  0
  185.8260  178.7070  147.1070 C   0  0  2  0  0  3  0  0  0  0  0  0
  184.5270  178.4850  145.1350 C   0  0  0  0  0  0  0  0  0  0  0  0
  187.9640  178.4580  140.6630 C   0  0  2  0  0  3  0  0  0  0  0  0
  186.1960  178.3070  143.3920 C   0  0  0  0  0  0  0  0  0  0  0  0
  189.5310  177.1860  142.2070 C   0  0  0  0  0  2  0  0  0  0  0  0
  183.4910  178.4120  144.2110 C   0  0  0  0  0  3  0  0  0  0  0  0
  189.5440  177.6030  138.9270 N   0  0  0  0  0  2  0  0  0  0  0  0
  188.1640  177.5840  139.4250 C   0  0  0  0  0  2  0  0  0  0  0  0
  188.0830  177.5780  141.9200 C   0  0  1  0  0  3  0  0  0  0  0  0
  182.0550  178.8130  138.3760 C   0  0  0  0  0  3  0  0  0  0  0  0
  184.2830  178.4340  140.0310 C   0  0  0  0  0  0  0  0  0  0  0  0
  183.4240  177.3660  139.7520 C   0  0  0  0  0  3  0  0  0  0  0  0
  182.3130  177.5540  138.9250 C   0  0  0  0  0  3  0  0  0  0  0  0
  182.9080  179.8860  138.6530 C   0  0  0  0  0  3  0  0  0  0  0  0
  184.0190  179.6990  139.4790 C   0  0  0  0  0  3  0  0  0  0  0  0
  1 15  1  0  0  0  0
  1 12  1  0  0  0  0
  2  6  2  0  0  0  0
  2 16  1  0  0  0  0
  3 16  1  0  0  0  0
  4 13  1  0  0  0  0
  6 18  1  0  0  0  0
  7  9  1  1  0  0  0
  7 13  1  0  0  0  0
  8 17  1  0  0  0  0
 10  8  1  0  0  0  0
 11 14  1  0  0  0  0
 11  7  1  0  0  0  0
 12 23  1  6  0  0  0
 12  2  1  0  0  0  0
 13  5  1  6  0  0  0
 14  4  1  0  0  0  0
 15 20  1  6  0  0  0
 15 21  1  0  0  0  0
 16 11  2  0  0  0  0
 18 14  2  0  0  0  0
 19 20  1  0  0  0  0
 19 10  1  0  0  0  0
 21 17  1  1  0  0  0
 21  3  1  0  0  0  0
 22 26  2  0  0  0  0
 22 25  1  0  0  0  0
 24 23  1  0  0  0  0
 25 24  2  0  0  0  0
 26 27  1  0  0  0  0
 27 23  2  0  0  0  0
M  END
>  <MODEL>
7

>  <REMARK>
 VINA RESULT:      -9.1      1.931      5.691
  Name = 
  1 active torsions:
  status: ('A' for Active; 'I' for Inactive)
    1  A    between atoms: C_9  and  C_15
                            x       y       z     vdW  Elec       q    Type
                         _______ _______ _______ _____ _____    ______ ____

>  <TORSDO>
F 1

$$$$
=
 OpenBabel10262419593D

 27 31  0  0  1  0  0  0  0  0999 V2000
  187.6390  176.6270  143.4670 C   0  0  0  0  0  2  0  0  0  0  0  0
  186.6230  178.2200  141.8120 C   0  0  0  0  0  0  0  0  0  0  0  0
  188.7300  177.2340  140.9190 O   0  0  0  0  0  0  0  0  0  0  0  0
  185.4930  178.6380  137.7190 C   0  0  0  0  0  2  0  0  0  0  0  0
  186.2800  176.7820  136.4310 O   0  0  0  0  0  1  0  0  0  0  0  0
  185.3870  178.8390  141.5110 C   0  0  0  0  0  3  0  0  0  0  0  0
  187.7020  177.6020  138.1720 C   0  0  1  0  0  3  0  0  0  0  0  0
  192.0140  177.4670  142.7480 C   0  0  0  0  0  2  0  0  0  0  0  0
  188.9540  178.4440  137.9940 C   0  0  0  0  0  1  0  0  0  0  0  0
  191.9740  176.3070  143.7390 C   0  0  0  0  0  2  0  0  0  0  0  0
  186.9990  177.9830  139.4250 C   0  0  0  0  0  0  0  0  0  0  0  0
  187.0310  178.0130  143.2590 C   0  0  1  0  0  3  0  0  0  0  0  0
  186.6990  177.9520  137.0630 C   0  0  2  0  0  3  0  0  0  0  0  0
  185.7840  178.5590  139.1650 C   0  0  0  0  0  0  0  0  0  0  0  0
  189.1500  176.6390  143.2610 C   0  0  2  0  0  3  0  0  0  0  0  0
  187.4640  177.8110  140.7360 C   0  0  0  0  0  0  0  0  0  0  0  0
  191.0160  177.1980  141.6290 C   0  0  0  0  0  2  0  0  0  0  0  0
  184.9620  179.0100  140.1910 C   0  0  0  0  0  3  0  0  0  0  0  0
  191.0610  176.5320  144.8680 N   0  0  0  0  0  2  0  0  0  0  0  0
  189.8110  177.2150  144.5130 C   0  0  0  0  0  2  0  0  0  0  0  0
  189.5720  177.4780  142.0420 C   0  0  1  0  0  3  0  0  0  0  0  0
  183.8690  178.7200  146.0930 C   0  0  0  0  0  3  0  0  0  0  0  0
  185.9400  178.2640  144.2640 C   0  0  0  0  0  0  0  0  0  0  0  0
  184.6750  178.6530  143.8110 C   0  0  0  0  0  3  0  0  0  0  0  0
  183.6410  178.8830  144.7240 C   0  0  0  0  0  3  0  0  0  0  0  0
  185.1300  178.3290  146.5520 C   0  0  0  0  0  3  0  0  0  0  0  0
  186.1640  178.1000  145.6410 C   0  0  0  0  0  3  0  0  0  0  0  0
  2 12  1  0  0  0  0
  3 21  1  0  0  0  0
  4 14  1  0  0  0  0
  6  2  1  0  0  0  0
  7  9  1  6  0  0  0
  7 11  1  0  0  0  0
  8 10  1  0  0  0  0
 10 19  1  0  0  0  0
 11 16  1  0  0  0  0
 12  1  1  0  0  0  0
 12 23  1  1  0  0  0
 13  5  1  1  0  0  0
 13  4  1  0  0  0  0
 13  7  1  0  0  0  0
 14 11  2  0  0  0  0
 14 18  1  0  0  0  0
 15  1  1  1  0  0  0
 15 20  1  0  0  0  0
 16  3  1  0  0  0  0
 16  2  2  0  0  0  0
 17  8  1  0  0  0  0
 18  6  2  0  0  0  0
 20 19  1  0  0  0  0
 21 17  1  6  0  0  0
 21 15  1  0  0  0  0
 22 26  1  0  0  0  0
 23 27  1  0  0  0  0
 24 23  2  0  0  0  0
 24 25  1  0  0  0  0
 25 22  2  0  0  0  0
 27 26  2  0  0  0  0
M  END
>  <MODEL>
8

>  <REMARK>
 VINA RESULT:      -9.0      2.347      4.192
  Name = 
  1 active torsions:
  status: ('A' for Active; 'I' for Inactive)
    1  A    between atoms: C_9  and  C_15
                            x       y       z     vdW  Elec       q    Type
                         _______ _______ _______ _____ _____    ______ ____

>  <TORSDO>
F 1

$$$$
=
 OpenBabel10262419593D

 27 31  0  0  1  0  0  0  0  0999 V2000
  190.0340  178.4050  142.0110 C   0  0  0  0  0  2  0  0  0  0  0  0
  188.4320  177.6380  140.2340 C   0  0  0  0  0  0  0  0  0  0  0  0
  187.2090  178.3800  142.2750 O   0  0  0  0  0  0  0  0  0  0  0  0
  184.8810  178.7240  138.1340 C   0  0  0  0  0  2  0  0  0  0  0  0
  183.8880  180.6720  139.1020 O   0  0  0  0  0  1  0  0  0  0  0  0
  188.3770  177.4140  138.8390 C   0  0  0  0  0  3  0  0  0  0  0  0
  184.8850  179.0840  140.5890 C   0  0  1  0  0  3  0  0  0  0  0  0
  187.8710  176.9190  145.6820 C   0  0  0  0  0  2  0  0  0  0  0  0
  184.1530  178.0910  141.4730 C   0  0  0  0  0  1  0  0  0  0  0  0
  189.0710  177.7060  146.2000 C   0  0  0  0  0  2  0  0  0  0  0  0
  186.1650  178.5000  140.1100 C   0  0  0  0  0  0  0  0  0  0  0  0
  189.6990  177.3080  141.0020 C   0  0  1  0  0  3  0  0  0  0  0  0
  184.0750  179.3050  139.3030 C   0  0  2  0  0  3  0  0  0  0  0  0
  186.1520  178.2990  138.7550 C   0  0  0  0  0  0  0  0  0  0  0  0
  189.3910  178.1370  143.3680 C   0  0  2  0  0  3  0  0  0  0  0  0
  187.2810  178.1660  140.8900 C   0  0  0  0  0  0  0  0  0  0  0  0
  187.1950  177.7170  144.5750 C   0  0  0  0  0  2  0  0  0  0  0  0
  187.2410  177.7440  138.0940 C   0  0  0  0  0  3  0  0  0  0  0  0
  190.3350  177.3490  145.5430 N   0  0  0  0  0  2  0  0  0  0  0  0
  190.2190  177.0850  144.1040 C   0  0  0  0  0  2  0  0  0  0  0  0
  187.9410  177.6370  143.2440 C   0  0  1  0  0  3  0  0  0  0  0  0
  193.1570  176.4400  138.5900 C   0  0  0  0  0  3  0  0  0  0  0  0
  190.8950  177.0010  140.1440 C   0  0  0  0  0  0  0  0  0  0  0  0
  192.1470  177.5000  140.5190 C   0  0  0  0  0  3  0  0  0  0  0  0
  193.2760  177.2210  139.7430 C   0  0  0  0  0  3  0  0  0  0  0  0
  191.9090  175.9370  138.2100 C   0  0  0  0  0  3  0  0  0  0  0  0
  190.7800  176.2160  138.9850 C   0  0  0  0  0  3  0  0  0  0  0  0
  2 16  1  0  0  0  0
  2 12  1  0  0  0  0
  3 21  1  0  0  0  0
  4 14  1  0  0  0  0
  4 13  1  0  0  0  0
  6  2  2  0  0  0  0
  7  9  1  1  0  0  0
  8 10  1  0  0  0  0
 11  7  1  0  0  0  0
 11 16  2  0  0  0  0
 12 23  1  6  0  0  0
 12  1  1  0  0  0  0
 13  5  1  6  0  0  0
 13  7  1  0  0  0  0
 14 11  1  0  0  0  0
 15  1  1  6  0  0  0
 15 20  1  0  0  0  0
 16  3  1  0  0  0  0
 17  8  1  0  0  0  0
 18 14  2  0  0  0  0
 18  6  1  0  0  0  0
 19 10  1  0  0  0  0
 20 19  1  0  0  0  0
 21 15  1  0  0  0  0
 21 17  1  1  0  0  0
 22 25  1  0  0  0  0
 23 24  1  0  0  0  0
 25 24  2  0  0  0  0
 26 22  2  0  0  0  0
 26 27  1  0  0  0  0
 27 23  2  0  0  0  0
M  END
>  <MODEL>
9

>  <REMARK>
 VINA RESULT:      -8.8      2.058      5.757
  Name = 
  1 active torsions:
  status: ('A' for Active; 'I' for Inactive)
    1  A    between atoms: C_9  and  C_15
                            x       y       z     vdW  Elec       q    Type
                         _______ _______ _______ _____ _____    ______ ____

>  <TORSDO>
F 1

$$$$
