=
 OpenBabel10252415063D

 34 38  0  0  0  0  0  0  0  0999 V2000
  182.3390  178.5330  141.6310 C   0  0  0  0  0  0  0  0  0  0  0  0
  181.4600  179.0880  143.8190 C   0  0  0  0  0  3  0  0  0  0  0  0
  183.8810  178.6130  143.5320 C   0  0  0  0  0  0  0  0  0  0  0  0
  185.5130  178.6150  145.3380 C   0  0  0  0  0  0  0  0  0  0  0  0
  179.9770  178.9940  141.9120 C   0  0  0  0  0  3  0  0  0  0  0  0
  179.0330  179.5700  144.1480 C   0  0  0  0  0  1  0  0  0  0  0  0
  183.2170  179.1010  145.8460 O   0  0  0  0  0  1  0  0  0  0  0  0
  182.5620  178.7480  143.0130 C   0  0  0  0  0  0  0  0  0  0  0  0
  181.0550  178.6550  141.0920 C   0  0  0  0  0  3  0  0  0  0  0  0
  184.9340  178.2810  142.6340 C   0  0  0  0  0  0  0  0  0  0  0  0
  183.3680  178.2000  140.8160 N   0  0  0  0  0  0  0  0  0  0  0  0
  180.1800  179.2100  143.2740 C   0  0  0  0  0  0  0  0  0  0  0  0
  186.4870  178.2970  144.4520 N   0  0  0  0  0  0  0  0  0  0  0  0
  186.2570  178.1370  143.1220 C   0  0  0  0  0  0  0  0  0  0  0  0
  184.1940  178.7810  144.9050 C   0  0  0  0  0  0  0  0  0  0  0  0
  184.6330  178.0710  141.2820 C   0  0  0  0  0  3  0  0  0  0  0  0
  189.4410  176.4910  141.8980 C   0  0  0  0  0  0  0  0  0  0  0  0
  189.6940  177.1930  140.7170 C   0  0  0  0  0  3  0  0  0  0  0  0
  187.4240  177.8060  142.2600 C   0  0  0  0  0  0  0  0  0  0  0  0
  188.8240  178.2050  140.3080 C   0  0  0  0  0  3  0  0  0  0  0  0
  188.3160  176.8000  142.6670 C   0  0  0  0  0  3  0  0  0  0  0  0
  187.6990  178.5130  141.0780 C   0  0  0  0  0  3  0  0  0  0  0  0
  190.2880  175.5130  142.2990 F   0  0  0  0  0  0  0  0  0  0  0  0
  185.8650  178.7480  146.7810 C   0  0  0  0  0  2  0  0  0  0  0  0
  186.6870  177.6240  147.1900 N   0  0  0  0  0  2  0  0  0  0  0  0
  187.8690  178.1800  147.8210 C   0  0  0  0  0  2  0  0  0  0  0  0
  188.9840  177.1540  147.7960 C   0  0  0  0  0  2  0  0  0  0  0  0
  191.5250  175.6520  147.4460 C   0  0  0  0  0  1  0  0  0  0  0  0
  189.8890  177.4040  146.6330 C   0  0  0  0  0  0  0  0  0  0  0  0
  191.0870  176.6840  146.4620 C   0  0  0  0  0  0  0  0  0  0  0  0
  191.5200  177.8980  144.4080 C   0  0  0  0  0  3  0  0  0  0  0  0
  190.3290  178.6080  144.5730 C   0  0  0  0  0  3  0  0  0  0  0  0
  189.5150  178.3610  145.6820 C   0  0  0  0  0  3  0  0  0  0  0  0
  191.8980  176.9370  145.3500 C   0  0  0  0  0  3  0  0  0  0  0  0
  1  8  1  0  0  0  0
  3 15  1  0  0  0  0
  4 24  1  0  0  0  0
  5 12  2  0  0  0  0
  8  3  1  0  0  0  0
  8  2  2  0  0  0  0
  9  1  2  0  0  0  0
  9  5  1  0  0  0  0
 10 14  1  0  0  0  0
 10  3  2  0  0  0  0
 11 16  2  0  0  0  0
 11  1  1  0  0  0  0
 12  2  1  0  0  0  0
 12  6  1  0  0  0  0
 13  4  1  0  0  0  0
 14 13  2  0  0  0  0
 15  4  2  0  0  0  0
 15  7  1  0  0  0  0
 16 10  1  0  0  0  0
 17 23  1  0  0  0  0
 17 21  1  0  0  0  0
 18 17  2  0  0  0  0
 19 21  2  0  0  0  0
 19 14  1  0  0  0  0
 20 18  1  0  0  0  0
 20 22  2  0  0  0  0
 22 19  1  0  0  0  0
 24 25  1  0  0  0  0
 25 26  1  0  0  0  0
 27 26  1  0  0  0  0
 29 27  1  0  0  0  0
 30 29  1  0  0  0  0
 30 28  1  0  0  0  0
 31 32  2  0  0  0  0
 31 34  1  0  0  0  0
 32 33  1  0  0  0  0
 33 29  2  0  0  0  0
 34 30  2  0  0  0  0
M  END
>  <MODEL>
1

>  <REMARK>
 VINA RESULT:     -10.4      0.000      0.000
  Name = 
  6 active torsions:
  status: ('A' for Active; 'I' for Inactive)
    1  A    between atoms: C_3  and  C_13
    2  A    between atoms: C_3  and  C_17
    3  A    between atoms: C_5  and  C_18
    4  A    between atoms: C_12  and  C_28
    5  A    between atoms: C_17  and  N_29
    6  A    between atoms: C_18  and  N_29
                            x       y       z     vdW  Elec       q    Type
                         _______ _______ _______ _____ _____    ______ ____

>  <TORSDO>
F 6

$$$$
=
 OpenBabel10252415063D

 34 38  0  0  0  0  0  0  0  0999 V2000
  189.7580  177.1710  137.5550 C   0  0  0  0  0  0  0  0  0  0  0  0
  187.5610  178.0030  136.9670 C   0  0  0  0  0  3  0  0  0  0  0  0
  188.2930  177.9850  139.3410 C   0  0  0  0  0  0  0  0  0  0  0  0
  186.9250  178.7220  141.2150 C   0  0  0  0  0  0  0  0  0  0  0  0
  189.0420  177.1870  135.2400 C   0  0  0  0  0  3  0  0  0  0  0  0
  186.7870  178.0360  134.5940 C   0  0  0  0  0  1  0  0  0  0  0  0
  186.0110  178.8250  138.9970 O   0  0  0  0  0  1  0  0  0  0  0  0
  188.5200  177.7280  137.9590 C   0  0  0  0  0  0  0  0  0  0  0  0
  190.0100  176.9050  136.2060 C   0  0  0  0  0  3  0  0  0  0  0  0
  189.3310  177.6870  140.2670 C   0  0  0  0  0  0  0  0  0  0  0  0
  190.7110  176.8850  138.4740 N   0  0  0  0  0  0  0  0  0  0  0  0
  187.8190  177.7360  135.6210 C   0  0  0  0  0  0  0  0  0  0  0  0
  187.9360  178.4230  142.0650 N   0  0  0  0  0  0  0  0  0  0  0  0
  189.1330  177.9290  141.6500 C   0  0  0  0  0  0  0  0  0  0  0  0
  187.0750  178.5130  139.8400 C   0  0  0  0  0  0  0  0  0  0  0  0
  190.5240  177.1250  139.7930 C   0  0  0  0  0  3  0  0  0  0  0  0
  191.4980  176.0540  143.9380 C   0  0  0  0  0  0  0  0  0  0  0  0
  192.0390  177.0880  144.7050 C   0  0  0  0  0  3  0  0  0  0  0  0
  190.1620  177.6630  142.6910 C   0  0  0  0  0  0  0  0  0  0  0  0
  191.6420  178.4070  144.4770 C   0  0  0  0  0  3  0  0  0  0  0  0
  190.5600  176.3400  142.9420 C   0  0  0  0  0  3  0  0  0  0  0  0
  190.7040  178.6910  143.4790 C   0  0  0  0  0  3  0  0  0  0  0  0
  191.8790  174.7730  144.1630 F   0  0  0  0  0  0  0  0  0  0  0  0
  185.6430  179.2410  141.7720 C   0  0  0  0  0  2  0  0  0  0  0  0
  185.0500  178.2440  142.6450 N   0  0  0  0  0  2  0  0  0  0  0  0
  185.5490  178.5100  143.9800 C   0  0  0  0  0  2  0  0  0  0  0  0
  186.1870  177.2540  144.5410 C   0  0  0  0  0  2  0  0  0  0  0  0
  184.9250  178.4430  146.9540 C   0  0  0  0  0  1  0  0  0  0  0  0
  186.9850  177.5820  145.7610 C   0  0  0  0  0  0  0  0  0  0  0  0
  186.3830  178.1350  146.9090 C   0  0  0  0  0  0  0  0  0  0  0  0
  188.5340  178.1370  148.0300 C   0  0  0  0  0  3  0  0  0  0  0  0
  189.1300  177.5820  146.8960 C   0  0  0  0  0  3  0  0  0  0  0  0
  188.3570  177.3040  145.7650 C   0  0  0  0  0  3  0  0  0  0  0  0
  187.1630  178.4110  148.0370 C   0  0  0  0  0  3  0  0  0  0  0  0
  1  8  2  0  0  0  0
  1 11  1  0  0  0  0
  2  8  1  0  0  0  0
  3 15  2  0  0  0  0
  3 10  1  0  0  0  0
  4 24  1  0  0  0  0
  4 13  2  0  0  0  0
  5 12  1  0  0  0  0
  5  9  2  0  0  0  0
  6 12  1  0  0  0  0
  7 15  1  0  0  0  0
  8  3  1  0  0  0  0
  9  1  1  0  0  0  0
 10 14  2  0  0  0  0
 11 16  2  0  0  0  0
 12  2  2  0  0  0  0
 14 13  1  0  0  0  0
 14 19  1  0  0  0  0
 15  4  1  0  0  0  0
 16 10  1  0  0  0  0
 17 23  1  0  0  0  0
 17 18  1  0  0  0  0
 19 21  1  0  0  0  0
 19 22  2  0  0  0  0
 20 18  2  0  0  0  0
 21 17  2  0  0  0  0
 22 20  1  0  0  0  0
 24 25  1  0  0  0  0
 25 26  1  0  0  0  0
 26 27  1  0  0  0  0
 27 29  1  0  0  0  0
 29 33  2  0  0  0  0
 29 30  1  0  0  0  0
 30 28  1  0  0  0  0
 30 34  2  0  0  0  0
 31 34  1  0  0  0  0
 32 31  2  0  0  0  0
 33 32  1  0  0  0  0
M  END
>  <MODEL>
2

>  <REMARK>
 VINA RESULT:      -9.7      3.002      6.291
  Name = 
  6 active torsions:
  status: ('A' for Active; 'I' for Inactive)
    1  A    between atoms: C_3  and  C_13
    2  A    between atoms: C_3  and  C_17
    3  A    between atoms: C_5  and  C_18
    4  A    between atoms: C_12  and  C_28
    5  A    between atoms: C_17  and  N_29
    6  A    between atoms: C_18  and  N_29
                            x       y       z     vdW  Elec       q    Type
                         _______ _______ _______ _____ _____    ______ ____

>  <TORSDO>
F 6

$$$$
=
 OpenBabel10252415063D

 34 38  0  0  0  0  0  0  0  0999 V2000
  182.6480  178.8310  142.1060 C   0  0  0  0  0  0  0  0  0  0  0  0
  183.4710  178.8420  139.8270 C   0  0  0  0  0  3  0  0  0  0  0  0
  185.0540  178.5850  141.7240 C   0  0  0  0  0  0  0  0  0  0  0  0
  187.4680  178.3770  141.4900 C   0  0  0  0  0  0  0  0  0  0  0  0
  181.1030  179.0830  140.2550 C   0  0  0  0  0  3  0  0  0  0  0  0
  181.9110  179.0990  137.8950 C   0  0  0  0  0  1  0  0  0  0  0  0
  186.1250  178.6180  139.5140 O   0  0  0  0  0  1  0  0  0  0  0  0
  183.7390  178.7510  141.2060 C   0  0  0  0  0  0  0  0  0  0  0  0
  181.3440  178.9960  141.6280 C   0  0  0  0  0  3  0  0  0  0  0  0
  185.2230  178.4890  143.1340 C   0  0  0  0  0  0  0  0  0  0  0  0
  182.8560  178.7530  143.4410 N   0  0  0  0  0  0  0  0  0  0  0  0
  182.1660  179.0050  139.3560 C   0  0  0  0  0  0  0  0  0  0  0  0
  187.5870  178.2910  142.8360 N   0  0  0  0  0  0  0  0  0  0  0  0
  186.5210  178.3260  143.6790 C   0  0  0  0  0  0  0  0  0  0  0  0
  186.2080  178.5260  140.9010 C   0  0  0  0  0  0  0  0  0  0  0  0
  184.0960  178.5890  143.9600 C   0  0  0  0  0  3  0  0  0  0  0  0
  188.1070  177.2130  146.9330 C   0  0  0  0  0  0  0  0  0  0  0  0
  187.3100  177.8600  147.8800 C   0  0  0  0  0  3  0  0  0  0  0  0
  186.7960  178.2030  145.1360 C   0  0  0  0  0  0  0  0  0  0  0  0
  186.2520  178.6710  147.4630 C   0  0  0  0  0  3  0  0  0  0  0  0
  187.8470  177.3790  145.5700 C   0  0  0  0  0  3  0  0  0  0  0  0
  185.9940  178.8360  146.0990 C   0  0  0  0  0  3  0  0  0  0  0  0
  189.1290  176.4210  147.3370 F   0  0  0  0  0  0  0  0  0  0  0  0
  188.7020  178.3480  140.6520 C   0  0  0  0  0  2  0  0  0  0  0  0
  189.0200  176.9770  140.2970 N   0  0  0  0  0  2  0  0  0  0  0  0
  190.4060  176.7630  140.6640 C   0  0  0  0  0  2  0  0  0  0  0  0
  190.8590  177.8710  141.5950 C   0  0  0  0  0  2  0  0  0  0  0  0
  190.9530  179.5920  144.0160 C   0  0  0  0  0  1  0  0  0  0  0  0
  191.1860  177.3120  142.9420 C   0  0  0  0  0  0  0  0  0  0  0  0
  191.2190  178.1260  144.0900 C   0  0  0  0  0  0  0  0  0  0  0  0
  191.7680  176.1890  145.4430 C   0  0  0  0  0  3  0  0  0  0  0  0
  191.7290  175.3800  144.3060 C   0  0  0  0  0  3  0  0  0  0  0  0
  191.4370  175.9390  143.0590 C   0  0  0  0  0  3  0  0  0  0  0  0
  191.5120  177.5600  145.3350 C   0  0  0  0  0  3  0  0  0  0  0  0
  1 11  1  0  0  0  0
  2  8  1  0  0  0  0
  3 10  1  0  0  0  0
  4 13  2  0  0  0  0
  5  9  2  0  0  0  0
  6 12  1  0  0  0  0
  7 15  1  0  0  0  0
  8  3  1  0  0  0  0
  8  1  2  0  0  0  0
  9  1  1  0  0  0  0
 10 14  2  0  0  0  0
 10 16  1  0  0  0  0
 11 16  2  0  0  0  0
 12  2  2  0  0  0  0
 12  5  1  0  0  0  0
 13 14  1  0  0  0  0
 14 19  1  0  0  0  0
 15  4  1  0  0  0  0
 15  3  2  0  0  0  0
 17 23  1  0  0  0  0
 17 18  1  0  0  0  0
 19 21  1  0  0  0  0
 19 22  2  0  0  0  0
 20 18  2  0  0  0  0
 21 17  2  0  0  0  0
 22 20  1  0  0  0  0
 24  4  1  0  0  0  0
 25 24  1  0  0  0  0
 25 26  1  0  0  0  0
 26 27  1  0  0  0  0
 27 29  1  0  0  0  0
 28 30  1  0  0  0  0
 29 33  2  0  0  0  0
 29 30  1  0  0  0  0
 30 34  2  0  0  0  0
 32 31  2  0  0  0  0
 33 32  1  0  0  0  0
 34 31  1  0  0  0  0
M  END
>  <MODEL>
3

>  <REMARK>
 VINA RESULT:      -9.7      2.215      4.572
  Name = 
  6 active torsions:
  status: ('A' for Active; 'I' for Inactive)
    1  A    between atoms: C_3  and  C_13
    2  A    between atoms: C_3  and  C_17
    3  A    between atoms: C_5  and  C_18
    4  A    between atoms: C_12  and  C_28
    5  A    between atoms: C_17  and  N_29
    6  A    between atoms: C_18  and  N_29
                            x       y       z     vdW  Elec       q    Type
                         _______ _______ _______ _____ _____    ______ ____

>  <TORSDO>
F 6

$$$$
=
 OpenBabel10252415063D

 34 38  0  0  0  0  0  0  0  0999 V2000
  187.6880  177.4120  146.4370 C   0  0  0  0  0  0  0  0  0  0  0  0
  189.8350  177.2670  145.3250 C   0  0  0  0  0  3  0  0  0  0  0  0
  187.7850  177.7680  144.0160 C   0  0  0  0  0  0  0  0  0  0  0  0
  187.7320  178.1000  141.6050 C   0  0  0  0  0  0  0  0  0  0  0  0
  189.6880  176.9210  147.7140 C   0  0  0  0  0  3  0  0  0  0  0  0
  191.9180  176.7630  146.6060 C   0  0  0  0  0  1  0  0  0  0  0  0
  189.8320  177.6220  142.6660 O   0  0  0  0  0  1  0  0  0  0  0  0
  188.4470  177.4830  145.2430 C   0  0  0  0  0  0  0  0  0  0  0  0
  188.3090  177.1310  147.6570 C   0  0  0  0  0  3  0  0  0  0  0  0
  186.3790  177.9880  144.0370 C   0  0  0  0  0  0  0  0  0  0  0  0
  186.3480  177.6090  146.4070 N   0  0  0  0  0  0  0  0  0  0  0  0
  190.4500  176.9880  146.5480 C   0  0  0  0  0  0  0  0  0  0  0  0
  186.3940  178.3010  141.6660 N   0  0  0  0  0  0  0  0  0  0  0  0
  185.6920  178.2710  142.8290 C   0  0  0  0  0  0  0  0  0  0  0  0
  188.4580  177.8300  142.7690 C   0  0  0  0  0  0  0  0  0  0  0  0
  185.6940  177.8870  145.2550 C   0  0  0  0  0  3  0  0  0  0  0  0
  182.1960  178.6240  141.4150 C   0  0  0  0  0  0  0  0  0  0  0  0
  181.4800  179.0790  142.5240 C   0  0  0  0  0  3  0  0  0  0  0  0
  184.2280  178.5270  142.7530 C   0  0  0  0  0  0  0  0  0  0  0  0
  182.1310  179.2670  143.7450 C   0  0  0  0  0  3  0  0  0  0  0  0
  183.5630  178.3570  141.5280 C   0  0  0  0  0  3  0  0  0  0  0  0
  183.4980  178.9980  143.8560 C   0  0  0  0  0  3  0  0  0  0  0  0
  181.5670  178.4480  140.2280 F   0  0  0  0  0  0  0  0  0  0  0  0
  188.4080  178.1350  140.2760 C   0  0  0  0  0  2  0  0  0  0  0  0
  187.4670  178.5730  139.2600 N   0  0  0  0  0  2  0  0  0  0  0  0
  187.8210  177.8770  138.0380 C   0  0  0  0  0  2  0  0  0  0  0  0
  186.6330  177.8770  137.0950 C   0  0  0  0  0  2  0  0  0  0  0  0
  183.7400  177.8790  137.7730 C   0  0  0  0  0  1  0  0  0  0  0  0
  185.8610  176.6060  137.2400 C   0  0  0  0  0  0  0  0  0  0  0  0
  184.4870  176.6080  137.5500 C   0  0  0  0  0  0  0  0  0  0  0  0
  184.4660  174.1850  137.4570 C   0  0  0  0  0  3  0  0  0  0  0  0
  185.8260  174.1810  137.1430 C   0  0  0  0  0  3  0  0  0  0  0  0
  186.5220  175.3890  137.0330 C   0  0  0  0  0  3  0  0  0  0  0  0
  183.7970  175.3960  137.6590 C   0  0  0  0  0  3  0  0  0  0  0  0
  1  9  2  0  0  0  0
  2 12  1  0  0  0  0
  3 10  1  0  0  0  0
  3  8  1  0  0  0  0
  4 13  2  0  0  0  0
  4 15  1  0  0  0  0
  7 15  1  0  0  0  0
  8  2  2  0  0  0  0
  8  1  1  0  0  0  0
  9  5  1  0  0  0  0
 10 16  1  0  0  0  0
 11  1  1  0  0  0  0
 12  6  1  0  0  0  0
 12  5  2  0  0  0  0
 13 14  1  0  0  0  0
 14 10  2  0  0  0  0
 15  3  2  0  0  0  0
 16 11  2  0  0  0  0
 17 21  2  0  0  0  0
 17 18  1  0  0  0  0
 18 20  2  0  0  0  0
 19 14  1  0  0  0  0
 19 22  2  0  0  0  0
 20 22  1  0  0  0  0
 21 19  1  0  0  0  0
 23 17  1  0  0  0  0
 24  4  1  0  0  0  0
 25 24  1  0  0  0  0
 26 25  1  0  0  0  0
 27 29  1  0  0  0  0
 27 26  1  0  0  0  0
 29 30  1  0  0  0  0
 30 34  2  0  0  0  0
 30 28  1  0  0  0  0
 31 34  1  0  0  0  0
 32 31  2  0  0  0  0
 33 32  1  0  0  0  0
 33 29  2  0  0  0  0
M  END
>  <MODEL>
4

>  <REMARK>
 VINA RESULT:      -9.4      3.305      8.351
  Name = 
  6 active torsions:
  status: ('A' for Active; 'I' for Inactive)
    1  A    between atoms: C_3  and  C_13
    2  A    between atoms: C_3  and  C_17
    3  A    between atoms: C_5  and  C_18
    4  A    between atoms: C_12  and  C_28
    5  A    between atoms: C_17  and  N_29
    6  A    between atoms: C_18  and  N_29
                            x       y       z     vdW  Elec       q    Type
                         _______ _______ _______ _____ _____    ______ ____

>  <TORSDO>
F 6

$$$$
=
 OpenBabel10252415063D

 34 38  0  0  0  0  0  0  0  0999 V2000
  190.5440  176.9420  144.9010 C   0  0  0  0  0  0  0  0  0  0  0  0
  188.5060  177.5710  146.0500 C   0  0  0  0  0  3  0  0  0  0  0  0
  188.6020  177.6150  143.5690 C   0  0  0  0  0  0  0  0  0  0  0  0
  186.7650  178.3040  142.1270 C   0  0  0  0  0  0  0  0  0  0  0  0
  190.4500  176.9010  147.3220 C   0  0  0  0  0  3  0  0  0  0  0  0
  188.3710  177.5410  148.5430 C   0  0  0  0  0  1  0  0  0  0  0  0
  186.4520  178.3420  144.5070 O   0  0  0  0  0  1  0  0  0  0  0  0
  189.1980  177.3820  144.8400 C   0  0  0  0  0  0  0  0  0  0  0  0
  191.1580  176.7070  146.1340 C   0  0  0  0  0  3  0  0  0  0  0  0
  189.3790  177.3810  142.4000 C   0  0  0  0  0  0  0  0  0  0  0  0
  191.2520  176.7500  143.7630 N   0  0  0  0  0  0  0  0  0  0  0  0
  189.1260  177.3330  147.2790 C   0  0  0  0  0  0  0  0  0  0  0  0
  187.5380  178.0710  141.0390 N   0  0  0  0  0  0  0  0  0  0  0  0
  188.8130  177.6080  141.1200 C   0  0  0  0  0  0  0  0  0  0  0  0
  187.2730  178.0840  143.4120 C   0  0  0  0  0  0  0  0  0  0  0  0
  190.7070  176.9590  142.5410 C   0  0  0  0  0  3  0  0  0  0  0  0
  189.8020  177.8780  137.4740 C   0  0  0  0  0  0  0  0  0  0  0  0
  190.8210  176.9270  137.3790 C   0  0  0  0  0  3  0  0  0  0  0  0
  189.5410  177.3780  139.8430 C   0  0  0  0  0  0  0  0  0  0  0  0
  191.1980  176.1950  138.5070 C   0  0  0  0  0  3  0  0  0  0  0  0
  189.1620  178.0970  138.6970 C   0  0  0  0  0  3  0  0  0  0  0  0
  190.5570  176.4160  139.7290 C   0  0  0  0  0  3  0  0  0  0  0  0
  189.4310  178.5840  136.3790 F   0  0  0  0  0  0  0  0  0  0  0  0
  185.3840  178.8320  141.9330 C   0  0  0  0  0  2  0  0  0  0  0  0
  185.2530  179.3770  140.5940 N   0  0  0  0  0  2  0  0  0  0  0  0
  183.8980  179.0960  140.1610 C   0  0  0  0  0  2  0  0  0  0  0  0
  183.2420  178.1440  141.1430 C   0  0  0  0  0  2  0  0  0  0  0  0
  182.5330  178.9550  143.9120 C   0  0  0  0  0  1  0  0  0  0  0  0
  181.8710  178.6270  141.4910 C   0  0  0  0  0  0  0  0  0  0  0  0
  181.5400  179.0220  142.8020 C   0  0  0  0  0  0  0  0  0  0  0  0
  179.2920  179.5600  142.0670 C   0  0  0  0  0  3  0  0  0  0  0  0
  179.6220  179.1760  140.7660 C   0  0  0  0  0  3  0  0  0  0  0  0
  180.9080  178.7120  140.4780 C   0  0  0  0  0  3  0  0  0  0  0  0
  180.2500  179.4840  143.0830 C   0  0  0  0  0  3  0  0  0  0  0  0
  1  9  2  0  0  0  0
  2 12  1  0  0  0  0
  3  8  1  0  0  0  0
  4 15  2  0  0  0  0
  8  1  1  0  0  0  0
  8  2  2  0  0  0  0
  9  5  1  0  0  0  0
 10 16  1  0  0  0  0
 10  3  2  0  0  0  0
 11  1  1  0  0  0  0
 12  5  2  0  0  0  0
 12  6  1  0  0  0  0
 13 14  2  0  0  0  0
 13  4  1  0  0  0  0
 14 10  1  0  0  0  0
 15  3  1  0  0  0  0
 15  7  1  0  0  0  0
 16 11  2  0  0  0  0
 17 21  1  0  0  0  0
 18 17  2  0  0  0  0
 18 20  1  0  0  0  0
 19 14  1  0  0  0  0
 20 22  2  0  0  0  0
 21 19  2  0  0  0  0
 22 19  1  0  0  0  0
 23 17  1  0  0  0  0
 24  4  1  0  0  0  0
 25 24  1  0  0  0  0
 26 25  1  0  0  0  0
 26 27  1  0  0  0  0
 27 29  1  0  0  0  0
 29 30  1  0  0  0  0
 30 34  2  0  0  0  0
 30 28  1  0  0  0  0
 31 34  1  0  0  0  0
 32 31  2  0  0  0  0
 33 32  1  0  0  0  0
 33 29  2  0  0  0  0
M  END
>  <MODEL>
5

>  <REMARK>
 VINA RESULT:      -9.4      2.188      7.845
  Name = 
  6 active torsions:
  status: ('A' for Active; 'I' for Inactive)
    1  A    between atoms: C_3  and  C_13
    2  A    between atoms: C_3  and  C_17
    3  A    between atoms: C_5  and  C_18
    4  A    between atoms: C_12  and  C_28
    5  A    between atoms: C_17  and  N_29
    6  A    between atoms: C_18  and  N_29
                            x       y       z     vdW  Elec       q    Type
                         _______ _______ _______ _____ _____    ______ ____

>  <TORSDO>
F 6

$$$$
=
 OpenBabel10252415063D

 34 38  0  0  0  0  0  0  0  0999 V2000
  187.4420  177.4950  146.3880 C   0  0  0  0  0  0  0  0  0  0  0  0
  189.6100  177.3830  145.3130 C   0  0  0  0  0  3  0  0  0  0  0  0
  187.5750  177.8510  143.9680 C   0  0  0  0  0  0  0  0  0  0  0  0
  187.5570  178.1800  141.5560 C   0  0  0  0  0  0  0  0  0  0  0  0
  189.4280  177.0370  147.6990 C   0  0  0  0  0  3  0  0  0  0  0  0
  191.6780  176.9130  146.6290 C   0  0  0  0  0  1  0  0  0  0  0  0
  189.6460  177.7350  142.6540 O   0  0  0  0  0  1  0  0  0  0  0  0
  188.2210  177.5780  145.2070 C   0  0  0  0  0  0  0  0  0  0  0  0
  188.0470  177.2260  147.6190 C   0  0  0  0  0  3  0  0  0  0  0  0
  186.1650  178.0490  143.9650 C   0  0  0  0  0  0  0  0  0  0  0  0
  186.1000  177.6720  146.3350 N   0  0  0  0  0  0  0  0  0  0  0  0
  190.2080  177.1150  146.5460 C   0  0  0  0  0  0  0  0  0  0  0  0
  186.2160  178.3600  141.5940 N   0  0  0  0  0  0  0  0  0  0  0  0
  185.4940  178.3190  142.7460 C   0  0  0  0  0  0  0  0  0  0  0  0
  188.2680  177.9230  142.7330 C   0  0  0  0  0  0  0  0  0  0  0  0
  185.4620  177.9390  145.1720 C   0  0  0  0  0  3  0  0  0  0  0  0
  182.0200  178.6280  141.2700 C   0  0  0  0  0  0  0  0  0  0  0  0
  181.2760  179.0630  142.3690 C   0  0  0  0  0  3  0  0  0  0  0  0
  184.0280  178.5530  142.6440 C   0  0  0  0  0  0  0  0  0  0  0  0
  181.9020  179.2520  143.6030 C   0  0  0  0  0  3  0  0  0  0  0  0
  183.3890  178.3810  141.4060 C   0  0  0  0  0  3  0  0  0  0  0  0
  183.2710  179.0040  143.7380 C   0  0  0  0  0  3  0  0  0  0  0  0
  181.4150  178.4490  140.0710 F   0  0  0  0  0  0  0  0  0  0  0  0
  188.2550  178.2240  140.2390 C   0  0  0  0  0  2  0  0  0  0  0  0
  187.2750  178.2800  139.1690 N   0  0  0  0  0  2  0  0  0  0  0  0
  187.9840  177.9790  137.9400 C   0  0  0  0  0  2  0  0  0  0  0  0
  189.4540  177.7680  138.2440 C   0  0  0  0  0  2  0  0  0  0  0  0
  192.2120  176.7680  138.7200 C   0  0  0  0  0  1  0  0  0  0  0  0
  189.8860  176.4120  137.7870 C   0  0  0  0  0  0  0  0  0  0  0  0
  191.1900  175.9350  138.0230 C   0  0  0  0  0  0  0  0  0  0  0  0
  190.6160  173.8430  136.9380 C   0  0  0  0  0  3  0  0  0  0  0  0
  189.3220  174.3130  136.7090 C   0  0  0  0  0  3  0  0  0  0  0  0
  188.9570  175.5940  137.1340 C   0  0  0  0  0  3  0  0  0  0  0  0
  191.5480  174.6530  137.5950 C   0  0  0  0  0  3  0  0  0  0  0  0
  1  9  2  0  0  0  0
  2 12  1  0  0  0  0
  3  8  1  0  0  0  0
  4 13  2  0  0  0  0
  4 15  1  0  0  0  0
  7 15  1  0  0  0  0
  8  2  2  0  0  0  0
  8  1  1  0  0  0  0
  9  5  1  0  0  0  0
 10  3  1  0  0  0  0
 10 16  1  0  0  0  0
 11  1  1  0  0  0  0
 12  6  1  0  0  0  0
 12  5  2  0  0  0  0
 13 14  1  0  0  0  0
 14 10  2  0  0  0  0
 15  3  2  0  0  0  0
 16 11  2  0  0  0  0
 17 21  2  0  0  0  0
 17 18  1  0  0  0  0
 18 20  2  0  0  0  0
 19 14  1  0  0  0  0
 19 22  2  0  0  0  0
 20 22  1  0  0  0  0
 21 19  1  0  0  0  0
 23 17  1  0  0  0  0
 24  4  1  0  0  0  0
 25 24  1  0  0  0  0
 26 27  1  0  0  0  0
 26 25  1  0  0  0  0
 29 30  1  0  0  0  0
 29 27  1  0  0  0  0
 30 28  1  0  0  0  0
 31 34  1  0  0  0  0
 32 31  2  0  0  0  0
 32 33  1  0  0  0  0
 33 29  2  0  0  0  0
 34 30  2  0  0  0  0
M  END
>  <MODEL>
6

>  <REMARK>
 VINA RESULT:      -9.3      3.069      7.734
  Name = 
  6 active torsions:
  status: ('A' for Active; 'I' for Inactive)
    1  A    between atoms: C_3  and  C_13
    2  A    between atoms: C_3  and  C_17
    3  A    between atoms: C_5  and  C_18
    4  A    between atoms: C_12  and  C_28
    5  A    between atoms: C_17  and  N_29
    6  A    between atoms: C_18  and  N_29
                            x       y       z     vdW  Elec       q    Type
                         _______ _______ _______ _____ _____    ______ ____

>  <TORSDO>
F 6

$$$$
=
 OpenBabel10252415063D

 34 38  0  0  0  0  0  0  0  0999 V2000
  186.5800  178.1950  137.2560 C   0  0  0  0  0  0  0  0  0  0  0  0
  188.9190  177.5800  137.1200 C   0  0  0  0  0  3  0  0  0  0  0  0
  187.8490  177.9340  139.3330 C   0  0  0  0  0  0  0  0  0  0  0  0
  189.0020  177.7510  141.4700 C   0  0  0  0  0  0  0  0  0  0  0  0
  187.6240  177.8510  135.0960 C   0  0  0  0  0  3  0  0  0  0  0  0
  190.0290  177.2170  134.9140 C   0  0  0  0  0  1  0  0  0  0  0  0
  190.2370  177.3680  139.4460 O   0  0  0  0  0  1  0  0  0  0  0  0
  187.8000  177.8980  137.9110 C   0  0  0  0  0  0  0  0  0  0  0  0
  186.5000  178.1710  135.8600 C   0  0  0  0  0  3  0  0  0  0  0  0
  186.6600  178.2520  140.0480 C   0  0  0  0  0  0  0  0  0  0  0  0
  185.4770  178.5110  137.9750 N   0  0  0  0  0  0  0  0  0  0  0  0
  188.8320  177.5560  135.7260 C   0  0  0  0  0  0  0  0  0  0  0  0
  187.8510  178.0590  142.1130 N   0  0  0  0  0  0  0  0  0  0  0  0
  186.6800  178.2980  141.4650 C   0  0  0  0  0  0  0  0  0  0  0  0
  189.0330  177.6800  140.0740 C   0  0  0  0  0  0  0  0  0  0  0  0
  185.4950  178.5460  139.3290 C   0  0  0  0  0  3  0  0  0  0  0  0
  184.5480  179.1230  144.4840 C   0  0  0  0  0  0  0  0  0  0  0  0
  183.2610  179.1130  143.9410 C   0  0  0  0  0  3  0  0  0  0  0  0
  185.4870  178.6070  142.2980 C   0  0  0  0  0  0  0  0  0  0  0  0
  183.0800  178.8440  142.5830 C   0  0  0  0  0  3  0  0  0  0  0  0
  185.6530  178.8650  143.6680 C   0  0  0  0  0  3  0  0  0  0  0  0
  184.1860  178.5870  141.7680 C   0  0  0  0  0  3  0  0  0  0  0  0
  184.7240  179.3780  145.8030 F   0  0  0  0  0  0  0  0  0  0  0  0
  190.2390  177.5260  142.2720 C   0  0  0  0  0  2  0  0  0  0  0  0
  190.4220  178.6210  143.2070 N   0  0  0  0  0  2  0  0  0  0  0  0
  191.1630  178.0870  144.3330 C   0  0  0  0  0  2  0  0  0  0  0  0
  190.4800  176.8310  144.8370 C   0  0  0  0  0  2  0  0  0  0  0  0
  191.3810  176.7530  147.6680 C   0  0  0  0  0  1  0  0  0  0  0  0
  189.5560  177.1630  145.9630 C   0  0  0  0  0  0  0  0  0  0  0  0
  189.9870  177.1370  147.3040 C   0  0  0  0  0  0  0  0  0  0  0  0
  187.7780  177.8350  148.0230 C   0  0  0  0  0  3  0  0  0  0  0  0
  187.3520  177.8670  146.6940 C   0  0  0  0  0  3  0  0  0  0  0  0
  188.2380  177.5340  145.6670 C   0  0  0  0  0  3  0  0  0  0  0  0
  189.0940  177.4710  148.3270 C   0  0  0  0  0  3  0  0  0  0  0  0
  1  8  2  0  0  0  0
  1 11  1  0  0  0  0
  2  8  1  0  0  0  0
  3 10  2  0  0  0  0
  3 15  1  0  0  0  0
  4 13  1  0  0  0  0
  4 24  1  0  0  0  0
  5 12  1  0  0  0  0
  5  9  2  0  0  0  0
  6 12  1  0  0  0  0
  7 15  1  0  0  0  0
  8  3  1  0  0  0  0
  9  1  1  0  0  0  0
 10 14  1  0  0  0  0
 11 16  2  0  0  0  0
 12  2  2  0  0  0  0
 14 13  2  0  0  0  0
 14 19  1  0  0  0  0
 15  4  2  0  0  0  0
 16 10  1  0  0  0  0
 17 23  1  0  0  0  0
 18 17  1  0  0  0  0
 19 21  1  0  0  0  0
 20 18  2  0  0  0  0
 21 17  2  0  0  0  0
 22 19  2  0  0  0  0
 22 20  1  0  0  0  0
 24 25  1  0  0  0  0
 25 26  1  0  0  0  0
 26 27  1  0  0  0  0
 27 29  1  0  0  0  0
 29 30  1  0  0  0  0
 30 28  1  0  0  0  0
 30 34  2  0  0  0  0
 31 34  1  0  0  0  0
 32 31  2  0  0  0  0
 33 29  2  0  0  0  0
 33 32  1  0  0  0  0
M  END
>  <MODEL>
7

>  <REMARK>
 VINA RESULT:      -9.2      3.229      6.264
  Name = 
  6 active torsions:
  status: ('A' for Active; 'I' for Inactive)
    1  A    between atoms: C_3  and  C_13
    2  A    between atoms: C_3  and  C_17
    3  A    between atoms: C_5  and  C_18
    4  A    between atoms: C_12  and  C_28
    5  A    between atoms: C_17  and  N_29
    6  A    between atoms: C_18  and  N_29
                            x       y       z     vdW  Elec       q    Type
                         _______ _______ _______ _____ _____    ______ ____

>  <TORSDO>
F 6

$$$$
=
 OpenBabel10252415063D

 34 38  0  0  0  0  0  0  0  0999 V2000
  186.3190  177.9550  144.8700 C   0  0  0  0  0  0  0  0  0  0  0  0
  188.6960  177.6530  144.5180 C   0  0  0  0  0  3  0  0  0  0  0  0
  187.1990  178.1140  142.5910 C   0  0  0  0  0  0  0  0  0  0  0  0
  187.9320  178.2540  140.2730 C   0  0  0  0  0  0  0  0  0  0  0  0
  187.7800  177.5030  146.7500 C   0  0  0  0  0  3  0  0  0  0  0  0
  190.2330  177.1860  146.4290 C   0  0  0  0  0  1  0  0  0  0  0  0
  189.5570  177.7940  141.9810 O   0  0  0  0  0  1  0  0  0  0  0  0
  187.4210  177.9070  143.9810 C   0  0  0  0  0  0  0  0  0  0  0  0
  186.5040  177.7530  146.2410 C   0  0  0  0  0  3  0  0  0  0  0  0
  185.8730  178.3790  142.1450 C   0  0  0  0  0  0  0  0  0  0  0  0
  185.0710  178.1920  144.4000 N   0  0  0  0  0  0  0  0  0  0  0  0
  188.8750  177.4530  145.8880 C   0  0  0  0  0  0  0  0  0  0  0  0
  186.6570  178.5020  139.8890 N   0  0  0  0  0  0  0  0  0  0  0  0
  185.6210  178.5870  140.7660 C   0  0  0  0  0  0  0  0  0  0  0  0
  188.2350  178.0550  141.6240 C   0  0  0  0  0  0  0  0  0  0  0  0
  184.8330  178.3990  143.0840 C   0  0  0  0  0  3  0  0  0  0  0  0
  181.9100  178.3220  140.0590 C   0  0  0  0  0  0  0  0  0  0  0  0
  181.7200  179.3400  139.1220 C   0  0  0  0  0  3  0  0  0  0  0  0
  184.2750  178.8830  140.2080 C   0  0  0  0  0  0  0  0  0  0  0  0
  182.8020  180.1270  138.7190 C   0  0  0  0  0  3  0  0  0  0  0  0
  183.1810  178.0910  140.5930 C   0  0  0  0  0  3  0  0  0  0  0  0
  184.0720  179.8950  139.2550 C   0  0  0  0  0  3  0  0  0  0  0  0
  180.8630  177.5540  140.4460 F   0  0  0  0  0  0  0  0  0  0  0  0
  188.9950  178.1610  139.2320 C   0  0  0  0  0  2  0  0  0  0  0  0
  189.0450  176.8090  138.7040 N   0  0  0  0  0  2  0  0  0  0  0  0
  188.4660  176.8590  137.3750 C   0  0  0  0  0  2  0  0  0  0  0  0
  187.8070  175.5300  137.0620 C   0  0  0  0  0  2  0  0  0  0  0  0
  186.0060  173.1880  137.3800 C   0  0  0  0  0  1  0  0  0  0  0  0
  186.3200  175.6790  137.0590 C   0  0  0  0  0  0  0  0  0  0  0  0
  185.4680  174.5700  137.2210 C   0  0  0  0  0  0  0  0  0  0  0  0
  183.5410  176.0360  137.0820 C   0  0  0  0  0  3  0  0  0  0  0  0
  184.3850  177.1370  136.9280 C   0  0  0  0  0  3  0  0  0  0  0  0
  185.7710  176.9590  136.9180 C   0  0  0  0  0  3  0  0  0  0  0  0
  184.0810  174.7550  137.2290 C   0  0  0  0  0  3  0  0  0  0  0  0
  1  9  2  0  0  0  0
  2 12  1  0  0  0  0
  3  8  1  0  0  0  0
  4 15  1  0  0  0  0
  8  2  2  0  0  0  0
  8  1  1  0  0  0  0
  9  5  1  0  0  0  0
 10  3  1  0  0  0  0
 10 16  1  0  0  0  0
 11  1  1  0  0  0  0
 12  6  1  0  0  0  0
 12  5  2  0  0  0  0
 13  4  2  0  0  0  0
 13 14  1  0  0  0  0
 14 10  2  0  0  0  0
 15  7  1  0  0  0  0
 15  3  2  0  0  0  0
 16 11  2  0  0  0  0
 17 23  1  0  0  0  0
 17 21  1  0  0  0  0
 18 17  2  0  0  0  0
 19 21  2  0  0  0  0
 19 14  1  0  0  0  0
 20 18  1  0  0  0  0
 20 22  2  0  0  0  0
 22 19  1  0  0  0  0
 24  4  1  0  0  0  0
 25 24  1  0  0  0  0
 26 25  1  0  0  0  0
 27 26  1  0  0  0  0
 29 27  1  0  0  0  0
 29 30  1  0  0  0  0
 30 34  2  0  0  0  0
 30 28  1  0  0  0  0
 31 34  1  0  0  0  0
 32 31  2  0  0  0  0
 33 32  1  0  0  0  0
 33 29  2  0  0  0  0
M  END
>  <MODEL>
8

>  <REMARK>
 VINA RESULT:      -9.2      3.704      7.991
  Name = 
  6 active torsions:
  status: ('A' for Active; 'I' for Inactive)
    1  A    between atoms: C_3  and  C_13
    2  A    between atoms: C_3  and  C_17
    3  A    between atoms: C_5  and  C_18
    4  A    between atoms: C_12  and  C_28
    5  A    between atoms: C_17  and  N_29
    6  A    between atoms: C_18  and  N_29
                            x       y       z     vdW  Elec       q    Type
                         _______ _______ _______ _____ _____    ______ ____

>  <TORSDO>
F 6

$$$$
=
 OpenBabel10252415063D

 34 38  0  0  0  0  0  0  0  0999 V2000
  190.3930  177.0160  144.9220 C   0  0  0  0  0  0  0  0  0  0  0  0
  188.3660  177.6030  146.1110 C   0  0  0  0  0  3  0  0  0  0  0  0
  188.4240  177.6860  143.6300 C   0  0  0  0  0  0  0  0  0  0  0  0
  186.5570  178.3750  142.2260 C   0  0  0  0  0  0  0  0  0  0  0  0
  190.3360  176.9370  147.3430 C   0  0  0  0  0  3  0  0  0  0  0  0
  188.2680  177.5330  148.6050 C   0  0  0  0  0  1  0  0  0  0  0  0
  186.2790  178.3730  144.6110 O   0  0  0  0  0  1  0  0  0  0  0  0
  189.0420  177.4410  144.8880 C   0  0  0  0  0  0  0  0  0  0  0  0
  191.0280  176.7700  146.1430 C   0  0  0  0  0  3  0  0  0  0  0  0
  189.1860  177.4800  142.4460 C   0  0  0  0  0  0  0  0  0  0  0  0
  191.0860  176.8500  143.7710 N   0  0  0  0  0  0  0  0  0  0  0  0
  189.0060  177.3530  147.3270 C   0  0  0  0  0  0  0  0  0  0  0  0
  187.3160  178.1680  141.1230 N   0  0  0  0  0  0  0  0  0  0  0  0
  188.5980  177.7190  141.1780 C   0  0  0  0  0  0  0  0  0  0  0  0
  187.0870  178.1420  143.4990 C   0  0  0  0  0  0  0  0  0  0  0  0
  190.5210  177.0710  142.5610 C   0  0  0  0  0  3  0  0  0  0  0  0
  189.6770  178.2080  137.5810 C   0  0  0  0  0  0  0  0  0  0  0  0
  190.5570  177.1390  137.3950 C   0  0  0  0  0  3  0  0  0  0  0  0
  189.3090  177.5180  139.8870 C   0  0  0  0  0  0  0  0  0  0  0  0
  190.8100  176.2540  138.4450 C   0  0  0  0  0  3  0  0  0  0  0  0
  189.0530  178.3920  138.8170 C   0  0  0  0  0  3  0  0  0  0  0  0
  190.1850  176.4400  139.6810 C   0  0  0  0  0  3  0  0  0  0  0  0
  189.4260  179.0640  136.5610 F   0  0  0  0  0  0  0  0  0  0  0  0
  185.1670  178.8890  142.0610 C   0  0  0  0  0  2  0  0  0  0  0  0
  184.9840  179.3760  140.7050 N   0  0  0  0  0  2  0  0  0  0  0  0
  183.7420  178.8050  140.2220 C   0  0  0  0  0  2  0  0  0  0  0  0
  183.6750  178.9450  138.7140 C   0  0  0  0  0  2  0  0  0  0  0  0
  182.2160  176.4020  138.2260 C   0  0  0  0  0  1  0  0  0  0  0  0
  184.3360  177.7760  138.0580 C   0  0  0  0  0  0  0  0  0  0  0  0
  183.6400  176.5750  137.8170 C   0  0  0  0  0  0  0  0  0  0  0  0
  185.6260  175.6360  136.7880 C   0  0  0  0  0  3  0  0  0  0  0  0
  186.3140  176.8280  137.0200 C   0  0  0  0  0  3  0  0  0  0  0  0
  185.6700  177.8960  137.6520 C   0  0  0  0  0  3  0  0  0  0  0  0
  184.2910  175.5100  137.1850 C   0  0  0  0  0  3  0  0  0  0  0  0
  1  9  2  0  0  0  0
  2 12  1  0  0  0  0
  3  8  1  0  0  0  0
  4 15  2  0  0  0  0
  8  1  1  0  0  0  0
  8  2  2  0  0  0  0
  9  5  1  0  0  0  0
 10 16  1  0  0  0  0
 10  3  2  0  0  0  0
 11  1  1  0  0  0  0
 12  5  2  0  0  0  0
 12  6  1  0  0  0  0
 13 14  2  0  0  0  0
 13  4  1  0  0  0  0
 14 10  1  0  0  0  0
 15  3  1  0  0  0  0
 15  7  1  0  0  0  0
 16 11  2  0  0  0  0
 17 21  1  0  0  0  0
 18 17  2  0  0  0  0
 18 20  1  0  0  0  0
 19 14  1  0  0  0  0
 20 22  2  0  0  0  0
 21 19  2  0  0  0  0
 22 19  1  0  0  0  0
 23 17  1  0  0  0  0
 24  4  1  0  0  0  0
 25 24  1  0  0  0  0
 26 25  1  0  0  0  0
 27 26  1  0  0  0  0
 29 27  1  0  0  0  0
 30 29  1  0  0  0  0
 30 28  1  0  0  0  0
 31 32  2  0  0  0  0
 31 34  1  0  0  0  0
 32 33  1  0  0  0  0
 33 29  2  0  0  0  0
 34 30  2  0  0  0  0
M  END
>  <MODEL>
9

>  <REMARK>
 VINA RESULT:      -9.2      2.878      7.739
  Name = 
  6 active torsions:
  status: ('A' for Active; 'I' for Inactive)
    1  A    between atoms: C_3  and  C_13
    2  A    between atoms: C_3  and  C_17
    3  A    between atoms: C_5  and  C_18
    4  A    between atoms: C_12  and  C_28
    5  A    between atoms: C_17  and  N_29
    6  A    between atoms: C_18  and  N_29
                            x       y       z     vdW  Elec       q    Type
                         _______ _______ _______ _____ _____    ______ ____

>  <TORSDO>
F 6

$$$$
