=
 OpenBabel10262419593D

 27 31  0  0  1  0  0  0  0  0999 V2000
  187.3540  177.8690  142.6500 N   0  0  0  0  0  2  0  0  0  0  0  0
  188.9990  177.6560  140.8610 C   0  0  0  0  0  0  0  0  0  0  0  0
  187.0080  178.6770  139.8520 N   0  0  0  0  0  2  0  0  0  0  0  0
  189.2920  175.3690  137.7690 N   0  0  0  0  0  0  0  0  0  0  0  0
  187.4480  174.9960  136.1240 N   0  0  0  0  0  1  0  0  0  0  0  0
  190.1800  176.8260  140.7360 N   0  0  0  0  0  0  0  0  0  0  0  0
  187.7400  177.0090  137.4580 C   0  0  0  0  0  0  0  0  0  0  0  0
  183.7660  179.2330  141.2520 C   0  0  0  0  0  3  0  0  0  0  0  0
  186.5880  177.7620  136.8830 C   0  0  0  0  0  1  0  0  0  0  0  0
  183.8440  178.5110  142.4410 C   0  0  0  0  0  0  0  0  0  0  0  0
  188.7520  177.5550  138.4100 C   0  0  2  0  0  3  0  0  0  0  0  0
  188.6660  178.2800  142.1760 C   0  0  2  0  0  3  0  0  0  0  0  0
  188.1360  175.8060  137.0730 C   0  0  0  0  0  0  0  0  0  0  0  0
  189.6390  176.3620  138.5190 C   0  0  0  0  0  0  0  0  0  0  0  0
  186.2220  178.1530  142.0790 C   0  0  0  0  0  0  0  0  0  0  0  0
  188.2290  177.9180  139.7810 C   0  0  0  0  0  0  0  0  0  0  0  0
  184.8910  179.3490  140.4350 C   0  0  0  0  0  3  0  0  0  0  0  0
  190.4690  176.1980  139.6620 N   0  0  0  0  0  0  0  0  0  0  0  0
  182.6390  178.3510  143.2950 C   0  0  0  0  0  1  0  0  0  0  0  0
  185.0690  177.9900  142.8570 C   0  0  0  0  0  3  0  0  0  0  0  0
  186.1130  178.7690  140.7970 C   0  0  0  0  0  0  0  0  0  0  0  0
  191.5980  177.6180  145.2530 C   0  0  0  0  0  3  0  0  0  0  0  0
  189.7040  178.0520  143.2340 C   0  0  0  0  0  0  0  0  0  0  0  0
  190.8370  178.8740  143.3270 C   0  0  0  0  0  3  0  0  0  0  0  0
  191.7830  178.6550  144.3350 C   0  0  0  0  0  3  0  0  0  0  0  0
  190.4660  176.8000  145.1660 C   0  0  0  0  0  3  0  0  0  0  0  0
  189.5210  177.0190  144.1600 C   0  0  0  0  0  3  0  0  0  0  0  0
  2 12  1  0  0  0  0
  3 21  1  0  0  0  0
  4 14  2  0  0  0  0
  5 13  1  0  0  0  0
  6  2  1  0  0  0  0
  8 10  1  0  0  0  0
  9  7  1  0  0  0  0
 10 20  2  0  0  0  0
 10 19  1  0  0  0  0
 11  7  1  6  0  0  0
 11 14  1  0  0  0  0
 11 16  1  0  0  0  0
 12  1  1  0  0  0  0
 12 23  1  1  0  0  0
 13  7  2  0  0  0  0
 13  4  1  0  0  0  0
 14 18  1  0  0  0  0
 15  1  1  0  0  0  0
 15 20  1  0  0  0  0
 16  3  1  0  0  0  0
 16  2  2  0  0  0  0
 17 21  1  0  0  0  0
 17  8  2  0  0  0  0
 18  6  2  0  0  0  0
 21 15  2  0  0  0  0
 23 24  2  0  0  0  0
 23 27  1  0  0  0  0
 24 25  1  0  0  0  0
 25 22  2  0  0  0  0
 26 22  1  0  0  0  0
 27 26  2  0  0  0  0
M  END
>  <MODEL>
1

>  <REMARK>
 VINA RESULT:      -8.6      0.000      0.000
  Name = 
  1 active torsions:
  status: ('A' for Active; 'I' for Inactive)
    1  A    between atoms: C_9  and  C_15
                            x       y       z     vdW  Elec       q    Type
                         _______ _______ _______ _____ _____    ______ ____

>  <TORSDO>
F 1

$$$$
=
 OpenBabel10262419593D

 27 31  0  0  1  0  0  0  0  0999 V2000
  184.8040  177.9340  142.3140 N   0  0  0  0  0  2  0  0  0  0  0  0
  187.2170  178.1740  142.0490 C   0  0  0  0  0  0  0  0  0  0  0  0
  186.2060  179.0150  139.9760 N   0  0  0  0  0  2  0  0  0  0  0  0
  189.8590  176.3400  139.9180 N   0  0  0  0  0  0  0  0  0  0  0  0
  189.6270  175.9100  137.4670 N   0  0  0  0  0  1  0  0  0  0  0  0
  188.3260  177.5410  142.7340 N   0  0  0  0  0  0  0  0  0  0  0  0
  188.6060  177.7690  138.6590 C   0  0  0  0  0  0  0  0  0  0  0  0
  182.7990  178.9330  138.8980 C   0  0  0  0  0  3  0  0  0  0  0  0
  187.9850  178.4150  137.4660 C   0  0  0  0  0  1  0  0  0  0  0  0
  182.2230  178.0910  139.8470 C   0  0  0  0  0  0  0  0  0  0  0  0
  188.6380  178.3340  140.0410 C   0  0  2  0  0  3  0  0  0  0  0  0
  186.0040  178.5810  142.8190 C   0  0  2  0  0  3  0  0  0  0  0  0
  189.3720  176.6890  138.6320 C   0  0  0  0  0  0  0  0  0  0  0  0
  189.4450  177.2750  140.7090 C   0  0  0  0  0  0  0  0  0  0  0  0
  184.2820  178.1210  141.1390 C   0  0  0  0  0  0  0  0  0  0  0  0
  187.2970  178.4520  140.7280 C   0  0  0  0  0  0  0  0  0  0  0  0
  184.1380  179.3050  139.0220 C   0  0  0  0  0  3  0  0  0  0  0  0
  189.3510  177.0950  142.1160 N   0  0  0  0  0  0  0  0  0  0  0  0
  180.8080  177.6600  139.6980 C   0  0  0  0  0  1  0  0  0  0  0  0
  182.9570  177.7030  140.9660 C   0  0  0  0  0  3  0  0  0  0  0  0
  184.9150  178.8650  140.1000 C   0  0  0  0  0  0  0  0  0  0  0  0
  186.3470  178.0530  147.0740 C   0  0  0  0  0  3  0  0  0  0  0  0
  186.1300  178.3770  144.2990 C   0  0  0  0  0  0  0  0  0  0  0  0
  187.2420  177.7190  144.8480 C   0  0  0  0  0  3  0  0  0  0  0  0
  187.3470  177.5570  146.2340 C   0  0  0  0  0  3  0  0  0  0  0  0
  185.2410  178.7140  146.5300 C   0  0  0  0  0  3  0  0  0  0  0  0
  185.1340  178.8770  145.1450 C   0  0  0  0  0  3  0  0  0  0  0  0
  1 12  1  0  0  0  0
  2  6  1  0  0  0  0
  2 12  1  0  0  0  0
  3 21  1  0  0  0  0
  3 16  1  0  0  0  0
  4 14  2  0  0  0  0
  5 13  1  0  0  0  0
  8 17  2  0  0  0  0
  8 10  1  0  0  0  0
  9  7  1  0  0  0  0
 10 20  2  0  0  0  0
 11  7  1  6  0  0  0
 11 14  1  0  0  0  0
 11 16  1  0  0  0  0
 12 23  1  1  0  0  0
 13  7  2  0  0  0  0
 13  4  1  0  0  0  0
 14 18  1  0  0  0  0
 15  1  1  0  0  0  0
 16  2  2  0  0  0  0
 17 21  1  0  0  0  0
 18  6  2  0  0  0  0
 19 10  1  0  0  0  0
 20 15  1  0  0  0  0
 21 15  2  0  0  0  0
 23 24  2  0  0  0  0
 23 27  1  0  0  0  0
 24 25  1  0  0  0  0
 25 22  2  0  0  0  0
 26 22  1  0  0  0  0
 27 26  2  0  0  0  0
M  END
>  <MODEL>
2

>  <REMARK>
 VINA RESULT:      -8.3      2.043      3.122
  Name = 
  1 active torsions:
  status: ('A' for Active; 'I' for Inactive)
    1  A    between atoms: C_9  and  C_15
                            x       y       z     vdW  Elec       q    Type
                         _______ _______ _______ _____ _____    ______ ____

>  <TORSDO>
F 1

$$$$
=
 OpenBabel10262419593D

 27 31  0  0  1  0  0  0  0  0999 V2000
  187.0720  177.8410  141.7450 N   0  0  0  0  0  2  0  0  0  0  0  0
  185.7790  178.3130  139.7300 C   0  0  0  0  0  0  0  0  0  0  0  0
  184.5650  179.3560  141.5910 N   0  0  0  0  0  2  0  0  0  0  0  0
  182.4100  177.0240  138.3630 N   0  0  0  0  0  0  0  0  0  0  0  0
  180.3010  176.9310  139.7000 N   0  0  0  0  0  1  0  0  0  0  0  0
  185.7690  177.6810  138.4260 N   0  0  0  0  0  0  0  0  0  0  0  0
  182.1140  178.5110  140.0660 C   0  0  0  0  0  0  0  0  0  0  0  0
  185.1610  179.1500  145.1100 C   0  0  0  0  0  3  0  0  0  0  0  0
  181.4600  179.2670  141.1720 C   0  0  0  0  0  1  0  0  0  0  0  0
  186.1150  178.1370  145.1760 C   0  0  0  0  0  0  0  0  0  0  0  0
  183.4020  178.8740  139.4020 C   0  0  2  0  0  3  0  0  0  0  0  0
  187.0730  178.5050  140.4520 C   0  0  2  0  0  3  0  0  0  0  0  0
  181.5640  177.5120  139.3920 C   0  0  0  0  0  0  0  0  0  0  0  0
  183.4440  177.8000  138.3690 C   0  0  0  0  0  0  0  0  0  0  0  0
  186.3120  178.1500  142.7530 C   0  0  0  0  0  0  0  0  0  0  0  0
  184.6340  178.7820  140.2730 C   0  0  1  0  0  3  0  0  0  0  0  0
  184.7200  179.6080  143.8680 C   0  0  0  0  0  3  0  0  0  0  0  0
  184.6880  177.4130  137.8000 N   0  0  0  0  0  2  0  0  0  0  0  0
  186.5580  177.6170  146.4960 C   0  0  0  0  0  1  0  0  0  0  0  0
  186.6960  177.6540  144.0040 C   0  0  0  0  0  3  0  0  0  0  0  0
  185.2370  179.0840  142.6770 C   0  0  0  0  0  0  0  0  0  0  0  0
  190.5610  177.3590  138.2120 C   0  0  0  0  0  3  0  0  0  0  0  0
  188.2770  178.1030  139.6530 C   0  0  0  0  0  0  0  0  0  0  0  0
  188.4770  178.5840  138.3500 C   0  0  0  0  0  3  0  0  0  0  0  0
  189.6170  178.2100  137.6310 C   0  0  0  0  0  3  0  0  0  0  0  0
  190.3670  176.8830  139.5120 C   0  0  0  0  0  3  0  0  0  0  0  0
  189.2290  177.2560  140.2320 C   0  0  0  0  0  3  0  0  0  0  0  0
  1 15  1  0  0  0  0
  2 12  1  0  0  0  0
  3 21  1  0  0  0  0
  4 14  2  0  0  0  0
  4 13  1  0  0  0  0
  6  2  2  0  0  0  0
  7  9  1  0  0  0  0
  8 10  1  0  0  0  0
 10 19  1  0  0  0  0
 11 14  1  6  0  0  0
 11  7  1  0  0  0  0
 11 16  1  0  0  0  0
 12 23  1  6  0  0  0
 12  1  1  0  0  0  0
 13  5  1  0  0  0  0
 13  7  2  0  0  0  0
 15 20  1  0  0  0  0
 16  2  1  6  0  0  0
 16  3  1  0  0  0  0
 17  8  2  0  0  0  0
 18 14  1  0  0  0  0
 18  6  1  0  0  0  0
 20 10  2  0  0  0  0
 21 15  2  0  0  0  0
 21 17  1  0  0  0  0
 22 26  1  0  0  0  0
 23 27  1  0  0  0  0
 24 23  2  0  0  0  0
 25 22  2  0  0  0  0
 25 24  1  0  0  0  0
 26 27  2  0  0  0  0
M  END
>  <MODEL>
3

>  <REMARK>
 VINA RESULT:      -7.3      2.790      5.109
  Name = 
  1 active torsions:
  status: ('A' for Active; 'I' for Inactive)
    1  A    between atoms: C_9  and  C_15
                            x       y       z     vdW  Elec       q    Type
                         _______ _______ _______ _____ _____    ______ ____

>  <TORSDO>
F 1

$$$$
=
 OpenBabel10262419593D

 27 31  0  0  1  0  0  0  0  0999 V2000
  189.2290  176.9660  140.6460 N   0  0  0  0  0  2  0  0  0  0  0  0
  187.2890  178.3910  140.2480 C   0  0  0  0  0  0  0  0  0  0  0  0
  188.0500  178.8800  142.5300 N   0  0  0  0  0  2  0  0  0  0  0  0
  183.6590  178.3740  141.5510 N   0  0  0  0  0  0  0  0  0  0  0  0
  183.0390  178.1970  143.9660 N   0  0  0  0  0  1  0  0  0  0  0  0
  186.2170  178.3030  139.2770 N   0  0  0  0  0  0  0  0  0  0  0  0
  185.1140  179.1490  143.1250 C   0  0  0  0  0  0  0  0  0  0  0  0
  190.5680  177.2730  144.4930 C   0  0  0  0  0  3  0  0  0  0  0  0
  185.6660  179.5510  144.4510 C   0  0  0  0  0  1  0  0  0  0  0  0
  190.8480  176.1450  143.7250 C   0  0  0  0  0  0  0  0  0  0  0  0
  185.7090  179.4780  141.7960 C   0  0  2  0  0  3  0  0  0  0  0  0
  188.6860  178.0500  139.8430 C   0  0  2  0  0  3  0  0  0  0  0  0
  183.9270  178.5980  142.9260 C   0  0  0  0  0  0  0  0  0  0  0  0
  184.6660  178.8780  140.9170 C   0  0  0  0  0  0  0  0  0  0  0  0
  189.4710  177.0190  141.9220 C   0  0  0  0  0  0  0  0  0  0  0  0
  187.0440  178.8350  141.5000 C   0  0  1  0  0  3  0  0  0  0  0  0
  189.6780  178.2350  144.0150 C   0  0  0  0  0  3  0  0  0  0  0  0
  184.9930  178.4990  139.5860 N   0  0  0  0  0  2  0  0  0  0  0  0
  191.7640  175.0980  144.2470 C   0  0  0  0  0  1  0  0  0  0  0  0
  190.3150  176.0300  142.4420 C   0  0  0  0  0  3  0  0  0  0  0  0
  189.0720  178.1020  142.7600 C   0  0  0  0  0  0  0  0  0  0  0  0
  189.1580  177.1450  135.6650 C   0  0  0  0  0  3  0  0  0  0  0  0
  188.8360  177.7500  138.3820 C   0  0  0  0  0  0  0  0  0  0  0  0
  188.9610  178.7820  137.4390 C   0  0  0  0  0  3  0  0  0  0  0  0
  189.1190  178.4780  136.0820 C   0  0  0  0  0  3  0  0  0  0  0  0
  189.0400  176.1140  136.6030 C   0  0  0  0  0  3  0  0  0  0  0  0
  188.8820  176.4170  137.9590 C   0  0  0  0  0  3  0  0  0  0  0  0
  1 15  1  0  0  0  0
  3 21  1  0  0  0  0
  4 13  1  0  0  0  0
  6 18  1  0  0  0  0
  6  2  2  0  0  0  0
  7  9  1  0  0  0  0
 10 19  1  0  0  0  0
 10  8  2  0  0  0  0
 11 14  1  6  0  0  0
 11  7  1  0  0  0  0
 12 23  1  6  0  0  0
 12  2  1  0  0  0  0
 12  1  1  0  0  0  0
 13  7  2  0  0  0  0
 13  5  1  0  0  0  0
 14  4  2  0  0  0  0
 15 20  2  0  0  0  0
 15 21  1  0  0  0  0
 16  2  1  6  0  0  0
 16 11  1  0  0  0  0
 16  3  1  0  0  0  0
 17  8  1  0  0  0  0
 18 14  1  0  0  0  0
 20 10  1  0  0  0  0
 21 17  2  0  0  0  0
 22 25  2  0  0  0  0
 22 26  1  0  0  0  0
 24 23  2  0  0  0  0
 25 24  1  0  0  0  0
 26 27  2  0  0  0  0
 27 23  1  0  0  0  0
M  END
>  <MODEL>
4

>  <REMARK>
 VINA RESULT:      -7.3      1.785      6.426
  Name = 
  1 active torsions:
  status: ('A' for Active; 'I' for Inactive)
    1  A    between atoms: C_9  and  C_15
                            x       y       z     vdW  Elec       q    Type
                         _______ _______ _______ _____ _____    ______ ____

>  <TORSDO>
F 1

$$$$
=
 OpenBabel10262419593D

 27 31  0  0  1  0  0  0  0  0999 V2000
  187.4600  177.8700  142.3460 N   0  0  0  0  0  2  0  0  0  0  0  0
  186.9970  178.2280  139.9780 C   0  0  0  0  0  0  0  0  0  0  0  0
  185.2140  179.3770  141.2120 N   0  0  0  0  0  2  0  0  0  0  0  0
  184.3260  176.8670  137.5490 N   0  0  0  0  0  0  0  0  0  0  0  0
  181.8740  176.8540  138.0320 N   0  0  0  0  0  1  0  0  0  0  0  0
  187.4470  177.5220  138.7940 N   0  0  0  0  0  0  0  0  0  0  0  0
  183.4650  178.4490  138.9470 C   0  0  0  0  0  0  0  0  0  0  0  0
  184.4880  179.3720  144.7120 C   0  0  0  0  0  3  0  0  0  0  0  0
  182.4710  179.2690  139.6990 C   0  0  0  0  0  1  0  0  0  0  0  0
  185.3310  178.3640  145.1740 C   0  0  0  0  0  0  0  0  0  0  0  0
  184.9140  178.7720  138.7780 C   0  0  2  0  0  3  0  0  0  0  0  0
  187.9450  178.4590  141.1080 C   0  0  2  0  0  3  0  0  0  0  0  0
  183.1760  177.4150  138.1730 C   0  0  0  0  0  0  0  0  0  0  0  0
  185.3040  177.6410  137.8900 C   0  0  0  0  0  0  0  0  0  0  0  0
  186.3930  178.2380  142.9910 C   0  0  0  0  0  0  0  0  0  0  0  0
  185.7430  178.7290  140.0410 C   0  0  1  0  0  3  0  0  0  0  0  0
  184.5380  179.7600  143.3730 C   0  0  0  0  0  3  0  0  0  0  0  0
  186.6610  177.2200  137.8330 N   0  0  0  0  0  2  0  0  0  0  0  0
  185.2530  177.9190  146.5900 C   0  0  0  0  0  1  0  0  0  0  0  0
  186.2860  177.8130  144.3210 C   0  0  0  0  0  3  0  0  0  0  0  0
  185.4400  179.1670  142.4810 C   0  0  0  0  0  0  0  0  0  0  0  0
  191.9870  177.2090  140.3390 C   0  0  0  0  0  3  0  0  0  0  0  0
  189.3470  178.0100  140.8250 C   0  0  0  0  0  0  0  0  0  0  0  0
  189.8110  177.8710  139.5080 C   0  0  0  0  0  3  0  0  0  0  0  0
  191.1290  177.4690  139.2670 C   0  0  0  0  0  3  0  0  0  0  0  0
  191.5290  177.3520  141.6520 C   0  0  0  0  0  3  0  0  0  0  0  0
  190.2130  177.7550  141.8940 C   0  0  0  0  0  3  0  0  0  0  0  0
  1 15  1  0  0  0  0
  2 12  1  0  0  0  0
  3 21  1  0  0  0  0
  4 14  2  0  0  0  0
  4 13  1  0  0  0  0
  5 13  1  0  0  0  0
  6  2  2  0  0  0  0
  7  9  1  0  0  0  0
  8 10  1  0  0  0  0
 10 19  1  0  0  0  0
 11 14  1  6  0  0  0
 11  7  1  0  0  0  0
 11 16  1  0  0  0  0
 12 23  1  6  0  0  0
 12  1  1  0  0  0  0
 13  7  2  0  0  0  0
 15 20  1  0  0  0  0
 16  2  1  6  0  0  0
 16  3  1  0  0  0  0
 17  8  2  0  0  0  0
 18 14  1  0  0  0  0
 18  6  1  0  0  0  0
 20 10  2  0  0  0  0
 21 15  2  0  0  0  0
 21 17  1  0  0  0  0
 22 26  1  0  0  0  0
 23 27  1  0  0  0  0
 24 23  2  0  0  0  0
 25 24  1  0  0  0  0
 25 22  2  0  0  0  0
 26 27  2  0  0  0  0
M  END
>  <MODEL>
5

>  <REMARK>
 VINA RESULT:      -7.1      2.371      3.761
  Name = 
  1 active torsions:
  status: ('A' for Active; 'I' for Inactive)
    1  A    between atoms: C_9  and  C_15
                            x       y       z     vdW  Elec       q    Type
                         _______ _______ _______ _____ _____    ______ ____

>  <TORSDO>
F 1

$$$$
=
 OpenBabel10262419593D

 27 31  0  0  1  0  0  0  0  0999 V2000
  183.1490  177.5430  139.0530 N   0  0  0  0  0  2  0  0  0  0  0  0
  183.9910  178.5380  141.1150 C   0  0  0  0  0  0  0  0  0  0  0  0
  185.7820  178.7700  139.4530 N   0  0  0  0  0  2  0  0  0  0  0  0
  186.6420  177.4650  143.7030 N   0  0  0  0  0  0  0  0  0  0  0  0
  188.9540  176.7230  143.1120 N   0  0  0  0  0  1  0  0  0  0  0  0
  183.5740  178.3850  142.4950 N   0  0  0  0  0  0  0  0  0  0  0  0
  187.6020  178.2550  141.7920 C   0  0  0  0  0  0  0  0  0  0  0  0
  186.0110  177.4490  136.1400 C   0  0  0  0  0  3  0  0  0  0  0  0
  188.6290  178.5270  140.7440 C   0  0  0  0  0  1  0  0  0  0  0  0
  184.9300  176.5710  136.1100 C   0  0  0  0  0  0  0  0  0  0  0  0
  186.2840  178.9430  141.9230 C   0  0  2  0  0  3  0  0  0  0  0  0
  182.9630  178.6010  140.0330 C   0  0  2  0  0  3  0  0  0  0  0  0
  187.7830  177.4940  142.8600 C   0  0  0  0  0  0  0  0  0  0  0  0
  185.8000  178.2900  143.1720 C   0  0  0  0  0  0  0  0  0  0  0  0
  184.1700  177.4190  138.2580 C   0  0  0  0  0  0  0  0  0  0  0  0
  185.2980  178.6840  140.8060 C   0  0  0  0  0  0  0  0  0  0  0  0
  186.2210  178.2550  137.2590 C   0  0  0  0  0  3  0  0  0  0  0  0
  184.4070  178.2400  143.4520 N   0  0  0  0  0  0  0  0  0  0  0  0
  184.7250  175.6830  134.9370 C   0  0  0  0  0  1  0  0  0  0  0  0
  184.0090  176.5700  137.1560 C   0  0  0  0  0  3  0  0  0  0  0  0
  185.3490  178.2150  138.3540 C   0  0  0  0  0  0  0  0  0  0  0  0
  178.9310  178.6620  141.5280 C   0  0  0  0  0  3  0  0  0  0  0  0
  181.5520  178.6100  140.5380 C   0  0  0  0  0  0  0  0  0  0  0  0
  180.7870  177.4340  140.5740 C   0  0  0  0  0  3  0  0  0  0  0  0
  179.4780  177.4620  141.0670 C   0  0  0  0  0  3  0  0  0  0  0  0
  179.6930  179.8350  141.4990 C   0  0  0  0  0  3  0  0  0  0  0  0
  181.0010  179.8080  141.0070 C   0  0  0  0  0  3  0  0  0  0  0  0
  1 12  1  0  0  0  0
  2  6  1  0  0  0  0
  3 16  1  0  0  0  0
  6 18  2  0  0  0  0
  7 11  1  0  0  0  0
  7 13  2  0  0  0  0
  8 17  1  0  0  0  0
  9  7  1  0  0  0  0
 10  8  2  0  0  0  0
 10 20  1  0  0  0  0
 11 16  1  6  0  0  0
 11 14  1  0  0  0  0
 12 23  1  1  0  0  0
 12  2  1  0  0  0  0
 13  5  1  0  0  0  0
 13  4  1  0  0  0  0
 14 18  1  0  0  0  0
 14  4  2  0  0  0  0
 15 21  1  0  0  0  0
 15  1  1  0  0  0  0
 16  2  2  0  0  0  0
 17 21  2  0  0  0  0
 19 10  1  0  0  0  0
 20 15  2  0  0  0  0
 21  3  1  0  0  0  0
 23 24  2  0  0  0  0
 23 27  1  0  0  0  0
 24 25  1  0  0  0  0
 25 22  2  0  0  0  0
 26 22  1  0  0  0  0
 27 26  2  0  0  0  0
M  END
>  <MODEL>
6

>  <REMARK>
 VINA RESULT:      -7.1      2.710      7.293
  Name = 
  1 active torsions:
  status: ('A' for Active; 'I' for Inactive)
    1  A    between atoms: C_9  and  C_15
                            x       y       z     vdW  Elec       q    Type
                         _______ _______ _______ _____ _____    ______ ____

>  <TORSDO>
F 1

$$$$
=
 OpenBabel10262419593D

 27 31  0  0  1  0  0  0  0  0999 V2000
  185.7390  178.0590  141.6980 N   0  0  0  0  0  2  0  0  0  0  0  0
  183.9270  178.1850  140.0690 C   0  0  0  0  0  0  0  0  0  0  0  0
  183.0070  179.0060  142.1920 N   0  0  0  0  0  2  0  0  0  0  0  0
  180.6790  176.1740  139.5350 N   0  0  0  0  0  0  0  0  0  0  0  0
  179.0260  175.6790  141.3430 N   0  0  0  0  0  1  0  0  0  0  0  0
  183.7350  177.5260  138.7930 N   0  0  0  0  0  0  0  0  0  0  0  0
  180.4960  177.6170  141.2910 C   0  0  0  0  0  0  0  0  0  0  0  0
  184.4680  179.0390  145.4540 C   0  0  0  0  0  3  0  0  0  0  0  0
  179.9840  178.2520  142.5400 C   0  0  0  0  0  1  0  0  0  0  0  0
  185.6020  178.2520  145.2640 C   0  0  0  0  0  0  0  0  0  0  0  0
  181.4770  178.2220  140.3420 C   0  0  2  0  0  3  0  0  0  0  0  0
  185.2850  178.6680  140.4580 C   0  0  2  0  0  3  0  0  0  0  0  0
  180.0240  176.5050  140.7490 C   0  0  0  0  0  0  0  0  0  0  0  0
  181.4950  177.1500  139.3060 C   0  0  0  0  0  0  0  0  0  0  0  0
  185.1980  178.2320  142.8670 C   0  0  0  0  0  0  0  0  0  0  0  0
  182.8740  178.4190  140.8840 C   0  0  1  0  0  3  0  0  0  0  0  0
  183.6520  179.3560  144.3680 C   0  0  0  0  0  3  0  0  0  0  0  0
  182.6170  177.0170  138.4430 N   0  0  0  0  0  2  0  0  0  0  0  0
  186.4510  177.8780  146.4250 C   0  0  0  0  0  1  0  0  0  0  0  0
  185.9700  177.8670  143.9760 C   0  0  0  0  0  3  0  0  0  0  0  0
  183.9640  178.9160  143.0760 C   0  0  0  0  0  0  0  0  0  0  0  0
  188.2830  178.2320  137.4050 C   0  0  0  0  0  3  0  0  0  0  0  0
  186.3170  178.5040  139.3820 C   0  0  0  0  0  0  0  0  0  0  0  0
  185.9770  178.6270  138.0260 C   0  0  0  0  0  3  0  0  0  0  0  0
  186.9590  178.4890  137.0400 C   0  0  0  0  0  3  0  0  0  0  0  0
  188.6270  178.1150  138.7560 C   0  0  0  0  0  3  0  0  0  0  0  0
  187.6460  178.2530  139.7420 C   0  0  0  0  0  3  0  0  0  0  0  0
  1 15  1  0  0  0  0
  2 12  1  0  0  0  0
  3 21  1  0  0  0  0
  4 13  1  0  0  0  0
  6  2  2  0  0  0  0
  7  9  1  0  0  0  0
 10  8  1  0  0  0  0
 10 19  1  0  0  0  0
 11 14  1  6  0  0  0
 11 16  1  0  0  0  0
 11  7  1  0  0  0  0
 12 23  1  6  0  0  0
 12  1  1  0  0  0  0
 13  7  2  0  0  0  0
 13  5  1  0  0  0  0
 14  4  2  0  0  0  0
 15 21  2  0  0  0  0
 15 20  1  0  0  0  0
 16  2  1  6  0  0  0
 16  3  1  0  0  0  0
 17  8  2  0  0  0  0
 18  6  1  0  0  0  0
 18 14  1  0  0  0  0
 20 10  2  0  0  0  0
 21 17  1  0  0  0  0
 22 26  1  0  0  0  0
 23 27  1  0  0  0  0
 24 23  2  0  0  0  0
 25 22  2  0  0  0  0
 25 24  1  0  0  0  0
 26 27  2  0  0  0  0
M  END
>  <MODEL>
7

>  <REMARK>
 VINA RESULT:      -7.1      3.258      6.422
  Name = 
  1 active torsions:
  status: ('A' for Active; 'I' for Inactive)
    1  A    between atoms: C_9  and  C_15
                            x       y       z     vdW  Elec       q    Type
                         _______ _______ _______ _____ _____    ______ ____

>  <TORSDO>
F 1

$$$$
=
 OpenBabel10262419593D

 27 31  0  0  1  0  0  0  0  0999 V2000
  191.0410  177.3000  144.7680 N   0  0  0  0  0  2  0  0  0  0  0  0
  189.0210  177.2020  146.1320 C   0  0  0  0  0  0  0  0  0  0  0  0
  188.3450  176.6040  143.8500 N   0  0  0  0  0  2  0  0  0  0  0  0
  185.8740  179.4170  146.3980 N   0  0  0  0  0  0  0  0  0  0  0  0
  184.5190  180.1620  144.4350 N   0  0  0  0  0  1  0  0  0  0  0  0
  188.7030  177.7830  147.4210 N   0  0  0  0  0  0  0  0  0  0  0  0
  185.8340  178.1180  144.5240 C   0  0  0  0  0  0  0  0  0  0  0  0
  190.2280  176.6850  140.8130 C   0  0  0  0  0  3  0  0  0  0  0  0
  185.4540  177.6130  143.1730 C   0  0  0  0  0  1  0  0  0  0  0  0
  191.3760  177.3660  141.2100 C   0  0  0  0  0  0  0  0  0  0  0  0
  186.6340  177.3740  145.5420 C   0  0  2  0  0  3  0  0  0  0  0  0
  190.3840  176.6430  145.8860 C   0  0  2  0  0  3  0  0  0  0  0  0
  185.3690  179.2230  145.0860 C   0  0  0  0  0  0  0  0  0  0  0  0
  186.5840  178.3670  146.6520 C   0  0  0  0  0  0  0  0  0  0  0  0
  190.6530  177.2510  143.5290 C   0  0  0  0  0  0  0  0  0  0  0  0
  188.0750  177.1070  145.1720 C   0  0  0  0  0  0  0  0  0  0  0  0
  189.2530  176.3580  141.7560 C   0  0  0  0  0  3  0  0  0  0  0  0
  187.5850  178.3520  147.6620 N   0  0  0  0  0  0  0  0  0  0  0  0
  192.3980  177.7530  140.2040 C   0  0  0  0  0  1  0  0  0  0  0  0
  191.5920  177.6310  142.5620 C   0  0  0  0  0  3  0  0  0  0  0  0
  189.4160  176.6810  143.1080 C   0  0  0  0  0  0  0  0  0  0  0  0
  192.9130  176.6070  149.3650 C   0  0  0  0  0  3  0  0  0  0  0  0
  191.2690  176.6510  147.0970 C   0  0  0  0  0  0  0  0  0  0  0  0
  191.1770  177.6720  148.0560 C   0  0  0  0  0  3  0  0  0  0  0  0
  192.0000  177.6490  149.1870 C   0  0  0  0  0  3  0  0  0  0  0  0
  193.0030  175.5850  148.4140 C   0  0  0  0  0  3  0  0  0  0  0  0
  192.1810  175.6060  147.2840 C   0  0  0  0  0  3  0  0  0  0  0  0
  1 12  1  0  0  0  0
  2  6  1  0  0  0  0
  3 16  1  0  0  0  0
  4 14  2  0  0  0  0
  5 13  1  0  0  0  0
  6 18  2  0  0  0  0
  7 13  2  0  0  0  0
  8 10  2  0  0  0  0
  8 17  1  0  0  0  0
  9  7  1  0  0  0  0
 10 20  1  0  0  0  0
 11  7  1  6  0  0  0
 11 14  1  0  0  0  0
 12  2  1  0  0  0  0
 12 23  1  1  0  0  0
 13  4  1  0  0  0  0
 14 18  1  0  0  0  0
 15  1  1  0  0  0  0
 16 11  1  0  0  0  0
 16  2  2  0  0  0  0
 17 21  2  0  0  0  0
 19 10  1  0  0  0  0
 20 15  2  0  0  0  0
 21 15  1  0  0  0  0
 21  3  1  0  0  0  0
 23 27  2  0  0  0  0
 23 24  1  0  0  0  0
 24 25  2  0  0  0  0
 25 22  1  0  0  0  0
 26 22  2  0  0  0  0
 27 26  1  0  0  0  0
M  END
>  <MODEL>
8

>  <REMARK>
 VINA RESULT:      -7.0      3.405      6.714
  Name = 
  1 active torsions:
  status: ('A' for Active; 'I' for Inactive)
    1  A    between atoms: C_9  and  C_15
                            x       y       z     vdW  Elec       q    Type
                         _______ _______ _______ _____ _____    ______ ____

>  <TORSDO>
F 1

$$$$
=
 OpenBabel10262419593D

 27 31  0  0  1  0  0  0  0  0999 V2000
  186.0980  178.0320  140.0680 N   0  0  0  0  0  2  0  0  0  0  0  0
  187.0510  178.2940  142.2980 C   0  0  0  0  0  0  0  0  0  0  0  0
  188.8690  178.7440  140.7110 N   0  0  0  0  0  2  0  0  0  0  0  0
  189.5180  176.2060  144.4040 N   0  0  0  0  0  0  0  0  0  0  0  0
  191.7130  175.3620  143.5590 N   0  0  0  0  0  1  0  0  0  0  0  0
  186.6090  177.8190  143.5940 N   0  0  0  0  0  0  0  0  0  0  0  0
  190.5880  177.3640  142.7580 C   0  0  0  0  0  0  0  0  0  0  0  0
  188.9410  178.3810  137.1560 C   0  0  0  0  0  3  0  0  0  0  0  0
  191.6480  177.7810  141.7950 C   0  0  0  0  0  1  0  0  0  0  0  0
  187.7520  177.6950  136.9170 C   0  0  0  0  0  0  0  0  0  0  0  0
  189.3730  178.1550  143.1150 C   0  0  2  0  0  3  0  0  0  0  0  0
  186.0490  178.7900  141.3080 C   0  0  2  0  0  3  0  0  0  0  0  0
  190.6580  176.3190  143.5670 C   0  0  0  0  0  0  0  0  0  0  0  0
  188.7980  177.2490  144.1480 C   0  0  0  0  0  0  0  0  0  0  0  0
  187.0980  178.0020  139.2390 C   0  0  0  0  0  0  0  0  0  0  0  0
  188.3690  178.3480  142.0010 C   0  0  0  0  0  0  0  0  0  0  0  0
  189.2500  178.8070  138.4470 C   0  0  0  0  0  3  0  0  0  0  0  0
  187.4090  177.3050  144.4470 N   0  0  0  0  0  0  0  0  0  0  0  0
  187.4370  177.2030  135.5510 C   0  0  0  0  0  1  0  0  0  0  0  0
  186.8320  177.5220  137.9510 C   0  0  0  0  0  3  0  0  0  0  0  0
  188.3730  178.5790  139.5150 C   0  0  0  0  0  0  0  0  0  0  0  0
  182.0110  178.9650  142.7790 C   0  0  0  0  0  3  0  0  0  0  0  0
  184.6480  178.8420  141.8390 C   0  0  0  0  0  0  0  0  0  0  0  0
  184.3860  179.2580  143.1530 C   0  0  0  0  0  3  0  0  0  0  0  0
  183.0690  179.3180  143.6220 C   0  0  0  0  0  3  0  0  0  0  0  0
  182.2690  178.5550  141.4670 C   0  0  0  0  0  3  0  0  0  0  0  0
  183.5840  178.4970  140.9980 C   0  0  0  0  0  3  0  0  0  0  0  0
  1 12  1  0  0  0  0
  2  6  1  0  0  0  0
  3 16  1  0  0  0  0
  5 13  1  0  0  0  0
  6 18  2  0  0  0  0
  7 11  1  0  0  0  0
  7 13  2  0  0  0  0
  8 17  1  0  0  0  0
  9  7  1  0  0  0  0
 10  8  2  0  0  0  0
 10 20  1  0  0  0  0
 11 16  1  6  0  0  0
 11 14  1  0  0  0  0
 12 23  1  1  0  0  0
 12  2  1  0  0  0  0
 13  4  1  0  0  0  0
 14  4  2  0  0  0  0
 14 18  1  0  0  0  0
 15 21  1  0  0  0  0
 15  1  1  0  0  0  0
 16  2  2  0  0  0  0
 17 21  2  0  0  0  0
 19 10  1  0  0  0  0
 20 15  2  0  0  0  0
 21  3  1  0  0  0  0
 22 25  1  0  0  0  0
 23 24  1  0  0  0  0
 24 25  2  0  0  0  0
 26 22  2  0  0  0  0
 27 26  1  0  0  0  0
 27 23  2  0  0  0  0
M  END
>  <MODEL>
9

>  <REMARK>
 VINA RESULT:      -7.0      1.990      6.134
  Name = 
  1 active torsions:
  status: ('A' for Active; 'I' for Inactive)
    1  A    between atoms: C_9  and  C_15
                            x       y       z     vdW  Elec       q    Type
                         _______ _______ _______ _____ _____    ______ ____

>  <TORSDO>
F 1

$$$$
