=
 OpenBabel10262420483D

 28 33  0  0  1  0  0  0  0  0999 V2000
  187.8090  177.3830  143.8110 C   0  0  0  0  0  0  0  0  0  0  0  0
  189.2200  176.8380  143.7290 C   0  0  1  0  0  3  0  0  0  0  0  0
  189.0120  177.2450  141.2070 C   0  0  2  0  0  3  0  0  0  0  0  0
  186.5880  177.6080  138.0170 C   0  0  0  0  0  3  0  0  0  0  0  0
  183.8490  178.8190  144.2560 N   0  0  0  0  0  1  0  0  0  0  0  0
  190.6920  178.6580  143.8970 C   0  0  1  0  0  3  0  0  0  0  0  0
  189.9460  177.1250  142.4110 C   0  0  1  0  0  3  0  0  0  0  0  0
  191.1390  176.5450  145.2380 C   0  0  0  0  0  1  0  0  0  0  0  0
  189.6070  177.7500  137.5660 C   0  0  0  0  0  3  0  0  0  0  0  0
  187.0810  178.6620  140.2030 C   0  0  2  0  0  3  0  0  0  0  0  0
  190.0930  177.5350  144.7320 C   0  0  2  0  0  3  0  0  0  0  0  0
  187.7830  177.6210  135.8680 C   0  0  0  0  0  0  0  0  0  0  0  0
  187.5100  177.9560  138.9260 C   0  0  0  0  0  0  0  0  0  0  0  0
  189.8280  177.5440  139.9520 C   0  0  0  0  0  2  0  0  0  0  0  0
  189.0160  177.9720  136.2320 C   0  0  0  0  0  3  0  0  0  0  0  0
  185.8800  178.5590  142.8910 C   0  0  0  0  0  0  0  0  0  0  0  0
  187.9630  178.3370  141.4530 C   0  0  1  0  0  3  0  0  0  0  0  0
  188.9630  177.6790  138.7410 C   0  0  0  0  0  0  0  0  0  0  0  0
  185.7840  177.6330  145.1280 C   0  0  0  0  0  3  0  0  0  0  0  0
  185.2280  179.2980  141.7660 C   0  0  0  0  0  2  0  0  0  0  0  0
  185.1800  178.3400  144.0900 C   0  0  0  0  0  0  0  0  0  0  0  0
  192.0330  179.1750  144.3990 C   0  0  0  0  0  1  0  0  0  0  0  0
  187.3370  177.9420  134.5940 O   0  0  0  0  0  1  0  0  0  0  0  0
  186.8890  176.8450  136.7720 C   0  0  0  0  0  2  0  0  0  0  0  0
  185.5670  178.6010  140.4630 C   0  0  0  0  0  2  0  0  0  0  0  0
  187.0860  177.1560  144.9880 C   0  0  0  0  0  3  0  0  0  0  0  0
  187.1970  178.0750  142.7400 C   0  0  0  0  0  0  0  0  0  0  0  0
  190.7760  178.2580  142.5520 O   0  0  0  0  0  0  0  0  0  0  0  0
  1 26  1  0  0  0  0
  2  1  1  6  0  0  0
  2 11  1  0  0  0  0
  3 14  1  6  0  0  0
  3 17  1  0  0  0  0
  3  7  1  0  0  0  0
  4 13  2  0  0  0  0
  6 22  1  1  0  0  0
  6 11  1  0  0  0  0
  7 28  1  1  0  0  0
  7  2  1  0  0  0  0
  9 18  2  0  0  0  0
 10 25  1  1  0  0  0
 10 17  1  0  0  0  0
 11  8  1  6  0  0  0
 12 15  2  0  0  0  0
 12 24  1  0  0  0  0
 13 10  1  0  0  0  0
 15  9  1  0  0  0  0
 16 21  2  0  0  0  0
 17 27  1  1  0  0  0
 18 13  1  0  0  0  0
 18 14  1  0  0  0  0
 20 16  1  0  0  0  0
 21  5  1  0  0  0  0
 21 19  1  0  0  0  0
 23 12  1  0  0  0  0
 24  4  1  0  0  0  0
 25 20  1  0  0  0  0
 26 19  2  0  0  0  0
 27 16  1  0  0  0  0
 27  1  2  0  0  0  0
 28  6  1  0  0  0  0
M  END
>  <MODEL>
1

>  <REMARK>
 VINA RESULT:     -10.2      0.000      0.000
  Name = 
  0 active torsions:
  status: ('A' for Active; 'I' for Inactive)
                            x       y       z     vdW  Elec       q    Type
                         _______ _______ _______ _____ _____    ______ ____

>  <TORSDO>
F 0

$$$$
=
 OpenBabel10262420483D

 28 33  0  0  1  0  0  0  0  0999 V2000
  184.8490  177.8210  138.3990 C   0  0  0  0  0  0  0  0  0  0  0  0
  183.3780  177.8480  138.7630 C   0  0  1  0  0  3  0  0  0  0  0  0
  184.1910  178.1540  141.1740 C   0  0  2  0  0  3  0  0  0  0  0  0
  187.1280  177.5850  143.8630 C   0  0  0  0  0  3  0  0  0  0  0  0
  188.9000  177.6580  137.1730 N   0  0  0  0  0  1  0  0  0  0  0  0
  182.6800  180.0890  138.7180 C   0  0  1  0  0  3  0  0  0  0  0  0
  183.0710  178.3910  140.1610 C   0  0  1  0  0  3  0  0  0  0  0  0
  181.2410  178.2960  137.6320 C   0  0  0  0  0  1  0  0  0  0  0  0
  184.5180  178.8560  144.8160 C   0  0  0  0  0  3  0  0  0  0  0  0
  186.6600  178.7410  141.7230 C   0  0  2  0  0  3  0  0  0  0  0  0
  182.6530  178.8200  137.8770 C   0  0  2  0  0  3  0  0  0  0  0  0
  186.4480  178.0530  146.1790 C   0  0  0  0  0  0  0  0  0  0  0  0
  186.2470  178.2530  143.1030 C   0  0  0  0  0  0  0  0  0  0  0  0
  183.7930  178.7420  142.5250 C   0  0  0  0  0  2  0  0  0  0  0  0
  185.3880  178.8420  146.0080 C   0  0  0  0  0  3  0  0  0  0  0  0
  187.2110  178.1860  138.8830 C   0  0  0  0  0  0  0  0  0  0  0  0
  185.5020  178.7690  140.6720 C   0  0  1  0  0  3  0  0  0  0  0  0
  184.8570  178.5440  143.5560 C   0  0  0  0  0  0  0  0  0  0  0  0
  186.5370  177.2860  136.7370 C   0  0  0  0  0  3  0  0  0  0  0  0
  188.2880  178.6280  139.8220 C   0  0  0  0  0  2  0  0  0  0  0  0
  187.5420  177.7160  137.6010 C   0  0  0  0  0  0  0  0  0  0  0  0
  181.5570  181.0720  138.4180 C   0  0  0  0  0  1  0  0  0  0  0  0
  187.2110  178.1860  147.3300 O   0  0  0  0  0  1  0  0  0  0  0  0
  186.8050  176.9950  145.1930 C   0  0  0  0  0  2  0  0  0  0  0  0
  187.9660  178.1130  141.2110 C   0  0  0  0  0  2  0  0  0  0  0  0
  185.2020  177.3350  137.1340 C   0  0  0  0  0  3  0  0  0  0  0  0
  185.8620  178.2350  139.2950 C   0  0  0  0  0  0  0  0  0  0  0  0
  182.7080  179.7540  140.0830 O   0  0  0  0  0  0  0  0  0  0  0  0
  1 27  1  0  0  0  0
  2  1  1  6  0  0  0
  2  7  1  0  0  0  0
  3 14  1  1  0  0  0
  4 24  1  0  0  0  0
  5 21  1  0  0  0  0
  6 22  1  1  0  0  0
  6 28  1  0  0  0  0
  7 28  1  6  0  0  0
  7  3  1  0  0  0  0
  9 15  1  0  0  0  0
 10 25  1  6  0  0  0
 10 13  1  0  0  0  0
 11  8  1  1  0  0  0
 11  6  1  0  0  0  0
 11  2  1  0  0  0  0
 12 23  1  0  0  0  0
 13 18  1  0  0  0  0
 13  4  2  0  0  0  0
 14 18  1  0  0  0  0
 15 12  2  0  0  0  0
 16 27  2  0  0  0  0
 16 20  1  0  0  0  0
 17 27  1  6  0  0  0
 17  3  1  0  0  0  0
 17 10  1  0  0  0  0
 18  9  2  0  0  0  0
 19 26  1  0  0  0  0
 19 21  2  0  0  0  0
 20 25  1  0  0  0  0
 21 16  1  0  0  0  0
 24 12  1  0  0  0  0
 26  1  2  0  0  0  0
M  END
>  <MODEL>
2

>  <REMARK>
 VINA RESULT:      -9.6      3.213      7.898
  Name = 
  0 active torsions:
  status: ('A' for Active; 'I' for Inactive)
                            x       y       z     vdW  Elec       q    Type
                         _______ _______ _______ _____ _____    ______ ____

>  <TORSDO>
F 0

$$$$
=
 OpenBabel10262420483D

 28 33  0  0  1  0  0  0  0  0999 V2000
  188.5090  176.9200  145.5340 C   0  0  0  0  0  0  0  0  0  0  0  0
  188.7880  176.3770  144.1470 C   0  0  1  0  0  3  0  0  0  0  0  0
  186.5330  177.4150  143.5090 C   0  0  2  0  0  3  0  0  0  0  0  0
  182.8970  178.6360  144.7190 C   0  0  0  0  0  3  0  0  0  0  0  0
  187.8960  178.2980  149.4920 N   0  0  0  0  0  1  0  0  0  0  0  0
  189.8980  178.0570  142.9410 C   0  0  1  0  0  3  0  0  0  0  0  0
  187.9170  176.9700  143.0360 C   0  0  1  0  0  3  0  0  0  0  0  0
  190.7470  175.6630  142.8430 C   0  0  0  0  0  1  0  0  0  0  0  0
  183.5680  178.8100  141.7430 C   0  0  0  0  0  3  0  0  0  0  0  0
  185.3060  179.0890  145.0690 C   0  0  2  0  0  3  0  0  0  0  0  0
  190.1700  176.7750  143.7150 C   0  0  2  0  0  3  0  0  0  0  0  0
  181.3680  179.1620  142.8660 C   0  0  0  0  0  0  0  0  0  0  0  0
  184.1240  178.7190  144.1860 C   0  0  0  0  0  0  0  0  0  0  0  0
  185.7540  178.0010  142.3350 C   0  0  0  0  0  2  0  0  0  0  0  0
  182.2100  179.3780  141.8570 C   0  0  0  0  0  3  0  0  0  0  0  0
  187.2990  178.3400  147.1060 C   0  0  0  0  0  0  0  0  0  0  0  0
  186.6620  178.4350  144.6470 C   0  0  1  0  0  3  0  0  0  0  0  0
  184.3910  178.4600  142.7420 C   0  0  0  0  0  0  0  0  0  0  0  0
  189.0620  176.8800  147.8980 C   0  0  0  0  0  3  0  0  0  0  0  0
  186.2370  179.3560  147.3810 C   0  0  0  0  0  2  0  0  0  0  0  0
  188.0880  177.8420  148.1560 C   0  0  0  0  0  0  0  0  0  0  0  0
  190.9440  178.3950  141.8880 C   0  0  0  0  0  1  0  0  0  0  0  0
  180.1390  179.8070  142.8700 O   0  0  0  0  0  1  0  0  0  0  0  0
  181.6860  178.2060  143.9630 C   0  0  0  0  0  2  0  0  0  0  0  0
  185.0030  179.0030  146.5740 C   0  0  0  0  0  2  0  0  0  0  0  0
  189.2680  176.4210  146.5990 C   0  0  0  0  0  3  0  0  0  0  0  0
  187.4980  177.8760  145.7870 C   0  0  0  0  0  0  0  0  0  0  0  0
  188.6110  178.0090  142.3790 O   0  0  0  0  0  0  0  0  0  0  0  0
  1 27  2  0  0  0  0
  1 26  1  0  0  0  0
  2  1  1  1  0  0  0
  3 14  1  6  0  0  0
  3 17  1  0  0  0  0
  6 22  1  6  0  0  0
  6 11  1  0  0  0  0
  7 28  1  1  0  0  0
  7  3  1  0  0  0  0
  7  2  1  0  0  0  0
  9 15  1  0  0  0  0
  9 18  2  0  0  0  0
 10 25  1  1  0  0  0
 11  8  1  6  0  0  0
 11  2  1  0  0  0  0
 12 23  1  0  0  0  0
 12 24  1  0  0  0  0
 13  4  2  0  0  0  0
 13 10  1  0  0  0  0
 14 18  1  0  0  0  0
 15 12  2  0  0  0  0
 16 20  1  0  0  0  0
 16 21  2  0  0  0  0
 17 10  1  0  0  0  0
 17 27  1  1  0  0  0
 18 13  1  0  0  0  0
 19 21  1  0  0  0  0
 21  5  1  0  0  0  0
 24  4  1  0  0  0  0
 25 20  1  0  0  0  0
 26 19  2  0  0  0  0
 27 16  1  0  0  0  0
 28  6  1  0  0  0  0
M  END
>  <MODEL>
3

>  <REMARK>
 VINA RESULT:      -9.3      3.521      5.572
  Name = 
  0 active torsions:
  status: ('A' for Active; 'I' for Inactive)
                            x       y       z     vdW  Elec       q    Type
                         _______ _______ _______ _____ _____    ______ ____

>  <TORSDO>
F 0

$$$$
=
 OpenBabel10262420483D

 28 33  0  0  1  0  0  0  0  0999 V2000
  182.6010  178.0170  139.9710 C   0  0  0  0  0  0  0  0  0  0  0  0
  181.3410  177.9540  140.8110 C   0  0  1  0  0  3  0  0  0  0  0  0
  182.9100  178.2380  142.8180 C   0  0  2  0  0  3  0  0  0  0  0  0
  186.6070  177.7550  144.3290 C   0  0  0  0  0  3  0  0  0  0  0  0
  185.9990  178.1070  137.4440 N   0  0  0  0  0  1  0  0  0  0  0  0
  180.5760  180.1540  141.1040 C   0  0  1  0  0  3  0  0  0  0  0  0
  181.5040  178.4410  142.2540 C   0  0  1  0  0  3  0  0  0  0  0  0
  178.9310  178.3160  140.4890 C   0  0  0  0  0  1  0  0  0  0  0  0
  184.4240  178.8560  146.1620 C   0  0  0  0  0  3  0  0  0  0  0  0
  185.3920  178.9430  142.5260 C   0  0  2  0  0  3  0  0  0  0  0  0
  180.3190  178.9090  140.2660 C   0  0  2  0  0  3  0  0  0  0  0  0
  186.7340  178.1230  146.7570 C   0  0  0  0  0  0  0  0  0  0  0  0
  185.4930  178.3950  143.9420 C   0  0  0  0  0  0  0  0  0  0  0  0
  182.9710  178.7650  144.2480 C   0  0  0  0  0  2  0  0  0  0  0  0
  185.6470  178.8570  146.9890 C   0  0  0  0  0  3  0  0  0  0  0  0
  184.9700  178.4960  139.6450 C   0  0  0  0  0  0  0  0  0  0  0  0
  183.9470  178.9370  141.9300 C   0  0  1  0  0  3  0  0  0  0  0  0
  184.3280  178.5980  144.8500 C   0  0  0  0  0  0  0  0  0  0  0  0
  183.6460  177.6200  137.8150 C   0  0  0  0  0  3  0  0  0  0  0  0
  186.2820  178.9700  140.1840 C   0  0  0  0  0  2  0  0  0  0  0  0
  184.8660  178.0800  138.3070 C   0  0  0  0  0  0  0  0  0  0  0  0
  179.3780  181.0820  141.2450 C   0  0  0  0  0  1  0  0  0  0  0  0
  187.8360  178.2650  147.5880 O   0  0  0  0  0  1  0  0  0  0  0  0
  186.7800  177.1120  145.6630 C   0  0  0  0  0  2  0  0  0  0  0  0
  186.4720  178.4010  141.5760 C   0  0  0  0  0  2  0  0  0  0  0  0
  182.5240  177.5860  138.6410 C   0  0  0  0  0  3  0  0  0  0  0  0
  183.8390  178.4600  140.4900 C   0  0  0  0  0  0  0  0  0  0  0  0
  181.0800  179.7840  142.3620 O   0  0  0  0  0  0  0  0  0  0  0  0
  1 27  1  0  0  0  0
  2  1  1  6  0  0  0
  2  7  1  0  0  0  0
  3 14  1  1  0  0  0
  4 24  1  0  0  0  0
  5 21  1  0  0  0  0
  6 22  1  1  0  0  0
  6 28  1  0  0  0  0
  7 28  1  6  0  0  0
  7  3  1  0  0  0  0
  9 15  1  0  0  0  0
 10 25  1  6  0  0  0
 10 13  1  0  0  0  0
 11  8  1  1  0  0  0
 11  2  1  0  0  0  0
 11  6  1  0  0  0  0
 12 15  2  0  0  0  0
 12 23  1  0  0  0  0
 13  4  2  0  0  0  0
 13 18  1  0  0  0  0
 14 18  1  0  0  0  0
 16 20  1  0  0  0  0
 16 27  2  0  0  0  0
 17 27  1  6  0  0  0
 17 10  1  0  0  0  0
 17  3  1  0  0  0  0
 18  9  2  0  0  0  0
 19 21  2  0  0  0  0
 19 26  1  0  0  0  0
 20 25  1  0  0  0  0
 21 16  1  0  0  0  0
 24 12  1  0  0  0  0
 26  1  2  0  0  0  0
M  END
>  <MODEL>
4

>  <REMARK>
 VINA RESULT:      -9.0      3.854      8.366
  Name = 
  0 active torsions:
  status: ('A' for Active; 'I' for Inactive)
                            x       y       z     vdW  Elec       q    Type
                         _______ _______ _______ _____ _____    ______ ____

>  <TORSDO>
F 0

$$$$
=
 OpenBabel10262420483D

 28 33  0  0  1  0  0  0  0  0999 V2000
  187.8350  177.4280  145.1790 C   0  0  0  0  0  0  0  0  0  0  0  0
  189.0050  176.9610  144.3370 C   0  0  1  0  0  3  0  0  0  0  0  0
  187.5280  177.5450  142.3260 C   0  0  2  0  0  3  0  0  0  0  0  0
  183.8080  178.0230  140.8740 C   0  0  0  0  0  3  0  0  0  0  0  0
  184.6620  178.6290  147.7150 N   0  0  0  0  0  1  0  0  0  0  0  0
  190.3470  178.8340  143.8900 C   0  0  1  0  0  3  0  0  0  0  0  0
  188.9490  177.3810  142.8660 C   0  0  1  0  0  3  0  0  0  0  0  0
  191.4280  176.6520  144.6190 C   0  0  0  0  0  1  0  0  0  0  0  0
  186.1640  178.3480  138.9560 C   0  0  0  0  0  3  0  0  0  0  0  0
  185.3500  178.9350  142.5840 C   0  0  2  0  0  3  0  0  0  0  0  0
  190.2670  177.6230  144.8100 C   0  0  2  0  0  3  0  0  0  0  0  0
  183.7270  178.2560  138.4270 C   0  0  0  0  0  0  0  0  0  0  0  0
  185.0650  178.3480  141.2090 C   0  0  0  0  0  0  0  0  0  0  0  0
  187.5820  177.9760  140.8630 C   0  0  0  0  0  2  0  0  0  0  0  0
  184.9700  178.6390  138.1380 C   0  0  0  0  0  3  0  0  0  0  0  0
  185.7030  178.5720  145.4860 C   0  0  0  0  0  0  0  0  0  0  0  0
  186.7510  178.5610  143.1700 C   0  0  1  0  0  3  0  0  0  0  0  0
  186.2170  178.1580  140.2830 C   0  0  0  0  0  0  0  0  0  0  0  0
  186.7750  177.4780  147.3630 C   0  0  0  0  0  3  0  0  0  0  0  0
  184.5620  179.3600  144.9240 C   0  0  0  0  0  2  0  0  0  0  0  0
  185.7200  178.2300  146.8480 C   0  0  0  0  0  0  0  0  0  0  0  0
  191.7530  179.3780  143.6790 C   0  0  0  0  0  1  0  0  0  0  0  0
  182.6890  178.6490  137.5950 O   0  0  0  0  0  1  0  0  0  0  0  0
  183.4290  177.3710  139.5880 C   0  0  0  0  0  2  0  0  0  0  0  0
  184.1860  178.7790  143.5750 C   0  0  0  0  0  2  0  0  0  0  0  0
  187.8210  177.0780  146.5340 C   0  0  0  0  0  3  0  0  0  0  0  0
  186.7570  178.1670  144.6390 C   0  0  0  0  0  0  0  0  0  0  0  0
  189.7290  178.5410  142.6630 O   0  0  0  0  0  0  0  0  0  0  0  0
  1 26  1  0  0  0  0
  2 11  1  0  0  0  0
  2  1  1  1  0  0  0
  3 14  1  6  0  0  0
  3  7  1  0  0  0  0
  3 17  1  0  0  0  0
  4 13  2  0  0  0  0
  6 22  1  6  0  0  0
  6 11  1  0  0  0  0
  7 28  1  1  0  0  0
  7  2  1  0  0  0  0
  9 18  2  0  0  0  0
 10 17  1  0  0  0  0
 10 25  1  1  0  0  0
 11  8  1  6  0  0  0
 12 24  1  0  0  0  0
 13 10  1  0  0  0  0
 15 12  2  0  0  0  0
 15  9  1  0  0  0  0
 16 21  2  0  0  0  0
 17 27  1  1  0  0  0
 18 14  1  0  0  0  0
 18 13  1  0  0  0  0
 20 16  1  0  0  0  0
 21 19  1  0  0  0  0
 21  5  1  0  0  0  0
 23 12  1  0  0  0  0
 24  4  1  0  0  0  0
 25 20  1  0  0  0  0
 26 19  2  0  0  0  0
 27  1  2  0  0  0  0
 27 16  1  0  0  0  0
 28  6  1  0  0  0  0
M  END
>  <MODEL>
5

>  <REMARK>
 VINA RESULT:      -8.5      2.122      2.914
  Name = 
  0 active torsions:
  status: ('A' for Active; 'I' for Inactive)
                            x       y       z     vdW  Elec       q    Type
                         _______ _______ _______ _____ _____    ______ ____

>  <TORSDO>
F 0

$$$$
=
 OpenBabel10262420483D

 28 33  0  0  1  0  0  0  0  0999 V2000
  187.2600  178.6170  141.2320 C   0  0  0  0  0  0  0  0  0  0  0  0
  188.5080  178.6630  140.3740 C   0  0  1  0  0  3  0  0  0  0  0  0
  189.6930  177.6370  142.4020 C   0  0  2  0  0  3  0  0  0  0  0  0
  189.7660  177.1330  146.3920 C   0  0  0  0  0  3  0  0  0  0  0  0
  183.6700  178.6350  143.4800 N   0  0  0  0  0  1  0  0  0  0  0  0
  188.6680  176.6100  139.2480 C   0  0  1  0  0  3  0  0  0  0  0  0
  189.6710  177.8070  140.8830 C   0  0  1  0  0  3  0  0  0  0  0  0
  189.0560  178.7780  137.9800 C   0  0  0  0  0  1  0  0  0  0  0  0
  192.0560  175.9620  144.7420 C   0  0  0  0  0  3  0  0  0  0  0  0
  188.3700  176.6470  144.4050 C   0  0  2  0  0  3  0  0  0  0  0  0
  188.2250  178.0500  139.0330 C   0  0  2  0  0  3  0  0  0  0  0  0
  191.8610  176.1480  147.2220 C   0  0  0  0  0  0  0  0  0  0  0  0
  189.7170  176.7960  145.0950 C   0  0  0  0  0  0  0  0  0  0  0  0
  190.8770  176.7620  142.8040 C   0  0  0  0  0  2  0  0  0  0  0  0
  192.3490  175.5590  146.1310 C   0  0  0  0  0  3  0  0  0  0  0  0
  185.9890  177.8690  143.1740 C   0  0  0  0  0  0  0  0  0  0  0  0
  188.3710  177.0320  142.8890 C   0  0  1  0  0  3  0  0  0  0  0  0
  190.9440  176.5560  144.2820 C   0  0  0  0  0  0  0  0  0  0  0  0
  184.9790  179.3780  141.5700 C   0  0  0  0  0  3  0  0  0  0  0  0
  185.9010  177.0740  144.4380 C   0  0  0  0  0  2  0  0  0  0  0  0
  184.8860  178.6220  142.7370 C   0  0  0  0  0  0  0  0  0  0  0  0
  189.0790  175.8770  137.9780 C   0  0  0  0  0  1  0  0  0  0  0  0
  192.1770  175.6280  148.4690 O   0  0  0  0  0  1  0  0  0  0  0  0
  191.0290  177.3820  147.1430 C   0  0  0  0  0  2  0  0  0  0  0  0
  187.1980  177.2350  145.2070 C   0  0  0  0  0  2  0  0  0  0  0  0
  186.1570  179.3780  140.8260 C   0  0  0  0  0  3  0  0  0  0  0  0
  187.1870  177.8680  142.4290 C   0  0  0  0  0  0  0  0  0  0  0  0
  189.6890  176.5650  140.2110 O   0  0  0  0  0  0  0  0  0  0  0  0
  1 27  1  0  0  0  0
  2  7  1  0  0  0  0
  2  1  1  1  0  0  0
  3 14  1  6  0  0  0
  3 17  1  0  0  0  0
  4 24  1  0  0  0  0
  6 22  1  6  0  0  0
  6 28  1  0  0  0  0
  7 28  1  6  0  0  0
  7  3  1  0  0  0  0
  9 15  1  0  0  0  0
 10 13  1  0  0  0  0
 10 25  1  1  0  0  0
 11  8  1  6  0  0  0
 11  6  1  0  0  0  0
 11  2  1  0  0  0  0
 12 23  1  0  0  0  0
 13  4  2  0  0  0  0
 14 18  1  0  0  0  0
 15 12  2  0  0  0  0
 16 20  1  0  0  0  0
 17 27  1  1  0  0  0
 17 10  1  0  0  0  0
 18  9  2  0  0  0  0
 18 13  1  0  0  0  0
 19 21  2  0  0  0  0
 20 25  1  0  0  0  0
 21 16  1  0  0  0  0
 21  5  1  0  0  0  0
 24 12  1  0  0  0  0
 26  1  2  0  0  0  0
 26 19  1  0  0  0  0
 27 16  2  0  0  0  0
M  END
>  <MODEL>
6

>  <REMARK>
 VINA RESULT:      -8.4      1.881      6.483
  Name = 
  0 active torsions:
  status: ('A' for Active; 'I' for Inactive)
                            x       y       z     vdW  Elec       q    Type
                         _______ _______ _______ _____ _____    ______ ____

>  <TORSDO>
F 0

$$$$
=
 OpenBabel10262420483D

 28 33  0  0  1  0  0  0  0  0999 V2000
  187.8450  177.7200  142.5980 C   0  0  0  0  0  0  0  0  0  0  0  0
  189.0440  177.2150  143.3740 C   0  0  1  0  0  3  0  0  0  0  0  0
  190.0960  176.7910  141.0760 C   0  0  2  0  0  3  0  0  0  0  0  0
  189.5190  176.0500  137.1650 C   0  0  0  0  0  3  0  0  0  0  0  0
  184.3670  179.1150  140.6220 N   0  0  0  0  0  1  0  0  0  0  0  0
  190.4930  179.0330  143.6970 C   0  0  1  0  0  3  0  0  0  0  0  0
  190.3320  177.0860  142.5570 C   0  0  1  0  0  3  0  0  0  0  0  0
  189.9750  177.4720  145.6350 C   0  0  0  0  0  1  0  0  0  0  0  0
  192.3860  176.1220  138.2180 C   0  0  0  0  0  3  0  0  0  0  0  0
  189.0660  177.7600  138.8980 C   0  0  2  0  0  3  0  0  0  0  0  0
  189.4300  178.2200  144.4220 C   0  0  2  0  0  3  0  0  0  0  0  0
  191.5700  175.4080  135.9710 C   0  0  0  0  0  0  0  0  0  0  0  0
  189.9450  176.6950  138.2600 C   0  0  0  0  0  0  0  0  0  0  0  0
  191.4360  176.6950  140.3520 C   0  0  0  0  0  2  0  0  0  0  0  0
  192.5240  175.8900  136.7670 C   0  0  0  0  0  3  0  0  0  0  0  0
  186.7450  178.4880  140.5600 C   0  0  0  0  0  0  0  0  0  0  0  0
  189.2100  177.8750  140.4510 C   0  0  1  0  0  3  0  0  0  0  0  0
  191.2650  176.4130  138.8940 C   0  0  0  0  0  0  0  0  0  0  0  0
  185.4920  178.3220  142.6270 C   0  0  0  0  0  3  0  0  0  0  0  0
  186.8010  178.8110  139.1010 C   0  0  0  0  0  2  0  0  0  0  0  0
  185.5440  178.6440  141.2720 C   0  0  0  0  0  0  0  0  0  0  0  0
  191.4980  179.7200  144.6110 C   0  0  0  0  0  1  0  0  0  0  0  0
  191.8200  175.2930  134.6110 O   0  0  0  0  0  1  0  0  0  0  0  0
  190.2630  174.9370  136.5080 C   0  0  0  0  0  2  0  0  0  0  0  0
  187.6140  177.7440  138.3950 C   0  0  0  0  0  2  0  0  0  0  0  0
  186.6320  177.8610  143.2830 C   0  0  0  0  0  3  0  0  0  0  0  0
  187.9030  178.0170  141.2160 C   0  0  0  0  0  0  0  0  0  0  0  0
  191.1420  178.2280  142.7460 O   0  0  0  0  0  0  0  0  0  0  0  0
  1 26  1  0  0  0  0
  2  1  1  6  0  0  0
  2 11  1  0  0  0  0
  3 14  1  6  0  0  0
  3  7  1  0  0  0  0
  4 13  2  0  0  0  0
  5 21  1  0  0  0  0
  6 11  1  0  0  0  0
  6 22  1  1  0  0  0
  7 28  1  6  0  0  0
  7  2  1  0  0  0  0
  9 18  2  0  0  0  0
 10 25  1  1  0  0  0
 10 17  1  0  0  0  0
 11  8  1  1  0  0  0
 12 24  1  0  0  0  0
 12 15  2  0  0  0  0
 13 18  1  0  0  0  0
 13 10  1  0  0  0  0
 15  9  1  0  0  0  0
 16 27  1  0  0  0  0
 16 21  2  0  0  0  0
 17  3  1  0  0  0  0
 17 27  1  1  0  0  0
 18 14  1  0  0  0  0
 19 26  2  0  0  0  0
 20 16  1  0  0  0  0
 21 19  1  0  0  0  0
 23 12  1  0  0  0  0
 24  4  1  0  0  0  0
 25 20  1  0  0  0  0
 27  1  2  0  0  0  0
 28  6  1  0  0  0  0
M  END
>  <MODEL>
7

>  <REMARK>
 VINA RESULT:      -8.0      1.962      2.649
  Name = 
  0 active torsions:
  status: ('A' for Active; 'I' for Inactive)
                            x       y       z     vdW  Elec       q    Type
                         _______ _______ _______ _____ _____    ______ ____

>  <TORSDO>
F 0

$$$$
=
 OpenBabel10262420483D

 28 33  0  0  1  0  0  0  0  0999 V2000
  184.3700  179.0310  143.0240 C   0  0  0  0  0  0  0  0  0  0  0  0
  184.1020  179.3780  141.5730 C   0  0  1  0  0  3  0  0  0  0  0  0
  186.5050  178.5920  141.1540 C   0  0  2  0  0  3  0  0  0  0  0  0
  190.1950  178.0130  142.6470 C   0  0  0  0  0  3  0  0  0  0  0  0
  184.9300  178.1830  147.1360 N   0  0  0  0  0  1  0  0  0  0  0  0
  183.2900  177.4430  140.5210 C   0  0  1  0  0  3  0  0  0  0  0  0
  185.1040  178.7930  140.5750 C   0  0  1  0  0  3  0  0  0  0  0  0
  182.1450  179.6750  140.1150 C   0  0  0  0  0  1  0  0  0  0  0  0
  189.7230  177.4300  139.6850 C   0  0  0  0  0  3  0  0  0  0  0  0
  187.8490  177.2780  142.9450 C   0  0  2  0  0  3  0  0  0  0  0  0
  182.8100  178.7520  141.1320 C   0  0  2  0  0  3  0  0  0  0  0  0
  191.8820  177.5030  140.9330 C   0  0  0  0  0  0  0  0  0  0  0  0
  189.0210  177.7080  142.0760 C   0  0  0  0  0  0  0  0  0  0  0  0
  187.4200  177.9950  140.0880 C   0  0  0  0  0  2  0  0  0  0  0  0
  191.1340  177.0670  139.9200 C   0  0  0  0  0  3  0  0  0  0  0  0
  185.6630  177.9660  144.7970 C   0  0  0  0  0  0  0  0  0  0  0  0
  186.4450  177.6930  142.3940 C   0  0  1  0  0  3  0  0  0  0  0  0
  188.8050  177.7710  140.6020 C   0  0  0  0  0  0  0  0  0  0  0  0
  183.6820  179.2500  145.3420 C   0  0  0  0  0  3  0  0  0  0  0  0
  186.8310  177.1390  145.2310 C   0  0  0  0  0  2  0  0  0  0  0  0
  184.7570  178.4620  145.7490 C   0  0  0  0  0  0  0  0  0  0  0  0
  182.3590  176.8540  139.4710 C   0  0  0  0  0  1  0  0  0  0  0  0
  193.1820  177.0350  141.0620 O   0  0  0  0  0  1  0  0  0  0  0  0
  191.3810  178.5200  141.8990 C   0  0  0  0  0  2  0  0  0  0  0  0
  188.0520  177.5670  144.4420 C   0  0  0  0  0  2  0  0  0  0  0  0
  183.4930  179.5340  143.9920 C   0  0  0  0  0  3  0  0  0  0  0  0
  185.4800  178.2530  143.4270 C   0  0  0  0  0  0  0  0  0  0  0  0
  184.5900  177.6040  140.0120 O   0  0  0  0  0  0  0  0  0  0  0  0
  1 27  2  0  0  0  0
  1 26  1  0  0  0  0
  2  1  1  1  0  0  0
  3 14  1  6  0  0  0
  3 17  1  0  0  0  0
  6 22  1  6  0  0  0
  6 11  1  0  0  0  0
  7 28  1  1  0  0  0
  7  3  1  0  0  0  0
  7  2  1  0  0  0  0
  9 15  1  0  0  0  0
  9 18  2  0  0  0  0
 10 25  1  1  0  0  0
 11  8  1  6  0  0  0
 11  2  1  0  0  0  0
 12 23  1  0  0  0  0
 12 24  1  0  0  0  0
 13  4  2  0  0  0  0
 13 10  1  0  0  0  0
 14 18  1  0  0  0  0
 15 12  2  0  0  0  0
 16 20  1  0  0  0  0
 16 21  2  0  0  0  0
 17 10  1  0  0  0  0
 17 27  1  1  0  0  0
 18 13  1  0  0  0  0
 19 21  1  0  0  0  0
 21  5  1  0  0  0  0
 24  4  1  0  0  0  0
 25 20  1  0  0  0  0
 26 19  2  0  0  0  0
 27 16  1  0  0  0  0
 28  6  1  0  0  0  0
M  END
>  <MODEL>
8

>  <REMARK>
 VINA RESULT:      -7.9      2.288      5.548
  Name = 
  0 active torsions:
  status: ('A' for Active; 'I' for Inactive)
                            x       y       z     vdW  Elec       q    Type
                         _______ _______ _______ _____ _____    ______ ____

>  <TORSDO>
F 0

$$$$
=
 OpenBabel10262420483D

 28 33  0  0  1  0  0  0  0  0999 V2000
  190.4070  176.2450  137.3330 C   0  0  0  0  0  0  0  0  0  0  0  0
  188.8960  176.2930  137.4340 C   0  0  1  0  0  3  0  0  0  0  0  0
  189.2830  176.8410  139.9080 C   0  0  2  0  0  3  0  0  0  0  0  0
  191.7100  176.5650  143.1040 C   0  0  0  0  0  3  0  0  0  0  0  0
  194.6070  176.0030  136.8440 N   0  0  0  0  0  1  0  0  0  0  0  0
  188.2310  178.5110  137.0520 C   0  0  1  0  0  3  0  0  0  0  0  0
  188.3560  176.9660  138.6990 C   0  0  1  0  0  3  0  0  0  0  0  0
  186.9880  176.6070  135.9150 C   0  0  0  0  0  1  0  0  0  0  0  0
  188.9840  177.8970  143.4650 C   0  0  0  0  0  3  0  0  0  0  0  0
  191.6250  177.5030  140.8130 C   0  0  2  0  0  3  0  0  0  0  0  0
  188.3410  177.1670  136.3460 C   0  0  2  0  0  3  0  0  0  0  0  0
  190.6450  177.2510  145.2110 C   0  0  0  0  0  0  0  0  0  0  0  0
  190.9780  177.1470  142.1430 C   0  0  0  0  0  0  0  0  0  0  0  0
  188.6630  177.5530  141.1060 C   0  0  0  0  0  2  0  0  0  0  0  0
  189.6360  178.0080  144.7850 C   0  0  0  0  0  3  0  0  0  0  0  0
  192.6530  176.6790  138.1780 C   0  0  0  0  0  0  0  0  0  0  0  0
  190.6660  177.4170  139.5810 C   0  0  1  0  0  3  0  0  0  0  0  0
  189.5330  177.4680  142.3190 C   0  0  0  0  0  0  0  0  0  0  0  0
  192.3520  175.5670  136.0470 C   0  0  0  0  0  3  0  0  0  0  0  0
  193.5560  177.2210  139.2400 C   0  0  0  0  0  2  0  0  0  0  0  0
  193.1970  176.0890  137.0240 C   0  0  0  0  0  0  0  0  0  0  0  0
  187.1830  179.4490  136.4680 C   0  0  0  0  0  1  0  0  0  0  0  0
  191.1990  177.5030  146.4580 O   0  0  0  0  0  1  0  0  0  0  0  0
  191.1600  176.1050  144.4100 C   0  0  0  0  0  2  0  0  0  0  0  0
  192.9960  176.8410  140.5970 C   0  0  0  0  0  2  0  0  0  0  0  0
  190.9690  175.6410  136.2020 C   0  0  0  0  0  3  0  0  0  0  0  0
  191.2540  176.7540  138.3450 C   0  0  0  0  0  0  0  0  0  0  0  0
  188.0220  178.3110  138.4260 O   0  0  0  0  0  0  0  0  0  0  0  0
  1 27  1  0  0  0  0
  2  1  1  1  0  0  0
  2  7  1  0  0  0  0
  3 14  1  1  0  0  0
  4 24  1  0  0  0  0
  5 21  1  0  0  0  0
  6 22  1  6  0  0  0
  6 28  1  0  0  0  0
  7 28  1  6  0  0  0
  7  3  1  0  0  0  0
  9 15  1  0  0  0  0
 10 25  1  6  0  0  0
 10 13  1  0  0  0  0
 11  8  1  1  0  0  0
 11  6  1  0  0  0  0
 11  2  1  0  0  0  0
 12 23  1  0  0  0  0
 13 18  1  0  0  0  0
 13  4  2  0  0  0  0
 14 18  1  0  0  0  0
 15 12  2  0  0  0  0
 16 27  2  0  0  0  0
 16 20  1  0  0  0  0
 17 27  1  6  0  0  0
 17  3  1  0  0  0  0
 17 10  1  0  0  0  0
 18  9  2  0  0  0  0
 19 26  1  0  0  0  0
 19 21  2  0  0  0  0
 20 25  1  0  0  0  0
 21 16  1  0  0  0  0
 24 12  1  0  0  0  0
 26  1  2  0  0  0  0
M  END
>  <MODEL>
9

>  <REMARK>
 VINA RESULT:      -7.4      3.366      7.981
  Name = 
  0 active torsions:
  status: ('A' for Active; 'I' for Inactive)
                            x       y       z     vdW  Elec       q    Type
                         _______ _______ _______ _____ _____    ______ ____

>  <TORSDO>
F 0

$$$$
