=
 OpenBabel10262422433D

 43 47  0  0  1  0  0  0  0  0999 V2000
  183.7830  178.9360  140.8490 N   0  0  0  0  0  0  0  0  0  0  0  0
  184.7070  179.0090  141.9500 C   0  0  0  0  0  0  0  0  0  0  0  0
  185.7180  179.7580  141.8750 O   0  0  0  0  0  0  0  0  0  0  0  0
  179.8710  175.4310  139.8450 C   0  0  0  0  0  0  0  0  0  0  0  0
  180.3510  177.6200  140.7000 C   0  0  0  0  0  0  0  0  0  0  0  0
  181.3370  175.2340  139.6920 C   0  0  0  0  0  3  0  0  0  0  0  0
  178.9430  174.3170  139.5230 C   0  0  0  0  0  1  0  0  0  0  0  0
  181.6750  177.6610  140.0200 C   0  0  2  0  0  3  0  0  0  0  0  0
  179.3910  176.5580  140.3870 C   0  0  0  0  0  3  0  0  0  0  0  0
  182.1940  176.2590  139.8330 C   0  0  0  0  0  3  0  0  0  0  0  0
  182.4280  178.4790  141.0110 C   0  0  0  0  0  0  0  0  0  0  0  0
  181.5960  178.8980  141.9610 C   0  0  0  0  0  3  0  0  0  0  0  0
  180.3070  178.3190  141.7840 N   0  0  0  0  0  0  0  0  0  0  0  0
  184.5540  178.1260  143.1500 C   0  0  0  0  0  2  0  0  0  0  0  0
  187.5880  177.6350  145.4420 C   0  0  0  0  0  0  0  0  0  0  0  0
  187.1360  178.4030  146.6680 C   0  0  2  0  0  3  0  0  0  0  0  0
  187.4780  177.6490  147.9400 C   0  0  0  0  0  1  0  0  0  0  0  0
  184.9420  178.7190  145.5200 C   0  0  0  0  0  3  0  0  0  0  0  0
  186.6190  177.3230  144.3380 C   0  0  0  0  0  2  0  0  0  0  0  0
  185.6040  178.4610  144.1970 C   0  0  1  0  0  3  0  0  0  0  0  0
  188.8800  177.3770  145.2500 C   0  0  0  0  0  2  0  0  0  0  0  0
  185.6540  178.6920  146.6550 C   0  0  0  0  0  3  0  0  0  0  0  0
  184.2540  179.2660  139.5090 C   0  0  0  0  0  2  0  0  0  0  0  0
  185.2920  178.2360  139.0490 C   0  0  0  0  0  2  0  0  0  0  0  0
  185.3180  178.0400  137.5950 N   0  0  0  0  0  0  0  0  0  0  0  0
  183.9930  177.6580  137.1260 C   0  0  0  0  0  1  0  0  0  0  0  0
  186.2430  176.9620  137.2690 C   0  0  0  0  0  2  0  0  0  0  0  0
  188.4550  176.6780  136.0450 N   0  0  0  0  0  2  0  0  0  0  0  0
  187.2380  177.4000  136.2380 C   0  0  0  0  0  0  0  0  0  0  0  0
  187.0250  178.4390  135.5590 O   0  0  0  0  0  0  0  0  0  0  0  0
  188.8700  175.5880  136.9190 C   0  0  1  0  0  3  0  0  0  0  0  0
  191.1610  174.6780  137.1940 C   0  0  0  0  0  3  0  0  0  0  0  0
  188.6090  174.2470  136.2180 C   0  0  0  0  0  2  0  0  0  0  0  0
  189.2880  173.2140  136.8910 O   0  0  0  0  0  0  0  0  0  0  0  0
  190.3350  175.7320  137.2860 C   0  0  0  0  0  0  0  0  0  0  0  0
  190.6550  173.3900  136.5960 C   0  0  0  0  0  2  0  0  0  0  0  0
  190.8390  177.0040  137.8920 C   0  0  0  0  0  2  0  0  0  0  0  0
  190.2460  177.2400  139.2400 C   0  0  0  0  0  0  0  0  0  0  0  0
  189.1100  177.6180  141.7430 C   0  0  0  0  0  3  0  0  0  0  0  0
  190.2250  176.7950  141.5750 C   0  0  0  0  0  3  0  0  0  0  0  0
  188.5630  178.2600  140.6300 C   0  0  0  0  0  3  0  0  0  0  0  0
  190.7650  176.6230  140.3370 N   0  0  0  0  0  0  0  0  0  0  0  0
  189.1310  178.0710  139.3690 C   0  0  0  0  0  3  0  0  0  0  0  0
  1 11  1  0  0  0  0
  1  2  1  0  0  0  0
  2 14  1  0  0  0  0
  3  2  2  0  0  0  0
  4  9  2  0  0  0  0
  5 13  2  0  0  0  0
  6 10  2  0  0  0  0
  6  4  1  0  0  0  0
  7  4  1  0  0  0  0
  8 10  1  1  0  0  0
  8  5  1  0  0  0  0
  8 11  1  0  0  0  0
  9  5  1  0  0  0  0
 11 12  2  0  0  0  0
 13 12  1  0  0  0  0
 15 16  1  0  0  0  0
 16 17  1  1  0  0  0
 18 22  2  0  0  0  0
 19 15  1  0  0  0  0
 20 14  1  6  0  0  0
 20 19  1  0  0  0  0
 20 18  1  0  0  0  0
 21 15  2  0  0  0  0
 22 16  1  0  0  0  0
 23  1  1  0  0  0  0
 24 23  1  0  0  0  0
 25 24  1  0  0  0  0
 26 25  1  0  0  0  0
 27 25  1  0  0  0  0
 28 29  1  0  0  0  0
 29 27  1  0  0  0  0
 30 29  2  0  0  0  0
 31 28  1  6  0  0  0
 31 35  1  0  0  0  0
 32 35  2  0  0  0  0
 33 34  1  0  0  0  0
 33 31  1  0  0  0  0
 35 37  1  0  0  0  0
 36 34  1  0  0  0  0
 36 32  1  0  0  0  0
 37 38  1  0  0  0  0
 38 43  2  0  0  0  0
 38 42  1  0  0  0  0
 40 39  1  0  0  0  0
 41 39  2  0  0  0  0
 42 40  2  0  0  0  0
 43 41  1  0  0  0  0
M  END
>  <MODEL>
1

>  <REMARK>
 VINA RESULT:      -8.9      0.000      0.000
  Name = 
  11 active torsions:
  status: ('A' for Active; 'I' for Inactive)
    1  A    between atoms: C_1  and  C_34
    2  A    between atoms: C_1  and  C_35
    3  A    between atoms: N_2  and  C_6
    4  A    between atoms: N_2  and  C_13
    5  A    between atoms: N_3  and  C_4
    6  A    between atoms: C_6  and  C_12
    7  A    between atoms: N_8  and  C_27
    8  A    between atoms: N_8  and  C_30
    9  A    between atoms: C_11  and  C_14
   10  A    between atoms: C_13  and  C_27
   11  A    between atoms: C_14  and  C_41
                            x       y       z     vdW  Elec       q    Type
                         _______ _______ _______ _____ _____    ______ ____

>  <TORSDO>
F 11

$$$$
=
 OpenBabel10262422433D

 43 47  0  0  1  0  0  0  0  0999 V2000
  184.9490  177.4260  137.1070 N   0  0  0  0  0  0  0  0  0  0  0  0
  184.3390  178.0030  138.2770 C   0  0  0  0  0  0  0  0  0  0  0  0
  184.6840  179.1520  138.6640 O   0  0  0  0  0  0  0  0  0  0  0  0
  184.0280  172.2290  136.2500 C   0  0  0  0  0  0  0  0  0  0  0  0
  183.8640  174.4190  135.2870 C   0  0  0  0  0  0  0  0  0  0  0  0
  184.5180  172.8770  137.4950 C   0  0  0  0  0  3  0  0  0  0  0  0
  183.8230  170.7580  136.2200 C   0  0  0  0  0  1  0  0  0  0  0  0
  184.8650  174.9780  136.2380 C   0  0  2  0  0  3  0  0  0  0  0  0
  183.6540  172.9710  135.2000 C   0  0  0  0  0  3  0  0  0  0  0  0
  184.8530  174.1780  137.5140 C   0  0  0  0  0  3  0  0  0  0  0  0
  184.3290  176.3610  136.3620 C   0  0  0  0  0  0  0  0  0  0  0  0
  183.3150  176.5210  135.5160 C   0  0  0  0  0  3  0  0  0  0  0  0
  183.0000  175.2870  134.8790 N   0  0  0  0  0  0  0  0  0  0  0  0
  183.3770  177.2200  139.1160 C   0  0  0  0  0  2  0  0  0  0  0  0
  182.5970  178.7040  142.5630 C   0  0  0  0  0  0  0  0  0  0  0  0
  181.1120  178.9770  142.4180 C   0  0  2  0  0  3  0  0  0  0  0  0
  180.3600  178.5760  143.6740 C   0  0  0  0  0  1  0  0  0  0  0  0
  181.2430  177.8590  140.1890 C   0  0  0  0  0  3  0  0  0  0  0  0
  183.3230  177.8780  141.5410 C   0  0  0  0  0  2  0  0  0  0  0  0
  182.7220  178.1160  140.1540 C   0  0  1  0  0  3  0  0  0  0  0  0
  183.3060  179.3310  143.5000 C   0  0  0  0  0  2  0  0  0  0  0  0
  180.5070  178.2580  141.2360 C   0  0  0  0  0  3  0  0  0  0  0  0
  186.2730  177.8830  136.7030 C   0  0  0  0  0  2  0  0  0  0  0  0
  187.3390  177.2970  137.6360 C   0  0  0  0  0  2  0  0  0  0  0  0
  187.9750  178.2970  138.5000 N   0  0  0  0  0  0  0  0  0  0  0  0
  189.2150  178.7580  137.8900 C   0  0  0  0  0  1  0  0  0  0  0  0
  188.2990  177.6910  139.7850 C   0  0  0  0  0  2  0  0  0  0  0  0
  188.3310  178.4500  142.2130 N   0  0  0  0  0  2  0  0  0  0  0  0
  187.7330  178.4930  140.9160 C   0  0  0  0  0  0  0  0  0  0  0  0
  186.6960  179.1840  140.7410 O   0  0  0  0  0  0  0  0  0  0  0  0
  189.4080  177.5290  142.5510 C   0  0  1  0  0  3  0  0  0  0  0  0
  190.3890  177.1300  144.7950 C   0  0  0  0  0  3  0  0  0  0  0  0
  190.7600  178.2010  142.2720 C   0  0  0  0  0  2  0  0  0  0  0  0
  191.7950  177.4710  142.8850 O   0  0  0  0  0  0  0  0  0  0  0  0
  189.3050  177.1040  144.0040 C   0  0  0  0  0  0  0  0  0  0  0  0
  191.6760  177.7110  144.2680 C   0  0  0  0  0  2  0  0  0  0  0  0
  188.0330  176.5130  144.5280 C   0  0  0  0  0  2  0  0  0  0  0  0
  187.3840  177.4120  145.5260 C   0  0  0  0  0  0  0  0  0  0  0  0
  186.1400  179.0290  147.4070 C   0  0  0  0  0  3  0  0  0  0  0  0
  187.2110  178.2070  147.7600 C   0  0  0  0  0  3  0  0  0  0  0  0
  185.6930  179.0350  146.0840 C   0  0  0  0  0  3  0  0  0  0  0  0
  187.8050  177.4210  146.8200 N   0  0  0  0  0  0  0  0  0  0  0  0
  186.3160  178.2210  145.1360 C   0  0  0  0  0  3  0  0  0  0  0  0
  1  2  1  0  0  0  0
  2  3  2  0  0  0  0
  2 14  1  0  0  0  0
  4  6  1  0  0  0  0
  5  8  1  0  0  0  0
  6 10  2  0  0  0  0
  7  4  1  0  0  0  0
  8 11  1  0  0  0  0
  8 10  1  1  0  0  0
  9  5  1  0  0  0  0
  9  4  2  0  0  0  0
 11  1  1  0  0  0  0
 12 11  2  0  0  0  0
 13  5  2  0  0  0  0
 13 12  1  0  0  0  0
 15 21  2  0  0  0  0
 16 15  1  0  0  0  0
 16 17  1  1  0  0  0
 18 22  2  0  0  0  0
 19 15  1  0  0  0  0
 20 14  1  6  0  0  0
 20 18  1  0  0  0  0
 20 19  1  0  0  0  0
 22 16  1  0  0  0  0
 23  1  1  0  0  0  0
 23 24  1  0  0  0  0
 24 25  1  0  0  0  0
 25 27  1  0  0  0  0
 26 25  1  0  0  0  0
 27 29  1  0  0  0  0
 29 28  1  0  0  0  0
 30 29  2  0  0  0  0
 31 28  1  1  0  0  0
 31 35  1  0  0  0  0
 33 31  1  0  0  0  0
 33 34  1  0  0  0  0
 34 36  1  0  0  0  0
 35 37  1  0  0  0  0
 35 32  2  0  0  0  0
 36 32  1  0  0  0  0
 37 38  1  0  0  0  0
 38 42  1  0  0  0  0
 39 40  1  0  0  0  0
 41 39  2  0  0  0  0
 42 40  2  0  0  0  0
 43 38  2  0  0  0  0
 43 41  1  0  0  0  0
M  END
>  <MODEL>
2

>  <REMARK>
 VINA RESULT:      -8.2      2.812      6.177
  Name = 
  11 active torsions:
  status: ('A' for Active; 'I' for Inactive)
    1  A    between atoms: C_1  and  C_34
    2  A    between atoms: C_1  and  C_35
    3  A    between atoms: N_2  and  C_6
    4  A    between atoms: N_2  and  C_13
    5  A    between atoms: N_3  and  C_4
    6  A    between atoms: C_6  and  C_12
    7  A    between atoms: N_8  and  C_27
    8  A    between atoms: N_8  and  C_30
    9  A    between atoms: C_11  and  C_14
   10  A    between atoms: C_13  and  C_27
   11  A    between atoms: C_14  and  C_41
                            x       y       z     vdW  Elec       q    Type
                         _______ _______ _______ _____ _____    ______ ____

>  <TORSDO>
F 11

$$$$
=
 OpenBabel10262422433D

 43 47  0  0  1  0  0  0  0  0999 V2000
  184.8530  178.6440  142.1910 N   0  0  0  0  0  0  0  0  0  0  0  0
  185.7440  179.1610  141.1860 C   0  0  0  0  0  0  0  0  0  0  0  0
  185.3380  179.3120  140.0020 O   0  0  0  0  0  0  0  0  0  0  0  0
  187.4730  177.5600  146.7250 C   0  0  0  0  0  0  0  0  0  0  0  0
  185.5140  178.5970  145.8090 C   0  0  0  0  0  0  0  0  0  0  0  0
  187.9090  177.2880  145.3290 C   0  0  0  0  0  3  0  0  0  0  0  0
  188.3610  177.1910  147.8570 C   0  0  0  0  0  1  0  0  0  0  0  0
  185.6320  177.8350  144.5350 C   0  0  2  0  0  3  0  0  0  0  0  0
  186.3470  178.2450  146.9630 C   0  0  0  0  0  3  0  0  0  0  0  0
  187.0740  177.4740  144.2930 C   0  0  0  0  0  3  0  0  0  0  0  0
  185.0770  178.8510  143.5980 C   0  0  0  0  0  0  0  0  0  0  0  0
  184.6260  179.8930  144.2900 C   0  0  0  0  0  3  0  0  0  0  0  0
  184.9440  179.7470  145.6710 N   0  0  0  0  0  0  0  0  0  0  0  0
  187.1870  179.4230  141.4900 C   0  0  0  0  0  2  0  0  0  0  0  0
  190.1360  176.9750  141.3950 C   0  0  0  0  0  0  0  0  0  0  0  0
  190.3030  176.8000  139.8990 C   0  0  2  0  0  3  0  0  0  0  0  0
  191.7700  176.8160  139.5090 C   0  0  0  0  0  1  0  0  0  0  0  0
  188.5380  178.5430  139.6150 C   0  0  0  0  0  3  0  0  0  0  0  0
  189.2470  178.0550  141.9420 C   0  0  0  0  0  2  0  0  0  0  0  0
  188.0520  178.2690  141.0090 C   0  0  1  0  0  3  0  0  0  0  0  0
  190.6370  176.0720  142.2370 C   0  0  0  0  0  2  0  0  0  0  0  0
  189.5760  177.8620  139.1090 C   0  0  0  0  0  3  0  0  0  0  0  0
  183.7240  177.8190  141.7760 C   0  0  0  0  0  2  0  0  0  0  0  0
  182.4100  178.5750  142.0080 C   0  0  0  0  0  2  0  0  0  0  0  0
  181.6400  178.8020  140.7800 N   0  0  0  0  0  0  0  0  0  0  0  0
  180.2460  178.4420  140.9990 C   0  0  0  0  0  1  0  0  0  0  0  0
  182.1660  177.9550  139.7160 C   0  0  0  0  0  2  0  0  0  0  0  0
  182.8320  178.1000  137.2660 N   0  0  0  0  0  2  0  0  0  0  0  0
  182.3710  178.7390  138.4570 C   0  0  0  0  0  0  0  0  0  0  0  0
  182.1760  179.9830  138.4500 O   0  0  0  0  0  0  0  0  0  0  0  0
  183.2700  176.7100  137.2390 C   0  0  1  0  0  3  0  0  0  0  0  0
  184.7910  175.6500  135.5900 C   0  0  0  0  0  3  0  0  0  0  0  0
  182.2020  175.8530  136.5430 C   0  0  0  0  0  2  0  0  0  0  0  0
  182.7350  174.5920  136.2190 O   0  0  0  0  0  0  0  0  0  0  0  0
  184.6060  176.5890  136.5310 C   0  0  0  0  0  0  0  0  0  0  0  0
  183.6230  174.8070  135.1460 C   0  0  0  0  0  2  0  0  0  0  0  0
  185.7730  177.4150  136.9770 C   0  0  0  0  0  2  0  0  0  0  0  0
  187.0690  176.7490  136.6550 C   0  0  0  0  0  0  0  0  0  0  0  0
  189.5050  175.5360  136.1130 C   0  0  0  0  0  3  0  0  0  0  0  0
  188.6100  174.9780  137.0270 C   0  0  0  0  0  3  0  0  0  0  0  0
  189.1620  176.7240  135.4630 C   0  0  0  0  0  3  0  0  0  0  0  0
  187.4200  175.5910  137.2780 N   0  0  0  0  0  0  0  0  0  0  0  0
  187.9380  177.3370  135.7340 C   0  0  0  0  0  3  0  0  0  0  0  0
  1 11  1  0  0  0  0
  2 14  1  0  0  0  0
  2  1  1  0  0  0  0
  3  2  2  0  0  0  0
  4  9  2  0  0  0  0
  4  7  1  0  0  0  0
  5  9  1  0  0  0  0
  6  4  1  0  0  0  0
  8 10  1  6  0  0  0
  8  5  1  0  0  0  0
 10  6  2  0  0  0  0
 11 12  2  0  0  0  0
 11  8  1  0  0  0  0
 12 13  1  0  0  0  0
 13  5  2  0  0  0  0
 15 19  1  0  0  0  0
 15 21  2  0  0  0  0
 16 17  1  1  0  0  0
 16 15  1  0  0  0  0
 18 20  1  0  0  0  0
 20 14  1  1  0  0  0
 20 19  1  0  0  0  0
 22 18  2  0  0  0  0
 22 16  1  0  0  0  0
 23 24  1  0  0  0  0
 23  1  1  0  0  0  0
 25 26  1  0  0  0  0
 25 24  1  0  0  0  0
 27 25  1  0  0  0  0
 28 29  1  0  0  0  0
 29 27  1  0  0  0  0
 30 29  2  0  0  0  0
 31 28  1  6  0  0  0
 32 35  2  0  0  0  0
 33 31  1  0  0  0  0
 34 33  1  0  0  0  0
 35 37  1  0  0  0  0
 35 31  1  0  0  0  0
 36 32  1  0  0  0  0
 36 34  1  0  0  0  0
 38 37  1  0  0  0  0
 38 42  1  0  0  0  0
 39 40  1  0  0  0  0
 40 42  2  0  0  0  0
 41 43  1  0  0  0  0
 41 39  2  0  0  0  0
 43 38  2  0  0  0  0
M  END
>  <MODEL>
3

>  <REMARK>
 VINA RESULT:      -8.2      2.158      6.170
  Name = 
  11 active torsions:
  status: ('A' for Active; 'I' for Inactive)
    1  A    between atoms: C_1  and  C_34
    2  A    between atoms: C_1  and  C_35
    3  A    between atoms: N_2  and  C_6
    4  A    between atoms: N_2  and  C_13
    5  A    between atoms: N_3  and  C_4
    6  A    between atoms: C_6  and  C_12
    7  A    between atoms: N_8  and  C_27
    8  A    between atoms: N_8  and  C_30
    9  A    between atoms: C_11  and  C_14
   10  A    between atoms: C_13  and  C_27
   11  A    between atoms: C_14  and  C_41
                            x       y       z     vdW  Elec       q    Type
                         _______ _______ _______ _____ _____    ______ ____

>  <TORSDO>
F 11

$$$$
=
 OpenBabel10262422433D

 43 47  0  0  1  0  0  0  0  0999 V2000
  189.3240  177.4640  138.0670 N   0  0  0  0  0  0  0  0  0  0  0  0
  188.9770  177.6270  139.4550 C   0  0  0  0  0  0  0  0  0  0  0  0
  188.1070  178.4770  139.7900 O   0  0  0  0  0  0  0  0  0  0  0  0
  193.6650  174.5080  137.0630 C   0  0  0  0  0  0  0  0  0  0  0  0
  191.3280  174.7580  136.5870 C   0  0  0  0  0  0  0  0  0  0  0  0
  193.5340  175.6490  138.0080 C   0  0  0  0  0  3  0  0  0  0  0  0
  194.9670  173.8030  136.9390 C   0  0  0  0  0  1  0  0  0  0  0  0
  191.3300  176.1820  137.0240 C   0  0  2  0  0  3  0  0  0  0  0  0
  192.5920  174.0340  136.4180 C   0  0  0  0  0  3  0  0  0  0  0  0
  192.4200  176.3990  138.0400 C   0  0  0  0  0  3  0  0  0  0  0  0
  189.9450  176.2660  137.5660 C   0  0  0  0  0  0  0  0  0  0  0  0
  189.3040  175.1270  137.3210 C   0  0  0  0  0  3  0  0  0  0  0  0
  190.1900  174.1710  136.7480 N   0  0  0  0  0  0  0  0  0  0  0  0
  189.7080  176.8850  140.5300 C   0  0  0  0  0  2  0  0  0  0  0  0
  190.5440  178.4360  143.9340 C   0  0  0  0  0  0  0  0  0  0  0  0
  189.3790  177.9290  144.7630 C   0  0  2  0  0  3  0  0  0  0  0  0
  189.8460  177.4630  146.1300 C   0  0  0  0  0  1  0  0  0  0  0  0
  188.6790  176.6110  142.7620 C   0  0  0  0  0  3  0  0  0  0  0  0
  190.8000  177.8840  142.5620 C   0  0  0  0  0  2  0  0  0  0  0  0
  189.4730  177.5350  141.8830 C   0  0  1  0  0  3  0  0  0  0  0  0
  191.2470  179.4920  144.3400 C   0  0  0  0  0  2  0  0  0  0  0  0
  188.6400  176.7980  144.0880 C   0  0  0  0  0  3  0  0  0  0  0  0
  189.1070  178.5770  137.1490 C   0  0  0  0  0  2  0  0  0  0  0  0
  187.6280  178.6480  136.7520 C   0  0  0  0  0  2  0  0  0  0  0  0
  187.1700  177.4820  135.9890 N   0  0  0  0  0  0  0  0  0  0  0  0
  187.5770  177.6120  134.5980 C   0  0  0  0  0  1  0  0  0  0  0  0
  185.7140  177.4170  136.0320 C   0  0  0  0  0  2  0  0  0  0  0  0
  184.1210  176.8270  137.9260 N   0  0  0  0  0  2  0  0  0  0  0  0
  185.2490  176.4930  137.1150 C   0  0  0  0  0  0  0  0  0  0  0  0
  185.8770  175.4260  137.3450 O   0  0  0  0  0  0  0  0  0  0  0  0
  183.4620  178.1240  137.8590 C   0  0  1  0  0  3  0  0  0  0  0  0
  182.2990  179.3110  139.7010 C   0  0  0  0  0  3  0  0  0  0  0  0
  182.0390  177.9450  137.3100 C   0  0  0  0  0  2  0  0  0  0  0  0
  181.2860  179.1110  137.5390 O   0  0  0  0  0  0  0  0  0  0  0  0
  183.4360  178.7770  139.2280 C   0  0  0  0  0  0  0  0  0  0  0  0
  181.0200  179.1390  138.9220 C   0  0  0  0  0  2  0  0  0  0  0  0
  184.7060  178.9620  139.9990 C   0  0  0  0  0  2  0  0  0  0  0  0
  184.4810  178.8100  141.4660 C   0  0  0  0  0  0  0  0  0  0  0  0
  184.0620  178.5950  144.2000 C   0  0  0  0  0  3  0  0  0  0  0  0
  183.0020  178.8400  143.3260 C   0  0  0  0  0  3  0  0  0  0  0  0
  185.3520  178.4550  143.6840 C   0  0  0  0  0  3  0  0  0  0  0  0
  183.2310  178.9420  141.9880 N   0  0  0  0  0  0  0  0  0  0  0  0
  185.5670  178.5640  142.3090 C   0  0  0  0  0  3  0  0  0  0  0  0
  1  2  1  0  0  0  0
  2  3  2  0  0  0  0
  2 14  1  0  0  0  0
  4  6  1  0  0  0  0
  5 13  2  0  0  0  0
  5  8  1  0  0  0  0
  6 10  2  0  0  0  0
  7  4  1  0  0  0  0
  8 11  1  0  0  0  0
  8 10  1  1  0  0  0
  9  5  1  0  0  0  0
  9  4  2  0  0  0  0
 11  1  1  0  0  0  0
 12 11  2  0  0  0  0
 13 12  1  0  0  0  0
 15 21  2  0  0  0  0
 15 16  1  0  0  0  0
 16 17  1  1  0  0  0
 18 22  2  0  0  0  0
 19 15  1  0  0  0  0
 20 14  1  6  0  0  0
 20 19  1  0  0  0  0
 20 18  1  0  0  0  0
 22 16  1  0  0  0  0
 23  1  1  0  0  0  0
 24 23  1  0  0  0  0
 25 27  1  0  0  0  0
 25 24  1  0  0  0  0
 26 25  1  0  0  0  0
 27 29  1  0  0  0  0
 29 30  2  0  0  0  0
 29 28  1  0  0  0  0
 31 28  1  1  0  0  0
 31 35  1  0  0  0  0
 33 34  1  0  0  0  0
 33 31  1  0  0  0  0
 34 36  1  0  0  0  0
 35 32  2  0  0  0  0
 35 37  1  0  0  0  0
 36 32  1  0  0  0  0
 37 38  1  0  0  0  0
 38 42  2  0  0  0  0
 38 43  1  0  0  0  0
 40 39  2  0  0  0  0
 41 39  1  0  0  0  0
 42 40  1  0  0  0  0
 43 41  2  0  0  0  0
M  END
>  <MODEL>
4

>  <REMARK>
 VINA RESULT:      -7.9      2.239      7.783
  Name = 
  11 active torsions:
  status: ('A' for Active; 'I' for Inactive)
    1  A    between atoms: C_1  and  C_34
    2  A    between atoms: C_1  and  C_35
    3  A    between atoms: N_2  and  C_6
    4  A    between atoms: N_2  and  C_13
    5  A    between atoms: N_3  and  C_4
    6  A    between atoms: C_6  and  C_12
    7  A    between atoms: N_8  and  C_27
    8  A    between atoms: N_8  and  C_30
    9  A    between atoms: C_11  and  C_14
   10  A    between atoms: C_13  and  C_27
   11  A    between atoms: C_14  and  C_41
                            x       y       z     vdW  Elec       q    Type
                         _______ _______ _______ _____ _____    ______ ____

>  <TORSDO>
F 11

$$$$
=
 OpenBabel10262422433D

 43 47  0  0  1  0  0  0  0  0999 V2000
  187.1990  175.9450  137.1100 N   0  0  0  0  0  0  0  0  0  0  0  0
  186.4590  177.1760  137.0210 C   0  0  0  0  0  0  0  0  0  0  0  0
  186.9870  178.2570  137.3990 O   0  0  0  0  0  0  0  0  0  0  0  0
  184.3450  171.4960  136.3030 C   0  0  0  0  0  0  0  0  0  0  0  0
  186.2930  172.7120  135.6090 C   0  0  0  0  0  0  0  0  0  0  0  0
  184.0260  172.6360  137.2020 C   0  0  0  0  0  3  0  0  0  0  0  0
  183.4060  170.3490  136.2100 C   0  0  0  0  0  1  0  0  0  0  0  0
  186.3120  173.5150  136.8630 C   0  0  2  0  0  3  0  0  0  0  0  0
  185.4060  171.5510  135.4870 C   0  0  0  0  0  3  0  0  0  0  0  0
  184.9170  173.6180  137.4210 C   0  0  0  0  0  3  0  0  0  0  0  0
  186.8650  174.7880  136.3230 C   0  0  0  0  0  0  0  0  0  0  0  0
  187.1980  174.6190  135.0460 C   0  0  0  0  0  3  0  0  0  0  0  0
  186.7950  173.3300  134.5940 N   0  0  0  0  0  0  0  0  0  0  0  0
  185.0250  177.1890  136.5880 C   0  0  0  0  0  2  0  0  0  0  0  0
  181.8240  176.4370  138.5600 C   0  0  0  0  0  0  0  0  0  0  0  0
  181.8990  177.5090  139.6290 C   0  0  2  0  0  3  0  0  0  0  0  0
  180.5390  178.1450  139.8580 C   0  0  0  0  0  1  0  0  0  0  0  0
  183.9130  178.3870  138.4440 C   0  0  0  0  0  3  0  0  0  0  0  0
  182.7460  176.4760  137.3760 C   0  0  0  0  0  2  0  0  0  0  0  0
  184.1040  177.0490  137.7900 C   0  0  1  0  0  3  0  0  0  0  0  0
  181.0620  175.3600  138.7410 C   0  0  0  0  0  2  0  0  0  0  0  0
  182.8950  178.5930  139.2910 C   0  0  0  0  0  3  0  0  0  0  0  0
  188.2800  175.8400  138.0840 C   0  0  0  0  0  2  0  0  0  0  0  0
  189.5550  176.4810  137.5230 C   0  0  0  0  0  2  0  0  0  0  0  0
  190.3580  177.1710  138.5380 N   0  0  0  0  0  0  0  0  0  0  0  0
  191.7420  176.7260  138.4580 C   0  0  0  0  0  1  0  0  0  0  0  0
  189.8510  176.8410  139.8640 C   0  0  0  0  0  2  0  0  0  0  0  0
  189.3400  178.2780  141.9000 N   0  0  0  0  0  2  0  0  0  0  0  0
  189.1980  178.0290  140.5010 C   0  0  0  0  0  0  0  0  0  0  0  0
  188.4800  178.7990  139.8100 O   0  0  0  0  0  0  0  0  0  0  0  0
  189.9850  177.3340  142.8040 C   0  0  1  0  0  3  0  0  0  0  0  0
  189.4840  176.9820  145.2080 C   0  0  0  0  0  3  0  0  0  0  0  0
  191.2830  177.9520  143.3450 C   0  0  0  0  0  2  0  0  0  0  0  0
  191.7440  177.2110  144.4480 O   0  0  0  0  0  0  0  0  0  0  0  0
  189.0490  176.9640  143.9390 C   0  0  0  0  0  0  0  0  0  0  0  0
  190.8660  177.5030  145.5090 C   0  0  0  0  0  2  0  0  0  0  0  0
  187.6800  176.4330  143.6440 C   0  0  0  0  0  2  0  0  0  0  0  0
  186.6210  177.4110  144.0260 C   0  0  0  0  0  0  0  0  0  0  0  0
  184.6950  179.2820  144.7270 C   0  0  0  0  0  3  0  0  0  0  0  0
  184.9970  179.0260  143.3890 C   0  0  0  0  0  3  0  0  0  0  0  0
  185.3760  178.5800  145.7250 C   0  0  0  0  0  3  0  0  0  0  0  0
  185.9460  178.1040  143.0680 N   0  0  0  0  0  0  0  0  0  0  0  0
  186.3460  177.6400  145.3760 C   0  0  0  0  0  3  0  0  0  0  0  0
  1 23  1  0  0  0  0
  2  1  1  0  0  0  0
  2  3  2  0  0  0  0
  4  6  1  0  0  0  0
  5  8  1  0  0  0  0
  6 10  2  0  0  0  0
  7  4  1  0  0  0  0
  8 10  1  6  0  0  0
  9  5  1  0  0  0  0
  9  4  2  0  0  0  0
 11  8  1  0  0  0  0
 11  1  1  0  0  0  0
 12 11  2  0  0  0  0
 13 12  1  0  0  0  0
 13  5  2  0  0  0  0
 14  2  1  0  0  0  0
 15 21  2  0  0  0  0
 15 16  1  0  0  0  0
 16 17  1  6  0  0  0
 18 22  2  0  0  0  0
 19 20  1  0  0  0  0
 19 15  1  0  0  0  0
 20 14  1  6  0  0  0
 20 18  1  0  0  0  0
 22 16  1  0  0  0  0
 24 23  1  0  0  0  0
 24 25  1  0  0  0  0
 25 27  1  0  0  0  0
 26 25  1  0  0  0  0
 27 29  1  0  0  0  0
 29 28  1  0  0  0  0
 30 29  2  0  0  0  0
 31 28  1  6  0  0  0
 31 33  1  0  0  0  0
 31 35  1  0  0  0  0
 32 36  1  0  0  0  0
 33 34  1  0  0  0  0
 34 36  1  0  0  0  0
 35 32  2  0  0  0  0
 37 35  1  0  0  0  0
 37 38  1  0  0  0  0
 38 43  1  0  0  0  0
 39 41  1  0  0  0  0
 40 39  2  0  0  0  0
 42 40  1  0  0  0  0
 42 38  2  0  0  0  0
 43 41  2  0  0  0  0
M  END
>  <MODEL>
5

>  <REMARK>
 VINA RESULT:      -7.8      2.570      7.268
  Name = 
  11 active torsions:
  status: ('A' for Active; 'I' for Inactive)
    1  A    between atoms: C_1  and  C_34
    2  A    between atoms: C_1  and  C_35
    3  A    between atoms: N_2  and  C_6
    4  A    between atoms: N_2  and  C_13
    5  A    between atoms: N_3  and  C_4
    6  A    between atoms: C_6  and  C_12
    7  A    between atoms: N_8  and  C_27
    8  A    between atoms: N_8  and  C_30
    9  A    between atoms: C_11  and  C_14
   10  A    between atoms: C_13  and  C_27
   11  A    between atoms: C_14  and  C_41
                            x       y       z     vdW  Elec       q    Type
                         _______ _______ _______ _____ _____    ______ ____

>  <TORSDO>
F 11

$$$$
=
 OpenBabel10262422433D

 43 47  0  0  1  0  0  0  0  0999 V2000
  189.8230  177.5190  140.2520 N   0  0  0  0  0  0  0  0  0  0  0  0
  189.5190  177.2180  141.6260 C   0  0  0  0  0  0  0  0  0  0  0  0
  188.3180  177.1260  141.9990 O   0  0  0  0  0  0  0  0  0  0  0  0
  192.7880  175.6270  136.2240 C   0  0  0  0  0  0  0  0  0  0  0  0
  192.8240  176.2600  138.5370 C   0  0  0  0  0  0  0  0  0  0  0  0
  191.3730  176.0820  136.1830 C   0  0  0  0  0  3  0  0  0  0  0  0
  193.4410  175.1440  134.9800 C   0  0  0  0  0  1  0  0  0  0  0  0
  191.3440  176.1450  138.6540 C   0  0  2  0  0  3  0  0  0  0  0  0
  193.5130  175.7660  137.3420 C   0  0  0  0  0  3  0  0  0  0  0  0
  190.7080  176.3860  137.3100 C   0  0  0  0  0  3  0  0  0  0  0  0
  191.1000  177.2140  139.6620 C   0  0  0  0  0  0  0  0  0  0  0  0
  192.2650  177.6950  140.0870 C   0  0  0  0  0  3  0  0  0  0  0  0
  193.3390  177.1250  139.3450 N   0  0  0  0  0  0  0  0  0  0  0  0
  190.6010  177.1190  142.6560 C   0  0  0  0  0  2  0  0  0  0  0  0
  188.4870  177.6120  145.8150 C   0  0  0  0  0  0  0  0  0  0  0  0
  189.4090  177.0170  146.8610 C   0  0  2  0  0  3  0  0  0  0  0  0
  189.4360  177.8740  148.1140 C   0  0  0  0  0  1  0  0  0  0  0  0
  191.1060  176.7540  145.0490 C   0  0  0  0  0  3  0  0  0  0  0  0
  188.9840  177.8790  144.4240 C   0  0  0  0  0  2  0  0  0  0  0  0
  190.0100  176.8160  144.0240 C   0  0  1  0  0  3  0  0  0  0  0  0
  187.1850  177.7450  146.0650 C   0  0  0  0  0  2  0  0  0  0  0  0
  190.8220  176.8470  146.3560 C   0  0  0  0  0  3  0  0  0  0  0  0
  188.8310  178.2240  139.4470 C   0  0  0  0  0  2  0  0  0  0  0  0
  187.6870  177.2740  139.0740 C   0  0  0  0  0  2  0  0  0  0  0  0
  186.9270  177.7060  137.8960 N   0  0  0  0  0  0  0  0  0  0  0  0
  187.7010  178.6810  137.1410 C   0  0  0  0  0  1  0  0  0  0  0  0
  185.6890  178.3450  138.3270 C   0  0  0  0  0  2  0  0  0  0  0  0
  183.1730  178.0250  138.1390 N   0  0  0  0  0  2  0  0  0  0  0  0
  184.4970  177.5380  137.9150 C   0  0  0  0  0  0  0  0  0  0  0  0
  184.6540  176.3990  137.4020 O   0  0  0  0  0  0  0  0  0  0  0  0
  182.9000  179.2360  138.9010 C   0  0  1  0  0  3  0  0  0  0  0  0
  180.8920  179.7210  140.2760 C   0  0  0  0  0  3  0  0  0  0  0  0
  182.3040  180.3020  137.9700 C   0  0  0  0  0  2  0  0  0  0  0  0
  181.7400  181.3430  138.7300 O   0  0  0  0  0  0  0  0  0  0  0  0
  181.9580  178.9360  140.0530 C   0  0  0  0  0  0  0  0  0  0  0  0
  180.5620  180.8170  139.2970 C   0  0  0  0  0  2  0  0  0  0  0  0
  182.2890  177.8570  141.0360 C   0  0  0  0  0  2  0  0  0  0  0  0
  183.1690  178.3640  142.1290 C   0  0  0  0  0  0  0  0  0  0  0  0
  184.7930  179.3700  144.1400 C   0  0  0  0  0  3  0  0  0  0  0  0
  183.4030  179.3750  144.2660 C   0  0  0  0  0  3  0  0  0  0  0  0
  185.3690  178.8470  142.9800 C   0  0  0  0  0  3  0  0  0  0  0  0
  182.6260  178.8770  143.2660 N   0  0  0  0  0  0  0  0  0  0  0  0
  184.5550  178.3410  141.9660 C   0  0  0  0  0  3  0  0  0  0  0  0
  1  2  1  0  0  0  0
  2  3  2  0  0  0  0
  2 14  1  0  0  0  0
  4  9  2  0  0  0  0
  5  8  1  0  0  0  0
  5 13  2  0  0  0  0
  6  4  1  0  0  0  0
  6 10  2  0  0  0  0
  7  4  1  0  0  0  0
  8 10  1  6  0  0  0
  8 11  1  0  0  0  0
  9  5  1  0  0  0  0
 11 12  2  0  0  0  0
 11  1  1  0  0  0  0
 13 12  1  0  0  0  0
 15 21  2  0  0  0  0
 15 16  1  0  0  0  0
 16 17  1  1  0  0  0
 18 22  2  0  0  0  0
 19 15  1  0  0  0  0
 20 14  1  6  0  0  0
 20 19  1  0  0  0  0
 20 18  1  0  0  0  0
 22 16  1  0  0  0  0
 23  1  1  0  0  0  0
 24 23  1  0  0  0  0
 25 27  1  0  0  0  0
 25 24  1  0  0  0  0
 26 25  1  0  0  0  0
 29 28  1  0  0  0  0
 29 27  1  0  0  0  0
 30 29  2  0  0  0  0
 31 28  1  6  0  0  0
 31 35  1  0  0  0  0
 33 34  1  0  0  0  0
 33 31  1  0  0  0  0
 34 36  1  0  0  0  0
 35 32  2  0  0  0  0
 35 37  1  0  0  0  0
 36 32  1  0  0  0  0
 37 38  1  0  0  0  0
 38 42  1  0  0  0  0
 39 40  1  0  0  0  0
 41 39  2  0  0  0  0
 42 40  2  0  0  0  0
 43 38  2  0  0  0  0
 43 41  1  0  0  0  0
M  END
>  <MODEL>
6

>  <REMARK>
 VINA RESULT:      -7.8      2.234      8.062
  Name = 
  11 active torsions:
  status: ('A' for Active; 'I' for Inactive)
    1  A    between atoms: C_1  and  C_34
    2  A    between atoms: C_1  and  C_35
    3  A    between atoms: N_2  and  C_6
    4  A    between atoms: N_2  and  C_13
    5  A    between atoms: N_3  and  C_4
    6  A    between atoms: C_6  and  C_12
    7  A    between atoms: N_8  and  C_27
    8  A    between atoms: N_8  and  C_30
    9  A    between atoms: C_11  and  C_14
   10  A    between atoms: C_13  and  C_27
   11  A    between atoms: C_14  and  C_41
                            x       y       z     vdW  Elec       q    Type
                         _______ _______ _______ _____ _____    ______ ____

>  <TORSDO>
F 11

$$$$
=
 OpenBabel10262422433D

 43 47  0  0  1  0  0  0  0  0999 V2000
  188.9280  177.4680  141.4330 N   0  0  0  0  0  0  0  0  0  0  0  0
  189.7110  177.5870  140.2310 C   0  0  0  0  0  0  0  0  0  0  0  0
  189.2680  178.2510  139.2540 O   0  0  0  0  0  0  0  0  0  0  0  0
  188.8260  177.4320  146.7790 C   0  0  0  0  0  0  0  0  0  0  0  0
  190.2250  177.1150  144.8570 C   0  0  0  0  0  0  0  0  0  0  0  0
  187.6850  177.6250  145.8430 C   0  0  0  0  0  3  0  0  0  0  0  0
  188.5830  177.4430  148.2440 C   0  0  0  0  0  1  0  0  0  0  0  0
  189.2870  177.8660  143.9760 C   0  0  2  0  0  3  0  0  0  0  0  0
  190.0430  177.1260  146.3110 C   0  0  0  0  0  3  0  0  0  0  0  0
  187.8870  177.7660  144.5230 C   0  0  0  0  0  3  0  0  0  0  0  0
  189.5140  177.1270  142.7020 C   0  0  0  0  0  0  0  0  0  0  0  0
  190.4960  176.2460  142.8710 C   0  0  0  0  0  3  0  0  0  0  0  0
  190.9060  176.2120  144.2340 N   0  0  0  0  0  0  0  0  0  0  0  0
  191.0010  176.8450  140.0700 C   0  0  0  0  0  2  0  0  0  0  0  0
  191.2440  175.3710  136.5390 C   0  0  0  0  0  0  0  0  0  0  0  0
  192.6340  175.8290  136.1430 C   0  0  2  0  0  3  0  0  0  0  0  0
  193.3900  174.7200  135.4330 C   0  0  0  0  0  1  0  0  0  0  0  0
  192.8760  176.7190  138.4630 C   0  0  0  0  0  3  0  0  0  0  0  0
  190.7770  175.4950  137.9610 C   0  0  0  0  0  2  0  0  0  0  0  0
  191.3820  176.7470  138.6010 C   0  0  1  0  0  3  0  0  0  0  0  0
  190.3630  175.0140  135.6060 C   0  0  0  0  0  2  0  0  0  0  0  0
  193.4470  176.2940  137.3270 C   0  0  0  0  0  3  0  0  0  0  0  0
  187.4800  177.6250  141.3510 C   0  0  0  0  0  2  0  0  0  0  0  0
  187.1160  179.1140  141.3080 C   0  0  0  0  0  2  0  0  0  0  0  0
  185.6820  179.3610  141.1180 N   0  0  0  0  0  0  0  0  0  0  0  0
  184.9420  178.8830  142.2770 C   0  0  0  0  0  1  0  0  0  0  0  0
  185.2160  178.6270  139.9480 C   0  0  0  0  0  2  0  0  0  0  0  0
  182.9280  178.7240  138.8410 N   0  0  0  0  0  2  0  0  0  0  0  0
  184.1330  179.3800  139.2380 C   0  0  0  0  0  0  0  0  0  0  0  0
  184.2960  180.5940  138.9480 O   0  0  0  0  0  0  0  0  0  0  0  0
  182.7410  177.2840  138.9590 C   0  0  1  0  0  3  0  0  0  0  0  0
  181.4440  175.8110  137.4420 C   0  0  0  0  0  3  0  0  0  0  0  0
  181.5910  176.9970  139.9360 C   0  0  0  0  0  2  0  0  0  0  0  0
  181.1850  175.6560  139.8180 O   0  0  0  0  0  0  0  0  0  0  0  0
  182.4610  176.6720  137.5990 C   0  0  0  0  0  0  0  0  0  0  0  0
  180.5010  175.5610  138.5900 C   0  0  0  0  0  2  0  0  0  0  0  0
  183.4030  176.9070  136.4590 C   0  0  0  0  0  2  0  0  0  0  0  0
  184.7150  176.2370  136.6870 C   0  0  0  0  0  0  0  0  0  0  0  0
  187.1430  174.9860  137.1790 C   0  0  0  0  0  3  0  0  0  0  0  0
  185.9600  174.2510  137.0860 C   0  0  0  0  0  3  0  0  0  0  0  0
  187.0970  176.3730  137.0200 C   0  0  0  0  0  3  0  0  0  0  0  0
  184.7800  174.8860  136.8450 N   0  0  0  0  0  0  0  0  0  0  0  0
  185.8780  177.0050  136.7740 C   0  0  0  0  0  3  0  0  0  0  0  0
  1 11  1  0  0  0  0
  2  1  1  0  0  0  0
  3  2  2  0  0  0  0
  4  7  1  0  0  0  0
  5  9  1  0  0  0  0
  6  4  1  0  0  0  0
  8 10  1  1  0  0  0
  8  5  1  0  0  0  0
  9  4  2  0  0  0  0
 10  6  2  0  0  0  0
 11 12  2  0  0  0  0
 11  8  1  0  0  0  0
 12 13  1  0  0  0  0
 13  5  2  0  0  0  0
 14  2  1  0  0  0  0
 15 19  1  0  0  0  0
 16 17  1  1  0  0  0
 16 15  1  0  0  0  0
 16 22  1  0  0  0  0
 18 20  1  0  0  0  0
 19 20  1  0  0  0  0
 20 14  1  1  0  0  0
 21 15  2  0  0  0  0
 22 18  2  0  0  0  0
 23  1  1  0  0  0  0
 24 23  1  0  0  0  0
 25 24  1  0  0  0  0
 25 26  1  0  0  0  0
 27 25  1  0  0  0  0
 28 29  1  0  0  0  0
 29 27  1  0  0  0  0
 30 29  2  0  0  0  0
 31 28  1  6  0  0  0
 31 33  1  0  0  0  0
 32 35  2  0  0  0  0
 32 36  1  0  0  0  0
 34 33  1  0  0  0  0
 35 31  1  0  0  0  0
 36 34  1  0  0  0  0
 37 38  1  0  0  0  0
 37 35  1  0  0  0  0
 38 43  2  0  0  0  0
 38 42  1  0  0  0  0
 40 39  1  0  0  0  0
 41 39  2  0  0  0  0
 42 40  2  0  0  0  0
 43 41  1  0  0  0  0
M  END
>  <MODEL>
7

>  <REMARK>
 VINA RESULT:      -7.7      2.138      8.391
  Name = 
  11 active torsions:
  status: ('A' for Active; 'I' for Inactive)
    1  A    between atoms: C_1  and  C_34
    2  A    between atoms: C_1  and  C_35
    3  A    between atoms: N_2  and  C_6
    4  A    between atoms: N_2  and  C_13
    5  A    between atoms: N_3  and  C_4
    6  A    between atoms: C_6  and  C_12
    7  A    between atoms: N_8  and  C_27
    8  A    between atoms: N_8  and  C_30
    9  A    between atoms: C_11  and  C_14
   10  A    between atoms: C_13  and  C_27
   11  A    between atoms: C_14  and  C_41
                            x       y       z     vdW  Elec       q    Type
                         _______ _______ _______ _____ _____    ______ ____

>  <TORSDO>
F 11

$$$$
=
 OpenBabel10262422433D

 43 47  0  0  1  0  0  0  0  0999 V2000
  187.0970  176.9870  137.1320 N   0  0  0  0  0  0  0  0  0  0  0  0
  186.0910  175.9620  137.0310 C   0  0  0  0  0  0  0  0  0  0  0  0
  184.9000  176.2740  136.7570 O   0  0  0  0  0  0  0  0  0  0  0  0
  192.0690  176.9360  139.0980 C   0  0  0  0  0  0  0  0  0  0  0  0
  190.7670  176.7530  137.0920 C   0  0  0  0  0  0  0  0  0  0  0  0
  190.7890  177.0230  139.8500 C   0  0  0  0  0  3  0  0  0  0  0  0
  193.3560  176.9230  139.8390 C   0  0  0  0  0  1  0  0  0  0  0  0
  189.5910  177.4140  137.7230 C   0  0  2  0  0  3  0  0  0  0  0  0
  192.0660  176.7460  137.7730 C   0  0  0  0  0  3  0  0  0  0  0  0
  189.6180  177.1840  139.2110 C   0  0  0  0  0  3  0  0  0  0  0  0
  188.5010  176.7020  137.0000 C   0  0  0  0  0  0  0  0  0  0  0  0
  189.0300  175.9160  136.0660 C   0  0  0  0  0  3  0  0  0  0  0  0
  190.4510  175.9190  136.1600 N   0  0  0  0  0  0  0  0  0  0  0  0
  186.4040  174.5340  137.3550 C   0  0  0  0  0  2  0  0  0  0  0  0
  183.8380  171.7560  136.7240 C   0  0  0  0  0  0  0  0  0  0  0  0
  184.3840  171.1610  135.4410 C   0  0  2  0  0  3  0  0  0  0  0  0
  184.3320  169.6440  135.4790 C   0  0  0  0  0  1  0  0  0  0  0  0
  186.3230  172.7150  135.6820 C   0  0  0  0  0  3  0  0  0  0  0  0
  184.6540  172.7370  137.5160 C   0  0  0  0  0  2  0  0  0  0  0  0
  185.4970  173.5970  136.5730 C   0  0  1  0  0  3  0  0  0  0  0  0
  182.5690  171.5510  137.0730 C   0  0  0  0  0  2  0  0  0  0  0  0
  185.8040  171.5940  135.1630 C   0  0  0  0  0  3  0  0  0  0  0  0
  186.6860  178.3500  137.4500 C   0  0  0  0  0  2  0  0  0  0  0  0
  186.5420  178.5140  138.9680 C   0  0  0  0  0  2  0  0  0  0  0  0
  185.1500  178.6190  139.4160 N   0  0  0  0  0  0  0  0  0  0  0  0
  184.4670  179.6620  138.6640 C   0  0  0  0  0  1  0  0  0  0  0  0
  185.1220  178.9830  140.8270 C   0  0  0  0  0  2  0  0  0  0  0  0
  184.2560  178.0400  143.0260 N   0  0  0  0  0  2  0  0  0  0  0  0
  184.2120  178.0770  141.5980 C   0  0  0  0  0  0  0  0  0  0  0  0
  183.4250  177.3070  140.9880 O   0  0  0  0  0  0  0  0  0  0  0  0
  185.2680  178.7480  143.7990 C   0  0  1  0  0  3  0  0  0  0  0  0
  186.9680  177.7540  145.3080 C   0  0  0  0  0  3  0  0  0  0  0  0
  184.6490  179.2480  145.1120 C   0  0  0  0  0  2  0  0  0  0  0  0
  185.6650  179.6400  146.0030 O   0  0  0  0  0  0  0  0  0  0  0  0
  186.4560  177.8440  144.0710 C   0  0  0  0  0  0  0  0  0  0  0  0
  186.2730  178.4500  146.4490 C   0  0  0  0  0  2  0  0  0  0  0  0
  187.1580  177.1600  142.9380 C   0  0  0  0  0  2  0  0  0  0  0  0
  188.6370  177.1580  143.1340 C   0  0  0  0  0  0  0  0  0  0  0  0
  191.3960  177.1680  143.4310 C   0  0  0  0  0  3  0  0  0  0  0  0
  190.6740  178.3610  143.3620 C   0  0  0  0  0  3  0  0  0  0  0  0
  190.7110  175.9530  143.3500 C   0  0  0  0  0  3  0  0  0  0  0  0
  189.3210  178.3320  143.2160 N   0  0  0  0  0  0  0  0  0  0  0  0
  189.3240  175.9450  143.1990 C   0  0  0  0  0  3  0  0  0  0  0  0
  1 23  1  0  0  0  0
  2  1  1  0  0  0  0
  2 14  1  0  0  0  0
  3  2  2  0  0  0  0
  4  7  1  0  0  0  0
  4  6  1  0  0  0  0
  5  8  1  0  0  0  0
  5  9  1  0  0  0  0
  8 10  1  1  0  0  0
  9  4  2  0  0  0  0
 10  6  2  0  0  0  0
 11  1  1  0  0  0  0
 11  8  1  0  0  0  0
 12 13  1  0  0  0  0
 12 11  2  0  0  0  0
 13  5  2  0  0  0  0
 15 21  2  0  0  0  0
 15 19  1  0  0  0  0
 16 17  1  1  0  0  0
 16 15  1  0  0  0  0
 18 20  1  0  0  0  0
 20 14  1  1  0  0  0
 20 19  1  0  0  0  0
 22 16  1  0  0  0  0
 22 18  2  0  0  0  0
 23 24  1  0  0  0  0
 24 25  1  0  0  0  0
 25 27  1  0  0  0  0
 26 25  1  0  0  0  0
 27 29  1  0  0  0  0
 29 28  1  0  0  0  0
 30 29  2  0  0  0  0
 31 28  1  1  0  0  0
 31 35  1  0  0  0  0
 31 33  1  0  0  0  0
 32 36  1  0  0  0  0
 33 34  1  0  0  0  0
 34 36  1  0  0  0  0
 35 32  2  0  0  0  0
 37 38  1  0  0  0  0
 37 35  1  0  0  0  0
 38 43  2  0  0  0  0
 38 42  1  0  0  0  0
 40 39  1  0  0  0  0
 41 39  2  0  0  0  0
 42 40  2  0  0  0  0
 43 41  1  0  0  0  0
M  END
>  <MODEL>
8

>  <REMARK>
 VINA RESULT:      -7.6      2.648      8.908
  Name = 
  11 active torsions:
  status: ('A' for Active; 'I' for Inactive)
    1  A    between atoms: C_1  and  C_34
    2  A    between atoms: C_1  and  C_35
    3  A    between atoms: N_2  and  C_6
    4  A    between atoms: N_2  and  C_13
    5  A    between atoms: N_3  and  C_4
    6  A    between atoms: C_6  and  C_12
    7  A    between atoms: N_8  and  C_27
    8  A    between atoms: N_8  and  C_30
    9  A    between atoms: C_11  and  C_14
   10  A    between atoms: C_13  and  C_27
   11  A    between atoms: C_14  and  C_41
                            x       y       z     vdW  Elec       q    Type
                         _______ _______ _______ _____ _____    ______ ____

>  <TORSDO>
F 11

$$$$
=
 OpenBabel10262422433D

 43 47  0  0  1  0  0  0  0  0999 V2000
  189.6550  177.6000  138.3000 N   0  0  0  0  0  0  0  0  0  0  0  0
  189.1440  178.5300  137.3280 C   0  0  0  0  0  0  0  0  0  0  0  0
  189.0470  179.7540  137.6180 O   0  0  0  0  0  0  0  0  0  0  0  0
  193.8140  174.3330  137.5130 C   0  0  0  0  0  0  0  0  0  0  0  0
  191.4730  174.6390  137.0940 C   0  0  0  0  0  0  0  0  0  0  0  0
  193.7740  175.5850  138.3140 C   0  0  0  0  0  3  0  0  0  0  0  0
  195.0770  173.5550  137.4300 C   0  0  0  0  0  1  0  0  0  0  0  0
  191.5560  176.1030  137.3520 C   0  0  2  0  0  3  0  0  0  0  0  0
  192.6950  173.8380  136.9710 C   0  0  0  0  0  3  0  0  0  0  0  0
  192.6970  176.3880  138.2930 C   0  0  0  0  0  3  0  0  0  0  0  0
  190.2010  176.3210  137.9280 C   0  0  0  0  0  0  0  0  0  0  0  0
  189.5000  175.1930  137.8490 C   0  0  0  0  0  3  0  0  0  0  0  0
  190.3180  174.1320  137.3670 N   0  0  0  0  0  0  0  0  0  0  0  0
  188.6170  178.0600  136.0080 C   0  0  0  0  0  2  0  0  0  0  0  0
  185.0380  177.3430  137.1820 C   0  0  0  0  0  0  0  0  0  0  0  0
  184.3390  177.1680  135.8480 C   0  0  2  0  0  3  0  0  0  0  0  0
  183.3790  175.9920  135.8870 C   0  0  0  0  0  1  0  0  0  0  0  0
  186.5830  177.3840  134.7740 C   0  0  0  0  0  3  0  0  0  0  0  0
  186.5370  177.3980  137.2550 C   0  0  0  0  0  2  0  0  0  0  0  0
  187.0970  178.0780  136.0030 C   0  0  1  0  0  3  0  0  0  0  0  0
  184.3340  177.6210  138.2770 C   0  0  0  0  0  2  0  0  0  0  0  0
  185.3110  176.9670  134.7090 C   0  0  0  0  0  3  0  0  0  0  0  0
  189.5520  177.9310  139.7170 C   0  0  0  0  0  2  0  0  0  0  0  0
  188.2110  178.6190  139.9990 C   0  0  0  0  0  2  0  0  0  0  0  0
  187.4720  178.0250  141.1180 N   0  0  0  0  0  0  0  0  0  0  0  0
  186.2980  178.8320  141.4170 C   0  0  0  0  0  1  0  0  0  0  0  0
  188.3220  178.0030  142.3020 C   0  0  0  0  0  2  0  0  0  0  0  0
  187.6110  176.7490  144.3980 N   0  0  0  0  0  2  0  0  0  0  0  0
  188.1400  176.7300  143.0710 C   0  0  0  0  0  0  0  0  0  0  0  0
  188.4930  175.6330  142.5650 O   0  0  0  0  0  0  0  0  0  0  0  0
  187.3650  177.9850  145.1280 C   0  0  1  0  0  3  0  0  0  0  0  0
  187.1020  178.2500  147.5810 C   0  0  0  0  0  3  0  0  0  0  0  0
  185.8620  178.2970  145.1100 C   0  0  0  0  0  2  0  0  0  0  0  0
  185.5650  179.2870  146.0650 O   0  0  0  0  0  0  0  0  0  0  0  0
  187.8760  177.8700  146.5520 C   0  0  0  0  0  0  0  0  0  0  0  0
  185.6760  178.6620  147.3220 C   0  0  0  0  0  2  0  0  0  0  0  0
  189.2960  177.4740  146.8140 C   0  0  0  0  0  2  0  0  0  0  0  0
  190.1650  177.7440  145.6330 C   0  0  0  0  0  0  0  0  0  0  0  0
  191.7270  178.2440  143.3950 C   0  0  0  0  0  3  0  0  0  0  0  0
  190.9800  179.2600  143.9930 C   0  0  0  0  0  3  0  0  0  0  0  0
  191.6850  176.9580  143.9370 C   0  0  0  0  0  3  0  0  0  0  0  0
  190.2200  178.9910  145.0900 N   0  0  0  0  0  0  0  0  0  0  0  0
  190.9000  176.7030  145.0620 C   0  0  0  0  0  3  0  0  0  0  0  0
  1 23  1  0  0  0  0
  2  3  2  0  0  0  0
  2  1  1  0  0  0  0
  4  6  1  0  0  0  0
  5  8  1  0  0  0  0
  5 13  2  0  0  0  0
  7  4  1  0  0  0  0
  8 11  1  0  0  0  0
  8 10  1  1  0  0  0
  9  5  1  0  0  0  0
  9  4  2  0  0  0  0
 10  6  2  0  0  0  0
 11  1  1  0  0  0  0
 12 11  2  0  0  0  0
 13 12  1  0  0  0  0
 14  2  1  0  0  0  0
 15 19  1  0  0  0  0
 15 21  2  0  0  0  0
 16 17  1  1  0  0  0
 16 15  1  0  0  0  0
 18 20  1  0  0  0  0
 20 14  1  1  0  0  0
 20 19  1  0  0  0  0
 22 18  2  0  0  0  0
 22 16  1  0  0  0  0
 23 24  1  0  0  0  0
 24 25  1  0  0  0  0
 25 26  1  0  0  0  0
 25 27  1  0  0  0  0
 27 29  1  0  0  0  0
 29 28  1  0  0  0  0
 30 29  2  0  0  0  0
 31 28  1  6  0  0  0
 31 35  1  0  0  0  0
 33 31  1  0  0  0  0
 33 34  1  0  0  0  0
 34 36  1  0  0  0  0
 35 37  1  0  0  0  0
 35 32  2  0  0  0  0
 36 32  1  0  0  0  0
 38 37  1  0  0  0  0
 39 41  2  0  0  0  0
 39 40  1  0  0  0  0
 40 42  2  0  0  0  0
 41 43  1  0  0  0  0
 42 38  1  0  0  0  0
 43 38  2  0  0  0  0
M  END
>  <MODEL>
9

>  <REMARK>
 VINA RESULT:      -7.6      3.016      9.313
  Name = 
  11 active torsions:
  status: ('A' for Active; 'I' for Inactive)
    1  A    between atoms: C_1  and  C_34
    2  A    between atoms: C_1  and  C_35
    3  A    between atoms: N_2  and  C_6
    4  A    between atoms: N_2  and  C_13
    5  A    between atoms: N_3  and  C_4
    6  A    between atoms: C_6  and  C_12
    7  A    between atoms: N_8  and  C_27
    8  A    between atoms: N_8  and  C_30
    9  A    between atoms: C_11  and  C_14
   10  A    between atoms: C_13  and  C_27
   11  A    between atoms: C_14  and  C_41
                            x       y       z     vdW  Elec       q    Type
                         _______ _______ _______ _____ _____    ______ ____

>  <TORSDO>
F 11

$$$$
