=
 OpenBabel10262421163D

 32 36  0  0  1  0  0  0  0  0999 V2000
  185.2120  178.5310  143.4410 C   0  0  0  0  0  3  0  0  0  0  0  0
  185.2050  178.6390  144.8390 C   0  0  0  0  0  0  0  0  0  0  0  0
  184.0200  178.6300  142.7190 C   0  0  0  0  0  0  0  0  0  0  0  0
  182.8050  178.8320  143.3990 C   0  0  0  0  0  0  0  0  0  0  0  0
  182.8010  178.9400  144.7930 C   0  0  0  0  0  3  0  0  0  0  0  0
  183.9960  178.8430  145.5110 C   0  0  0  0  0  3  0  0  0  0  0  0
  184.0580  178.5290  141.2970 N   0  0  0  0  0  0  0  0  0  0  0  0
  183.9880  179.1090  139.9220 C   0  0  1  0  0  3  0  0  0  0  0  0
  181.1120  175.4790  139.0810 C   0  0  0  0  0  2  0  0  0  0  0  0
  184.1040  177.7300  140.0340 C   0  0  2  0  0  3  0  0  0  0  0  0
  180.6250  177.9750  139.1540 C   0  0  0  0  0  2  0  0  0  0  0  0
  182.0530  178.1710  138.9550 N   0  0  1  0  0  0  0  0  0  0  0  0
  182.5350  179.4000  139.5430 C   0  0  0  0  0  2  0  0  0  0  0  0
  182.7200  177.1890  139.7720 C   0  0  1  0  0  3  0  0  0  0  0  0
  180.2420  176.6260  138.5230 C   0  0  0  0  0  2  0  0  0  0  0  0
  182.6070  175.8340  139.1030 C   0  0  0  0  0  2  0  0  0  0  0  0
  186.4770  178.5750  145.6300 C   0  0  1  0  0  3  0  0  0  0  0  0
  186.1800  178.5120  147.1170 C   0  0  0  0  0  1  0  0  0  0  0  0
  187.3450  177.3900  145.2250 C   0  0  0  0  0  2  0  0  0  0  0  0
  189.4370  177.1990  143.6610 C   0  0  2  0  0  0  0  0  0  0  0  0
  191.7980  176.5810  146.1550 O   0  0  0  0  0  0  0  0  0  0  0  0
  188.6760  176.0000  143.1110 C   0  0  0  0  0  1  0  0  0  0  0  0
  189.6530  177.5300  146.0400 N   0  0  0  0  0  2  0  0  0  0  0  0
  190.7100  176.7570  144.1140 O   0  0  0  0  0  0  0  0  0  0  0  0
  188.7740  177.8400  144.9230 C   0  0  2  0  0  3  0  0  0  0  0  0
  190.7980  176.9290  145.4760 C   0  0  0  0  0  0  0  0  0  0  0  0
  189.6010  178.2300  142.5510 C   0  0  0  0  0  2  0  0  0  0  0  0
  189.2840  177.6790  141.3080 O   0  0  0  0  0  1  0  0  0  0  0  0
  181.5160  178.9710  142.6610 C   0  0  0  0  0  2  0  0  0  0  0  0
  180.1300  178.5240  143.7440 S   0  0  0  0  0  0  0  0  0  0  0  0
  179.2350  180.0450  143.3300 C   0  0  0  0  0  2  0  0  0  0  0  0
  179.5820  180.4650  141.9190 C   0  0  0  0  0  1  0  0  0  0  0  0
  1  2  1  0  0  0  0
  2  6  2  0  0  0  0
  2 17  1  0  0  0  0
  3  4  1  0  0  0  0
  3  1  2  0  0  0  0
  4  5  2  0  0  0  0
  5  6  1  0  0  0  0
  7  3  1  0  0  0  0
  8 13  1  1  0  0  0
  8 10  1  0  0  0  0
  8  7  1  0  0  0  0
  9 16  1  0  0  0  0
 10  7  1  1  0  0  0
 12 11  1  1  0  0  0
 12 13  1  0  0  0  0
 12 14  1  0  0  0  0
 14 16  1  6  0  0  0
 14 10  1  0  0  0  0
 15  9  1  0  0  0  0
 15 11  1  0  0  0  0
 17 18  1  1  0  0  0
 19 17  1  0  0  0  0
 20 22  1  6  0  0  0
 20 24  1  0  0  0  0
 20 25  1  0  0  0  0
 24 26  1  0  0  0  0
 25 19  1  1  0  0  0
 25 23  1  0  0  0  0
 26 23  1  0  0  0  0
 26 21  2  0  0  0  0
 27 20  1  0  0  0  0
 28 27  1  0  0  0  0
 29  4  1  0  0  0  0
 29 30  1  0  0  0  0
 31 30  1  0  0  0  0
 32 31  1  0  0  0  0
M  END
>  <MODEL>
1

>  <REMARK>
 VINA RESULT:      -8.4      0.000      0.000
  Name = 
  8 active torsions:
  status: ('A' for Active; 'I' for Inactive)
    1  A    between atoms: N_2  and  C_5
    2  A    between atoms: C_3  and  C_22
    3  A    between atoms: C_4  and  C_24
    4  A    between atoms: C_13  and  S_29
    5  A    between atoms: C_14  and  C_18
    6  A    between atoms: C_16  and  C_20
    7  A    between atoms: C_16  and  C_24
    8  A    between atoms: C_18  and  S_29
                            x       y       z     vdW  Elec       q    Type
                         _______ _______ _______ _____ _____    ______ ____

>  <TORSDO>
F 8

$$$$
=
 OpenBabel10262421163D

 32 36  0  0  1  0  0  0  0  0999 V2000
  183.9740  178.8110  144.4100 C   0  0  0  0  0  3  0  0  0  0  0  0
  185.3560  178.5770  144.4070 C   0  0  0  0  0  0  0  0  0  0  0  0
  183.2480  178.7820  143.2170 C   0  0  0  0  0  0  0  0  0  0  0  0
  183.9100  178.5240  142.0030 C   0  0  0  0  0  0  0  0  0  0  0  0
  185.2890  178.2890  142.0010 C   0  0  0  0  0  3  0  0  0  0  0  0
  186.0100  178.3170  143.1980 C   0  0  0  0  0  3  0  0  0  0  0  0
  181.8410  179.0110  143.2530 N   0  0  0  0  0  0  0  0  0  0  0  0
  180.4320  178.5830  143.5030 C   0  0  1  0  0  3  0  0  0  0  0  0
  179.6160  180.5710  139.3140 C   0  0  0  0  0  2  0  0  0  0  0  0
  180.6350  179.8490  142.9710 C   0  0  2  0  0  3  0  0  0  0  0  0
  179.5030  178.1290  140.0220 C   0  0  0  0  0  2  0  0  0  0  0  0
  179.3910  178.6210  141.3860 N   0  0  1  0  0  0  0  0  0  0  0  0
  179.9360  177.6990  142.3580 C   0  0  0  0  0  2  0  0  0  0  0  0
  180.3120  179.7240  141.5020 C   0  0  1  0  0  3  0  0  0  0  0  0
  178.9310  179.2070  139.0850 C   0  0  0  0  0  2  0  0  0  0  0  0
  179.7210  180.9320  140.8040 C   0  0  0  0  0  2  0  0  0  0  0  0
  186.1470  178.5640  145.6800 C   0  0  1  0  0  3  0  0  0  0  0  0
  185.2240  178.5520  146.8840 C   0  0  0  0  0  1  0  0  0  0  0  0
  187.1030  177.3790  145.7490 C   0  0  0  0  0  2  0  0  0  0  0  0
  189.4820  177.4270  144.6530 C   0  0  2  0  0  0  0  0  0  0  0  0
  191.2770  176.3600  147.4480 O   0  0  0  0  0  0  0  0  0  0  0  0
  188.8810  176.3500  143.7590 C   0  0  0  0  0  1  0  0  0  0  0  0
  189.1830  177.3450  147.0450 N   0  0  0  0  0  2  0  0  0  0  0  0
  190.6400  176.8970  145.2840 O   0  0  0  0  0  0  0  0  0  0  0  0
  188.5530  177.8530  145.8360 C   0  0  2  0  0  3  0  0  0  0  0  0
  190.4350  176.8330  146.6420 C   0  0  0  0  0  0  0  0  0  0  0  0
  189.8530  178.6300  143.7940 C   0  0  0  0  0  2  0  0  0  0  0  0
  191.1790  179.0070  144.0130 O   0  0  0  0  0  1  0  0  0  0  0  0
  183.1650  178.4570  140.7120 C   0  0  0  0  0  2  0  0  0  0  0  0
  184.0910  179.3270  139.4160 S   0  0  0  0  0  0  0  0  0  0  0  0
  183.7280  178.0330  138.2000 C   0  0  0  0  0  2  0  0  0  0  0  0
  182.9060  176.9430  138.8540 C   0  0  0  0  0  1  0  0  0  0  0  0
  2  1  1  0  0  0  0
  2 17  1  0  0  0  0
  3  7  1  0  0  0  0
  3  1  2  0  0  0  0
  4  3  1  0  0  0  0
  5  4  2  0  0  0  0
  5  6  1  0  0  0  0
  6  2  2  0  0  0  0
  7  8  1  0  0  0  0
  8 13  1  6  0  0  0
  9 16  1  0  0  0  0
 10  7  1  6  0  0  0
 10  8  1  0  0  0  0
 12 11  1  6  0  0  0
 12 14  1  0  0  0  0
 12 13  1  0  0  0  0
 14 16  1  1  0  0  0
 14 10  1  0  0  0  0
 15  9  1  0  0  0  0
 15 11  1  0  0  0  0
 17 19  1  0  0  0  0
 17 18  1  1  0  0  0
 20 22  1  6  0  0  0
 20 24  1  0  0  0  0
 20 25  1  0  0  0  0
 24 26  1  0  0  0  0
 25 19  1  6  0  0  0
 25 23  1  0  0  0  0
 26 23  1  0  0  0  0
 26 21  2  0  0  0  0
 27 28  1  0  0  0  0
 27 20  1  0  0  0  0
 29  4  1  0  0  0  0
 30 29  1  0  0  0  0
 31 32  1  0  0  0  0
 31 30  1  0  0  0  0
M  END
>  <MODEL>
2

>  <REMARK>
 VINA RESULT:      -8.2      1.872      3.367
  Name = 
  8 active torsions:
  status: ('A' for Active; 'I' for Inactive)
    1  A    between atoms: N_2  and  C_5
    2  A    between atoms: C_3  and  C_22
    3  A    between atoms: C_4  and  C_24
    4  A    between atoms: C_13  and  S_29
    5  A    between atoms: C_14  and  C_18
    6  A    between atoms: C_16  and  C_20
    7  A    between atoms: C_16  and  C_24
    8  A    between atoms: C_18  and  S_29
                            x       y       z     vdW  Elec       q    Type
                         _______ _______ _______ _____ _____    ______ ____

>  <TORSDO>
F 8

$$$$
=
 OpenBabel10262421163D

 32 36  0  0  1  0  0  0  0  0999 V2000
  187.9130  177.9020  142.3570 C   0  0  0  0  0  3  0  0  0  0  0  0
  187.0300  178.1250  143.4220 C   0  0  0  0  0  0  0  0  0  0  0  0
  187.4940  178.0950  141.0380 C   0  0  0  0  0  0  0  0  0  0  0  0
  186.1760  178.5100  140.7770 C   0  0  0  0  0  0  0  0  0  0  0  0
  185.2960  178.7340  141.8420 C   0  0  0  0  0  3  0  0  0  0  0  0
  185.7210  178.5410  143.1590 C   0  0  0  0  0  3  0  0  0  0  0  0
  188.4180  177.8720  139.9750 N   0  0  0  0  0  0  0  0  0  0  0  0
  189.4310  178.3310  138.9780 C   0  0  1  0  0  3  0  0  0  0  0  0
  186.9150  175.7270  135.9700 C   0  0  0  0  0  2  0  0  0  0  0  0
  189.0430  176.9990  138.9340 C   0  0  2  0  0  3  0  0  0  0  0  0
  187.2440  178.2470  136.0810 C   0  0  0  0  0  2  0  0  0  0  0  0
  188.4330  177.9700  136.8720 N   0  0  1  0  0  0  0  0  0  0  0  0
  188.7430  179.0300  137.8060 C   0  0  0  0  0  2  0  0  0  0  0  0
  188.0860  176.8980  137.7720 C   0  0  1  0  0  3  0  0  0  0  0  0
  186.9980  177.0390  135.1620 C   0  0  0  0  0  2  0  0  0  0  0  0
  188.0520  175.5970  136.9960 C   0  0  0  0  0  2  0  0  0  0  0  0
  187.4700  177.9620  144.8460 C   0  0  1  0  0  3  0  0  0  0  0  0
  186.2800  177.6790  145.7450 C   0  0  0  0  0  1  0  0  0  0  0  0
  188.5090  176.8580  145.0010 C   0  0  0  0  0  2  0  0  0  0  0  0
  191.0970  177.0950  144.6710 C   0  0  2  0  0  0  0  0  0  0  0  0
  192.0450  176.0630  147.8660 O   0  0  0  0  0  0  0  0  0  0  0  0
  190.8700  176.0090  143.6280 C   0  0  0  0  0  1  0  0  0  0  0  0
  190.1040  176.9210  146.8620 N   0  0  0  0  0  2  0  0  0  0  0  0
  192.0490  176.6230  145.6150 O   0  0  0  0  0  0  0  0  0  0  0  0
  189.8290  177.4230  145.5240 C   0  0  2  0  0  3  0  0  0  0  0  0
  191.4520  176.5040  146.8490 C   0  0  0  0  0  0  0  0  0  0  0  0
  191.6210  178.3460  143.9750 C   0  0  0  0  0  2  0  0  0  0  0  0
  190.7360  179.4130  144.1350 O   0  0  0  0  0  1  0  0  0  0  0  0
  185.7000  178.7550  139.3840 C   0  0  0  0  0  2  0  0  0  0  0  0
  183.9640  179.2840  139.4070 S   0  0  0  0  0  0  0  0  0  0  0  0
  183.4100  177.7100  138.6980 C   0  0  0  0  0  2  0  0  0  0  0  0
  182.8060  176.8510  139.7880 C   0  0  0  0  0  1  0  0  0  0  0  0
  1  2  1  0  0  0  0
  2 17  1  0  0  0  0
  3  1  2  0  0  0  0
  4  3  1  0  0  0  0
  4  5  2  0  0  0  0
  5  6  1  0  0  0  0
  6  2  2  0  0  0  0
  7  3  1  0  0  0  0
  8 13  1  6  0  0  0
  8  7  1  0  0  0  0
  9 16  1  0  0  0  0
 10  8  1  0  0  0  0
 10  7  1  1  0  0  0
 12 11  1  6  0  0  0
 12 14  1  0  0  0  0
 12 13  1  0  0  0  0
 14 16  1  6  0  0  0
 14 10  1  0  0  0  0
 15  9  1  0  0  0  0
 15 11  1  0  0  0  0
 17 19  1  0  0  0  0
 17 18  1  1  0  0  0
 20 22  1  6  0  0  0
 20 25  1  0  0  0  0
 20 24  1  0  0  0  0
 24 26  1  0  0  0  0
 25 19  1  6  0  0  0
 25 23  1  0  0  0  0
 26 23  1  0  0  0  0
 26 21  2  0  0  0  0
 27 28  1  0  0  0  0
 27 20  1  0  0  0  0
 29 30  1  0  0  0  0
 29  4  1  0  0  0  0
 31 30  1  0  0  0  0
 31 32  1  0  0  0  0
M  END
>  <MODEL>
3

>  <REMARK>
 VINA RESULT:      -8.1      3.248      4.470
  Name = 
  8 active torsions:
  status: ('A' for Active; 'I' for Inactive)
    1  A    between atoms: N_2  and  C_5
    2  A    between atoms: C_3  and  C_22
    3  A    between atoms: C_4  and  C_24
    4  A    between atoms: C_13  and  S_29
    5  A    between atoms: C_14  and  C_18
    6  A    between atoms: C_16  and  C_20
    7  A    between atoms: C_16  and  C_24
    8  A    between atoms: C_18  and  S_29
                            x       y       z     vdW  Elec       q    Type
                         _______ _______ _______ _____ _____    ______ ____

>  <TORSDO>
F 8

$$$$
=
 OpenBabel10262421163D

 32 36  0  0  1  0  0  0  0  0999 V2000
  187.1510  177.8350  141.8490 C   0  0  0  0  0  3  0  0  0  0  0  0
  186.4410  177.8120  143.0580 C   0  0  0  0  0  0  0  0  0  0  0  0
  188.4160  177.2480  141.7610 C   0  0  0  0  0  0  0  0  0  0  0  0
  188.9840  176.6370  142.8930 C   0  0  0  0  0  0  0  0  0  0  0  0
  188.2740  176.6140  144.0980 C   0  0  0  0  0  3  0  0  0  0  0  0
  187.0080  177.2010  144.1810 C   0  0  0  0  0  3  0  0  0  0  0  0
  189.1100  177.2750  140.5150 N   0  0  0  0  0  0  0  0  0  0  0  0
  189.9170  177.9570  139.4590 C   0  0  1  0  0  3  0  0  0  0  0  0
  186.8110  175.9890  136.5200 C   0  0  0  0  0  2  0  0  0  0  0  0
  189.5020  176.6560  139.2120 C   0  0  2  0  0  3  0  0  0  0  0  0
  187.2050  178.4370  137.0930 C   0  0  0  0  0  2  0  0  0  0  0  0
  188.5200  178.0260  137.5610 N   0  0  1  0  0  0  0  0  0  0  0  0
  189.0260  178.8720  138.6180 C   0  0  0  0  0  2  0  0  0  0  0  0
  188.3350  176.7810  138.2640 C   0  0  1  0  0  3  0  0  0  0  0  0
  186.7600  177.4440  136.0060 C   0  0  0  0  0  2  0  0  0  0  0  0
  188.1240  175.6720  137.2530 C   0  0  0  0  0  2  0  0  0  0  0  0
  185.0670  178.4010  143.1650 C   0  0  1  0  0  3  0  0  0  0  0  0
  185.0040  179.4130  144.2940 C   0  0  0  0  0  1  0  0  0  0  0  0
  184.6190  179.0510  141.8610 C   0  0  0  0  0  2  0  0  0  0  0  0
  183.1340  178.5480  139.7630 C   0  0  2  0  0  0  0  0  0  0  0  0
  180.0610  179.3930  141.1840 O   0  0  0  0  0  0  0  0  0  0  0  0
  183.9520  179.6790  139.1520 C   0  0  0  0  0  1  0  0  0  0  0  0
  182.1860  178.7720  141.9690 N   0  0  0  0  0  2  0  0  0  0  0  0
  181.7570  178.8930  139.6830 O   0  0  0  0  0  0  0  0  0  0  0  0
  183.3960  178.3350  141.2890 C   0  0  2  0  0  3  0  0  0  0  0  0
  181.2470  179.0430  140.9510 C   0  0  0  0  0  0  0  0  0  0  0  0
  183.4030  177.2680  138.9820 C   0  0  0  0  0  2  0  0  0  0  0  0
  183.5780  177.5400  137.6240 O   0  0  0  0  0  1  0  0  0  0  0  0
  190.3200  175.9750  142.8300 C   0  0  0  0  0  2  0  0  0  0  0  0
  191.3830  176.5980  144.1640 S   0  0  0  0  0  0  0  0  0  0  0  0
  191.7010  178.1440  143.2720 C   0  0  0  0  0  2  0  0  0  0  0  0
  191.1060  179.3020  144.0430 C   0  0  0  0  0  1  0  0  0  0  0  0
  1  2  1  0  0  0  0
  2 17  1  0  0  0  0
  2  6  2  0  0  0  0
  3  1  2  0  0  0  0
  3  4  1  0  0  0  0
  4  5  2  0  0  0  0
  5  6  1  0  0  0  0
  7  3  1  0  0  0  0
  8 13  1  6  0  0  0
  8  7  1  0  0  0  0
  9 16  1  0  0  0  0
 10  8  1  0  0  0  0
 10  7  1  1  0  0  0
 12 11  1  1  0  0  0
 12 14  1  0  0  0  0
 12 13  1  0  0  0  0
 14 16  1  6  0  0  0
 14 10  1  0  0  0  0
 15  9  1  0  0  0  0
 15 11  1  0  0  0  0
 17 18  1  1  0  0  0
 19 17  1  0  0  0  0
 20 22  1  6  0  0  0
 20 25  1  0  0  0  0
 24 20  1  0  0  0  0
 24 26  1  0  0  0  0
 25 19  1  1  0  0  0
 25 23  1  0  0  0  0
 26 21  2  0  0  0  0
 26 23  1  0  0  0  0
 27 20  1  0  0  0  0
 28 27  1  0  0  0  0
 29  4  1  0  0  0  0
 29 30  1  0  0  0  0
 31 32  1  0  0  0  0
 31 30  1  0  0  0  0
M  END
>  <MODEL>
4

>  <REMARK>
 VINA RESULT:      -7.9      4.276      7.462
  Name = 
  8 active torsions:
  status: ('A' for Active; 'I' for Inactive)
    1  A    between atoms: N_2  and  C_5
    2  A    between atoms: C_3  and  C_22
    3  A    between atoms: C_4  and  C_24
    4  A    between atoms: C_13  and  S_29
    5  A    between atoms: C_14  and  C_18
    6  A    between atoms: C_16  and  C_20
    7  A    between atoms: C_16  and  C_24
    8  A    between atoms: C_18  and  S_29
                            x       y       z     vdW  Elec       q    Type
                         _______ _______ _______ _____ _____    ______ ____

>  <TORSDO>
F 8

$$$$
=
 OpenBabel10262421163D

 32 36  0  0  1  0  0  0  0  0999 V2000
  186.9840  178.1500  141.9860 C   0  0  0  0  0  3  0  0  0  0  0  0
  186.3840  177.8320  143.2130 C   0  0  0  0  0  0  0  0  0  0  0  0
  188.2500  177.6530  141.6680 C   0  0  0  0  0  0  0  0  0  0  0  0
  188.9310  176.8340  142.5870 C   0  0  0  0  0  0  0  0  0  0  0  0
  188.3300  176.5170  143.8100 C   0  0  0  0  0  3  0  0  0  0  0  0
  187.0620  177.0150  144.1220 C   0  0  0  0  0  3  0  0  0  0  0  0
  188.8300  177.9830  140.4080 N   0  0  0  0  0  0  0  0  0  0  0  0
  188.8400  178.7000  139.0970 C   0  0  1  0  0  3  0  0  0  0  0  0
  189.9880  174.4760  137.3660 C   0  0  0  0  0  2  0  0  0  0  0  0
  189.8620  177.7930  139.3420 C   0  0  2  0  0  3  0  0  0  0  0  0
  187.8750  175.8590  137.0530 C   0  0  0  0  0  2  0  0  0  0  0  0
  188.6690  177.0050  137.4660 N   0  0  1  0  0  0  0  0  0  0  0  0
  187.8790  178.0260  138.1170 C   0  0  0  0  0  2  0  0  0  0  0  0
  189.5000  176.5580  138.5550 C   0  0  1  0  0  3  0  0  0  0  0  0
  188.8270  174.8330  136.4140 C   0  0  0  0  0  2  0  0  0  0  0  0
  190.6330  175.7200  137.9970 C   0  0  0  0  0  2  0  0  0  0  0  0
  185.0100  178.3220  143.5580 C   0  0  1  0  0  3  0  0  0  0  0  0
  185.0450  179.1730  144.8140 C   0  0  0  0  0  1  0  0  0  0  0  0
  184.3790  179.1100  142.4160 C   0  0  0  0  0  2  0  0  0  0  0  0
  182.9050  178.4190  140.3640 C   0  0  2  0  0  0  0  0  0  0  0  0
  179.8850  179.7180  141.5320 O   0  0  0  0  0  0  0  0  0  0  0  0
  183.8320  179.3730  139.6220 C   0  0  0  0  0  1  0  0  0  0  0  0
  181.9290  179.0510  142.4760 N   0  0  0  0  0  2  0  0  0  0  0  0
  181.5660  178.8590  140.1830 O   0  0  0  0  0  0  0  0  0  0  0  0
  183.1120  178.4190  141.9130 C   0  0  2  0  0  3  0  0  0  0  0  0
  181.0410  179.2410  141.3960 C   0  0  0  0  0  0  0  0  0  0  0  0
  183.0810  177.0170  139.7920 C   0  0  0  0  0  2  0  0  0  0  0  0
  183.6480  177.0670  138.5180 O   0  0  0  0  0  1  0  0  0  0  0  0
  190.2720  176.2620  142.2710 C   0  0  0  0  0  2  0  0  0  0  0  0
  191.5700  177.2440  143.0740 S   0  0  0  0  0  0  0  0  0  0  0  0
  191.7760  176.0130  144.3880 C   0  0  0  0  0  2  0  0  0  0  0  0
  191.5790  176.6740  145.7350 C   0  0  0  0  0  1  0  0  0  0  0  0
  1  2  1  0  0  0  0
  2 17  1  0  0  0  0
  2  6  2  0  0  0  0
  3  1  2  0  0  0  0
  3  4  1  0  0  0  0
  4  5  2  0  0  0  0
  5  6  1  0  0  0  0
  7  3  1  0  0  0  0
  8 13  1  6  0  0  0
  8 10  1  0  0  0  0
  8  7  1  0  0  0  0
  9 16  1  0  0  0  0
 10  7  1  1  0  0  0
 12 11  1  1  0  0  0
 12 13  1  0  0  0  0
 12 14  1  0  0  0  0
 14 16  1  6  0  0  0
 14 10  1  0  0  0  0
 15 11  1  0  0  0  0
 15  9  1  0  0  0  0
 17 18  1  1  0  0  0
 19 17  1  0  0  0  0
 20 22  1  6  0  0  0
 20 25  1  0  0  0  0
 24 20  1  0  0  0  0
 24 26  1  0  0  0  0
 25 19  1  6  0  0  0
 25 23  1  0  0  0  0
 26 21  2  0  0  0  0
 26 23  1  0  0  0  0
 27 20  1  0  0  0  0
 28 27  1  0  0  0  0
 29  4  1  0  0  0  0
 29 30  1  0  0  0  0
 30 31  1  0  0  0  0
 31 32  1  0  0  0  0
M  END
>  <MODEL>
5

>  <REMARK>
 VINA RESULT:      -7.8      4.397      7.759
  Name = 
  8 active torsions:
  status: ('A' for Active; 'I' for Inactive)
    1  A    between atoms: N_2  and  C_5
    2  A    between atoms: C_3  and  C_22
    3  A    between atoms: C_4  and  C_24
    4  A    between atoms: C_13  and  S_29
    5  A    between atoms: C_14  and  C_18
    6  A    between atoms: C_16  and  C_20
    7  A    between atoms: C_16  and  C_24
    8  A    between atoms: C_18  and  S_29
                            x       y       z     vdW  Elec       q    Type
                         _______ _______ _______ _____ _____    ______ ____

>  <TORSDO>
F 8

$$$$
=
 OpenBabel10262421163D

 32 36  0  0  1  0  0  0  0  0999 V2000
  183.8930  178.7030  143.1910 C   0  0  0  0  0  3  0  0  0  0  0  0
  185.2640  178.7520  143.4770 C   0  0  0  0  0  0  0  0  0  0  0  0
  183.4420  178.7990  141.8720 C   0  0  0  0  0  0  0  0  0  0  0  0
  184.3690  178.9540  140.8250 C   0  0  0  0  0  0  0  0  0  0  0  0
  185.7370  179.0020  141.1130 C   0  0  0  0  0  3  0  0  0  0  0  0
  186.1840  178.9030  142.4340 C   0  0  0  0  0  3  0  0  0  0  0  0
  182.0420  178.7340  141.6090 N   0  0  0  0  0  0  0  0  0  0  0  0
  180.7960  178.0050  141.2250 C   0  0  1  0  0  3  0  0  0  0  0  0
  180.1190  181.6900  138.3750 C   0  0  0  0  0  2  0  0  0  0  0  0
  180.7060  179.3770  141.4140 C   0  0  2  0  0  3  0  0  0  0  0  0
  180.6060  179.2550  137.8210 C   0  0  0  0  0  2  0  0  0  0  0  0
  180.1400  178.9470  139.1650 N   0  0  1  0  0  0  0  0  0  0  0  0
  180.7660  177.7650  139.7150 C   0  0  0  0  0  2  0  0  0  0  0  0
  180.6710  179.9720  140.0280 C   0  0  1  0  0  3  0  0  0  0  0  0
  179.9030  180.5440  137.3640 C   0  0  0  0  0  2  0  0  0  0  0  0
  179.8760  181.2460  139.8260 C   0  0  0  0  0  2  0  0  0  0  0  0
  185.7720  178.6110  144.8810 C   0  0  1  0  0  3  0  0  0  0  0  0
  184.6180  178.5040  145.8600 C   0  0  0  0  0  1  0  0  0  0  0  0
  186.6970  177.4100  145.0370 C   0  0  0  0  0  2  0  0  0  0  0  0
  189.2020  177.3470  144.2740 C   0  0  2  0  0  0  0  0  0  0  0  0
  190.5740  176.4100  147.3420 O   0  0  0  0  0  0  0  0  0  0  0  0
  188.6980  176.2310  143.3680 C   0  0  0  0  0  1  0  0  0  0  0  0
  188.5820  177.4110  146.6040 N   0  0  0  0  0  2  0  0  0  0  0  0
  190.2500  176.8320  145.0850 O   0  0  0  0  0  0  0  0  0  0  0  0
  188.1350  177.8600  145.2940 C   0  0  2  0  0  3  0  0  0  0  0  0
  189.8620  176.8510  146.4040 C   0  0  0  0  0  0  0  0  0  0  0  0
  189.7190  178.4890  143.4080 C   0  0  0  0  0  2  0  0  0  0  0  0
  190.8450  179.0800  143.9830 O   0  0  0  0  0  1  0  0  0  0  0  0
  183.9280  179.0320  139.4030 C   0  0  0  0  0  2  0  0  0  0  0  0
  184.2750  177.4620  138.5600 S   0  0  0  0  0  0  0  0  0  0  0  0
  185.6190  178.2040  137.5960 C   0  0  0  0  0  2  0  0  0  0  0  0
  186.9280  177.5420  137.9640 C   0  0  0  0  0  1  0  0  0  0  0  0
  1  2  1  0  0  0  0
  2 17  1  0  0  0  0
  3  1  2  0  0  0  0
  4  5  2  0  0  0  0
  4  3  1  0  0  0  0
  5  6  1  0  0  0  0
  6  2  2  0  0  0  0
  7  3  1  0  0  0  0
  8 13  1  6  0  0  0
  8 10  1  0  0  0  0
  8  7  1  0  0  0  0
  9 16  1  0  0  0  0
 10  7  1  1  0  0  0
 12 11  1  6  0  0  0
 12 13  1  0  0  0  0
 12 14  1  0  0  0  0
 14 16  1  1  0  0  0
 14 10  1  0  0  0  0
 15 11  1  0  0  0  0
 15  9  1  0  0  0  0
 17 19  1  0  0  0  0
 17 18  1  1  0  0  0
 20 22  1  6  0  0  0
 20 24  1  0  0  0  0
 20 25  1  0  0  0  0
 24 26  1  0  0  0  0
 25 19  1  6  0  0  0
 25 23  1  0  0  0  0
 26 23  1  0  0  0  0
 26 21  2  0  0  0  0
 27 28  1  0  0  0  0
 27 20  1  0  0  0  0
 29  4  1  0  0  0  0
 30 29  1  0  0  0  0
 31 32  1  0  0  0  0
 31 30  1  0  0  0  0
M  END
>  <MODEL>
6

>  <REMARK>
 VINA RESULT:      -7.6      2.102      3.736
  Name = 
  8 active torsions:
  status: ('A' for Active; 'I' for Inactive)
    1  A    between atoms: N_2  and  C_5
    2  A    between atoms: C_3  and  C_22
    3  A    between atoms: C_4  and  C_24
    4  A    between atoms: C_13  and  S_29
    5  A    between atoms: C_14  and  C_18
    6  A    between atoms: C_16  and  C_20
    7  A    between atoms: C_16  and  C_24
    8  A    between atoms: C_18  and  S_29
                            x       y       z     vdW  Elec       q    Type
                         _______ _______ _______ _____ _____    ______ ____

>  <TORSDO>
F 8

$$$$
=
 OpenBabel10262421163D

 32 36  0  0  1  0  0  0  0  0999 V2000
  188.4840  177.3470  139.4950 C   0  0  0  0  0  3  0  0  0  0  0  0
  189.2000  177.7060  140.6450 C   0  0  0  0  0  0  0  0  0  0  0  0
  189.1470  176.8160  138.3860 C   0  0  0  0  0  0  0  0  0  0  0  0
  190.5430  176.6470  138.4210 C   0  0  0  0  0  0  0  0  0  0  0  0
  191.2560  177.0050  139.5700 C   0  0  0  0  0  3  0  0  0  0  0  0
  190.5880  177.5340  140.6780 C   0  0  0  0  0  3  0  0  0  0  0  0
  188.3910  176.4480  137.2340 N   0  0  0  0  0  0  0  0  0  0  0  0
  187.4940  176.7560  136.0800 C   0  0  1  0  0  3  0  0  0  0  0  0
  185.0900  173.0030  137.5940 C   0  0  0  0  0  2  0  0  0  0  0  0
  187.8130  175.4250  136.3090 C   0  0  2  0  0  3  0  0  0  0  0  0
  184.4410  175.4630  137.5600 C   0  0  0  0  0  2  0  0  0  0  0  0
  185.4750  175.6320  136.5510 N   0  0  1  0  0  0  0  0  0  0  0  0
  186.0580  176.9550  136.5640 C   0  0  0  0  0  2  0  0  0  0  0  0
  186.5960  174.8290  136.9730 C   0  0  1  0  0  3  0  0  0  0  0  0
  183.9300  174.0150  137.4730 C   0  0  0  0  0  2  0  0  0  0  0  0
  186.2860  173.3710  136.7020 C   0  0  0  0  0  2  0  0  0  0  0  0
  188.5040  178.2420  141.8600 C   0  0  1  0  0  3  0  0  0  0  0  0
  187.0740  178.6270  141.5320 C   0  0  0  0  0  1  0  0  0  0  0  0
  188.5200  177.2460  143.0140 C   0  0  0  0  0  2  0  0  0  0  0  0
  190.6380  177.3230  144.5530 C   0  0  2  0  0  0  0  0  0  0  0  0
  188.9910  176.8610  147.5940 O   0  0  0  0  0  0  0  0  0  0  0  0
  191.0160  176.0730  143.7700 C   0  0  0  0  0  1  0  0  0  0  0  0
  188.4110  177.5900  145.4390 N   0  0  0  0  0  2  0  0  0  0  0  0
  190.6080  176.9970  145.9360 O   0  0  0  0  0  0  0  0  0  0  0  0
  189.1990  177.8490  144.2430 C   0  0  2  0  0  3  0  0  0  0  0  0
  189.3240  177.1290  146.4110 C   0  0  0  0  0  0  0  0  0  0  0  0
  191.6790  178.4040  144.2890 C   0  0  0  0  0  2  0  0  0  0  0  0
  191.0680  179.6170  143.9680 O   0  0  0  0  0  1  0  0  0  0  0  0
  191.2830  176.0560  137.2680 C   0  0  0  0  0  2  0  0  0  0  0  0
  193.0580  175.9850  137.6420 S   0  0  0  0  0  0  0  0  0  0  0  0
  193.1390  174.2230  137.2220 C   0  0  0  0  0  2  0  0  0  0  0  0
  191.8270  173.7920  136.6030 C   0  0  0  0  0  1  0  0  0  0  0  0
  1  2  1  0  0  0  0
  2  6  2  0  0  0  0
  2 17  1  0  0  0  0
  3  4  1  0  0  0  0
  3  1  2  0  0  0  0
  4  5  2  0  0  0  0
  5  6  1  0  0  0  0
  7  3  1  0  0  0  0
  8 10  1  0  0  0  0
  8 13  1  1  0  0  0
  8  7  1  0  0  0  0
 10 14  1  0  0  0  0
 10  7  1  1  0  0  0
 12 13  1  1  0  0  0
 12 14  1  0  0  0  0
 12 11  1  0  0  0  0
 14 16  1  6  0  0  0
 15 11  1  0  0  0  0
 15  9  1  0  0  0  0
 16  9  1  0  0  0  0
 17 18  1  6  0  0  0
 17 19  1  0  0  0  0
 20 22  1  6  0  0  0
 20 24  1  0  0  0  0
 23 26  1  0  0  0  0
 24 26  1  0  0  0  0
 25 19  1  6  0  0  0
 25 20  1  0  0  0  0
 25 23  1  0  0  0  0
 26 21  2  0  0  0  0
 27 20  1  0  0  0  0
 28 27  1  0  0  0  0
 29 30  1  0  0  0  0
 29  4  1  0  0  0  0
 31 30  1  0  0  0  0
 32 31  1  0  0  0  0
M  END
>  <MODEL>
7

>  <REMARK>
 VINA RESULT:      -7.4      4.703      7.041
  Name = 
  8 active torsions:
  status: ('A' for Active; 'I' for Inactive)
    1  A    between atoms: N_2  and  C_5
    2  A    between atoms: C_3  and  C_22
    3  A    between atoms: C_4  and  C_24
    4  A    between atoms: C_13  and  S_29
    5  A    between atoms: C_14  and  C_18
    6  A    between atoms: C_16  and  C_20
    7  A    between atoms: C_16  and  C_24
    8  A    between atoms: C_18  and  S_29
                            x       y       z     vdW  Elec       q    Type
                         _______ _______ _______ _____ _____    ______ ____

>  <TORSDO>
F 8

$$$$
=
 OpenBabel10262421163D

 32 36  0  0  1  0  0  0  0  0999 V2000
  186.3970  178.4020  141.9950 C   0  0  0  0  0  3  0  0  0  0  0  0
  187.5720  178.0210  142.6570 C   0  0  0  0  0  0  0  0  0  0  0  0
  186.3660  178.4920  140.6020 C   0  0  0  0  0  0  0  0  0  0  0  0
  187.5250  178.2040  139.8580 C   0  0  0  0  0  0  0  0  0  0  0  0
  188.6970  177.8220  140.5200 C   0  0  0  0  0  3  0  0  0  0  0  0
  188.7210  177.7320  141.9140 C   0  0  0  0  0  3  0  0  0  0  0  0
  185.1530  178.8700  139.9550 N   0  0  0  0  0  0  0  0  0  0  0  0
  183.7490  179.3810  139.9590 C   0  0  1  0  0  3  0  0  0  0  0  0
  182.9500  175.7420  137.0820 C   0  0  0  0  0  2  0  0  0  0  0  0
  184.2800  178.9660  138.7450 C   0  0  2  0  0  3  0  0  0  0  0  0
  182.1290  176.1710  139.4520 C   0  0  0  0  0  2  0  0  0  0  0  0
  182.4330  177.5730  139.2100 N   0  0  1  0  0  0  0  0  0  0  0  0
  182.7880  178.2840  140.4180 C   0  0  0  0  0  2  0  0  0  0  0  0
  183.6820  177.6040  138.4910 C   0  0  1  0  0  3  0  0  0  0  0  0
  181.8080  175.5180  138.0970 C   0  0  0  0  0  2  0  0  0  0  0  0
  183.4310  177.2010  137.0520 C   0  0  0  0  0  2  0  0  0  0  0  0
  187.6150  177.8800  144.1490 C   0  0  1  0  0  3  0  0  0  0  0  0
  186.2440  177.5260  144.6940 C   0  0  0  0  0  1  0  0  0  0  0  0
  188.6350  176.8400  144.5970 C   0  0  0  0  0  2  0  0  0  0  0  0
  191.2280  177.2080  144.6270 C   0  0  2  0  0  0  0  0  0  0  0  0
  191.7500  176.4060  147.9820 O   0  0  0  0  0  0  0  0  0  0  0  0
  191.2100  176.0560  143.6310 C   0  0  0  0  0  1  0  0  0  0  0  0
  189.9360  177.0950  146.6600 N   0  0  0  0  0  2  0  0  0  0  0  0
  192.0540  176.8430  145.7250 O   0  0  0  0  0  0  0  0  0  0  0  0
  189.8350  177.5080  145.2680 C   0  0  2  0  0  3  0  0  0  0  0  0
  191.2900  176.7560  146.8650 C   0  0  0  0  0  0  0  0  0  0  0  0
  191.7860  178.4470  143.9370 C   0  0  0  0  0  2  0  0  0  0  0  0
  190.9310  179.5370  144.1020 O   0  0  0  0  0  1  0  0  0  0  0  0
  187.5250  178.2610  138.3670 C   0  0  0  0  0  2  0  0  0  0  0  0
  188.6470  177.0000  137.6990 S   0  0  0  0  0  0  0  0  0  0  0  0
  188.8470  177.9130  136.1450 C   0  0  0  0  0  2  0  0  0  0  0  0
  187.5510  177.8710  135.3660 C   0  0  0  0  0  1  0  0  0  0  0  0
  1  2  1  0  0  0  0
  2 17  1  0  0  0  0
  3  1  2  0  0  0  0
  4  5  2  0  0  0  0
  4  3  1  0  0  0  0
  5  6  1  0  0  0  0
  6  2  2  0  0  0  0
  7  8  1  0  0  0  0
  7  3  1  0  0  0  0
  8 13  1  1  0  0  0
  9 15  1  0  0  0  0
 10  7  1  1  0  0  0
 10  8  1  0  0  0  0
 12 11  1  1  0  0  0
 12 13  1  0  0  0  0
 14 16  1  6  0  0  0
 14 10  1  0  0  0  0
 14 12  1  0  0  0  0
 15 11  1  0  0  0  0
 16  9  1  0  0  0  0
 17 19  1  0  0  0  0
 17 18  1  6  0  0  0
 20 22  1  6  0  0  0
 20 25  1  0  0  0  0
 20 24  1  0  0  0  0
 23 26  1  0  0  0  0
 24 26  1  0  0  0  0
 25 19  1  6  0  0  0
 25 23  1  0  0  0  0
 26 21  2  0  0  0  0
 27 28  1  0  0  0  0
 27 20  1  0  0  0  0
 29  4  1  0  0  0  0
 30 29  1  0  0  0  0
 31 30  1  0  0  0  0
 32 31  1  0  0  0  0
M  END
>  <MODEL>
8

>  <REMARK>
 VINA RESULT:      -7.4      2.971      4.578
  Name = 
  8 active torsions:
  status: ('A' for Active; 'I' for Inactive)
    1  A    between atoms: N_2  and  C_5
    2  A    between atoms: C_3  and  C_22
    3  A    between atoms: C_4  and  C_24
    4  A    between atoms: C_13  and  S_29
    5  A    between atoms: C_14  and  C_18
    6  A    between atoms: C_16  and  C_20
    7  A    between atoms: C_16  and  C_24
    8  A    between atoms: C_18  and  S_29
                            x       y       z     vdW  Elec       q    Type
                         _______ _______ _______ _____ _____    ______ ____

>  <TORSDO>
F 8

$$$$
=
 OpenBabel10262421163D

 32 36  0  0  1  0  0  0  0  0999 V2000
  185.5420  178.5260  142.3060 C   0  0  0  0  0  3  0  0  0  0  0  0
  185.7640  178.2740  143.6680 C   0  0  0  0  0  0  0  0  0  0  0  0
  184.2540  178.7930  141.8370 C   0  0  0  0  0  0  0  0  0  0  0  0
  183.1710  178.8020  142.7350 C   0  0  0  0  0  0  0  0  0  0  0  0
  183.3950  178.5520  144.0930 C   0  0  0  0  0  3  0  0  0  0  0  0
  184.6860  178.2870  144.5580 C   0  0  0  0  0  3  0  0  0  0  0  0
  184.0600  179.0580  140.4500 N   0  0  0  0  0  0  0  0  0  0  0  0
  183.2090  179.1850  139.2290 C   0  0  1  0  0  3  0  0  0  0  0  0
  186.5940  176.6080  137.2140 C   0  0  0  0  0  2  0  0  0  0  0  0
  184.5810  179.3310  139.0750 C   0  0  2  0  0  3  0  0  0  0  0  0
  184.1680  176.0270  137.7140 C   0  0  0  0  0  2  0  0  0  0  0  0
  183.9320  177.4610  137.7910 N   0  0  1  0  0  0  0  0  0  0  0  0
  182.8490  177.8010  138.6870 C   0  0  0  0  0  2  0  0  0  0  0  0
  185.0590  178.0260  138.4890 C   0  0  1  0  0  3  0  0  0  0  0  0
  185.3590  175.7970  136.7680 C   0  0  0  0  0  2  0  0  0  0  0  0
  186.2480  178.0670  137.5490 C   0  0  0  0  0  2  0  0  0  0  0  0
  187.1440  178.0240  144.1980 C   0  0  1  0  0  3  0  0  0  0  0  0
  187.0840  177.4980  145.6200 C   0  0  0  0  0  1  0  0  0  0  0  0
  187.9280  177.0560  143.3210 C   0  0  0  0  0  2  0  0  0  0  0  0
  190.3450  176.7960  142.3450 C   0  0  2  0  0  0  0  0  0  0  0  0
  191.8910  179.2010  144.3450 O   0  0  0  0  0  0  0  0  0  0  0  0
  190.2180  175.3910  142.9180 C   0  0  0  0  0  1  0  0  0  0  0  0
  189.7000  178.7190  143.6500 N   0  0  0  0  0  2  0  0  0  0  0  0
  191.4880  177.4170  142.9180 O   0  0  0  0  0  0  0  0  0  0  0  0
  189.1570  177.7390  142.7210 C   0  0  2  0  0  3  0  0  0  0  0  0
  191.0920  178.4910  143.6810 C   0  0  0  0  0  0  0  0  0  0  0  0
  190.5030  176.6980  140.8320 C   0  0  0  0  0  2  0  0  0  0  0  0
  191.4700  177.5930  140.3730 O   0  0  0  0  0  1  0  0  0  0  0  0
  181.7850  179.1110  142.2780 C   0  0  0  0  0  2  0  0  0  0  0  0
  180.6250  178.9570  143.6650 S   0  0  0  0  0  0  0  0  0  0  0  0
  179.2360  178.6260  142.5490 C   0  0  0  0  0  2  0  0  0  0  0  0
  179.7240  178.6520  141.1170 C   0  0  0  0  0  1  0  0  0  0  0  0
  1  2  1  0  0  0  0
  2 17  1  0  0  0  0
  2  6  2  0  0  0  0
  3  1  2  0  0  0  0
  3  4  1  0  0  0  0
  4  5  2  0  0  0  0
  5  6  1  0  0  0  0
  7  3  1  0  0  0  0
  8 13  1  6  0  0  0
  8  7  1  0  0  0  0
  9 16  1  0  0  0  0
 10  8  1  0  0  0  0
 10  7  1  1  0  0  0
 12 11  1  1  0  0  0
 12 14  1  0  0  0  0
 12 13  1  0  0  0  0
 14 16  1  6  0  0  0
 14 10  1  0  0  0  0
 15  9  1  0  0  0  0
 15 11  1  0  0  0  0
 17 18  1  1  0  0  0
 19 17  1  0  0  0  0
 20 25  1  0  0  0  0
 20 22  1  1  0  0  0
 20 24  1  0  0  0  0
 23 26  1  0  0  0  0
 24 26  1  0  0  0  0
 25 19  1  1  0  0  0
 25 23  1  0  0  0  0
 26 21  2  0  0  0  0
 27 20  1  0  0  0  0
 28 27  1  0  0  0  0
 29  4  1  0  0  0  0
 29 30  1  0  0  0  0
 31 30  1  0  0  0  0
 32 31  1  0  0  0  0
M  END
>  <MODEL>
9

>  <REMARK>
 VINA RESULT:      -7.4      1.857      2.497
  Name = 
  8 active torsions:
  status: ('A' for Active; 'I' for Inactive)
    1  A    between atoms: N_2  and  C_5
    2  A    between atoms: C_3  and  C_22
    3  A    between atoms: C_4  and  C_24
    4  A    between atoms: C_13  and  S_29
    5  A    between atoms: C_14  and  C_18
    6  A    between atoms: C_16  and  C_20
    7  A    between atoms: C_16  and  C_24
    8  A    between atoms: C_18  and  S_29
                            x       y       z     vdW  Elec       q    Type
                         _______ _______ _______ _____ _____    ______ ____

>  <TORSDO>
F 8

$$$$
