=
 OpenBabel10252414483D

 34 39  0  0  1  0  0  0  0  0999 V2000
  189.2780  177.3530  146.1300 C   0  0  0  0  0  0  0  0  0  0  0  0
  190.9150  176.3450  144.6780 C   0  0  0  0  0  0  0  0  0  0  0  0
  188.6340  177.0020  143.6780 C   0  0  1  0  0  3  0  0  0  0  0  0
  188.0730  177.5270  141.3900 N   0  0  2  0  0  0  0  0  0  0  0  0
  191.4400  176.8330  146.9330 C   0  0  0  0  0  3  0  0  0  0  0  0
  191.7820  176.3280  145.7230 N   0  0  0  0  0  0  0  0  0  0  0  0
  190.3380  177.7520  141.9360 N   0  0  0  0  0  2  0  0  0  0  0  0
  189.6510  176.9620  144.8190 C   0  0  0  0  0  0  0  0  0  0  0  0
  188.6860  178.1810  140.2550 C   0  0  0  0  0  2  0  0  0  0  0  0
  190.1910  177.3180  147.1340 N   0  0  0  0  0  0  0  0  0  0  0  0
  187.2890  177.6130  144.1120 C   0  0  1  0  0  3  0  0  0  0  0  0
  187.8730  177.7690  146.4640 C   0  0  0  0  0  2  0  0  0  0  0  0
  191.2980  175.5930  143.4480 C   0  0  0  0  0  1  0  0  0  0  0  0
  186.7760  178.1210  141.7010 C   0  0  0  0  0  2  0  0  0  0  0  0
  186.2230  177.5020  143.0030 C   0  0  2  0  0  3  0  0  0  0  0  0
  190.1810  178.1410  140.5390 C   0  0  2  0  0  3  0  0  0  0  0  0
  188.9910  177.8630  142.4630 C   0  0  2  0  0  3  0  0  0  0  0  0
  186.8710  177.1550  145.4930 C   0  0  0  0  0  2  0  0  0  0  0  0
  182.7350  178.9650  142.7540 C   0  0  0  0  0  0  0  0  0  0  0  0
  182.5170  179.4120  144.0610 C   0  0  0  0  0  3  0  0  0  0  0  0
  184.9380  178.1720  143.3870 C   0  0  0  0  0  0  0  0  0  0  0  0
  183.5080  179.2410  145.0330 C   0  0  0  0  0  3  0  0  0  0  0  0
  183.9440  178.3480  142.4180 C   0  0  0  0  0  3  0  0  0  0  0  0
  184.7150  178.6220  144.6990 C   0  0  0  0  0  3  0  0  0  0  0  0
  181.7770  179.1320  141.8130 F   0  0  0  0  0  0  0  0  0  0  0  0
  191.3450  176.3160  138.9770 C   0  0  0  0  0  0  0  0  0  0  0  0
  190.8210  177.1410  139.6820 C   0  0  0  0  0  0  0  0  0  0  0  0
  190.0840  174.1710  136.9500 C   0  0  0  0  0  1  0  0  0  0  0  0
  191.9800  175.3130  138.1150 C   0  0  1  0  0  3  0  0  0  0  0  0
  191.1990  175.1870  136.7960 C   0  0  1  0  0  3  0  0  0  0  0  0
  193.2160  175.8090  135.4020 C   0  0  0  0  0  2  0  0  0  0  0  0
  193.6700  176.5310  136.6780 C   0  0  0  0  0  2  0  0  0  0  0  0
  193.4640  175.6620  137.9170 C   0  0  0  0  0  2  0  0  0  0  0  0
  192.1070  174.7760  135.6400 C   0  0  0  0  0  2  0  0  0  0  0  0
  1 12  1  0  0  0  0
  1 10  1  0  0  0  0
  2  8  1  0  0  0  0
  2  6  2  0  0  0  0
  3 11  1  0  0  0  0
  3  8  1  1  0  0  0
  4  9  1  6  0  0  0
  4 14  1  0  0  0  0
  4 17  1  0  0  0  0
  5 10  2  0  0  0  0
  6  5  1  0  0  0  0
  8  1  2  0  0  0  0
  9 16  1  0  0  0  0
 11 18  1  1  0  0  0
 13  2  1  0  0  0  0
 14 15  1  0  0  0  0
 15 21  1  1  0  0  0
 15 11  1  0  0  0  0
 16 27  1  6  0  0  0
 16  7  1  0  0  0  0
 17  7  1  6  0  0  0
 17  3  1  0  0  0  0
 18 12  1  0  0  0  0
 19 20  1  0  0  0  0
 20 22  2  0  0  0  0
 21 24  2  0  0  0  0
 23 19  2  0  0  0  0
 23 21  1  0  0  0  0
 24 22  1  0  0  0  0
 25 19  1  0  0  0  0
 26 27  3  0  0  0  0
 29 26  1  1  0  0  0
 30 28  1  1  0  0  0
 30 29  1  0  0  0  0
 31 34  1  0  0  0  0
 31 32  1  0  0  0  0
 32 33  1  0  0  0  0
 33 29  1  0  0  0  0
 34 30  1  0  0  0  0
M  END
>  <MODEL>
1

>  <REMARK>
 VINA RESULT:     -10.5      0.000      0.000
  Name = 
  3 active torsions:
  status: ('A' for Active; 'I' for Inactive)
    1  A    between atoms: C_3  and  C_13
    2  A    between atoms: C_12  and  C_28
    3  A    between atoms: C_17  and  C_29
                            x       y       z     vdW  Elec       q    Type
                         _______ _______ _______ _____ _____    ______ ____

>  <TORSDO>
F 3

$$$$
=
 OpenBabel10252414483D

 34 39  0  0  1  0  0  0  0  0999 V2000
  191.1640  177.4250  141.5620 C   0  0  0  0  0  0  0  0  0  0  0  0
  189.7700  177.0820  139.6280 C   0  0  0  0  0  0  0  0  0  0  0  0
  188.6400  177.2360  141.9370 C   0  0  1  0  0  3  0  0  0  0  0  0
  186.3790  177.8850  142.4820 N   0  0  2  0  0  0  0  0  0  0  0  0
  192.1030  177.3950  139.3940 C   0  0  0  0  0  3  0  0  0  0  0  0
  190.8830  177.1590  138.8540 N   0  0  0  0  0  0  0  0  0  0  0  0
  187.1550  178.6280  140.4020 N   0  0  0  0  0  2  0  0  0  0  0  0
  189.8600  177.3190  141.0190 C   0  0  0  0  0  0  0  0  0  0  0  0
  185.3840  178.8180  142.0040 C   0  0  0  0  0  2  0  0  0  0  0  0
  192.2400  177.5030  140.7380 N   0  0  0  0  0  0  0  0  0  0  0  0
  189.0100  177.4090  143.4220 C   0  0  1  0  0  3  0  0  0  0  0  0
  191.4090  177.4080  143.0460 C   0  0  0  0  0  2  0  0  0  0  0  0
  188.5070  176.6220  138.9810 C   0  0  0  0  0  1  0  0  0  0  0  0
  186.6320  178.0700  143.9090 C   0  0  0  0  0  2  0  0  0  0  0  0
  187.8020  177.1630  144.3480 C   0  0  2  0  0  3  0  0  0  0  0  0
  185.7990  179.1390  140.5750 C   0  0  2  0  0  3  0  0  0  0  0  0
  187.5630  178.3100  141.7570 C   0  0  2  0  0  3  0  0  0  0  0  0
  190.2890  176.6820  143.7810 C   0  0  0  0  0  2  0  0  0  0  0  0
  189.7650  177.3840  147.5830 C   0  0  0  0  0  0  0  0  0  0  0  0
  188.8040  177.8780  148.4700 C   0  0  0  0  0  3  0  0  0  0  0  0
  188.1350  177.4150  145.7880 C   0  0  0  0  0  0  0  0  0  0  0  0
  187.5070  178.1400  148.0190 C   0  0  0  0  0  3  0  0  0  0  0  0
  189.4310  177.1520  146.2450 C   0  0  0  0  0  3  0  0  0  0  0  0
  187.1710  177.9110  146.6820 C   0  0  0  0  0  3  0  0  0  0  0  0
  191.0210  177.1280  148.0200 F   0  0  0  0  0  0  0  0  0  0  0  0
  184.1670  177.9030  138.8610 C   0  0  0  0  0  0  0  0  0  0  0  0
  184.9030  178.4630  139.6350 C   0  0  0  0  0  0  0  0  0  0  0  0
  184.5490  175.2060  137.1650 C   0  0  0  0  0  1  0  0  0  0  0  0
  183.2720  177.2200  137.9210 C   0  0  1  0  0  3  0  0  0  0  0  0
  183.4300  175.6960  138.0630 C   0  0  1  0  0  3  0  0  0  0  0  0
  180.9890  175.3760  138.6440 C   0  0  0  0  0  2  0  0  0  0  0  0
  181.0840  176.8280  139.1300 C   0  0  0  0  0  2  0  0  0  0  0  0
  181.8290  177.7080  138.1290 C   0  0  0  0  0  2  0  0  0  0  0  0
  182.1390  174.9610  137.7160 C   0  0  0  0  0  2  0  0  0  0  0  0
  1 12  1  0  0  0  0
  2  8  2  0  0  0  0
  3  8  1  6  0  0  0
  3 11  1  0  0  0  0
  4  9  1  6  0  0  0
  4 14  1  0  0  0  0
  5 10  1  0  0  0  0
  6  5  2  0  0  0  0
  6  2  1  0  0  0  0
  7 16  1  0  0  0  0
  8  1  1  0  0  0  0
 10  1  2  0  0  0  0
 11 18  1  1  0  0  0
 11 15  1  0  0  0  0
 12 18  1  0  0  0  0
 13  2  1  0  0  0  0
 14 15  1  0  0  0  0
 15 21  1  1  0  0  0
 16 27  1  6  0  0  0
 16  9  1  0  0  0  0
 17  7  1  6  0  0  0
 17  3  1  0  0  0  0
 17  4  1  0  0  0  0
 19 25  1  0  0  0  0
 19 20  1  0  0  0  0
 21 23  1  0  0  0  0
 21 24  2  0  0  0  0
 22 20  2  0  0  0  0
 23 19  2  0  0  0  0
 24 22  1  0  0  0  0
 26 27  3  0  0  0  0
 29 30  1  0  0  0  0
 29 33  1  0  0  0  0
 29 26  1  1  0  0  0
 30 28  1  6  0  0  0
 31 32  1  0  0  0  0
 33 32  1  0  0  0  0
 34 30  1  0  0  0  0
 34 31  1  0  0  0  0
M  END
>  <MODEL>
2

>  <REMARK>
 VINA RESULT:     -10.1      3.425      6.758
  Name = 
  3 active torsions:
  status: ('A' for Active; 'I' for Inactive)
    1  A    between atoms: C_3  and  C_13
    2  A    between atoms: C_12  and  C_28
    3  A    between atoms: C_17  and  C_29
                            x       y       z     vdW  Elec       q    Type
                         _______ _______ _______ _____ _____    ______ ____

>  <TORSDO>
F 3

$$$$
=
 OpenBabel10252414483D

 34 39  0  0  1  0  0  0  0  0999 V2000
  191.0380  177.4220  141.5020 C   0  0  0  0  0  0  0  0  0  0  0  0
  189.6210  177.0800  139.5840 C   0  0  0  0  0  0  0  0  0  0  0  0
  188.5170  177.2400  141.9050 C   0  0  1  0  0  3  0  0  0  0  0  0
  186.2650  177.8950  142.4740 N   0  0  2  0  0  0  0  0  0  0  0  0
  191.9520  177.3870  139.3230 C   0  0  0  0  0  3  0  0  0  0  0  0
  190.7250  177.1530  138.7970 N   0  0  0  0  0  0  0  0  0  0  0  0
  187.0190  178.6330  140.3840 N   0  0  0  0  0  2  0  0  0  0  0  0
  189.7270  177.3180  140.9730 C   0  0  0  0  0  0  0  0  0  0  0  0
  185.2670  178.8300  142.0060 C   0  0  0  0  0  2  0  0  0  0  0  0
  192.1040  177.4960  140.6650 N   0  0  0  0  0  0  0  0  0  0  0  0
  188.9050  177.4130  143.3850 C   0  0  1  0  0  3  0  0  0  0  0  0
  191.2990  177.4060  142.9820 C   0  0  0  0  0  2  0  0  0  0  0  0
  188.3500  176.6230  138.9510 C   0  0  0  0  0  1  0  0  0  0  0  0
  186.5340  178.0810  143.8970 C   0  0  0  0  0  2  0  0  0  0  0  0
  187.7060  177.1730  144.3250 C   0  0  2  0  0  3  0  0  0  0  0  0
  185.6660  179.1480  140.5720 C   0  0  2  0  0  3  0  0  0  0  0  0
  187.4410  178.3160  141.7350 C   0  0  2  0  0  3  0  0  0  0  0  0
  190.1860  176.6830  143.7310 C   0  0  0  0  0  2  0  0  0  0  0  0
  189.7030  177.3810  147.5400 C   0  0  0  0  0  0  0  0  0  0  0  0
  188.7560  177.8890  148.4340 C   0  0  0  0  0  3  0  0  0  0  0  0
  188.0560  177.4250  145.7610 C   0  0  0  0  0  0  0  0  0  0  0  0
  187.4580  178.1650  147.9950 C   0  0  0  0  0  3  0  0  0  0  0  0
  189.3530  177.1490  146.2060 C   0  0  0  0  0  3  0  0  0  0  0  0
  187.1070  177.9350  146.6630 C   0  0  0  0  0  3  0  0  0  0  0  0
  190.9600  177.1130  147.9650 F   0  0  0  0  0  0  0  0  0  0  0  0
  184.0100  177.9140  138.8810 C   0  0  0  0  0  0  0  0  0  0  0  0
  184.7580  178.4730  139.6430 C   0  0  0  0  0  0  0  0  0  0  0  0
  181.1070  178.7410  137.7900 C   0  0  0  0  0  1  0  0  0  0  0  0
  183.0970  177.2340  137.9550 C   0  0  1  0  0  3  0  0  0  0  0  0
  182.3650  178.2710  137.0860 C   0  0  1  0  0  3  0  0  0  0  0  0
  183.2530  177.2740  134.9370 C   0  0  0  0  0  2  0  0  0  0  0  0
  184.3960  176.7780  135.8320 C   0  0  0  0  0  2  0  0  0  0  0  0
  183.8700  176.1870  137.1380 C   0  0  0  0  0  2  0  0  0  0  0  0
  182.0020  177.7040  135.7170 C   0  0  0  0  0  2  0  0  0  0  0  0
  1 12  1  0  0  0  0
  2  8  2  0  0  0  0
  3  8  1  6  0  0  0
  3 11  1  0  0  0  0
  4  9  1  6  0  0  0
  4 14  1  0  0  0  0
  5 10  1  0  0  0  0
  6  5  2  0  0  0  0
  6  2  1  0  0  0  0
  7 16  1  0  0  0  0
  8  1  1  0  0  0  0
 10  1  2  0  0  0  0
 11 18  1  1  0  0  0
 11 15  1  0  0  0  0
 12 18  1  0  0  0  0
 13  2  1  0  0  0  0
 14 15  1  0  0  0  0
 15 21  1  1  0  0  0
 16 27  1  6  0  0  0
 16  9  1  0  0  0  0
 17  7  1  6  0  0  0
 17  3  1  0  0  0  0
 17  4  1  0  0  0  0
 19 25  1  0  0  0  0
 19 20  1  0  0  0  0
 21 23  1  0  0  0  0
 21 24  2  0  0  0  0
 22 20  2  0  0  0  0
 23 19  2  0  0  0  0
 24 22  1  0  0  0  0
 26 27  3  0  0  0  0
 29 26  1  1  0  0  0
 30 28  1  1  0  0  0
 30 29  1  0  0  0  0
 31 34  1  0  0  0  0
 31 32  1  0  0  0  0
 32 33  1  0  0  0  0
 33 29  1  0  0  0  0
 34 30  1  0  0  0  0
M  END
>  <MODEL>
3

>  <REMARK>
 VINA RESULT:     -10.1      3.697      6.598
  Name = 
  3 active torsions:
  status: ('A' for Active; 'I' for Inactive)
    1  A    between atoms: C_3  and  C_13
    2  A    between atoms: C_12  and  C_28
    3  A    between atoms: C_17  and  C_29
                            x       y       z     vdW  Elec       q    Type
                         _______ _______ _______ _____ _____    ______ ____

>  <TORSDO>
F 3

$$$$
=
 OpenBabel10252414483D

 34 39  0  0  1  0  0  0  0  0999 V2000
  189.1830  177.4280  145.3670 C   0  0  0  0  0  0  0  0  0  0  0  0
  190.6770  176.6210  143.6580 C   0  0  0  0  0  0  0  0  0  0  0  0
  188.2730  177.2490  142.9820 C   0  0  1  0  0  3  0  0  0  0  0  0
  187.4300  177.9330  140.8250 N   0  0  2  0  0  0  0  0  0  0  0  0
  191.4410  176.9470  145.8730 C   0  0  0  0  0  3  0  0  0  0  0  0
  191.6590  176.5590  144.5940 N   0  0  0  0  0  0  0  0  0  0  0  0
  189.7330  178.2180  141.1310 N   0  0  0  0  0  2  0  0  0  0  0  0
  189.4160  177.1640  143.9940 C   0  0  0  0  0  0  0  0  0  0  0  0
  187.8830  178.7050  139.6900 C   0  0  0  0  0  2  0  0  0  0  0  0
  190.2070  177.3540  146.2560 N   0  0  0  0  0  0  0  0  0  0  0  0
  186.9650  177.7590  143.6160 C   0  0  1  0  0  3  0  0  0  0  0  0
  187.8110  177.7490  145.8920 C   0  0  0  0  0  2  0  0  0  0  0  0
  190.9420  175.9900  142.3330 C   0  0  0  0  0  1  0  0  0  0  0  0
  186.1570  178.4370  141.3310 C   0  0  0  0  0  2  0  0  0  0  0  0
  185.7820  177.6880  142.6290 C   0  0  2  0  0  3  0  0  0  0  0  0
  189.4010  178.7120  139.7990 C   0  0  2  0  0  3  0  0  0  0  0  0
  188.4540  178.2220  141.8140 C   0  0  2  0  0  3  0  0  0  0  0  0
  186.7270  177.1700  144.9900 C   0  0  0  0  0  2  0  0  0  0  0  0
  182.2380  179.0030  142.9010 C   0  0  0  0  0  0  0  0  0  0  0  0
  182.1560  179.3290  144.2580 C   0  0  0  0  0  3  0  0  0  0  0  0
  184.5260  178.2640  143.2110 C   0  0  0  0  0  0  0  0  0  0  0  0
  183.2570  179.1250  145.0940 C   0  0  0  0  0  3  0  0  0  0  0  0
  183.4210  178.4720  142.3790 C   0  0  0  0  0  3  0  0  0  0  0  0
  184.4400  178.5930  144.5740 C   0  0  0  0  0  3  0  0  0  0  0  0
  181.1710  179.2020  142.0910 F   0  0  0  0  0  0  0  0  0  0  0  0
  190.4480  177.0820  137.9620 C   0  0  0  0  0  0  0  0  0  0  0  0
  189.9740  177.8170  138.7930 C   0  0  0  0  0  0  0  0  0  0  0  0
  193.1620  175.3710  137.9680 C   0  0  0  0  0  1  0  0  0  0  0  0
  191.0270  176.1900  136.9530 C   0  0  1  0  0  3  0  0  0  0  0  0
  191.7270  175.0060  137.6430 C   0  0  1  0  0  3  0  0  0  0  0  0
  190.2680  173.3040  136.4700 C   0  0  0  0  0  2  0  0  0  0  0  0
  189.2650  174.4630  136.3890 C   0  0  0  0  0  2  0  0  0  0  0  0
  189.9420  175.7610  135.9530 C   0  0  0  0  0  2  0  0  0  0  0  0
  191.7050  173.7520  136.7730 C   0  0  0  0  0  2  0  0  0  0  0  0
  1 12  1  0  0  0  0
  1 10  1  0  0  0  0
  2  8  1  0  0  0  0
  2  6  2  0  0  0  0
  3 11  1  0  0  0  0
  3  8  1  1  0  0  0
  4  9  1  6  0  0  0
  4 14  1  0  0  0  0
  4 17  1  0  0  0  0
  5 10  2  0  0  0  0
  6  5  1  0  0  0  0
  8  1  2  0  0  0  0
  9 16  1  0  0  0  0
 11 18  1  1  0  0  0
 13  2  1  0  0  0  0
 14 15  1  0  0  0  0
 15 21  1  1  0  0  0
 15 11  1  0  0  0  0
 16 27  1  6  0  0  0
 16  7  1  0  0  0  0
 17  7  1  6  0  0  0
 17  3  1  0  0  0  0
 18 12  1  0  0  0  0
 19 20  1  0  0  0  0
 20 22  2  0  0  0  0
 21 24  2  0  0  0  0
 23 19  2  0  0  0  0
 23 21  1  0  0  0  0
 24 22  1  0  0  0  0
 25 19  1  0  0  0  0
 26 27  3  0  0  0  0
 29 30  1  0  0  0  0
 29 26  1  1  0  0  0
 30 28  1  6  0  0  0
 31 34  1  0  0  0  0
 32 31  1  0  0  0  0
 33 32  1  0  0  0  0
 33 29  1  0  0  0  0
 34 30  1  0  0  0  0
M  END
>  <MODEL>
4

>  <REMARK>
 VINA RESULT:      -9.3      1.035      1.683
  Name = 
  3 active torsions:
  status: ('A' for Active; 'I' for Inactive)
    1  A    between atoms: C_3  and  C_13
    2  A    between atoms: C_12  and  C_28
    3  A    between atoms: C_17  and  C_29
                            x       y       z     vdW  Elec       q    Type
                         _______ _______ _______ _____ _____    ______ ____

>  <TORSDO>
F 3

$$$$
=
 OpenBabel10252414483D

 34 39  0  0  1  0  0  0  0  0999 V2000
  188.6820  178.5500  139.6160 C   0  0  0  0  0  0  0  0  0  0  0  0
  186.6340  178.2410  138.3850 C   0  0  0  0  0  0  0  0  0  0  0  0
  186.6000  177.8510  140.9310 C   0  0  1  0  0  3  0  0  0  0  0  0
  184.7410  177.9900  142.4650 N   0  0  2  0  0  0  0  0  0  0  0  0
  188.5920  179.0060  137.2990 C   0  0  0  0  0  3  0  0  0  0  0  0
  187.2900  178.6310  137.2620 N   0  0  0  0  0  0  0  0  0  0  0  0
  184.4620  179.1550  140.4530 N   0  0  0  0  0  2  0  0  0  0  0  0
  187.2890  178.2870  139.6370 C   0  0  0  0  0  0  0  0  0  0  0  0
  183.5460  178.7850  142.6350 C   0  0  0  0  0  2  0  0  0  0  0  0
  189.2820  178.9410  138.4630 N   0  0  0  0  0  0  0  0  0  0  0  0
  187.5540  177.8720  142.1400 C   0  0  1  0  0  3  0  0  0  0  0  0
  189.5420  178.3640  140.8350 C   0  0  0  0  0  2  0  0  0  0  0  0
  185.2710  177.6570  138.2230 C   0  0  0  0  0  1  0  0  0  0  0  0
  185.5630  178.0100  143.6720 C   0  0  0  0  0  2  0  0  0  0  0  0
  186.8960  177.2790  143.4020 C   0  0  2  0  0  3  0  0  0  0  0  0
  183.2680  179.3790  141.2610 C   0  0  2  0  0  3  0  0  0  0  0  0
  185.4450  178.7250  141.4290 C   0  0  2  0  0  3  0  0  0  0  0  0
  188.9310  177.3470  141.7910 C   0  0  0  0  0  2  0  0  0  0  0  0
  188.0560  177.8700  146.9610 C   0  0  0  0  0  0  0  0  0  0  0  0
  189.4180  177.5640  146.8740 C   0  0  0  0  0  3  0  0  0  0  0  0
  187.7880  177.3760  144.6020 C   0  0  0  0  0  0  0  0  0  0  0  0
  189.9670  177.1650  145.6530 C   0  0  0  0  0  3  0  0  0  0  0  0
  187.2440  177.7770  145.8270 C   0  0  0  0  0  3  0  0  0  0  0  0
  189.1570  177.0690  144.5190 C   0  0  0  0  0  3  0  0  0  0  0  0
  187.5240  178.2580  148.1440 F   0  0  0  0  0  0  0  0  0  0  0  0
  181.1950  178.1300  140.1360 C   0  0  0  0  0  0  0  0  0  0  0  0
  182.1310  178.6930  140.6460 C   0  0  0  0  0  0  0  0  0  0  0  0
  180.6560  177.2750  137.0900 C   0  0  0  0  0  1  0  0  0  0  0  0
  180.0590  177.4420  139.5140 C   0  0  1  0  0  3  0  0  0  0  0  0
  180.5600  176.5110  138.3960 C   0  0  1  0  0  3  0  0  0  0  0  0
  179.5660  174.4590  139.4940 C   0  0  0  0  0  2  0  0  0  0  0  0
  179.7140  175.2790  140.7830 C   0  0  0  0  0  2  0  0  0  0  0  0
  179.2360  176.7170  140.5910 C   0  0  0  0  0  2  0  0  0  0  0  0
  179.6440  175.3040  138.2140 C   0  0  0  0  0  2  0  0  0  0  0  0
  1  8  1  0  0  0  0
  1 12  1  0  0  0  0
  2  8  2  0  0  0  0
  3  8  1  6  0  0  0
  3 17  1  0  0  0  0
  3 11  1  0  0  0  0
  4  9  1  1  0  0  0
  4 14  1  0  0  0  0
  5 10  1  0  0  0  0
  6  5  2  0  0  0  0
  6  2  1  0  0  0  0
  7 16  1  0  0  0  0
 10  1  2  0  0  0  0
 11 18  1  6  0  0  0
 11 15  1  0  0  0  0
 12 18  1  0  0  0  0
 13  2  1  0  0  0  0
 15 14  1  0  0  0  0
 15 21  1  1  0  0  0
 16 27  1  6  0  0  0
 16  9  1  0  0  0  0
 17  7  1  6  0  0  0
 17  4  1  0  0  0  0
 19 25  1  0  0  0  0
 20 19  1  0  0  0  0
 21 23  1  0  0  0  0
 22 20  2  0  0  0  0
 23 19  2  0  0  0  0
 24 21  2  0  0  0  0
 24 22  1  0  0  0  0
 26 27  3  0  0  0  0
 29 26  1  1  0  0  0
 29 33  1  0  0  0  0
 30 28  1  6  0  0  0
 30 29  1  0  0  0  0
 31 32  1  0  0  0  0
 33 32  1  0  0  0  0
 34 30  1  0  0  0  0
 34 31  1  0  0  0  0
M  END
>  <MODEL>
5

>  <REMARK>
 VINA RESULT:      -8.7      3.705      8.289
  Name = 
  3 active torsions:
  status: ('A' for Active; 'I' for Inactive)
    1  A    between atoms: C_3  and  C_13
    2  A    between atoms: C_12  and  C_28
    3  A    between atoms: C_17  and  C_29
                            x       y       z     vdW  Elec       q    Type
                         _______ _______ _______ _____ _____    ______ ____

>  <TORSDO>
F 3

$$$$
=
 OpenBabel10252414483D

 34 39  0  0  1  0  0  0  0  0999 V2000
  185.6750  178.5330  144.2070 C   0  0  0  0  0  0  0  0  0  0  0  0
  187.6790  177.3080  143.6720 C   0  0  0  0  0  0  0  0  0  0  0  0
  186.0560  177.8890  141.7590 C   0  0  1  0  0  3  0  0  0  0  0  0
  186.5110  178.1330  139.4010 N   0  0  2  0  0  0  0  0  0  0  0  0
  187.2800  178.0650  145.8780 C   0  0  0  0  0  3  0  0  0  0  0  0
  188.0440  177.4010  144.9770 N   0  0  0  0  0  0  0  0  0  0  0  0
  188.3700  178.3680  140.8040 N   0  0  0  0  0  2  0  0  0  0  0  0
  186.5170  177.9690  143.2150 C   0  0  0  0  0  0  0  0  0  0  0  0
  187.5780  178.6210  138.5570 C   0  0  0  0  0  2  0  0  0  0  0  0
  186.0970  178.6040  145.4950 N   0  0  0  0  0  0  0  0  0  0  0  0
  184.7000  178.5850  141.5340 C   0  0  1  0  0  3  0  0  0  0  0  0
  184.2910  179.0240  143.8870 C   0  0  0  0  0  2  0  0  0  0  0  0
  188.4690  176.3950  142.7960 C   0  0  0  0  0  1  0  0  0  0  0  0
  185.2480  178.7940  139.0870 C   0  0  0  0  0  2  0  0  0  0  0  0
  184.1700  178.3600  140.1030 C   0  0  2  0  0  3  0  0  0  0  0  0
  188.8230  178.5790  139.4330 C   0  0  2  0  0  3  0  0  0  0  0  0
  186.9380  178.5790  140.7150 C   0  0  2  0  0  3  0  0  0  0  0  0
  183.7250  178.3170  142.6610 C   0  0  0  0  0  2  0  0  0  0  0  0
  181.7350  180.9390  138.7660 C   0  0  0  0  0  0  0  0  0  0  0  0
  180.5320  180.5260  139.3460 C   0  0  0  0  0  3  0  0  0  0  0  0
  182.8940  179.1060  139.8510 C   0  0  0  0  0  0  0  0  0  0  0  0
  180.5070  179.4040  140.1790 C   0  0  0  0  0  3  0  0  0  0  0  0
  182.9140  180.2300  139.0200 C   0  0  0  0  0  3  0  0  0  0  0  0
  181.6830  178.6940  140.4320 C   0  0  0  0  0  3  0  0  0  0  0  0
  181.7600  182.0260  137.9590 F   0  0  0  0  0  0  0  0  0  0  0  0
  190.3810  176.5440  138.6890 C   0  0  0  0  0  0  0  0  0  0  0  0
  189.6780  177.4620  139.0270 C   0  0  0  0  0  0  0  0  0  0  0  0
  189.7160  173.8600  137.0600 C   0  0  0  0  0  1  0  0  0  0  0  0
  191.2400  175.4280  138.2770 C   0  0  1  0  0  3  0  0  0  0  0  0
  190.7970  174.9110  136.8970 C   0  0  1  0  0  3  0  0  0  0  0  0
  193.0610  175.3690  135.8650 C   0  0  0  0  0  2  0  0  0  0  0  0
  193.1730  176.4190  136.9790 C   0  0  0  0  0  2  0  0  0  0  0  0
  192.7140  175.8600  138.3240 C   0  0  0  0  0  2  0  0  0  0  0  0
  191.9670  174.3220  136.1130 C   0  0  0  0  0  2  0  0  0  0  0  0
  1 10  1  0  0  0  0
  2  6  2  0  0  0  0
  3  8  1  1  0  0  0
  4  9  1  6  0  0  0
  4 17  1  0  0  0  0
  6  5  1  0  0  0  0
  8  2  1  0  0  0  0
  8  1  2  0  0  0  0
  9 16  1  0  0  0  0
 10  5  2  0  0  0  0
 11  3  1  0  0  0  0
 11 18  1  1  0  0  0
 12  1  1  0  0  0  0
 13  2  1  0  0  0  0
 14  4  1  0  0  0  0
 14 15  1  0  0  0  0
 15 21  1  6  0  0  0
 15 11  1  0  0  0  0
 16 27  1  6  0  0  0
 16  7  1  0  0  0  0
 17  7  1  1  0  0  0
 17  3  1  0  0  0  0
 18 12  1  0  0  0  0
 19 23  2  0  0  0  0
 19 20  1  0  0  0  0
 20 22  2  0  0  0  0
 21 24  2  0  0  0  0
 22 24  1  0  0  0  0
 23 21  1  0  0  0  0
 25 19  1  0  0  0  0
 26 27  3  0  0  0  0
 29 33  1  0  0  0  0
 29 26  1  6  0  0  0
 30 28  1  1  0  0  0
 30 29  1  0  0  0  0
 31 34  1  0  0  0  0
 31 32  1  0  0  0  0
 32 33  1  0  0  0  0
 34 30  1  0  0  0  0
M  END
>  <MODEL>
6

>  <REMARK>
 VINA RESULT:      -8.7      2.287      3.418
  Name = 
  3 active torsions:
  status: ('A' for Active; 'I' for Inactive)
    1  A    between atoms: C_3  and  C_13
    2  A    between atoms: C_12  and  C_28
    3  A    between atoms: C_17  and  C_29
                            x       y       z     vdW  Elec       q    Type
                         _______ _______ _______ _____ _____    ______ ____

>  <TORSDO>
F 3

$$$$
=
 OpenBabel10252414483D

 34 39  0  0  1  0  0  0  0  0999 V2000
  186.3890  178.5910  138.1620 C   0  0  0  0  0  0  0  0  0  0  0  0
  185.8980  178.5850  140.5200 C   0  0  0  0  0  0  0  0  0  0  0  0
  188.0210  177.3720  139.7110 C   0  0  1  0  0  3  0  0  0  0  0  0
  190.0480  176.8830  140.9280 N   0  0  2  0  0  0  0  0  0  0  0  0
  184.5310  179.7830  139.0050 C   0  0  0  0  0  3  0  0  0  0  0  0
  184.8160  179.3650  140.2620 N   0  0  0  0  0  0  0  0  0  0  0  0
  188.7580  178.6290  141.8020 N   0  0  0  0  0  2  0  0  0  0  0  0
  186.7930  178.2530  139.4780 C   0  0  0  0  0  0  0  0  0  0  0  0
  190.8670  177.5030  141.9440 C   0  0  0  0  0  2  0  0  0  0  0  0
  185.3010  179.3780  137.9660 N   0  0  0  0  0  0  0  0  0  0  0  0
  188.7680  177.0480  138.4040 C   0  0  1  0  0  3  0  0  0  0  0  0
  187.1080  178.0630  136.9510 C   0  0  0  0  0  2  0  0  0  0  0  0
  186.0240  178.0070  141.8890 C   0  0  0  0  0  1  0  0  0  0  0  0
  190.8380  176.5500  139.7450 C   0  0  0  0  0  2  0  0  0  0  0  0
  189.9060  176.0310  138.6290 C   0  0  2  0  0  3  0  0  0  0  0  0
  189.9490  178.5010  142.6360 C   0  0  2  0  0  3  0  0  0  0  0  0
  189.1410  177.9600  140.5740 C   0  0  2  0  0  3  0  0  0  0  0  0
  187.8200  176.7520  137.2610 C   0  0  0  0  0  2  0  0  0  0  0  0
  192.7080  176.1370  136.0800 C   0  0  0  0  0  0  0  0  0  0  0  0
  192.2000  175.3260  135.0600 C   0  0  0  0  0  3  0  0  0  0  0  0
  190.6920  175.7790  137.3780 C   0  0  0  0  0  0  0  0  0  0  0  0
  190.9370  174.7420  135.1960 C   0  0  0  0  0  3  0  0  0  0  0  0
  191.9550  176.3630  137.2360 C   0  0  0  0  0  3  0  0  0  0  0  0
  190.1840  174.9650  136.3510 C   0  0  0  0  0  3  0  0  0  0  0  0
  193.9310  176.7040  135.9470 F   0  0  0  0  0  0  0  0  0  0  0  0
  189.2470  177.5720  145.0380 C   0  0  0  0  0  0  0  0  0  0  0  0
  189.5660  177.9910  143.9540 C   0  0  0  0  0  0  0  0  0  0  0  0
  190.9550  177.1280  147.7190 C   0  0  0  0  0  1  0  0  0  0  0  0
  188.8580  177.0600  146.3560 C   0  0  1  0  0  3  0  0  0  0  0  0
  189.6270  177.8110  147.4570 C   0  0  1  0  0  3  0  0  0  0  0  0
  187.4980  178.6270  148.5540 C   0  0  0  0  0  2  0  0  0  0  0  0
  186.9040  178.4590  147.1490 C   0  0  0  0  0  2  0  0  0  0  0  0
  187.3310  177.1380  146.5140 C   0  0  0  0  0  2  0  0  0  0  0  0
  188.8260  177.8840  148.7540 C   0  0  0  0  0  2  0  0  0  0  0  0
  1  8  1  0  0  0  0
  2 13  1  0  0  0  0
  3  8  1  6  0  0  0
  3 17  1  0  0  0  0
  4 14  1  6  0  0  0
  4  9  1  0  0  0  0
  5  6  2  0  0  0  0
  6  2  1  0  0  0  0
  7 16  1  0  0  0  0
  8  2  2  0  0  0  0
  9 16  1  0  0  0  0
 10  1  2  0  0  0  0
 10  5  1  0  0  0  0
 11 18  1  6  0  0  0
 11 15  1  0  0  0  0
 11  3  1  0  0  0  0
 12 18  1  0  0  0  0
 12  1  1  0  0  0  0
 15 21  1  6  0  0  0
 15 14  1  0  0  0  0
 16 27  1  1  0  0  0
 17  4  1  0  0  0  0
 17  7  1  1  0  0  0
 19 23  1  0  0  0  0
 20 22  1  0  0  0  0
 20 19  2  0  0  0  0
 22 24  2  0  0  0  0
 23 21  2  0  0  0  0
 24 21  1  0  0  0  0
 25 19  1  0  0  0  0
 27 26  3  0  0  0  0
 29 26  1  6  0  0  0
 29 33  1  0  0  0  0
 29 30  1  0  0  0  0
 30 28  1  1  0  0  0
 30 34  1  0  0  0  0
 31 34  1  0  0  0  0
 32 31  1  0  0  0  0
 33 32  1  0  0  0  0
M  END
>  <MODEL>
7

>  <REMARK>
 VINA RESULT:      -8.5      3.225      9.180
  Name = 
  3 active torsions:
  status: ('A' for Active; 'I' for Inactive)
    1  A    between atoms: C_3  and  C_13
    2  A    between atoms: C_12  and  C_28
    3  A    between atoms: C_17  and  C_29
                            x       y       z     vdW  Elec       q    Type
                         _______ _______ _______ _____ _____    ______ ____

>  <TORSDO>
F 3

$$$$
=
 OpenBabel10252414483D

 34 39  0  0  1  0  0  0  0  0999 V2000
  188.7500  177.2630  135.3720 C   0  0  0  0  0  0  0  0  0  0  0  0
  187.2570  177.4110  137.2570 C   0  0  0  0  0  0  0  0  0  0  0  0
  189.6550  176.5640  137.6620 C   0  0  1  0  0  3  0  0  0  0  0  0
  190.9650  176.6200  139.6890 N   0  0  2  0  0  0  0  0  0  0  0  0
  186.5730  178.1460  135.1150 C   0  0  0  0  0  3  0  0  0  0  0  0
  186.3150  177.9290  136.4280 N   0  0  0  0  0  0  0  0  0  0  0  0
  189.2040  178.1590  139.5990 N   0  0  0  0  0  2  0  0  0  0  0  0
  188.5600  177.1540  136.7730 C   0  0  0  0  0  0  0  0  0  0  0  0
  191.1520  177.4940  140.8240 C   0  0  0  0  0  2  0  0  0  0  0  0
  187.7720  177.7930  134.5940 N   0  0  0  0  0  0  0  0  0  0  0  0
  190.9450  176.2570  136.8780 C   0  0  1  0  0  3  0  0  0  0  0  0
  189.9980  176.7620  134.7000 C   0  0  0  0  0  2  0  0  0  0  0  0
  186.8300  177.0190  138.6310 C   0  0  0  0  0  1  0  0  0  0  0  0
  192.2380  176.3260  139.0360 C   0  0  0  0  0  2  0  0  0  0  0  0
  191.9830  175.5170  137.7460 C   0  0  2  0  0  3  0  0  0  0  0  0
  189.8990  178.3580  140.8660 C   0  0  2  0  0  3  0  0  0  0  0  0
  190.1810  177.4510  138.7940 C   0  0  2  0  0  3  0  0  0  0  0  0
  190.6590  175.6590  135.5170 C   0  0  0  0  0  2  0  0  0  0  0  0
  195.1120  176.1940  135.7170 C   0  0  0  0  0  0  0  0  0  0  0  0
  195.6890  174.9220  135.6460 C   0  0  0  0  0  3  0  0  0  0  0  0
  193.2720  175.2930  137.0160 C   0  0  0  0  0  0  0  0  0  0  0  0
  195.0600  173.8340  136.2570 C   0  0  0  0  0  3  0  0  0  0  0  0
  193.9050  176.3780  136.4000 C   0  0  0  0  0  3  0  0  0  0  0  0
  193.8550  174.0170  136.9420 C   0  0  0  0  0  3  0  0  0  0  0  0
  195.7210  177.2470  135.1240 F   0  0  0  0  0  0  0  0  0  0  0  0
  188.3260  177.5680  142.8730 C   0  0  0  0  0  0  0  0  0  0  0  0
  189.0350  177.9270  141.9660 C   0  0  0  0  0  0  0  0  0  0  0  0
  188.9560  177.1250  145.9880 C   0  0  0  0  0  1  0  0  0  0  0  0
  187.4660  177.1330  143.9780 C   0  0  1  0  0  3  0  0  0  0  0  0
  187.8550  177.8780  145.2670 C   0  0  1  0  0  3  0  0  0  0  0  0
  185.5410  178.8660  145.5370 C   0  0  0  0  0  2  0  0  0  0  0  0
  185.4640  178.6800  144.0160 C   0  0  0  0  0  2  0  0  0  0  0  0
  185.9890  177.3100  143.5900 C   0  0  0  0  0  2  0  0  0  0  0  0
  186.6600  178.0500  146.2010 C   0  0  0  0  0  2  0  0  0  0  0  0
  1  8  1  0  0  0  0
  2 13  1  0  0  0  0
  3  8  1  6  0  0  0
  3 17  1  0  0  0  0
  4 14  1  6  0  0  0
  4  9  1  0  0  0  0
  5  6  2  0  0  0  0
  6  2  1  0  0  0  0
  7 16  1  0  0  0  0
  8  2  2  0  0  0  0
  9 16  1  0  0  0  0
 10  5  1  0  0  0  0
 10  1  2  0  0  0  0
 11 18  1  6  0  0  0
 11  3  1  0  0  0  0
 11 15  1  0  0  0  0
 12  1  1  0  0  0  0
 12 18  1  0  0  0  0
 15 21  1  6  0  0  0
 15 14  1  0  0  0  0
 16 27  1  1  0  0  0
 17  7  1  1  0  0  0
 17  4  1  0  0  0  0
 19 23  1  0  0  0  0
 20 19  2  0  0  0  0
 20 22  1  0  0  0  0
 22 24  2  0  0  0  0
 23 21  2  0  0  0  0
 24 21  1  0  0  0  0
 25 19  1  0  0  0  0
 27 26  3  0  0  0  0
 29 26  1  6  0  0  0
 29 30  1  0  0  0  0
 30 28  1  1  0  0  0
 30 34  1  0  0  0  0
 31 34  1  0  0  0  0
 32 31  1  0  0  0  0
 33 29  1  0  0  0  0
 33 32  1  0  0  0  0
M  END
>  <MODEL>
8

>  <REMARK>
 VINA RESULT:      -8.2      3.646     10.072
  Name = 
  3 active torsions:
  status: ('A' for Active; 'I' for Inactive)
    1  A    between atoms: C_3  and  C_13
    2  A    between atoms: C_12  and  C_28
    3  A    between atoms: C_17  and  C_29
                            x       y       z     vdW  Elec       q    Type
                         _______ _______ _______ _____ _____    ______ ____

>  <TORSDO>
F 3

$$$$
=
 OpenBabel10252414483D

 34 39  0  0  1  0  0  0  0  0999 V2000
  187.9700  177.8580  145.5910 C   0  0  0  0  0  0  0  0  0  0  0  0
  189.7990  176.8610  144.3810 C   0  0  0  0  0  0  0  0  0  0  0  0
  187.6090  177.3360  143.1110 C   0  0  1  0  0  3  0  0  0  0  0  0
  187.2710  177.7020  140.7490 N   0  0  2  0  0  0  0  0  0  0  0  0
  190.0560  177.5020  146.6440 C   0  0  0  0  0  3  0  0  0  0  0  0
  190.5490  176.9490  145.5090 N   0  0  0  0  0  0  0  0  0  0  0  0
  189.4510  178.0790  141.5130 N   0  0  0  0  0  2  0  0  0  0  0  0
  188.4990  177.4150  144.3520 C   0  0  0  0  0  0  0  0  0  0  0  0
  187.9700  178.3230  139.6470 C   0  0  0  0  0  2  0  0  0  0  0  0
  188.7700  177.9290  146.6850 N   0  0  0  0  0  0  0  0  0  0  0  0
  186.1970  177.8970  143.3650 C   0  0  1  0  0  3  0  0  0  0  0  0
  186.5180  178.2150  145.7500 C   0  0  0  0  0  2  0  0  0  0  0  0
  190.3470  176.0630  143.2460 C   0  0  0  0  0  1  0  0  0  0  0  0
  185.9210  178.2410  140.8870 C   0  0  0  0  0  2  0  0  0  0  0  0
  185.2620  177.6660  142.1600 C   0  0  2  0  0  3  0  0  0  0  0  0
  189.4260  178.3810  140.0860 C   0  0  2  0  0  3  0  0  0  0  0  0
  188.0520  178.1460  141.8890 C   0  0  2  0  0  3  0  0  0  0  0  0
  185.6570  177.4940  144.7210 C   0  0  0  0  0  2  0  0  0  0  0  0
  182.2380  179.1660  143.8820 C   0  0  0  0  0  0  0  0  0  0  0  0
  181.4020  179.4510  142.7980 C   0  0  0  0  0  3  0  0  0  0  0  0
  183.9130  178.2850  142.3660 C   0  0  0  0  0  0  0  0  0  0  0  0
  181.8190  179.1540  141.4980 C   0  0  0  0  0  3  0  0  0  0  0  0
  183.4900  178.5830  143.6660 C   0  0  0  0  0  3  0  0  0  0  0  0
  183.0710  178.5740  141.2800 C   0  0  0  0  0  3  0  0  0  0  0  0
  181.8340  179.4530  145.1430 F   0  0  0  0  0  0  0  0  0  0  0  0
  190.8390  176.5410  138.7650 C   0  0  0  0  0  0  0  0  0  0  0  0
  190.2020  177.3710  139.3630 C   0  0  0  0  0  0  0  0  0  0  0  0
  189.9360  174.2910  136.6630 C   0  0  0  0  0  1  0  0  0  0  0  0
  191.6180  175.5330  138.0370 C   0  0  1  0  0  3  0  0  0  0  0  0
  191.0310  175.3380  136.6280 C   0  0  1  0  0  3  0  0  0  0  0  0
  193.2030  175.9860  135.5030 C   0  0  0  0  0  2  0  0  0  0  0  0
  193.4540  176.7620  136.8030 C   0  0  0  0  0  2  0  0  0  0  0  0
  193.1040  175.9270  138.0320 C   0  0  0  0  0  2  0  0  0  0  0  0
  192.1030  174.9230  135.6230 C   0  0  0  0  0  2  0  0  0  0  0  0
  1 12  1  0  0  0  0
  1 10  1  0  0  0  0
  2  6  2  0  0  0  0
  3 11  1  0  0  0  0
  3  8  1  1  0  0  0
  4  9  1  6  0  0  0
  4 14  1  0  0  0  0
  4 17  1  0  0  0  0
  5 10  2  0  0  0  0
  6  5  1  0  0  0  0
  8  2  1  0  0  0  0
  8  1  2  0  0  0  0
  9 16  1  0  0  0  0
 11 18  1  1  0  0  0
 13  2  1  0  0  0  0
 14 15  1  0  0  0  0
 15 21  1  1  0  0  0
 15 11  1  0  0  0  0
 16 27  1  6  0  0  0
 16  7  1  0  0  0  0
 17  7  1  6  0  0  0
 17  3  1  0  0  0  0
 18 12  1  0  0  0  0
 19 25  1  0  0  0  0
 20 19  2  0  0  0  0
 21 23  2  0  0  0  0
 22 20  1  0  0  0  0
 23 19  1  0  0  0  0
 24 22  2  0  0  0  0
 24 21  1  0  0  0  0
 26 27  3  0  0  0  0
 29 26  1  6  0  0  0
 30 28  1  1  0  0  0
 30 29  1  0  0  0  0
 31 34  1  0  0  0  0
 31 32  1  0  0  0  0
 32 33  1  0  0  0  0
 33 29  1  0  0  0  0
 34 30  1  0  0  0  0
M  END
>  <MODEL>
9

>  <REMARK>
 VINA RESULT:      -7.8      1.117      1.543
  Name = 
  3 active torsions:
  status: ('A' for Active; 'I' for Inactive)
    1  A    between atoms: C_3  and  C_13
    2  A    between atoms: C_12  and  C_28
    3  A    between atoms: C_17  and  C_29
                            x       y       z     vdW  Elec       q    Type
                         _______ _______ _______ _____ _____    ______ ____

>  <TORSDO>
F 3

$$$$
