=
 OpenBabel10252415043D

 34 39  0  0  1  0  0  0  0  0999 V2000
  188.4510  178.0820  139.6120 C   0  0  0  0  0  0  0  0  0  0  0  0
  189.1630  177.8910  142.0580 C   0  0  1  0  0  3  0  0  0  0  0  0
  188.0190  178.3010  145.3550 C   0  0  0  0  0  2  0  0  0  0  0  0
  186.7890  178.3520  141.3320 C   0  0  0  0  0  0  0  0  0  0  0  0
  185.0390  178.5160  143.0800 C   0  0  0  0  0  0  0  0  0  0  0  0
  190.7170  177.1950  140.2070 C   0  0  0  0  0  2  0  0  0  0  0  0
  190.5990  177.9430  141.5280 C   0  0  0  0  0  2  0  0  0  0  0  0
  185.1300  178.7000  146.9320 S   0  0  0  0  0  0  0  0  0  0  0  0
  189.1190  176.0130  147.5320 C   0  0  0  0  0  1  0  0  0  0  0  0
  189.1300  177.3720  145.5110 N   0  0  0  0  0  0  0  0  0  0  0  0
  189.7160  177.2270  146.8440 C   0  0  2  0  0  3  0  0  0  0  0  0
  188.1250  178.1350  140.9800 C   0  0  0  0  0  0  0  0  0  0  0  0
  186.7940  177.5960  145.2320 O   0  0  0  0  0  0  0  0  0  0  0  0
  184.6820  178.4970  144.3290 N   0  0  0  0  0  0  0  0  0  0  0  0
  189.8680  177.8940  139.1520 C   0  0  0  0  0  2  0  0  0  0  0  0
  191.7850  176.6310  145.6390 C   0  0  0  0  0  3  0  0  0  0  0  0
  185.8160  178.5290  140.3360 C   0  0  0  0  0  0  0  0  0  0  0  0
  191.0050  176.3740  144.4640 N   0  0  0  0  0  0  0  0  0  0  0  0
  187.4790  178.2870  138.6870 N   0  0  0  0  0  0  0  0  0  0  0  0
  188.8350  176.3030  142.9000 S   0  0  0  0  0  0  0  0  0  0  0  0
  184.0410  178.7390  142.0250 C   0  0  0  0  0  3  0  0  0  0  0  0
  184.3790  178.7470  140.7220 C   0  0  0  0  0  0  0  0  0  0  0  0
  185.5750  178.2490  145.4250 C   0  0  0  0  0  0  0  0  0  0  0  0
  186.4050  178.3600  142.7040 N   0  0  0  0  0  2  0  0  0  0  0  0
  186.2090  178.5000  139.0350 N   0  0  0  0  0  0  0  0  0  0  0  0
  189.7560  176.7240  144.3840 C   0  0  0  0  0  0  0  0  0  0  0  0
  191.2090  177.0670  146.7610 C   0  0  0  0  0  3  0  0  0  0  0  0
  182.0210  180.4820  138.1810 C   0  0  2  0  0  3  0  0  0  0  0  0
  181.5670  179.2700  137.4910 N   0  0  0  0  0  2  0  0  0  0  0  0
  183.2990  178.9770  139.7180 C   0  0  0  0  0  0  0  0  0  0  0  0
  181.2380  178.2360  138.4700 C   0  0  0  0  0  2  0  0  0  0  0  0
  183.1030  180.1920  139.1880 C   0  0  0  0  0  3  0  0  0  0  0  0
  182.5050  177.7990  139.1980 C   0  0  0  0  0  2  0  0  0  0  0  0
  180.8550  181.1970  138.8420 C   0  0  0  0  0  1  0  0  0  0  0  0
  1 12  1  0  0  0  0
  2  7  1  6  0  0  0
  2 20  1  0  0  0  0
  3 10  1  0  0  0  0
  4 24  1  0  0  0  0
  5 14  2  0  0  0  0
  6  7  1  0  0  0  0
 10 11  1  0  0  0  0
 11  9  1  6  0  0  0
 12  4  2  0  0  0  0
 12  2  1  0  0  0  0
 13  3  1  0  0  0  0
 13 23  1  0  0  0  0
 14 23  1  0  0  0  0
 15  1  1  0  0  0  0
 15  6  1  0  0  0  0
 16 27  2  0  0  0  0
 17 22  1  0  0  0  0
 17  4  1  0  0  0  0
 18 16  1  0  0  0  0
 19 25  1  0  0  0  0
 19  1  2  0  0  0  0
 20 26  1  0  0  0  0
 21  5  1  0  0  0  0
 22 21  2  0  0  0  0
 23  8  2  0  0  0  0
 24  5  1  0  0  0  0
 25 17  2  0  0  0  0
 26 18  2  0  0  0  0
 26 10  1  0  0  0  0
 27 11  1  0  0  0  0
 28 34  1  1  0  0  0
 28 32  1  0  0  0  0
 29 28  1  0  0  0  0
 29 31  1  0  0  0  0
 30 22  1  0  0  0  0
 31 33  1  0  0  0  0
 32 30  2  0  0  0  0
 33 30  1  0  0  0  0
M  END
>  <MODEL>
1

>  <REMARK>
 VINA RESULT:      -9.9      0.000      0.000
  Name = 
  1 active torsions:
  status: ('A' for Active; 'I' for Inactive)
    1  A    between atoms: C_12  and  C_28
                            x       y       z     vdW  Elec       q    Type
                         _______ _______ _______ _____ _____    ______ ____

>  <TORSDO>
F 1

$$$$
=
 OpenBabel10252415043D

 34 39  0  0  1  0  0  0  0  0999 V2000
  191.0680  177.1350  143.1110 C   0  0  0  0  0  0  0  0  0  0  0  0
  188.7230  178.0180  143.6050 C   0  0  1  0  0  3  0  0  0  0  0  0
  185.8150  179.2700  142.0800 C   0  0  0  0  0  2  0  0  0  0  0  0
  189.5760  177.5650  141.2720 C   0  0  0  0  0  0  0  0  0  0  0  0
  188.0180  177.8870  139.3700 C   0  0  0  0  0  0  0  0  0  0  0  0
  190.1810  177.1320  145.4530 C   0  0  0  0  0  2  0  0  0  0  0  0
  189.2310  178.2450  145.0320 C   0  0  0  0  0  2  0  0  0  0  0  0
  184.5070  179.4490  139.0390 S   0  0  0  0  0  0  0  0  0  0  0  0
  182.9430  178.2730  143.4740 C   0  0  0  0  0  1  0  0  0  0  0  0
  185.3230  178.7760  143.3590 N   0  0  0  0  0  0  0  0  0  0  0  0
  184.0290  179.2710  143.8300 C   0  0  2  0  0  3  0  0  0  0  0  0
  189.8180  177.5870  142.6490 C   0  0  0  0  0  0  0  0  0  0  0  0
  185.6720  178.2780  141.0750 O   0  0  0  0  0  0  0  0  0  0  0  0
  186.8510  178.2240  138.9080 N   0  0  0  0  0  0  0  0  0  0  0  0
  191.4220  177.1660  144.5690 C   0  0  0  0  0  2  0  0  0  0  0  0
  184.9220  178.8370  146.0890 C   0  0  0  0  0  3  0  0  0  0  0  0
  190.5690  177.1190  140.3860 C   0  0  0  0  0  0  0  0  0  0  0  0
  185.9210  177.9860  145.5100 N   0  0  0  0  0  0  0  0  0  0  0  0
  192.0070  176.7390  142.2120 N   0  0  0  0  0  0  0  0  0  0  0  0
  187.3550  176.8080  143.5820 S   0  0  0  0  0  0  0  0  0  0  0  0
  189.0830  177.4550  138.4560 C   0  0  0  0  0  3  0  0  0  0  0  0
  190.2960  177.0840  138.9080 C   0  0  0  0  0  0  0  0  0  0  0  0
  185.7380  178.6220  139.7230 C   0  0  0  0  0  0  0  0  0  0  0  0
  188.3050  177.9630  140.7650 N   0  0  0  0  0  2  0  0  0  0  0  0
  191.7670  176.7300  140.9000 N   0  0  0  0  0  0  0  0  0  0  0  0
  186.1290  177.9530  144.2280 C   0  0  0  0  0  0  0  0  0  0  0  0
  184.0420  179.4810  145.3180 C   0  0  0  0  0  3  0  0  0  0  0  0
  191.9470  175.8810  135.6140 C   0  0  2  0  0  3  0  0  0  0  0  0
  193.3160  176.3060  135.9250 N   0  0  0  0  0  2  0  0  0  0  0  0
  191.3170  176.6550  137.9080 C   0  0  0  0  0  0  0  0  0  0  0  0
  193.6520  175.9280  137.2970 C   0  0  0  0  0  2  0  0  0  0  0  0
  190.9590  176.3300  136.6580 C   0  0  0  0  0  3  0  0  0  0  0  0
  192.7840  176.7160  138.2720 C   0  0  0  0  0  2  0  0  0  0  0  0
  191.8770  174.3750  135.4280 C   0  0  0  0  0  1  0  0  0  0  0  0
  1 15  1  0  0  0  0
  2  7  1  1  0  0  0
  3 10  1  0  0  0  0
  4 12  2  0  0  0  0
  5 24  1  0  0  0  0
  7  6  1  0  0  0  0
  8 23  2  0  0  0  0
 10 11  1  0  0  0  0
 10 26  1  0  0  0  0
 11  9  1  1  0  0  0
 11 27  1  0  0  0  0
 12  1  1  0  0  0  0
 12  2  1  0  0  0  0
 13  3  1  0  0  0  0
 14  5  2  0  0  0  0
 14 23  1  0  0  0  0
 15  6  1  0  0  0  0
 17 25  2  0  0  0  0
 17  4  1  0  0  0  0
 18 16  1  0  0  0  0
 19  1  2  0  0  0  0
 20  2  1  0  0  0  0
 20 26  1  0  0  0  0
 21 22  2  0  0  0  0
 21  5  1  0  0  0  0
 22 17  1  0  0  0  0
 23 13  1  0  0  0  0
 24  4  1  0  0  0  0
 25 19  1  0  0  0  0
 26 18  2  0  0  0  0
 27 16  2  0  0  0  0
 28 34  1  1  0  0  0
 28 29  1  0  0  0  0
 28 32  1  0  0  0  0
 29 31  1  0  0  0  0
 30 33  1  0  0  0  0
 30 22  1  0  0  0  0
 31 33  1  0  0  0  0
 32 30  2  0  0  0  0
M  END
>  <MODEL>
2

>  <REMARK>
 VINA RESULT:      -8.7      2.787      6.967
  Name = 
  1 active torsions:
  status: ('A' for Active; 'I' for Inactive)
    1  A    between atoms: C_12  and  C_28
                            x       y       z     vdW  Elec       q    Type
                         _______ _______ _______ _____ _____    ______ ____

>  <TORSDO>
F 1

$$$$
=
 OpenBabel10252415043D

 34 39  0  0  1  0  0  0  0  0999 V2000
  184.1690  178.6710  144.1580 C   0  0  0  0  0  0  0  0  0  0  0  0
  183.2920  178.8860  141.7690 C   0  0  1  0  0  3  0  0  0  0  0  0
  184.3100  179.1080  138.4130 C   0  0  0  0  0  2  0  0  0  0  0  0
  185.7210  178.4860  142.3280 C   0  0  0  0  0  0  0  0  0  0  0  0
  187.3190  178.1740  140.4590 C   0  0  0  0  0  0  0  0  0  0  0  0
  181.7060  178.6270  143.7040 C   0  0  0  0  0  2  0  0  0  0  0  0
  181.9910  179.3780  142.4110 C   0  0  0  0  0  2  0  0  0  0  0  0
  187.0680  178.6280  136.6360 S   0  0  0  0  0  0  0  0  0  0  0  0
  182.3800  177.4620  136.2350 C   0  0  0  0  0  1  0  0  0  0  0  0
  182.9450  178.6130  138.3050 N   0  0  0  0  0  0  0  0  0  0  0  0
  182.2670  178.7570  137.0170 C   0  0  2  0  0  3  0  0  0  0  0  0
  184.4130  178.7020  142.7730 C   0  0  0  0  0  0  0  0  0  0  0  0
  185.2330  178.0300  138.4120 O   0  0  0  0  0  0  0  0  0  0  0  0
  187.5740  178.1190  139.1860 N   0  0  0  0  0  0  0  0  0  0  0  0
  182.8010  178.9340  144.7180 C   0  0  0  0  0  2  0  0  0  0  0  0
  180.1920  178.8050  138.3520 C   0  0  0  0  0  3  0  0  0  0  0  0
  186.7540  178.2650  143.2520 C   0  0  0  0  0  0  0  0  0  0  0  0
  180.9090  178.2270  139.4520 N   0  0  0  0  0  0  0  0  0  0  0  0
  185.2070  178.4810  145.0140 N   0  0  0  0  0  0  0  0  0  0  0  0
  183.0180  177.3380  140.8390 S   0  0  0  0  0  0  0  0  0  0  0  0
  188.3940  177.9840  141.4410 C   0  0  0  0  0  3  0  0  0  0  0  0
  188.1560  178.0180  142.7660 C   0  0  0  0  0  0  0  0  0  0  0  0
  186.5870  178.2540  138.1520 C   0  0  0  0  0  0  0  0  0  0  0  0
  186.0040  178.4560  140.9320 N   0  0  0  0  0  2  0  0  0  0  0  0
  186.4520  178.2830  144.5780 N   0  0  0  0  0  0  0  0  0  0  0  0
  182.2050  178.1380  139.4490 C   0  0  0  0  0  0  0  0  0  0  0  0
  180.8150  179.0970  137.2080 C   0  0  0  0  0  3  0  0  0  0  0  0
  190.4120  176.5910  145.5750 C   0  0  2  0  0  3  0  0  0  0  0  0
  191.6810  177.1560  145.1010 N   0  0  0  0  0  2  0  0  0  0  0  0
  189.3070  177.8110  143.6920 C   0  0  0  0  0  0  0  0  0  0  0  0
  191.4870  178.5530  144.7190 C   0  0  0  0  0  2  0  0  0  0  0  0
  189.2830  176.8350  144.6090 C   0  0  0  0  0  3  0  0  0  0  0  0
  190.5670  178.6280  143.5050 C   0  0  0  0  0  2  0  0  0  0  0  0
  190.0620  177.1280  146.9530 C   0  0  0  0  0  1  0  0  0  0  0  0
  1 15  1  0  0  0  0
  1 19  1  0  0  0  0
  2  7  1  1  0  0  0
  2 12  1  0  0  0  0
  4 12  1  0  0  0  0
  4 17  2  0  0  0  0
  5 24  1  0  0  0  0
  5 21  1  0  0  0  0
  6 15  1  0  0  0  0
  7  6  1  0  0  0  0
  8 23  2  0  0  0  0
 10  3  1  0  0  0  0
 10 26  1  0  0  0  0
 11  9  1  1  0  0  0
 11 27  1  0  0  0  0
 11 10  1  0  0  0  0
 12  1  2  0  0  0  0
 13  3  1  0  0  0  0
 14  5  2  0  0  0  0
 16 18  1  0  0  0  0
 17 25  1  0  0  0  0
 20  2  1  0  0  0  0
 21 22  2  0  0  0  0
 22 17  1  0  0  0  0
 22 30  1  0  0  0  0
 23 13  1  0  0  0  0
 23 14  1  0  0  0  0
 24  4  1  0  0  0  0
 25 19  2  0  0  0  0
 26 18  2  0  0  0  0
 26 20  1  0  0  0  0
 27 16  2  0  0  0  0
 28 34  1  1  0  0  0
 29 28  1  0  0  0  0
 30 32  2  0  0  0  0
 31 29  1  0  0  0  0
 32 28  1  0  0  0  0
 33 30  1  0  0  0  0
 33 31  1  0  0  0  0
M  END
>  <MODEL>
3

>  <REMARK>
 VINA RESULT:      -8.6      2.545      8.914
  Name = 
  1 active torsions:
  status: ('A' for Active; 'I' for Inactive)
    1  A    between atoms: C_12  and  C_28
                            x       y       z     vdW  Elec       q    Type
                         _______ _______ _______ _____ _____    ______ ____

>  <TORSDO>
F 1

$$$$
=
 OpenBabel10252415043D

 34 39  0  0  1  0  0  0  0  0999 V2000
  190.3760  177.6160  141.1530 C   0  0  0  0  0  0  0  0  0  0  0  0
  189.1440  178.0850  143.3400 C   0  0  1  0  0  3  0  0  0  0  0  0
  186.0500  179.1060  144.6580 C   0  0  0  0  0  2  0  0  0  0  0  0
  188.0140  178.0730  141.0830 C   0  0  0  0  0  0  0  0  0  0  0  0
  185.5620  178.4240  140.9960 C   0  0  0  0  0  0  0  0  0  0  0  0
  191.4880  177.1740  143.3530 C   0  0  0  0  0  2  0  0  0  0  0  0
  190.5360  178.1880  143.9720 C   0  0  0  0  0  2  0  0  0  0  0  0
  182.9320  179.5050  143.6040 S   0  0  0  0  0  0  0  0  0  0  0  0
  185.1150  177.5360  147.4580 C   0  0  0  0  0  1  0  0  0  0  0  0
  186.6520  178.3810  145.7680 N   0  0  0  0  0  0  0  0  0  0  0  0
  186.1170  178.6210  147.1090 C   0  0  2  0  0  3  0  0  0  0  0  0
  189.1880  177.9450  141.8320 C   0  0  0  0  0  0  0  0  0  0  0  0
  185.2150  178.2480  143.8970 O   0  0  0  0  0  0  0  0  0  0  0  0
  184.4300  178.6520  141.5920 N   0  0  0  0  0  0  0  0  0  0  0  0
  191.6860  177.5010  141.8780 C   0  0  0  0  0  2  0  0  0  0  0  0
  188.3790  178.0190  147.8900 C   0  0  0  0  0  3  0  0  0  0  0  0
  188.0410  177.8960  139.6910 C   0  0  0  0  0  0  0  0  0  0  0  0
  188.6330  177.4030  146.6200 N   0  0  0  0  0  0  0  0  0  0  0  0
  190.3560  177.4810  139.8020 N   0  0  0  0  0  0  0  0  0  0  0  0
  188.1940  176.7080  144.0740 S   0  0  0  0  0  0  0  0  0  0  0  0
  185.6160  178.2740  139.5360 C   0  0  0  0  0  3  0  0  0  0  0  0
  186.7720  178.0200  138.8940 C   0  0  0  0  0  0  0  0  0  0  0  0
  184.2700  178.7760  143.0140 C   0  0  0  0  0  0  0  0  0  0  0  0
  186.7790  178.3530  141.7350 N   0  0  0  0  0  2  0  0  0  0  0  0
  189.2310  177.6140  139.0970 N   0  0  0  0  0  0  0  0  0  0  0  0
  187.8350  177.5710  145.6090 C   0  0  0  0  0  0  0  0  0  0  0  0
  187.2170  178.6290  148.1340 C   0  0  0  0  0  3  0  0  0  0  0  0
  185.7350  176.9200  135.3250 C   0  0  2  0  0  3  0  0  0  0  0  0
  186.3980  178.0060  134.5950 N   0  0  0  0  0  2  0  0  0  0  0  0
  186.7330  177.8790  137.4090 C   0  0  0  0  0  0  0  0  0  0  0  0
  187.7450  178.2080  135.1240 C   0  0  0  0  0  2  0  0  0  0  0  0
  185.8110  177.1070  136.8170 C   0  0  0  0  0  3  0  0  0  0  0  0
  187.6610  178.7180  136.5580 C   0  0  0  0  0  2  0  0  0  0  0  0
  186.3090  175.5710  134.9270 C   0  0  0  0  0  1  0  0  0  0  0  0
  1 12  1  0  0  0  0
  1 15  1  0  0  0  0
  2  7  1  1  0  0  0
  2 20  1  0  0  0  0
  3 10  1  0  0  0  0
  4 24  1  0  0  0  0
  4 12  2  0  0  0  0
  5 14  2  0  0  0  0
  5 24  1  0  0  0  0
  6  7  1  0  0  0  0
 10 11  1  0  0  0  0
 11  9  1  1  0  0  0
 11 27  1  0  0  0  0
 12  2  1  0  0  0  0
 13  3  1  0  0  0  0
 14 23  1  0  0  0  0
 15  6  1  0  0  0  0
 16 27  2  0  0  0  0
 17  4  1  0  0  0  0
 18 16  1  0  0  0  0
 19  1  2  0  0  0  0
 20 26  1  0  0  0  0
 21  5  1  0  0  0  0
 22 21  2  0  0  0  0
 22 17  1  0  0  0  0
 23  8  2  0  0  0  0
 23 13  1  0  0  0  0
 25 17  2  0  0  0  0
 25 19  1  0  0  0  0
 26 10  1  0  0  0  0
 26 18  2  0  0  0  0
 28 34  1  1  0  0  0
 28 32  1  0  0  0  0
 29 31  1  0  0  0  0
 29 28  1  0  0  0  0
 30 22  1  0  0  0  0
 31 33  1  0  0  0  0
 32 30  2  0  0  0  0
 33 30  1  0  0  0  0
M  END
>  <MODEL>
4

>  <REMARK>
 VINA RESULT:      -8.5      2.541      3.845
  Name = 
  1 active torsions:
  status: ('A' for Active; 'I' for Inactive)
    1  A    between atoms: C_12  and  C_28
                            x       y       z     vdW  Elec       q    Type
                         _______ _______ _______ _____ _____    ______ ____

>  <TORSDO>
F 1

$$$$
=
 OpenBabel10252415043D

 34 39  0  0  1  0  0  0  0  0999 V2000
  186.6520  178.2590  140.0660 C   0  0  0  0  0  0  0  0  0  0  0  0
  188.1570  178.0050  142.1140 C   0  0  1  0  0  3  0  0  0  0  0  0
  188.2220  178.3450  145.6110 C   0  0  0  0  0  2  0  0  0  0  0  0
  185.6860  178.5010  142.2570 C   0  0  0  0  0  0  0  0  0  0  0  0
  184.6450  178.6380  144.5030 C   0  0  0  0  0  0  0  0  0  0  0  0
  188.9700  177.3420  139.8280 C   0  0  0  0  0  2  0  0  0  0  0  0
  189.3240  178.0590  141.1230 C   0  0  0  0  0  2  0  0  0  0  0  0
  186.0560  178.7280  148.0920 S   0  0  0  0  0  0  0  0  0  0  0  0
  189.9680  175.9970  147.2310 C   0  0  0  0  0  1  0  0  0  0  0  0
  189.3050  177.4050  145.3570 N   0  0  0  0  0  0  0  0  0  0  0  0
  190.3110  177.2220  146.4040 C   0  0  2  0  0  3  0  0  0  0  0  0
  186.8160  178.2830  141.4630 C   0  0  0  0  0  0  0  0  0  0  0  0
  187.0190  177.6520  145.9020 O   0  0  0  0  0  0  0  0  0  0  0  0
  184.7390  178.5910  145.7980 N   0  0  0  0  0  0  0  0  0  0  0  0
  187.8210  178.0720  139.1430 C   0  0  0  0  0  2  0  0  0  0  0  0
  191.8310  176.6400  144.5490 C   0  0  0  0  0  3  0  0  0  0  0  0
  184.4330  178.7100  141.6600 C   0  0  0  0  0  0  0  0  0  0  0  0
  190.6900  176.4170  143.7090 N   0  0  0  0  0  0  0  0  0  0  0  0
  185.4240  178.4940  139.5350 N   0  0  0  0  0  0  0  0  0  0  0  0
  188.1140  176.4000  142.9850 S   0  0  0  0  0  0  0  0  0  0  0  0
  183.3490  178.8930  143.8600 C   0  0  0  0  0  3  0  0  0  0  0  0
  183.2190  178.9290  142.5200 C   0  0  0  0  0  0  0  0  0  0  0  0
  185.9500  178.3110  146.5150 C   0  0  0  0  0  0  0  0  0  0  0  0
  185.7960  178.4800  143.6770 N   0  0  0  0  0  2  0  0  0  0  0  0
  184.3540  178.7090  140.3030 N   0  0  0  0  0  0  0  0  0  0  0  0
  189.4960  176.7790  144.0710 C   0  0  0  0  0  0  0  0  0  0  0  0
  191.6810  177.0530  145.8100 C   0  0  0  0  0  3  0  0  0  0  0  0
  180.2160  179.0830  140.0740 C   0  0  2  0  0  3  0  0  0  0  0  0
  179.1660  179.2790  141.0800 N   0  0  0  0  0  2  0  0  0  0  0  0
  181.8640  179.1920  141.9540 C   0  0  0  0  0  0  0  0  0  0  0  0
  179.5940  180.2830  142.0520 C   0  0  0  0  0  2  0  0  0  0  0  0
  181.5630  178.8310  140.6990 C   0  0  0  0  0  3  0  0  0  0  0  0
  180.7800  179.7510  142.8490 C   0  0  0  0  0  2  0  0  0  0  0  0
  180.2820  180.2650  139.1230 C   0  0  0  0  0  1  0  0  0  0  0  0
  1 12  1  0  0  0  0
  2  7  1  6  0  0  0
  2 20  1  0  0  0  0
  3 13  1  0  0  0  0
  4 24  1  0  0  0  0
  5 14  2  0  0  0  0
  6  7  1  0  0  0  0
 10  3  1  0  0  0  0
 10 11  1  0  0  0  0
 11  9  1  6  0  0  0
 12  2  1  0  0  0  0
 12  4  2  0  0  0  0
 13 23  1  0  0  0  0
 14 23  1  0  0  0  0
 15  6  1  0  0  0  0
 15  1  1  0  0  0  0
 16 27  2  0  0  0  0
 17  4  1  0  0  0  0
 17 22  1  0  0  0  0
 18 26  2  0  0  0  0
 18 16  1  0  0  0  0
 19  1  2  0  0  0  0
 19 25  1  0  0  0  0
 20 26  1  0  0  0  0
 21  5  1  0  0  0  0
 22 21  2  0  0  0  0
 23  8  2  0  0  0  0
 24  5  1  0  0  0  0
 25 17  2  0  0  0  0
 26 10  1  0  0  0  0
 27 11  1  0  0  0  0
 28 34  1  1  0  0  0
 28 32  1  0  0  0  0
 28 29  1  0  0  0  0
 29 31  1  0  0  0  0
 30 22  1  0  0  0  0
 30 33  1  0  0  0  0
 31 33  1  0  0  0  0
 32 30  2  0  0  0  0
M  END
>  <MODEL>
5

>  <REMARK>
 VINA RESULT:      -8.0      1.610      2.009
  Name = 
  1 active torsions:
  status: ('A' for Active; 'I' for Inactive)
    1  A    between atoms: C_12  and  C_28
                            x       y       z     vdW  Elec       q    Type
                         _______ _______ _______ _____ _____    ______ ____

>  <TORSDO>
F 1

$$$$
=
 OpenBabel10252415043D

 34 39  0  0  1  0  0  0  0  0999 V2000
  183.8880  178.6160  144.0250 C   0  0  0  0  0  0  0  0  0  0  0  0
  183.0550  178.8880  141.6260 C   0  0  1  0  0  3  0  0  0  0  0  0
  184.1330  179.1470  138.2910 C   0  0  0  0  0  2  0  0  0  0  0  0
  185.4670  178.4330  142.2170 C   0  0  0  0  0  0  0  0  0  0  0  0
  187.0890  178.1220  140.3690 C   0  0  0  0  0  0  0  0  0  0  0  0
  181.4330  178.6260  143.5300 C   0  0  0  0  0  2  0  0  0  0  0  0
  181.7530  179.3930  142.2540 C   0  0  0  0  0  2  0  0  0  0  0  0
  186.9100  178.6440  136.5510 S   0  0  0  0  0  0  0  0  0  0  0  0
  182.2090  177.5730  136.0540 C   0  0  0  0  0  1  0  0  0  0  0  0
  182.7600  178.6790  138.1530 N   0  0  0  0  0  0  0  0  0  0  0  0
  182.1060  178.8570  136.8560 C   0  0  2  0  0  3  0  0  0  0  0  0
  184.1560  178.6660  142.6440 C   0  0  0  0  0  0  0  0  0  0  0  0
  185.0350  178.0520  138.2870 O   0  0  0  0  0  0  0  0  0  0  0  0
  187.3650  178.0840  139.1000 N   0  0  0  0  0  0  0  0  0  0  0  0
  182.5170  178.8960  144.5670 C   0  0  0  0  0  2  0  0  0  0  0  0
  180.0110  178.9210  138.1580 C   0  0  0  0  0  3  0  0  0  0  0  0
  186.4800  178.1780  143.1540 C   0  0  0  0  0  0  0  0  0  0  0  0
  180.6990  178.3120  139.2590 N   0  0  0  0  0  0  0  0  0  0  0  0
  184.9080  178.3930  144.8930 N   0  0  0  0  0  0  0  0  0  0  0  0
  182.7680  177.3610  140.6650 S   0  0  0  0  0  0  0  0  0  0  0  0
  188.1440  177.8960  141.3650 C   0  0  0  0  0  3  0  0  0  0  0  0
  187.8850  177.9130  142.6870 C   0  0  0  0  0  0  0  0  0  0  0  0
  186.3970  178.2540  138.0530 C   0  0  0  0  0  0  0  0  0  0  0  0
  185.7730  178.4210  140.8260 N   0  0  0  0  0  2  0  0  0  0  0  0
  186.1560  178.1790  144.4750 N   0  0  0  0  0  0  0  0  0  0  0  0
  181.9930  178.1980  139.2760 C   0  0  0  0  0  0  0  0  0  0  0  0
  180.6580  179.2200  137.0290 C   0  0  0  0  0  3  0  0  0  0  0  0
  191.4160  177.1160  144.0720 C   0  0  2  0  0  3  0  0  0  0  0  0
  191.2210  177.6780  145.4130 N   0  0  0  0  0  2  0  0  0  0  0  0
  189.0170  177.6690  143.6280 C   0  0  0  0  0  0  0  0  0  0  0  0
  189.9260  177.2570  145.9420 C   0  0  0  0  0  2  0  0  0  0  0  0
  190.2420  177.3830  143.1670 C   0  0  0  0  0  3  0  0  0  0  0  0
  188.8080  177.8770  145.1110 C   0  0  0  0  0  2  0  0  0  0  0  0
  191.7050  175.6270  144.1460 C   0  0  0  0  0  1  0  0  0  0  0  0
  1 15  1  0  0  0  0
  1 19  1  0  0  0  0
  2  7  1  1  0  0  0
  2 12  1  0  0  0  0
  4 12  1  0  0  0  0
  4 17  2  0  0  0  0
  5 24  1  0  0  0  0
  5 21  1  0  0  0  0
  6 15  1  0  0  0  0
  7  6  1  0  0  0  0
  8 23  2  0  0  0  0
 10  3  1  0  0  0  0
 10 26  1  0  0  0  0
 11  9  1  6  0  0  0
 11 27  1  0  0  0  0
 11 10  1  0  0  0  0
 12  1  2  0  0  0  0
 13  3  1  0  0  0  0
 14  5  2  0  0  0  0
 16 18  1  0  0  0  0
 17 25  1  0  0  0  0
 18 26  2  0  0  0  0
 20  2  1  0  0  0  0
 21 22  2  0  0  0  0
 22 17  1  0  0  0  0
 22 30  1  0  0  0  0
 23 13  1  0  0  0  0
 23 14  1  0  0  0  0
 24  4  1  0  0  0  0
 25 19  2  0  0  0  0
 26 20  1  0  0  0  0
 27 16  2  0  0  0  0
 28 34  1  1  0  0  0
 28 29  1  0  0  0  0
 29 31  1  0  0  0  0
 30 33  1  0  0  0  0
 32 30  2  0  0  0  0
 32 28  1  0  0  0  0
 33 31  1  0  0  0  0
M  END
>  <MODEL>
6

>  <REMARK>
 VINA RESULT:      -8.0      2.606      8.970
  Name = 
  1 active torsions:
  status: ('A' for Active; 'I' for Inactive)
    1  A    between atoms: C_12  and  C_28
                            x       y       z     vdW  Elec       q    Type
                         _______ _______ _______ _____ _____    ______ ____

>  <TORSDO>
F 1

$$$$
=
 OpenBabel10252415043D

 34 39  0  0  1  0  0  0  0  0999 V2000
  184.1700  178.6250  143.7150 C   0  0  0  0  0  0  0  0  0  0  0  0
  186.5740  177.7790  143.5490 C   0  0  1  0  0  3  0  0  0  0  0  0
  189.0390  176.7530  141.2640 C   0  0  0  0  0  2  0  0  0  0  0  0
  185.1770  178.3990  141.5400 C   0  0  0  0  0  0  0  0  0  0  0  0
  186.2300  178.2870  139.2990 C   0  0  0  0  0  0  0  0  0  0  0  0
  185.5990  178.4610  145.7650 C   0  0  0  0  0  2  0  0  0  0  0  0
  186.4300  177.4180  145.0310 C   0  0  0  0  0  2  0  0  0  0  0  0
  189.5730  176.8710  137.9940 S   0  0  0  0  0  0  0  0  0  0  0  0
  192.1530  177.7210  142.0090 C   0  0  0  0  0  1  0  0  0  0  0  0
  189.8210  177.1530  142.4260 N   0  0  0  0  0  0  0  0  0  0  0  0
  191.1960  176.6620  142.5260 C   0  0  2  0  0  3  0  0  0  0  0  0
  185.2760  178.2530  142.9270 C   0  0  0  0  0  0  0  0  0  0  0  0
  188.9230  177.8290  140.3480 O   0  0  0  0  0  0  0  0  0  0  0  0
  187.2530  178.0270  138.5410 N   0  0  0  0  0  0  0  0  0  0  0  0
  184.1810  178.4620  145.2070 C   0  0  0  0  0  2  0  0  0  0  0  0
  190.8730  176.8770  144.9630 C   0  0  0  0  0  3  0  0  0  0  0  0
  183.9930  178.8850  140.9630 C   0  0  0  0  0  0  0  0  0  0  0  0
  189.7540  177.7410  144.7200 N   0  0  0  0  0  0  0  0  0  0  0  0
  183.0370  179.0650  143.1070 N   0  0  0  0  0  0  0  0  0  0  0  0
  187.8830  179.0300  143.3060 S   0  0  0  0  0  0  0  0  0  0  0  0
  184.9700  178.7600  138.7100 C   0  0  0  0  0  3  0  0  0  0  0  0
  183.8990  179.0530  139.4720 C   0  0  0  0  0  0  0  0  0  0  0  0
  188.5350  177.5980  139.0260 C   0  0  0  0  0  0  0  0  0  0  0  0
  186.2900  178.0850  140.7090 N   0  0  0  0  0  2  0  0  0  0  0  0
  182.9520  179.1920  141.7820 N   0  0  0  0  0  0  0  0  0  0  0  0
  189.2420  177.8750  143.5330 C   0  0  0  0  0  0  0  0  0  0  0  0
  191.5460  176.3290  143.9490 C   0  0  0  0  0  3  0  0  0  0  0  0
  181.1380  181.3720  138.0520 C   0  0  2  0  0  3  0  0  0  0  0  0
  180.5690  180.4190  137.0920 N   0  0  0  0  0  2  0  0  0  0  0  0
  182.6620  179.5300  138.7880 C   0  0  0  0  0  0  0  0  0  0  0  0
  180.4140  179.1120  137.7270 C   0  0  0  0  0  2  0  0  0  0  0  0
  182.3780  180.8380  138.7180 C   0  0  0  0  0  3  0  0  0  0  0  0
  181.7880  178.5370  138.0550 C   0  0  0  0  0  2  0  0  0  0  0  0
  180.1050  181.7750  139.0910 C   0  0  0  0  0  1  0  0  0  0  0  0
  1 15  1  0  0  0  0
  2  7  1  1  0  0  0
  3 10  1  0  0  0  0
  4 12  1  0  0  0  0
  5 24  1  0  0  0  0
  7  6  1  0  0  0  0
  8 23  2  0  0  0  0
 10 11  1  0  0  0  0
 10 26  1  0  0  0  0
 11  9  1  1  0  0  0
 11 27  1  0  0  0  0
 12  2  1  0  0  0  0
 12  1  2  0  0  0  0
 13  3  1  0  0  0  0
 14 23  1  0  0  0  0
 14  5  2  0  0  0  0
 15  6  1  0  0  0  0
 17  4  2  0  0  0  0
 17 25  1  0  0  0  0
 18 16  1  0  0  0  0
 19  1  1  0  0  0  0
 20 26  1  0  0  0  0
 20  2  1  0  0  0  0
 21  5  1  0  0  0  0
 21 22  2  0  0  0  0
 22 17  1  0  0  0  0
 23 13  1  0  0  0  0
 24  4  1  0  0  0  0
 25 19  2  0  0  0  0
 26 18  2  0  0  0  0
 27 16  2  0  0  0  0
 28 32  1  0  0  0  0
 28 34  1  1  0  0  0
 29 31  1  0  0  0  0
 29 28  1  0  0  0  0
 30 22  1  0  0  0  0
 31 33  1  0  0  0  0
 32 30  2  0  0  0  0
 33 30  1  0  0  0  0
M  END
>  <MODEL>
7

>  <REMARK>
 VINA RESULT:      -7.8      1.921      4.423
  Name = 
  1 active torsions:
  status: ('A' for Active; 'I' for Inactive)
    1  A    between atoms: C_12  and  C_28
                            x       y       z     vdW  Elec       q    Type
                         _______ _______ _______ _____ _____    ______ ____

>  <TORSDO>
F 1

$$$$
=
 OpenBabel10252415043D

 34 39  0  0  1  0  0  0  0  0999 V2000
  184.5610  178.6080  145.0010 C   0  0  0  0  0  0  0  0  0  0  0  0
  183.9180  178.9510  142.5530 C   0  0  1  0  0  3  0  0  0  0  0  0
  185.2370  179.1180  139.3000 C   0  0  0  0  0  2  0  0  0  0  0  0
  186.2380  178.2920  143.3030 C   0  0  0  0  0  0  0  0  0  0  0  0
  187.9490  177.8460  141.5660 C   0  0  0  0  0  0  0  0  0  0  0  0
  182.1550  178.8260  144.3430 C   0  0  0  0  0  2  0  0  0  0  0  0
  182.6240  179.5640  143.0960 C   0  0  0  0  0  2  0  0  0  0  0  0
  188.0720  178.3830  137.7480 S   0  0  0  0  0  0  0  0  0  0  0  0
  183.3420  177.7150  136.9290 C   0  0  0  0  0  1  0  0  0  0  0  0
  183.8420  178.7690  139.0670 N   0  0  0  0  0  0  0  0  0  0  0  0
  183.2940  179.0030  137.7300 C   0  0  2  0  0  3  0  0  0  0  0  0
  184.9250  178.6360  143.6420 C   0  0  0  0  0  0  0  0  0  0  0  0
  186.0410  177.9510  139.3490 O   0  0  0  0  0  0  0  0  0  0  0  0
  188.3050  177.7850  140.3180 N   0  0  0  0  0  0  0  0  0  0  0  0
  183.1850  179.0030  145.4520 C   0  0  0  0  0  2  0  0  0  0  0  0
  181.1290  179.2440  138.8890 C   0  0  0  0  0  3  0  0  0  0  0  0
  187.1600  177.9510  144.3040 C   0  0  0  0  0  0  0  0  0  0  0  0
  181.6870  178.5780  140.0300 N   0  0  0  0  0  0  0  0  0  0  0  0
  185.4980  178.2980  145.9350 N   0  0  0  0  0  0  0  0  0  0  0  0
  183.5680  177.4540  141.5660 S   0  0  0  0  0  0  0  0  0  0  0  0
  188.9110  177.5300  142.6290 C   0  0  0  0  0  3  0  0  0  0  0  0
  188.5650  177.5680  143.9300 C   0  0  0  0  0  0  0  0  0  0  0  0
  187.4280  178.0370  139.2090 C   0  0  0  0  0  0  0  0  0  0  0  0
  186.6340  178.2550  141.9350 N   0  0  0  0  0  2  0  0  0  0  0  0
  186.7490  177.9800  145.6000 N   0  0  0  0  0  0  0  0  0  0  0  0
  182.9630  178.3550  140.1330 C   0  0  0  0  0  0  0  0  0  0  0  0
  181.8730  179.4870  137.8080 C   0  0  0  0  0  3  0  0  0  0  0  0
  191.9100  176.4620  145.5450 C   0  0  2  0  0  3  0  0  0  0  0  0
  191.6810  177.0490  146.8700 N   0  0  0  0  0  2  0  0  0  0  0  0
  189.6070  177.2290  144.9440 C   0  0  0  0  0  0  0  0  0  0  0  0
  190.3210  176.7530  147.3140 C   0  0  0  0  0  2  0  0  0  0  0  0
  190.8280  176.8280  144.5650 C   0  0  0  0  0  3  0  0  0  0  0  0
  189.3210  177.4670  146.4100 C   0  0  0  0  0  2  0  0  0  0  0  0
  192.0560  174.9520  145.6400 C   0  0  0  0  0  1  0  0  0  0  0  0
  1 15  1  0  0  0  0
  1 19  1  0  0  0  0
  2  7  1  1  0  0  0
  2 12  1  0  0  0  0
  3 13  1  0  0  0  0
  4 12  1  0  0  0  0
  4 17  2  0  0  0  0
  5 24  1  0  0  0  0
  5 21  1  0  0  0  0
  6 15  1  0  0  0  0
  7  6  1  0  0  0  0
  8 23  2  0  0  0  0
 10  3  1  0  0  0  0
 10 26  1  0  0  0  0
 11  9  1  6  0  0  0
 11 27  1  0  0  0  0
 11 10  1  0  0  0  0
 12  1  2  0  0  0  0
 14  5  2  0  0  0  0
 16 18  1  0  0  0  0
 17 25  1  0  0  0  0
 18 26  2  0  0  0  0
 20  2  1  0  0  0  0
 21 22  2  0  0  0  0
 22 17  1  0  0  0  0
 22 30  1  0  0  0  0
 23 13  1  0  0  0  0
 23 14  1  0  0  0  0
 24  4  1  0  0  0  0
 25 19  2  0  0  0  0
 26 20  1  0  0  0  0
 27 16  2  0  0  0  0
 28 34  1  1  0  0  0
 28 29  1  0  0  0  0
 29 31  1  0  0  0  0
 30 33  1  0  0  0  0
 32 30  2  0  0  0  0
 32 28  1  0  0  0  0
 33 31  1  0  0  0  0
M  END
>  <MODEL>
8

>  <REMARK>
 VINA RESULT:      -7.5      2.299      8.868
  Name = 
  1 active torsions:
  status: ('A' for Active; 'I' for Inactive)
    1  A    between atoms: C_12  and  C_28
                            x       y       z     vdW  Elec       q    Type
                         _______ _______ _______ _____ _____    ______ ____

>  <TORSDO>
F 1

$$$$
=
 OpenBabel10252415043D

 34 39  0  0  1  0  0  0  0  0999 V2000
  183.1990  178.6600  142.2170 C   0  0  0  0  0  0  0  0  0  0  0  0
  183.8250  178.4470  139.7500 C   0  0  1  0  0  3  0  0  0  0  0  0
  186.5600  178.1600  137.5610 C   0  0  0  0  0  2  0  0  0  0  0  0
  185.4970  178.2440  141.6320 C   0  0  0  0  0  0  0  0  0  0  0  0
  187.8460  177.6980  141.0600 C   0  0  0  0  0  0  0  0  0  0  0  0
  181.4160  178.4410  140.4720 C   0  0  0  0  0  2  0  0  0  0  0  0
  182.4190  178.9820  139.4630 C   0  0  0  0  0  2  0  0  0  0  0  0
  189.8060  177.5110  137.7420 S   0  0  0  0  0  0  0  0  0  0  0  0
  186.0890  176.1020  134.9680 C   0  0  0  0  0  1  0  0  0  0  0  0
  185.4630  177.5980  136.7850 N   0  0  0  0  0  0  0  0  0  0  0  0
  185.6320  177.5020  135.3350 C   0  0  2  0  0  3  0  0  0  0  0  0
  184.1790  178.4750  141.2240 C   0  0  0  0  0  0  0  0  0  0  0  0
  187.2600  177.1360  138.2490 O   0  0  0  0  0  0  0  0  0  0  0  0
  188.7670  177.4470  140.1780 N   0  0  0  0  0  0  0  0  0  0  0  0
  181.7710  178.9540  141.8620 C   0  0  0  0  0  2  0  0  0  0  0  0
  183.1730  177.6800  135.2470 C   0  0  0  0  0  3  0  0  0  0  0  0
  185.8200  178.2200  142.9970 C   0  0  0  0  0  0  0  0  0  0  0  0
  183.1160  177.3200  136.6340 N   0  0  0  0  0  0  0  0  0  0  0  0
  183.5670  178.6550  143.5250 N   0  0  0  0  0  0  0  0  0  0  0  0
  184.0300  176.7580  139.0850 S   0  0  0  0  0  0  0  0  0  0  0  0
  188.1730  177.7150  142.4910 C   0  0  0  0  0  3  0  0  0  0  0  0
  187.2360  177.9560  143.4280 C   0  0  0  0  0  0  0  0  0  0  0  0
  188.5370  177.3700  138.7630 C   0  0  0  0  0  0  0  0  0  0  0  0
  186.5110  177.9980  140.6610 N   0  0  0  0  0  2  0  0  0  0  0  0
  184.8290  178.4420  143.9010 N   0  0  0  0  0  0  0  0  0  0  0  0
  184.1830  177.2850  137.3740 C   0  0  0  0  0  0  0  0  0  0  0  0
  184.3450  177.8070  134.6210 C   0  0  0  0  0  3  0  0  0  0  0  0
  189.4310  177.8570  146.6210 C   0  0  2  0  0  3  0  0  0  0  0  0
  188.4390  178.4150  147.5470 N   0  0  0  0  0  2  0  0  0  0  0  0
  187.6570  177.9510  144.8600 C   0  0  0  0  0  0  0  0  0  0  0  0
  187.1410  177.7810  147.3210 C   0  0  0  0  0  2  0  0  0  0  0  0
  188.9530  177.8780  145.1930 C   0  0  0  0  0  3  0  0  0  0  0  0
  186.6190  178.1620  145.9400 C   0  0  0  0  0  2  0  0  0  0  0  0
  189.8230  176.4480  147.0320 C   0  0  0  0  0  1  0  0  0  0  0  0
  1 19  1  0  0  0  0
  2  7  1  1  0  0  0
  2 12  1  0  0  0  0
  3 13  1  0  0  0  0
  4 17  2  0  0  0  0
  5 21  1  0  0  0  0
  6 15  1  0  0  0  0
  7  6  1  0  0  0  0
  8 23  2  0  0  0  0
 10 26  1  0  0  0  0
 10  3  1  0  0  0  0
 11  9  1  1  0  0  0
 11 10  1  0  0  0  0
 12  4  1  0  0  0  0
 12  1  2  0  0  0  0
 13 23  1  0  0  0  0
 14  5  2  0  0  0  0
 15  1  1  0  0  0  0
 16 18  1  0  0  0  0
 17 22  1  0  0  0  0
 17 25  1  0  0  0  0
 18 26  2  0  0  0  0
 19 25  2  0  0  0  0
 20  2  1  0  0  0  0
 21 22  2  0  0  0  0
 22 30  1  0  0  0  0
 23 14  1  0  0  0  0
 24  5  1  0  0  0  0
 24  4  1  0  0  0  0
 26 20  1  0  0  0  0
 27 16  2  0  0  0  0
 27 11  1  0  0  0  0
 28 34  1  1  0  0  0
 28 29  1  0  0  0  0
 30 32  2  0  0  0  0
 30 33  1  0  0  0  0
 31 29  1  0  0  0  0
 32 28  1  0  0  0  0
 33 31  1  0  0  0  0
M  END
>  <MODEL>
9

>  <REMARK>
 VINA RESULT:      -7.0      2.886      8.626
  Name = 
  1 active torsions:
  status: ('A' for Active; 'I' for Inactive)
    1  A    between atoms: C_12  and  C_28
                            x       y       z     vdW  Elec       q    Type
                         _______ _______ _______ _____ _____    ______ ____

>  <TORSDO>
F 1

$$$$
