=
 OpenBabel10252415083D

 34 37  0  0  1  0  0  0  0  0999 V2000
  187.8340  178.0900  146.9150 C   0  0  0  0  0  2  0  0  0  0  0  0
  190.7470  176.4850  144.7310 C   0  0  0  0  0  2  0  0  0  0  0  0
  188.7990  177.3080  143.4120 C   0  0  1  0  0  3  0  0  0  0  0  0
  188.2210  178.0580  141.0580 N   0  0  0  0  0  0  0  0  0  0  0  0
  190.0710  177.3850  147.7040 C   0  0  0  0  0  2  0  0  0  0  0  0
  191.1240  176.3990  147.2250 C   0  0  0  0  0  2  0  0  0  0  0  0
  190.4260  177.6070  141.6750 O   0  0  0  0  0  0  0  0  0  0  0  0
  189.8700  177.6860  144.4260 C   0  0  0  0  0  2  0  0  0  0  0  0
  188.6910  176.9000  147.3050 C   0  0  0  0  0  2  0  0  0  0  0  0
  187.4430  177.8970  143.8480 C   0  0  1  0  0  3  0  0  0  0  0  0
  186.5620  177.6340  146.2150 C   0  0  0  0  0  2  0  0  0  0  0  0
  191.6990  176.8080  145.8710 C   0  0  0  0  0  2  0  0  0  0  0  0
  186.8590  178.2380  141.4480 C   0  0  0  0  0  3  0  0  0  0  0  0
  186.4510  178.1480  142.7190 C   0  0  0  0  0  0  0  0  0  0  0  0
  189.2150  177.6930  142.0200 C   0  0  0  0  0  0  0  0  0  0  0  0
  186.8450  176.9410  144.8840 C   0  0  0  0  0  2  0  0  0  0  0  0
  182.6910  178.4990  142.3680 C   0  0  0  0  0  0  0  0  0  0  0  0
  182.3540  179.1100  143.5780 C   0  0  0  0  0  3  0  0  0  0  0  0
  185.0380  178.5010  143.0060 C   0  0  0  0  0  0  0  0  0  0  0  0
  183.3530  179.4160  144.5060 C   0  0  0  0  0  3  0  0  0  0  0  0
  184.0250  178.1920  142.0860 C   0  0  0  0  0  3  0  0  0  0  0  0
  184.6870  179.1110  144.2220 C   0  0  0  0  0  3  0  0  0  0  0  0
  181.7230  178.1970  141.4700 F   0  0  0  0  0  0  0  0  0  0  0  0
  188.5900  178.3800  139.6880 C   0  0  0  0  0  2  0  0  0  0  0  0
  188.6180  177.1110  138.8610 C   0  0  0  0  0  2  0  0  0  0  0  0
  187.8750  177.3280  137.5580 C   0  0  0  0  0  2  0  0  0  0  0  0
  186.8970  178.4840  137.7070 C   0  0  0  0  0  2  0  0  0  0  0  0
  184.8170  179.8160  139.1860 O   0  0  0  0  0  0  0  0  0  0  0  0
  185.5420  177.9820  137.9150 N   0  0  0  0  0  0  0  0  0  0  0  0
  184.5280  178.7660  138.5520 C   0  0  0  0  0  0  0  0  0  0  0  0
  182.8770  177.7670  137.0400 C   0  0  0  0  0  2  0  0  0  0  0  0
  183.8860  176.6820  136.6140 C   0  0  0  0  0  2  0  0  0  0  0  0
  185.1860  176.6510  137.4370 C   0  0  0  0  0  2  0  0  0  0  0  0
  183.1110  178.3120  138.4500 C   0  0  0  0  0  2  0  0  0  0  0  0
  1  9  1  0  0  0  0
  2 12  1  0  0  0  0
  3 10  1  0  0  0  0
  3  8  1  1  0  0  0
  4 13  1  0  0  0  0
  4 15  1  0  0  0  0
  6  5  1  0  0  0  0
  7 15  2  0  0  0  0
  8  2  1  0  0  0  0
  9  5  1  0  0  0  0
 10 16  1  1  0  0  0
 11  1  1  0  0  0  0
 12  6  1  0  0  0  0
 13 14  2  0  0  0  0
 14 19  1  0  0  0  0
 14 10  1  0  0  0  0
 15  3  1  0  0  0  0
 16 11  1  0  0  0  0
 17 18  1  0  0  0  0
 18 20  2  0  0  0  0
 19 22  2  0  0  0  0
 21 17  2  0  0  0  0
 21 19  1  0  0  0  0
 22 20  1  0  0  0  0
 23 17  1  0  0  0  0
 24  4  1  0  0  0  0
 25 24  1  0  0  0  0
 26 27  1  0  0  0  0
 26 25  1  0  0  0  0
 27 29  1  0  0  0  0
 29 30  1  0  0  0  0
 30 28  2  0  0  0  0
 31 34  1  0  0  0  0
 32 31  1  0  0  0  0
 32 33  1  0  0  0  0
 33 29  1  0  0  0  0
 34 30  1  0  0  0  0
M  END
>  <MODEL>
1

>  <REMARK>
 VINA RESULT:     -10.5      0.000      0.000
  Name = 
  6 active torsions:
  status: ('A' for Active; 'I' for Inactive)
    1  A    between atoms: C_3  and  N_13
    2  A    between atoms: C_3  and  C_17
    3  A    between atoms: N_5  and  C_18
    4  A    between atoms: C_12  and  C_28
    5  A    between atoms: C_17  and  C_29
    6  A    between atoms: C_18  and  C_29
                            x       y       z     vdW  Elec       q    Type
                         _______ _______ _______ _____ _____    ______ ____

>  <TORSDO>
F 6

$$$$
=
 OpenBabel10252415083D

 34 37  0  0  1  0  0  0  0  0999 V2000
  187.7710  178.0650  146.9010 C   0  0  0  0  0  2  0  0  0  0  0  0
  190.7870  176.5370  144.8050 C   0  0  0  0  0  2  0  0  0  0  0  0
  188.8860  177.3660  143.4250 C   0  0  1  0  0  3  0  0  0  0  0  0
  188.3960  178.1600  141.0660 N   0  0  0  0  0  0  0  0  0  0  0  0
  189.9800  177.3670  147.7660 C   0  0  0  0  0  2  0  0  0  0  0  0
  191.0630  176.4020  147.3110 C   0  0  0  0  0  2  0  0  0  0  0  0
  190.5780  177.7180  141.7630 O   0  0  0  0  0  0  0  0  0  0  0  0
  189.9100  177.7350  144.4900 C   0  0  0  0  0  2  0  0  0  0  0  0
  188.6240  176.8760  147.3010 C   0  0  0  0  0  2  0  0  0  0  0  0
  187.5070  177.9320  143.8180 C   0  0  1  0  0  3  0  0  0  0  0  0
  186.5330  177.6110  146.1410 C   0  0  0  0  0  2  0  0  0  0  0  0
  191.6880  176.8450  145.9910 C   0  0  0  0  0  2  0  0  0  0  0  0
  187.0170  178.3180  141.4040 C   0  0  0  0  0  3  0  0  0  0  0  0
  186.5580  178.1970  142.6540 C   0  0  0  0  0  0  0  0  0  0  0  0
  189.3540  177.7860  142.0600 C   0  0  0  0  0  0  0  0  0  0  0  0
  186.8780  176.9490  144.8080 C   0  0  0  0  0  2  0  0  0  0  0  0
  182.8100  178.5060  142.1620 C   0  0  0  0  0  0  0  0  0  0  0  0
  182.4200  179.0990  143.3650 C   0  0  0  0  0  3  0  0  0  0  0  0
  185.1310  178.5300  142.8900 C   0  0  0  0  0  0  0  0  0  0  0  0
  183.3780  179.4060  144.3340 C   0  0  0  0  0  3  0  0  0  0  0  0
  184.1580  178.2190  141.9290 C   0  0  0  0  0  3  0  0  0  0  0  0
  184.7260  179.1210  144.0990 C   0  0  0  0  0  3  0  0  0  0  0  0
  181.8820  178.2030  141.2240 F   0  0  0  0  0  0  0  0  0  0  0  0
  188.8170  178.5150  139.7190 C   0  0  0  0  0  2  0  0  0  0  0  0
  188.2010  177.5490  138.7260 C   0  0  0  0  0  2  0  0  0  0  0  0
  189.2570  176.5860  138.2210 C   0  0  0  0  0  2  0  0  0  0  0  0
  190.6410  177.1860  138.4210 C   0  0  0  0  0  2  0  0  0  0  0  0
  193.4440  177.0210  139.0550 O   0  0  0  0  0  0  0  0  0  0  0  0
  191.6400  176.4240  137.6790 N   0  0  0  0  0  0  0  0  0  0  0  0
  192.9900  176.2890  138.1350 C   0  0  0  0  0  0  0  0  0  0  0  0
  193.0110  174.0070  137.2400 C   0  0  0  0  0  2  0  0  0  0  0  0
  191.7170  174.2790  136.4470 C   0  0  0  0  0  2  0  0  0  0  0  0
  191.2590  175.7480  136.4440 C   0  0  0  0  0  2  0  0  0  0  0  0
  193.8560  175.2570  137.4960 C   0  0  0  0  0  2  0  0  0  0  0  0
  1  9  1  0  0  0  0
  2 12  1  0  0  0  0
  3 10  1  0  0  0  0
  3  8  1  1  0  0  0
  4 13  1  0  0  0  0
  4 15  1  0  0  0  0
  6  5  1  0  0  0  0
  7 15  2  0  0  0  0
  8  2  1  0  0  0  0
  9  5  1  0  0  0  0
 10 16  1  1  0  0  0
 11  1  1  0  0  0  0
 12  6  1  0  0  0  0
 13 14  2  0  0  0  0
 14 19  1  0  0  0  0
 14 10  1  0  0  0  0
 15  3  1  0  0  0  0
 16 11  1  0  0  0  0
 17 18  1  0  0  0  0
 18 20  2  0  0  0  0
 19 22  2  0  0  0  0
 21 17  2  0  0  0  0
 21 19  1  0  0  0  0
 22 20  1  0  0  0  0
 23 17  1  0  0  0  0
 24  4  1  0  0  0  0
 25 24  1  0  0  0  0
 26 27  1  0  0  0  0
 26 25  1  0  0  0  0
 29 30  1  0  0  0  0
 29 27  1  0  0  0  0
 30 28  2  0  0  0  0
 31 34  1  0  0  0  0
 32 31  1  0  0  0  0
 33 32  1  0  0  0  0
 33 29  1  0  0  0  0
 34 30  1  0  0  0  0
M  END
>  <MODEL>
2

>  <REMARK>
 VINA RESULT:     -10.3      2.244      4.088
  Name = 
  6 active torsions:
  status: ('A' for Active; 'I' for Inactive)
    1  A    between atoms: C_3  and  N_13
    2  A    between atoms: C_3  and  C_17
    3  A    between atoms: N_5  and  C_18
    4  A    between atoms: C_12  and  C_28
    5  A    between atoms: C_17  and  C_29
    6  A    between atoms: C_18  and  C_29
                            x       y       z     vdW  Elec       q    Type
                         _______ _______ _______ _____ _____    ______ ____

>  <TORSDO>
F 6

$$$$
=
 OpenBabel10252415083D

 34 37  0  0  1  0  0  0  0  0999 V2000
  187.8150  178.0570  146.9070 C   0  0  0  0  0  2  0  0  0  0  0  0
  190.7980  176.5040  144.7810 C   0  0  0  0  0  2  0  0  0  0  0  0
  188.8840  177.3380  143.4200 C   0  0  1  0  0  3  0  0  0  0  0  0
  188.3700  178.1240  141.0640 N   0  0  0  0  0  0  0  0  0  0  0  0
  190.0320  177.3500  147.7480 C   0  0  0  0  0  2  0  0  0  0  0  0
  191.1040  176.3780  147.2840 C   0  0  0  0  0  2  0  0  0  0  0  0
  190.5590  177.6740  141.7360 O   0  0  0  0  0  0  0  0  0  0  0  0
  189.9240  177.7050  144.4710 C   0  0  0  0  0  2  0  0  0  0  0  0
  188.6670  176.8640  147.3010 C   0  0  0  0  0  2  0  0  0  0  0  0
  187.5130  177.9120  143.8280 C   0  0  1  0  0  3  0  0  0  0  0  0
  186.5660  177.6060  146.1640 C   0  0  0  0  0  2  0  0  0  0  0  0
  191.7150  176.8120  145.9540 C   0  0  0  0  0  2  0  0  0  0  0  0
  186.9960  178.2900  141.4180 C   0  0  0  0  0  3  0  0  0  0  0  0
  186.5520  178.1770  142.6740 C   0  0  0  0  0  0  0  0  0  0  0  0
  189.3380  177.7480  142.0480 C   0  0  0  0  0  0  0  0  0  0  0  0
  186.8910  176.9370  144.8290 C   0  0  0  0  0  2  0  0  0  0  0  0
  182.8020  178.5140  142.2210 C   0  0  0  0  0  0  0  0  0  0  0  0
  182.4270  179.1030  143.4310 C   0  0  0  0  0  3  0  0  0  0  0  0
  185.1300  178.5180  142.9260 C   0  0  0  0  0  0  0  0  0  0  0  0
  183.3970  179.3990  144.3920 C   0  0  0  0  0  3  0  0  0  0  0  0
  184.1450  178.2190  141.9730 C   0  0  0  0  0  3  0  0  0  0  0  0
  184.7400  179.1060  144.1420 C   0  0  0  0  0  3  0  0  0  0  0  0
  181.8620  178.2220  141.2910 F   0  0  0  0  0  0  0  0  0  0  0  0
  188.7760  178.4710  139.7100 C   0  0  0  0  0  2  0  0  0  0  0  0
  187.7230  177.9960  138.7290 C   0  0  0  0  0  2  0  0  0  0  0  0
  188.2080  178.2090  137.3090 C   0  0  0  0  0  2  0  0  0  0  0  0
  189.6650  177.7870  137.1920 C   0  0  0  0  0  2  0  0  0  0  0  0
  190.6580  175.5450  138.6990 O   0  0  0  0  0  0  0  0  0  0  0  0
  189.7600  176.4120  136.7120 N   0  0  0  0  0  0  0  0  0  0  0  0
  190.1440  175.3310  137.5690 C   0  0  0  0  0  0  0  0  0  0  0  0
  188.5820  173.8820  136.3560 C   0  0  0  0  0  2  0  0  0  0  0  0
  188.4470  174.9270  135.2300 C   0  0  0  0  0  2  0  0  0  0  0  0
  189.4290  176.1070  135.3250 C   0  0  0  0  0  2  0  0  0  0  0  0
  189.9220  173.9350  137.0930 C   0  0  0  0  0  2  0  0  0  0  0  0
  1  9  1  0  0  0  0
  2 12  1  0  0  0  0
  3 10  1  0  0  0  0
  3  8  1  1  0  0  0
  4 13  1  0  0  0  0
  4 15  1  0  0  0  0
  6  5  1  0  0  0  0
  7 15  2  0  0  0  0
  8  2  1  0  0  0  0
  9  5  1  0  0  0  0
 10 16  1  1  0  0  0
 11  1  1  0  0  0  0
 12  6  1  0  0  0  0
 13 14  2  0  0  0  0
 14 19  1  0  0  0  0
 14 10  1  0  0  0  0
 15  3  1  0  0  0  0
 16 11  1  0  0  0  0
 17 18  1  0  0  0  0
 18 20  2  0  0  0  0
 19 22  2  0  0  0  0
 21 17  2  0  0  0  0
 21 19  1  0  0  0  0
 22 20  1  0  0  0  0
 23 17  1  0  0  0  0
 24  4  1  0  0  0  0
 25 24  1  0  0  0  0
 26 25  1  0  0  0  0
 27 26  1  0  0  0  0
 29 27  1  0  0  0  0
 29 30  1  0  0  0  0
 30 28  2  0  0  0  0
 31 34  1  0  0  0  0
 32 33  1  0  0  0  0
 32 31  1  0  0  0  0
 33 29  1  0  0  0  0
 34 30  1  0  0  0  0
M  END
>  <MODEL>
3

>  <REMARK>
 VINA RESULT:     -10.3      2.088      2.941
  Name = 
  6 active torsions:
  status: ('A' for Active; 'I' for Inactive)
    1  A    between atoms: C_3  and  N_13
    2  A    between atoms: C_3  and  C_17
    3  A    between atoms: N_5  and  C_18
    4  A    between atoms: C_12  and  C_28
    5  A    between atoms: C_17  and  C_29
    6  A    between atoms: C_18  and  C_29
                            x       y       z     vdW  Elec       q    Type
                         _______ _______ _______ _____ _____    ______ ____

>  <TORSDO>
F 6

$$$$
=
 OpenBabel10252415083D

 34 37  0  0  1  0  0  0  0  0999 V2000
  187.7560  177.9810  146.8850 C   0  0  0  0  0  2  0  0  0  0  0  0
  190.7930  176.4850  144.7960 C   0  0  0  0  0  2  0  0  0  0  0  0
  188.9110  177.3480  143.4090 C   0  0  1  0  0  3  0  0  0  0  0  0
  188.4520  178.1900  141.0600 N   0  0  0  0  0  0  0  0  0  0  0  0
  189.9530  177.2590  147.7620 C   0  0  0  0  0  2  0  0  0  0  0  0
  191.0390  176.3000  147.3010 C   0  0  0  0  0  2  0  0  0  0  0  0
  190.6250  177.7280  141.7750 O   0  0  0  0  0  0  0  0  0  0  0  0
  189.9240  177.6920  144.4930 C   0  0  0  0  0  2  0  0  0  0  0  0
  188.6010  176.7810  147.2710 C   0  0  0  0  0  2  0  0  0  0  0  0
  187.5290  177.9100  143.7970 C   0  0  1  0  0  3  0  0  0  0  0  0
  186.5260  177.5460  146.1010 C   0  0  0  0  0  2  0  0  0  0  0  0
  191.6810  176.7680  145.9980 C   0  0  0  0  0  2  0  0  0  0  0  0
  187.0700  178.3450  141.3850 C   0  0  0  0  0  3  0  0  0  0  0  0
  186.5960  178.2010  142.6270 C   0  0  0  0  0  0  0  0  0  0  0  0
  189.3970  177.7930  142.0590 C   0  0  0  0  0  0  0  0  0  0  0  0
  186.8850  176.9090  144.7590 C   0  0  0  0  0  2  0  0  0  0  0  0
  182.8560  178.5390  142.0920 C   0  0  0  0  0  0  0  0  0  0  0  0
  182.4510  179.1000  143.3050 C   0  0  0  0  0  3  0  0  0  0  0  0
  185.1670  178.5320  142.8520 C   0  0  0  0  0  0  0  0  0  0  0  0
  183.3970  179.3760  144.2960 C   0  0  0  0  0  3  0  0  0  0  0  0
  184.2060  178.2530  141.8690 C   0  0  0  0  0  3  0  0  0  0  0  0
  184.7470  179.0910  144.0720 C   0  0  0  0  0  3  0  0  0  0  0  0
  181.9400  178.2670  141.1320 F   0  0  0  0  0  0  0  0  0  0  0  0
  188.8900  178.5700  139.7260 C   0  0  0  0  0  2  0  0  0  0  0  0
  187.8550  178.1320  138.7100 C   0  0  0  0  0  2  0  0  0  0  0  0
  188.2430  178.6280  137.3310 C   0  0  0  0  0  2  0  0  0  0  0  0
  188.5680  177.4460  136.4300 C   0  0  0  0  0  2  0  0  0  0  0  0
  188.2430  174.6260  136.9040 O   0  0  0  0  0  0  0  0  0  0  0  0
  187.3650  176.6680  136.1540 N   0  0  0  0  0  0  0  0  0  0  0  0
  187.2400  175.2950  136.5400 C   0  0  0  0  0  0  0  0  0  0  0  0
  184.8640  175.6920  136.9960 C   0  0  0  0  0  2  0  0  0  0  0  0
  184.9200  177.0400  136.2490 C   0  0  0  0  0  2  0  0  0  0  0  0
  186.2320  177.3030  135.4900 C   0  0  0  0  0  2  0  0  0  0  0  0
  185.8870  174.6670  136.5020 C   0  0  0  0  0  2  0  0  0  0  0  0
  1  9  1  0  0  0  0
  2 12  1  0  0  0  0
  3 10  1  0  0  0  0
  3  8  1  1  0  0  0
  4 13  1  0  0  0  0
  4 15  1  0  0  0  0
  6  5  1  0  0  0  0
  7 15  2  0  0  0  0
  8  2  1  0  0  0  0
  9  5  1  0  0  0  0
 10 16  1  1  0  0  0
 11  1  1  0  0  0  0
 12  6  1  0  0  0  0
 13 14  2  0  0  0  0
 14 19  1  0  0  0  0
 14 10  1  0  0  0  0
 15  3  1  0  0  0  0
 16 11  1  0  0  0  0
 17 18  1  0  0  0  0
 18 20  2  0  0  0  0
 19 22  2  0  0  0  0
 21 17  2  0  0  0  0
 21 19  1  0  0  0  0
 22 20  1  0  0  0  0
 23 17  1  0  0  0  0
 24  4  1  0  0  0  0
 25 24  1  0  0  0  0
 26 25  1  0  0  0  0
 27 26  1  0  0  0  0
 29 27  1  0  0  0  0
 29 30  1  0  0  0  0
 30 28  2  0  0  0  0
 32 31  1  0  0  0  0
 33 29  1  0  0  0  0
 33 32  1  0  0  0  0
 34 30  1  0  0  0  0
 34 31  1  0  0  0  0
M  END
>  <MODEL>
4

>  <REMARK>
 VINA RESULT:      -9.8      1.577      1.920
  Name = 
  6 active torsions:
  status: ('A' for Active; 'I' for Inactive)
    1  A    between atoms: C_3  and  N_13
    2  A    between atoms: C_3  and  C_17
    3  A    between atoms: N_5  and  C_18
    4  A    between atoms: C_12  and  C_28
    5  A    between atoms: C_17  and  C_29
    6  A    between atoms: C_18  and  C_29
                            x       y       z     vdW  Elec       q    Type
                         _______ _______ _______ _____ _____    ______ ____

>  <TORSDO>
F 6

$$$$
=
 OpenBabel10252415083D

 34 37  0  0  1  0  0  0  0  0999 V2000
  191.3870  176.2820  144.1580 C   0  0  0  0  0  2  0  0  0  0  0  0
  188.6860  177.9410  146.5630 C   0  0  0  0  0  2  0  0  0  0  0  0
  188.0800  177.9790  144.1460 C   0  0  1  0  0  3  0  0  0  0  0  0
  186.0350  178.1680  142.6570 N   0  0  0  0  0  0  0  0  0  0  0  0
  191.3810  176.2550  146.6310 C   0  0  0  0  0  2  0  0  0  0  0  0
  190.7770  177.1270  147.7200 C   0  0  0  0  0  2  0  0  0  0  0  0
  185.8280  177.9700  144.9730 O   0  0  0  0  0  0  0  0  0  0  0  0
  188.4730  177.0940  145.3220 C   0  0  0  0  0  2  0  0  0  0  0  0
  191.6810  177.0940  145.4050 C   0  0  0  0  0  2  0  0  0  0  0  0
  188.8590  177.5440  142.8890 C   0  0  1  0  0  3  0  0  0  0  0  0
  191.3700  177.1720  142.9240 C   0  0  0  0  0  2  0  0  0  0  0  0
  189.2520  177.0870  147.6880 C   0  0  0  0  0  2  0  0  0  0  0  0
  186.8720  178.1290  141.5010 C   0  0  0  0  0  3  0  0  0  0  0  0
  188.1820  177.8700  141.5620 C   0  0  0  0  0  0  0  0  0  0  0  0
  186.5890  178.0030  143.9660 C   0  0  0  0  0  0  0  0  0  0  0  0
  190.2400  178.1990  142.9610 C   0  0  0  0  0  2  0  0  0  0  0  0
  189.4110  178.4970  138.0290 C   0  0  0  0  0  0  0  0  0  0  0  0
  190.3260  177.4560  137.8640 C   0  0  0  0  0  3  0  0  0  0  0  0
  188.9060  177.7130  140.2760 C   0  0  0  0  0  0  0  0  0  0  0  0
  190.5390  176.5430  138.9000 C   0  0  0  0  0  3  0  0  0  0  0  0
  188.7090  178.6280  139.2310 C   0  0  0  0  0  3  0  0  0  0  0  0
  189.8350  176.6730  140.1000 C   0  0  0  0  0  3  0  0  0  0  0  0
  189.2080  179.3850  137.0270 F   0  0  0  0  0  0  0  0  0  0  0  0
  184.5960  178.2530  142.4590 C   0  0  0  0  0  2  0  0  0  0  0  0
  184.3060  178.6950  141.0390 C   0  0  0  0  0  2  0  0  0  0  0  0
  183.5660  177.5980  140.2990 C   0  0  0  0  0  2  0  0  0  0  0  0
  183.1870  178.0790  138.9060 C   0  0  0  0  0  2  0  0  0  0  0  0
  185.7500  179.0030  137.9780 O   0  0  0  0  0  0  0  0  0  0  0  0
  184.0150  177.4260  137.8980 N   0  0  0  0  0  0  0  0  0  0  0  0
  185.3370  177.8790  137.5870 C   0  0  0  0  0  0  0  0  0  0  0  0
  186.0010  175.5450  137.2410 C   0  0  0  0  0  2  0  0  0  0  0  0
  184.5250  175.1020  137.2190 C   0  0  0  0  0  2  0  0  0  0  0  0
  183.5060  176.2530  137.1960 C   0  0  0  0  0  2  0  0  0  0  0  0
  186.2220  176.9880  136.7820 C   0  0  0  0  0  2  0  0  0  0  0  0
  1  9  1  0  0  0  0
  2 12  1  0  0  0  0
  3  8  1  1  0  0  0
  4 15  1  0  0  0  0
  5  6  1  0  0  0  0
  8  2  1  0  0  0  0
  9  5  1  0  0  0  0
 10 16  1  6  0  0  0
 10  3  1  0  0  0  0
 11 16  1  0  0  0  0
 11  1  1  0  0  0  0
 12  6  1  0  0  0  0
 13 14  2  0  0  0  0
 13  4  1  0  0  0  0
 14 10  1  0  0  0  0
 15  3  1  0  0  0  0
 15  7  2  0  0  0  0
 17 21  1  0  0  0  0
 18 17  2  0  0  0  0
 18 20  1  0  0  0  0
 19 14  1  0  0  0  0
 20 22  2  0  0  0  0
 21 19  2  0  0  0  0
 22 19  1  0  0  0  0
 23 17  1  0  0  0  0
 24  4  1  0  0  0  0
 25 24  1  0  0  0  0
 26 25  1  0  0  0  0
 27 26  1  0  0  0  0
 29 27  1  0  0  0  0
 30 29  1  0  0  0  0
 30 28  2  0  0  0  0
 32 31  1  0  0  0  0
 33 32  1  0  0  0  0
 33 29  1  0  0  0  0
 34 31  1  0  0  0  0
 34 30  1  0  0  0  0
M  END
>  <MODEL>
5

>  <REMARK>
 VINA RESULT:      -9.4      2.286      4.672
  Name = 
  6 active torsions:
  status: ('A' for Active; 'I' for Inactive)
    1  A    between atoms: C_3  and  N_13
    2  A    between atoms: C_3  and  C_17
    3  A    between atoms: N_5  and  C_18
    4  A    between atoms: C_12  and  C_28
    5  A    between atoms: C_17  and  C_29
    6  A    between atoms: C_18  and  C_29
                            x       y       z     vdW  Elec       q    Type
                         _______ _______ _______ _____ _____    ______ ____

>  <TORSDO>
F 6

$$$$
=
 OpenBabel10252415083D

 34 37  0  0  1  0  0  0  0  0999 V2000
  191.3620  176.2660  144.1430 C   0  0  0  0  0  2  0  0  0  0  0  0
  188.7090  177.9100  146.6100 C   0  0  0  0  0  2  0  0  0  0  0  0
  188.0560  177.9650  144.2060 C   0  0  1  0  0  3  0  0  0  0  0  0
  185.9830  178.1640  142.7570 N   0  0  0  0  0  0  0  0  0  0  0  0
  191.4040  176.2230  146.6160 C   0  0  0  0  0  2  0  0  0  0  0  0
  190.8220  177.0880  147.7210 C   0  0  0  0  0  2  0  0  0  0  0  0
  185.8210  177.9510  145.0750 O   0  0  0  0  0  0  0  0  0  0  0  0
  188.4710  177.0710  145.3670 C   0  0  0  0  0  2  0  0  0  0  0  0
  191.6800  177.0700  145.3890 C   0  0  0  0  0  2  0  0  0  0  0  0
  188.8110  177.5370  142.9310 C   0  0  1  0  0  3  0  0  0  0  0  0
  191.3220  177.1640  142.9150 C   0  0  0  0  0  2  0  0  0  0  0  0
  189.2960  177.0490  147.7180 C   0  0  0  0  0  2  0  0  0  0  0  0
  186.7980  178.1320  141.5850 C   0  0  0  0  0  3  0  0  0  0  0  0
  188.1090  177.8720  141.6190 C   0  0  0  0  0  0  0  0  0  0  0  0
  186.5620  177.9900  144.0540 C   0  0  0  0  0  0  0  0  0  0  0  0
  190.1930  178.1920  142.9810 C   0  0  0  0  0  2  0  0  0  0  0  0
  189.2660  178.5200  138.0660 C   0  0  0  0  0  0  0  0  0  0  0  0
  190.1810  177.4820  137.8780 C   0  0  0  0  0  3  0  0  0  0  0  0
  188.8080  177.7240  140.3190 C   0  0  0  0  0  0  0  0  0  0  0  0
  190.4170  176.5650  138.9050 C   0  0  0  0  0  3  0  0  0  0  0  0
  188.5870  178.6420  139.2810 C   0  0  0  0  0  3  0  0  0  0  0  0
  189.7360  176.6870  140.1200 C   0  0  0  0  0  3  0  0  0  0  0  0
  189.0410  179.4120  137.0720 F   0  0  0  0  0  0  0  0  0  0  0  0
  184.5400  178.2500  142.5880 C   0  0  0  0  0  2  0  0  0  0  0  0
  184.2220  178.6330  141.1570 C   0  0  0  0  0  2  0  0  0  0  0  0
  182.9790  177.9010  140.6920 C   0  0  0  0  0  2  0  0  0  0  0  0
  181.7400  178.5690  141.2690 C   0  0  0  0  0  2  0  0  0  0  0  0
  179.9100  180.7380  141.7460 O   0  0  0  0  0  0  0  0  0  0  0  0
  181.0540  179.3480  140.2430 N   0  0  0  0  0  0  0  0  0  0  0  0
  180.2610  180.4960  140.5610 C   0  0  0  0  0  0  0  0  0  0  0  0
  181.0270  181.5390  138.4790 C   0  0  0  0  0  2  0  0  0  0  0  0
  181.5760  180.1890  137.9750 C   0  0  0  0  0  2  0  0  0  0  0  0
  181.1970  178.9750  138.8400 C   0  0  0  0  0  2  0  0  0  0  0  0
  179.8540  181.4060  139.4520 C   0  0  0  0  0  2  0  0  0  0  0  0
  1  9  1  0  0  0  0
  2 12  1  0  0  0  0
  3  8  1  1  0  0  0
  4 15  1  0  0  0  0
  5  6  1  0  0  0  0
  8  2  1  0  0  0  0
  9  5  1  0  0  0  0
 10 16  1  6  0  0  0
 10  3  1  0  0  0  0
 11 16  1  0  0  0  0
 11  1  1  0  0  0  0
 12  6  1  0  0  0  0
 13 14  2  0  0  0  0
 13  4  1  0  0  0  0
 14 10  1  0  0  0  0
 15  3  1  0  0  0  0
 15  7  2  0  0  0  0
 17 21  1  0  0  0  0
 18 17  2  0  0  0  0
 18 20  1  0  0  0  0
 19 14  1  0  0  0  0
 20 22  2  0  0  0  0
 21 19  2  0  0  0  0
 22 19  1  0  0  0  0
 23 17  1  0  0  0  0
 24  4  1  0  0  0  0
 25 24  1  0  0  0  0
 26 25  1  0  0  0  0
 26 27  1  0  0  0  0
 29 30  1  0  0  0  0
 29 27  1  0  0  0  0
 30 28  2  0  0  0  0
 31 34  1  0  0  0  0
 32 31  1  0  0  0  0
 32 33  1  0  0  0  0
 33 29  1  0  0  0  0
 34 30  1  0  0  0  0
M  END
>  <MODEL>
6

>  <REMARK>
 VINA RESULT:      -9.4      2.820      5.111
  Name = 
  6 active torsions:
  status: ('A' for Active; 'I' for Inactive)
    1  A    between atoms: C_3  and  N_13
    2  A    between atoms: C_3  and  C_17
    3  A    between atoms: N_5  and  C_18
    4  A    between atoms: C_12  and  C_28
    5  A    between atoms: C_17  and  C_29
    6  A    between atoms: C_18  and  C_29
                            x       y       z     vdW  Elec       q    Type
                         _______ _______ _______ _____ _____    ______ ____

>  <TORSDO>
F 6

$$$$
=
 OpenBabel10252415083D

 34 37  0  0  1  0  0  0  0  0999 V2000
  190.7950  177.2320  137.5720 C   0  0  0  0  0  2  0  0  0  0  0  0
  186.9500  177.4590  136.5730 C   0  0  0  0  0  2  0  0  0  0  0  0
  187.4000  177.6960  139.0120 C   0  0  1  0  0  3  0  0  0  0  0  0
  186.3260  178.6490  141.1050 N   0  0  0  0  0  0  0  0  0  0  0  0
  189.8550  177.3320  135.2860 C   0  0  0  0  0  2  0  0  0  0  0  0
  188.5180  176.9850  134.6520 C   0  0  0  0  0  2  0  0  0  0  0  0
  185.3860  178.9990  138.9980 O   0  0  0  0  0  0  0  0  0  0  0  0
  187.7150  178.2410  137.6260 C   0  0  0  0  0  2  0  0  0  0  0  0
  190.1070  176.4330  136.4810 C   0  0  0  0  0  2  0  0  0  0  0  0
  188.7020  177.5780  139.8290 C   0  0  1  0  0  3  0  0  0  0  0  0
  190.7840  176.4690  138.8890 C   0  0  0  0  0  2  0  0  0  0  0  0
  187.3990  177.8780  135.1820 C   0  0  0  0  0  2  0  0  0  0  0  0
  187.4240  178.1740  141.8850 C   0  0  0  0  0  3  0  0  0  0  0  0
  188.5280  177.6510  141.3420 C   0  0  0  0  0  0  0  0  0  0  0  0
  186.3300  178.5130  139.6800 C   0  0  0  0  0  0  0  0  0  0  0  0
  189.3700  176.2600  139.4300 C   0  0  0  0  0  2  0  0  0  0  0  0
  191.4880  178.0600  143.6770 C   0  0  0  0  0  0  0  0  0  0  0  0
  191.7390  176.7350  144.0430 C   0  0  0  0  0  3  0  0  0  0  0  0
  189.6520  177.3320  142.2580 C   0  0  0  0  0  0  0  0  0  0  0  0
  190.9490  175.7070  143.5240 C   0  0  0  0  0  3  0  0  0  0  0  0
  190.4470  178.3560  142.7930 C   0  0  0  0  0  3  0  0  0  0  0  0
  189.9090  176.0040  142.6380 C   0  0  0  0  0  3  0  0  0  0  0  0
  192.2510  179.0580  144.1840 F   0  0  0  0  0  0  0  0  0  0  0  0
  185.2700  179.3850  141.7820 C   0  0  0  0  0  2  0  0  0  0  0  0
  184.6180  178.4930  142.8200 C   0  0  0  0  0  2  0  0  0  0  0  0
  185.1090  178.8690  144.2040 C   0  0  0  0  0  2  0  0  0  0  0  0
  185.6860  177.6440  144.8980 C   0  0  0  0  0  2  0  0  0  0  0  0
  185.3140  179.0180  147.3990 O   0  0  0  0  0  0  0  0  0  0  0  0
  186.7450  178.0330  145.8230 N   0  0  0  0  0  0  0  0  0  0  0  0
  186.4650  178.5980  147.1090 C   0  0  0  0  0  0  0  0  0  0  0  0
  188.4120  177.4040  148.0010 C   0  0  0  0  0  2  0  0  0  0  0  0
  188.9100  177.1000  146.5740 C   0  0  0  0  0  2  0  0  0  0  0  0
  188.1390  177.8190  145.4540 C   0  0  0  0  0  2  0  0  0  0  0  0
  187.5720  178.6800  148.1050 C   0  0  0  0  0  2  0  0  0  0  0  0
  1 11  1  0  0  0  0
  2  8  1  0  0  0  0
  3  8  1  6  0  0  0
  3 15  1  0  0  0  0
  3 10  1  0  0  0  0
  4 24  1  0  0  0  0
  4 13  1  0  0  0  0
  5  9  1  0  0  0  0
  6 12  1  0  0  0  0
  6  5  1  0  0  0  0
  7 15  2  0  0  0  0
  9  1  1  0  0  0  0
 10 16  1  1  0  0  0
 10 14  1  0  0  0  0
 11 16  1  0  0  0  0
 12  2  1  0  0  0  0
 14 13  2  0  0  0  0
 14 19  1  0  0  0  0
 15  4  1  0  0  0  0
 17 18  1  0  0  0  0
 17 23  1  0  0  0  0
 19 22  2  0  0  0  0
 19 21  1  0  0  0  0
 20 18  2  0  0  0  0
 21 17  2  0  0  0  0
 22 20  1  0  0  0  0
 24 25  1  0  0  0  0
 25 26  1  0  0  0  0
 26 27  1  0  0  0  0
 27 29  1  0  0  0  0
 29 30  1  0  0  0  0
 30 28  2  0  0  0  0
 30 34  1  0  0  0  0
 31 34  1  0  0  0  0
 32 31  1  0  0  0  0
 33 29  1  0  0  0  0
 33 32  1  0  0  0  0
M  END
>  <MODEL>
7

>  <REMARK>
 VINA RESULT:      -9.0      2.917      8.244
  Name = 
  6 active torsions:
  status: ('A' for Active; 'I' for Inactive)
    1  A    between atoms: C_3  and  N_13
    2  A    between atoms: C_3  and  C_17
    3  A    between atoms: N_5  and  C_18
    4  A    between atoms: C_12  and  C_28
    5  A    between atoms: C_17  and  C_29
    6  A    between atoms: C_18  and  C_29
                            x       y       z     vdW  Elec       q    Type
                         _______ _______ _______ _____ _____    ______ ____

>  <TORSDO>
F 6

$$$$
=
 OpenBabel10252415083D

 34 37  0  0  1  0  0  0  0  0999 V2000
  190.8920  177.3720  141.1700 C   0  0  0  0  0  2  0  0  0  0  0  0
  187.5770  177.7910  139.0090 C   0  0  0  0  0  2  0  0  0  0  0  0
  187.2390  177.9890  141.4700 C   0  0  1  0  0  3  0  0  0  0  0  0
  185.5990  178.9780  143.1350 N   0  0  0  0  0  0  0  0  0  0  0  0
  190.7310  177.5330  138.7060 C   0  0  0  0  0  2  0  0  0  0  0  0
  189.6510  177.2560  137.6740 C   0  0  0  0  0  2  0  0  0  0  0  0
  185.3920  179.3870  140.8470 O   0  0  0  0  0  0  0  0  0  0  0  0
  188.0010  178.5270  140.2670 C   0  0  0  0  0  2  0  0  0  0  0  0
  190.5520  176.6150  139.8990 C   0  0  0  0  0  2  0  0  0  0  0  0
  188.2080  177.8030  142.6550 C   0  0  1  0  0  3  0  0  0  0  0  0
  190.4300  176.6020  142.3980 C   0  0  0  0  0  2  0  0  0  0  0  0
  188.4610  178.1970  137.8410 C   0  0  0  0  0  2  0  0  0  0  0  0
  186.3700  178.4450  144.2120 C   0  0  0  0  0  3  0  0  0  0  0  0
  187.5660  177.8730  144.0350 C   0  0  0  0  0  0  0  0  0  0  0  0
  186.0480  178.8510  141.7820 C   0  0  0  0  0  0  0  0  0  0  0  0
  188.9110  176.4570  142.4590 C   0  0  0  0  0  2  0  0  0  0  0  0
  190.4450  177.0980  146.3790 C   0  0  0  0  0  0  0  0  0  0  0  0
  189.7690  176.8430  147.5750 C   0  0  0  0  0  3  0  0  0  0  0  0
  188.3260  177.4950  145.2530 C   0  0  0  0  0  0  0  0  0  0  0  0
  188.3750  176.9150  147.6170 C   0  0  0  0  0  3  0  0  0  0  0  0
  189.7270  177.4270  145.2260 C   0  0  0  0  0  3  0  0  0  0  0  0
  187.6570  177.2420  146.4630 C   0  0  0  0  0  3  0  0  0  0  0  0
  191.7970  177.0330  146.3390 F   0  0  0  0  0  0  0  0  0  0  0  0
  184.4150  179.7590  143.4590 C   0  0  0  0  0  2  0  0  0  0  0  0
  183.7240  179.1530  144.6630 C   0  0  0  0  0  2  0  0  0  0  0  0
  182.3580  178.6300  144.2650 C   0  0  0  0  0  2  0  0  0  0  0  0
  181.8070  179.4510  143.1090 C   0  0  0  0  0  2  0  0  0  0  0  0
  179.2200  178.1910  143.1620 O   0  0  0  0  0  0  0  0  0  0  0  0
  181.2630  178.5770  142.0750 N   0  0  0  0  0  0  0  0  0  0  0  0
  179.9160  178.0950  142.1160 C   0  0  0  0  0  0  0  0  0  0  0  0
  179.8340  178.2640  139.6720 C   0  0  0  0  0  2  0  0  0  0  0  0
  181.3660  178.4280  139.6070 C   0  0  0  0  0  2  0  0  0  0  0  0
  182.0970  178.1970  140.9400 C   0  0  0  0  0  2  0  0  0  0  0  0
  179.3470  177.4710  140.8860 C   0  0  0  0  0  2  0  0  0  0  0  0
  1 11  1  0  0  0  0
  2  8  1  0  0  0  0
  3  8  1  6  0  0  0
  3 15  1  0  0  0  0
  3 10  1  0  0  0  0
  4 24  1  0  0  0  0
  4 13  1  0  0  0  0
  5  9  1  0  0  0  0
  6 12  1  0  0  0  0
  6  5  1  0  0  0  0
  7 15  2  0  0  0  0
  9  1  1  0  0  0  0
 10 16  1  6  0  0  0
 10 14  1  0  0  0  0
 11 16  1  0  0  0  0
 12  2  1  0  0  0  0
 14 13  2  0  0  0  0
 14 19  1  0  0  0  0
 15  4  1  0  0  0  0
 17 18  1  0  0  0  0
 18 20  2  0  0  0  0
 19 22  2  0  0  0  0
 21 19  1  0  0  0  0
 21 17  2  0  0  0  0
 22 20  1  0  0  0  0
 23 17  1  0  0  0  0
 24 25  1  0  0  0  0
 26 25  1  0  0  0  0
 27 26  1  0  0  0  0
 29 30  1  0  0  0  0
 29 27  1  0  0  0  0
 30 28  2  0  0  0  0
 31 34  1  0  0  0  0
 32 31  1  0  0  0  0
 32 33  1  0  0  0  0
 33 29  1  0  0  0  0
 34 30  1  0  0  0  0
M  END
>  <MODEL>
8

>  <REMARK>
 VINA RESULT:      -8.9      3.001      6.326
  Name = 
  6 active torsions:
  status: ('A' for Active; 'I' for Inactive)
    1  A    between atoms: C_3  and  N_13
    2  A    between atoms: C_3  and  C_17
    3  A    between atoms: N_5  and  C_18
    4  A    between atoms: C_12  and  C_28
    5  A    between atoms: C_17  and  C_29
    6  A    between atoms: C_18  and  C_29
                            x       y       z     vdW  Elec       q    Type
                         _______ _______ _______ _____ _____    ______ ____

>  <TORSDO>
F 6

$$$$
=
 OpenBabel10252415083D

 34 37  0  0  1  0  0  0  0  0999 V2000
  191.3820  176.2910  144.1550 C   0  0  0  0  0  2  0  0  0  0  0  0
  188.6900  177.9500  146.5690 C   0  0  0  0  0  2  0  0  0  0  0  0
  188.0800  177.9970  144.1540 C   0  0  1  0  0  3  0  0  0  0  0  0
  186.0320  178.1950  142.6680 N   0  0  0  0  0  0  0  0  0  0  0  0
  191.3810  176.2580  146.6290 C   0  0  0  0  0  2  0  0  0  0  0  0
  190.7810  177.1290  147.7200 C   0  0  0  0  0  2  0  0  0  0  0  0
  185.8290  177.9910  144.9840 O   0  0  0  0  0  0  0  0  0  0  0  0
  188.4720  177.1080  145.3260 C   0  0  0  0  0  2  0  0  0  0  0  0
  191.6800  177.1000  145.4040 C   0  0  0  0  0  2  0  0  0  0  0  0
  188.8550  177.5630  142.8940 C   0  0  1  0  0  3  0  0  0  0  0  0
  191.3660  177.1850  142.9230 C   0  0  0  0  0  2  0  0  0  0  0  0
  189.2560  177.0930  147.6910 C   0  0  0  0  0  2  0  0  0  0  0  0
  186.8680  178.1570  141.5100 C   0  0  0  0  0  3  0  0  0  0  0  0
  188.1770  177.8940  141.5690 C   0  0  0  0  0  0  0  0  0  0  0  0
  186.5880  178.0250  143.9760 C   0  0  0  0  0  0  0  0  0  0  0  0
  190.2380  178.2140  142.9650 C   0  0  0  0  0  2  0  0  0  0  0  0
  189.3690  178.5030  138.0200 C   0  0  0  0  0  0  0  0  0  0  0  0
  190.3130  177.4860  137.8650 C   0  0  0  0  0  3  0  0  0  0  0  0
  188.8990  177.7390  140.2810 C   0  0  0  0  0  0  0  0  0  0  0  0
  190.5560  176.5950  138.9130 C   0  0  0  0  0  3  0  0  0  0  0  0
  188.6700  178.6320  139.2240 C   0  0  0  0  0  3  0  0  0  0  0  0
  189.8550  176.7220  140.1150 C   0  0  0  0  0  3  0  0  0  0  0  0
  189.1360  179.3710  137.0060 F   0  0  0  0  0  0  0  0  0  0  0  0
  184.5930  178.2840  142.4740 C   0  0  0  0  0  2  0  0  0  0  0  0
  184.3030  179.0020  141.1710 C   0  0  0  0  0  2  0  0  0  0  0  0
  182.9720  178.5400  140.6130 C   0  0  0  0  0  2  0  0  0  0  0  0
  183.0570  177.0730  140.2210 C   0  0  0  0  0  2  0  0  0  0  0  0
  182.7070  175.2490  138.0220 O   0  0  0  0  0  0  0  0  0  0  0  0
  181.7790  176.6110  139.6920 N   0  0  0  0  0  0  0  0  0  0  0  0
  181.6920  175.6020  138.6800 C   0  0  0  0  0  0  0  0  0  0  0  0
  179.6530  174.7680  139.7560 C   0  0  0  0  0  2  0  0  0  0  0  0
  179.5490  176.0490  140.6080 C   0  0  0  0  0  2  0  0  0  0  0  0
  180.5370  177.1630  140.2220 C   0  0  0  0  0  2  0  0  0  0  0  0
  180.3670  174.9710  138.4180 C   0  0  0  0  0  2  0  0  0  0  0  0
  1  9  1  0  0  0  0
  2 12  1  0  0  0  0
  3  8  1  1  0  0  0
  4 15  1  0  0  0  0
  5  6  1  0  0  0  0
  8  2  1  0  0  0  0
  9  5  1  0  0  0  0
 10 16  1  6  0  0  0
 10  3  1  0  0  0  0
 11 16  1  0  0  0  0
 11  1  1  0  0  0  0
 12  6  1  0  0  0  0
 13 14  2  0  0  0  0
 13  4  1  0  0  0  0
 14 10  1  0  0  0  0
 15  3  1  0  0  0  0
 15  7  2  0  0  0  0
 17 21  1  0  0  0  0
 18 17  2  0  0  0  0
 18 20  1  0  0  0  0
 19 14  1  0  0  0  0
 20 22  2  0  0  0  0
 21 19  2  0  0  0  0
 22 19  1  0  0  0  0
 23 17  1  0  0  0  0
 24  4  1  0  0  0  0
 25 24  1  0  0  0  0
 26 25  1  0  0  0  0
 27 26  1  0  0  0  0
 28 30  2  0  0  0  0
 29 27  1  0  0  0  0
 29 33  1  0  0  0  0
 30 29  1  0  0  0  0
 31 32  1  0  0  0  0
 33 32  1  0  0  0  0
 34 30  1  0  0  0  0
 34 31  1  0  0  0  0
M  END
>  <MODEL>
9

>  <REMARK>
 VINA RESULT:      -8.9      2.890      5.112
  Name = 
  6 active torsions:
  status: ('A' for Active; 'I' for Inactive)
    1  A    between atoms: C_3  and  N_13
    2  A    between atoms: C_3  and  C_17
    3  A    between atoms: N_5  and  C_18
    4  A    between atoms: C_12  and  C_28
    5  A    between atoms: C_17  and  C_29
    6  A    between atoms: C_18  and  C_29
                            x       y       z     vdW  Elec       q    Type
                         _______ _______ _______ _____ _____    ______ ____

>  <TORSDO>
F 6

$$$$
