=
 OpenBabel10262421453D

 30 32  0  0  1  0  0  0  0  0999 V2000
  181.8310  177.8810  139.6750 C   0  0  2  0  0  3  0  0  0  0  0  0
  180.0130  178.4800  142.0780 C   0  0  2  0  0  3  0  0  0  0  0  0
  179.6230  179.2010  139.6930 C   0  0  0  0  0  2  0  0  0  0  0  0
  183.5120  178.6270  142.6450 C   0  0  0  0  0  2  0  0  0  0  0  0
  181.1410  179.2770  139.7650 C   0  0  1  0  0  0  0  0  0  0  0  0
  182.2370  179.3440  143.0710 C   0  0  0  0  0  2  0  0  0  0  0  0
  179.7890  179.0990  143.4490 C   0  0  0  0  0  2  0  0  0  0  0  0
  183.5190  178.3430  141.1500 C   0  0  0  0  0  2  0  0  0  0  0  0
  182.5070  177.4290  140.8310 O   0  0  0  0  0  0  0  0  0  0  0  0
  181.0780  178.3550  143.1820 C   0  0  1  0  0  3  0  0  0  0  0  0
  180.0520  180.8930  141.3360 O   0  0  0  0  0  1  0  0  0  0  0  0
  180.2870  179.5530  141.0080 C   0  0  2  0  0  0  0  0  0  0  0  0
  183.7320  178.0320  138.0610 C   0  0  0  0  0  1  0  0  0  0  0  0
  182.3960  177.3460  138.3340 C   0  0  2  0  0  0  0  0  0  0  0  0
  181.3790  177.6210  137.1890 C   0  0  2  0  0  3  0  0  0  0  0  0
  180.4730  176.4200  136.9230 C   0  0  0  0  0  2  0  0  0  0  0  0
  179.0180  176.7960  137.1270 C   0  0  0  0  0  1  0  0  0  0  0  0
  182.0050  178.0780  135.8990 C   0  0  0  0  0  3  0  0  0  0  0  0
  181.9020  177.3490  134.7910 C   0  0  0  0  0  2  0  0  0  0  0  0
  182.6430  175.8350  138.4900 C   0  0  0  0  0  2  0  0  0  0  0  0
  183.8560  175.4430  137.9160 O   0  0  0  0  0  0  0  0  0  0  0  0
  183.6320  174.1430  137.4630 C   0  0  1  0  0  3  0  0  0  0  0  0
  183.1930  174.1820  136.0140 C   0  0  0  0  0  1  0  0  0  0  0  0
  185.1640  173.1800  137.6010 S   0  0  0  0  0  1  0  0  0  0  0  0
  183.1340  180.4450  139.0320 O   0  0  0  0  0  1  0  0  0  0  0  0
  181.7470  180.5480  139.1340 C   0  0  1  0  0  3  0  0  0  0  0  0
  181.1520  180.9190  137.7800 C   0  0  0  0  0  2  0  0  0  0  0  0
  180.5940  182.3360  137.7690 C   0  0  0  0  0  2  0  0  0  0  0  0
  181.3480  184.0850  136.3210 O   0  0  0  0  0  1  0  0  0  0  0  0
  180.5900  182.9150  136.3640 C   0  0  0  0  0  2  0  0  0  0  0  0
  1 14  1  6  0  0  0
  1  5  1  0  0  0  0
  1  9  1  0  0  0  0
  2 10  1  0  0  0  0
  2  7  1  1  0  0  0
  3  5  1  0  0  0  0
  3 12  1  0  0  0  0
  4  6  1  0  0  0  0
  5 26  1  6  0  0  0
  5 12  1  0  0  0  0
  8  4  1  0  0  0  0
  9  8  1  0  0  0  0
 10  6  1  6  0  0  0
 10  7  1  0  0  0  0
 12 11  1  1  0  0  0
 12  2  1  0  0  0  0
 14 13  1  6  0  0  0
 14 20  1  0  0  0  0
 15 18  1  6  0  0  0
 15 14  1  0  0  0  0
 16 17  1  0  0  0  0
 16 15  1  0  0  0  0
 19 18  2  0  0  0  0
 21 20  1  0  0  0  0
 22 23  1  6  0  0  0
 22 24  1  0  0  0  0
 22 21  1  0  0  0  0
 26 25  1  6  0  0  0
 27 26  1  0  0  0  0
 28 27  1  0  0  0  0
 29 30  1  0  0  0  0
 30 28  1  0  0  0  0
M  END
>  <MODEL>
1

>  <REMARK>
 VINA RESULT:      -4.0      0.000      0.000
  Name = 
  11 active torsions:
  status: ('A' for Active; 'I' for Inactive)
    1  A    between atoms: C_2  and  C_14
    2  A    between atoms: C_3  and  O_19
    3  A    between atoms: C_4  and  C_22
    4  A    between atoms: C_6  and  C_12
    5  A    between atoms: C_6  and  C_17
    6  A    between atoms: C_12  and  C_13
    7  A    between atoms: C_14  and  C_20
    8  A    between atoms: C_14  and  C_22
    9  A    between atoms: C_17  and  C_21
   10  A    between atoms: O_19  and  C_29
   11  A    between atoms: C_22  and  C_29
                            x       y       z     vdW  Elec       q    Type
                         _______ _______ _______ _____ _____    ______ ____

>  <TORSDO>
F 11

$$$$
=
 OpenBabel10262421453D

 30 32  0  0  1  0  0  0  0  0999 V2000
  181.3060  178.1130  139.3900 C   0  0  2  0  0  3  0  0  0  0  0  0
  179.5570  178.6880  141.8480 C   0  0  2  0  0  3  0  0  0  0  0  0
  179.1900  179.5700  139.5150 C   0  0  0  0  0  2  0  0  0  0  0  0
  183.0640  178.5760  142.3730 C   0  0  0  0  0  2  0  0  0  0  0  0
  180.7090  179.5430  139.5680 C   0  0  1  0  0  0  0  0  0  0  0  0
  181.8430  179.3490  142.8570 C   0  0  0  0  0  2  0  0  0  0  0  0
  179.3880  179.2410  143.2550 C   0  0  0  0  0  2  0  0  0  0  0  0
  183.0360  178.3790  140.8640 C   0  0  0  0  0  2  0  0  0  0  0  0
  181.9630  177.5520  140.5090 O   0  0  0  0  0  0  0  0  0  0  0  0
  180.6230  178.4320  142.9280 C   0  0  1  0  0  3  0  0  0  0  0  0
  179.7450  181.1330  141.2440 O   0  0  0  0  0  1  0  0  0  0  0  0
  179.8890  179.8010  140.8380 C   0  0  2  0  0  0  0  0  0  0  0  0
  181.0740  178.3760  136.9160 C   0  0  0  0  0  1  0  0  0  0  0  0
  181.8200  177.6200  138.0130 C   0  0  2  0  0  0  0  0  0  0  0  0
  181.5970  176.0860  137.8870 C   0  0  2  0  0  3  0  0  0  0  0  0
  181.3900  175.6510  136.4370 C   0  0  0  0  0  2  0  0  0  0  0  0
  182.2850  174.4730  136.1020 C   0  0  0  0  0  1  0  0  0  0  0  0
  180.4810  175.5480  138.7400 C   0  0  0  0  0  3  0  0  0  0  0  0
  179.2460  175.4290  138.2590 C   0  0  0  0  0  2  0  0  0  0  0  0
  183.3160  177.9620  137.9130 C   0  0  0  0  0  2  0  0  0  0  0  0
  184.1180  176.8170  137.9510 O   0  0  0  0  0  0  0  0  0  0  0  0
  185.2150  177.1220  137.1470 C   0  0  1  0  0  3  0  0  0  0  0  0
  186.1120  178.1060  137.8680 C   0  0  0  0  0  1  0  0  0  0  0  0
  186.1480  175.6060  136.7930 S   0  0  0  0  0  1  0  0  0  0  0  0
  182.7510  180.5900  138.7890 O   0  0  0  0  0  1  0  0  0  0  0  0
  181.3900  180.8070  139.0020 C   0  0  1  0  0  3  0  0  0  0  0  0
  180.7460  181.3480  137.7320 C   0  0  0  0  0  2  0  0  0  0  0  0
  180.4250  182.8330  137.8420 C   0  0  0  0  0  2  0  0  0  0  0  0
  181.9460  184.5460  137.1560 O   0  0  0  0  0  1  0  0  0  0  0  0
  181.0240  183.6140  136.6830 C   0  0  0  0  0  2  0  0  0  0  0  0
  1 14  1  6  0  0  0
  1  5  1  0  0  0  0
  1  9  1  0  0  0  0
  2 10  1  0  0  0  0
  2  7  1  1  0  0  0
  3  5  1  0  0  0  0
  3 12  1  0  0  0  0
  4  6  1  0  0  0  0
  5 26  1  6  0  0  0
  5 12  1  0  0  0  0
  8  4  1  0  0  0  0
  9  8  1  0  0  0  0
 10  6  1  6  0  0  0
 10  7  1  0  0  0  0
 12 11  1  1  0  0  0
 12  2  1  0  0  0  0
 14 13  1  6  0  0  0
 15 16  1  6  0  0  0
 15 14  1  0  0  0  0
 15 18  1  0  0  0  0
 17 16  1  0  0  0  0
 19 18  2  0  0  0  0
 20 21  1  0  0  0  0
 20 14  1  0  0  0  0
 22 23  1  1  0  0  0
 22 21  1  0  0  0  0
 24 22  1  0  0  0  0
 26 25  1  6  0  0  0
 27 28  1  0  0  0  0
 27 26  1  0  0  0  0
 30 29  1  0  0  0  0
 30 28  1  0  0  0  0
M  END
>  <MODEL>
2

>  <REMARK>
 VINA RESULT:      -3.6      1.132      2.085
  Name = 
  11 active torsions:
  status: ('A' for Active; 'I' for Inactive)
    1  A    between atoms: C_2  and  C_14
    2  A    between atoms: C_3  and  O_19
    3  A    between atoms: C_4  and  C_22
    4  A    between atoms: C_6  and  C_12
    5  A    between atoms: C_6  and  C_17
    6  A    between atoms: C_12  and  C_13
    7  A    between atoms: C_14  and  C_20
    8  A    between atoms: C_14  and  C_22
    9  A    between atoms: C_17  and  C_21
   10  A    between atoms: O_19  and  C_29
   11  A    between atoms: C_22  and  C_29
                            x       y       z     vdW  Elec       q    Type
                         _______ _______ _______ _____ _____    ______ ____

>  <TORSDO>
F 11

$$$$
=
 OpenBabel10262421453D

 30 32  0  0  1  0  0  0  0  0999 V2000
  182.7870  177.0520  137.4660 C   0  0  2  0  0  3  0  0  0  0  0  0
  180.1550  178.3990  138.2980 C   0  0  2  0  0  3  0  0  0  0  0  0
  182.3220  179.5660  137.7470 C   0  0  0  0  0  2  0  0  0  0  0  0
  180.9980  175.3790  139.9570 C   0  0  0  0  0  2  0  0  0  0  0  0
  182.8450  178.2980  138.4040 C   0  0  1  0  0  0  0  0  0  0  0  0
  180.3490  176.7240  140.2570 C   0  0  0  0  0  2  0  0  0  0  0  0
  179.0340  178.6110  139.3040 C   0  0  0  0  0  2  0  0  0  0  0  0
  182.2430  175.5390  139.0960 C   0  0  0  0  0  2  0  0  0  0  0  0
  181.8890  176.0220  137.8300 O   0  0  0  0  0  0  0  0  0  0  0  0
  179.5400  177.2080  139.0540 C   0  0  1  0  0  3  0  0  0  0  0  0
  181.5070  179.6870  139.9980 O   0  0  0  0  0  1  0  0  0  0  0  0
  181.5050  178.9040  138.8380 C   0  0  2  0  0  0  0  0  0  0  0  0
  184.0280  177.2800  135.3100 C   0  0  0  0  0  1  0  0  0  0  0  0
  184.0320  176.5850  136.6690 C   0  0  2  0  0  0  0  0  0  0  0  0
  184.0020  175.0380  136.5070 C   0  0  2  0  0  3  0  0  0  0  0  0
  185.2130  174.3680  137.1560 C   0  0  0  0  0  2  0  0  0  0  0  0
  184.8350  173.0050  137.7060 C   0  0  0  0  0  1  0  0  0  0  0  0
  183.8650  174.5640  135.0860 C   0  0  0  0  0  3  0  0  0  0  0  0
  182.7950  173.8780  134.6920 C   0  0  0  0  0  2  0  0  0  0  0  0
  185.2860  177.0270  137.4420 C   0  0  0  0  0  2  0  0  0  0  0  0
  186.1080  177.8580  136.6730 O   0  0  0  0  0  0  0  0  0  0  0  0
  187.3900  177.3320  136.8270 C   0  0  1  0  0  3  0  0  0  0  0  0
  187.7680  176.5500  135.5860 C   0  0  0  0  0  1  0  0  0  0  0  0
  188.5750  178.6860  137.0680 S   0  0  0  0  0  1  0  0  0  0  0  0
  184.4140  179.8540  139.3970 O   0  0  0  0  0  1  0  0  0  0  0  0
  183.9880  178.5270  139.4150 C   0  0  1  0  0  3  0  0  0  0  0  0
  183.6530  178.1080  140.8410 C   0  0  0  0  0  2  0  0  0  0  0  0
  184.5100  178.8370  141.8680 C   0  0  0  0  0  2  0  0  0  0  0  0
  184.2120  179.7910  144.0410 O   0  0  0  0  0  1  0  0  0  0  0  0
  183.9620  178.6540  143.2740 C   0  0  0  0  0  2  0  0  0  0  0  0
  1 14  1  1  0  0  0
  1  9  1  0  0  0  0
  1  5  1  0  0  0  0
  2 12  1  0  0  0  0
  2 10  1  0  0  0  0
  2  7  1  1  0  0  0
  3  5  1  0  0  0  0
  3 12  1  0  0  0  0
  4  6  1  0  0  0  0
  5 12  1  0  0  0  0
  5 26  1  1  0  0  0
  8  4  1  0  0  0  0
  9  8  1  0  0  0  0
 10  7  1  1  0  0  0
 10  6  1  0  0  0  0
 12 11  1  1  0  0  0
 14 13  1  6  0  0  0
 14 20  1  0  0  0  0
 15 18  1  6  0  0  0
 15 14  1  0  0  0  0
 15 16  1  0  0  0  0
 16 17  1  0  0  0  0
 19 18  2  0  0  0  0
 21 22  1  0  0  0  0
 21 20  1  0  0  0  0
 22 23  1  6  0  0  0
 22 24  1  0  0  0  0
 26 25  1  1  0  0  0
 26 27  1  0  0  0  0
 27 28  1  0  0  0  0
 28 30  1  0  0  0  0
 30 29  1  0  0  0  0
M  END
>  <MODEL>
3

>  <REMARK>
 VINA RESULT:      -3.6      2.571      4.645
  Name = 
  11 active torsions:
  status: ('A' for Active; 'I' for Inactive)
    1  A    between atoms: C_2  and  C_14
    2  A    between atoms: C_3  and  O_19
    3  A    between atoms: C_4  and  C_22
    4  A    between atoms: C_6  and  C_12
    5  A    between atoms: C_6  and  C_17
    6  A    between atoms: C_12  and  C_13
    7  A    between atoms: C_14  and  C_20
    8  A    between atoms: C_14  and  C_22
    9  A    between atoms: C_17  and  C_21
   10  A    between atoms: O_19  and  C_29
   11  A    between atoms: C_22  and  C_29
                            x       y       z     vdW  Elec       q    Type
                         _______ _______ _______ _____ _____    ______ ____

>  <TORSDO>
F 11

$$$$
=
 OpenBabel10262421453D

 30 32  0  0  1  0  0  0  0  0999 V2000
  182.2280  176.4990  138.5580 C   0  0  2  0  0  3  0  0  0  0  0  0
  182.6210  177.7950  141.3150 C   0  0  2  0  0  3  0  0  0  0  0  0
  180.4230  177.4380  140.1320 C   0  0  0  0  0  2  0  0  0  0  0  0
  185.0210  178.5800  138.8250 C   0  0  0  0  0  2  0  0  0  0  0  0
  181.3350  177.7180  138.9490 C   0  0  1  0  0  0  0  0  0  0  0  0
  184.2900  179.2490  139.9820 C   0  0  0  0  0  2  0  0  0  0  0  0
  183.2130  178.8850  142.1960 C   0  0  0  0  0  2  0  0  0  0  0  0
  184.0810  177.7190  137.9940 C   0  0  0  0  0  2  0  0  0  0  0  0
  183.6210  176.6390  138.7580 O   0  0  0  0  0  0  0  0  0  0  0  0
  184.0760  178.2570  141.1240 C   0  0  1  0  0  3  0  0  0  0  0  0
  181.1690  179.6870  140.4850 O   0  0  0  0  0  1  0  0  0  0  0  0
  181.6040  178.3680  140.3120 C   0  0  2  0  0  0  0  0  0  0  0  0
  182.0550  176.2500  136.0780 C   0  0  0  0  0  1  0  0  0  0  0  0
  181.8230  175.5400  137.4100 C   0  0  2  0  0  0  0  0  0  0  0  0
  180.3330  175.1250  137.5730 C   0  0  2  0  0  3  0  0  0  0  0  0
  180.1860  173.7610  138.2470 C   0  0  0  0  0  2  0  0  0  0  0  0
  179.5220  173.9090  139.6040 C   0  0  0  0  0  1  0  0  0  0  0  0
  179.5390  175.1450  136.2950 C   0  0  0  0  0  3  0  0  0  0  0  0
  179.0740  174.0200  135.7590 C   0  0  0  0  0  2  0  0  0  0  0  0
  182.7410  174.3060  137.4740 C   0  0  0  0  0  2  0  0  0  0  0  0
  183.1680  173.9060  136.2040 O   0  0  0  0  0  0  0  0  0  0  0  0
  184.0080  172.8180  136.4360 C   0  0  1  0  0  3  0  0  0  0  0  0
  184.8890  173.1060  137.6330 C   0  0  0  0  0  1  0  0  0  0  0  0
  183.0070  171.3410  136.7690 S   0  0  0  0  0  1  0  0  0  0  0  0
  179.4260  179.0160  138.2120 O   0  0  0  0  0  1  0  0  0  0  0  0
  180.7460  178.6880  137.9040 C   0  0  1  0  0  3  0  0  0  0  0  0
  181.5630  179.9580  137.6980 C   0  0  0  0  0  2  0  0  0  0  0  0
  180.7240  181.0900  137.1210 C   0  0  0  0  0  2  0  0  0  0  0  0
  179.6650  182.4020  138.8180 O   0  0  0  0  0  1  0  0  0  0  0  0
  180.7910  182.3290  137.9990 C   0  0  0  0  0  2  0  0  0  0  0  0
  1 14  1  6  0  0  0
  1  9  1  0  0  0  0
  1  5  1  0  0  0  0
  2  7  1  1  0  0  0
  3 12  1  0  0  0  0
  4  6  1  0  0  0  0
  5 26  1  6  0  0  0
  5  3  1  0  0  0  0
  5 12  1  0  0  0  0
  8  9  1  0  0  0  0
  8  4  1  0  0  0  0
 10  6  1  6  0  0  0
 10  2  1  0  0  0  0
 10  7  1  0  0  0  0
 12 11  1  1  0  0  0
 12  2  1  0  0  0  0
 14 13  1  6  0  0  0
 14 20  1  0  0  0  0
 14 15  1  0  0  0  0
 15 18  1  6  0  0  0
 15 16  1  0  0  0  0
 16 17  1  0  0  0  0
 19 18  2  0  0  0  0
 21 22  1  0  0  0  0
 21 20  1  0  0  0  0
 22 24  1  0  0  0  0
 22 23  1  1  0  0  0
 26 25  1  1  0  0  0
 27 26  1  0  0  0  0
 28 27  1  0  0  0  0
 28 30  1  0  0  0  0
 30 29  1  0  0  0  0
M  END
>  <MODEL>
4

>  <REMARK>
 VINA RESULT:      -3.5      1.886      2.873
  Name = 
  11 active torsions:
  status: ('A' for Active; 'I' for Inactive)
    1  A    between atoms: C_2  and  C_14
    2  A    between atoms: C_3  and  O_19
    3  A    between atoms: C_4  and  C_22
    4  A    between atoms: C_6  and  C_12
    5  A    between atoms: C_6  and  C_17
    6  A    between atoms: C_12  and  C_13
    7  A    between atoms: C_14  and  C_20
    8  A    between atoms: C_14  and  C_22
    9  A    between atoms: C_17  and  C_21
   10  A    between atoms: O_19  and  C_29
   11  A    between atoms: C_22  and  C_29
                            x       y       z     vdW  Elec       q    Type
                         _______ _______ _______ _____ _____    ______ ____

>  <TORSDO>
F 11

$$$$
=
 OpenBabel10262421453D

 30 32  0  0  1  0  0  0  0  0999 V2000
  182.7850  177.9820  137.0600 C   0  0  2  0  0  3  0  0  0  0  0  0
  181.8060  180.6690  138.1790 C   0  0  2  0  0  3  0  0  0  0  0  0
  183.5840  179.1910  139.1850 C   0  0  0  0  0  2  0  0  0  0  0  0
  179.3460  178.5280  136.7850 C   0  0  0  0  0  2  0  0  0  0  0  0
  182.6450  178.1450  138.6050 C   0  0  1  0  0  0  0  0  0  0  0  0
  179.5090  179.5100  137.9380 C   0  0  0  0  0  2  0  0  0  0  0  0
  180.6940  181.5530  138.7240 C   0  0  0  0  0  2  0  0  0  0  0  0
  180.5630  177.6250  136.6450 C   0  0  0  0  0  2  0  0  0  0  0  0
  181.6810  178.3820  136.2740 O   0  0  0  0  0  0  0  0  0  0  0  0
  180.4120  180.6720  137.5280 C   0  0  1  0  0  3  0  0  0  0  0  0
  181.5410  179.4960  140.4000 O   0  0  0  0  0  1  0  0  0  0  0  0
  182.1000  179.4840  139.1160 C   0  0  2  0  0  0  0  0  0  0  0  0
  183.6560  177.0160  134.9260 C   0  0  0  0  0  1  0  0  0  0  0  0
  183.6540  176.8550  136.4440 C   0  0  2  0  0  0  0  0  0  0  0  0
  183.0850  175.4680  136.8600 C   0  0  2  0  0  3  0  0  0  0  0  0
  184.1090  174.6320  137.6260 C   0  0  0  0  0  2  0  0  0  0  0  0
  184.4110  173.3450  136.8790 C   0  0  0  0  0  1  0  0  0  0  0  0
  182.5230  174.6600  135.7210 C   0  0  0  0  0  3  0  0  0  0  0  0
  181.2460  174.2880  135.7080 C   0  0  0  0  0  2  0  0  0  0  0  0
  185.0930  177.0280  136.9580 C   0  0  0  0  0  2  0  0  0  0  0  0
  185.9600  177.4580  135.9480 O   0  0  0  0  0  0  0  0  0  0  0  0
  186.9370  178.2020  136.6090 C   0  0  1  0  0  3  0  0  0  0  0  0
  186.8680  177.9180  138.0950 C   0  0  0  0  0  1  0  0  0  0  0  0
  188.5770  177.7410  135.9840 S   0  0  0  0  0  1  0  0  0  0  0  0
  183.0720  177.0720  140.7360 O   0  0  0  0  0  1  0  0  0  0  0  0
  182.3540  176.9570  139.5450 C   0  0  1  0  0  3  0  0  0  0  0  0
  180.8760  176.7470  139.8490 C   0  0  0  0  0  2  0  0  0  0  0  0
  180.4180  175.3330  139.5130 C   0  0  0  0  0  2  0  0  0  0  0  0
  179.0740  175.7140  141.4540 O   0  0  0  0  0  1  0  0  0  0  0  0
  179.6450  174.7150  140.6670 C   0  0  0  0  0  2  0  0  0  0  0  0
  1 14  1  1  0  0  0
  1  5  1  0  0  0  0
  2  7  1  1  0  0  0
  2 12  1  0  0  0  0
  4  6  1  0  0  0  0
  5 12  1  0  0  0  0
  5  3  1  0  0  0  0
  5 26  1  1  0  0  0
  8  4  1  0  0  0  0
  9  8  1  0  0  0  0
  9  1  1  0  0  0  0
 10  6  1  1  0  0  0
 10  2  1  0  0  0  0
 10  7  1  0  0  0  0
 12  3  1  0  0  0  0
 12 11  1  1  0  0  0
 14 13  1  6  0  0  0
 14 15  1  0  0  0  0
 14 20  1  0  0  0  0
 15 18  1  6  0  0  0
 15 16  1  0  0  0  0
 17 16  1  0  0  0  0
 19 18  2  0  0  0  0
 21 22  1  0  0  0  0
 21 20  1  0  0  0  0
 22 23  1  1  0  0  0
 24 22  1  0  0  0  0
 26 27  1  0  0  0  0
 26 25  1  1  0  0  0
 28 27  1  0  0  0  0
 28 30  1  0  0  0  0
 30 29  1  0  0  0  0
M  END
>  <MODEL>
5

>  <REMARK>
 VINA RESULT:      -3.4      2.604      5.098
  Name = 
  11 active torsions:
  status: ('A' for Active; 'I' for Inactive)
    1  A    between atoms: C_2  and  C_14
    2  A    between atoms: C_3  and  O_19
    3  A    between atoms: C_4  and  C_22
    4  A    between atoms: C_6  and  C_12
    5  A    between atoms: C_6  and  C_17
    6  A    between atoms: C_12  and  C_13
    7  A    between atoms: C_14  and  C_20
    8  A    between atoms: C_14  and  C_22
    9  A    between atoms: C_17  and  C_21
   10  A    between atoms: O_19  and  C_29
   11  A    between atoms: C_22  and  C_29
                            x       y       z     vdW  Elec       q    Type
                         _______ _______ _______ _____ _____    ______ ____

>  <TORSDO>
F 11

$$$$
=
 OpenBabel10262421453D

 30 32  0  0  1  0  0  0  0  0999 V2000
  187.5300  176.0110  137.4740 C   0  0  2  0  0  3  0  0  0  0  0  0
  187.2400  173.0140  136.8690 C   0  0  2  0  0  3  0  0  0  0  0  0
  189.4030  174.2750  137.1670 C   0  0  0  0  0  2  0  0  0  0  0  0
  184.9830  175.2010  135.2240 C   0  0  0  0  0  2  0  0  0  0  0  0
  188.5470  175.3400  136.4990 C   0  0  1  0  0  0  0  0  0  0  0  0
  185.7660  173.9230  134.9510 C   0  0  0  0  0  2  0  0  0  0  0  0
  186.7590  171.8820  135.9730 C   0  0  0  0  0  2  0  0  0  0  0  0
  185.8340  176.2310  135.9520 C   0  0  0  0  0  2  0  0  0  0  0  0
  186.1580  175.7660  137.2330 O   0  0  0  0  0  0  0  0  0  0  0  0
  185.8490  173.0660  136.2130 C   0  0  1  0  0  3  0  0  0  0  0  0
  188.9080  173.3650  135.0060 O   0  0  0  0  0  1  0  0  0  0  0  0
  188.3310  173.8560  136.1830 C   0  0  2  0  0  0  0  0  0  0  0  0
  188.2710  178.3650  137.0850 C   0  0  0  0  0  1  0  0  0  0  0  0
  187.8420  177.3670  138.1570 C   0  0  2  0  0  0  0  0  0  0  0  0
  188.9600  177.1730  139.2220 C   0  0  2  0  0  3  0  0  0  0  0  0
  188.6710  177.9480  140.5070 C   0  0  0  0  0  2  0  0  0  0  0  0
  189.0060  177.1040  141.7230 C   0  0  0  0  0  1  0  0  0  0  0  0
  190.3450  177.5010  138.7350 C   0  0  0  0  0  3  0  0  0  0  0  0
  191.3900  176.7560  139.0860 C   0  0  0  0  0  2  0  0  0  0  0  0
  186.5490  177.8790  138.8140 C   0  0  0  0  0  2  0  0  0  0  0  0
  185.9970  178.9550  138.1110 O   0  0  0  0  0  0  0  0  0  0  0  0
  184.7620  179.1820  138.7190 C   0  0  1  0  0  3  0  0  0  0  0  0
  183.7540  178.1740  138.2060 C   0  0  0  0  0  1  0  0  0  0  0  0
  184.9300  179.0030  140.5170 S   0  0  0  0  0  1  0  0  0  0  0  0
  188.4930  177.2070  134.9550 O   0  0  0  0  0  1  0  0  0  0  0  0
  189.2580  176.1190  135.3730 C   0  0  1  0  0  3  0  0  0  0  0  0
  190.6680  176.5780  135.7240 C   0  0  0  0  0  2  0  0  0  0  0  0
  191.7200  175.9200  134.8420 C   0  0  0  0  0  2  0  0  0  0  0  0
  192.8470  174.5200  136.4210 O   0  0  0  0  0  1  0  0  0  0  0  0
  192.9990  175.6500  135.6180 C   0  0  0  0  0  2  0  0  0  0  0  0
  1 14  1  6  0  0  0
  2  7  1  6  0  0  0
  4  8  1  0  0  0  0
  5 26  1  6  0  0  0
  5  3  1  0  0  0  0
  5  1  1  0  0  0  0
  6  4  1  0  0  0  0
  7 10  1  0  0  0  0
  8  9  1  0  0  0  0
  9  1  1  0  0  0  0
 10  6  1  6  0  0  0
 10  2  1  0  0  0  0
 12 11  1  6  0  0  0
 12  5  1  0  0  0  0
 12  2  1  0  0  0  0
 12  3  1  0  0  0  0
 14 13  1  6  0  0  0
 14 20  1  0  0  0  0
 14 15  1  0  0  0  0
 15 18  1  6  0  0  0
 15 16  1  0  0  0  0
 16 17  1  0  0  0  0
 18 19  2  0  0  0  0
 21 22  1  0  0  0  0
 21 20  1  0  0  0  0
 22 23  1  6  0  0  0
 22 24  1  0  0  0  0
 26 25  1  1  0  0  0
 26 27  1  0  0  0  0
 28 30  1  0  0  0  0
 28 27  1  0  0  0  0
 30 29  1  0  0  0  0
M  END
>  <MODEL>
6

>  <REMARK>
 VINA RESULT:      -3.4      5.447      9.394
  Name = 
  11 active torsions:
  status: ('A' for Active; 'I' for Inactive)
    1  A    between atoms: C_2  and  C_14
    2  A    between atoms: C_3  and  O_19
    3  A    between atoms: C_4  and  C_22
    4  A    between atoms: C_6  and  C_12
    5  A    between atoms: C_6  and  C_17
    6  A    between atoms: C_12  and  C_13
    7  A    between atoms: C_14  and  C_20
    8  A    between atoms: C_14  and  C_22
    9  A    between atoms: C_17  and  C_21
   10  A    between atoms: O_19  and  C_29
   11  A    between atoms: C_22  and  C_29
                            x       y       z     vdW  Elec       q    Type
                         _______ _______ _______ _____ _____    ______ ____

>  <TORSDO>
F 11

$$$$
=
 OpenBabel10262421453D

 30 32  0  0  1  0  0  0  0  0999 V2000
  181.1880  178.3340  138.9370 C   0  0  2  0  0  3  0  0  0  0  0  0
  179.6920  178.9570  136.3280 C   0  0  2  0  0  3  0  0  0  0  0  0
  181.2480  177.0140  136.7300 C   0  0  0  0  0  2  0  0  0  0  0  0
  181.0080  181.7240  138.1150 C   0  0  0  0  0  2  0  0  0  0  0  0
  181.9140  178.0860  137.5780 C   0  0  1  0  0  0  0  0  0  0  0  0
  180.8040  181.2640  136.6770 C   0  0  0  0  0  2  0  0  0  0  0  0
  179.3940  179.8830  135.1590 C   0  0  0  0  0  2  0  0  0  0  0  0
  181.5310  180.5960  138.9930 C   0  0  0  0  0  2  0  0  0  0  0  0
  180.5630  179.5900  139.1060 O   0  0  0  0  0  0  0  0  0  0  0  0
  179.5060  180.4680  136.5490 C   0  0  1  0  0  3  0  0  0  0  0  0
  181.9090  178.6880  135.1490 O   0  0  0  0  0  1  0  0  0  0  0  0
  181.1500  178.4630  136.3030 C   0  0  2  0  0  0  0  0  0  0  0  0
  182.4120  176.3740  139.8890 C   0  0  0  0  0  1  0  0  0  0  0  0
  181.6800  177.6650  140.2470 C   0  0  2  0  0  0  0  0  0  0  0  0
  180.4670  177.3830  141.1790 C   0  0  2  0  0  3  0  0  0  0  0  0
  179.2220  176.9720  140.3950 C   0  0  0  0  0  2  0  0  0  0  0  0
  178.9320  175.4960  140.5910 C   0  0  0  0  0  1  0  0  0  0  0  0
  180.1260  178.5110  142.1140 C   0  0  0  0  0  3  0  0  0  0  0  0
  179.8320  178.2790  143.3910 C   0  0  0  0  0  2  0  0  0  0  0  0
  182.6760  178.6220  140.9250 C   0  0  0  0  0  2  0  0  0  0  0  0
  183.8040  177.9470  141.4030 O   0  0  0  0  0  0  0  0  0  0  0  0
  184.3870  178.8280  142.3130 C   0  0  1  0  0  3  0  0  0  0  0  0
  183.5380  178.8950  143.5660 C   0  0  0  0  0  1  0  0  0  0  0  0
  186.0500  178.2430  142.7450 S   0  0  0  0  0  1  0  0  0  0  0  0
  183.9960  179.0800  138.3190 O   0  0  0  0  0  1  0  0  0  0  0  0
  183.4480  178.1580  137.4270 C   0  0  1  0  0  3  0  0  0  0  0  0
  184.1540  176.8150  137.5690 C   0  0  0  0  0  2  0  0  0  0  0  0
  185.3370  176.6880  136.6170 C   0  0  0  0  0  2  0  0  0  0  0  0
  187.2410  178.0910  136.2610 O   0  0  0  0  0  1  0  0  0  0  0  0
  186.5920  177.3060  137.2130 C   0  0  0  0  0  2  0  0  0  0  0  0
  1  9  1  0  0  0  0
  1 14  1  1  0  0  0
  2  7  1  6  0  0  0
  2 10  1  0  0  0  0
  3  5  1  0  0  0  0
  4  8  1  0  0  0  0
  5 26  1  6  0  0  0
  5  1  1  0  0  0  0
  6  4  1  0  0  0  0
  8  9  1  0  0  0  0
 10  7  1  6  0  0  0
 10  6  1  0  0  0  0
 12 11  1  6  0  0  0
 12  2  1  0  0  0  0
 12  3  1  0  0  0  0
 12  5  1  0  0  0  0
 14 13  1  6  0  0  0
 14 20  1  0  0  0  0
 14 15  1  0  0  0  0
 15 16  1  6  0  0  0
 15 18  1  0  0  0  0
 16 17  1  0  0  0  0
 18 19  2  0  0  0  0
 20 21  1  0  0  0  0
 21 22  1  0  0  0  0
 22 24  1  0  0  0  0
 22 23  1  1  0  0  0
 26 27  1  0  0  0  0
 26 25  1  1  0  0  0
 28 30  1  0  0  0  0
 28 27  1  0  0  0  0
 29 30  1  0  0  0  0
M  END
>  <MODEL>
7

>  <REMARK>
 VINA RESULT:      -3.4      2.426      5.716
  Name = 
  11 active torsions:
  status: ('A' for Active; 'I' for Inactive)
    1  A    between atoms: C_2  and  C_14
    2  A    between atoms: C_3  and  O_19
    3  A    between atoms: C_4  and  C_22
    4  A    between atoms: C_6  and  C_12
    5  A    between atoms: C_6  and  C_17
    6  A    between atoms: C_12  and  C_13
    7  A    between atoms: C_14  and  C_20
    8  A    between atoms: C_14  and  C_22
    9  A    between atoms: C_17  and  C_21
   10  A    between atoms: O_19  and  C_29
   11  A    between atoms: C_22  and  C_29
                            x       y       z     vdW  Elec       q    Type
                         _______ _______ _______ _____ _____    ______ ____

>  <TORSDO>
F 11

$$$$
=
 OpenBabel10262421453D

 30 32  0  0  1  0  0  0  0  0999 V2000
  188.0990  176.5060  137.9750 C   0  0  2  0  0  3  0  0  0  0  0  0
  187.0520  173.9800  136.5770 C   0  0  2  0  0  3  0  0  0  0  0  0
  189.4230  174.3980  137.3270 C   0  0  0  0  0  2  0  0  0  0  0  0
  185.7620  177.0840  135.4440 C   0  0  0  0  0  2  0  0  0  0  0  0
  189.0060  175.8020  136.9180 C   0  0  1  0  0  0  0  0  0  0  0  0
  186.1770  175.7280  134.8860 C   0  0  0  0  0  2  0  0  0  0  0  0
  186.3950  173.2990  135.3850 C   0  0  0  0  0  2  0  0  0  0  0  0
  186.7630  177.5960  136.4690 C   0  0  0  0  0  2  0  0  0  0  0  0
  186.7620  176.7640  137.5960 O   0  0  0  0  0  0  0  0  0  0  0  0
  185.8380  174.6150  135.8780 C   0  0  1  0  0  3  0  0  0  0  0  0
  188.9900  174.2230  134.9760 O   0  0  0  0  0  1  0  0  0  0  0  0
  188.4210  174.5770  136.2050 C   0  0  2  0  0  0  0  0  0  0  0  0
  189.0610  178.7900  138.2920 C   0  0  0  0  0  1  0  0  0  0  0  0
  188.6890  177.4960  139.0120 C   0  0  2  0  0  0  0  0  0  0  0  0
  189.9310  176.8590  139.6980 C   0  0  2  0  0  3  0  0  0  0  0  0
  189.6550  176.4810  141.1520 C   0  0  0  0  0  2  0  0  0  0  0  0
  190.2920  177.4860  142.0930 C   0  0  0  0  0  1  0  0  0  0  0  0
  191.1800  177.6950  139.6220 C   0  0  0  0  0  3  0  0  0  0  0  0
  192.3830  177.1280  139.5680 C   0  0  0  0  0  2  0  0  0  0  0  0
  187.5960  177.8080  140.0480 C   0  0  0  0  0  2  0  0  0  0  0  0
  186.7500  178.8360  139.6210 O   0  0  0  0  0  0  0  0  0  0  0  0
  185.5580  178.6290  140.3160 C   0  0  1  0  0  3  0  0  0  0  0  0
  185.6550  179.2690  141.6860 C   0  0  0  0  0  1  0  0  0  0  0  0
  184.1830  179.3790  139.3990 S   0  0  0  0  0  1  0  0  0  0  0  0
  189.7960  177.9330  136.0760 O   0  0  0  0  0  1  0  0  0  0  0  0
  190.0580  176.5630  136.0840 C   0  0  1  0  0  3  0  0  0  0  0  0
  191.4980  176.3110  136.5130 C   0  0  0  0  0  2  0  0  0  0  0  0
  192.3340  175.7150  135.3890 C   0  0  0  0  0  2  0  0  0  0  0  0
  194.1550  176.7530  136.5410 O   0  0  0  0  0  1  0  0  0  0  0  0
  193.8040  175.6450  135.7720 C   0  0  0  0  0  2  0  0  0  0  0  0
  1 14  1  6  0  0  0
  2  7  1  6  0  0  0
  4  8  1  0  0  0  0
  5 26  1  6  0  0  0
  5  3  1  0  0  0  0
  5  1  1  0  0  0  0
  6  4  1  0  0  0  0
  7 10  1  0  0  0  0
  8  9  1  0  0  0  0
  9  1  1  0  0  0  0
 10  6  1  6  0  0  0
 10  2  1  0  0  0  0
 12 11  1  6  0  0  0
 12  2  1  0  0  0  0
 12  5  1  0  0  0  0
 12  3  1  0  0  0  0
 14 13  1  6  0  0  0
 14 15  1  0  0  0  0
 14 20  1  0  0  0  0
 15 18  1  1  0  0  0
 15 16  1  0  0  0  0
 16 17  1  0  0  0  0
 19 18  2  0  0  0  0
 21 20  1  0  0  0  0
 21 22  1  0  0  0  0
 22 23  1  1  0  0  0
 24 22  1  0  0  0  0
 26 25  1  1  0  0  0
 26 27  1  0  0  0  0
 28 30  1  0  0  0  0
 28 27  1  0  0  0  0
 30 29  1  0  0  0  0
M  END
>  <MODEL>
8

>  <REMARK>
 VINA RESULT:      -3.3      6.035      9.699
  Name = 
  11 active torsions:
  status: ('A' for Active; 'I' for Inactive)
    1  A    between atoms: C_2  and  C_14
    2  A    between atoms: C_3  and  O_19
    3  A    between atoms: C_4  and  C_22
    4  A    between atoms: C_6  and  C_12
    5  A    between atoms: C_6  and  C_17
    6  A    between atoms: C_12  and  C_13
    7  A    between atoms: C_14  and  C_20
    8  A    between atoms: C_14  and  C_22
    9  A    between atoms: C_17  and  C_21
   10  A    between atoms: O_19  and  C_29
   11  A    between atoms: C_22  and  C_29
                            x       y       z     vdW  Elec       q    Type
                         _______ _______ _______ _____ _____    ______ ____

>  <TORSDO>
F 11

$$$$
=
 OpenBabel10262421453D

 30 32  0  0  1  0  0  0  0  0999 V2000
  185.9280  176.0680  137.1980 C   0  0  2  0  0  3  0  0  0  0  0  0
  184.9500  173.1830  137.5880 C   0  0  2  0  0  3  0  0  0  0  0  0
  187.3440  173.9230  137.3090 C   0  0  0  0  0  2  0  0  0  0  0  0
  182.9720  175.2740  135.5150 C   0  0  0  0  0  2  0  0  0  0  0  0
  186.6350  174.9220  136.4080 C   0  0  1  0  0  0  0  0  0  0  0  0
  183.4290  173.8230  135.5980 C   0  0  0  0  0  2  0  0  0  0  0  0
  184.1240  171.9890  137.1320 C   0  0  0  0  0  2  0  0  0  0  0  0
  184.1110  176.2370  135.8160 C   0  0  0  0  0  2  0  0  0  0  0  0
  184.5160  176.0970  137.1500 O   0  0  0  0  0  0  0  0  0  0  0  0
  183.5190  173.3730  137.0560 C   0  0  1  0  0  3  0  0  0  0  0  0
  186.3660  172.5730  135.5880 O   0  0  0  0  0  1  0  0  0  0  0  0
  186.0780  173.5050  136.5910 C   0  0  2  0  0  0  0  0  0  0  0  0
  186.3650  178.2920  136.1450 C   0  0  0  0  0  1  0  0  0  0  0  0
  186.6060  177.4480  137.3950 C   0  0  2  0  0  0  0  0  0  0  0  0
  188.1280  177.2530  137.6540 C   0  0  2  0  0  3  0  0  0  0  0  0
  188.4470  177.1410  139.1450 C   0  0  0  0  0  2  0  0  0  0  0  0
  189.8880  176.7090  139.3480 C   0  0  0  0  0  1  0  0  0  0  0  0
  189.0050  178.3030  137.0270 C   0  0  0  0  0  3  0  0  0  0  0  0
  189.0720  179.5320  137.5320 C   0  0  0  0  0  2  0  0  0  0  0  0
  185.9350  178.1420  138.5920 C   0  0  0  0  0  2  0  0  0  0  0  0
  185.2440  179.2960  138.2070 O   0  0  0  0  0  0  0  0  0  0  0  0
  184.2170  179.4250  139.1420 C   0  0  1  0  0  3  0  0  0  0  0  0
  182.9640  178.7620  138.6100 C   0  0  0  0  0  1  0  0  0  0  0  0
  184.7080  178.6250  140.6960 S   0  0  0  0  0  1  0  0  0  0  0  0
  187.1310  176.4590  134.6010 O   0  0  0  0  0  1  0  0  0  0  0  0
  187.3190  175.1500  135.0440 C   0  0  1  0  0  3  0  0  0  0  0  0
  188.8020  174.8010  135.0220 C   0  0  0  0  0  2  0  0  0  0  0  0
  189.6610  175.9840  134.5950 C   0  0  0  0  0  2  0  0  0  0  0  0
  191.0100  175.0090  136.3130 O   0  0  0  0  0  1  0  0  0  0  0  0
  191.0000  175.9820  135.3150 C   0  0  0  0  0  2  0  0  0  0  0  0
  1 14  1  6  0  0  0
  2  7  1  6  0  0  0
  4  6  1  0  0  0  0
  4  8  1  0  0  0  0
  5 26  1  6  0  0  0
  5 12  1  0  0  0  0
  5  1  1  0  0  0  0
  5  3  1  0  0  0  0
  8  9  1  0  0  0  0
  9  1  1  0  0  0  0
 10  6  1  6  0  0  0
 10  7  1  0  0  0  0
 10  2  1  0  0  0  0
 12 11  1  6  0  0  0
 12  3  1  0  0  0  0
 12  2  1  0  0  0  0
 14 13  1  6  0  0  0
 14 15  1  0  0  0  0
 14 20  1  0  0  0  0
 15 18  1  1  0  0  0
 15 16  1  0  0  0  0
 16 17  1  0  0  0  0
 18 19  2  0  0  0  0
 21 20  1  0  0  0  0
 21 22  1  0  0  0  0
 22 23  1  6  0  0  0
 22 24  1  0  0  0  0
 26 25  1  1  0  0  0
 27 26  1  0  0  0  0
 28 27  1  0  0  0  0
 28 30  1  0  0  0  0
 30 29  1  0  0  0  0
M  END
>  <MODEL>
9

>  <REMARK>
 VINA RESULT:      -3.2      4.229      8.316
  Name = 
  11 active torsions:
  status: ('A' for Active; 'I' for Inactive)
    1  A    between atoms: C_2  and  C_14
    2  A    between atoms: C_3  and  O_19
    3  A    between atoms: C_4  and  C_22
    4  A    between atoms: C_6  and  C_12
    5  A    between atoms: C_6  and  C_17
    6  A    between atoms: C_12  and  C_13
    7  A    between atoms: C_14  and  C_20
    8  A    between atoms: C_14  and  C_22
    9  A    between atoms: C_17  and  C_21
   10  A    between atoms: O_19  and  C_29
   11  A    between atoms: C_22  and  C_29
                            x       y       z     vdW  Elec       q    Type
                         _______ _______ _______ _____ _____    ______ ____

>  <TORSDO>
F 11

$$$$
