=
 OpenBabel10262420503D

 28 32  0  0  0  0  0  0  0  0999 V2000
  187.5200  178.3710  141.1300 N   0  0  0  0  0  0  0  0  0  0  0  0
  190.4460  177.1280  145.0080 C   0  0  0  0  0  3  0  0  0  0  0  0
  184.4670  178.6240  144.8270 C   0  0  0  0  0  1  0  0  0  0  0  0
  188.9160  177.2510  146.8940 C   0  0  0  0  0  0  0  0  0  0  0  0
  188.1070  177.7570  144.6510 C   0  0  0  0  0  0  0  0  0  0  0  0
  191.2290  176.6280  147.2460 C   0  0  0  0  0  0  0  0  0  0  0  0
  189.1590  177.3800  145.5060 C   0  0  0  0  0  0  0  0  0  0  0  0
  186.6000  177.8680  146.5550 C   0  0  0  0  0  3  0  0  0  0  0  0
  189.9500  176.8760  147.7540 C   0  0  0  0  0  3  0  0  0  0  0  0
  186.0550  178.4840  142.9710 C   0  0  0  0  0  0  0  0  0  0  0  0
  188.3070  177.8910  143.3150 N   0  0  0  0  0  0  0  0  0  0  0  0
  187.6400  177.4960  147.4070 C   0  0  0  0  0  3  0  0  0  0  0  0
  185.2840  178.9550  140.7860 C   0  0  0  0  0  3  0  0  0  0  0  0
  185.8120  178.3650  144.3160 N   0  0  0  0  0  0  0  0  0  0  0  0
  185.0540  178.8380  142.1160 N   0  0  0  0  0  0  0  0  0  0  0  0
  192.2300  176.2640  148.0830 F   0  0  0  0  0  0  0  0  0  0  0  0
  191.4760  176.7530  145.8760 C   0  0  0  0  0  3  0  0  0  0  0  0
  186.8190  178.0030  145.1720 C   0  0  0  0  0  0  0  0  0  0  0  0
  186.5280  178.7140  140.3070 N   0  0  0  0  0  0  0  0  0  0  0  0
  187.2970  178.2480  142.4750 C   0  0  0  0  0  0  0  0  0  0  0  0
  188.8360  178.1050  140.5590 C   0  0  0  0  0  2  0  0  0  0  0  0
  188.7300  177.8930  139.0860 C   0  0  0  0  0  0  0  0  0  0  0  0
  188.5850  177.4810  136.3230 C   0  0  0  0  0  0  0  0  0  0  0  0
  188.3390  176.6470  138.5840 C   0  0  0  0  0  3  0  0  0  0  0  0
  189.0570  178.9300  138.2050 C   0  0  0  0  0  3  0  0  0  0  0  0
  188.9820  178.7240  136.8240 C   0  0  0  0  0  3  0  0  0  0  0  0
  188.4910  177.2240  134.5940 Cl  0  0  0  0  0  0  0  0  0  0  0  0
  188.2640  176.4410  137.2020 C   0  0  0  0  0  3  0  0  0  0  0  0
  1 20  1  0  0  0  0
  2  7  2  0  0  0  0
  2 17  1  0  0  0  0
  4 12  1  0  0  0  0
  4  9  2  0  0  0  0
  5 18  2  0  0  0  0
  5  7  1  0  0  0  0
  6  9  1  0  0  0  0
  6 16  1  0  0  0  0
  7  4  1  0  0  0  0
  8 12  2  0  0  0  0
 10 14  1  0  0  0  0
 11  5  1  0  0  0  0
 13 15  1  0  0  0  0
 14  3  1  0  0  0  0
 14 18  1  0  0  0  0
 15 10  2  0  0  0  0
 17  6  2  0  0  0  0
 18  8  1  0  0  0  0
 19 13  2  0  0  0  0
 19  1  1  0  0  0  0
 20 10  1  0  0  0  0
 20 11  2  0  0  0  0
 21  1  1  0  0  0  0
 22 21  1  0  0  0  0
 23 26  2  0  0  0  0
 23 28  1  0  0  0  0
 24 22  1  0  0  0  0
 25 22  2  0  0  0  0
 26 25  1  0  0  0  0
 27 23  1  0  0  0  0
 28 24  2  0  0  0  0
M  END
>  <MODEL>
1

>  <REMARK>
 VINA RESULT:     -10.4      0.000      0.000
  Name = 
  2 active torsions:
  status: ('A' for Active; 'I' for Inactive)
    1  A    between atoms: N_1  and  C_2
    2  A    between atoms: C_2  and  C_3
                            x       y       z     vdW  Elec       q    Type
                         _______ _______ _______ _____ _____    ______ ____

>  <TORSDO>
F 2

$$$$
=
 OpenBabel10262420503D

 28 32  0  0  0  0  0  0  0  0999 V2000
  186.5180  178.5590  140.7500 N   0  0  0  0  0  0  0  0  0  0  0  0
  187.0310  178.1040  145.7170 C   0  0  0  0  0  3  0  0  0  0  0  0
  191.0150  176.9280  141.1610 C   0  0  0  0  0  1  0  0  0  0  0  0
  189.3070  177.2770  145.9470 C   0  0  0  0  0  0  0  0  0  0  0  0
  188.4020  177.7170  143.7260 C   0  0  0  0  0  0  0  0  0  0  0  0
  187.9500  177.6610  147.9150 C   0  0  0  0  0  0  0  0  0  0  0  0
  188.2370  177.7030  145.1230 C   0  0  0  0  0  0  0  0  0  0  0  0
  190.6740  176.8940  143.9870 C   0  0  0  0  0  3  0  0  0  0  0  0
  189.1570  177.2590  147.3350 C   0  0  0  0  0  3  0  0  0  0  0  0
  188.7190  177.7580  140.9950 C   0  0  0  0  0  0  0  0  0  0  0  0
  187.3960  178.1190  142.9080 N   0  0  0  0  0  0  0  0  0  0  0  0
  190.5150  176.8750  145.3730 C   0  0  0  0  0  3  0  0  0  0  0  0
  187.8320  178.2060  138.8500 C   0  0  0  0  0  3  0  0  0  0  0  0
  189.7590  177.3400  141.7860 N   0  0  0  0  0  0  0  0  0  0  0  0
  188.8520  177.7910  139.6390 N   0  0  0  0  0  0  0  0  0  0  0  0
  187.8080  177.6430  149.2620 F   0  0  0  0  0  0  0  0  0  0  0  0
  186.8900  178.0830  147.1080 C   0  0  0  0  0  3  0  0  0  0  0  0
  189.6250  177.3120  143.1500 C   0  0  0  0  0  0  0  0  0  0  0  0
  186.6670  178.5910  139.4240 N   0  0  0  0  0  0  0  0  0  0  0  0
  187.5440  178.1440  141.5550 C   0  0  0  0  0  0  0  0  0  0  0  0
  185.2480  179.0010  141.3170 C   0  0  0  0  0  2  0  0  0  0  0  0
  184.1230  178.6630  140.3980 C   0  0  0  0  0  0  0  0  0  0  0  0
  181.9780  178.0530  138.7100 C   0  0  0  0  0  0  0  0  0  0  0  0
  183.7470  179.5600  139.3920 C   0  0  0  0  0  3  0  0  0  0  0  0
  183.4200  177.4650  140.5640 C   0  0  0  0  0  3  0  0  0  0  0  0
  182.3490  177.1590  139.7190 C   0  0  0  0  0  3  0  0  0  0  0  0
  180.6370  177.6690  137.6520 Cl  0  0  0  0  0  0  0  0  0  0  0  0
  182.6750  179.2530  138.5460 C   0  0  0  0  0  3  0  0  0  0  0  0
  1 21  1  0  0  0  0
  1 20  1  0  0  0  0
  2 17  1  0  0  0  0
  3 14  1  0  0  0  0
  4  9  2  0  0  0  0
  5  7  1  0  0  0  0
  6 16  1  0  0  0  0
  7  2  2  0  0  0  0
  7  4  1  0  0  0  0
  8 12  2  0  0  0  0
  9  6  1  0  0  0  0
 10 20  1  0  0  0  0
 10 14  1  0  0  0  0
 11  5  1  0  0  0  0
 12  4  1  0  0  0  0
 13 19  2  0  0  0  0
 13 15  1  0  0  0  0
 14 18  1  0  0  0  0
 15 10  2  0  0  0  0
 17  6  2  0  0  0  0
 18  5  2  0  0  0  0
 18  8  1  0  0  0  0
 19  1  1  0  0  0  0
 20 11  2  0  0  0  0
 22 25  1  0  0  0  0
 22 21  1  0  0  0  0
 23 26  1  0  0  0  0
 24 22  2  0  0  0  0
 26 25  2  0  0  0  0
 27 23  1  0  0  0  0
 28 23  2  0  0  0  0
 28 24  1  0  0  0  0
M  END
>  <MODEL>
2

>  <REMARK>
 VINA RESULT:     -10.1      2.504      4.553
  Name = 
  2 active torsions:
  status: ('A' for Active; 'I' for Inactive)
    1  A    between atoms: N_1  and  C_2
    2  A    between atoms: C_2  and  C_3
                            x       y       z     vdW  Elec       q    Type
                         _______ _______ _______ _____ _____    ______ ____

>  <TORSDO>
F 2

$$$$
=
 OpenBabel10262420503D

 28 32  0  0  0  0  0  0  0  0999 V2000
  189.9090  176.9880  142.4120 N   0  0  0  0  0  0  0  0  0  0  0  0
  185.1230  178.4320  142.8060 C   0  0  0  0  0  3  0  0  0  0  0  0
  189.2860  177.1540  147.1700 C   0  0  0  0  0  1  0  0  0  0  0  0
  184.7880  178.5230  145.2120 C   0  0  0  0  0  0  0  0  0  0  0  0
  186.9590  177.8650  144.3220 C   0  0  0  0  0  0  0  0  0  0  0  0
  182.9720  179.0840  143.7110 C   0  0  0  0  0  0  0  0  0  0  0  0
  185.6300  178.2710  144.1030 C   0  0  0  0  0  0  0  0  0  0  0  0
  186.5950  177.9680  146.7230 C   0  0  0  0  0  3  0  0  0  0  0  0
  183.4660  178.9270  145.0100 C   0  0  0  0  0  3  0  0  0  0  0  0
  189.5620  177.0810  144.7400 C   0  0  0  0  0  0  0  0  0  0  0  0
  187.7930  177.6150  143.2810 N   0  0  0  0  0  0  0  0  0  0  0  0
  185.2750  178.3690  146.5120 C   0  0  0  0  0  3  0  0  0  0  0  0
  191.6670  176.4630  143.8590 C   0  0  0  0  0  3  0  0  0  0  0  0
  188.7500  177.3200  145.8200 N   0  0  0  0  0  0  0  0  0  0  0  0
  190.8570  176.6960  144.9200 N   0  0  0  0  0  0  0  0  0  0  0  0
  181.6900  179.4770  143.5180 F   0  0  0  0  0  0  0  0  0  0  0  0
  183.7990  178.8380  142.6110 C   0  0  0  0  0  3  0  0  0  0  0  0
  187.4500  177.7120  145.6360 C   0  0  0  0  0  0  0  0  0  0  0  0
  191.1750  176.6160  142.6060 N   0  0  0  0  0  0  0  0  0  0  0  0
  189.0840  177.2280  143.4770 C   0  0  0  0  0  0  0  0  0  0  0  0
  189.4360  177.1550  141.0420 C   0  0  0  0  0  2  0  0  0  0  0  0
  190.5390  176.8830  140.0740 C   0  0  0  0  0  0  0  0  0  0  0  0
  192.5900  176.4170  138.2310 C   0  0  0  0  0  0  0  0  0  0  0  0
  191.8030  177.4480  140.2760 C   0  0  0  0  0  3  0  0  0  0  0  0
  190.2990  176.0920  138.9450 C   0  0  0  0  0  3  0  0  0  0  0  0
  191.3250  175.8580  138.0250 C   0  0  0  0  0  3  0  0  0  0  0  0
  193.8750  176.1230  137.0790 Cl  0  0  0  0  0  0  0  0  0  0  0  0
  192.8300  177.2130  139.3560 C   0  0  0  0  0  3  0  0  0  0  0  0
  1 19  1  0  0  0  0
  1 20  1  0  0  0  0
  2  7  1  0  0  0  0
  4 12  1  0  0  0  0
  5 18  2  0  0  0  0
  6  9  2  0  0  0  0
  7  5  1  0  0  0  0
  7  4  2  0  0  0  0
  9  4  1  0  0  0  0
 10 15  2  0  0  0  0
 10 14  1  0  0  0  0
 11 20  2  0  0  0  0
 11  5  1  0  0  0  0
 12  8  2  0  0  0  0
 13 15  1  0  0  0  0
 14  3  1  0  0  0  0
 16  6  1  0  0  0  0
 17  2  2  0  0  0  0
 17  6  1  0  0  0  0
 18 14  1  0  0  0  0
 18  8  1  0  0  0  0
 19 13  2  0  0  0  0
 20 10  1  0  0  0  0
 21  1  1  0  0  0  0
 22 24  1  0  0  0  0
 22 21  1  0  0  0  0
 23 28  1  0  0  0  0
 25 22  2  0  0  0  0
 26 23  2  0  0  0  0
 26 25  1  0  0  0  0
 27 23  1  0  0  0  0
 28 24  2  0  0  0  0
M  END
>  <MODEL>
3

>  <REMARK>
 VINA RESULT:     -10.1      3.267      5.269
  Name = 
  2 active torsions:
  status: ('A' for Active; 'I' for Inactive)
    1  A    between atoms: N_1  and  C_2
    2  A    between atoms: C_2  and  C_3
                            x       y       z     vdW  Elec       q    Type
                         _______ _______ _______ _____ _____    ______ ____

>  <TORSDO>
F 2

$$$$
=
 OpenBabel10262420503D

 28 32  0  0  0  0  0  0  0  0999 V2000
  189.6630  177.7800  139.4940 N   0  0  0  0  0  0  0  0  0  0  0  0
  189.5500  177.2510  144.4800 C   0  0  0  0  0  3  0  0  0  0  0  0
  185.1080  178.8910  140.5310 C   0  0  0  0  0  1  0  0  0  0  0  0
  187.2470  177.8100  145.0250 C   0  0  0  0  0  0  0  0  0  0  0  0
  187.9860  177.8770  142.7040 C   0  0  0  0  0  0  0  0  0  0  0  0
  188.7950  177.1900  146.7810 C   0  0  0  0  0  0  0  0  0  0  0  0
  188.2710  177.6450  144.0610 C   0  0  0  0  0  0  0  0  0  0  0  0
  185.6900  178.4270  143.2790 C   0  0  0  0  0  3  0  0  0  0  0  0
  187.5150  177.5820  146.3770 C   0  0  0  0  0  3  0  0  0  0  0  0
  187.4370  178.3190  140.0450 C   0  0  0  0  0  0  0  0  0  0  0  0
  188.9450  177.7280  141.7540 N   0  0  0  0  0  0  0  0  0  0  0  0
  185.9670  178.2000  144.6280 C   0  0  0  0  0  3  0  0  0  0  0  0
  188.1660  178.3610  137.7970 C   0  0  0  0  0  3  0  0  0  0  0  0
  186.4410  178.4850  140.9740 N   0  0  0  0  0  0  0  0  0  0  0  0
  187.1900  178.5270  138.7220 N   0  0  0  0  0  0  0  0  0  0  0  0
  189.0520  176.9690  148.0930 F   0  0  0  0  0  0  0  0  0  0  0  0
  189.8100  177.0240  145.8350 C   0  0  0  0  0  3  0  0  0  0  0  0
  186.6910  178.2690  142.3040 C   0  0  0  0  0  0  0  0  0  0  0  0
  189.4030  177.9840  138.2020 N   0  0  0  0  0  0  0  0  0  0  0  0
  188.6820  177.9430  140.4360 C   0  0  0  0  0  0  0  0  0  0  0  0
  191.0070  177.3570  139.8740 C   0  0  0  0  0  2  0  0  0  0  0  0
  191.5950  176.4850  138.8170 C   0  0  0  0  0  0  0  0  0  0  0  0
  192.7230  174.8200  136.8730 C   0  0  0  0  0  0  0  0  0  0  0  0
  190.8820  175.3790  138.3430 C   0  0  0  0  0  3  0  0  0  0  0  0
  192.8770  176.7530  138.3230 C   0  0  0  0  0  3  0  0  0  0  0  0
  193.4400  175.9210  137.3500 C   0  0  0  0  0  3  0  0  0  0  0  0
  193.4280  173.7790  135.6550 Cl  0  0  0  0  0  0  0  0  0  0  0  0
  191.4450  174.5470  137.3690 C   0  0  0  0  0  3  0  0  0  0  0  0
  1 21  1  0  0  0  0
  1 20  1  0  0  0  0
  2 17  1  0  0  0  0
  3 14  1  0  0  0  0
  4  9  2  0  0  0  0
  5  7  1  0  0  0  0
  6 16  1  0  0  0  0
  7  2  2  0  0  0  0
  7  4  1  0  0  0  0
  8 12  2  0  0  0  0
  9  6  1  0  0  0  0
 10 20  1  0  0  0  0
 10 14  1  0  0  0  0
 11  5  1  0  0  0  0
 12  4  1  0  0  0  0
 13 19  2  0  0  0  0
 13 15  1  0  0  0  0
 14 18  1  0  0  0  0
 15 10  2  0  0  0  0
 17  6  2  0  0  0  0
 18  5  2  0  0  0  0
 18  8  1  0  0  0  0
 19  1  1  0  0  0  0
 20 11  2  0  0  0  0
 22 21  1  0  0  0  0
 23 26  2  0  0  0  0
 23 28  1  0  0  0  0
 24 22  1  0  0  0  0
 25 22  2  0  0  0  0
 26 25  1  0  0  0  0
 27 23  1  0  0  0  0
 28 24  2  0  0  0  0
M  END
>  <MODEL>
4

>  <REMARK>
 VINA RESULT:      -9.9      2.607      3.410
  Name = 
  2 active torsions:
  status: ('A' for Active; 'I' for Inactive)
    1  A    between atoms: N_1  and  C_2
    2  A    between atoms: C_2  and  C_3
                            x       y       z     vdW  Elec       q    Type
                         _______ _______ _______ _____ _____    ______ ____

>  <TORSDO>
F 2

$$$$
=
 OpenBabel10262420503D

 28 32  0  0  0  0  0  0  0  0999 V2000
  189.8420  177.7770  140.7630 N   0  0  0  0  0  0  0  0  0  0  0  0
  185.5690  178.5430  143.2740 C   0  0  0  0  0  3  0  0  0  0  0  0
  191.1310  176.8000  145.2840 C   0  0  0  0  0  1  0  0  0  0  0  0
  186.2020  178.0520  145.5700 C   0  0  0  0  0  0  0  0  0  0  0  0
  187.8620  177.8620  143.7950 C   0  0  0  0  0  0  0  0  0  0  0  0
  183.9350  178.7260  145.0540 C   0  0  0  0  0  0  0  0  0  0  0  0
  186.5470  178.1530  144.2010 C   0  0  0  0  0  0  0  0  0  0  0  0
  188.4660  177.3820  146.1000 C   0  0  0  0  0  3  0  0  0  0  0  0
  184.9000  178.3390  145.9870 C   0  0  0  0  0  3  0  0  0  0  0  0
  190.4340  177.3060  142.9940 C   0  0  0  0  0  0  0  0  0  0  0  0
  188.2260  177.9490  142.4900 N   0  0  0  0  0  0  0  0  0  0  0  0
  187.1630  177.6670  146.5080 C   0  0  0  0  0  3  0  0  0  0  0  0
  192.0350  177.1440  141.2620 C   0  0  0  0  0  3  0  0  0  0  0  0
  190.1060  177.2020  144.3220 N   0  0  0  0  0  0  0  0  0  0  0  0
  191.7010  177.0400  142.5710 N   0  0  0  0  0  0  0  0  0  0  0  0
  182.6730  179.0040  145.4610 F   0  0  0  0  0  0  0  0  0  0  0  0
  184.2680  178.8280  143.7000 C   0  0  0  0  0  3  0  0  0  0  0  0
  188.8310  177.4750  144.7450 C   0  0  0  0  0  0  0  0  0  0  0  0
  191.0890  177.5180  140.3670 N   0  0  0  0  0  0  0  0  0  0  0  0
  189.4960  177.6770  142.0840 C   0  0  0  0  0  0  0  0  0  0  0  0
  188.8670  178.1930  139.7600 C   0  0  0  0  0  2  0  0  0  0  0  0
  189.0780  177.4430  138.4880 C   0  0  0  0  0  0  0  0  0  0  0  0
  189.4210  176.0390  136.0930 C   0  0  0  0  0  0  0  0  0  0  0  0
  189.3860  178.1330  137.3100 C   0  0  0  0  0  3  0  0  0  0  0  0
  188.9340  176.0510  138.4650 C   0  0  0  0  0  3  0  0  0  0  0  0
  189.1070  175.3490  137.2680 C   0  0  0  0  0  3  0  0  0  0  0  0
  189.6370  175.1600  134.5940 Cl  0  0  0  0  0  0  0  0  0  0  0  0
  189.5590  177.4300  136.1130 C   0  0  0  0  0  3  0  0  0  0  0  0
  1 20  1  0  0  0  0
  2 17  2  0  0  0  0
  2  7  1  0  0  0  0
  4  9  1  0  0  0  0
  4 12  1  0  0  0  0
  5  7  1  0  0  0  0
  5 18  2  0  0  0  0
  6 16  1  0  0  0  0
  6  9  2  0  0  0  0
  7  4  2  0  0  0  0
  8 12  2  0  0  0  0
 10 14  1  0  0  0  0
 11  5  1  0  0  0  0
 13 15  1  0  0  0  0
 14 18  1  0  0  0  0
 14  3  1  0  0  0  0
 15 10  2  0  0  0  0
 17  6  1  0  0  0  0
 18  8  1  0  0  0  0
 19  1  1  0  0  0  0
 19 13  2  0  0  0  0
 20 11  2  0  0  0  0
 20 10  1  0  0  0  0
 21  1  1  0  0  0  0
 22 21  1  0  0  0  0
 23 28  2  0  0  0  0
 23 26  1  0  0  0  0
 24 22  2  0  0  0  0
 25 22  1  0  0  0  0
 26 25  2  0  0  0  0
 27 23  1  0  0  0  0
 28 24  1  0  0  0  0
M  END
>  <MODEL>
5

>  <REMARK>
 VINA RESULT:      -9.7      2.569      4.533
  Name = 
  2 active torsions:
  status: ('A' for Active; 'I' for Inactive)
    1  A    between atoms: N_1  and  C_2
    2  A    between atoms: C_2  and  C_3
                            x       y       z     vdW  Elec       q    Type
                         _______ _______ _______ _____ _____    ______ ____

>  <TORSDO>
F 2

$$$$
=
 OpenBabel10262420503D

 28 32  0  0  0  0  0  0  0  0999 V2000
  186.0160  178.6430  139.1320 N   0  0  0  0  0  0  0  0  0  0  0  0
  185.0020  178.5460  144.0420 C   0  0  0  0  0  3  0  0  0  0  0  0
  190.1910  177.1850  141.0020 C   0  0  0  0  0  1  0  0  0  0  0  0
  187.1080  177.8080  145.0090 C   0  0  0  0  0  0  0  0  0  0  0  0
  186.9150  178.0660  142.5930 C   0  0  0  0  0  0  0  0  0  0  0  0
  185.2150  178.2830  146.4410 C   0  0  0  0  0  0  0  0  0  0  0  0
  186.3340  178.1430  143.8710 C   0  0  0  0  0  0  0  0  0  0  0  0
  189.0080  177.3340  143.5880 C   0  0  0  0  0  3  0  0  0  0  0  0
  186.5440  177.8810  146.2850 C   0  0  0  0  0  3  0  0  0  0  0  0
  188.0460  177.9290  140.0890 C   0  0  0  0  0  0  0  0  0  0  0  0
  186.2010  178.3800  141.4810 N   0  0  0  0  0  0  0  0  0  0  0  0
  188.4360  177.4060  144.8590 C   0  0  0  0  0  3  0  0  0  0  0  0
  187.8470  178.2020  137.7490 C   0  0  0  0  0  3  0  0  0  0  0  0
  188.8000  177.5990  141.1870 N   0  0  0  0  0  0  0  0  0  0  0  0
  188.5830  177.8740  138.8380 N   0  0  0  0  0  0  0  0  0  0  0  0
  184.6700  178.3530  147.6800 F   0  0  0  0  0  0  0  0  0  0  0  0
  184.4450  178.6160  145.3230 C   0  0  0  0  0  3  0  0  0  0  0  0
  188.2590  177.6610  142.4440 C   0  0  0  0  0  0  0  0  0  0  0  0
  186.5590  178.5890  137.9150 N   0  0  0  0  0  0  0  0  0  0  0  0
  186.7530  178.3170  140.2380 C   0  0  0  0  0  0  0  0  0  0  0  0
  184.6300  179.0830  139.2550 C   0  0  0  0  0  2  0  0  0  0  0  0
  183.6990  177.9680  138.9150 C   0  0  0  0  0  0  0  0  0  0  0  0
  181.9110  175.9100  138.2900 C   0  0  0  0  0  0  0  0  0  0  0  0
  183.2800  177.7820  137.5930 C   0  0  0  0  0  3  0  0  0  0  0  0
  183.2150  177.1300  139.9250 C   0  0  0  0  0  3  0  0  0  0  0  0
  182.3230  176.1000  139.6130 C   0  0  0  0  0  3  0  0  0  0  0  0
  180.7930  174.6200  137.8980 Cl  0  0  0  0  0  0  0  0  0  0  0  0
  182.3880  176.7510  137.2800 C   0  0  0  0  0  3  0  0  0  0  0  0
  1 21  1  0  0  0  0
  1 20  1  0  0  0  0
  2 17  1  0  0  0  0
  3 14  1  0  0  0  0
  4  9  2  0  0  0  0
  5  7  1  0  0  0  0
  6 16  1  0  0  0  0
  7  2  2  0  0  0  0
  7  4  1  0  0  0  0
  8 12  2  0  0  0  0
  9  6  1  0  0  0  0
 10 20  1  0  0  0  0
 10 14  1  0  0  0  0
 11  5  1  0  0  0  0
 12  4  1  0  0  0  0
 13 19  2  0  0  0  0
 13 15  1  0  0  0  0
 14 18  1  0  0  0  0
 15 10  2  0  0  0  0
 17  6  2  0  0  0  0
 18  5  2  0  0  0  0
 18  8  1  0  0  0  0
 19  1  1  0  0  0  0
 20 11  2  0  0  0  0
 22 21  1  0  0  0  0
 22 25  1  0  0  0  0
 23 26  1  0  0  0  0
 24 22  2  0  0  0  0
 26 25  2  0  0  0  0
 27 23  1  0  0  0  0
 28 24  1  0  0  0  0
 28 23  2  0  0  0  0
M  END
>  <MODEL>
6

>  <REMARK>
 VINA RESULT:      -9.6      3.151      5.142
  Name = 
  2 active torsions:
  status: ('A' for Active; 'I' for Inactive)
    1  A    between atoms: N_1  and  C_2
    2  A    between atoms: C_2  and  C_3
                            x       y       z     vdW  Elec       q    Type
                         _______ _______ _______ _____ _____    ______ ____

>  <TORSDO>
F 2

$$$$
=
 OpenBabel10262420503D

 28 32  0  0  0  0  0  0  0  0999 V2000
  189.2830  177.9180  139.3660 N   0  0  0  0  0  0  0  0  0  0  0  0
  185.4420  178.6870  142.4970 C   0  0  0  0  0  3  0  0  0  0  0  0
  191.0970  176.4780  143.5720 C   0  0  0  0  0  1  0  0  0  0  0  0
  186.3420  177.9630  144.6360 C   0  0  0  0  0  0  0  0  0  0  0  0
  187.7340  177.8410  142.6390 C   0  0  0  0  0  0  0  0  0  0  0  0
  184.0750  178.7990  144.4940 C   0  0  0  0  0  0  0  0  0  0  0  0
  186.5070  178.1650  143.2450 C   0  0  0  0  0  0  0  0  0  0  0  0
  188.6080  177.1280  144.7920 C   0  0  0  0  0  3  0  0  0  0  0  0
  185.1290  178.2800  145.2520 C   0  0  0  0  0  3  0  0  0  0  0  0
  190.1350  177.2210  141.4480 C   0  0  0  0  0  0  0  0  0  0  0  0
  187.9260  178.0230  141.3080 N   0  0  0  0  0  0  0  0  0  0  0  0
  187.3920  177.4450  145.3980 C   0  0  0  0  0  3  0  0  0  0  0  0
  191.4770  177.1270  139.5050 C   0  0  0  0  0  3  0  0  0  0  0  0
  189.9810  177.0180  142.7970 N   0  0  0  0  0  0  0  0  0  0  0  0
  191.3150  176.9260  140.8350 N   0  0  0  0  0  0  0  0  0  0  0  0
  182.8990  179.1070  145.0940 F   0  0  0  0  0  0  0  0  0  0  0  0
  184.2300  179.0030  143.1200 C   0  0  0  0  0  3  0  0  0  0  0  0
  188.7940  177.3210  143.4120 C   0  0  0  0  0  0  0  0  0  0  0  0
  190.4460  177.6290  138.7820 N   0  0  0  0  0  0  0  0  0  0  0  0
  189.1100  177.7210  140.7100 C   0  0  0  0  0  0  0  0  0  0  0  0
  188.2120  178.4720  138.5440 C   0  0  0  0  0  2  0  0  0  0  0  0
  187.4050  177.3760  137.9340 C   0  0  0  0  0  0  0  0  0  0  0  0
  185.8840  175.2990  136.8410 C   0  0  0  0  0  0  0  0  0  0  0  0
  186.0300  177.5440  137.7360 C   0  0  0  0  0  3  0  0  0  0  0  0
  188.0160  176.1640  137.5940 C   0  0  0  0  0  3  0  0  0  0  0  0
  187.2570  175.1270  137.0450 C   0  0  0  0  0  3  0  0  0  0  0  0
  184.9330  173.9990  136.1540 Cl  0  0  0  0  0  0  0  0  0  0  0  0
  185.2700  176.5060  137.1860 C   0  0  0  0  0  3  0  0  0  0  0  0
  1 20  1  0  0  0  0
  2 17  2  0  0  0  0
  2  7  1  0  0  0  0
  4  9  1  0  0  0  0
  4 12  1  0  0  0  0
  5  7  1  0  0  0  0
  5 18  2  0  0  0  0
  6 16  1  0  0  0  0
  6  9  2  0  0  0  0
  7  4  2  0  0  0  0
  8 12  2  0  0  0  0
 10 14  1  0  0  0  0
 11  5  1  0  0  0  0
 13 15  1  0  0  0  0
 14 18  1  0  0  0  0
 14  3  1  0  0  0  0
 15 10  2  0  0  0  0
 17  6  1  0  0  0  0
 18  8  1  0  0  0  0
 19  1  1  0  0  0  0
 19 13  2  0  0  0  0
 20 11  2  0  0  0  0
 20 10  1  0  0  0  0
 21  1  1  0  0  0  0
 22 21  1  0  0  0  0
 23 26  2  0  0  0  0
 23 28  1  0  0  0  0
 24 22  1  0  0  0  0
 25 22  2  0  0  0  0
 26 25  1  0  0  0  0
 27 23  1  0  0  0  0
 28 24  2  0  0  0  0
M  END
>  <MODEL>
7

>  <REMARK>
 VINA RESULT:      -9.5      2.826      4.815
  Name = 
  2 active torsions:
  status: ('A' for Active; 'I' for Inactive)
    1  A    between atoms: N_1  and  C_2
    2  A    between atoms: C_2  and  C_3
                            x       y       z     vdW  Elec       q    Type
                         _______ _______ _______ _____ _____    ______ ____

>  <TORSDO>
F 2

$$$$
=
 OpenBabel10262420503D

 28 32  0  0  0  0  0  0  0  0999 V2000
  183.8660  178.6210  141.9630 N   0  0  0  0  0  0  0  0  0  0  0  0
  188.7450  177.4680  142.0680 C   0  0  0  0  0  3  0  0  0  0  0  0
  184.7550  178.3950  146.6760 C   0  0  0  0  0  1  0  0  0  0  0  0
  189.2160  177.3490  144.4510 C   0  0  0  0  0  0  0  0  0  0  0  0
  186.9630  177.8890  143.6920 C   0  0  0  0  0  0  0  0  0  0  0  0
  190.9780  176.9320  142.8430 C   0  0  0  0  0  0  0  0  0  0  0  0
  188.3000  177.5710  143.3940 C   0  0  0  0  0  0  0  0  0  0  0  0
  187.4620  177.7590  146.0680 C   0  0  0  0  0  3  0  0  0  0  0  0
  190.5470  177.0320  144.1690 C   0  0  0  0  0  3  0  0  0  0  0  0
  184.3440  178.5010  144.2660 C   0  0  0  0  0  0  0  0  0  0  0  0
  186.0600  178.1080  142.7030 N   0  0  0  0  0  0  0  0  0  0  0  0
  188.7910  177.4460  145.7780 C   0  0  0  0  0  3  0  0  0  0  0  0
  182.1610  179.0060  143.5130 C   0  0  0  0  0  3  0  0  0  0  0  0
  185.2260  178.2910  145.2960 N   0  0  0  0  0  0  0  0  0  0  0  0
  183.0400  178.8010  144.5230 N   0  0  0  0  0  0  0  0  0  0  0  0
  192.2690  176.6240  142.5730 F   0  0  0  0  0  0  0  0  0  0  0  0
  190.0790  177.1490  141.7950 C   0  0  0  0  0  3  0  0  0  0  0  0
  186.5360  177.9840  145.0340 C   0  0  0  0  0  0  0  0  0  0  0  0
  182.5920  178.9090  142.2320 N   0  0  0  0  0  0  0  0  0  0  0  0
  184.7610  178.4100  142.9770 C   0  0  0  0  0  0  0  0  0  0  0  0
  184.2730  178.5120  140.5660 C   0  0  0  0  0  2  0  0  0  0  0  0
  183.1710  177.9280  139.7470 C   0  0  0  0  0  0  0  0  0  0  0  0
  181.1410  176.8220  138.1730 C   0  0  0  0  0  0  0  0  0  0  0  0
  182.8130  176.5860  139.9090 C   0  0  0  0  0  3  0  0  0  0  0  0
  182.5190  178.7150  138.7910 C   0  0  0  0  0  3  0  0  0  0  0  0
  181.5030  178.1630  138.0060 C   0  0  0  0  0  3  0  0  0  0  0  0
  179.8680  176.1310  137.1900 Cl  0  0  0  0  0  0  0  0  0  0  0  0
  181.7950  176.0330  139.1240 C   0  0  0  0  0  3  0  0  0  0  0  0
  1 19  1  0  0  0  0
  1 20  1  0  0  0  0
  2  7  1  0  0  0  0
  4 12  1  0  0  0  0
  5 18  2  0  0  0  0
  6  9  2  0  0  0  0
  7  5  1  0  0  0  0
  7  4  2  0  0  0  0
  9  4  1  0  0  0  0
 10 15  2  0  0  0  0
 10 14  1  0  0  0  0
 11 20  2  0  0  0  0
 11  5  1  0  0  0  0
 12  8  2  0  0  0  0
 13 15  1  0  0  0  0
 14  3  1  0  0  0  0
 16  6  1  0  0  0  0
 17  2  2  0  0  0  0
 17  6  1  0  0  0  0
 18 14  1  0  0  0  0
 18  8  1  0  0  0  0
 19 13  2  0  0  0  0
 20 10  1  0  0  0  0
 21  1  1  0  0  0  0
 22 24  1  0  0  0  0
 22 21  1  0  0  0  0
 23 28  1  0  0  0  0
 25 22  2  0  0  0  0
 26 23  2  0  0  0  0
 26 25  1  0  0  0  0
 27 23  1  0  0  0  0
 28 24  2  0  0  0  0
M  END
>  <MODEL>
8

>  <REMARK>
 VINA RESULT:      -9.2      3.215      4.500
  Name = 
  2 active torsions:
  status: ('A' for Active; 'I' for Inactive)
    1  A    between atoms: N_1  and  C_2
    2  A    between atoms: C_2  and  C_3
                            x       y       z     vdW  Elec       q    Type
                         _______ _______ _______ _____ _____    ______ ____

>  <TORSDO>
F 2

$$$$
=
 OpenBabel10262420503D

 28 32  0  0  0  0  0  0  0  0999 V2000
  188.9390  177.6280  140.6390 N   0  0  0  0  0  0  0  0  0  0  0  0
  184.3330  178.5510  142.3950 C   0  0  0  0  0  3  0  0  0  0  0  0
  189.5950  177.3840  145.3890 C   0  0  0  0  0  1  0  0  0  0  0  0
  184.6450  178.4320  144.8040 C   0  0  0  0  0  0  0  0  0  0  0  0
  186.5450  178.0630  143.3220 C   0  0  0  0  0  0  0  0  0  0  0  0
  182.4580  178.9160  143.8850 C   0  0  0  0  0  0  0  0  0  0  0  0
  185.1790  178.3470  143.4960 C   0  0  0  0  0  0  0  0  0  0  0  0
  186.8270  177.9530  145.7340 C   0  0  0  0  0  3  0  0  0  0  0  0
  183.2900  178.7150  144.9900 C   0  0  0  0  0  3  0  0  0  0  0  0
  189.2180  177.5160  142.9750 C   0  0  0  0  0  0  0  0  0  0  0  0
  187.0890  177.9740  142.0820 N   0  0  0  0  0  0  0  0  0  0  0  0
  185.4720  178.2330  145.9120 C   0  0  0  0  0  3  0  0  0  0  0  0
  191.0540  177.1780  141.5240 C   0  0  0  0  0  3  0  0  0  0  0  0
  188.7070  177.5920  144.2460 N   0  0  0  0  0  0  0  0  0  0  0  0
  190.5400  177.2510  142.7760 N   0  0  0  0  0  0  0  0  0  0  0  0
  181.1440  179.1910  144.0690 F   0  0  0  0  0  0  0  0  0  0  0  0
  182.9780  178.8350  142.5900 C   0  0  0  0  0  3  0  0  0  0  0  0
  187.3790  177.8640  144.4440 C   0  0  0  0  0  0  0  0  0  0  0  0
  190.2360  177.3720  140.4620 N   0  0  0  0  0  0  0  0  0  0  0  0
  188.4110  177.7060  141.9000 C   0  0  0  0  0  0  0  0  0  0  0  0
  188.1060  177.8460  139.4600 C   0  0  0  0  0  2  0  0  0  0  0  0
  188.6960  177.1600  138.2740 C   0  0  0  0  0  0  0  0  0  0  0  0
  189.7500  175.8680  136.0290 C   0  0  0  0  0  0  0  0  0  0  0  0
  189.1080  177.9080  137.1650 C   0  0  0  0  0  3  0  0  0  0  0  0
  188.8030  175.7650  138.2550 C   0  0  0  0  0  3  0  0  0  0  0  0
  189.3320  175.1200  137.1330 C   0  0  0  0  0  3  0  0  0  0  0  0
  190.4130  175.0600  134.6240 Cl  0  0  0  0  0  0  0  0  0  0  0  0
  189.6380  177.2620  136.0430 C   0  0  0  0  0  3  0  0  0  0  0  0
  1 20  1  0  0  0  0
  2 17  2  0  0  0  0
  2  7  1  0  0  0  0
  4  9  1  0  0  0  0
  4 12  1  0  0  0  0
  5  7  1  0  0  0  0
  5 18  2  0  0  0  0
  6 16  1  0  0  0  0
  6  9  2  0  0  0  0
  7  4  2  0  0  0  0
  8 12  2  0  0  0  0
 10 14  1  0  0  0  0
 11  5  1  0  0  0  0
 13 15  1  0  0  0  0
 14 18  1  0  0  0  0
 14  3  1  0  0  0  0
 15 10  2  0  0  0  0
 17  6  1  0  0  0  0
 18  8  1  0  0  0  0
 19  1  1  0  0  0  0
 19 13  2  0  0  0  0
 20 11  2  0  0  0  0
 20 10  1  0  0  0  0
 21  1  1  0  0  0  0
 22 21  1  0  0  0  0
 23 28  2  0  0  0  0
 23 26  1  0  0  0  0
 24 22  2  0  0  0  0
 25 22  1  0  0  0  0
 26 25  2  0  0  0  0
 27 23  1  0  0  0  0
 28 24  1  0  0  0  0
M  END
>  <MODEL>
9

>  <REMARK>
 VINA RESULT:      -9.1      2.809      4.915
  Name = 
  2 active torsions:
  status: ('A' for Active; 'I' for Inactive)
    1  A    between atoms: N_1  and  C_2
    2  A    between atoms: C_2  and  C_3
                            x       y       z     vdW  Elec       q    Type
                         _______ _______ _______ _____ _____    ______ ____

>  <TORSDO>
F 2

$$$$
