=
 OpenBabel10262419133D

 34 39  0  0  1  0  0  0  0  0999 V2000
  187.8550  177.5080  146.7740 C   0  0  2  0  0  3  0  0  0  0  0  0
  184.5740  178.2980  147.3080 O   0  0  0  0  0  1  0  0  0  0  0  0
  182.2640  178.6470  141.2770 C   0  0  0  0  0  3  0  0  0  0  0  0
  186.7290  177.8780  144.5800 C   0  0  0  0  0  0  0  0  0  0  0  0
  185.8410  178.3270  142.3600 C   0  0  0  0  0  0  0  0  0  0  0  0
  186.6940  178.7730  148.0840 O   0  0  0  0  0  0  0  0  0  0  0  0
  185.8580  178.6990  146.9380 C   0  0  0  0  0  0  0  0  0  0  0  0
  184.2380  178.2800  144.3070 C   0  0  0  0  0  2  0  0  0  0  0  0
  181.0830  178.7500  141.7970 N   0  0  0  0  0  0  0  0  0  0  0  0
  186.5460  177.6240  146.0730 C   0  0  2  0  0  3  0  0  0  0  0  0
  183.3530  179.1930  143.4750 C   0  0  0  0  0  2  0  0  0  0  0  0
  184.7390  178.7430  141.4210 C   0  0  0  0  0  2  0  0  0  0  0  0
  187.8930  178.1340  147.8970 N   0  0  0  0  0  2  0  0  0  0  0  0
  187.9890  177.5910  143.9840 C   0  0  0  0  0  0  0  0  0  0  0  0
  189.0510  177.0510  146.0850 C   0  0  0  0  0  3  0  0  0  0  0  0
  185.8170  179.9440  146.3060 O   0  0  0  0  0  1  0  0  0  0  0  0
  187.0720  178.1090  141.8380 N   0  0  0  0  0  0  0  0  0  0  0  0
  188.1470  177.7440  142.5880 C   0  0  0  0  0  0  0  0  0  0  0  0
  183.4380  178.7850  142.0790 N   0  0  0  0  0  0  0  0  0  0  0  0
  185.6350  178.2060  143.7490 C   0  0  0  0  0  0  0  0  0  0  0  0
  189.0800  177.0910  144.7870 N   0  0  0  0  0  0  0  0  0  0  0  0
  190.6750  176.9970  139.8880 N   0  0  0  0  0  0  0  0  0  0  0  0
  191.9600  177.4210  140.4460 C   0  0  0  0  0  2  0  0  0  0  0  0
  189.4410  177.5210  141.8920 C   0  0  0  0  0  0  0  0  0  0  0  0
  191.8980  177.5870  141.9390 C   0  0  0  0  0  3  0  0  0  0  0  0
  189.4440  177.1960  140.5950 C   0  0  0  0  0  3  0  0  0  0  0  0
  190.7360  177.6620  142.5900 C   0  0  0  0  0  3  0  0  0  0  0  0
  190.6230  176.5680  138.5040 C   0  0  0  0  0  1  0  0  0  0  0  0
  179.8170  176.9160  139.2920 O   0  0  0  0  0  1  0  0  0  0  0  0
  180.2770  178.2040  139.5590 C   0  0  2  0  0  3  0  0  0  0  0  0
  179.4060  180.4400  139.4510 C   0  0  0  0  0  2  0  0  0  0  0  0
  179.1910  179.9530  140.8670 C   0  0  0  0  0  2  0  0  0  0  0  0
  179.8920  178.6100  140.9740 C   0  0  2  0  0  3  0  0  0  0  0  0
  179.6080  179.1900  138.6280 C   0  0  0  0  0  2  0  0  0  0  0  0
  1 15  1  6  0  0  0
  1 13  1  0  0  0  0
  3  9  2  0  0  0  0
  3 19  1  0  0  0  0
  5 20  1  0  0  0  0
  7  2  1  0  0  0  0
  7  6  1  0  0  0  0
 10  4  1  6  0  0  0
 10  1  1  0  0  0  0
 10  7  1  0  0  0  0
 11  8  1  0  0  0  0
 12 19  1  0  0  0  0
 12  5  1  0  0  0  0
 13  6  1  0  0  0  0
 14  4  1  0  0  0  0
 14 21  1  0  0  0  0
 16  7  1  0  0  0  0
 17  5  2  0  0  0  0
 17 18  1  0  0  0  0
 18 14  2  0  0  0  0
 19 11  1  0  0  0  0
 20  8  1  0  0  0  0
 20  4  2  0  0  0  0
 21 15  2  0  0  0  0
 22 23  1  0  0  0  0
 22 26  1  0  0  0  0
 23 25  1  0  0  0  0
 24 18  1  0  0  0  0
 24 27  1  0  0  0  0
 25 27  2  0  0  0  0
 26 24  2  0  0  0  0
 28 22  1  0  0  0  0
 30 29  1  6  0  0  0
 30 33  1  0  0  0  0
 31 32  1  0  0  0  0
 32 33  1  0  0  0  0
 33  9  1  1  0  0  0
 34 31  1  0  0  0  0
 34 30  1  0  0  0  0
M  END
>  <MODEL>
1

>  <REMARK>
 VINA RESULT:     -10.6      0.000      0.000
  Name = 
  2 active torsions:
  status: ('A' for Active; 'I' for Inactive)
    1  A    between atoms: C_12  and  C_28
    2  A    between atoms: N_13  and  C_33
                            x       y       z     vdW  Elec       q    Type
                         _______ _______ _______ _____ _____    ______ ____

>  <TORSDO>
F 2

$$$$
=
 OpenBabel10262419133D

 34 39  0  0  1  0  0  0  0  0999 V2000
  188.6360  177.3580  146.9180 C   0  0  2  0  0  3  0  0  0  0  0  0
  185.5600  178.2830  148.0820 O   0  0  0  0  0  1  0  0  0  0  0  0
  182.1730  178.9180  142.6090 C   0  0  0  0  0  3  0  0  0  0  0  0
  187.1360  177.8440  144.9860 C   0  0  0  0  0  0  0  0  0  0  0  0
  185.8690  178.4000  142.9850 C   0  0  0  0  0  0  0  0  0  0  0  0
  187.8100  178.6360  148.4500 O   0  0  0  0  0  0  0  0  0  0  0  0
  186.7690  178.6340  147.4830 C   0  0  0  0  0  0  0  0  0  0  0  0
  184.6620  178.3690  145.2000 C   0  0  0  0  0  2  0  0  0  0  0  0
  181.1180  179.0600  143.3460 N   0  0  0  0  0  0  0  0  0  0  0  0
  187.2260  177.5550  146.4810 C   0  0  2  0  0  3  0  0  0  0  0  0
  183.6830  179.3470  144.5700 C   0  0  0  0  0  2  0  0  0  0  0  0
  184.6310  178.8950  142.2820 C   0  0  0  0  0  2  0  0  0  0  0  0
  188.9170  177.9480  148.0250 N   0  0  0  0  0  2  0  0  0  0  0  0
  188.2440  177.5170  144.1550 C   0  0  0  0  0  0  0  0  0  0  0  0
  189.6550  176.8660  146.0050 C   0  0  0  0  0  3  0  0  0  0  0  0
  186.6740  179.8990  146.8950 O   0  0  0  0  0  1  0  0  0  0  0  0
  186.9660  178.1410  142.2340 N   0  0  0  0  0  0  0  0  0  0  0  0
  188.1430  177.7040  142.7580 C   0  0  0  0  0  0  0  0  0  0  0  0
  183.4820  178.9780  143.1750 N   0  0  0  0  0  0  0  0  0  0  0  0
  185.9220  178.2470  144.3850 C   0  0  0  0  0  0  0  0  0  0  0  0
  189.4400  176.9430  144.7260 N   0  0  0  0  0  0  0  0  0  0  0  0
  190.0710  176.8210  139.6370 N   0  0  0  0  0  0  0  0  0  0  0  0
  191.4410  177.2610  139.9030 C   0  0  0  0  0  2  0  0  0  0  0  0
  189.2690  177.4420  141.8240 C   0  0  0  0  0  0  0  0  0  0  0  0
  191.6840  177.4940  141.3680 C   0  0  0  0  0  3  0  0  0  0  0  0
  189.0090  177.0600  140.5700 C   0  0  0  0  0  3  0  0  0  0  0  0
  190.6780  177.6060  142.2380 C   0  0  0  0  0  3  0  0  0  0  0  0
  189.7400  176.3320  138.3130 C   0  0  0  0  0  1  0  0  0  0  0  0
  179.1480  177.0840  141.4870 O   0  0  0  0  0  1  0  0  0  0  0  0
  179.8370  178.2940  141.4150 C   0  0  2  0  0  3  0  0  0  0  0  0
  179.3060  180.5980  140.9970 C   0  0  0  0  0  2  0  0  0  0  0  0
  179.2870  180.4090  142.4980 C   0  0  0  0  0  2  0  0  0  0  0  0
  179.7870  179.0000  142.7620 C   0  0  2  0  0  3  0  0  0  0  0  0
  179.1610  179.2110  140.4200 C   0  0  0  0  0  2  0  0  0  0  0  0
  1 15  1  6  0  0  0
  1 13  1  0  0  0  0
  3 19  1  0  0  0  0
  3  9  2  0  0  0  0
  5 20  2  0  0  0  0
  7  2  1  0  0  0  0
  7  6  1  0  0  0  0
 10  4  1  6  0  0  0
 10  1  1  0  0  0  0
 10  7  1  0  0  0  0
 11  8  1  0  0  0  0
 12  5  1  0  0  0  0
 12 19  1  0  0  0  0
 13  6  1  0  0  0  0
 14 21  1  0  0  0  0
 14  4  2  0  0  0  0
 16  7  1  0  0  0  0
 17 18  2  0  0  0  0
 17  5  1  0  0  0  0
 18 14  1  0  0  0  0
 19 11  1  0  0  0  0
 20  4  1  0  0  0  0
 20  8  1  0  0  0  0
 21 15  2  0  0  0  0
 22 23  1  0  0  0  0
 22 26  1  0  0  0  0
 23 25  1  0  0  0  0
 24 27  1  0  0  0  0
 24 18  1  0  0  0  0
 25 27  2  0  0  0  0
 26 24  2  0  0  0  0
 28 22  1  0  0  0  0
 30 29  1  1  0  0  0
 30 33  1  0  0  0  0
 31 32  1  0  0  0  0
 32 33  1  0  0  0  0
 33  9  1  6  0  0  0
 34 31  1  0  0  0  0
 34 30  1  0  0  0  0
M  END
>  <MODEL>
2

>  <REMARK>
 VINA RESULT:      -9.7      1.025      1.112
  Name = 
  2 active torsions:
  status: ('A' for Active; 'I' for Inactive)
    1  A    between atoms: C_12  and  C_28
    2  A    between atoms: N_13  and  C_33
                            x       y       z     vdW  Elec       q    Type
                         _______ _______ _______ _____ _____    ______ ____

>  <TORSDO>
F 2

$$$$
=
 OpenBabel10262419133D

 34 39  0  0  1  0  0  0  0  0999 V2000
  190.0330  176.6770  146.4200 C   0  0  2  0  0  3  0  0  0  0  0  0
  187.0320  177.4970  147.8310 O   0  0  0  0  0  1  0  0  0  0  0  0
  183.3410  178.5880  142.6340 C   0  0  0  0  0  3  0  0  0  0  0  0
  188.4280  177.3230  144.6240 C   0  0  0  0  0  0  0  0  0  0  0  0
  187.0510  178.0440  142.7520 C   0  0  0  0  0  0  0  0  0  0  0  0
  189.3000  177.8200  148.0980 O   0  0  0  0  0  0  0  0  0  0  0  0
  188.2070  177.8990  147.1960 C   0  0  0  0  0  0  0  0  0  0  0  0
  185.9710  177.8250  145.0230 C   0  0  0  0  0  2  0  0  0  0  0  0
  182.3310  178.6660  143.4390 N   0  0  0  0  0  0  0  0  0  0  0  0
  188.6010  176.9090  146.0820 C   0  0  2  0  0  3  0  0  0  0  0  0
  184.9630  178.8510  144.5340 C   0  0  0  0  0  2  0  0  0  0  0  0
  185.7770  178.5950  142.1660 C   0  0  0  0  0  2  0  0  0  0  0  0
  190.3790  177.1720  147.5550 N   0  0  0  0  0  2  0  0  0  0  0  0
  189.4850  177.0680  143.7070 C   0  0  0  0  0  0  0  0  0  0  0  0
  190.9970  176.2650  145.4110 C   0  0  0  0  0  3  0  0  0  0  0  0
  188.0830  179.2080  146.7230 O   0  0  0  0  0  1  0  0  0  0  0  0
  188.1020  177.8500  141.9210 N   0  0  0  0  0  0  0  0  0  0  0  0
  189.3060  177.3720  142.3390 C   0  0  0  0  0  0  0  0  0  0  0  0
  184.6810  178.6010  143.1270 N   0  0  0  0  0  0  0  0  0  0  0  0
  187.1830  177.7740  144.1300 C   0  0  0  0  0  0  0  0  0  0  0  0
  190.7100  176.4500  144.1580 N   0  0  0  0  0  0  0  0  0  0  0  0
  191.0740  176.5070  139.1190 N   0  0  0  0  0  0  0  0  0  0  0  0
  192.3830  177.1530  139.2220 C   0  0  0  0  0  2  0  0  0  0  0  0
  190.3760  177.1910  141.3230 C   0  0  0  0  0  0  0  0  0  0  0  0
  192.7110  177.5390  140.6380 C   0  0  0  0  0  3  0  0  0  0  0  0
  190.0700  176.6730  140.1290 C   0  0  0  0  0  3  0  0  0  0  0  0
  191.7760  177.5830  141.5890 C   0  0  0  0  0  3  0  0  0  0  0  0
  190.7080  175.8670  137.8710 C   0  0  0  0  0  1  0  0  0  0  0  0
  180.2490  180.3920  141.4550 O   0  0  0  0  0  1  0  0  0  0  0  0
  180.4450  180.0770  142.7990 C   0  0  2  0  0  3  0  0  0  0  0  0
  179.2000  179.0130  144.5550 C   0  0  0  0  0  2  0  0  0  0  0  0
  180.0640  177.9450  143.9200 C   0  0  0  0  0  2  0  0  0  0  0  0
  180.9680  178.6540  142.9290 C   0  0  2  0  0  3  0  0  0  0  0  0
  179.1230  180.1210  143.5330 C   0  0  0  0  0  2  0  0  0  0  0  0
  1 15  1  6  0  0  0
  1 13  1  0  0  0  0
  3 19  1  0  0  0  0
  3  9  2  0  0  0  0
  5 20  2  0  0  0  0
  7  2  1  0  0  0  0
  7  6  1  0  0  0  0
 10  4  1  6  0  0  0
 10  1  1  0  0  0  0
 10  7  1  0  0  0  0
 11  8  1  0  0  0  0
 12  5  1  0  0  0  0
 12 19  1  0  0  0  0
 13  6  1  0  0  0  0
 14 21  1  0  0  0  0
 14  4  2  0  0  0  0
 16  7  1  0  0  0  0
 17 18  2  0  0  0  0
 17  5  1  0  0  0  0
 18 14  1  0  0  0  0
 19 11  1  0  0  0  0
 20  4  1  0  0  0  0
 20  8  1  0  0  0  0
 21 15  2  0  0  0  0
 22 23  1  0  0  0  0
 22 26  1  0  0  0  0
 23 25  1  0  0  0  0
 24 27  1  0  0  0  0
 24 18  1  0  0  0  0
 25 27  2  0  0  0  0
 26 24  2  0  0  0  0
 28 22  1  0  0  0  0
 30 29  1  6  0  0  0
 30 33  1  0  0  0  0
 30 34  1  0  0  0  0
 32 31  1  0  0  0  0
 33  9  1  1  0  0  0
 33 32  1  0  0  0  0
 34 31  1  0  0  0  0
M  END
>  <MODEL>
3

>  <REMARK>
 VINA RESULT:      -9.4      1.932      2.415
  Name = 
  2 active torsions:
  status: ('A' for Active; 'I' for Inactive)
    1  A    between atoms: C_12  and  C_28
    2  A    between atoms: N_13  and  C_33
                            x       y       z     vdW  Elec       q    Type
                         _______ _______ _______ _____ _____    ______ ____

>  <TORSDO>
F 2

$$$$
=
 OpenBabel10262419133D

 34 39  0  0  1  0  0  0  0  0999 V2000
  184.5800  178.4300  145.4070 C   0  0  2  0  0  3  0  0  0  0  0  0
  183.7480  178.6900  142.1030 O   0  0  0  0  0  1  0  0  0  0  0  0
  189.2830  177.0710  139.1770 C   0  0  0  0  0  3  0  0  0  0  0  0
  186.6060  178.0170  144.0120 C   0  0  0  0  0  0  0  0  0  0  0  0
  188.7100  177.7180  142.8270 C   0  0  0  0  0  0  0  0  0  0  0  0
  183.4280  179.7380  144.1330 O   0  0  0  0  0  0  0  0  0  0  0  0
  184.3870  179.2210  143.2230 C   0  0  0  0  0  0  0  0  0  0  0  0
  186.5820  177.8560  141.4780 C   0  0  0  0  0  2  0  0  0  0  0  0
  188.6270  177.0740  138.0610 N   0  0  0  0  0  0  0  0  0  0  0  0
  185.0840  178.1150  144.0410 C   0  0  2  0  0  3  0  0  0  0  0  0
  187.4530  178.3460  140.3340 C   0  0  0  0  0  2  0  0  0  0  0  0
  189.5400  177.6690  141.5710 C   0  0  0  0  0  2  0  0  0  0  0  0
  183.6460  179.3130  145.4180 N   0  0  0  0  0  2  0  0  0  0  0  0
  187.3060  177.8350  145.2370 C   0  0  0  0  0  0  0  0  0  0  0  0
  185.3230  178.0510  146.5980 C   0  0  0  0  0  3  0  0  0  0  0  0
  185.2690  180.2370  142.8450 O   0  0  0  0  0  1  0  0  0  0  0  0
  189.3490  177.6150  144.0160 N   0  0  0  0  0  0  0  0  0  0  0  0
  188.7080  177.6600  145.2150 C   0  0  0  0  0  0  0  0  0  0  0  0
  188.7200  177.6260  140.3660 N   0  0  0  0  0  0  0  0  0  0  0  0
  187.3140  177.9120  142.7930 C   0  0  0  0  0  0  0  0  0  0  0  0
  186.5850  177.7690  146.4870 N   0  0  0  0  0  0  0  0  0  0  0  0
  191.4380  176.6110  147.6000 N   0  0  0  0  0  0  0  0  0  0  0  0
  191.3070  177.5140  148.7450 C   0  0  0  0  0  2  0  0  0  0  0  0
  189.5240  177.5210  146.4500 C   0  0  0  0  0  0  0  0  0  0  0  0
  189.9700  178.2020  148.7690 C   0  0  0  0  0  3  0  0  0  0  0  0
  190.6160  176.7490  146.4330 C   0  0  0  0  0  3  0  0  0  0  0  0
  189.1720  178.2250  147.7000 C   0  0  0  0  0  3  0  0  0  0  0  0
  192.5650  175.7000  147.5550 C   0  0  0  0  0  1  0  0  0  0  0  0
  187.8920  176.3850  134.8630 O   0  0  0  0  0  1  0  0  0  0  0  0
  188.1500  175.7420  136.0730 C   0  0  2  0  0  3  0  0  0  0  0  0
  189.7270  174.1360  136.9090 C   0  0  0  0  0  2  0  0  0  0  0  0
  190.2840  175.5060  137.2310 C   0  0  0  0  0  2  0  0  0  0  0  0
  189.2080  176.5090  136.8530 C   0  0  2  0  0  3  0  0  0  0  0  0
  188.7180  174.3650  135.8100 C   0  0  0  0  0  2  0  0  0  0  0  0
  1 13  1  0  0  0  0
  1 15  1  1  0  0  0
  2  7  1  0  0  0  0
  3 19  1  0  0  0  0
  4 14  1  0  0  0  0
  5 17  2  0  0  0  0
  6 13  1  0  0  0  0
  7 10  1  0  0  0  0
  7  6  1  0  0  0  0
  8 20  1  0  0  0  0
  9  3  2  0  0  0  0
 10  4  1  1  0  0  0
 10  1  1  0  0  0  0
 11 19  1  0  0  0  0
 11  8  1  0  0  0  0
 12  5  1  0  0  0  0
 14 21  1  0  0  0  0
 16  7  1  0  0  0  0
 17 18  1  0  0  0  0
 18 14  2  0  0  0  0
 18 24  1  0  0  0  0
 19 12  1  0  0  0  0
 20  5  1  0  0  0  0
 20  4  2  0  0  0  0
 21 15  2  0  0  0  0
 22 23  1  0  0  0  0
 23 25  1  0  0  0  0
 24 27  1  0  0  0  0
 26 24  2  0  0  0  0
 26 22  1  0  0  0  0
 27 25  2  0  0  0  0
 28 22  1  0  0  0  0
 30 29  1  6  0  0  0
 30 33  1  0  0  0  0
 31 32  1  0  0  0  0
 33 32  1  0  0  0  0
 33  9  1  1  0  0  0
 34 30  1  0  0  0  0
 34 31  1  0  0  0  0
M  END
>  <MODEL>
4

>  <REMARK>
 VINA RESULT:      -9.1      3.169      6.558
  Name = 
  2 active torsions:
  status: ('A' for Active; 'I' for Inactive)
    1  A    between atoms: C_12  and  C_28
    2  A    between atoms: N_13  and  C_33
                            x       y       z     vdW  Elec       q    Type
                         _______ _______ _______ _____ _____    ______ ____

>  <TORSDO>
F 2

$$$$
=
 OpenBabel10262419133D

 34 39  0  0  1  0  0  0  0  0999 V2000
  186.3170  177.9340  145.4490 C   0  0  2  0  0  3  0  0  0  0  0  0
  183.0580  178.7110  144.7840 O   0  0  0  0  0  1  0  0  0  0  0  0
  182.9500  178.6930  138.3180 C   0  0  0  0  0  3  0  0  0  0  0  0
  186.0120  178.1650  142.9850 C   0  0  0  0  0  0  0  0  0  0  0  0
  185.9390  178.4780  140.5730 C   0  0  0  0  0  0  0  0  0  0  0  0
  184.7890  179.2560  146.2090 O   0  0  0  0  0  0  0  0  0  0  0  0
  184.3940  179.1060  144.8530 C   0  0  0  0  0  0  0  0  0  0  0  0
  183.7660  178.5200  141.8550 C   0  0  0  0  0  2  0  0  0  0  0  0
  181.6630  178.8100  138.3970 N   0  0  0  0  0  0  0  0  0  0  0  0
  185.3280  177.9940  144.3380 C   0  0  2  0  0  3  0  0  0  0  0  0
  183.2260  179.3740  140.7210 C   0  0  0  0  0  2  0  0  0  0  0  0
  185.2270  178.8280  139.2930 C   0  0  0  0  0  2  0  0  0  0  0  0
  185.9740  178.6220  146.4790 N   0  0  0  0  0  2  0  0  0  0  0  0
  187.3970  177.8610  142.8720 C   0  0  0  0  0  0  0  0  0  0  0  0
  187.6740  177.4540  145.2370 C   0  0  0  0  0  3  0  0  0  0  0  0
  184.5810  180.3140  144.1750 O   0  0  0  0  0  1  0  0  0  0  0  0
  187.2730  178.2470  140.5160 N   0  0  0  0  0  0  0  0  0  0  0  0
  188.0240  177.9380  141.6080 C   0  0  0  0  0  0  0  0  0  0  0  0
  183.7800  178.8900  139.4630 N   0  0  0  0  0  0  0  0  0  0  0  0
  185.2690  178.4330  141.8130 C   0  0  0  0  0  0  0  0  0  0  0  0
  188.1450  177.4210  144.0270 N   0  0  0  0  0  0  0  0  0  0  0  0
  191.3240  177.1260  139.9680 N   0  0  0  0  0  0  0  0  0  0  0  0
  192.3390  177.5470  140.9340 C   0  0  0  0  0  2  0  0  0  0  0  0
  189.4760  177.6930  141.4090 C   0  0  0  0  0  0  0  0  0  0  0  0
  191.7630  177.7370  142.3100 C   0  0  0  0  0  3  0  0  0  0  0  0
  189.9260  177.3480  140.1980 C   0  0  0  0  0  3  0  0  0  0  0  0
  190.4480  177.8330  142.5140 C   0  0  0  0  0  3  0  0  0  0  0  0
  191.7520  176.6770  138.6580 C   0  0  0  0  0  1  0  0  0  0  0  0
  181.5360  177.1050  135.5120 O   0  0  0  0  0  1  0  0  0  0  0  0
  181.6880  178.4050  135.9900 C   0  0  2  0  0  3  0  0  0  0  0  0
  180.5640  180.5130  135.7390 C   0  0  0  0  0  2  0  0  0  0  0  0
  179.9940  179.8570  136.9780 C   0  0  0  0  0  2  0  0  0  0  0  0
  180.8230  178.6090  137.2260 C   0  0  2  0  0  3  0  0  0  0  0  0
  181.2000  179.3920  134.9530 C   0  0  0  0  0  2  0  0  0  0  0  0
  1 15  1  6  0  0  0
  1 13  1  0  0  0  0
  2  7  1  0  0  0  0
  3  9  2  0  0  0  0
  3 19  1  0  0  0  0
  5 20  1  0  0  0  0
  6 13  1  0  0  0  0
  7  6  1  0  0  0  0
 10  4  1  6  0  0  0
 10  7  1  0  0  0  0
 10  1  1  0  0  0  0
 11  8  1  0  0  0  0
 12 19  1  0  0  0  0
 12  5  1  0  0  0  0
 14  4  1  0  0  0  0
 14 21  1  0  0  0  0
 16  7  1  0  0  0  0
 17  5  2  0  0  0  0
 17 18  1  0  0  0  0
 18 14  2  0  0  0  0
 19 11  1  0  0  0  0
 20  8  1  0  0  0  0
 20  4  2  0  0  0  0
 21 15  2  0  0  0  0
 22 26  1  0  0  0  0
 22 23  1  0  0  0  0
 23 25  1  0  0  0  0
 24 18  1  0  0  0  0
 24 27  1  0  0  0  0
 25 27  2  0  0  0  0
 26 24  2  0  0  0  0
 28 22  1  0  0  0  0
 30 29  1  6  0  0  0
 30 33  1  0  0  0  0
 31 32  1  0  0  0  0
 32 33  1  0  0  0  0
 33  9  1  1  0  0  0
 34 31  1  0  0  0  0
 34 30  1  0  0  0  0
M  END
>  <MODEL>
5

>  <REMARK>
 VINA RESULT:      -9.0      2.002      2.467
  Name = 
  2 active torsions:
  status: ('A' for Active; 'I' for Inactive)
    1  A    between atoms: C_12  and  C_28
    2  A    between atoms: N_13  and  C_33
                            x       y       z     vdW  Elec       q    Type
                         _______ _______ _______ _____ _____    ______ ____

>  <TORSDO>
F 2

$$$$
=
 OpenBabel10262419133D

 34 39  0  0  1  0  0  0  0  0999 V2000
  185.1240  178.2530  143.7620 C   0  0  2  0  0  3  0  0  0  0  0  0
  185.1630  178.3200  140.3460 O   0  0  0  0  0  1  0  0  0  0  0  0
  191.2750  176.6670  139.0270 C   0  0  0  0  0  3  0  0  0  0  0  0
  187.4420  177.8100  142.9570 C   0  0  0  0  0  0  0  0  0  0  0  0
  189.7810  177.4940  142.3670 C   0  0  0  0  0  0  0  0  0  0  0  0
  184.3270  179.4670  142.1650 O   0  0  0  0  0  0  0  0  0  0  0  0
  185.4910  178.9240  141.5610 C   0  0  0  0  0  0  0  0  0  0  0  0
  188.0690  177.5150  140.5140 C   0  0  0  0  0  2  0  0  0  0  0  0
  190.9270  176.5980  137.7830 N   0  0  0  0  0  0  0  0  0  0  0  0
  185.9620  177.8770  142.5900 C   0  0  2  0  0  3  0  0  0  0  0  0
  189.2010  177.9630  139.6050 C   0  0  0  0  0  2  0  0  0  0  0  0
  190.9060  177.3960  141.3700 C   0  0  0  0  0  2  0  0  0  0  0  0
  184.2110  179.1150  143.4850 N   0  0  0  0  0  2  0  0  0  0  0  0
  187.8060  177.7070  144.3280 C   0  0  0  0  0  0  0  0  0  0  0  0
  185.5380  177.9530  145.1230 C   0  0  0  0  0  3  0  0  0  0  0  0
  186.4330  179.9370  141.3640 O   0  0  0  0  0  1  0  0  0  0  0  0
  190.0950  177.4660  143.6850 N   0  0  0  0  0  0  0  0  0  0  0  0
  189.1680  177.5620  144.6750 C   0  0  0  0  0  0  0  0  0  0  0  0
  190.4220  177.2720  140.0000 N   0  0  0  0  0  0  0  0  0  0  0  0
  188.4390  177.6560  141.9670 C   0  0  0  0  0  0  0  0  0  0  0  0
  186.7890  177.6920  145.3540 N   0  0  0  0  0  0  0  0  0  0  0  0
  191.2570  176.7780  147.7180 N   0  0  0  0  0  0  0  0  0  0  0  0
  190.7550  177.6730  148.7620 C   0  0  0  0  0  2  0  0  0  0  0  0
  189.6410  177.5040  146.0830 C   0  0  0  0  0  0  0  0  0  0  0  0
  189.4050  178.2390  148.4170 C   0  0  0  0  0  3  0  0  0  0  0  0
  190.7610  176.8340  146.3750 C   0  0  0  0  0  3  0  0  0  0  0  0
  188.9150  178.1830  147.1770 C   0  0  0  0  0  3  0  0  0  0  0  0
  192.4300  175.9730  147.9960 C   0  0  0  0  0  1  0  0  0  0  0  0
  191.1490  173.9280  135.7660 O   0  0  0  0  0  1  0  0  0  0  0  0
  191.7340  174.4660  136.9120 C   0  0  2  0  0  3  0  0  0  0  0  0
  193.9300  175.1400  137.6130 C   0  0  0  0  0  2  0  0  0  0  0  0
  193.2400  176.3780  137.0800 C   0  0  0  0  0  2  0  0  0  0  0  0
  191.8020  175.9820  136.7970 C   0  0  2  0  0  3  0  0  0  0  0  0
  193.1600  173.9770  137.0360 C   0  0  0  0  0  2  0  0  0  0  0  0
  1 15  1  1  0  0  0
  2  7  1  0  0  0  0
  3 19  1  0  0  0  0
  4 14  1  0  0  0  0
  5 17  2  0  0  0  0
  6 13  1  0  0  0  0
  7  6  1  0  0  0  0
  7 10  1  0  0  0  0
  8 20  1  0  0  0  0
  9  3  2  0  0  0  0
 10  4  1  1  0  0  0
 10  1  1  0  0  0  0
 11 19  1  0  0  0  0
 11  8  1  0  0  0  0
 12  5  1  0  0  0  0
 13  1  1  0  0  0  0
 14 18  2  0  0  0  0
 14 21  1  0  0  0  0
 15 21  2  0  0  0  0
 16  7  1  0  0  0  0
 17 18  1  0  0  0  0
 18 24  1  0  0  0  0
 19 12  1  0  0  0  0
 20  5  1  0  0  0  0
 20  4  2  0  0  0  0
 22 28  1  0  0  0  0
 22 23  1  0  0  0  0
 24 26  2  0  0  0  0
 24 27  1  0  0  0  0
 25 23  1  0  0  0  0
 26 22  1  0  0  0  0
 27 25  2  0  0  0  0
 30 29  1  6  0  0  0
 30 34  1  0  0  0  0
 32 31  1  0  0  0  0
 33 30  1  0  0  0  0
 33 32  1  0  0  0  0
 33  9  1  1  0  0  0
 34 31  1  0  0  0  0
M  END
>  <MODEL>
6

>  <REMARK>
 VINA RESULT:      -8.9      3.360      7.972
  Name = 
  2 active torsions:
  status: ('A' for Active; 'I' for Inactive)
    1  A    between atoms: C_12  and  C_28
    2  A    between atoms: N_13  and  C_33
                            x       y       z     vdW  Elec       q    Type
                         _______ _______ _______ _____ _____    ______ ____

>  <TORSDO>
F 2

$$$$
=
 OpenBabel10262419133D

 34 39  0  0  1  0  0  0  0  0999 V2000
  190.8610  177.4870  139.8260 C   0  0  2  0  0  3  0  0  0  0  0  0
  188.8810  178.1150  137.1140 O   0  0  0  0  0  1  0  0  0  0  0  0
  183.2470  179.6760  139.8790 C   0  0  0  0  0  3  0  0  0  0  0  0
  188.5370  177.9620  140.5960 C   0  0  0  0  0  0  0  0  0  0  0  0
  186.3090  178.2670  141.5250 C   0  0  0  0  0  0  0  0  0  0  0  0
  190.5150  176.6670  137.8590 O   0  0  0  0  0  0  0  0  0  0  0  0
  189.2580  177.2600  138.1500 C   0  0  0  0  0  0  0  0  0  0  0  0
  186.6560  178.7140  139.0650 C   0  0  0  0  0  2  0  0  0  0  0  0
  182.8290  180.0160  138.7020 N   0  0  0  0  0  0  0  0  0  0  0  0
  189.5350  178.0480  139.4460 C   0  0  2  0  0  3  0  0  0  0  0  0
  185.1780  178.4020  138.9000 C   0  0  0  0  0  2  0  0  0  0  0  0
  184.8270  178.5060  141.3910 C   0  0  0  0  0  2  0  0  0  0  0  0
  191.3870  176.7490  138.9140 N   0  0  0  0  0  2  0  0  0  0  0  0
  189.0260  177.7630  141.9170 C   0  0  0  0  0  0  0  0  0  0  0  0
  191.3180  177.4810  141.2070 C   0  0  0  0  0  3  0  0  0  0  0  0
  188.2990  176.2600  138.3310 O   0  0  0  0  0  1  0  0  0  0  0  0
  186.8030  178.0080  142.7590 N   0  0  0  0  0  0  0  0  0  0  0  0
  188.1190  177.7630  143.0000 C   0  0  0  0  0  0  0  0  0  0  0  0
  184.4540  178.9320  140.0480 N   0  0  0  0  0  0  0  0  0  0  0  0
  187.1690  178.2610  140.4070 C   0  0  0  0  0  0  0  0  0  0  0  0
  190.4430  177.6220  142.1570 N   0  0  0  0  0  0  0  0  0  0  0  0
  190.2520  176.9770  146.0120 N   0  0  0  0  0  0  0  0  0  0  0  0
  189.4270  177.3430  147.1650 C   0  0  0  0  0  2  0  0  0  0  0  0
  188.5360  177.5070  144.4040 C   0  0  0  0  0  0  0  0  0  0  0  0
  187.9750  177.4830  146.7970 C   0  0  0  0  0  3  0  0  0  0  0  0
  189.8120  177.2070  144.6670 C   0  0  0  0  0  3  0  0  0  0  0  0
  187.5790  177.5870  145.5270 C   0  0  0  0  0  3  0  0  0  0  0  0
  191.6270  176.5770  146.2380 C   0  0  0  0  0  1  0  0  0  0  0  0
  180.1950  181.1610  140.4320 O   0  0  0  0  0  1  0  0  0  0  0  0
  180.5170  180.2200  139.4560 C   0  0  2  0  0  3  0  0  0  0  0  0
  179.8580  179.7330  137.1980 C   0  0  0  0  0  2  0  0  0  0  0  0
  181.0890  180.6090  137.1160 C   0  0  0  0  0  2  0  0  0  0  0  0
  181.5980  180.7730  138.5380 C   0  0  2  0  0  3  0  0  0  0  0  0
  179.3080  179.9490  138.5870 C   0  0  0  0  0  2  0  0  0  0  0  0
  1 15  1  1  0  0  0
  2  7  1  0  0  0  0
  3 19  1  0  0  0  0
  4 14  1  0  0  0  0
  5 17  2  0  0  0  0
  6  7  1  0  0  0  0
  6 13  1  0  0  0  0
  7 16  1  0  0  0  0
  7 10  1  0  0  0  0
  8 20  1  0  0  0  0
  9  3  2  0  0  0  0
 10  1  1  0  0  0  0
 10  4  1  1  0  0  0
 11  8  1  0  0  0  0
 11 19  1  0  0  0  0
 12  5  1  0  0  0  0
 13  1  1  0  0  0  0
 14 21  1  0  0  0  0
 14 18  2  0  0  0  0
 15 21  2  0  0  0  0
 17 18  1  0  0  0  0
 18 24  1  0  0  0  0
 19 12  1  0  0  0  0
 20  4  2  0  0  0  0
 20  5  1  0  0  0  0
 22 28  1  0  0  0  0
 22 23  1  0  0  0  0
 24 26  2  0  0  0  0
 24 27  1  0  0  0  0
 25 23  1  0  0  0  0
 26 22  1  0  0  0  0
 27 25  2  0  0  0  0
 30 29  1  1  0  0  0
 31 34  1  0  0  0  0
 32 31  1  0  0  0  0
 32 33  1  0  0  0  0
 33  9  1  6  0  0  0
 33 30  1  0  0  0  0
 34 30  1  0  0  0  0
M  END
>  <MODEL>
7

>  <REMARK>
 VINA RESULT:      -8.8      3.340      5.633
  Name = 
  2 active torsions:
  status: ('A' for Active; 'I' for Inactive)
    1  A    between atoms: C_12  and  C_28
    2  A    between atoms: N_13  and  C_33
                            x       y       z     vdW  Elec       q    Type
                         _______ _______ _______ _____ _____    ______ ____

>  <TORSDO>
F 2

$$$$
=
 OpenBabel10262419133D

 34 39  0  0  1  0  0  0  0  0999 V2000
  189.9160  176.5820  144.5690 C   0  0  2  0  0  3  0  0  0  0  0  0
  187.3060  177.1230  146.7060 O   0  0  0  0  0  1  0  0  0  0  0  0
  182.5400  178.7450  142.6470 C   0  0  0  0  0  3  0  0  0  0  0  0
  187.9470  177.3990  143.2740 C   0  0  0  0  0  0  0  0  0  0  0  0
  186.1830  178.3080  141.8660 C   0  0  0  0  0  0  0  0  0  0  0  0
  189.5760  177.4810  146.5020 O   0  0  0  0  0  0  0  0  0  0  0  0
  188.3080  177.6390  145.8840 C   0  0  0  0  0  0  0  0  0  0  0  0
  185.6420  177.7700  144.2710 C   0  0  0  0  0  2  0  0  0  0  0  0
  181.7360  178.6900  143.6590 N   0  0  0  0  0  0  0  0  0  0  0  0
  188.4440  176.8100  144.5910 C   0  0  2  0  0  3  0  0  0  0  0  0
  184.5470  178.8170  144.1570 C   0  0  0  0  0  2  0  0  0  0  0  0
  184.8090  178.8880  141.6540 C   0  0  0  0  0  2  0  0  0  0  0  0
  190.5060  176.9410  145.6530 N   0  0  0  0  0  2  0  0  0  0  0  0
  188.7720  177.2950  142.1200 C   0  0  0  0  0  0  0  0  0  0  0  0
  190.6290  176.3320  143.3260 C   0  0  0  0  0  3  0  0  0  0  0  0
  188.0780  178.9930  145.6250 O   0  0  0  0  0  1  0  0  0  0  0  0
  187.0210  178.2530  140.8040 N   0  0  0  0  0  0  0  0  0  0  0  0
  188.2890  177.7640  140.8770 C   0  0  0  0  0  0  0  0  0  0  0  0
  183.9570  178.7380  142.8270 N   0  0  0  0  0  0  0  0  0  0  0  0
  186.6220  177.8700  143.1320 C   0  0  0  0  0  0  0  0  0  0  0  0
  190.0680  176.6640  142.2030 N   0  0  0  0  0  0  0  0  0  0  0  0
  190.9540  176.8740  138.3590 N   0  0  0  0  0  0  0  0  0  0  0  0
  190.4920  177.4560  137.0980 C   0  0  0  0  0  2  0  0  0  0  0  0
  189.1040  177.7470  139.6350 C   0  0  0  0  0  0  0  0  0  0  0  0
  189.4250  178.4930  137.3140 C   0  0  0  0  0  3  0  0  0  0  0  0
  190.1610  176.9320  139.5520 C   0  0  0  0  0  3  0  0  0  0  0  0
  188.7720  178.5990  138.4740 C   0  0  0  0  0  3  0  0  0  0  0  0
  192.1360  176.0340  138.3470 C   0  0  0  0  0  1  0  0  0  0  0  0
  179.2810  177.0400  142.0800 O   0  0  0  0  0  1  0  0  0  0  0  0
  179.9510  178.2620  142.0510 C   0  0  2  0  0  3  0  0  0  0  0  0
  179.3770  180.5860  142.2430 C   0  0  0  0  0  2  0  0  0  0  0  0
  179.7730  180.1160  143.6260 C   0  0  0  0  0  2  0  0  0  0  0  0
  180.2940  178.6990  143.4680 C   0  0  2  0  0  3  0  0  0  0  0  0
  179.0460  179.3280  141.4760 C   0  0  0  0  0  2  0  0  0  0  0  0
  1 15  1  6  0  0  0
  1 10  1  0  0  0  0
  1 13  1  0  0  0  0
  3 19  1  0  0  0  0
  3  9  2  0  0  0  0
  5 20  2  0  0  0  0
  7  6  1  0  0  0  0
  7  2  1  0  0  0  0
 10  4  1  6  0  0  0
 10  7  1  0  0  0  0
 11  8  1  0  0  0  0
 12  5  1  0  0  0  0
 12 19  1  0  0  0  0
 13  6  1  0  0  0  0
 14 21  1  0  0  0  0
 14  4  2  0  0  0  0
 16  7  1  0  0  0  0
 17 18  2  0  0  0  0
 17  5  1  0  0  0  0
 18 14  1  0  0  0  0
 19 11  1  0  0  0  0
 20  4  1  0  0  0  0
 20  8  1  0  0  0  0
 21 15  2  0  0  0  0
 22 26  1  0  0  0  0
 23 25  1  0  0  0  0
 23 22  1  0  0  0  0
 24 18  1  0  0  0  0
 25 27  2  0  0  0  0
 26 24  2  0  0  0  0
 27 24  1  0  0  0  0
 28 22  1  0  0  0  0
 30 29  1  1  0  0  0
 30 33  1  0  0  0  0
 31 32  1  0  0  0  0
 33 32  1  0  0  0  0
 33  9  1  6  0  0  0
 34 30  1  0  0  0  0
 34 31  1  0  0  0  0
M  END
>  <MODEL>
8

>  <REMARK>
 VINA RESULT:      -8.6      1.806      2.598
  Name = 
  2 active torsions:
  status: ('A' for Active; 'I' for Inactive)
    1  A    between atoms: C_12  and  C_28
    2  A    between atoms: N_13  and  C_33
                            x       y       z     vdW  Elec       q    Type
                         _______ _______ _______ _____ _____    ______ ____

>  <TORSDO>
F 2

$$$$
=
 OpenBabel10262419133D

 34 39  0  0  1  0  0  0  0  0999 V2000
  184.9840  177.1050  135.7980 C   0  0  2  0  0  3  0  0  0  0  0  0
  188.3610  176.6510  136.0500 O   0  0  0  0  0  1  0  0  0  0  0  0
  189.4750  178.1580  142.2390 C   0  0  0  0  0  3  0  0  0  0  0  0
  185.7390  177.7850  138.0750 C   0  0  0  0  0  0  0  0  0  0  0  0
  186.3020  178.6170  140.2910 C   0  0  0  0  0  0  0  0  0  0  0  0
  186.7520  177.4790  134.6170 O   0  0  0  0  0  0  0  0  0  0  0  0
  187.2730  177.5180  135.9380 C   0  0  0  0  0  0  0  0  0  0  0  0
  188.1040  177.4750  138.9430 C   0  0  0  0  0  2  0  0  0  0  0  0
  190.6840  177.7290  142.0660 N   0  0  0  0  0  0  0  0  0  0  0  0
  186.0870  177.0320  136.7950 C   0  0  2  0  0  3  0  0  0  0  0  0
  189.0940  178.2890  139.7590 C   0  0  0  0  0  2  0  0  0  0  0  0
  187.2860  178.9520  141.3820 C   0  0  0  0  0  2  0  0  0  0  0  0
  185.3900  177.3270  134.5990 N   0  0  0  0  0  2  0  0  0  0  0  0
  184.3760  178.0970  138.3390 C   0  0  0  0  0  0  0  0  0  0  0  0
  183.5980  177.2740  136.2060 C   0  0  0  0  0  3  0  0  0  0  0  0
  187.6560  178.8240  136.2520 O   0  0  0  0  0  1  0  0  0  0  0  0
  185.0050  178.9590  140.4780 N   0  0  0  0  0  0  0  0  0  0  0  0
  184.0310  178.7210  139.5590 C   0  0  0  0  0  0  0  0  0  0  0  0
  188.6070  178.3880  141.1290 N   0  0  0  0  0  0  0  0  0  0  0  0
  186.7030  178.0080  139.0840 C   0  0  0  0  0  0  0  0  0  0  0  0
  183.3460  177.7260  137.3970 N   0  0  0  0  0  0  0  0  0  0  0  0
  180.6990  178.9830  141.3120 N   0  0  0  0  0  0  0  0  0  0  0  0
  180.0680  180.1770  140.7470 C   0  0  0  0  0  2  0  0  0  0  0  0
  182.6420  179.1330  139.8920 C   0  0  0  0  0  0  0  0  0  0  0  0
  180.7190  180.6030  139.4600 C   0  0  0  0  0  3  0  0  0  0  0  0
  182.0300  178.5920  140.9510 C   0  0  0  0  0  3  0  0  0  0  0  0
  181.9150  180.1400  139.0910 C   0  0  0  0  0  3  0  0  0  0  0  0
  180.0510  178.3100  142.4200 C   0  0  0  0  0  1  0  0  0  0  0  0
  191.9930  175.2640  143.9240 O   0  0  0  0  0  1  0  0  0  0  0  0
  191.0740  176.3070  144.0110 C   0  0  2  0  0  3  0  0  0  0  0  0
  190.7630  178.2680  145.3640 C   0  0  0  0  0  2  0  0  0  0  0  0
  191.5190  178.7030  144.1270 C   0  0  0  0  0  2  0  0  0  0  0  0
  191.5630  177.5000  143.2020 C   0  0  2  0  0  3  0  0  0  0  0  0
  190.9630  176.7740  145.4460 C   0  0  0  0  0  2  0  0  0  0  0  0
  1 15  1  1  0  0  0
  1 10  1  0  0  0  0
  4 14  2  0  0  0  0
  4 20  1  0  0  0  0
  5 17  1  0  0  0  0
  5 12  1  0  0  0  0
  6  7  1  0  0  0  0
  7  2  1  0  0  0  0
  7 16  1  0  0  0  0
  7 10  1  0  0  0  0
  8 20  1  0  0  0  0
  8 11  1  0  0  0  0
  9  3  2  0  0  0  0
 10  4  1  1  0  0  0
 11 19  1  0  0  0  0
 13  6  1  0  0  0  0
 13  1  1  0  0  0  0
 14 18  1  0  0  0  0
 15 21  2  0  0  0  0
 18 24  1  0  0  0  0
 18 17  2  0  0  0  0
 19 12  1  0  0  0  0
 19  3  1  0  0  0  0
 20  5  2  0  0  0  0
 21 14  1  0  0  0  0
 22 28  1  0  0  0  0
 23 22  1  0  0  0  0
 24 26  2  0  0  0  0
 25 23  1  0  0  0  0
 26 22  1  0  0  0  0
 27 25  2  0  0  0  0
 27 24  1  0  0  0  0
 30 29  1  1  0  0  0
 30 34  1  0  0  0  0
 31 34  1  0  0  0  0
 32 31  1  0  0  0  0
 33  9  1  6  0  0  0
 33 30  1  0  0  0  0
 33 32  1  0  0  0  0
M  END
>  <MODEL>
9

>  <REMARK>
 VINA RESULT:      -8.5      4.064      9.843
  Name = 
  2 active torsions:
  status: ('A' for Active; 'I' for Inactive)
    1  A    between atoms: C_12  and  C_28
    2  A    between atoms: N_13  and  C_33
                            x       y       z     vdW  Elec       q    Type
                         _______ _______ _______ _____ _____    ______ ____

>  <TORSDO>
F 2

$$$$
