=
 OpenBabel10262423043D

 37 43  0  0  1  0  0  0  0  0999 V2000
  181.9150  176.2080  135.0160 O   0  0  0  0  0  1  0  0  0  0  0  0
  185.6820  172.9500  136.2740 C   0  0  0  0  0  2  0  0  0  0  0  0
  183.9370  174.4370  137.4380 C   0  0  0  0  0  2  0  0  0  0  0  0
  187.2460  174.9440  137.2080 C   0  0  2  0  0  3  0  0  0  0  0  0
  186.2670  177.0020  134.7540 O   0  0  0  0  0  1  0  0  0  0  0  0
  188.6590  175.4530  136.9610 C   0  0  0  0  0  2  0  0  0  0  0  0
  184.5500  173.9580  136.1110 C   0  0  1  0  0  0  0  0  0  0  0  0
  185.4680  176.2790  135.6390 C   0  0  1  0  0  0  0  0  0  0  0  0
  183.0720  175.8050  135.6810 C   0  0  2  0  0  0  0  0  0  0  0  0
  188.0580  172.5840  137.0140 C   0  0  0  0  0  2  0  0  0  0  0  0
  185.1710  174.9230  135.0510 C   0  0  2  0  0  3  0  0  0  0  0  0
  183.7330  174.6210  134.9880 C   0  0  1  0  0  3  0  0  0  0  0  0
  187.0900  173.6000  136.4290 C   0  0  1  0  0  3  0  0  0  0  0  0
  186.2080  176.1000  136.9930 C   0  0  2  0  0  3  0  0  0  0  0  0
  182.7610  175.3230  137.0780 C   0  0  0  0  0  2  0  0  0  0  0  0
  189.7100  174.3980  137.1960 C   0  0  0  0  0  0  0  0  0  0  0  0
  184.0980  176.9420  135.7550 C   0  0  0  0  0  2  0  0  0  0  0  0
  189.4130  173.1280  137.1420 N   0  0  0  0  0  0  0  0  0  0  0  0
  191.4370  176.1090  137.7980 C   0  0  0  0  0  3  0  0  0  0  0  0
  191.1200  174.8100  137.3660 C   0  0  0  0  0  0  0  0  0  0  0  0
  192.1620  173.9050  137.1080 C   0  0  0  0  0  3  0  0  0  0  0  0
  194.4930  173.4120  137.0250 F   0  0  0  0  0  0  0  0  0  0  0  0
  193.7990  175.5870  137.7060 C   0  0  0  0  0  3  0  0  0  0  0  0
  193.4950  174.2930  137.2760 C   0  0  0  0  0  0  0  0  0  0  0  0
  192.7690  176.4950  137.9660 C   0  0  0  0  0  3  0  0  0  0  0  0
  186.2360  177.3150  137.9370 C   0  0  2  0  0  3  0  0  0  0  0  0
  185.0090  178.2330  137.8830 C   0  0  0  0  0  2  0  0  0  0  0  0
  184.0790  178.0720  139.0810 C   0  0  2  0  0  3  0  0  0  0  0  0
  184.2440  180.5020  139.0950 O   0  0  0  0  0  1  0  0  0  0  0  0
  182.7360  178.6900  138.7560 C   0  0  0  0  0  2  0  0  0  0  0  0
  183.6610  179.3960  139.7250 C   0  0  1  0  0  3  0  0  0  0  0  0
  187.6080  177.9910  138.0840 C   0  0  2  0  0  3  0  0  0  0  0  0
  187.9470  178.2810  139.5490 C   0  0  2  0  0  3  0  0  0  0  0  0
  188.9410  177.2850  140.1250 C   0  0  0  0  0  1  0  0  0  0  0  0
  186.7910  178.2680  140.3090 F   0  0  0  0  0  0  0  0  0  0  0  0
  189.0630  179.1910  136.9100 C   0  0  0  0  0  1  0  0  0  0  0  0
  187.7200  179.1390  137.2900 O   0  0  0  0  0  0  0  0  0  0  0  0
  2 13  1  0  0  0  0
  4  6  1  6  0  0  0
  6 16  1  0  0  0  0
  7  2  1  6  0  0  0
  7  3  1  0  0  0  0
  8  5  1  6  0  0  0
  8 17  1  0  0  0  0
  8 14  1  0  0  0  0
  9  1  1  6  0  0  0
  9 17  1  0  0  0  0
  9 15  1  0  0  0  0
 10 18  1  0  0  0  0
 11  8  1  0  0  0  0
 11  7  1  0  0  0  0
 12 11  1  0  0  0  0
 12  9  1  0  0  0  0
 12  7  1  0  0  0  0
 13 10  1  0  0  0  0
 13  4  1  0  0  0  0
 14  4  1  0  0  0  0
 14 26  1  0  0  0  0
 15  3  1  0  0  0  0
 16 20  1  0  0  0  0
 18 16  2  0  0  0  0
 19 25  1  0  0  0  0
 20 19  2  0  0  0  0
 21 24  2  0  0  0  0
 21 20  1  0  0  0  0
 22 24  1  0  0  0  0
 23 25  2  0  0  0  0
 24 23  1  0  0  0  0
 26 32  1  0  0  0  0
 27 26  1  0  0  0  0
 27 28  1  0  0  0  0
 28 31  1  0  0  0  0
 29 31  1  0  0  0  0
 30 28  1  0  0  0  0
 30 31  1  0  0  0  0
 32 33  1  0  0  0  0
 33 34  1  0  0  0  0
 33 35  1  0  0  0  0
 36 37  1  0  0  0  0
 37 32  1  0  0  0  0
M  END
>  <MODEL>
1

>  <REMARK>
 VINA RESULT:      -6.1      0.000      0.000
  Name = 
  7 active torsions:
  status: ('A' for Active; 'I' for Inactive)
    1  A    between atoms: C_1  and  C_5
    2  A    between atoms: C_1  and  C_36
    3  A    between atoms: C_6  and  C_31
    4  A    between atoms: C_11  and  C_33
    5  A    between atoms: O_27  and  C_33
    6  A    between atoms: C_29  and  C_36
    7  A    between atoms: C_33  and  C_36
                            x       y       z     vdW  Elec       q    Type
                         _______ _______ _______ _____ _____    ______ ____

>  <TORSDO>
F 7

$$$$
=
 OpenBabel10262423043D

 37 43  0  0  1  0  0  0  0  0999 V2000
  191.8290  176.3120  134.5940 O   0  0  0  0  0  1  0  0  0  0  0  0
  191.5130  176.0670  139.7160 C   0  0  0  0  0  2  0  0  0  0  0  0
  190.7950  174.6970  137.6630 C   0  0  0  0  0  2  0  0  0  0  0  0
  188.8550  176.5400  139.6860 C   0  0  2  0  0  3  0  0  0  0  0  0
  189.1690  178.7380  137.1780 O   0  0  0  0  0  1  0  0  0  0  0  0
  187.8990  177.5350  140.3290 C   0  0  0  0  0  2  0  0  0  0  0  0
  191.4800  175.9670  138.1950 C   0  0  1  0  0  0  0  0  0  0  0  0
  189.6360  177.4250  137.2340 C   0  0  1  0  0  0  0  0  0  0  0  0
  191.1780  176.1660  135.8180 C   0  0  2  0  0  0  0  0  0  0  0  0
  190.1710  176.4240  141.8120 C   0  0  0  0  0  2  0  0  0  0  0  0
  191.0260  177.4130  137.8180 C   0  0  2  0  0  3  0  0  0  0  0  0
  192.0070  176.7270  136.9650 C   0  0  1  0  0  3  0  0  0  0  0  0
  190.2600  176.7580  140.3310 C   0  0  1  0  0  3  0  0  0  0  0  0
  188.6960  176.5680  138.1260 C   0  0  2  0  0  3  0  0  0  0  0  0
  190.9680  174.7090  136.1560 C   0  0  0  0  0  2  0  0  0  0  0  0
  187.9700  177.5240  141.8350 C   0  0  0  0  0  0  0  0  0  0  0  0
  189.8240  176.8860  135.8180 C   0  0  0  0  0  2  0  0  0  0  0  0
  189.0310  177.0840  142.4560 N   0  0  0  0  0  0  0  0  0  0  0  0
  185.9750  179.0290  142.0020 C   0  0  0  0  0  3  0  0  0  0  0  0
  186.8720  178.1370  142.6140 C   0  0  0  0  0  0  0  0  0  0  0  0
  186.7050  177.8290  143.9730 C   0  0  0  0  0  3  0  0  0  0  0  0
  185.5110  178.0990  146.0180 F   0  0  0  0  0  0  0  0  0  0  0  0
  184.7760  179.2880  144.0890 C   0  0  0  0  0  3  0  0  0  0  0  0
  185.6630  178.4030  144.7070 C   0  0  0  0  0  0  0  0  0  0  0  0
  184.9330  179.6010  142.7360 C   0  0  0  0  0  3  0  0  0  0  0  0
  187.3650  176.1180  137.5020 C   0  0  2  0  0  3  0  0  0  0  0  0
  187.3960  174.7850  136.7430 C   0  0  0  0  0  2  0  0  0  0  0  0
  186.2670  173.8380  137.1370 C   0  0  2  0  0  3  0  0  0  0  0  0
  186.9380  172.7370  135.0710 O   0  0  0  0  0  1  0  0  0  0  0  0
  186.8450  172.4710  137.4350 C   0  0  0  0  0  2  0  0  0  0  0  0
  186.0590  172.6800  136.1580 C   0  0  1  0  0  3  0  0  0  0  0  0
  186.5190  177.2470  136.8920 C   0  0  2  0  0  3  0  0  0  0  0  0
  185.3140  177.5960  137.7720 C   0  0  2  0  0  3  0  0  0  0  0  0
  183.9900  177.2790  137.0960 C   0  0  0  0  0  1  0  0  0  0  0  0
  185.3500  178.9380  138.1050 F   0  0  0  0  0  0  0  0  0  0  0  0
  186.6400  178.0260  134.8150 C   0  0  0  0  0  1  0  0  0  0  0  0
  186.1340  176.9690  135.5740 O   0  0  0  0  0  0  0  0  0  0  0  0
  2 13  1  0  0  0  0
  4  6  1  1  0  0  0
  4 13  1  0  0  0  0
  6 16  1  0  0  0  0
  7  3  1  6  0  0  0
  7  2  1  0  0  0  0
  8  5  1  6  0  0  0
  8 11  1  0  0  0  0
  8 14  1  0  0  0  0
  9  1  1  6  0  0  0
  9 15  1  0  0  0  0
  9 12  1  0  0  0  0
 10 18  1  0  0  0  0
 11  7  1  0  0  0  0
 12 11  1  0  0  0  0
 12  7  1  0  0  0  0
 13 10  1  0  0  0  0
 14  4  1  0  0  0  0
 15  3  1  0  0  0  0
 16 18  2  0  0  0  0
 16 20  1  0  0  0  0
 17  9  1  0  0  0  0
 17  8  1  0  0  0  0
 19 20  2  0  0  0  0
 19 25  1  0  0  0  0
 20 21  1  0  0  0  0
 21 24  2  0  0  0  0
 23 24  1  0  0  0  0
 24 22  1  0  0  0  0
 25 23  2  0  0  0  0
 26 14  1  0  0  0  0
 27 28  1  0  0  0  0
 27 26  1  0  0  0  0
 28 30  1  0  0  0  0
 29 31  1  0  0  0  0
 31 28  1  0  0  0  0
 31 30  1  0  0  0  0
 32 26  1  0  0  0  0
 32 33  1  0  0  0  0
 33 35  1  0  0  0  0
 34 33  1  0  0  0  0
 36 37  1  0  0  0  0
 37 32  1  0  0  0  0
M  END
>  <MODEL>
2

>  <REMARK>
 VINA RESULT:      -6.1      2.919      7.091
  Name = 
  7 active torsions:
  status: ('A' for Active; 'I' for Inactive)
    1  A    between atoms: C_1  and  C_5
    2  A    between atoms: C_1  and  C_36
    3  A    between atoms: C_6  and  C_31
    4  A    between atoms: C_11  and  C_33
    5  A    between atoms: O_27  and  C_33
    6  A    between atoms: C_29  and  C_36
    7  A    between atoms: C_33  and  C_36
                            x       y       z     vdW  Elec       q    Type
                         _______ _______ _______ _____ _____    ______ ____

>  <TORSDO>
F 7

$$$$
=
 OpenBabel10262423043D

 37 43  0  0  1  0  0  0  0  0999 V2000
  191.9790  175.7550  145.1070 O   0  0  0  0  0  1  0  0  0  0  0  0
  190.1140  177.8380  140.7970 C   0  0  0  0  0  2  0  0  0  0  0  0
  190.8110  178.5730  143.1600 C   0  0  0  0  0  2  0  0  0  0  0  0
  187.7030  178.2900  141.9270 C   0  0  2  0  0  3  0  0  0  0  0  0
  187.8280  175.3920  143.6010 O   0  0  0  0  0  1  0  0  0  0  0  0
  186.2520  177.9540  141.6150 C   0  0  0  0  0  2  0  0  0  0  0  0
  190.6390  177.4140  142.1640 C   0  0  1  0  0  0  0  0  0  0  0  0
  188.7800  176.4100  143.5740 C   0  0  1  0  0  0  0  0  0  0  0  0
  191.0940  176.5200  144.3500 C   0  0  2  0  0  0  0  0  0  0  0  0
  188.1390  178.6900  139.4940 C   0  0  0  0  0  2  0  0  0  0  0  0
  189.7460  176.1630  142.4430 C   0  0  2  0  0  3  0  0  0  0  0  0
  191.1520  176.1480  142.8750 C   0  0  1  0  0  3  0  0  0  0  0  0
  188.5600  177.8570  140.6950 C   0  0  1  0  0  3  0  0  0  0  0  0
  188.0810  177.7810  143.3610 C   0  0  2  0  0  3  0  0  0  0  0  0
  191.4520  177.9860  144.4030 C   0  0  0  0  0  2  0  0  0  0  0  0
  185.8130  178.4580  140.2630 C   0  0  0  0  0  0  0  0  0  0  0  0
  189.6480  176.3350  144.8280 C   0  0  0  0  0  2  0  0  0  0  0  0
  186.6830  178.7080  139.3220 N   0  0  0  0  0  0  0  0  0  0  0  0
  183.4740  177.5840  140.4540 C   0  0  0  0  0  3  0  0  0  0  0  0
  184.3680  178.5490  139.9620 C   0  0  0  0  0  0  0  0  0  0  0  0
  183.8680  179.6090  139.1880 C   0  0  0  0  0  3  0  0  0  0  0  0
  182.0290  180.7260  138.1630 F   0  0  0  0  0  0  0  0  0  0  0  0
  181.6200  178.7340  139.4050 C   0  0  0  0  0  3  0  0  0  0  0  0
  182.5010  179.6990  138.9100 C   0  0  0  0  0  0  0  0  0  0  0  0
  182.1070  177.6760  140.1770 C   0  0  0  0  0  3  0  0  0  0  0  0
  187.3810  178.4020  144.5830 C   0  0  2  0  0  3  0  0  0  0  0  0
  188.2300  178.5170  145.8550 C   0  0  0  0  0  2  0  0  0  0  0  0
  187.7300  177.6390  146.9980 C   0  0  2  0  0  3  0  0  0  0  0  0
  190.0710  177.7690  147.6580 O   0  0  0  0  0  1  0  0  0  0  0  0
  187.8660  178.3940  148.3020 C   0  0  0  0  0  2  0  0  0  0  0  0
  188.8170  177.2550  148.0050 C   0  0  1  0  0  3  0  0  0  0  0  0
  185.9080  178.0000  144.7620 C   0  0  2  0  0  3  0  0  0  0  0  0
  184.9630  179.1830  144.5340 C   0  0  2  0  0  3  0  0  0  0  0  0
  183.6620  178.7660  143.8650 C   0  0  0  0  0  1  0  0  0  0  0  0
  185.5890  180.1420  143.7600 F   0  0  0  0  0  0  0  0  0  0  0  0
  184.7560  178.2050  146.6500 C   0  0  0  0  0  1  0  0  0  0  0  0
  185.6750  177.3810  145.9960 O   0  0  0  0  0  0  0  0  0  0  0  0
  3 15  1  0  0  0  0
  4  6  1  6  0  0  0
  4 14  1  0  0  0  0
  7  2  1  6  0  0  0
  7 11  1  0  0  0  0
  7 12  1  0  0  0  0
  7  3  1  0  0  0  0
  8  5  1  1  0  0  0
  8 17  1  0  0  0  0
  9 15  1  0  0  0  0
  9 17  1  0  0  0  0
  9  1  1  1  0  0  0
 10 13  1  0  0  0  0
 11 12  1  0  0  0  0
 11  8  1  0  0  0  0
 12  9  1  0  0  0  0
 13  2  1  0  0  0  0
 13  4  1  0  0  0  0
 14  8  1  0  0  0  0
 14 26  1  0  0  0  0
 16  6  1  0  0  0  0
 18 10  1  0  0  0  0
 18 16  2  0  0  0  0
 20 16  1  0  0  0  0
 20 19  2  0  0  0  0
 21 20  1  0  0  0  0
 22 24  1  0  0  0  0
 23 25  2  0  0  0  0
 24 21  2  0  0  0  0
 24 23  1  0  0  0  0
 25 19  1  0  0  0  0
 26 32  1  0  0  0  0
 26 27  1  0  0  0  0
 27 28  1  0  0  0  0
 28 31  1  0  0  0  0
 28 30  1  0  0  0  0
 29 31  1  0  0  0  0
 31 30  1  0  0  0  0
 32 37  1  0  0  0  0
 33 32  1  0  0  0  0
 34 33  1  0  0  0  0
 35 33  1  0  0  0  0
 37 36  1  0  0  0  0
M  END
>  <MODEL>
3

>  <REMARK>
 VINA RESULT:      -5.9      5.516      9.347
  Name = 
  7 active torsions:
  status: ('A' for Active; 'I' for Inactive)
    1  A    between atoms: C_1  and  C_5
    2  A    between atoms: C_1  and  C_36
    3  A    between atoms: C_6  and  C_31
    4  A    between atoms: C_11  and  C_33
    5  A    between atoms: O_27  and  C_33
    6  A    between atoms: C_29  and  C_36
    7  A    between atoms: C_33  and  C_36
                            x       y       z     vdW  Elec       q    Type
                         _______ _______ _______ _____ _____    ______ ____

>  <TORSDO>
F 7

$$$$
=
 OpenBabel10262423043D

 37 43  0  0  1  0  0  0  0  0999 V2000
  178.9640  182.2870  138.8720 O   0  0  0  0  0  1  0  0  0  0  0  0
  180.9690  178.6460  135.8540 C   0  0  0  0  0  2  0  0  0  0  0  0
  179.6100  178.8280  138.0280 C   0  0  0  0  0  2  0  0  0  0  0  0
  182.8440  178.0010  137.6870 C   0  0  2  0  0  3  0  0  0  0  0  0
  183.2510  181.2110  138.5530 O   0  0  0  0  0  1  0  0  0  0  0  0
  184.3600  177.8830  137.7280 C   0  0  0  0  0  2  0  0  0  0  0  0
  180.3240  179.5660  136.8830 C   0  0  1  0  0  0  0  0  0  0  0  0
  182.0640  180.4810  138.4920 C   0  0  1  0  0  0  0  0  0  0  0  0
  179.7160  181.1480  138.5900 C   0  0  2  0  0  0  0  0  0  0  0  0
  182.8230  177.0110  135.3880 C   0  0  0  0  0  2  0  0  0  0  0  0
  181.4740  180.6000  137.1100 C   0  0  2  0  0  3  0  0  0  0  0  0
  180.0800  181.0690  137.1130 C   0  0  1  0  0  3  0  0  0  0  0  0
  182.4320  178.2360  136.2000 C   0  0  1  0  0  3  0  0  0  0  0  0
  182.3480  178.9860  138.8030 C   0  0  2  0  0  3  0  0  0  0  0  0
  178.9310  179.8900  138.8730 C   0  0  0  0  0  2  0  0  0  0  0  0
  184.8990  176.9130  136.7060 C   0  0  0  0  0  0  0  0  0  0  0  0
  181.0180  181.1250  139.4000 C   0  0  0  0  0  2  0  0  0  0  0  0
  184.2080  176.6050  135.6420 N   0  0  0  0  0  0  0  0  0  0  0  0
  186.5310  175.0200  136.8590 C   0  0  0  0  0  3  0  0  0  0  0  0
  186.2790  176.4020  136.8530 C   0  0  0  0  0  0  0  0  0  0  0  0
  187.3570  177.2920  136.9770 C   0  0  0  0  0  3  0  0  0  0  0  0
  189.6960  177.6770  137.2270 F   0  0  0  0  0  0  0  0  0  0  0  0
  188.9030  175.4330  137.1140 C   0  0  0  0  0  3  0  0  0  0  0  0
  188.6630  176.8100  137.1080 C   0  0  0  0  0  0  0  0  0  0  0  0
  187.8360  174.5390  136.9900 C   0  0  0  0  0  3  0  0  0  0  0  0
  182.5590  178.6100  140.2800 C   0  0  2  0  0  3  0  0  0  0  0  0
  184.0170  178.4740  140.7350 C   0  0  0  0  0  2  0  0  0  0  0  0
  184.1580  178.0230  142.1850 C   0  0  2  0  0  3  0  0  0  0  0  0
  186.4170  178.8770  141.8660 O   0  0  0  0  0  1  0  0  0  0  0  0
  184.3900  179.2350  143.0630 C   0  0  0  0  0  2  0  0  0  0  0  0
  185.5410  178.2910  142.7860 C   0  0  1  0  0  3  0  0  0  0  0  0
  181.5550  177.5910  140.8410 C   0  0  2  0  0  3  0  0  0  0  0  0
  181.3370  176.4170  139.8810 C   0  0  2  0  0  3  0  0  0  0  0  0
  180.1310  175.5720  140.2590 C   0  0  0  0  0  1  0  0  0  0  0  0
  182.4660  175.6190  139.8540 F   0  0  0  0  0  0  0  0  0  0  0  0
  180.5830  178.7570  142.4620 C   0  0  0  0  0  1  0  0  0  0  0  0
  180.3430  178.1890  141.2100 O   0  0  0  0  0  0  0  0  0  0  0  0
  2 13  1  0  0  0  0
  3 15  1  0  0  0  0
  4  6  1  6  0  0  0
  4 14  1  0  0  0  0
  7  2  1  6  0  0  0
  7 11  1  0  0  0  0
  7 12  1  0  0  0  0
  7  3  1  0  0  0  0
  8  5  1  1  0  0  0
  8 14  1  0  0  0  0
  8 17  1  0  0  0  0
  9  1  1  1  0  0  0
  9 15  1  0  0  0  0
  9 17  1  0  0  0  0
 10 18  1  0  0  0  0
 10 13  1  0  0  0  0
 11 12  1  0  0  0  0
 11  8  1  0  0  0  0
 12  9  1  0  0  0  0
 13  4  1  0  0  0  0
 14 26  1  0  0  0  0
 16 20  1  0  0  0  0
 16  6  1  0  0  0  0
 18 16  2  0  0  0  0
 19 25  1  0  0  0  0
 20 19  2  0  0  0  0
 20 21  1  0  0  0  0
 21 24  2  0  0  0  0
 24 23  1  0  0  0  0
 24 22  1  0  0  0  0
 25 23  2  0  0  0  0
 26 27  1  0  0  0  0
 26 32  1  0  0  0  0
 27 28  1  0  0  0  0
 28 31  1  0  0  0  0
 28 30  1  0  0  0  0
 29 31  1  0  0  0  0
 31 30  1  0  0  0  0
 32 37  1  0  0  0  0
 33 34  1  0  0  0  0
 33 32  1  0  0  0  0
 35 33  1  0  0  0  0
 37 36  1  0  0  0  0
M  END
>  <MODEL>
4

>  <REMARK>
 VINA RESULT:      -5.7      3.188      6.232
  Name = 
  7 active torsions:
  status: ('A' for Active; 'I' for Inactive)
    1  A    between atoms: C_1  and  C_5
    2  A    between atoms: C_1  and  C_36
    3  A    between atoms: C_6  and  C_31
    4  A    between atoms: C_11  and  C_33
    5  A    between atoms: O_27  and  C_33
    6  A    between atoms: C_29  and  C_36
    7  A    between atoms: C_33  and  C_36
                            x       y       z     vdW  Elec       q    Type
                         _______ _______ _______ _____ _____    ______ ____

>  <TORSDO>
F 7

$$$$
=
 OpenBabel10262423043D

 37 43  0  0  1  0  0  0  0  0999 V2000
  189.7870  177.8110  134.5960 O   0  0  0  0  0  1  0  0  0  0  0  0
  189.5410  177.7700  139.7270 C   0  0  0  0  0  2  0  0  0  0  0  0
  189.2580  176.1390  137.7610 C   0  0  0  0  0  2  0  0  0  0  0  0
  186.8600  177.4490  139.7070 C   0  0  2  0  0  3  0  0  0  0  0  0
  186.5290  179.5000  137.0790 O   0  0  0  0  0  1  0  0  0  0  0  0
  185.6540  178.1570  140.3070 C   0  0  0  0  0  2  0  0  0  0  0  0
  189.5430  177.5800  138.2150 C   0  0  1  0  0  0  0  0  0  0  0  0
  187.3570  178.3850  137.2000 C   0  0  1  0  0  0  0  0  0  0  0  0
  189.2030  177.5510  135.8340 C   0  0  2  0  0  0  0  0  0  0  0  0
  188.1460  177.8390  141.8190 C   0  0  0  0  0  2  0  0  0  0  0  0
  188.6890  178.8090  137.7660 C   0  0  2  0  0  3  0  0  0  0  0  0
  189.8300  178.3910  136.9380 C   0  0  1  0  0  3  0  0  0  0  0  0
  188.1390  178.1010  140.3210 C   0  0  1  0  0  3  0  0  0  0  0  0
  186.7050  177.3430  138.1500 C   0  0  2  0  0  3  0  0  0  0  0  0
  189.4240  176.1170  136.2530 C   0  0  0  0  0  2  0  0  0  0  0  0
  185.7210  178.2520  141.8120 C   0  0  0  0  0  0  0  0  0  0  0  0
  187.6980  177.8450  135.8130 C   0  0  0  0  0  2  0  0  0  0  0  0
  186.8620  178.1740  142.4410 N   0  0  0  0  0  0  0  0  0  0  0  0
  184.5540  178.8720  143.9390 C   0  0  0  0  0  3  0  0  0  0  0  0
  184.4900  178.5630  142.5700 C   0  0  0  0  0  0  0  0  0  0  0  0
  183.2400  178.5630  141.9300 C   0  0  0  0  0  3  0  0  0  0  0  0
  180.8780  178.8620  142.0180 F   0  0  0  0  0  0  0  0  0  0  0  0
  182.1530  179.1690  144.0070 C   0  0  0  0  0  3  0  0  0  0  0  0
  182.0780  178.8640  142.6460 C   0  0  0  0  0  0  0  0  0  0  0  0
  183.3920  179.1730  144.6540 C   0  0  0  0  0  3  0  0  0  0  0  0
  185.5630  176.4910  137.5690 C   0  0  2  0  0  3  0  0  0  0  0  0
  185.9750  175.1510  136.9480 C   0  0  0  0  0  2  0  0  0  0  0  0
  185.2080  173.9600  137.5160 C   0  0  2  0  0  3  0  0  0  0  0  0
  185.1470  173.3230  135.1650 O   0  0  0  0  0  1  0  0  0  0  0  0
  186.0130  172.6980  137.2930 C   0  0  0  0  0  2  0  0  0  0  0  0
  184.7740  172.9420  136.4580 C   0  0  1  0  0  3  0  0  0  0  0  0
  184.4640  177.2860  136.8450 C   0  0  2  0  0  3  0  0  0  0  0  0
  183.1710  177.3470  137.6650 C   0  0  2  0  0  3  0  0  0  0  0  0
  182.9600  178.7050  138.3160 C   0  0  0  0  0  1  0  0  0  0  0  0
  183.1890  176.3690  138.6420 F   0  0  0  0  0  0  0  0  0  0  0  0
  184.0010  177.9500  134.7770 C   0  0  0  0  0  1  0  0  0  0  0  0
  184.2320  176.8100  135.5490 O   0  0  0  0  0  0  0  0  0  0  0  0
  2 13  1  0  0  0  0
  4  6  1  6  0  0  0
  4 13  1  0  0  0  0
  6 16  1  0  0  0  0
  7  3  1  6  0  0  0
  7  2  1  0  0  0  0
  8  5  1  6  0  0  0
  8 11  1  0  0  0  0
  8 14  1  0  0  0  0
  9  1  1  6  0  0  0
  9 15  1  0  0  0  0
  9 12  1  0  0  0  0
 10 18  1  0  0  0  0
 11  7  1  0  0  0  0
 12 11  1  0  0  0  0
 12  7  1  0  0  0  0
 13 10  1  0  0  0  0
 14  4  1  0  0  0  0
 15  3  1  0  0  0  0
 16 18  2  0  0  0  0
 16 20  1  0  0  0  0
 17  9  1  0  0  0  0
 17  8  1  0  0  0  0
 19 25  1  0  0  0  0
 20 19  2  0  0  0  0
 21 20  1  0  0  0  0
 21 24  2  0  0  0  0
 22 24  1  0  0  0  0
 23 25  2  0  0  0  0
 24 23  1  0  0  0  0
 26 14  1  0  0  0  0
 27 28  1  0  0  0  0
 27 26  1  0  0  0  0
 29 31  1  0  0  0  0
 30 28  1  0  0  0  0
 31 30  1  0  0  0  0
 31 28  1  0  0  0  0
 32 26  1  0  0  0  0
 32 33  1  0  0  0  0
 33 34  1  0  0  0  0
 33 35  1  0  0  0  0
 36 37  1  0  0  0  0
 37 32  1  0  0  0  0
M  END
>  <MODEL>
5

>  <REMARK>
 VINA RESULT:      -5.7      3.176      7.442
  Name = 
  7 active torsions:
  status: ('A' for Active; 'I' for Inactive)
    1  A    between atoms: C_1  and  C_5
    2  A    between atoms: C_1  and  C_36
    3  A    between atoms: C_6  and  C_31
    4  A    between atoms: C_11  and  C_33
    5  A    between atoms: O_27  and  C_33
    6  A    between atoms: C_29  and  C_36
    7  A    between atoms: C_33  and  C_36
                            x       y       z     vdW  Elec       q    Type
                         _______ _______ _______ _____ _____    ______ ____

>  <TORSDO>
F 7

$$$$
=
 OpenBabel10262423043D

 37 43  0  0  1  0  0  0  0  0999 V2000
  190.8810  176.1160  134.7800 O   0  0  0  0  0  1  0  0  0  0  0  0
  188.9190  177.9230  139.1710 C   0  0  0  0  0  2  0  0  0  0  0  0
  189.2420  175.6700  137.9760 C   0  0  0  0  0  2  0  0  0  0  0  0
  186.3900  177.3880  138.3910 C   0  0  2  0  0  3  0  0  0  0  0  0
  187.0560  178.3060  135.2400 O   0  0  0  0  0  1  0  0  0  0  0  0
  185.0850  178.1600  138.2540 C   0  0  0  0  0  2  0  0  0  0  0  0
  189.4220  177.1970  137.9290 C   0  0  1  0  0  0  0  0  0  0  0  0
  187.7440  177.3870  136.0310 C   0  0  1  0  0  0  0  0  0  0  0  0
  189.9030  176.2750  135.7600 C   0  0  2  0  0  0  0  0  0  0  0  0
  186.9060  178.6280  140.5040 C   0  0  0  0  0  2  0  0  0  0  0  0
  188.8250  178.1010  136.8030 C   0  0  2  0  0  3  0  0  0  0  0  0
  190.1590  177.5100  136.6140 C   0  0  1  0  0  3  0  0  0  0  0  0
  187.4160  178.3250  139.1030 C   0  0  1  0  0  3  0  0  0  0  0  0
  186.7640  176.7100  137.0280 C   0  0  2  0  0  3  0  0  0  0  0  0
  189.9050  175.1160  136.7290 C   0  0  0  0  0  2  0  0  0  0  0  0
  184.6460  178.8010  139.5470 C   0  0  0  0  0  0  0  0  0  0  0  0
  188.5070  176.4110  135.1380 C   0  0  0  0  0  2  0  0  0  0  0  0
  185.5040  179.0550  140.4980 N   0  0  0  0  0  0  0  0  0  0  0  0
  182.6590  180.0660  138.6980 C   0  0  0  0  0  3  0  0  0  0  0  0
  183.2470  179.2590  139.6860 C   0  0  0  0  0  0  0  0  0  0  0  0
  182.4830  178.8850  140.8030 C   0  0  0  0  0  3  0  0  0  0  0  0
  180.4300  178.9450  142.0120 F   0  0  0  0  0  0  0  0  0  0  0  0
  180.5830  180.1140  139.9420 C   0  0  0  0  0  3  0  0  0  0  0  0
  181.1580  179.3120  140.9310 C   0  0  0  0  0  0  0  0  0  0  0  0
  181.3340  180.4920  138.8260 C   0  0  0  0  0  3  0  0  0  0  0  0
  185.8470  175.6110  136.4630 C   0  0  2  0  0  3  0  0  0  0  0  0
  184.3790  176.0020  136.2570 C   0  0  0  0  0  2  0  0  0  0  0  0
  183.9340  175.9340  134.8000 C   0  0  2  0  0  3  0  0  0  0  0  0
  181.9310  174.9940  135.8180 O   0  0  0  0  0  1  0  0  0  0  0  0
  182.7560  176.8630  134.5950 C   0  0  0  0  0  2  0  0  0  0  0  0
  182.5250  175.3660  134.6080 C   0  0  1  0  0  3  0  0  0  0  0  0
  186.1240  174.1960  136.9990 C   0  0  2  0  0  3  0  0  0  0  0  0
  186.4730  173.2180  135.8730 C   0  0  2  0  0  3  0  0  0  0  0  0
  187.8250  172.5540  136.0780 C   0  0  0  0  0  1  0  0  0  0  0  0
  186.4670  173.8800  134.6580 F   0  0  0  0  0  0  0  0  0  0  0  0
  184.4630  172.7220  137.0300 C   0  0  0  0  0  1  0  0  0  0  0  0
  185.0750  173.7170  137.7940 O   0  0  0  0  0  0  0  0  0  0  0  0
  4  6  1  6  0  0  0
  4 13  1  0  0  0  0
  6 16  1  0  0  0  0
  7  3  1  6  0  0  0
  7  2  1  0  0  0  0
  8  5  1  6  0  0  0
  8 11  1  0  0  0  0
  8 14  1  0  0  0  0
  9  1  1  6  0  0  0
  9 12  1  0  0  0  0
  9 15  1  0  0  0  0
 11  7  1  0  0  0  0
 12 11  1  0  0  0  0
 12  7  1  0  0  0  0
 13  2  1  0  0  0  0
 13 10  1  0  0  0  0
 14  4  1  0  0  0  0
 15  3  1  0  0  0  0
 16 20  1  0  0  0  0
 16 18  2  0  0  0  0
 17  9  1  0  0  0  0
 17  8  1  0  0  0  0
 18 10  1  0  0  0  0
 19 25  2  0  0  0  0
 19 20  1  0  0  0  0
 20 21  2  0  0  0  0
 21 24  1  0  0  0  0
 23 24  2  0  0  0  0
 24 22  1  0  0  0  0
 25 23  1  0  0  0  0
 26 32  1  0  0  0  0
 26 14  1  0  0  0  0
 27 26  1  0  0  0  0
 28 27  1  0  0  0  0
 30 31  1  0  0  0  0
 30 28  1  0  0  0  0
 31 28  1  0  0  0  0
 31 29  1  0  0  0  0
 32 37  1  0  0  0  0
 33 34  1  0  0  0  0
 33 32  1  0  0  0  0
 35 33  1  0  0  0  0
 36 37  1  0  0  0  0
M  END
>  <MODEL>
6

>  <REMARK>
 VINA RESULT:      -5.6      2.843      7.572
  Name = 
  7 active torsions:
  status: ('A' for Active; 'I' for Inactive)
    1  A    between atoms: C_1  and  C_5
    2  A    between atoms: C_1  and  C_36
    3  A    between atoms: C_6  and  C_31
    4  A    between atoms: C_11  and  C_33
    5  A    between atoms: O_27  and  C_33
    6  A    between atoms: C_29  and  C_36
    7  A    between atoms: C_33  and  C_36
                            x       y       z     vdW  Elec       q    Type
                         _______ _______ _______ _____ _____    ______ ____

>  <TORSDO>
F 7

$$$$
=
 OpenBabel10262423043D

 37 43  0  0  1  0  0  0  0  0999 V2000
  192.0020  175.8700  143.8350 O   0  0  0  0  0  1  0  0  0  0  0  0
  188.7910  178.3770  140.7050 C   0  0  0  0  0  2  0  0  0  0  0  0
  190.1080  178.7990  142.8720 C   0  0  0  0  0  2  0  0  0  0  0  0
  186.8020  178.3370  142.5300 C   0  0  2  0  0  3  0  0  0  0  0  0
  187.6270  175.2430  143.5150 O   0  0  0  0  0  1  0  0  0  0  0  0
  185.3520  177.8780  142.5800 C   0  0  0  0  0  2  0  0  0  0  0  0
  189.7300  177.8050  141.7610 C   0  0  1  0  0  0  0  0  0  0  0  0
  188.4520  176.3630  143.4170 C   0  0  1  0  0  0  0  0  0  0  0  0
  190.8790  176.6320  143.5180 C   0  0  2  0  0  0  0  0  0  0  0  0
  186.4610  179.1770  140.1970 C   0  0  0  0  0  2  0  0  0  0  0  0
  189.0520  176.4250  142.0350 C   0  0  2  0  0  3  0  0  0  0  0  0
  190.5200  176.5140  142.0430 C   0  0  1  0  0  3  0  0  0  0  0  0
  187.2800  178.2190  141.0490 C   0  0  1  0  0  3  0  0  0  0  0  0
  187.6260  177.6530  143.6760 C   0  0  2  0  0  3  0  0  0  0  0  0
  191.1310  178.1030  143.7480 C   0  0  0  0  0  2  0  0  0  0  0  0
  184.4940  178.5360  141.5280 C   0  0  0  0  0  0  0  0  0  0  0  0
  189.6590  176.1940  144.3380 C   0  0  0  0  0  2  0  0  0  0  0  0
  185.0230  179.0420  140.4480 N   0  0  0  0  0  0  0  0  0  0  0  0
  182.2050  178.2670  140.5490 C   0  0  0  0  0  3  0  0  0  0  0  0
  183.0230  178.4950  141.6690 C   0  0  0  0  0  0  0  0  0  0  0  0
  182.4220  178.6740  142.9250 C   0  0  0  0  0  3  0  0  0  0  0  0
  180.4630  178.8010  144.2760 F   0  0  0  0  0  0  0  0  0  0  0  0
  180.2280  178.4010  141.9390 C   0  0  0  0  0  3  0  0  0  0  0  0
  181.0310  178.6280  143.0590 C   0  0  0  0  0  0  0  0  0  0  0  0
  180.8150  178.2210  140.6840 C   0  0  0  0  0  3  0  0  0  0  0  0
  187.2810  177.9750  145.1400 C   0  0  2  0  0  3  0  0  0  0  0  0
  188.1610  177.3010  146.2010 C   0  0  0  0  0  2  0  0  0  0  0  0
  189.0790  178.2750  146.9320 C   0  0  2  0  0  3  0  0  0  0  0  0
  187.9300  177.3570  148.8740 O   0  0  0  0  0  1  0  0  0  0  0  0
  190.0480  177.4940  147.7940 C   0  0  0  0  0  2  0  0  0  0  0  0
  188.9180  178.2550  148.4550 C   0  0  1  0  0  3  0  0  0  0  0  0
  185.7780  178.0800  145.4450 C   0  0  2  0  0  3  0  0  0  0  0  0
  185.3790  179.4990  145.8630 C   0  0  2  0  0  3  0  0  0  0  0  0
  184.9630  180.3580  144.6790 C   0  0  0  0  0  1  0  0  0  0  0  0
  186.4300  180.1060  146.5240 F   0  0  0  0  0  0  0  0  0  0  0  0
  184.6510  177.8490  147.3450 C   0  0  0  0  0  1  0  0  0  0  0  0
  185.3600  177.1270  146.3830 O   0  0  0  0  0  0  0  0  0  0  0  0
  2 13  1  0  0  0  0
  3 15  1  0  0  0  0
  4  6  1  6  0  0  0
  4 14  1  0  0  0  0
  7  2  1  6  0  0  0
  7 11  1  0  0  0  0
  7 12  1  0  0  0  0
  7  3  1  0  0  0  0
  8  5  1  1  0  0  0
  8 14  1  0  0  0  0
  8 17  1  0  0  0  0
  9 15  1  0  0  0  0
  9  1  1  1  0  0  0
  9 17  1  0  0  0  0
 10 18  1  0  0  0  0
 10 13  1  0  0  0  0
 11 12  1  0  0  0  0
 11  8  1  0  0  0  0
 12  9  1  0  0  0  0
 13  4  1  0  0  0  0
 14 26  1  0  0  0  0
 16 20  1  0  0  0  0
 16  6  1  0  0  0  0
 18 16  2  0  0  0  0
 19 25  2  0  0  0  0
 19 20  1  0  0  0  0
 20 21  2  0  0  0  0
 21 24  1  0  0  0  0
 23 24  2  0  0  0  0
 24 22  1  0  0  0  0
 25 23  1  0  0  0  0
 26 32  1  0  0  0  0
 26 27  1  0  0  0  0
 27 28  1  0  0  0  0
 28 30  1  0  0  0  0
 28 31  1  0  0  0  0
 30 31  1  0  0  0  0
 31 29  1  0  0  0  0
 32 33  1  0  0  0  0
 32 37  1  0  0  0  0
 33 35  1  0  0  0  0
 34 33  1  0  0  0  0
 37 36  1  0  0  0  0
M  END
>  <MODEL>
7

>  <REMARK>
 VINA RESULT:      -5.6      6.011      9.896
  Name = 
  7 active torsions:
  status: ('A' for Active; 'I' for Inactive)
    1  A    between atoms: C_1  and  C_5
    2  A    between atoms: C_1  and  C_36
    3  A    between atoms: C_6  and  C_31
    4  A    between atoms: C_11  and  C_33
    5  A    between atoms: O_27  and  C_33
    6  A    between atoms: C_29  and  C_36
    7  A    between atoms: C_33  and  C_36
                            x       y       z     vdW  Elec       q    Type
                         _______ _______ _______ _____ _____    ______ ____

>  <TORSDO>
F 7

$$$$
=
 OpenBabel10262423043D

 37 43  0  0  1  0  0  0  0  0999 V2000
  191.1460  176.1390  134.9540 O   0  0  0  0  0  1  0  0  0  0  0  0
  189.1590  178.0040  139.3100 C   0  0  0  0  0  2  0  0  0  0  0  0
  189.5760  175.7280  138.1890 C   0  0  0  0  0  2  0  0  0  0  0  0
  186.6490  177.3180  138.5900 C   0  0  2  0  0  3  0  0  0  0  0  0
  187.2240  178.1550  135.3970 O   0  0  0  0  0  1  0  0  0  0  0  0
  185.3060  178.0190  138.4460 C   0  0  0  0  0  2  0  0  0  0  0  0
  189.6800  177.2590  138.0860 C   0  0  1  0  0  0  0  0  0  0  0  0
  187.9680  177.2990  136.2090 C   0  0  1  0  0  0  0  0  0  0  0  0
  190.1750  176.2850  135.9430 C   0  0  2  0  0  0  0  0  0  0  0  0
  187.1330  178.6560  140.6490 C   0  0  0  0  0  2  0  0  0  0  0  0
  189.0230  178.0910  136.9390 C   0  0  2  0  0  3  0  0  0  0  0  0
  190.3810  177.5600  136.7490 C   0  0  1  0  0  3  0  0  0  0  0  0
  187.6370  178.3290  139.2520 C   0  0  1  0  0  3  0  0  0  0  0  0
  187.0360  176.6100  137.2450 C   0  0  2  0  0  3  0  0  0  0  0  0
  190.2480  175.1630  136.9520 C   0  0  0  0  0  2  0  0  0  0  0  0
  184.8540  178.6840  139.7230 C   0  0  0  0  0  0  0  0  0  0  0  0
  188.7660  176.3300  135.3390 C   0  0  0  0  0  2  0  0  0  0  0  0
  185.7110  179.0130  140.6500 N   0  0  0  0  0  0  0  0  0  0  0  0
  182.8110  179.8690  138.8890 C   0  0  0  0  0  3  0  0  0  0  0  0
  183.4360  179.0770  139.8680 C   0  0  0  0  0  0  0  0  0  0  0  0
  182.6910  178.6570  140.9810 C   0  0  0  0  0  3  0  0  0  0  0  0
  180.6390  178.6110  142.1910 F   0  0  0  0  0  0  0  0  0  0  0  0
  180.7370  179.8110  140.1350 C   0  0  0  0  0  3  0  0  0  0  0  0
  181.3480  179.0230  141.1140 C   0  0  0  0  0  0  0  0  0  0  0  0
  181.4690  180.2340  139.0230 C   0  0  0  0  0  3  0  0  0  0  0  0
  186.1680  175.4480  136.7330 C   0  0  2  0  0  3  0  0  0  0  0  0
  186.8840  174.4060  135.8660 C   0  0  0  0  0  2  0  0  0  0  0  0
  187.1160  173.0790  136.5820 C   0  0  2  0  0  3  0  0  0  0  0  0
  185.4100  172.3330  135.0130 O   0  0  0  0  0  1  0  0  0  0  0  0
  187.7020  172.0820  135.6050 C   0  0  0  0  0  2  0  0  0  0  0  0
  186.2610  171.9280  136.0460 C   0  0  1  0  0  3  0  0  0  0  0  0
  184.7400  175.8390  136.3180 C   0  0  2  0  0  3  0  0  0  0  0  0
  183.6880  174.9480  136.9860 C   0  0  2  0  0  3  0  0  0  0  0  0
  182.4590  175.7290  137.4240 C   0  0  0  0  0  1  0  0  0  0  0  0
  184.2410  174.3100  138.0810 F   0  0  0  0  0  0  0  0  0  0  0  0
  184.4560  177.2220  134.6030 C   0  0  0  0  0  1  0  0  0  0  0  0
  184.5840  175.8700  134.9260 O   0  0  0  0  0  0  0  0  0  0  0  0
  4  6  1  6  0  0  0
  4 13  1  0  0  0  0
  6 16  1  0  0  0  0
  7  3  1  6  0  0  0
  7  2  1  0  0  0  0
  8  5  1  6  0  0  0
  8 11  1  0  0  0  0
  8 14  1  0  0  0  0
  9  1  1  6  0  0  0
  9 12  1  0  0  0  0
  9 15  1  0  0  0  0
 10 18  1  0  0  0  0
 11  7  1  0  0  0  0
 12 11  1  0  0  0  0
 12  7  1  0  0  0  0
 13  2  1  0  0  0  0
 13 10  1  0  0  0  0
 14  4  1  0  0  0  0
 15  3  1  0  0  0  0
 16 20  1  0  0  0  0
 16 18  2  0  0  0  0
 17  9  1  0  0  0  0
 17  8  1  0  0  0  0
 19 25  2  0  0  0  0
 19 20  1  0  0  0  0
 20 21  2  0  0  0  0
 21 24  1  0  0  0  0
 23 24  2  0  0  0  0
 24 22  1  0  0  0  0
 25 23  1  0  0  0  0
 26 14  1  0  0  0  0
 27 28  1  0  0  0  0
 27 26  1  0  0  0  0
 29 31  1  0  0  0  0
 30 31  1  0  0  0  0
 30 28  1  0  0  0  0
 31 28  1  0  0  0  0
 32 26  1  0  0  0  0
 32 33  1  0  0  0  0
 33 34  1  0  0  0  0
 33 35  1  0  0  0  0
 36 37  1  0  0  0  0
 37 32  1  0  0  0  0
M  END
>  <MODEL>
8

>  <REMARK>
 VINA RESULT:      -5.4      2.905      7.733
  Name = 
  7 active torsions:
  status: ('A' for Active; 'I' for Inactive)
    1  A    between atoms: C_1  and  C_5
    2  A    between atoms: C_1  and  C_36
    3  A    between atoms: C_6  and  C_31
    4  A    between atoms: C_11  and  C_33
    5  A    between atoms: O_27  and  C_33
    6  A    between atoms: C_29  and  C_36
    7  A    between atoms: C_33  and  C_36
                            x       y       z     vdW  Elec       q    Type
                         _______ _______ _______ _____ _____    ______ ____

>  <TORSDO>
F 7

$$$$
=
 OpenBabel10262423043D

 37 43  0  0  1  0  0  0  0  0999 V2000
  179.5920  179.3160  141.4230 O   0  0  0  0  0  1  0  0  0  0  0  0
  184.3860  179.3220  139.5760 C   0  0  0  0  0  2  0  0  0  0  0  0
  182.0360  180.0870  138.8680 C   0  0  0  0  0  2  0  0  0  0  0  0
  183.7860  177.4730  137.7030 C   0  0  2  0  0  3  0  0  0  0  0  0
  181.7930  175.8170  139.8260 O   0  0  0  0  0  1  0  0  0  0  0  0
  184.3220  176.1140  137.2740 C   0  0  0  0  0  2  0  0  0  0  0  0
  182.9050  179.3960  139.9320 C   0  0  1  0  0  0  0  0  0  0  0  0
  181.7600  177.1710  139.4940 C   0  0  1  0  0  0  0  0  0  0  0  0
  180.5840  179.0760  140.4740 C   0  0  2  0  0  0  0  0  0  0  0  0
  186.1240  178.2790  138.0880 C   0  0  0  0  0  2  0  0  0  0  0  0
  182.6550  177.9390  140.4350 C   0  0  2  0  0  3  0  0  0  0  0  0
  181.9700  179.0540  141.1050 C   0  0  1  0  0  3  0  0  0  0  0  0
  184.7770  178.0560  138.7580 C   0  0  1  0  0  3  0  0  0  0  0  0
  182.2570  177.3710  138.0360 C   0  0  2  0  0  3  0  0  0  0  0  0
  180.6360  180.1790  139.4440 C   0  0  0  0  0  2  0  0  0  0  0  0
  185.7810  176.1540  136.8960 C   0  0  0  0  0  0  0  0  0  0  0  0
  180.3660  177.7330  139.7660 C   0  0  0  0  0  2  0  0  0  0  0  0
  186.5650  177.1000  137.3370 N   0  0  0  0  0  0  0  0  0  0  0  0
  187.7180  175.0290  135.7770 C   0  0  0  0  0  3  0  0  0  0  0  0
  186.3550  175.0370  136.1150 C   0  0  0  0  0  0  0  0  0  0  0  0
  185.5460  173.9630  135.7100 C   0  0  0  0  0  3  0  0  0  0  0  0
  185.3020  171.8720  134.5940 F   0  0  0  0  0  0  0  0  0  0  0  0
  187.4480  172.9050  134.6470 C   0  0  0  0  0  3  0  0  0  0  0  0
  186.0910  172.9030  134.9790 C   0  0  0  0  0  0  0  0  0  0  0  0
  188.2610  173.9690  135.0460 C   0  0  0  0  0  3  0  0  0  0  0  0
  181.2670  177.0230  136.9110 C   0  0  2  0  0  3  0  0  0  0  0  0
  180.2860  178.1320  136.5140 C   0  0  0  0  0  2  0  0  0  0  0  0
  180.2840  178.4310  135.0180 C   0  0  2  0  0  3  0  0  0  0  0  0
  180.6880  180.6940  135.8240 O   0  0  0  0  0  1  0  0  0  0  0  0
  181.6630  178.8980  134.6020 C   0  0  0  0  0  2  0  0  0  0  0  0
  180.5340  179.9040  134.6800 C   0  0  1  0  0  3  0  0  0  0  0  0
  180.7190  175.5870  136.9490 C   0  0  2  0  0  3  0  0  0  0  0  0
  181.1730  174.7710  135.7350 C   0  0  2  0  0  3  0  0  0  0  0  0
  181.6750  173.3880  136.1190 C   0  0  0  0  0  1  0  0  0  0  0  0
  182.1700  175.4500  135.0600 F   0  0  0  0  0  0  0  0  0  0  0  0
  179.0950  174.6480  138.1390 C   0  0  0  0  0  1  0  0  0  0  0  0
  179.3280  175.5560  137.1040 O   0  0  0  0  0  0  0  0  0  0  0  0
  2  7  1  0  0  0  0
  3 15  1  0  0  0  0
  4  6  1  1  0  0  0
  4 14  1  0  0  0  0
  4 13  1  0  0  0  0
  7  3  1  6  0  0  0
  7 11  1  0  0  0  0
  7 12  1  0  0  0  0
  8 17  1  0  0  0  0
  8  5  1  1  0  0  0
  8 11  1  0  0  0  0
  9 12  1  0  0  0  0
  9  1  1  1  0  0  0
 10 13  1  0  0  0  0
 11 12  1  0  0  0  0
 13  2  1  0  0  0  0
 14  8  1  0  0  0  0
 15  9  1  0  0  0  0
 16  6  1  0  0  0  0
 16 18  2  0  0  0  0
 17  9  1  0  0  0  0
 18 10  1  0  0  0  0
 19 20  1  0  0  0  0
 20 16  1  0  0  0  0
 21 20  2  0  0  0  0
 22 24  1  0  0  0  0
 23 24  2  0  0  0  0
 23 25  1  0  0  0  0
 24 21  1  0  0  0  0
 25 19  2  0  0  0  0
 26 32  1  0  0  0  0
 26 14  1  0  0  0  0
 27 26  1  0  0  0  0
 28 27  1  0  0  0  0
 30 31  1  0  0  0  0
 30 28  1  0  0  0  0
 31 28  1  0  0  0  0
 31 29  1  0  0  0  0
 32 37  1  0  0  0  0
 33 34  1  0  0  0  0
 33 32  1  0  0  0  0
 35 33  1  0  0  0  0
 37 36  1  0  0  0  0
M  END
>  <MODEL>
9

>  <REMARK>
 VINA RESULT:      -5.2      3.835      6.603
  Name = 
  7 active torsions:
  status: ('A' for Active; 'I' for Inactive)
    1  A    between atoms: C_1  and  C_5
    2  A    between atoms: C_1  and  C_36
    3  A    between atoms: C_6  and  C_31
    4  A    between atoms: C_11  and  C_33
    5  A    between atoms: O_27  and  C_33
    6  A    between atoms: C_29  and  C_36
    7  A    between atoms: C_33  and  C_36
                            x       y       z     vdW  Elec       q    Type
                         _______ _______ _______ _____ _____    ______ ____

>  <TORSDO>
F 7

$$$$
