=
 OpenBabel10262419293D

 31 34  0  0  0  0  0  0  0  0999 V2000
  191.0910  176.4190  147.3890 C   0  0  0  0  0  3  0  0  0  0  0  0
  188.3460  177.7940  143.9120 C   0  0  0  0  0  0  0  0  0  0  0  0
  186.9840  178.1010  144.2930 C   0  0  0  0  0  0  0  0  0  0  0  0
  185.1600  178.2540  145.9650 C   0  0  0  0  0  3  0  0  0  0  0  0
  189.3820  177.3770  144.8360 C   0  0  0  0  0  0  0  0  0  0  0  0
  191.8560  176.1730  146.3780 N   0  0  0  0  0  0  0  0  0  0  0  0
  186.5430  177.9690  145.5550 C   0  0  0  0  0  3  0  0  0  0  0  0
  189.9620  177.5550  142.0630 C   0  0  0  0  0  0  0  0  0  0  0  0
  189.8020  177.0890  147.3470 C   0  0  0  0  0  3  0  0  0  0  0  0
  186.4230  178.6090  141.9790 C   0  0  0  0  0  3  0  0  0  0  0  0
  184.2620  178.6750  145.0800 C   0  0  0  0  0  0  0  0  0  0  0  0
  190.8940  177.0720  142.9590 C   0  0  0  0  0  3  0  0  0  0  0  0
  188.6760  177.8940  142.5230 C   0  0  0  0  0  0  0  0  0  0  0  0
  189.1120  177.4760  146.2870 C   0  0  0  0  0  3  0  0  0  0  0  0
  182.9960  178.9300  145.4900 F   0  0  0  0  0  0  0  0  0  0  0  0
  190.6440  176.9690  144.3200 C   0  0  0  0  0  0  0  0  0  0  0  0
  191.6870  176.4630  144.9880 C   0  0  0  0  0  3  0  0  0  0  0  0
  187.7100  178.2900  141.5940 C   0  0  0  0  0  3  0  0  0  0  0  0
  186.0510  178.5220  143.3100 C   0  0  0  0  0  0  0  0  0  0  0  0
  184.6240  178.8880  143.6410 C   0  0  0  0  0  2  0  0  0  0  0  0
  190.3540  177.6390  140.7200 O   0  0  0  0  0  0  0  0  0  0  0  0
  190.6370  176.5070  139.9090 C   0  0  0  0  0  2  0  0  0  0  0  0
  190.4280  176.8640  138.4510 C   0  0  0  0  0  2  0  0  0  0  0  0
  189.2370  177.8000  138.2830 C   0  0  0  0  0  2  0  0  0  0  0  0
  187.9360  177.0490  138.0010 C   0  0  0  0  0  2  0  0  0  0  0  0
  186.7830  177.6070  135.6280 S   0  0  0  0  0  0  0  0  0  0  0  0
  186.9630  177.8820  137.2350 C   0  0  0  0  0  0  0  0  0  0  0  0
  184.8030  178.4290  138.5290 C   0  0  0  0  0  0  0  0  0  0  0  0
  184.1770  177.3470  138.2020 N   0  0  0  0  0  2  0  0  0  0  0  0
  184.1090  179.4450  139.3610 C   0  0  0  0  0  1  0  0  0  0  0  0
  186.0820  178.7480  137.9670 N   0  0  0  0  0  2  0  0  0  0  0  0
  2  3  1  0  0  0  0
  2  5  2  0  0  0  0
  3  7  2  0  0  0  0
  5 14  1  0  0  0  0
  6  1  2  0  0  0  0
  7  4  1  0  0  0  0
  8 13  1  0  0  0  0
  8 12  2  0  0  0  0
  9  1  1  0  0  0  0
 10 19  2  0  0  0  0
 11 15  1  0  0  0  0
 11  4  2  0  0  0  0
 12 16  1  0  0  0  0
 13  2  1  0  0  0  0
 14  9  2  0  0  0  0
 16  5  1  0  0  0  0
 16 17  2  0  0  0  0
 17  6  1  0  0  0  0
 18 10  1  0  0  0  0
 18 13  2  0  0  0  0
 19 20  1  0  0  0  0
 19  3  1  0  0  0  0
 20 11  1  0  0  0  0
 21  8  1  0  0  0  0
 22 21  1  0  0  0  0
 23 22  1  0  0  0  0
 24 23  1  0  0  0  0
 25 24  1  0  0  0  0
 26 27  2  0  0  0  0
 27 31  1  0  0  0  0
 27 25  1  0  0  0  0
 28 30  1  0  0  0  0
 29 28  2  0  0  0  0
 31 28  1  0  0  0  0
M  END
>  <MODEL>
1

>  <REMARK>
 VINA RESULT:      -9.6      0.000      0.000
  Name = 
  7 active torsions:
  status: ('A' for Active; 'I' for Inactive)
    1  A    between atoms: C_3  and  C_19
    2  A    between atoms: C_3  and  C_22
    3  A    between atoms: C_7  and  C_9
    4  A    between atoms: C_7  and  C_22
    5  A    between atoms: C_9  and  O_23
    6  A    between atoms: C_15  and  O_23
    7  A    between atoms: C_19  and  N_24
                            x       y       z     vdW  Elec       q    Type
                         _______ _______ _______ _____ _____    ______ ____

>  <TORSDO>
F 7

$$$$
=
 OpenBabel10262419293D

 31 34  0  0  1  0  0  0  0  0999 V2000
  184.3540  178.8000  145.6300 C   0  0  0  0  0  3  0  0  0  0  0  0
  188.5290  177.4090  144.1610 C   0  0  0  0  0  0  0  0  0  0  0  0
  189.4870  177.1380  145.2100 C   0  0  2  0  0  3  0  0  0  0  0  0
  190.1570  177.0590  147.5960 C   0  0  0  0  0  3  0  0  0  0  0  0
  187.1580  177.8230  144.3890 C   0  0  0  0  0  0  0  0  0  0  0  0
  184.2350  179.0090  144.3610 N   0  0  0  0  0  0  0  0  0  0  0  0
  189.1960  177.3060  146.5110 C   0  0  0  0  0  3  0  0  0  0  0  0
  188.1280  177.5740  141.7320 C   0  0  0  0  0  0  0  0  0  0  0  0
  185.4760  178.1560  146.2920 C   0  0  0  0  0  3  0  0  0  0  0  0
  191.1860  176.5930  143.5550 C   0  0  0  0  0  3  0  0  0  0  0  0
  191.3890  176.6380  147.3300 C   0  0  0  0  0  0  0  0  0  0  0  0
  186.8610  178.0570  141.9880 C   0  0  0  0  0  3  0  0  0  0  0  0
  188.9800  177.2730  142.8090 C   0  0  0  0  0  0  0  0  0  0  0  0
  186.6240  177.7610  145.7660 C   0  0  0  0  0  3  0  0  0  0  0  0
  192.2510  176.4180  148.3520 F   0  0  0  0  0  0  0  0  0  0  0  0
  186.3550  178.1940  143.2730 C   0  0  0  0  0  0  0  0  0  0  0  0
  185.1130  178.6920  143.2770 C   0  0  0  0  0  3  0  0  0  0  0  0
  190.2930  176.8770  142.5410 C   0  0  0  0  0  3  0  0  0  0  0  0
  190.8010  176.7160  144.8790 C   0  0  0  0  0  0  0  0  0  0  0  0
  191.8420  176.3870  145.9220 C   0  0  0  0  0  3  0  0  0  0  0  0
  188.5030  177.4540  140.3870 O   0  0  0  0  0  0  0  0  0  0  0  0
  188.7910  178.5630  139.5470 C   0  0  0  0  0  2  0  0  0  0  0  0
  188.5140  178.1890  138.1040 C   0  0  0  0  0  2  0  0  0  0  0  0
  188.1960  176.7040  137.9750 C   0  0  0  0  0  2  0  0  0  0  0  0
  189.0620  176.0080  136.9250 C   0  0  0  0  0  2  0  0  0  0  0  0
  190.5130  173.7380  136.8410 S   0  0  0  0  0  0  0  0  0  0  0  0
  190.1260  175.1670  137.5460 C   0  0  0  0  0  0  0  0  0  0  0  0
  192.1050  176.5080  138.5090 C   0  0  0  0  0  0  0  0  0  0  0  0
  192.7680  176.5740  137.4030 N   0  0  0  0  0  2  0  0  0  0  0  0
  192.6860  177.1030  139.7400 C   0  0  0  0  0  1  0  0  0  0  0  0
  190.9060  175.7290  138.6130 N   0  0  0  0  0  2  0  0  0  0  0  0
  1  9  1  0  0  0  0
  2  5  2  0  0  0  0
  2  3  1  0  0  0  0
  3  7  1  6  0  0  0
  5 14  1  0  0  0  0
  6  1  2  0  0  0  0
  7  4  2  0  0  0  0
  8 12  2  0  0  0  0
  8 13  1  0  0  0  0
 10 19  2  0  0  0  0
 11  4  1  0  0  0  0
 11 15  1  0  0  0  0
 12 16  1  0  0  0  0
 13  2  1  0  0  0  0
 14  9  2  0  0  0  0
 16 17  2  0  0  0  0
 16  5  1  0  0  0  0
 17  6  1  0  0  0  0
 18 13  2  0  0  0  0
 18 10  1  0  0  0  0
 19  3  1  0  0  0  0
 19 20  1  0  0  0  0
 20 11  2  0  0  0  0
 21  8  1  0  0  0  0
 22 21  1  0  0  0  0
 23 22  1  0  0  0  0
 24 23  1  0  0  0  0
 25 27  1  0  0  0  0
 25 24  1  0  0  0  0
 26 27  2  0  0  0  0
 27 31  1  0  0  0  0
 28 31  1  0  0  0  0
 28 30  1  0  0  0  0
 29 28  2  0  0  0  0
M  END
>  <MODEL>
2

>  <REMARK>
 VINA RESULT:      -9.4      3.199      5.396
  Name = 
  7 active torsions:
  status: ('A' for Active; 'I' for Inactive)
    1  A    between atoms: C_3  and  C_19
    2  A    between atoms: C_3  and  C_22
    3  A    between atoms: C_7  and  C_9
    4  A    between atoms: C_7  and  C_22
    5  A    between atoms: C_9  and  O_23
    6  A    between atoms: C_15  and  O_23
    7  A    between atoms: C_19  and  N_24
                            x       y       z     vdW  Elec       q    Type
                         _______ _______ _______ _____ _____    ______ ____

>  <TORSDO>
F 7

$$$$
=
 OpenBabel10262419293D

 31 34  0  0  1  0  0  0  0  0999 V2000
  184.3370  178.8390  145.4520 C   0  0  0  0  0  3  0  0  0  0  0  0
  188.5330  177.3950  144.1000 C   0  0  0  0  0  0  0  0  0  0  0  0
  189.4690  177.1460  145.1740 C   0  0  2  0  0  3  0  0  0  0  0  0
  190.0930  177.1220  147.5730 C   0  0  0  0  0  3  0  0  0  0  0  0
  187.1600  177.8210  144.2910 C   0  0  0  0  0  0  0  0  0  0  0  0
  184.2440  179.0170  144.1770 N   0  0  0  0  0  0  0  0  0  0  0  0
  189.1540  177.3470  146.4640 C   0  0  0  0  0  3  0  0  0  0  0  0
  188.1800  177.5030  141.6600 C   0  0  0  0  0  0  0  0  0  0  0  0
  185.4430  178.2060  146.1520 C   0  0  0  0  0  3  0  0  0  0  0  0
  191.1980  176.5540  143.5650 C   0  0  0  0  0  3  0  0  0  0  0  0
  191.3280  176.6890  147.3410 C   0  0  0  0  0  0  0  0  0  0  0  0
  186.9100  177.9970  141.8800 C   0  0  0  0  0  3  0  0  0  0  0  0
  189.0100  177.2240  142.7610 C   0  0  0  0  0  0  0  0  0  0  0  0
  186.5990  177.7940  145.6580 C   0  0  0  0  0  3  0  0  0  0  0  0
  192.1690  176.4900  148.3850 F   0  0  0  0  0  0  0  0  0  0  0  0
  186.3800  178.1680  143.1510 C   0  0  0  0  0  0  0  0  0  0  0  0
  185.1410  178.6710  143.1190 C   0  0  0  0  0  3  0  0  0  0  0  0
  190.3260  176.8170  142.5280 C   0  0  0  0  0  3  0  0  0  0  0  0
  190.7880  176.7100  144.8780 C   0  0  0  0  0  0  0  0  0  0  0  0
  191.8070  176.4020  145.9490 C   0  0  0  0  0  3  0  0  0  0  0  0
  188.5810  177.3490  140.3260 O   0  0  0  0  0  0  0  0  0  0  0  0
  188.0120  178.0720  139.2430 C   0  0  0  0  0  2  0  0  0  0  0  0
  189.0970  178.8610  138.5370 C   0  0  0  0  0  2  0  0  0  0  0  0
  189.1130  178.5530  137.0440 C   0  0  0  0  0  2  0  0  0  0  0  0
  188.4980  177.1910  136.7200 C   0  0  0  0  0  2  0  0  0  0  0  0
  188.9730  175.2650  134.8950 S   0  0  0  0  0  0  0  0  0  0  0  0
  189.4840  176.2680  136.0870 C   0  0  0  0  0  0  0  0  0  0  0  0
  191.5770  175.9530  137.5570 C   0  0  0  0  0  0  0  0  0  0  0  0
  190.9430  175.5180  138.5950 N   0  0  0  0  0  2  0  0  0  0  0  0
  193.0510  176.1270  137.6270 C   0  0  0  0  0  1  0  0  0  0  0  0
  190.8750  176.4330  136.4030 N   0  0  0  0  0  2  0  0  0  0  0  0
  1  9  1  0  0  0  0
  2  5  2  0  0  0  0
  2  3  1  0  0  0  0
  3  7  1  6  0  0  0
  5 14  1  0  0  0  0
  6  1  2  0  0  0  0
  7  4  2  0  0  0  0
  8 12  2  0  0  0  0
  8 13  1  0  0  0  0
 10 19  2  0  0  0  0
 11  4  1  0  0  0  0
 11 15  1  0  0  0  0
 12 16  1  0  0  0  0
 13  2  1  0  0  0  0
 14  9  2  0  0  0  0
 16  5  1  0  0  0  0
 17 16  2  0  0  0  0
 17  6  1  0  0  0  0
 18 13  2  0  0  0  0
 18 10  1  0  0  0  0
 19  3  1  0  0  0  0
 19 20  1  0  0  0  0
 20 11  2  0  0  0  0
 21  8  1  0  0  0  0
 22 21  1  0  0  0  0
 23 22  1  0  0  0  0
 24 23  1  0  0  0  0
 25 24  1  0  0  0  0
 26 27  2  0  0  0  0
 27 31  1  0  0  0  0
 27 25  1  0  0  0  0
 28 30  1  0  0  0  0
 28 29  2  0  0  0  0
 31 28  1  0  0  0  0
M  END
>  <MODEL>
3

>  <REMARK>
 VINA RESULT:      -9.3      3.076      5.260
  Name = 
  7 active torsions:
  status: ('A' for Active; 'I' for Inactive)
    1  A    between atoms: C_3  and  C_19
    2  A    between atoms: C_3  and  C_22
    3  A    between atoms: C_7  and  C_9
    4  A    between atoms: C_7  and  C_22
    5  A    between atoms: C_9  and  O_23
    6  A    between atoms: C_15  and  O_23
    7  A    between atoms: C_19  and  N_24
                            x       y       z     vdW  Elec       q    Type
                         _______ _______ _______ _____ _____    ______ ____

>  <TORSDO>
F 7

$$$$
=
 OpenBabel10262419293D

 31 34  0  0  1  0  0  0  0  0999 V2000
  190.3240  177.5140  139.7860 C   0  0  0  0  0  3  0  0  0  0  0  0
  188.5250  177.6040  144.0610 C   0  0  0  0  0  0  0  0  0  0  0  0
  189.4480  177.2620  145.1200 C   0  0  2  0  0  3  0  0  0  0  0  0
  191.6760  176.5430  145.9340 C   0  0  0  0  0  3  0  0  0  0  0  0
  188.8760  177.6710  142.6560 C   0  0  0  0  0  0  0  0  0  0  0  0
  189.0720  177.6600  139.5080 N   0  0  0  0  0  0  0  0  0  0  0  0
  190.7240  176.9150  144.8780 C   0  0  0  0  0  3  0  0  0  0  0  0
  186.1970  178.1580  143.4580 C   0  0  0  0  0  0  0  0  0  0  0  0
  190.9170  177.5390  141.1130 C   0  0  0  0  0  3  0  0  0  0  0  0
  187.6850  177.5230  146.7780 C   0  0  0  0  0  3  0  0  0  0  0  0
  191.3100  176.5400  147.2120 C   0  0  0  0  0  0  0  0  0  0  0  0
  186.5480  178.1200  142.1240 C   0  0  0  0  0  3  0  0  0  0  0  0
  187.1700  177.8760  144.4340 C   0  0  0  0  0  0  0  0  0  0  0  0
  190.3060  177.6030  142.2840 C   0  0  0  0  0  3  0  0  0  0  0  0
  192.2120  176.1930  148.1610 F   0  0  0  0  0  0  0  0  0  0  0  0
  187.8470  177.8820  141.6960 C   0  0  0  0  0  0  0  0  0  0  0  0
  187.9460  177.8790  140.3610 C   0  0  0  0  0  3  0  0  0  0  0  0
  186.7830  177.8220  145.7760 C   0  0  0  0  0  3  0  0  0  0  0  0
  189.0060  177.2460  146.4690 C   0  0  0  0  0  0  0  0  0  0  0  0
  189.9220  176.9280  147.6260 C   0  0  0  0  0  3  0  0  0  0  0  0
  184.8570  178.4410  143.7560 O   0  0  0  0  0  0  0  0  0  0  0  0
  183.9360  178.9750  142.8150 C   0  0  0  0  0  2  0  0  0  0  0  0
  182.5330  178.9040  143.3840 C   0  0  0  0  0  2  0  0  0  0  0  0
  181.4890  178.9910  142.2780 C   0  0  0  0  0  2  0  0  0  0  0  0
  181.7700  178.0230  141.1290 C   0  0  0  0  0  2  0  0  0  0  0  0
  180.9960  180.0860  139.5760 S   0  0  0  0  0  0  0  0  0  0  0  0
  181.8820  178.7270  139.8180 C   0  0  0  0  0  0  0  0  0  0  0  0
  184.2690  178.7380  138.8500 C   0  0  0  0  0  0  0  0  0  0  0  0
  184.6680  179.7810  139.4970 N   0  0  0  0  0  2  0  0  0  0  0  0
  185.1970  178.0780  137.8950 C   0  0  0  0  0  1  0  0  0  0  0  0
  182.9030  178.3060  138.9010 N   0  0  0  0  0  2  0  0  0  0  0  0
  1  9  1  0  0  0  0
  2 13  1  0  0  0  0
  2  3  1  0  0  0  0
  3  7  1  6  0  0  0
  3 19  1  0  0  0  0
  4 11  1  0  0  0  0
  5  2  2  0  0  0  0
  6  1  2  0  0  0  0
  6 17  1  0  0  0  0
  7  4  2  0  0  0  0
  8 21  1  0  0  0  0
  8 13  1  0  0  0  0
  9 14  2  0  0  0  0
 11 20  2  0  0  0  0
 11 15  1  0  0  0  0
 12  8  2  0  0  0  0
 13 18  2  0  0  0  0
 14  5  1  0  0  0  0
 16 12  1  0  0  0  0
 16  5  1  0  0  0  0
 17 16  2  0  0  0  0
 18 10  1  0  0  0  0
 19 10  2  0  0  0  0
 19 20  1  0  0  0  0
 22 23  1  0  0  0  0
 22 21  1  0  0  0  0
 24 23  1  0  0  0  0
 25 24  1  0  0  0  0
 26 27  2  0  0  0  0
 27 25  1  0  0  0  0
 28 31  1  0  0  0  0
 28 29  2  0  0  0  0
 30 28  1  0  0  0  0
 31 27  1  0  0  0  0
M  END
>  <MODEL>
4

>  <REMARK>
 VINA RESULT:      -9.2      3.068      5.815
  Name = 
  7 active torsions:
  status: ('A' for Active; 'I' for Inactive)
    1  A    between atoms: C_3  and  C_19
    2  A    between atoms: C_3  and  C_22
    3  A    between atoms: C_7  and  C_9
    4  A    between atoms: C_7  and  C_22
    5  A    between atoms: C_9  and  O_23
    6  A    between atoms: C_15  and  O_23
    7  A    between atoms: C_19  and  N_24
                            x       y       z     vdW  Elec       q    Type
                         _______ _______ _______ _____ _____    ______ ____

>  <TORSDO>
F 7

$$$$
=
 OpenBabel10262419293D

 31 34  0  0  0  0  0  0  0  0999 V2000
  188.5600  177.5510  148.4690 C   0  0  0  0  0  3  0  0  0  0  0  0
  186.9320  178.0690  144.1560 C   0  0  0  0  0  0  0  0  0  0  0  0
  185.5240  178.3920  144.0680 C   0  0  0  0  0  0  0  0  0  0  0  0
  183.3060  178.8090  145.0940 C   0  0  0  0  0  3  0  0  0  0  0  0
  187.6570  177.8930  145.3990 C   0  0  0  0  0  0  0  0  0  0  0  0
  189.5730  177.1340  147.7860 N   0  0  0  0  0  0  0  0  0  0  0  0
  184.7430  178.5030  145.1560 C   0  0  0  0  0  3  0  0  0  0  0  0
  188.9990  177.5220  142.9240 C   0  0  0  0  0  0  0  0  0  0  0  0
  187.3480  178.1450  147.9300 C   0  0  0  0  0  3  0  0  0  0  0  0
  185.6480  178.3890  141.6370 C   0  0  0  0  0  3  0  0  0  0  0  0
  182.7020  179.0030  143.9260 C   0  0  0  0  0  0  0  0  0  0  0  0
  189.6310  177.2720  144.1250 C   0  0  0  0  0  3  0  0  0  0  0  0
  187.6420  177.8940  142.9250 C   0  0  0  0  0  0  0  0  0  0  0  0
  186.9920  178.2770  146.6620 C   0  0  0  0  0  3  0  0  0  0  0  0
  181.3770  179.2850  143.9030 F   0  0  0  0  0  0  0  0  0  0  0  0
  189.0060  177.4400  145.3530 C   0  0  0  0  0  0  0  0  0  0  0  0
  189.8090  177.1250  146.3760 C   0  0  0  0  0  3  0  0  0  0  0  0
  186.9850  178.0510  141.7030 C   0  0  0  0  0  3  0  0  0  0  0  0
  184.9140  178.5630  142.7980 C   0  0  0  0  0  0  0  0  0  0  0  0
  183.4590  178.9300  142.6330 C   0  0  0  0  0  2  0  0  0  0  0  0
  189.7550  177.3430  141.7570 O   0  0  0  0  0  0  0  0  0  0  0  0
  191.1750  177.3520  141.7290 C   0  0  0  0  0  2  0  0  0  0  0  0
  191.6510  177.4300  140.2920 C   0  0  0  0  0  2  0  0  0  0  0  0
  190.4730  177.5030  139.3290 C   0  0  0  0  0  2  0  0  0  0  0  0
  190.4000  176.2920  138.3990 C   0  0  0  0  0  2  0  0  0  0  0  0
  189.7550  176.1340  135.7850 S   0  0  0  0  0  0  0  0  0  0  0  0
  189.3580  176.4580  137.3430 C   0  0  0  0  0  0  0  0  0  0  0  0
  187.2270  177.8890  137.5690 C   0  0  0  0  0  0  0  0  0  0  0  0
  187.7800  179.0030  137.2190 N   0  0  0  0  0  2  0  0  0  0  0  0
  185.7940  177.8820  137.9590 C   0  0  0  0  0  1  0  0  0  0  0  0
  188.0030  176.6980  137.7530 N   0  0  0  0  0  2  0  0  0  0  0  0
  2  5  2  0  0  0  0
  3  2  1  0  0  0  0
  3  7  2  0  0  0  0
  4  7  1  0  0  0  0
  5 14  1  0  0  0  0
  6  1  2  0  0  0  0
  8 13  1  0  0  0  0
  8 12  2  0  0  0  0
  9  1  1  0  0  0  0
 10 18  1  0  0  0  0
 10 19  2  0  0  0  0
 11  4  2  0  0  0  0
 12 16  1  0  0  0  0
 13  2  1  0  0  0  0
 14  9  2  0  0  0  0
 15 11  1  0  0  0  0
 16  5  1  0  0  0  0
 16 17  2  0  0  0  0
 17  6  1  0  0  0  0
 18 13  2  0  0  0  0
 19  3  1  0  0  0  0
 20 19  1  0  0  0  0
 20 11  1  0  0  0  0
 21  8  1  0  0  0  0
 22 21  1  0  0  0  0
 23 22  1  0  0  0  0
 24 23  1  0  0  0  0
 25 24  1  0  0  0  0
 26 27  2  0  0  0  0
 27 31  1  0  0  0  0
 27 25  1  0  0  0  0
 28 31  1  0  0  0  0
 28 30  1  0  0  0  0
 29 28  2  0  0  0  0
M  END
>  <MODEL>
5

>  <REMARK>
 VINA RESULT:      -9.2      1.628      2.232
  Name = 
  7 active torsions:
  status: ('A' for Active; 'I' for Inactive)
    1  A    between atoms: C_3  and  C_19
    2  A    between atoms: C_3  and  C_22
    3  A    between atoms: C_7  and  C_9
    4  A    between atoms: C_7  and  C_22
    5  A    between atoms: C_9  and  O_23
    6  A    between atoms: C_15  and  O_23
    7  A    between atoms: C_19  and  N_24
                            x       y       z     vdW  Elec       q    Type
                         _______ _______ _______ _____ _____    ______ ____

>  <TORSDO>
F 7

$$$$
=
 OpenBabel10262419293D

 31 34  0  0  1  0  0  0  0  0999 V2000
  184.4260  178.9300  144.6780 C   0  0  0  0  0  3  0  0  0  0  0  0
  188.7290  177.4960  143.7070 C   0  0  0  0  0  0  0  0  0  0  0  0
  189.5470  177.1910  144.8610 C   0  0  2  0  0  3  0  0  0  0  0  0
  189.9170  177.0610  147.3090 C   0  0  0  0  0  3  0  0  0  0  0  0
  187.3470  177.9290  143.7730 C   0  0  0  0  0  0  0  0  0  0  0  0
  184.4670  179.1620  143.4090 N   0  0  0  0  0  0  0  0  0  0  0  0
  189.1000  177.3420  146.1200 C   0  0  0  0  0  3  0  0  0  0  0  0
  188.6330  177.7090  141.2510 C   0  0  0  0  0  0  0  0  0  0  0  0
  185.4480  178.2570  145.4620 C   0  0  0  0  0  3  0  0  0  0  0  0
  191.4290  176.6470  143.4170 C   0  0  0  0  0  3  0  0  0  0  0  0
  191.1670  176.6250  147.1880 C   0  0  0  0  0  0  0  0  0  0  0  0
  187.3510  178.2080  141.3590 C   0  0  0  0  0  3  0  0  0  0  0  0
  189.3420  177.3750  142.4190 C   0  0  0  0  0  0  0  0  0  0  0  0
  186.6470  177.8520  145.0730 C   0  0  0  0  0  3  0  0  0  0  0  0
  191.8930  176.3730  148.3040 F   0  0  0  0  0  0  0  0  0  0  0  0
  186.6920  178.3320  142.5750 C   0  0  0  0  0  0  0  0  0  0  0  0
  185.4670  178.8500  142.4350 C   0  0  0  0  0  3  0  0  0  0  0  0
  190.6720  176.9630  142.3060 C   0  0  0  0  0  3  0  0  0  0  0  0
  190.8860  176.7540  144.6860 C   0  0  0  0  0  0  0  0  0  0  0  0
  191.7860  176.3900  145.8420 C   0  0  0  0  0  3  0  0  0  0  0  0
  189.1690  177.6060  139.9600 O   0  0  0  0  0  0  0  0  0  0  0  0
  189.0530  178.6220  138.9750 C   0  0  0  0  0  2  0  0  0  0  0  0
  189.0500  177.9910  137.5960 C   0  0  0  0  0  2  0  0  0  0  0  0
  187.6720  177.4410  137.2500 C   0  0  0  0  0  2  0  0  0  0  0  0
  186.5410  178.2560  137.8760 C   0  0  0  0  0  2  0  0  0  0  0  0
  185.0210  176.7180  136.2650 S   0  0  0  0  0  0  0  0  0  0  0  0
  185.2010  177.6630  137.5940 C   0  0  0  0  0  0  0  0  0  0  0  0
  183.6780  178.9700  139.2090 C   0  0  0  0  0  0  0  0  0  0  0  0
  184.3000  180.0960  139.0940 N   0  0  0  0  0  2  0  0  0  0  0  0
  182.5220  178.8730  140.1380 C   0  0  0  0  0  1  0  0  0  0  0  0
  184.1790  177.7760  138.5960 N   0  0  0  0  0  2  0  0  0  0  0  0
  1  9  1  0  0  0  0
  2  5  2  0  0  0  0
  2  3  1  0  0  0  0
  3  7  1  1  0  0  0
  5 14  1  0  0  0  0
  6  1  2  0  0  0  0
  7  4  2  0  0  0  0
  8 12  2  0  0  0  0
  8 13  1  0  0  0  0
 10 19  2  0  0  0  0
 11  4  1  0  0  0  0
 11 15  1  0  0  0  0
 12 16  1  0  0  0  0
 13  2  1  0  0  0  0
 14  9  2  0  0  0  0
 16  5  1  0  0  0  0
 17 16  2  0  0  0  0
 17  6  1  0  0  0  0
 18 13  2  0  0  0  0
 18 10  1  0  0  0  0
 19  3  1  0  0  0  0
 19 20  1  0  0  0  0
 20 11  2  0  0  0  0
 21  8  1  0  0  0  0
 22 21  1  0  0  0  0
 23 22  1  0  0  0  0
 24 23  1  0  0  0  0
 24 25  1  0  0  0  0
 26 27  2  0  0  0  0
 27 25  1  0  0  0  0
 27 31  1  0  0  0  0
 28 30  1  0  0  0  0
 29 28  2  0  0  0  0
 31 28  1  0  0  0  0
M  END
>  <MODEL>
6

>  <REMARK>
 VINA RESULT:      -9.1      2.532      4.507
  Name = 
  7 active torsions:
  status: ('A' for Active; 'I' for Inactive)
    1  A    between atoms: C_3  and  C_19
    2  A    between atoms: C_3  and  C_22
    3  A    between atoms: C_7  and  C_9
    4  A    between atoms: C_7  and  C_22
    5  A    between atoms: C_9  and  O_23
    6  A    between atoms: C_15  and  O_23
    7  A    between atoms: C_19  and  N_24
                            x       y       z     vdW  Elec       q    Type
                         _______ _______ _______ _____ _____    ______ ____

>  <TORSDO>
F 7

$$$$
=
 OpenBabel10262419293D

 31 34  0  0  0  0  0  0  0  0999 V2000
  191.1280  176.3990  147.3390 C   0  0  0  0  0  3  0  0  0  0  0  0
  188.3720  177.7800  143.8720 C   0  0  0  0  0  0  0  0  0  0  0  0
  187.0200  178.1160  144.2620 C   0  0  0  0  0  0  0  0  0  0  0  0
  185.2160  178.3190  145.9490 C   0  0  0  0  0  3  0  0  0  0  0  0
  189.4100  177.3570  144.7910 C   0  0  0  0  0  0  0  0  0  0  0  0
  191.8780  176.1280  146.3240 N   0  0  0  0  0  0  0  0  0  0  0  0
  186.5890  178.0060  145.5300 C   0  0  0  0  0  3  0  0  0  0  0  0
  189.9660  177.4920  142.0100 C   0  0  0  0  0  0  0  0  0  0  0  0
  189.8500  177.0910  147.3010 C   0  0  0  0  0  3  0  0  0  0  0  0
  186.4460  178.6050  141.9480 C   0  0  0  0  0  3  0  0  0  0  0  0
  184.3160  178.7460  145.0680 C   0  0  0  0  0  0  0  0  0  0  0  0
  190.8980  177.0030  142.9030 C   0  0  0  0  0  3  0  0  0  0  0  0
  188.6910  177.8580  142.4780 C   0  0  0  0  0  0  0  0  0  0  0  0
  189.1560  177.4770  146.2430 C   0  0  0  0  0  3  0  0  0  0  0  0
  183.0590  179.0280  145.4870 F   0  0  0  0  0  0  0  0  0  0  0  0
  190.6600  176.9200  144.2680 C   0  0  0  0  0  0  0  0  0  0  0  0
  191.7010  176.4050  144.9320 C   0  0  0  0  0  3  0  0  0  0  0  0
  187.7230  178.2600  141.5550 C   0  0  0  0  0  3  0  0  0  0  0  0
  186.0850  178.5410  143.2830 C   0  0  0  0  0  0  0  0  0  0  0  0
  184.6680  178.9350  143.6230 C   0  0  0  0  0  2  0  0  0  0  0  0
  190.3470  177.5520  140.6630 O   0  0  0  0  0  0  0  0  0  0  0  0
  190.3820  176.4230  139.8020 C   0  0  0  0  0  2  0  0  0  0  0  0
  190.3410  176.8860  138.3590 C   0  0  0  0  0  2  0  0  0  0  0  0
  191.3910  176.1630  137.5230 C   0  0  0  0  0  2  0  0  0  0  0  0
  192.7440  176.0740  138.2290 C   0  0  0  0  0  2  0  0  0  0  0  0
  193.0590  174.1280  136.3900 S   0  0  0  0  0  0  0  0  0  0  0  0
  193.6610  175.1060  137.5610 C   0  0  0  0  0  0  0  0  0  0  0  0
  195.9170  174.2340  138.4490 C   0  0  0  0  0  0  0  0  0  0  0  0
  195.4250  173.2270  139.0910 N   0  0  0  0  0  2  0  0  0  0  0  0
  197.3800  174.4880  138.5100 C   0  0  0  0  0  1  0  0  0  0  0  0
  195.0690  175.2060  137.8240 N   0  0  0  0  0  2  0  0  0  0  0  0
  2  3  1  0  0  0  0
  2  5  2  0  0  0  0
  3  7  2  0  0  0  0
  5 14  1  0  0  0  0
  6  1  2  0  0  0  0
  7  4  1  0  0  0  0
  8 13  1  0  0  0  0
  8 12  2  0  0  0  0
  9  1  1  0  0  0  0
 10 19  2  0  0  0  0
 11 15  1  0  0  0  0
 11  4  2  0  0  0  0
 12 16  1  0  0  0  0
 13  2  1  0  0  0  0
 14  9  2  0  0  0  0
 16  5  1  0  0  0  0
 16 17  2  0  0  0  0
 17  6  1  0  0  0  0
 18 10  1  0  0  0  0
 18 13  2  0  0  0  0
 19 20  1  0  0  0  0
 19  3  1  0  0  0  0
 20 11  1  0  0  0  0
 21  8  1  0  0  0  0
 22 21  1  0  0  0  0
 23 22  1  0  0  0  0
 24 25  1  0  0  0  0
 24 23  1  0  0  0  0
 26 27  2  0  0  0  0
 27 31  1  0  0  0  0
 27 25  1  0  0  0  0
 28 30  1  0  0  0  0
 28 29  2  0  0  0  0
 31 28  1  0  0  0  0
M  END
>  <MODEL>
7

>  <REMARK>
 VINA RESULT:      -9.1      3.216      4.810
  Name = 
  7 active torsions:
  status: ('A' for Active; 'I' for Inactive)
    1  A    between atoms: C_3  and  C_19
    2  A    between atoms: C_3  and  C_22
    3  A    between atoms: C_7  and  C_9
    4  A    between atoms: C_7  and  C_22
    5  A    between atoms: C_9  and  O_23
    6  A    between atoms: C_15  and  O_23
    7  A    between atoms: C_19  and  N_24
                            x       y       z     vdW  Elec       q    Type
                         _______ _______ _______ _____ _____    ______ ____

>  <TORSDO>
F 7

$$$$
=
 OpenBabel10262419293D

 31 34  0  0  1  0  0  0  0  0999 V2000
  184.2040  178.8670  145.7760 C   0  0  0  0  0  3  0  0  0  0  0  0
  188.3510  177.4690  144.2380 C   0  0  0  0  0  0  0  0  0  0  0  0
  189.3220  177.1840  145.2720 C   0  0  2  0  0  3  0  0  0  0  0  0
  190.0240  177.0800  147.6470 C   0  0  0  0  0  3  0  0  0  0  0  0
  186.9860  177.8880  144.4890 C   0  0  0  0  0  0  0  0  0  0  0  0
  184.0690  179.0870  144.5110 N   0  0  0  0  0  0  0  0  0  0  0  0
  189.0500  177.3420  146.5780 C   0  0  0  0  0  3  0  0  0  0  0  0
  187.9180  177.6590  141.8160 C   0  0  0  0  0  0  0  0  0  0  0  0
  185.3310  178.2110  146.4180 C   0  0  0  0  0  3  0  0  0  0  0  0
  190.9960  176.6460  143.5880 C   0  0  0  0  0  3  0  0  0  0  0  0
  191.2510  176.6550  147.3600 C   0  0  0  0  0  0  0  0  0  0  0  0
  186.6570  178.1450  142.0950 C   0  0  0  0  0  3  0  0  0  0  0  0
  188.7840  177.3430  142.8790 C   0  0  0  0  0  0  0  0  0  0  0  0
  186.4700  177.8160  145.8720 C   0  0  0  0  0  3  0  0  0  0  0  0
  192.1250  176.4220  148.3690 F   0  0  0  0  0  0  0  0  0  0  0  0
  186.1690  178.2730  143.3880 C   0  0  0  0  0  0  0  0  0  0  0  0
  184.9300  178.7770  143.4130 C   0  0  0  0  0  3  0  0  0  0  0  0
  190.0910  176.9440  142.5890 C   0  0  0  0  0  3  0  0  0  0  0  0
  190.6300  176.7590  144.9190 C   0  0  0  0  0  0  0  0  0  0  0  0
  191.6830  176.4150  145.9450 C   0  0  0  0  0  3  0  0  0  0  0  0
  188.2750  177.5490  140.4650 O   0  0  0  0  0  0  0  0  0  0  0  0
  189.0250  178.5320  139.7660 C   0  0  0  0  0  2  0  0  0  0  0  0
  190.2060  177.8740  139.0810 C   0  0  0  0  0  2  0  0  0  0  0  0
  189.8400  176.4820  138.5790 C   0  0  0  0  0  2  0  0  0  0  0  0
  190.1700  176.2870  137.0990 C   0  0  0  0  0  2  0  0  0  0  0  0
  189.3170  176.8900  134.6130 S   0  0  0  0  0  0  0  0  0  0  0  0
  189.0340  176.6810  136.2150 C   0  0  0  0  0  0  0  0  0  0  0  0
  186.8080  177.7710  136.9170 C   0  0  0  0  0  0  0  0  0  0  0  0
  187.2170  178.9910  136.8030 N   0  0  0  0  0  2  0  0  0  0  0  0
  185.4240  177.5130  137.3910 C   0  0  0  0  0  1  0  0  0  0  0  0
  187.7070  176.6660  136.7620 N   0  0  0  0  0  2  0  0  0  0  0  0
  1  9  1  0  0  0  0
  2  5  2  0  0  0  0
  2  3  1  0  0  0  0
  3  7  1  6  0  0  0
  5 14  1  0  0  0  0
  6  1  2  0  0  0  0
  7  4  2  0  0  0  0
  8 12  2  0  0  0  0
  8 13  1  0  0  0  0
 10 19  2  0  0  0  0
 11  4  1  0  0  0  0
 11 15  1  0  0  0  0
 12 16  1  0  0  0  0
 13  2  1  0  0  0  0
 14  9  2  0  0  0  0
 16 17  2  0  0  0  0
 16  5  1  0  0  0  0
 17  6  1  0  0  0  0
 18 13  2  0  0  0  0
 18 10  1  0  0  0  0
 19  3  1  0  0  0  0
 19 20  1  0  0  0  0
 20 11  2  0  0  0  0
 21  8  1  0  0  0  0
 22 21  1  0  0  0  0
 23 22  1  0  0  0  0
 24 23  1  0  0  0  0
 25 24  1  0  0  0  0
 26 27  2  0  0  0  0
 27 31  1  0  0  0  0
 27 25  1  0  0  0  0
 28 30  1  0  0  0  0
 29 28  2  0  0  0  0
 31 28  1  0  0  0  0
M  END
>  <MODEL>
8

>  <REMARK>
 VINA RESULT:      -9.1      2.693      4.622
  Name = 
  7 active torsions:
  status: ('A' for Active; 'I' for Inactive)
    1  A    between atoms: C_3  and  C_19
    2  A    between atoms: C_3  and  C_22
    3  A    between atoms: C_7  and  C_9
    4  A    between atoms: C_7  and  C_22
    5  A    between atoms: C_9  and  O_23
    6  A    between atoms: C_15  and  O_23
    7  A    between atoms: C_19  and  N_24
                            x       y       z     vdW  Elec       q    Type
                         _______ _______ _______ _____ _____    ______ ____

>  <TORSDO>
F 7

$$$$
=
 OpenBabel10262419293D

 31 34  0  0  0  0  0  0  0  0999 V2000
  191.6910  176.6340  147.2240 C   0  0  0  0  0  3  0  0  0  0  0  0
  188.7710  177.4280  143.7080 C   0  0  0  0  0  0  0  0  0  0  0  0
  189.3800  177.4290  142.3950 C   0  0  0  0  0  0  0  0  0  0  0  0
  191.3460  177.2600  140.8950 C   0  0  0  0  0  3  0  0  0  0  0  0
  189.4850  177.1720  144.9430 C   0  0  0  0  0  0  0  0  0  0  0  0
  190.6290  176.9740  147.8760 N   0  0  0  0  0  0  0  0  0  0  0  0
  190.6990  177.2420  142.2140 C   0  0  0  0  0  3  0  0  0  0  0  0
  186.7170  177.7970  145.0240 C   0  0  0  0  0  0  0  0  0  0  0  0
  191.7900  176.4360  145.7880 C   0  0  0  0  0  3  0  0  0  0  0  0
  187.2330  177.9430  141.3700 C   0  0  0  0  0  3  0  0  0  0  0  0
  190.6340  177.4580  139.7900 C   0  0  0  0  0  0  0  0  0  0  0  0
  187.4480  177.6400  146.1830 C   0  0  0  0  0  3  0  0  0  0  0  0
  187.3720  177.7210  143.7810 C   0  0  0  0  0  0  0  0  0  0  0  0
  190.8710  176.6630  144.8620 C   0  0  0  0  0  3  0  0  0  0  0  0
  191.2600  177.4660  138.5880 F   0  0  0  0  0  0  0  0  0  0  0  0
  188.8030  177.3370  146.1820 C   0  0  0  0  0  0  0  0  0  0  0  0
  189.3020  177.2460  147.4200 C   0  0  0  0  0  3  0  0  0  0  0  0
  186.6420  177.9760  142.6170 C   0  0  0  0  0  2  0  0  0  0  0  0
  188.5850  177.6720  141.2450 C   0  0  0  0  0  0  0  0  0  0  0  0
  189.1480  177.6570  139.8440 C   0  0  0  0  0  3  0  0  0  0  0  0
  185.3490  178.0700  145.1660 O   0  0  0  0  0  0  0  0  0  0  0  0
  184.7300  179.2600  144.6990 C   0  0  0  0  0  2  0  0  0  0  0  0
  183.2270  179.1440  144.8590 C   0  0  0  0  0  2  0  0  0  0  0  0
  182.5380  179.0580  143.5020 C   0  0  0  0  0  2  0  0  0  0  0  0
  183.4910  178.6310  142.3860 C   0  0  0  0  0  2  0  0  0  0  0  0
  181.2410  178.9890  140.9450 S   0  0  0  0  0  0  0  0  0  0  0  0
  182.7840  178.4500  141.0850 C   0  0  0  0  0  0  0  0  0  0  0  0
  184.4410  178.7610  139.1370 C   0  0  0  0  0  0  0  0  0  0  0  0
  184.4690  180.0510  139.1930 N   0  0  0  0  0  2  0  0  0  0  0  0
  185.2250  178.0640  138.0850 C   0  0  0  0  0  1  0  0  0  0  0  0
  183.5410  177.9990  139.9520 N   0  0  0  0  0  2  0  0  0  0  0  0
  1  6  1  0  0  0  0
  2 13  1  0  0  0  0
  2  5  1  0  0  0  0
  3  2  2  0  0  0  0
  4  7  2  0  0  0  0
  5 16  1  0  0  0  0
  7  3  1  0  0  0  0
  8 21  1  0  0  0  0
  8 12  1  0  0  0  0
  9  1  2  0  0  0  0
 10 18  1  0  0  0  0
 11 20  2  0  0  0  0
 11  4  1  0  0  0  0
 13  8  2  0  0  0  0
 14  5  2  0  0  0  0
 14  9  1  0  0  0  0
 15 11  1  0  0  0  0
 16 12  2  0  0  0  0
 16 17  1  0  0  0  0
 17  6  2  0  0  0  0
 18 13  1  0  0  0  0
 19 10  2  0  0  0  0
 19  3  1  0  0  0  0
 20 19  1  0  0  0  0
 22 23  1  0  0  0  0
 22 21  1  0  0  0  0
 24 23  1  0  0  0  0
 25 24  1  0  0  0  0
 26 27  2  0  0  0  0
 27 25  1  0  0  0  0
 28 29  2  0  0  0  0
 28 31  1  0  0  0  0
 30 28  1  0  0  0  0
 31 27  1  0  0  0  0
M  END
>  <MODEL>
9

>  <REMARK>
 VINA RESULT:      -9.0      2.939      5.290
  Name = 
  7 active torsions:
  status: ('A' for Active; 'I' for Inactive)
    1  A    between atoms: C_3  and  C_19
    2  A    between atoms: C_3  and  C_22
    3  A    between atoms: C_7  and  C_9
    4  A    between atoms: C_7  and  C_22
    5  A    between atoms: C_9  and  O_23
    6  A    between atoms: C_15  and  O_23
    7  A    between atoms: C_19  and  N_24
                            x       y       z     vdW  Elec       q    Type
                         _______ _______ _______ _____ _____    ______ ____

>  <TORSDO>
F 7

$$$$
