=
 OpenBabel10262420123D

 27 31  0  0  1  0  0  0  0  0999 V2000
  186.6690  177.6650  142.7850 C   0  0  0  0  0  2  0  0  0  0  0  0
  188.0110  177.8480  144.9300 C   0  0  1  0  0  3  0  0  0  0  0  0
  189.2460  176.2020  143.4160 C   0  0  0  0  0  2  0  0  0  0  0  0
  187.5290  178.0630  147.1920 C   0  0  1  0  0  3  0  0  0  0  0  0
  188.2290  178.6160  146.0870 O   0  0  0  0  0  0  0  0  0  0  0  0
  183.6520  179.5240  143.9720 C   0  0  0  0  0  2  0  0  0  0  0  0
  185.9270  179.1670  144.6470 N   0  0  1  0  0  0  0  0  0  0  0  0
  190.0710  177.5020  140.0640 C   0  0  0  0  0  3  0  0  0  0  0  0
  185.1060  178.1040  145.2360 C   0  0  2  0  0  3  0  0  0  0  0  0
  188.9350  178.4010  139.8270 C   0  0  0  0  0  0  0  0  0  0  0  0
  187.0840  178.5890  143.9430 C   0  0  2  0  0  3  0  0  0  0  0  0
  186.2040  178.7780  147.5020 C   0  0  2  0  0  3  0  0  0  0  0  0
  187.7810  177.5630  141.8020 C   0  0  0  0  0  0  0  0  0  0  0  0
  189.3650  177.4310  144.3320 C   0  0  1  0  0  3  0  0  0  0  0  0
  190.0380  176.6310  141.0730 C   0  0  0  0  0  3  0  0  0  0  0  0
  187.4020  176.6660  147.1650 O   0  0  0  0  0  1  0  0  0  0  0  0
  188.9340  179.1710  138.8330 O   0  0  0  0  0  0  0  0  0  0  0  0
  183.7370  178.1550  144.5900 C   0  0  0  0  0  2  0  0  0  0  0  0
  187.8230  178.4270  140.7840 C   0  0  0  0  0  3  0  0  0  0  0  0
  184.9610  178.2790  146.7490 C   0  0  0  0  0  2  0  0  0  0  0  0
  188.8290  176.4770  141.9650 C   0  0  1  0  0  3  0  0  0  0  0  0
  185.0880  179.9110  143.7100 C   0  0  0  0  0  2  0  0  0  0  0  0
  191.0930  179.1680  144.7770 C   0  0  0  0  0  2  0  0  0  0  0  0
  191.6370  178.2400  143.7130 C   0  0  0  0  0  2  0  0  0  0  0  0
  190.1610  178.5900  143.7300 C   0  0  0  0  0  3  0  0  0  0  0  0
  185.9130  180.7580  148.5540 O   0  0  0  0  0  1  0  0  0  0  0  0
  186.3360  180.2220  147.3830 N   0  0  0  0  0  2  0  0  0  0  0  0
  2  5  1  1  0  0  0
  3 14  1  0  0  0  0
  4 16  1  6  0  0  0
  4 12  1  0  0  0  0
  5  4  1  0  0  0  0
  6 18  1  0  0  0  0
  7 22  1  6  0  0  0
  7  9  1  0  0  0  0
  8 15  2  0  0  0  0
  9 18  1  6  0  0  0
  9 20  1  0  0  0  0
 10  8  1  0  0  0  0
 10 19  1  0  0  0  0
 11  1  1  6  0  0  0
 11  7  1  0  0  0  0
 11  2  1  0  0  0  0
 12 27  1  6  0  0  0
 13 21  1  0  0  0  0
 13  1  1  0  0  0  0
 14 25  1  6  0  0  0
 14  2  1  0  0  0  0
 17 10  2  0  0  0  0
 19 13  2  0  0  0  0
 20 12  1  0  0  0  0
 21 15  1  6  0  0  0
 21  3  1  0  0  0  0
 22  6  1  0  0  0  0
 24 25  1  0  0  0  0
 24 23  1  0  0  0  0
 25 23  1  0  0  0  0
 27 26  1  0  0  0  0
M  END
>  <MODEL>
1

>  <REMARK>
 VINA RESULT:      -6.3      0.000      0.000
  Name = 
  2 active torsions:
  status: ('A' for Active; 'I' for Inactive)
    1  A    between atoms: C_14  and  C_19
    2  A    between atoms: N_16  and  C_17
                            x       y       z     vdW  Elec       q    Type
                         _______ _______ _______ _____ _____    ______ ____

>  <TORSDO>
F 2

$$$$
=
 OpenBabel10262420123D

 27 31  0  0  1  0  0  0  0  0999 V2000
  183.1380  177.3920  137.4020 C   0  0  0  0  0  2  0  0  0  0  0  0
  185.3300  178.2360  138.3600 C   0  0  1  0  0  3  0  0  0  0  0  0
  183.5250  179.9080  139.0470 C   0  0  0  0  0  2  0  0  0  0  0  0
  187.5460  178.2980  137.6660 C   0  0  1  0  0  3  0  0  0  0  0  0
  186.6510  177.8850  138.6880 O   0  0  0  0  0  0  0  0  0  0  0  0
  184.5840  174.7080  135.2410 C   0  0  0  0  0  2  0  0  0  0  0  0
  185.2710  176.1280  137.0500 N   0  0  1  0  0  0  0  0  0  0  0  0
  180.6470  178.4350  140.8250 C   0  0  0  0  0  3  0  0  0  0  0  0
  185.5330  176.8350  135.7920 C   0  0  2  0  0  3  0  0  0  0  0  0
  180.5800  177.1110  140.1950 C   0  0  0  0  0  0  0  0  0  0  0  0
  184.5080  176.9880  137.9710 C   0  0  2  0  0  3  0  0  0  0  0  0
  187.9520  177.1660  136.7080 C   0  0  2  0  0  3  0  0  0  0  0  0
  182.2210  177.7570  138.5160 C   0  0  0  0  0  0  0  0  0  0  0  0
  184.7210  179.0590  139.5080 C   0  0  1  0  0  3  0  0  0  0  0  0
  181.4060  179.3930  140.2920 C   0  0  0  0  0  3  0  0  0  0  0  0
  187.1680  179.4710  136.9960 O   0  0  0  0  0  1  0  0  0  0  0  0
  179.8080  176.2300  140.6550 O   0  0  0  0  0  0  0  0  0  0  0  0
  184.8480  176.0770  134.6750 C   0  0  0  0  0  2  0  0  0  0  0  0
  181.4520  176.8070  139.0550 C   0  0  0  0  0  3  0  0  0  0  0  0
  187.0330  176.9250  135.5010 C   0  0  0  0  0  2  0  0  0  0  0  0
  182.1660  179.1940  139.0030 C   0  0  1  0  0  3  0  0  0  0  0  0
  184.5040  174.9260  136.7330 C   0  0  0  0  0  2  0  0  0  0  0  0
  185.6970  178.3010  141.6690 C   0  0  0  0  0  2  0  0  0  0  0  0
  184.5060  179.1790  141.9850 C   0  0  0  0  0  2  0  0  0  0  0  0
  184.4670  178.2540  140.7830 C   0  0  0  0  0  3  0  0  0  0  0  0
  189.4220  176.0360  138.0020 O   0  0  0  0  0  1  0  0  0  0  0  0
  188.2010  175.9240  137.4250 N   0  0  0  0  0  2  0  0  0  0  0  0
  1 13  1  0  0  0  0
  2  5  1  1  0  0  0
  2 14  1  0  0  0  0
  3 14  1  0  0  0  0
  4 16  1  6  0  0  0
  4  5  1  0  0  0  0
  6 22  1  0  0  0  0
  7 22  1  6  0  0  0
  7 11  1  0  0  0  0
  9 18  1  6  0  0  0
  9  7  1  0  0  0  0
 10 17  2  0  0  0  0
 10  8  1  0  0  0  0
 11  1  1  6  0  0  0
 11  2  1  0  0  0  0
 12 27  1  1  0  0  0
 12  4  1  0  0  0  0
 13 21  1  0  0  0  0
 13 19  2  0  0  0  0
 14 25  1  1  0  0  0
 15  8  2  0  0  0  0
 18  6  1  0  0  0  0
 19 10  1  0  0  0  0
 20  9  1  0  0  0  0
 20 12  1  0  0  0  0
 21  3  1  1  0  0  0
 21 15  1  0  0  0  0
 23 24  1  0  0  0  0
 25 23  1  0  0  0  0
 25 24  1  0  0  0  0
 27 26  1  0  0  0  0
M  END
>  <MODEL>
2

>  <REMARK>
 VINA RESULT:      -5.4      5.399      8.802
  Name = 
  2 active torsions:
  status: ('A' for Active; 'I' for Inactive)
    1  A    between atoms: C_14  and  C_19
    2  A    between atoms: N_16  and  C_17
                            x       y       z     vdW  Elec       q    Type
                         _______ _______ _______ _____ _____    ______ ____

>  <TORSDO>
F 2

$$$$
=
 OpenBabel10262420123D

 27 31  0  0  1  0  0  0  0  0999 V2000
  188.1600  177.3930  141.4500 C   0  0  0  0  0  2  0  0  0  0  0  0
  185.7540  178.1270  141.7730 C   0  0  1  0  0  3  0  0  0  0  0  0
  186.3860  176.7310  143.8160 C   0  0  0  0  0  2  0  0  0  0  0  0
  183.8970  178.4200  140.4080 C   0  0  1  0  0  3  0  0  0  0  0  0
  184.7620  179.0310  141.3530 O   0  0  0  0  0  0  0  0  0  0  0  0
  188.5030  178.4910  137.8950 C   0  0  0  0  0  2  0  0  0  0  0  0
  187.0060  178.8140  139.7420 N   0  0  1  0  0  0  0  0  0  0  0  0
  189.4040  177.8780  145.6010 C   0  0  0  0  0  3  0  0  0  0  0  0
  186.5600  177.6330  138.9970 C   0  0  2  0  0  3  0  0  0  0  0  0
  190.1960  178.4170  144.4890 C   0  0  0  0  0  0  0  0  0  0  0  0
  187.1280  178.4990  141.1760 C   0  0  2  0  0  3  0  0  0  0  0  0
  184.2220  178.7850  138.9500 C   0  0  2  0  0  3  0  0  0  0  0  0
  188.6440  177.4950  142.8540 C   0  0  0  0  0  0  0  0  0  0  0  0
  185.7390  178.0280  143.3080 C   0  0  1  0  0  3  0  0  0  0  0  0
  188.3280  177.1290  145.3570 C   0  0  0  0  0  3  0  0  0  0  0  0
  183.7030  177.0440  140.5960 O   0  0  0  0  0  1  0  0  0  0  0  0
  191.2520  179.0620  144.7180 O   0  0  0  0  0  0  0  0  0  0  0  0
  187.6490  177.2580  138.0140 C   0  0  0  0  0  2  0  0  0  0  0  0
  189.7230  178.2390  143.1110 C   0  0  0  0  0  3  0  0  0  0  0  0
  185.2600  177.9060  138.2370 C   0  0  0  0  0  2  0  0  0  0  0  0
  187.9150  176.7470  143.9550 C   0  0  1  0  0  3  0  0  0  0  0  0
  188.3030  179.2170  139.2040 C   0  0  0  0  0  2  0  0  0  0  0  0
  185.0410  180.1870  144.3350 C   0  0  0  0  0  2  0  0  0  0  0  0
  185.6600  179.3380  145.4230 C   0  0  0  0  0  2  0  0  0  0  0  0
  186.2240  179.2940  144.0160 C   0  0  0  0  0  3  0  0  0  0  0  0
  183.3880  180.8730  138.7190 O   0  0  0  0  0  1  0  0  0  0  0  0
  184.5560  180.1950  138.8140 N   0  0  0  0  0  2  0  0  0  0  0  0
  1 13  1  0  0  0  0
  2  5  1  1  0  0  0
  2 14  1  0  0  0  0
  4 16  1  6  0  0  0
  4  5  1  0  0  0  0
  6 18  1  0  0  0  0
  6 22  1  0  0  0  0
  7 22  1  6  0  0  0
  7 11  1  0  0  0  0
  9 18  1  6  0  0  0
  9  7  1  0  0  0  0
 10 17  2  0  0  0  0
 10  8  1  0  0  0  0
 11  1  1  6  0  0  0
 11  2  1  0  0  0  0
 12 27  1  1  0  0  0
 12  4  1  0  0  0  0
 13 19  2  0  0  0  0
 13 21  1  0  0  0  0
 14  3  1  0  0  0  0
 14 25  1  1  0  0  0
 15  8  2  0  0  0  0
 19 10  1  0  0  0  0
 20 12  1  0  0  0  0
 20  9  1  0  0  0  0
 21  3  1  1  0  0  0
 21 15  1  0  0  0  0
 23 24  1  0  0  0  0
 25 23  1  0  0  0  0
 25 24  1  0  0  0  0
 26 27  1  0  0  0  0
M  END
>  <MODEL>
3

>  <REMARK>
 VINA RESULT:      -5.2      3.009      6.009
  Name = 
  2 active torsions:
  status: ('A' for Active; 'I' for Inactive)
    1  A    between atoms: C_14  and  C_19
    2  A    between atoms: N_16  and  C_17
                            x       y       z     vdW  Elec       q    Type
                         _______ _______ _______ _____ _____    ______ ____

>  <TORSDO>
F 2

$$$$
=
 OpenBabel10262420123D

 27 31  0  0  1  0  0  0  0  0999 V2000
  185.5350  178.5470  138.2810 C   0  0  0  0  0  2  0  0  0  0  0  0
  184.7460  176.8540  136.5650 C   0  0  1  0  0  3  0  0  0  0  0  0
  186.9670  177.7900  135.7200 C   0  0  0  0  0  2  0  0  0  0  0  0
  182.7030  176.2140  135.6630 C   0  0  1  0  0  3  0  0  0  0  0  0
  183.8760  175.7750  136.3320 O   0  0  0  0  0  0  0  0  0  0  0  0
  182.3880  178.6640  140.2930 C   0  0  0  0  0  2  0  0  0  0  0  0
  183.3930  177.2900  138.6000 N   0  0  1  0  0  0  0  0  0  0  0  0
  189.7690  177.5210  138.1050 C   0  0  0  0  0  3  0  0  0  0  0  0
  182.6230  178.3460  137.9320 C   0  0  2  0  0  3  0  0  0  0  0  0
  189.0600  177.6590  139.3830 C   0  0  0  0  0  0  0  0  0  0  0  0
  184.7620  177.2360  138.0610 C   0  0  2  0  0  3  0  0  0  0  0  0
  181.4980  176.4110  136.5970 C   0  0  2  0  0  3  0  0  0  0  0  0
  186.9990  178.2790  138.2430 C   0  0  0  0  0  0  0  0  0  0  0  0
  186.1320  176.5270  135.9830 C   0  0  1  0  0  3  0  0  0  0  0  0
  189.1500  177.8100  136.9600 C   0  0  0  0  0  3  0  0  0  0  0  0
  182.8980  177.2940  134.7890 O   0  0  0  0  0  1  0  0  0  0  0  0
  189.6650  177.4560  140.4670 O   0  0  0  0  0  0  0  0  0  0  0  0
  182.2290  179.3710  138.9740 C   0  0  0  0  0  2  0  0  0  0  0  0
  187.6310  177.9910  139.3840 C   0  0  0  0  0  3  0  0  0  0  0  0
  181.3640  177.7870  137.2660 C   0  0  0  0  0  2  0  0  0  0  0  0
  187.7410  178.3520  136.9210 C   0  0  1  0  0  3  0  0  0  0  0  0
  183.4260  177.6000  140.0280 C   0  0  0  0  0  2  0  0  0  0  0  0
  186.3820  174.0670  136.2750 C   0  0  0  0  0  2  0  0  0  0  0  0
  187.6980  174.6060  135.7570 C   0  0  0  0  0  2  0  0  0  0  0  0
  186.8770  175.4240  136.7350 C   0  0  0  0  0  3  0  0  0  0  0  0
  180.3680  175.6440  138.3990 O   0  0  0  0  0  1  0  0  0  0  0  0
  181.4070  175.3440  137.5830 N   0  0  0  0  0  2  0  0  0  0  0  0
  2  5  1  1  0  0  0
  2 11  1  0  0  0  0
  3 14  1  0  0  0  0
  4 16  1  1  0  0  0
  4  5  1  0  0  0  0
  4 12  1  0  0  0  0
  7 22  1  1  0  0  0
  8 10  1  0  0  0  0
  9 20  1  1  0  0  0
  9  7  1  0  0  0  0
  9 18  1  0  0  0  0
 10 19  1  0  0  0  0
 10 17  2  0  0  0  0
 11  1  1  6  0  0  0
 11  7  1  0  0  0  0
 12 20  1  0  0  0  0
 12 27  1  1  0  0  0
 13  1  1  0  0  0  0
 13 19  2  0  0  0  0
 14  2  1  0  0  0  0
 14 25  1  1  0  0  0
 15  8  2  0  0  0  0
 18  6  1  0  0  0  0
 21  3  1  6  0  0  0
 21 15  1  0  0  0  0
 21 13  1  0  0  0  0
 22  6  1  0  0  0  0
 23 25  1  0  0  0  0
 24 23  1  0  0  0  0
 24 25  1  0  0  0  0
 27 26  1  0  0  0  0
M  END
>  <MODEL>
4

>  <REMARK>
 VINA RESULT:      -5.0      5.521      8.256
  Name = 
  2 active torsions:
  status: ('A' for Active; 'I' for Inactive)
    1  A    between atoms: C_14  and  C_19
    2  A    between atoms: N_16  and  C_17
                            x       y       z     vdW  Elec       q    Type
                         _______ _______ _______ _____ _____    ______ ____

>  <TORSDO>
F 2

$$$$
=
 OpenBabel10262420123D

 27 31  0  0  1  0  0  0  0  0999 V2000
  185.4530  178.1410  138.7870 C   0  0  0  0  0  2  0  0  0  0  0  0
  185.0100  176.1490  137.2800 C   0  0  1  0  0  3  0  0  0  0  0  0
  183.0810  176.2610  138.9510 C   0  0  0  0  0  2  0  0  0  0  0  0
  186.2960  174.5070  136.2570 C   0  0  1  0  0  3  0  0  0  0  0  0
  185.3390  175.5380  136.0580 O   0  0  0  0  0  0  0  0  0  0  0  0
  188.9390  178.8280  137.6290 C   0  0  0  0  0  2  0  0  0  0  0  0
  187.0290  177.5510  136.9330 N   0  0  1  0  0  0  0  0  0  0  0  0
  181.3200  179.5010  139.0670 C   0  0  0  0  0  3  0  0  0  0  0  0
  187.8350  176.7130  137.8270 C   0  0  2  0  0  3  0  0  0  0  0  0
  182.4180  180.4250  138.7620 C   0  0  0  0  0  0  0  0  0  0  0  0
  185.6230  177.5630  137.3730 C   0  0  2  0  0  3  0  0  0  0  0  0
  187.7360  174.9310  135.9270 C   0  0  2  0  0  3  0  0  0  0  0  0
  184.0600  178.6380  138.9620 C   0  0  0  0  0  0  0  0  0  0  0  0
  183.4850  176.1100  137.4760 C   0  0  1  0  0  3  0  0  0  0  0  0
  181.5780  178.2290  139.3710 C   0  0  0  0  0  3  0  0  0  0  0  0
  186.1910  173.8410  137.4870 O   0  0  0  0  0  1  0  0  0  0  0  0
  182.1800  181.6410  138.5480 O   0  0  0  0  0  0  0  0  0  0  0  0
  188.8730  177.5940  138.4890 C   0  0  0  0  0  2  0  0  0  0  0  0
  183.7890  179.9120  138.6640 C   0  0  0  0  0  3  0  0  0  0  0  0
  188.5360  175.5880  137.0610 C   0  0  0  0  0  2  0  0  0  0  0  0
  182.9880  177.6980  139.4830 C   0  0  1  0  0  3  0  0  0  0  0  0
  187.5800  178.9040  136.9750 C   0  0  0  0  0  2  0  0  0  0  0  0
  182.5230  176.3070  135.1880 C   0  0  0  0  0  2  0  0  0  0  0  0
  181.3790  176.3750  136.1760 C   0  0  0  0  0  2  0  0  0  0  0  0
  182.7120  177.0140  136.5160 C   0  0  0  0  0  3  0  0  0  0  0  0
  189.0640  176.1840  134.5940 O   0  0  0  0  0  1  0  0  0  0  0  0
  187.7910  175.7400  134.7180 N   0  0  0  0  0  2  0  0  0  0  0  0
  1 13  1  0  0  0  0
  2  5  1  6  0  0  0
  2 11  1  0  0  0  0
  2 14  1  0  0  0  0
  4 16  1  1  0  0  0
  5  4  1  0  0  0  0
  6 18  1  0  0  0  0
  7 22  1  1  0  0  0
  7 11  1  0  0  0  0
  7  9  1  0  0  0  0
  8 15  2  0  0  0  0
  9 20  1  6  0  0  0
  9 18  1  0  0  0  0
 10  8  1  0  0  0  0
 11  1  1  1  0  0  0
 12 27  1  6  0  0  0
 12  4  1  0  0  0  0
 12 20  1  0  0  0  0
 13 21  1  0  0  0  0
 14 25  1  6  0  0  0
 14  3  1  0  0  0  0
 15 21  1  0  0  0  0
 17 10  2  0  0  0  0
 19 10  1  0  0  0  0
 19 13  2  0  0  0  0
 21  3  1  6  0  0  0
 22  6  1  0  0  0  0
 23 24  1  0  0  0  0
 23 25  1  0  0  0  0
 24 25  1  0  0  0  0
 26 27  1  0  0  0  0
M  END
>  <MODEL>
5

>  <REMARK>
 VINA RESULT:      -5.0      6.549      9.452
  Name = 
  2 active torsions:
  status: ('A' for Active; 'I' for Inactive)
    1  A    between atoms: C_14  and  C_19
    2  A    between atoms: N_16  and  C_17
                            x       y       z     vdW  Elec       q    Type
                         _______ _______ _______ _____ _____    ______ ____

>  <TORSDO>
F 2

$$$$
=
 OpenBabel10262420123D

 27 31  0  0  1  0  0  0  0  0999 V2000
  182.9330  177.9290  137.9420 C   0  0  0  0  0  2  0  0  0  0  0  0
  182.1550  175.5400  137.5950 C   0  0  1  0  0  3  0  0  0  0  0  0
  183.6650  176.1250  135.6200 C   0  0  0  0  0  2  0  0  0  0  0  0
  180.1920  174.3510  137.9570 C   0  0  1  0  0  3  0  0  0  0  0  0
  181.5860  174.4150  138.2180 O   0  0  0  0  0  0  0  0  0  0  0  0
  180.6460  178.7510  140.7810 C   0  0  0  0  0  2  0  0  0  0  0  0
  181.4220  176.8120  139.5970 N   0  0  1  0  0  0  0  0  0  0  0  0
  187.0210  177.3440  136.5450 C   0  0  0  0  0  3  0  0  0  0  0  0
  180.2270  177.3160  138.9120 C   0  0  2  0  0  3  0  0  0  0  0  0
  186.7270  178.0390  137.8030 C   0  0  0  0  0  0  0  0  0  0  0  0
  182.5210  176.6200  138.6350 C   0  0  2  0  0  3  0  0  0  0  0  0
  179.3240  174.8780  139.1110 C   0  0  2  0  0  3  0  0  0  0  0  0
  184.3300  177.8130  137.4400 C   0  0  0  0  0  0  0  0  0  0  0  0
  183.3300  175.0940  136.7090 C   0  0  1  0  0  3  0  0  0  0  0  0
  186.0280  176.9630  135.7410 C   0  0  0  0  0  3  0  0  0  0  0  0
  179.8060  174.8600  136.7080 O   0  0  0  0  0  1  0  0  0  0  0  0
  187.6660  178.4630  138.5260 O   0  0  0  0  0  0  0  0  0  0  0  0
  179.9050  178.6840  139.4730 C   0  0  0  0  0  2  0  0  0  0  0  0
  185.3340  178.1950  138.2350 C   0  0  0  0  0  3  0  0  0  0  0  0
  179.0290  176.3860  139.1160 C   0  0  0  0  0  2  0  0  0  0  0  0
  184.5830  177.2800  136.0410 C   0  0  1  0  0  3  0  0  0  0  0  0
  181.8040  177.7980  140.6070 C   0  0  0  0  0  2  0  0  0  0  0  0
  184.4220  173.0940  137.7140 C   0  0  0  0  0  2  0  0  0  0  0  0
  185.3390  173.6260  136.6340 C   0  0  0  0  0  2  0  0  0  0  0  0
  184.5420  174.5900  137.4930 C   0  0  0  0  0  3  0  0  0  0  0  0
  179.0480  175.0110  141.3510 O   0  0  0  0  0  1  0  0  0  0  0  0
  179.8350  174.4460  140.4040 N   0  0  0  0  0  2  0  0  0  0  0  0
  2  5  1  1  0  0  0
  2 11  1  0  0  0  0
  3 14  1  0  0  0  0
  4 16  1  6  0  0  0
  4  5  1  0  0  0  0
  4 12  1  0  0  0  0
  7 22  1  1  0  0  0
  8 10  1  0  0  0  0
  9 20  1  1  0  0  0
  9 18  1  0  0  0  0
  9  7  1  0  0  0  0
 10 19  1  0  0  0  0
 10 17  2  0  0  0  0
 11  1  1  6  0  0  0
 11  7  1  0  0  0  0
 12 20  1  0  0  0  0
 12 27  1  1  0  0  0
 13  1  1  0  0  0  0
 13 19  2  0  0  0  0
 14 25  1  1  0  0  0
 14  2  1  0  0  0  0
 15 21  1  0  0  0  0
 15  8  2  0  0  0  0
 18  6  1  0  0  0  0
 21  3  1  1  0  0  0
 21 13  1  0  0  0  0
 22  6  1  0  0  0  0
 24 25  1  0  0  0  0
 24 23  1  0  0  0  0
 25 23  1  0  0  0  0
 27 26  1  0  0  0  0
M  END
>  <MODEL>
6

>  <REMARK>
 VINA RESULT:      -5.0      6.638      8.638
  Name = 
  2 active torsions:
  status: ('A' for Active; 'I' for Inactive)
    1  A    between atoms: C_14  and  C_19
    2  A    between atoms: N_16  and  C_17
                            x       y       z     vdW  Elec       q    Type
                         _______ _______ _______ _____ _____    ______ ____

>  <TORSDO>
F 2

$$$$
=
 OpenBabel10262420123D

 27 31  0  0  1  0  0  0  0  0999 V2000
  184.0530  178.0040  137.9470 C   0  0  0  0  0  2  0  0  0  0  0  0
  183.0000  175.7680  137.3770 C   0  0  1  0  0  3  0  0  0  0  0  0
  184.7030  176.2780  135.5420 C   0  0  0  0  0  2  0  0  0  0  0  0
  180.8810  174.8290  137.5330 C   0  0  1  0  0  3  0  0  0  0  0  0
  182.2510  174.6890  137.8790 O   0  0  0  0  0  0  0  0  0  0  0  0
  181.7040  178.9290  140.7020 C   0  0  0  0  0  2  0  0  0  0  0  0
  182.3030  176.9890  139.4230 N   0  0  1  0  0  0  0  0  0  0  0  0
  188.1180  176.9760  136.7510 C   0  0  0  0  0  3  0  0  0  0  0  0
  181.2320  177.6910  138.7090 C   0  0  2  0  0  3  0  0  0  0  0  0
  187.8310  177.6170  138.0390 C   0  0  0  0  0  0  0  0  0  0  0  0
  183.4310  176.7180  138.5150 C   0  0  2  0  0  3  0  0  0  0  0  0
  180.0120  175.3870  138.6710 C   0  0  2  0  0  3  0  0  0  0  0  0
  185.4540  177.7370  137.5210 C   0  0  0  0  0  0  0  0  0  0  0  0
  184.1650  175.2300  136.5290 C   0  0  1  0  0  3  0  0  0  0  0  0
  187.1410  176.7850  135.8640 C   0  0  0  0  0  3  0  0  0  0  0  0
  180.6490  175.4670  136.3050 O   0  0  0  0  0  1  0  0  0  0  0  0
  188.7650  177.8630  138.8450 O   0  0  0  0  0  0  0  0  0  0  0  0
  181.0500  179.0500  139.3520 C   0  0  0  0  0  2  0  0  0  0  0  0
  186.4430  177.9280  138.3990 C   0  0  0  0  0  3  0  0  0  0  0  0
  179.9130  176.9170  138.7730 C   0  0  0  0  0  2  0  0  0  0  0  0
  185.7310  177.2710  136.1030 C   0  0  1  0  0  3  0  0  0  0  0  0
  182.7390  177.8440  140.5250 C   0  0  0  0  0  2  0  0  0  0  0  0
  184.8040  173.1010  137.6520 C   0  0  0  0  0  2  0  0  0  0  0  0
  185.8020  173.3550  136.5430 C   0  0  0  0  0  2  0  0  0  0  0  0
  185.2470  174.5180  137.3420 C   0  0  0  0  0  3  0  0  0  0  0  0
  179.5810  175.3800  140.8900 O   0  0  0  0  0  1  0  0  0  0  0  0
  180.3750  174.8060  139.9550 N   0  0  0  0  0  2  0  0  0  0  0  0
  2  5  1  1  0  0  0
  2 11  1  0  0  0  0
  3 14  1  0  0  0  0
  4 16  1  6  0  0  0
  4  5  1  0  0  0  0
  4 12  1  0  0  0  0
  7 22  1  1  0  0  0
  8 10  1  0  0  0  0
  9 20  1  1  0  0  0
  9 18  1  0  0  0  0
  9  7  1  0  0  0  0
 10 19  1  0  0  0  0
 10 17  2  0  0  0  0
 11  1  1  6  0  0  0
 11  7  1  0  0  0  0
 12 20  1  0  0  0  0
 12 27  1  1  0  0  0
 13  1  1  0  0  0  0
 13 19  2  0  0  0  0
 14 25  1  1  0  0  0
 14  2  1  0  0  0  0
 15 21  1  0  0  0  0
 15  8  2  0  0  0  0
 18  6  1  0  0  0  0
 21  3  1  1  0  0  0
 21 13  1  0  0  0  0
 22  6  1  0  0  0  0
 24 25  1  0  0  0  0
 24 23  1  0  0  0  0
 25 23  1  0  0  0  0
 27 26  1  0  0  0  0
M  END
>  <MODEL>
7

>  <REMARK>
 VINA RESULT:      -4.9      6.186      8.303
  Name = 
  2 active torsions:
  status: ('A' for Active; 'I' for Inactive)
    1  A    between atoms: C_14  and  C_19
    2  A    between atoms: N_16  and  C_17
                            x       y       z     vdW  Elec       q    Type
                         _______ _______ _______ _____ _____    ______ ____

>  <TORSDO>
F 2

$$$$
=
 OpenBabel10262420123D

 27 31  0  0  1  0  0  0  0  0999 V2000
  188.7300  178.4310  141.3550 C   0  0  0  0  0  2  0  0  0  0  0  0
  190.8570  177.0840  141.0430 C   0  0  1  0  0  3  0  0  0  0  0  0
  191.1170  178.3910  143.2230 C   0  0  0  0  0  2  0  0  0  0  0  0
  192.1960  176.4630  139.2490 C   0  0  1  0  0  3  0  0  0  0  0  0
  191.4420  176.0030  140.3610 O   0  0  0  0  0  0  0  0  0  0  0  0
  187.2870  177.8040  137.9660 C   0  0  0  0  0  2  0  0  0  0  0  0
  189.0300  176.9350  139.3700 N   0  0  1  0  0  0  0  0  0  0  0  0
  188.4020  177.8780  145.6680 C   0  0  0  0  0  3  0  0  0  0  0  0
  189.5910  178.0320  138.5740 C   0  0  2  0  0  3  0  0  0  0  0  0
  187.2580  177.6670  144.7730 C   0  0  0  0  0  0  0  0  0  0  0  0
  189.3340  177.1310  140.7970 C   0  0  2  0  0  3  0  0  0  0  0  0
  191.4550  176.3350  137.9080 C   0  0  2  0  0  3  0  0  0  0  0  0
  188.5770  178.3190  142.8320 C   0  0  0  0  0  0  0  0  0  0  0  0
  191.2540  177.0260  142.5280 C   0  0  1  0  0  3  0  0  0  0  0  0
  189.5520  178.3500  145.1860 C   0  0  0  0  0  3  0  0  0  0  0  0
  192.7910  177.7210  139.4260 O   0  0  0  0  0  1  0  0  0  0  0  0
  186.1520  177.2920  145.2380 O   0  0  0  0  0  0  0  0  0  0  0  0
  188.4450  178.7630  137.9060 C   0  0  0  0  0  2  0  0  0  0  0  0
  187.4280  177.8510  143.3270 C   0  0  0  0  0  3  0  0  0  0  0  0
  190.5550  177.5130  137.5050 C   0  0  0  0  0  2  0  0  0  0  0  0
  189.7160  178.7490  143.7390 C   0  0  1  0  0  3  0  0  0  0  0  0
  187.5830  176.9280  139.1600 C   0  0  0  0  0  2  0  0  0  0  0  0
  191.6800  174.8160  143.5930 C   0  0  0  0  0  2  0  0  0  0  0  0
  191.2390  175.7740  144.6790 C   0  0  0  0  0  2  0  0  0  0  0  0
  190.6240  175.8630  143.2950 C   0  0  0  0  0  3  0  0  0  0  0  0
  191.6490  174.1050  137.5940 O   0  0  0  0  0  1  0  0  0  0  0  0
  190.7310  175.0760  137.8160 N   0  0  0  0  0  2  0  0  0  0  0  0
  1 13  1  0  0  0  0
  2  5  1  6  0  0  0
  2 14  1  0  0  0  0
  4 16  1  1  0  0  0
  4  5  1  0  0  0  0
  6 22  1  0  0  0  0
  7 22  1  1  0  0  0
  7 11  1  0  0  0  0
  9 20  1  6  0  0  0
  9  7  1  0  0  0  0
 10 17  2  0  0  0  0
 10  8  1  0  0  0  0
 11  2  1  0  0  0  0
 11  1  1  6  0  0  0
 12 27  1  1  0  0  0
 12  4  1  0  0  0  0
 13 19  2  0  0  0  0
 13 21  1  0  0  0  0
 14  3  1  0  0  0  0
 14 25  1  1  0  0  0
 15  8  2  0  0  0  0
 18  6  1  0  0  0  0
 18  9  1  0  0  0  0
 19 10  1  0  0  0  0
 20 12  1  0  0  0  0
 21  3  1  6  0  0  0
 21 15  1  0  0  0  0
 23 24  1  0  0  0  0
 25 23  1  0  0  0  0
 25 24  1  0  0  0  0
 26 27  1  0  0  0  0
M  END
>  <MODEL>
8

>  <REMARK>
 VINA RESULT:      -4.8      3.172      6.989
  Name = 
  2 active torsions:
  status: ('A' for Active; 'I' for Inactive)
    1  A    between atoms: C_14  and  C_19
    2  A    between atoms: N_16  and  C_17
                            x       y       z     vdW  Elec       q    Type
                         _______ _______ _______ _____ _____    ______ ____

>  <TORSDO>
F 2

$$$$
=
 OpenBabel10262420123D

 27 31  0  0  1  0  0  0  0  0999 V2000
  182.6280  175.0510  137.0140 C   0  0  0  0  0  2  0  0  0  0  0  0
  184.3920  176.8730  136.9820 C   0  0  1  0  0  3  0  0  0  0  0  0
  182.1220  178.0330  136.8280 C   0  0  0  0  0  2  0  0  0  0  0  0
  186.5130  177.1320  136.0700 C   0  0  1  0  0  3  0  0  0  0  0  0
  185.7380  177.1740  137.2580 O   0  0  0  0  0  0  0  0  0  0  0  0
  184.9520  172.1520  136.6200 C   0  0  0  0  0  2  0  0  0  0  0  0
  185.0640  174.4890  137.1550 N   0  0  1  0  0  0  0  0  0  0  0  0
  179.7540  177.1660  139.5200 C   0  0  0  0  0  3  0  0  0  0  0  0
  185.1610  174.3510  135.6980 C   0  0  2  0  0  3  0  0  0  0  0  0
  180.1370  175.7740  139.7890 C   0  0  0  0  0  0  0  0  0  0  0  0
  184.0230  175.4690  137.5080 C   0  0  2  0  0  3  0  0  0  0  0  0
  187.3030  175.8240  135.8960 C   0  0  2  0  0  3  0  0  0  0  0  0
  181.5830  175.7290  137.8300 C   0  0  0  0  0  0  0  0  0  0  0  0
  183.4960  178.0030  137.5160 C   0  0  1  0  0  3  0  0  0  0  0  0
  180.2050  177.7870  138.4300 C   0  0  0  0  0  3  0  0  0  0  0  0
  185.8250  177.5130  134.9080 O   0  0  0  0  0  1  0  0  0  0  0  0
  179.6540  175.1650  140.7780 O   0  0  0  0  0  0  0  0  0  0  0  0
  184.8070  172.9240  135.3370 C   0  0  0  0  0  2  0  0  0  0  0  0
  181.1210  175.1150  138.9230 C   0  0  0  0  0  3  0  0  0  0  0  0
  186.5710  174.6680  135.1970 C   0  0  0  0  0  2  0  0  0  0  0  0
  181.0580  177.0860  137.3990 C   0  0  1  0  0  3  0  0  0  0  0  0
  184.7270  173.1780  137.7050 C   0  0  0  0  0  2  0  0  0  0  0  0
  184.6220  178.8730  139.5600 C   0  0  0  0  0  2  0  0  0  0  0  0
  183.2580  179.5230  139.4720 C   0  0  0  0  0  2  0  0  0  0  0  0
  183.4370  178.0800  139.0420 C   0  0  0  0  0  3  0  0  0  0  0  0
  188.4990  174.1980  136.9120 O   0  0  0  0  0  1  0  0  0  0  0  0
  187.8870  175.3820  137.1530 N   0  0  0  0  0  2  0  0  0  0  0  0
  1 13  1  0  0  0  0
  2  5  1  1  0  0  0
  2 11  1  0  0  0  0
  2 14  1  0  0  0  0
  3 14  1  0  0  0  0
  4 16  1  6  0  0  0
  4  5  1  0  0  0  0
  6 22  1  0  0  0  0
  7 11  1  0  0  0  0
  7 22  1  1  0  0  0
  8 10  1  0  0  0  0
  9 20  1  1  0  0  0
  9  7  1  0  0  0  0
 10 17  2  0  0  0  0
 11  1  1  6  0  0  0
 12  4  1  0  0  0  0
 12 27  1  1  0  0  0
 13 19  2  0  0  0  0
 14 25  1  1  0  0  0
 15  8  2  0  0  0  0
 18  9  1  0  0  0  0
 18  6  1  0  0  0  0
 19 10  1  0  0  0  0
 20 12  1  0  0  0  0
 21  3  1  1  0  0  0
 21 13  1  0  0  0  0
 21 15  1  0  0  0  0
 24 23  1  0  0  0  0
 25 24  1  0  0  0  0
 25 23  1  0  0  0  0
 26 27  1  0  0  0  0
M  END
>  <MODEL>
9

>  <REMARK>
 VINA RESULT:      -4.7      6.994      9.934
  Name = 
  2 active torsions:
  status: ('A' for Active; 'I' for Inactive)
    1  A    between atoms: C_14  and  C_19
    2  A    between atoms: N_16  and  C_17
                            x       y       z     vdW  Elec       q    Type
                         _______ _______ _______ _____ _____    ______ ____

>  <TORSDO>
F 2

$$$$
