=
 OpenBabel10262423053D

 37 41  0  0  1  0  0  0  0  0999 V2000
  190.2710  175.3930  142.7680 C   0  0  0  0  0  1  0  0  0  0  0  0
  187.4100  178.9280  140.9420 C   0  0  2  0  0  3  0  0  0  0  0  0
  183.7330  178.1110  139.2060 C   0  0  1  0  0  0  0  0  0  0  0  0
  185.0090  177.7720  137.9100 S   0  0  0  0  0  0  0  0  0  0  0  0
  188.6860  177.3070  142.3370 C   0  0  2  0  0  3  0  0  0  0  0  0
  187.0450  177.9770  139.8890 N   0  0  1  0  0  0  0  0  0  0  0  0
  188.7920  178.5320  141.3890 C   0  0  1  0  0  3  0  0  0  0  0  0
  185.8960  178.6050  139.2710 C   0  0  2  0  0  3  0  0  0  0  0  0
  187.7520  177.5820  143.4330 N   0  0  0  0  0  2  0  0  0  0  0  0
  189.4330  178.2030  140.0270 C   0  0  1  0  0  3  0  0  0  0  0  0
  191.6860  177.5460  141.0680 C   0  0  0  0  0  2  0  0  0  0  0  0
  185.4980  177.8420  143.9680 O   0  0  0  0  0  1  0  0  0  0  0  0
  186.3970  177.7500  142.9050 C   0  0  1  0  0  3  0  0  0  0  0  0
  190.5880  177.1740  140.0620 C   0  0  2  0  0  3  0  0  0  0  0  0
  186.3320  179.0230  142.0590 C   0  0  2  0  0  3  0  0  0  0  0  0
  188.2390  177.9330  139.0600 C   0  0  1  0  0  3  0  0  0  0  0  0
  190.0290  176.8810  142.9460 C   0  0  2  0  0  3  0  0  0  0  0  0
  184.7950  178.3360  140.2470 C   0  0  1  0  0  3  0  0  0  0  0  0
  191.2360  177.7280  142.5230 C   0  0  0  0  0  2  0  0  0  0  0  0
  184.9160  179.2650  141.4430 C   0  0  0  0  0  2  0  0  0  0  0  0
  182.9250  179.3830  138.9400 C   0  0  0  0  0  2  0  0  0  0  0  0
  181.7080  179.3540  139.6230 O   0  0  0  0  0  1  0  0  0  0  0  0
  182.8900  176.8870  139.5720 C   0  0  0  0  0  2  0  0  0  0  0  0
  181.6090  176.4600  137.6020 O   0  0  0  0  0  0  0  0  0  0  0  0
  183.1490  174.8130  138.1540 N   0  0  0  0  0  1  0  0  0  0  0  0
  182.5050  176.0590  138.3890 C   0  0  0  0  0  0  0  0  0  0  0  0
  191.2390  177.0550  138.6810 C   0  0  0  0  0  2  0  0  0  0  0  0
  192.0530  175.7720  138.4780 C   0  0  1  0  0  3  0  0  0  0  0  0
  191.3790  174.7860  137.5370 C   0  0  0  0  0  1  0  0  0  0  0  0
  193.4740  176.0300  138.0860 C   0  0  0  0  0  0  0  0  0  0  0  0
  193.7380  176.7210  137.0630 O   0  0  0  0  0  0  0  0  0  0  0  0
  194.5010  175.5060  138.8750 O   0  0  0  0  0  0  0  0  0  0  0  0
  195.4750  174.6060  138.3600 C   0  0  0  0  0  2  0  0  0  0  0  0
  194.8950  173.2080  138.2610 C   0  0  0  0  0  1  0  0  0  0  0  0
  188.2890  176.5880  138.3460 C   0  0  0  0  0  2  0  0  0  0  0  0
  188.3080  176.8140  136.8490 C   0  0  0  0  0  2  0  0  0  0  0  0
  188.4760  178.1730  136.5860 O   0  0  0  0  0  1  0  0  0  0  0  0
  1 17  1  0  0  0  0
  2  7  1  0  0  0  0
  2 15  1  0  0  0  0
  3 23  1  0  0  0  0
  3 18  1  0  0  0  0
  4  3  1  0  0  0  0
  4  8  1  0  0  0  0
  5 17  1  0  0  0  0
  5  9  1  0  0  0  0
  6  2  1  0  0  0  0
  7  5  1  0  0  0  0
  8  6  1  0  0  0  0
  8 18  1  0  0  0  0
 10 14  1  0  0  0  0
 10  7  1  0  0  0  0
 11 19  1  0  0  0  0
 13  9  1  0  0  0  0
 13 12  1  0  0  0  0
 14 11  1  0  0  0  0
 15 13  1  0  0  0  0
 16  6  1  0  0  0  0
 16 10  1  0  0  0  0
 18 20  1  0  0  0  0
 19 17  1  0  0  0  0
 20 15  1  0  0  0  0
 21  3  1  0  0  0  0
 21 22  1  0  0  0  0
 24 26  2  0  0  0  0
 25 26  1  0  0  0  0
 26 23  1  0  0  0  0
 27 14  1  0  0  0  0
 28 27  1  0  0  0  0
 29 28  1  0  0  0  0
 30 28  1  0  0  0  0
 30 32  1  0  0  0  0
 31 30  2  0  0  0  0
 33 32  1  0  0  0  0
 34 33  1  0  0  0  0
 35 16  1  0  0  0  0
 36 35  1  0  0  0  0
 37 36  1  0  0  0  0
M  END
>  <MODEL>
1

>  <REMARK>
 VINA RESULT:      -6.0      0.000      0.000
  Name = 
  10 active torsions:
  status: ('A' for Active; 'I' for Inactive)
    1  A    between atoms: C_1  and  C_5
    2  A    between atoms: C_1  and  C_23
    3  A    between atoms: C_2  and  C_6
    4  A    between atoms: C_5  and  O_26
    5  A    between atoms: C_6  and  C_8
    6  A    between atoms: C_8  and  C_19
    7  A    between atoms: C_11  and  O_26
    8  A    between atoms: C_23  and  C_25
    9  A    between atoms: C_27  and  C_33
   10  A    between atoms: C_29  and  C_33
                            x       y       z     vdW  Elec       q    Type
                         _______ _______ _______ _____ _____    ______ ____

>  <TORSDO>
F 10

$$$$
=
 OpenBabel10262423053D

 37 41  0  0  1  0  0  0  0  0999 V2000
  183.4270  176.3350  139.0050 C   0  0  0  0  0  1  0  0  0  0  0  0
  187.7210  178.1280  137.4680 C   0  0  2  0  0  3  0  0  0  0  0  0
  191.2280  175.9220  137.6640 C   0  0  1  0  0  0  0  0  0  0  0  0
  190.9600  176.6280  139.3540 S   0  0  0  0  0  0  0  0  0  0  0  0
  185.4440  177.1560  137.7310 C   0  0  2  0  0  3  0  0  0  0  0  0
  188.3310  177.4080  138.5880 N   0  0  1  0  0  0  0  0  0  0  0  0
  186.3110  178.4330  137.8960 C   0  0  1  0  0  3  0  0  0  0  0  0
  189.7440  177.4560  138.2730 C   0  0  2  0  0  3  0  0  0  0  0  0
  185.5600  176.6260  136.3690 N   0  0  0  0  0  2  0  0  0  0  0  0
  186.5550  178.8260  139.3670 C   0  0  1  0  0  3  0  0  0  0  0  0
  184.0640  179.2400  139.8330 C   0  0  0  0  0  2  0  0  0  0  0  0
  186.9830  175.5170  134.8940 O   0  0  0  0  0  1  0  0  0  0  0  0
  186.9290  176.1700  136.1260 C   0  0  1  0  0  3  0  0  0  0  0  0
  185.3650  178.5920  140.3280 C   0  0  2  0  0  3  0  0  0  0  0  0
  187.8770  177.3700  136.1190 C   0  0  2  0  0  3  0  0  0  0  0  0
  187.9330  178.2010  139.7410 C   0  0  1  0  0  3  0  0  0  0  0  0
  183.9560  177.3780  138.0350 C   0  0  2  0  0  3  0  0  0  0  0  0
  189.8890  176.4240  137.2010 C   0  0  1  0  0  3  0  0  0  0  0  0
  183.5790  178.8070  138.4440 C   0  0  0  0  0  2  0  0  0  0  0  0
  189.3660  176.9620  135.8800 C   0  0  0  0  0  2  0  0  0  0  0  0
  192.3750  176.5930  136.9050 C   0  0  0  0  0  2  0  0  0  0  0  0
  193.5330  176.6360  137.6850 O   0  0  0  0  0  1  0  0  0  0  0  0
  191.2550  174.3920  137.6370 C   0  0  0  0  0  2  0  0  0  0  0  0
  190.8650  173.7960  135.3580 O   0  0  0  0  0  0  0  0  0  0  0  0
  189.1490  173.2590  136.8260 N   0  0  0  0  0  1  0  0  0  0  0  0
  190.4310  173.8050  136.5390 C   0  0  0  0  0  0  0  0  0  0  0  0
  185.6760  179.1660  141.7130 C   0  0  0  0  0  2  0  0  0  0  0  0
  185.0470  178.3860  142.8730 C   0  0  1  0  0  3  0  0  0  0  0  0
  186.0340  178.0870  143.9900 C   0  0  0  0  0  1  0  0  0  0  0  0
  183.7920  179.0140  143.3950 C   0  0  0  0  0  0  0  0  0  0  0  0
  183.8510  179.9670  144.2190 O   0  0  0  0  0  0  0  0  0  0  0  0
  182.5590  178.5360  142.9450 O   0  0  0  0  0  0  0  0  0  0  0  0
  181.3550  179.2800  143.0890 C   0  0  0  0  0  2  0  0  0  0  0  0
  180.3390  178.4870  143.8880 C   0  0  0  0  0  1  0  0  0  0  0  0
  187.9120  177.3000  140.9700 C   0  0  0  0  0  2  0  0  0  0  0  0
  188.9590  177.7720  141.9570 C   0  0  0  0  0  2  0  0  0  0  0  0
  189.3940  176.6940  142.7250 O   0  0  0  0  0  1  0  0  0  0  0  0
  2  7  1  0  0  0  0
  2  6  1  0  0  0  0
  3  4  1  0  0  0  0
  5  7  1  0  0  0  0
  5 17  1  0  0  0  0
  6 16  1  0  0  0  0
  7 10  1  0  0  0  0
  8  6  1  0  0  0  0
  8  4  1  0  0  0  0
  9  5  1  0  0  0  0
 10 16  1  0  0  0  0
 10 14  1  0  0  0  0
 11 14  1  0  0  0  0
 12 13  1  0  0  0  0
 13  9  1  0  0  0  0
 14 27  1  0  0  0  0
 15 13  1  0  0  0  0
 15  2  1  0  0  0  0
 16 35  1  0  0  0  0
 17 19  1  0  0  0  0
 17  1  1  0  0  0  0
 18  3  1  0  0  0  0
 18  8  1  0  0  0  0
 19 11  1  0  0  0  0
 20 15  1  0  0  0  0
 20 18  1  0  0  0  0
 21  3  1  0  0  0  0
 21 22  1  0  0  0  0
 23  3  1  0  0  0  0
 24 26  2  0  0  0  0
 26 25  1  0  0  0  0
 26 23  1  0  0  0  0
 27 28  1  0  0  0  0
 28 30  1  0  0  0  0
 28 29  1  0  0  0  0
 30 31  2  0  0  0  0
 32 33  1  0  0  0  0
 32 30  1  0  0  0  0
 33 34  1  0  0  0  0
 35 36  1  0  0  0  0
 36 37  1  0  0  0  0
M  END
>  <MODEL>
2

>  <REMARK>
 VINA RESULT:      -5.4      2.592      8.396
  Name = 
  10 active torsions:
  status: ('A' for Active; 'I' for Inactive)
    1  A    between atoms: C_1  and  C_5
    2  A    between atoms: C_1  and  C_23
    3  A    between atoms: C_2  and  C_6
    4  A    between atoms: C_5  and  O_26
    5  A    between atoms: C_6  and  C_8
    6  A    between atoms: C_8  and  C_19
    7  A    between atoms: C_11  and  O_26
    8  A    between atoms: C_23  and  C_25
    9  A    between atoms: C_27  and  C_33
   10  A    between atoms: C_29  and  C_33
                            x       y       z     vdW  Elec       q    Type
                         _______ _______ _______ _____ _____    ______ ____

>  <TORSDO>
F 10

$$$$
=
 OpenBabel10262423053D

 37 41  0  0  1  0  0  0  0  0999 V2000
  185.4270  175.0570  137.2050 C   0  0  0  0  0  1  0  0  0  0  0  0
  188.5890  178.2330  139.1880 C   0  0  2  0  0  3  0  0  0  0  0  0
  190.2450  177.6390  142.9440 C   0  0  1  0  0  0  0  0  0  0  0  0
  188.5630  178.3580  143.2230 S   0  0  0  0  0  0  0  0  0  0  0  0
  187.4010  176.4690  137.8920 C   0  0  2  0  0  3  0  0  0  0  0  0
  187.9520  177.9410  140.4740 N   0  0  1  0  0  0  0  0  0  0  0  0
  187.5320  177.9960  138.1440 C   0  0  1  0  0  3  0  0  0  0  0  0
  188.8760  178.5120  141.4310 C   0  0  2  0  0  3  0  0  0  0  0  0
  188.7070  175.8850  137.5730 N   0  0  0  0  0  2  0  0  0  0  0  0
  186.3090  178.6100  138.8530 C   0  0  1  0  0  3  0  0  0  0  0  0
  184.7100  178.0470  136.9260 C   0  0  0  0  0  2  0  0  0  0  0  0
  190.7720  175.2820  138.4700 O   0  0  0  0  0  1  0  0  0  0  0  0
  189.5970  175.9880  138.7300 C   0  0  1  0  0  3  0  0  0  0  0  0
  184.9350  178.0270  138.4440 C   0  0  2  0  0  3  0  0  0  0  0  0
  189.9240  177.4580  138.9970 C   0  0  2  0  0  3  0  0  0  0  0  0
  186.6740  178.6290  140.3690 C   0  0  1  0  0  3  0  0  0  0  0  0
  186.4250  176.1120  136.7620 C   0  0  2  0  0  3  0  0  0  0  0  0
  189.9880  177.5130  141.4680 C   0  0  1  0  0  3  0  0  0  0  0  0
  185.7530  177.3090  136.0770 C   0  0  0  0  0  2  0  0  0  0  0  0
  190.8610  177.6530  140.2330 C   0  0  0  0  0  2  0  0  0  0  0  0
  191.3800  178.6240  143.2370 C   0  0  0  0  0  2  0  0  0  0  0  0
  190.9570  179.6280  144.1110 O   0  0  0  0  0  1  0  0  0  0  0  0
  190.4300  176.2530  143.5670 C   0  0  0  0  0  2  0  0  0  0  0  0
  192.0530  175.9090  145.2830 O   0  0  0  0  0  0  0  0  0  0  0  0
  190.0250  176.7790  146.0030 N   0  0  0  0  0  1  0  0  0  0  0  0
  190.8950  176.2990  144.9850 C   0  0  0  0  0  0  0  0  0  0  0  0
  183.8020  178.8240  139.0960 C   0  0  0  0  0  2  0  0  0  0  0  0
  182.4970  178.0370  139.2670 C   0  0  1  0  0  3  0  0  0  0  0  0
  182.7280  176.5820  139.6410 C   0  0  0  0  0  1  0  0  0  0  0  0
  181.5240  178.7000  140.1920 C   0  0  0  0  0  0  0  0  0  0  0  0
  181.6740  178.6160  141.4410 O   0  0  0  0  0  0  0  0  0  0  0  0
  180.4590  179.4230  139.6490 O   0  0  0  0  0  0  0  0  0  0  0  0
  180.4490  180.8440  139.5970 C   0  0  0  0  0  2  0  0  0  0  0  0
  181.1520  181.3280  138.3430 C   0  0  0  0  0  1  0  0  0  0  0  0
  185.6680  177.9330  141.2770 C   0  0  0  0  0  2  0  0  0  0  0  0
  185.1210  178.9290  142.2770 C   0  0  0  0  0  2  0  0  0  0  0  0
  184.8340  178.2770  143.4750 O   0  0  0  0  0  1  0  0  0  0  0  0
  2  6  1  0  0  0  0
  3  4  1  0  0  0  0
  3 21  1  0  0  0  0
  3 23  1  0  0  0  0
  5  7  1  0  0  0  0
  6  8  1  0  0  0  0
  7 10  1  0  0  0  0
  7  2  1  0  0  0  0
  8 18  1  0  0  0  0
  8  4  1  0  0  0  0
  9  5  1  0  0  0  0
  9 13  1  0  0  0  0
 10 16  1  0  0  0  0
 11 14  1  0  0  0  0
 12 13  1  0  0  0  0
 13 15  1  0  0  0  0
 14 10  1  0  0  0  0
 14 27  1  0  0  0  0
 15  2  1  0  0  0  0
 15 20  1  0  0  0  0
 16  6  1  0  0  0  0
 16 35  1  0  0  0  0
 17  1  1  0  0  0  0
 17  5  1  0  0  0  0
 18  3  1  0  0  0  0
 19 17  1  0  0  0  0
 19 11  1  0  0  0  0
 20 18  1  0  0  0  0
 21 22  1  0  0  0  0
 23 26  1  0  0  0  0
 26 24  2  0  0  0  0
 26 25  1  0  0  0  0
 27 28  1  0  0  0  0
 28 29  1  0  0  0  0
 28 30  1  0  0  0  0
 30 31  2  0  0  0  0
 32 30  1  0  0  0  0
 33 32  1  0  0  0  0
 34 33  1  0  0  0  0
 35 36  1  0  0  0  0
 36 37  1  0  0  0  0
M  END
>  <MODEL>
3

>  <REMARK>
 VINA RESULT:      -5.3      2.688      8.630
  Name = 
  10 active torsions:
  status: ('A' for Active; 'I' for Inactive)
    1  A    between atoms: C_1  and  C_5
    2  A    between atoms: C_1  and  C_23
    3  A    between atoms: C_2  and  C_6
    4  A    between atoms: C_5  and  O_26
    5  A    between atoms: C_6  and  C_8
    6  A    between atoms: C_8  and  C_19
    7  A    between atoms: C_11  and  O_26
    8  A    between atoms: C_23  and  C_25
    9  A    between atoms: C_27  and  C_33
   10  A    between atoms: C_29  and  C_33
                            x       y       z     vdW  Elec       q    Type
                         _______ _______ _______ _____ _____    ______ ____

>  <TORSDO>
F 10

$$$$
=
 OpenBabel10262423053D

 37 41  0  0  1  0  0  0  0  0999 V2000
  190.9610  179.6370  144.6120 C   0  0  0  0  0  1  0  0  0  0  0  0
  189.8050  176.2830  141.2310 C   0  0  2  0  0  3  0  0  0  0  0  0
  188.5490  177.3370  137.4210 C   0  0  1  0  0  0  0  0  0  0  0  0
  187.0660  177.4820  138.5180 S   0  0  0  0  0  0  0  0  0  0  0  0
  190.8910  177.8560  142.8270 C   0  0  2  0  0  3  0  0  0  0  0  0
  188.7500  177.2020  140.7960 N   0  0  1  0  0  0  0  0  0  0  0  0
  190.0260  176.5740  142.6910 C   0  0  1  0  0  3  0  0  0  0  0  0
  188.3440  176.6500  139.5210 C   0  0  2  0  0  3  0  0  0  0  0  0
  192.1240  177.7320  142.0430 N   0  0  0  0  0  2  0  0  0  0  0  0
  188.5670  176.7650  143.1520 C   0  0  1  0  0  3  0  0  0  0  0  0
  189.2340  177.2680  145.5790 C   0  0  0  0  0  2  0  0  0  0  0  0
  192.9850  177.7130  139.8780 O   0  0  0  0  0  1  0  0  0  0  0  0
  191.8030  177.6600  140.6170 C   0  0  1  0  0  3  0  0  0  0  0  0
  188.3680  177.6830  144.3810 C   0  0  2  0  0  3  0  0  0  0  0  0
  191.0660  176.3530  140.3220 C   0  0  2  0  0  3  0  0  0  0  0  0
  187.7610  177.0880  141.8570 C   0  0  1  0  0  3  0  0  0  0  0  0
  191.2750  178.1900  144.2750 C   0  0  2  0  0  3  0  0  0  0  0  0
  189.4430  177.0740  138.6000 C   0  0  1  0  0  3  0  0  0  0  0  0
  190.7470  177.2120  145.3330 C   0  0  0  0  0  2  0  0  0  0  0  0
  190.6730  176.2080  138.8160 C   0  0  0  0  0  2  0  0  0  0  0  0
  188.4880  176.1320  136.4790 C   0  0  0  0  0  2  0  0  0  0  0  0
  189.4780  176.2140  135.4980 O   0  0  0  0  0  1  0  0  0  0  0  0
  188.9430  178.6530  136.7450 C   0  0  0  0  0  2  0  0  0  0  0  0
  187.3770  180.4430  136.5340 O   0  0  0  0  0  0  0  0  0  0  0  0
  187.1710  178.7600  134.9490 N   0  0  0  0  0  1  0  0  0  0  0  0
  187.7950  179.3450  136.0850 C   0  0  0  0  0  0  0  0  0  0  0  0
  186.9050  177.6610  144.8320 C   0  0  0  0  0  2  0  0  0  0  0  0
  186.4440  178.9440  145.5340 C   0  0  1  0  0  3  0  0  0  0  0  0
  185.3220  179.6540  144.7940 C   0  0  0  0  0  1  0  0  0  0  0  0
  186.1130  178.7400  146.9790 C   0  0  0  0  0  0  0  0  0  0  0  0
  184.9620  178.3540  147.3210 O   0  0  0  0  0  0  0  0  0  0  0  0
  187.1010  178.9710  147.9390 O   0  0  0  0  0  0  0  0  0  0  0  0
  187.7800  177.9120  148.6040 C   0  0  0  0  0  2  0  0  0  0  0  0
  189.2580  178.2310  148.7250 C   0  0  0  0  0  1  0  0  0  0  0  0
  186.9550  178.3800  141.9140 C   0  0  0  0  0  2  0  0  0  0  0  0
  185.5110  178.0870  141.5660 C   0  0  0  0  0  2  0  0  0  0  0  0
  184.9210  179.2280  141.0250 O   0  0  0  0  0  1  0  0  0  0  0  0
  2  7  1  0  0  0  0
  3  4  1  0  0  0  0
  3 18  1  0  0  0  0
  4  8  1  0  0  0  0
  5 17  1  0  0  0  0
  6  2  1  0  0  0  0
  6 16  1  0  0  0  0
  7  5  1  0  0  0  0
  7 10  1  0  0  0  0
  8  6  1  0  0  0  0
  9  5  1  0  0  0  0
 10 14  1  0  0  0  0
 12 13  1  0  0  0  0
 13  9  1  0  0  0  0
 14 27  1  0  0  0  0
 14 11  1  0  0  0  0
 15 13  1  0  0  0  0
 15  2  1  0  0  0  0
 16 35  1  0  0  0  0
 16 10  1  0  0  0  0
 17  1  1  0  0  0  0
 17 19  1  0  0  0  0
 18 20  1  0  0  0  0
 18  8  1  0  0  0  0
 19 11  1  0  0  0  0
 20 15  1  0  0  0  0
 21  3  1  0  0  0  0
 22 21  1  0  0  0  0
 23  3  1  0  0  0  0
 25 26  1  0  0  0  0
 26 24  2  0  0  0  0
 26 23  1  0  0  0  0
 27 28  1  0  0  0  0
 28 30  1  0  0  0  0
 29 28  1  0  0  0  0
 30 31  2  0  0  0  0
 30 32  1  0  0  0  0
 32 33  1  0  0  0  0
 33 34  1  0  0  0  0
 36 35  1  0  0  0  0
 37 36  1  0  0  0  0
M  END
>  <MODEL>
4

>  <REMARK>
 VINA RESULT:      -5.2      2.814      7.154
  Name = 
  10 active torsions:
  status: ('A' for Active; 'I' for Inactive)
    1  A    between atoms: C_1  and  C_5
    2  A    between atoms: C_1  and  C_23
    3  A    between atoms: C_2  and  C_6
    4  A    between atoms: C_5  and  O_26
    5  A    between atoms: C_6  and  C_8
    6  A    between atoms: C_8  and  C_19
    7  A    between atoms: C_11  and  O_26
    8  A    between atoms: C_23  and  C_25
    9  A    between atoms: C_27  and  C_33
   10  A    between atoms: C_29  and  C_33
                            x       y       z     vdW  Elec       q    Type
                         _______ _______ _______ _____ _____    ______ ____

>  <TORSDO>
F 10

$$$$
=
 OpenBabel10262423053D

 37 41  0  0  1  0  0  0  0  0999 V2000
  190.8230  176.2710  141.5900 C   0  0  0  0  0  1  0  0  0  0  0  0
  188.5810  177.6760  137.4660 C   0  0  2  0  0  3  0  0  0  0  0  0
  185.1120  175.8500  136.1110 C   0  0  1  0  0  0  0  0  0  0  0  0
  186.5140  174.7650  135.5820 S   0  0  0  0  0  0  0  0  0  0  0  0
  189.4980  177.3990  139.7640 C   0  0  2  0  0  3  0  0  0  0  0  0
  188.2740  176.2610  137.2460 N   0  0  1  0  0  0  0  0  0  0  0  0
  189.8450  177.6980  138.2810 C   0  0  1  0  0  3  0  0  0  0  0  0
  187.2820  176.3040  136.1910 C   0  0  2  0  0  3  0  0  0  0  0  0
  188.4540  178.3090  140.2440 N   0  0  0  0  0  2  0  0  0  0  0  0
  190.6310  176.5660  137.5920 C   0  0  1  0  0  3  0  0  0  0  0  0
  192.6510  176.7990  139.1590 C   0  0  0  0  0  2  0  0  0  0  0  0
  186.1830  178.8150  140.1010 O   0  0  0  0  0  1  0  0  0  0  0  0
  187.2050  178.0630  139.5210 C   0  0  1  0  0  3  0  0  0  0  0  0
  191.6690  175.8360  138.4770 C   0  0  2  0  0  3  0  0  0  0  0  0
  187.3740  178.4620  138.0540 C   0  0  2  0  0  3  0  0  0  0  0  0
  189.5600  175.7040  136.8570 C   0  0  1  0  0  3  0  0  0  0  0  0
  190.7010  177.5040  140.7120 C   0  0  2  0  0  3  0  0  0  0  0  0
  186.0390  176.7240  136.9090 C   0  0  1  0  0  3  0  0  0  0  0  0
  192.0280  177.8860  140.0440 C   0  0  0  0  0  2  0  0  0  0  0  0
  186.0840  178.2120  137.2090 C   0  0  0  0  0  2  0  0  0  0  0  0
  184.4700  176.6170  134.9530 C   0  0  0  0  0  2  0  0  0  0  0  0
  183.3230  177.2910  135.3740 O   0  0  0  0  0  1  0  0  0  0  0  0
  184.1160  175.1530  137.0420 C   0  0  0  0  0  2  0  0  0  0  0  0
  184.5420  172.8690  137.5920 O   0  0  0  0  0  0  0  0  0  0  0  0
  183.2980  173.2040  135.6610 N   0  0  0  0  0  1  0  0  0  0  0  0
  184.0060  173.6840  136.7970 C   0  0  0  0  0  0  0  0  0  0  0  0
  192.4870  174.8500  137.6390 C   0  0  0  0  0  2  0  0  0  0  0  0
  193.9610  175.2390  137.4720 C   0  0  1  0  0  3  0  0  0  0  0  0
  194.9120  174.0850  137.7440 C   0  0  0  0  0  1  0  0  0  0  0  0
  194.2520  175.9000  136.1600 C   0  0  0  0  0  0  0  0  0  0  0  0
  193.3470  176.0130  135.2890 O   0  0  0  0  0  0  0  0  0  0  0  0
  195.5350  176.3990  135.9240 O   0  0  0  0  0  0  0  0  0  0  0  0
  195.8880  177.0500  134.7090 C   0  0  0  0  0  2  0  0  0  0  0  0
  196.1830  178.5150  134.9670 C   0  0  0  0  0  1  0  0  0  0  0  0
  189.5790  174.2220  137.2130 C   0  0  0  0  0  2  0  0  0  0  0  0
  189.9230  173.4140  135.9800 C   0  0  0  0  0  2  0  0  0  0  0  0
  189.0900  172.2990  135.9070 O   0  0  0  0  0  1  0  0  0  0  0  0
  2 15  1  0  0  0  0
  2  7  1  0  0  0  0
  3 18  1  0  0  0  0
  3 23  1  0  0  0  0
  4  3  1  0  0  0  0
  4  8  1  0  0  0  0
  5  9  1  0  0  0  0
  5 17  1  0  0  0  0
  6  2  1  0  0  0  0
  7  5  1  0  0  0  0
  8 18  1  0  0  0  0
  8  6  1  0  0  0  0
 10  7  1  0  0  0  0
 10 14  1  0  0  0  0
 11 19  1  0  0  0  0
 13 12  1  0  0  0  0
 13  9  1  0  0  0  0
 14 11  1  0  0  0  0
 15 13  1  0  0  0  0
 16 35  1  0  0  0  0
 16  6  1  0  0  0  0
 16 10  1  0  0  0  0
 17  1  1  0  0  0  0
 18 20  1  0  0  0  0
 19 17  1  0  0  0  0
 20 15  1  0  0  0  0
 21 22  1  0  0  0  0
 21  3  1  0  0  0  0
 25 26  1  0  0  0  0
 26 23  1  0  0  0  0
 26 24  2  0  0  0  0
 27 14  1  0  0  0  0
 28 27  1  0  0  0  0
 28 29  1  0  0  0  0
 30 28  1  0  0  0  0
 31 30  2  0  0  0  0
 32 30  1  0  0  0  0
 33 34  1  0  0  0  0
 33 32  1  0  0  0  0
 36 35  1  0  0  0  0
 37 36  1  0  0  0  0
M  END
>  <MODEL>
5

>  <REMARK>
 VINA RESULT:      -4.8      2.662      3.680
  Name = 
  10 active torsions:
  status: ('A' for Active; 'I' for Inactive)
    1  A    between atoms: C_1  and  C_5
    2  A    between atoms: C_1  and  C_23
    3  A    between atoms: C_2  and  C_6
    4  A    between atoms: C_5  and  O_26
    5  A    between atoms: C_6  and  C_8
    6  A    between atoms: C_8  and  C_19
    7  A    between atoms: C_11  and  O_26
    8  A    between atoms: C_23  and  C_25
    9  A    between atoms: C_27  and  C_33
   10  A    between atoms: C_29  and  C_33
                            x       y       z     vdW  Elec       q    Type
                         _______ _______ _______ _____ _____    ______ ____

>  <TORSDO>
F 10

$$$$
=
 OpenBabel10262423053D

 37 41  0  0  1  0  0  0  0  0999 V2000
  188.3700  174.5360  136.3300 C   0  0  0  0  0  1  0  0  0  0  0  0
  187.4630  178.6170  138.8870 C   0  0  2  0  0  3  0  0  0  0  0  0
  185.6240  178.5250  142.6040 C   0  0  1  0  0  0  0  0  0  0  0  0
  184.2700  178.4020  141.3480 S   0  0  0  0  0  0  0  0  0  0  0  0
  188.4220  176.6170  137.7550 C   0  0  2  0  0  3  0  0  0  0  0  0
  186.2200  177.9740  139.3180 N   0  0  1  0  0  0  0  0  0  0  0  0
  187.7890  178.0190  137.5450 C   0  0  1  0  0  3  0  0  0  0  0  0
  185.7800  178.8180  140.4100 C   0  0  2  0  0  3  0  0  0  0  0  0
  189.5620  176.6970  138.6730 N   0  0  0  0  0  2  0  0  0  0  0  0
  186.3810  177.9720  136.9210 C   0  0  1  0  0  3  0  0  0  0  0  0
  187.2130  176.9130  134.7360 C   0  0  0  0  0  2  0  0  0  0  0  0
  190.1670  177.0000  140.9030 O   0  0  0  0  0  1  0  0  0  0  0  0
  189.1030  177.0920  140.0060 C   0  0  1  0  0  3  0  0  0  0  0  0
  186.1590  176.8760  135.8510 C   0  0  2  0  0  3  0  0  0  0  0  0
  188.5820  178.5290  139.9640 C   0  0  2  0  0  3  0  0  0  0  0  0
  185.3910  178.0330  138.1250 C   0  0  1  0  0  3  0  0  0  0  0  0
  188.8980  175.9550  136.4540 C   0  0  2  0  0  3  0  0  0  0  0  0
  186.6760  178.4130  141.5360 C   0  0  1  0  0  3  0  0  0  0  0  0
  188.6740  176.7810  135.1810 C   0  0  0  0  0  2  0  0  0  0  0  0
  188.0570  179.0200  141.3520 C   0  0  0  0  0  2  0  0  0  0  0  0
  185.6750  179.8830  143.3070 C   0  0  0  0  0  2  0  0  0  0  0  0
  184.4740  180.1490  143.9680 O   0  0  0  0  0  1  0  0  0  0  0  0
  185.6990  177.3190  143.5440 C   0  0  0  0  0  2  0  0  0  0  0  0
  187.8920  177.3920  144.4840 O   0  0  0  0  0  0  0  0  0  0  0  0
  186.1640  177.8190  145.9750 N   0  0  0  0  0  1  0  0  0  0  0  0
  186.6540  177.5090  144.6760 C   0  0  0  0  0  0  0  0  0  0  0  0
  184.7820  177.0370  135.2010 C   0  0  0  0  0  2  0  0  0  0  0  0
  184.1420  175.7180  134.7510 C   0  0  1  0  0  3  0  0  0  0  0  0
  184.7310  174.5050  135.4500 C   0  0  0  0  0  1  0  0  0  0  0  0
  182.6470  175.7320  134.8280 C   0  0  0  0  0  0  0  0  0  0  0  0
  182.0130  176.8180  134.7290 O   0  0  0  0  0  0  0  0  0  0  0  0
  181.9670  174.5240  134.9980 O   0  0  0  0  0  0  0  0  0  0  0  0
  180.9340  174.3590  135.9630 C   0  0  0  0  0  2  0  0  0  0  0  0
  181.4920  173.7270  137.2240 C   0  0  0  0  0  1  0  0  0  0  0  0
  184.3790  176.8950  138.1750 C   0  0  0  0  0  2  0  0  0  0  0  0
  182.9800  177.4700  138.2590 C   0  0  0  0  0  2  0  0  0  0  0  0
  183.0040  178.8080  137.8710 O   0  0  0  0  0  1  0  0  0  0  0  0
  1 17  1  0  0  0  0
  2  6  1  0  0  0  0
  2 15  1  0  0  0  0
  3 21  1  0  0  0  0
  3 23  1  0  0  0  0
  4  3  1  0  0  0  0
  5  9  1  0  0  0  0
  6  8  1  0  0  0  0
  7  5  1  0  0  0  0
  7  2  1  0  0  0  0
  8  4  1  0  0  0  0
  8 18  1  0  0  0  0
  9 13  1  0  0  0  0
 10  7  1  0  0  0  0
 10 16  1  0  0  0  0
 11 19  1  0  0  0  0
 11 14  1  0  0  0  0
 13 12  1  0  0  0  0
 14 10  1  0  0  0  0
 15 13  1  0  0  0  0
 15 20  1  0  0  0  0
 16 35  1  0  0  0  0
 16  6  1  0  0  0  0
 17  5  1  0  0  0  0
 18  3  1  0  0  0  0
 19 17  1  0  0  0  0
 20 18  1  0  0  0  0
 21 22  1  0  0  0  0
 23 26  1  0  0  0  0
 24 26  2  0  0  0  0
 26 25  1  0  0  0  0
 27 14  1  0  0  0  0
 28 30  1  0  0  0  0
 28 27  1  0  0  0  0
 28 29  1  0  0  0  0
 30 32  1  0  0  0  0
 31 30  2  0  0  0  0
 32 33  1  0  0  0  0
 33 34  1  0  0  0  0
 35 36  1  0  0  0  0
 37 36  1  0  0  0  0
M  END
>  <MODEL>
6

>  <REMARK>
 VINA RESULT:      -4.3      3.090      7.076
  Name = 
  10 active torsions:
  status: ('A' for Active; 'I' for Inactive)
    1  A    between atoms: C_1  and  C_5
    2  A    between atoms: C_1  and  C_23
    3  A    between atoms: C_2  and  C_6
    4  A    between atoms: C_5  and  O_26
    5  A    between atoms: C_6  and  C_8
    6  A    between atoms: C_8  and  C_19
    7  A    between atoms: C_11  and  O_26
    8  A    between atoms: C_23  and  C_25
    9  A    between atoms: C_27  and  C_33
   10  A    between atoms: C_29  and  C_33
                            x       y       z     vdW  Elec       q    Type
                         _______ _______ _______ _____ _____    ______ ____

>  <TORSDO>
F 10

$$$$
=
 OpenBabel10262423053D

 37 41  0  0  1  0  0  0  0  0999 V2000
  186.4320  180.1250  146.9610 C   0  0  0  0  0  1  0  0  0  0  0  0
  187.3750  176.6800  143.6060 C   0  0  2  0  0  3  0  0  0  0  0  0
  190.0700  177.2960  140.5130 C   0  0  1  0  0  0  0  0  0  0  0  0
  188.4840  178.0920  139.9900 S   0  0  0  0  0  0  0  0  0  0  0  0
  187.2070  178.1340  145.6200 C   0  0  2  0  0  3  0  0  0  0  0  0
  187.4740  177.7700  142.6320 N   0  0  1  0  0  0  0  0  0  0  0  0
  186.4380  177.1710  144.6760 C   0  0  1  0  0  3  0  0  0  0  0  0
  188.0830  177.1270  141.4860 C   0  0  2  0  0  3  0  0  0  0  0  0
  188.4240  177.4940  146.1300 N   0  0  0  0  0  2  0  0  0  0  0  0
  185.3800  177.8780  143.8050 C   0  0  1  0  0  3  0  0  0  0  0  0
  183.9850  178.6220  145.8280 C   0  0  0  0  0  2  0  0  0  0  0  0
  190.5690  176.7930  145.5490 O   0  0  0  0  0  1  0  0  0  0  0  0
  189.3550  177.2440  145.0290 C   0  0  1  0  0  3  0  0  0  0  0  0
  184.6150  179.0360  144.4900 C   0  0  2  0  0  3  0  0  0  0  0  0
  188.7690  176.1880  144.0910 C   0  0  2  0  0  3  0  0  0  0  0  0
  186.0870  178.1690  142.4460 C   0  0  1  0  0  3  0  0  0  0  0  0
  186.3780  178.6140  146.8200 C   0  0  2  0  0  3  0  0  0  0  0  0
  189.5200  177.0120  141.8830 C   0  0  1  0  0  3  0  0  0  0  0  0
  184.9470  178.0670  146.8850 C   0  0  0  0  0  2  0  0  0  0  0  0
  189.7010  175.8770  142.8760 C   0  0  0  0  0  2  0  0  0  0  0  0
  190.3790  176.0050  139.7510 C   0  0  0  0  0  2  0  0  0  0  0  0
  189.9810  176.1060  138.4160 O   0  0  0  0  0  1  0  0  0  0  0  0
  191.2440  178.2730  140.6100 C   0  0  0  0  0  2  0  0  0  0  0  0
  192.8020  177.1300  142.0130 O   0  0  0  0  0  0  0  0  0  0  0  0
  193.5210  177.5030  139.8370 N   0  0  0  0  0  1  0  0  0  0  0  0
  192.5520  177.6030  140.8740 C   0  0  0  0  0  0  0  0  0  0  0  0
  183.4920  179.5440  143.5810 C   0  0  0  0  0  2  0  0  0  0  0  0
  182.4500  178.4800  143.2140 C   0  0  1  0  0  3  0  0  0  0  0  0
  181.1500  178.6330  143.9870 C   0  0  0  0  0  1  0  0  0  0  0  0
  182.2100  178.3730  141.7400 C   0  0  0  0  0  0  0  0  0  0  0  0
  182.8680  177.5510  141.0450 O   0  0  0  0  0  0  0  0  0  0  0  0
  181.2400  179.1880  141.1510 O   0  0  0  0  0  0  0  0  0  0  0  0
  180.2660  178.6810  140.2460 C   0  0  0  0  0  2  0  0  0  0  0  0
  179.4140  177.6280  140.9290 C   0  0  0  0  0  1  0  0  0  0  0  0
  186.0530  179.6290  142.0100 C   0  0  0  0  0  2  0  0  0  0  0  0
  185.1540  179.7690  140.7990 C   0  0  0  0  0  2  0  0  0  0  0  0
  185.6500  178.9860  139.7580 O   0  0  0  0  0  1  0  0  0  0  0  0
  2 15  1  0  0  0  0
  2  7  1  0  0  0  0
  3 23  1  0  0  0  0
  3 18  1  0  0  0  0
  4  3  1  0  0  0  0
  4  8  1  0  0  0  0
  5  9  1  0  0  0  0
  5 17  1  0  0  0  0
  6  2  1  0  0  0  0
  7  5  1  0  0  0  0
  8 18  1  0  0  0  0
  8  6  1  0  0  0  0
 10 14  1  0  0  0  0
 10  7  1  0  0  0  0
 11 19  1  0  0  0  0
 13 12  1  0  0  0  0
 13  9  1  0  0  0  0
 14 11  1  0  0  0  0
 15 13  1  0  0  0  0
 16  6  1  0  0  0  0
 16 10  1  0  0  0  0
 17 19  1  0  0  0  0
 17  1  1  0  0  0  0
 18 20  1  0  0  0  0
 20 15  1  0  0  0  0
 21  3  1  0  0  0  0
 22 21  1  0  0  0  0
 23 26  1  0  0  0  0
 25 26  1  0  0  0  0
 26 24  2  0  0  0  0
 27 14  1  0  0  0  0
 28 27  1  0  0  0  0
 28 29  1  0  0  0  0
 30 28  1  0  0  0  0
 31 30  2  0  0  0  0
 32 30  1  0  0  0  0
 33 34  1  0  0  0  0
 33 32  1  0  0  0  0
 35 16  1  0  0  0  0
 36 35  1  0  0  0  0
 37 36  1  0  0  0  0
M  END
>  <MODEL>
7

>  <REMARK>
 VINA RESULT:      -4.2      2.970      8.428
  Name = 
  10 active torsions:
  status: ('A' for Active; 'I' for Inactive)
    1  A    between atoms: C_1  and  C_5
    2  A    between atoms: C_1  and  C_23
    3  A    between atoms: C_2  and  C_6
    4  A    between atoms: C_5  and  O_26
    5  A    between atoms: C_6  and  C_8
    6  A    between atoms: C_8  and  C_19
    7  A    between atoms: C_11  and  O_26
    8  A    between atoms: C_23  and  C_25
    9  A    between atoms: C_27  and  C_33
   10  A    between atoms: C_29  and  C_33
                            x       y       z     vdW  Elec       q    Type
                         _______ _______ _______ _____ _____    ______ ____

>  <TORSDO>
F 10

$$$$
=
 OpenBabel10262423053D

 37 41  0  0  1  0  0  0  0  0999 V2000
  190.1680  175.4890  142.3800 C   0  0  0  0  0  1  0  0  0  0  0  0
  186.9340  179.0050  141.2880 C   0  0  2  0  0  3  0  0  0  0  0  0
  183.1180  178.1380  139.9120 C   0  0  1  0  0  0  0  0  0  0  0  0
  184.2420  178.0110  138.4480 S   0  0  0  0  0  0  0  0  0  0  0  0
  188.4490  177.3350  142.3440 C   0  0  2  0  0  3  0  0  0  0  0  0
  186.4910  178.1440  140.1890 N   0  0  1  0  0  0  0  0  0  0  0  0
  188.3770  178.6530  141.5270 C   0  0  1  0  0  3  0  0  0  0  0  0
  185.2450  178.7570  139.7780 C   0  0  2  0  0  3  0  0  0  0  0  0
  187.6430  177.4390  143.5640 N   0  0  0  0  0  2  0  0  0  0  0  0
  188.8630  178.5030  140.0720 C   0  0  1  0  0  3  0  0  0  0  0  0
  191.2560  177.8870  140.7690 C   0  0  0  0  0  2  0  0  0  0  0  0
  185.4610  177.5030  144.3800 O   0  0  0  0  0  1  0  0  0  0  0  0
  186.2280  177.5750  143.2170 C   0  0  1  0  0  3  0  0  0  0  0  0
  190.0640  177.5490  139.8620 C   0  0  2  0  0  3  0  0  0  0  0  0
  185.9960  178.9190  142.5250 C   0  0  2  0  0  3  0  0  0  0  0  0
  187.5760  178.2570  139.2270 C   0  0  1  0  0  3  0  0  0  0  0  0
  189.8760  176.9350  142.7440 C   0  0  2  0  0  3  0  0  0  0  0  0
  184.2860  178.3240  140.8410 C   0  0  1  0  0  3  0  0  0  0  0  0
  190.9790  177.8940  142.2770 C   0  0  0  0  0  2  0  0  0  0  0  0
  184.5050  179.1330  142.1070 C   0  0  0  0  0  2  0  0  0  0  0  0
  182.2210  179.3780  139.8790 C   0  0  0  0  0  2  0  0  0  0  0  0
  181.2060  179.2860  140.8330 O   0  0  0  0  0  1  0  0  0  0  0  0
  182.3880  176.8330  140.2390 C   0  0  0  0  0  2  0  0  0  0  0  0
  180.5550  176.7080  138.7140 O   0  0  0  0  0  0  0  0  0  0  0  0
  182.2480  175.1610  138.3530 N   0  0  0  0  0  1  0  0  0  0  0  0
  181.6710  176.2470  139.0680 C   0  0  0  0  0  0  0  0  0  0  0  0
  190.5480  177.6110  138.4110 C   0  0  0  0  0  2  0  0  0  0  0  0
  191.3560  176.3870  137.9640 C   0  0  1  0  0  3  0  0  0  0  0  0
  191.9810  175.6340  139.1270 C   0  0  0  0  0  1  0  0  0  0  0  0
  190.5910  175.4730  137.0590 C   0  0  0  0  0  0  0  0  0  0  0  0
  190.4460  175.7580  135.8390 O   0  0  0  0  0  0  0  0  0  0  0  0
  190.0520  174.2950  137.5840 O   0  0  0  0  0  0  0  0  0  0  0  0
  189.4300  173.3110  136.7660 C   0  0  0  0  0  2  0  0  0  0  0  0
  187.9250  173.4970  136.7750 C   0  0  0  0  0  1  0  0  0  0  0  0
  187.6060  176.9960  138.3720 C   0  0  0  0  0  2  0  0  0  0  0  0
  187.3560  177.3650  136.9250 C   0  0  0  0  0  2  0  0  0  0  0  0
  187.5360  178.7360  136.7560 O   0  0  0  0  0  1  0  0  0  0  0  0
  1 17  1  0  0  0  0
  2  7  1  0  0  0  0
  2 15  1  0  0  0  0
  3 23  1  0  0  0  0
  3 18  1  0  0  0  0
  4  8  1  0  0  0  0
  4  3  1  0  0  0  0
  5 17  1  0  0  0  0
  5  9  1  0  0  0  0
  6  2  1  0  0  0  0
  7  5  1  0  0  0  0
  8  6  1  0  0  0  0
  8 18  1  0  0  0  0
 10  7  1  0  0  0  0
 11 19  1  0  0  0  0
 13  9  1  0  0  0  0
 13 12  1  0  0  0  0
 14 10  1  0  0  0  0
 14 11  1  0  0  0  0
 15 13  1  0  0  0  0
 16 10  1  0  0  0  0
 16  6  1  0  0  0  0
 18 20  1  0  0  0  0
 19 17  1  0  0  0  0
 20 15  1  0  0  0  0
 21  3  1  0  0  0  0
 21 22  1  0  0  0  0
 24 26  2  0  0  0  0
 25 26  1  0  0  0  0
 26 23  1  0  0  0  0
 27 14  1  0  0  0  0
 28 27  1  0  0  0  0
 28 29  1  0  0  0  0
 30 32  1  0  0  0  0
 30 28  1  0  0  0  0
 31 30  2  0  0  0  0
 33 34  1  0  0  0  0
 33 32  1  0  0  0  0
 35 16  1  0  0  0  0
 36 35  1  0  0  0  0
 37 36  1  0  0  0  0
M  END
>  <MODEL>
8

>  <REMARK>
 VINA RESULT:      -4.2      1.564      2.095
  Name = 
  10 active torsions:
  status: ('A' for Active; 'I' for Inactive)
    1  A    between atoms: C_1  and  C_5
    2  A    between atoms: C_1  and  C_23
    3  A    between atoms: C_2  and  C_6
    4  A    between atoms: C_5  and  O_26
    5  A    between atoms: C_6  and  C_8
    6  A    between atoms: C_8  and  C_19
    7  A    between atoms: C_11  and  O_26
    8  A    between atoms: C_23  and  C_25
    9  A    between atoms: C_27  and  C_33
   10  A    between atoms: C_29  and  C_33
                            x       y       z     vdW  Elec       q    Type
                         _______ _______ _______ _____ _____    ______ ____

>  <TORSDO>
F 10

$$$$
=
 OpenBabel10262423053D

 37 41  0  0  1  0  0  0  0  0999 V2000
  188.7130  175.8500  143.2470 C   0  0  0  0  0  1  0  0  0  0  0  0
  185.5660  179.3720  141.9410 C   0  0  2  0  0  3  0  0  0  0  0  0
  181.8420  178.5120  140.3290 C   0  0  1  0  0  0  0  0  0  0  0  0
  183.0570  178.3770  138.9390 S   0  0  0  0  0  0  0  0  0  0  0  0
  187.0060  177.7010  143.0960 C   0  0  2  0  0  3  0  0  0  0  0  0
  185.1910  178.5080  140.8190 N   0  0  1  0  0  0  0  0  0  0  0  0
  186.9900  179.0160  142.2720 C   0  0  1  0  0  3  0  0  0  0  0  0
  183.9750  179.1240  140.3280 C   0  0  2  0  0  3  0  0  0  0  0  0
  186.1240  177.8110  144.2620 N   0  0  0  0  0  2  0  0  0  0  0  0
  187.5670  178.8600  140.8520 C   0  0  1  0  0  3  0  0  0  0  0  0
  189.9090  178.2390  141.7010 C   0  0  0  0  0  2  0  0  0  0  0  0
  183.8950  177.8840  144.9390 O   0  0  0  0  0  1  0  0  0  0  0  0
  184.7340  177.9500  143.8260 C   0  0  1  0  0  3  0  0  0  0  0  0
  188.7760  177.9020  140.7210 C   0  0  2  0  0  3  0  0  0  0  0  0
  184.5510  179.2930  143.1170 C   0  0  2  0  0  3  0  0  0  0  0  0
  186.3350  178.6160  139.9270 C   0  0  1  0  0  3  0  0  0  0  0  0
  188.4030  177.2970  143.5870 C   0  0  2  0  0  3  0  0  0  0  0  0
  182.9500  178.6970  141.3290 C   0  0  1  0  0  3  0  0  0  0  0  0
  189.5360  178.2510  143.1880 C   0  0  0  0  0  2  0  0  0  0  0  0
  183.0910  179.5100  142.6040 C   0  0  0  0  0  2  0  0  0  0  0  0
  180.9530  179.7550  140.2350 C   0  0  0  0  0  2  0  0  0  0  0  0
  181.0450  180.3410  138.9720 O   0  0  0  0  0  1  0  0  0  0  0  0
  181.0890  177.2110  140.6130 C   0  0  0  0  0  2  0  0  0  0  0  0
  181.3920  175.3440  139.1550 O   0  0  0  0  0  0  0  0  0  0  0  0
  179.8090  176.8940  138.4590 N   0  0  0  0  0  1  0  0  0  0  0  0
  180.7840  176.4220  139.3810 C   0  0  0  0  0  0  0  0  0  0  0  0
  189.3510  177.9580  139.3030 C   0  0  0  0  0  2  0  0  0  0  0  0
  189.9700  176.6400  138.8240 C   0  0  1  0  0  3  0  0  0  0  0  0
  189.3880  176.1570  137.5050 C   0  0  0  0  0  1  0  0  0  0  0  0
  191.4660  176.6680  138.7930 C   0  0  0  0  0  0  0  0  0  0  0  0
  192.1040  177.4740  139.5230 O   0  0  0  0  0  0  0  0  0  0  0  0
  192.1430  175.7790  137.9530 O   0  0  0  0  0  0  0  0  0  0  0  0
  193.5600  175.6580  137.9560 C   0  0  0  0  0  2  0  0  0  0  0  0
  194.0980  175.7630  136.5410 C   0  0  0  0  0  1  0  0  0  0  0  0
  186.4150  177.3520  139.0800 C   0  0  0  0  0  2  0  0  0  0  0  0
  186.0770  177.6890  137.6430 C   0  0  0  0  0  2  0  0  0  0  0  0
  186.8270  178.7900  137.2340 O   0  0  0  0  0  1  0  0  0  0  0  0
  1 17  1  0  0  0  0
  2  7  1  0  0  0  0
  2 15  1  0  0  0  0
  3 23  1  0  0  0  0
  3 18  1  0  0  0  0
  4  8  1  0  0  0  0
  4  3  1  0  0  0  0
  5 17  1  0  0  0  0
  5  9  1  0  0  0  0
  6  2  1  0  0  0  0
  7  5  1  0  0  0  0
  8  6  1  0  0  0  0
  8 18  1  0  0  0  0
 10  7  1  0  0  0  0
 11 19  1  0  0  0  0
 13  9  1  0  0  0  0
 13 12  1  0  0  0  0
 14 10  1  0  0  0  0
 14 11  1  0  0  0  0
 15 13  1  0  0  0  0
 16  6  1  0  0  0  0
 16 10  1  0  0  0  0
 18 20  1  0  0  0  0
 19 17  1  0  0  0  0
 20 15  1  0  0  0  0
 21  3  1  0  0  0  0
 22 21  1  0  0  0  0
 24 26  2  0  0  0  0
 25 26  1  0  0  0  0
 26 23  1  0  0  0  0
 27 14  1  0  0  0  0
 28 27  1  0  0  0  0
 29 28  1  0  0  0  0
 30 28  1  0  0  0  0
 30 31  2  0  0  0  0
 32 33  1  0  0  0  0
 32 30  1  0  0  0  0
 34 33  1  0  0  0  0
 35 16  1  0  0  0  0
 36 35  1  0  0  0  0
 37 36  1  0  0  0  0
M  END
>  <MODEL>
9

>  <REMARK>
 VINA RESULT:      -4.1      1.755      2.239
  Name = 
  10 active torsions:
  status: ('A' for Active; 'I' for Inactive)
    1  A    between atoms: C_1  and  C_5
    2  A    between atoms: C_1  and  C_23
    3  A    between atoms: C_2  and  C_6
    4  A    between atoms: C_5  and  O_26
    5  A    between atoms: C_6  and  C_8
    6  A    between atoms: C_8  and  C_19
    7  A    between atoms: C_11  and  O_26
    8  A    between atoms: C_23  and  C_25
    9  A    between atoms: C_27  and  C_33
   10  A    between atoms: C_29  and  C_33
                            x       y       z     vdW  Elec       q    Type
                         _______ _______ _______ _____ _____    ______ ____

>  <TORSDO>
F 10

$$$$
