=
 OpenBabel10262420203D

 55 60  0  0  1  0  0  0  0  0999 V2000
  184.3630  177.9040  139.7780 C   0  0  0  0  0  2  0  0  0  0  0  0
  185.5620  177.3360  135.3550 O   0  0  0  0  0  1  0  0  0  0  0  0
  184.8850  173.7420  136.0600 C   0  0  0  0  0  2  0  0  0  0  0  0
  182.1470  173.5190  135.1350 C   0  0  0  0  0  3  0  0  0  0  0  0
  180.8630  173.5090  134.5940 C   0  0  0  0  0  3  0  0  0  0  0  0
  181.3190  174.6620  137.1150 C   0  0  0  0  0  0  0  0  0  0  0  0
  180.0300  174.6190  136.5670 C   0  0  0  0  0  3  0  0  0  0  0  0
  183.9950  173.8810  138.3640 C   0  0  0  0  0  1  0  0  0  0  0  0
  179.8020  174.0500  135.3140 C   0  0  0  0  0  3  0  0  0  0  0  0
  186.4420  178.4570  141.0490 C   0  0  0  0  0  3  0  0  0  0  0  0
  182.4020  174.0750  136.4020 C   0  0  0  0  0  0  0  0  0  0  0  0
  187.9630  178.5170  138.6980 C   0  0  0  0  0  0  0  0  0  0  0  0
  183.6710  178.3890  138.5100 C   0  0  0  0  0  2  0  0  0  0  0  0
  186.5830  178.3030  138.6420 C   0  0  0  0  0  3  0  0  0  0  0  0
  181.6810  176.8440  138.4270 C   0  0  1  0  0  3  0  0  0  0  0  0
  186.8970  175.9510  136.8330 C   0  0  0  0  0  2  0  0  0  0  0  0
  181.4740  175.3170  138.4590 C   0  0  0  0  0  2  0  0  0  0  0  0
  185.5710  176.1530  136.0990 C   0  0  2  0  0  3  0  0  0  0  0  0
  185.2190  174.9690  135.2170 C   0  0  0  0  0  2  0  0  0  0  0  0
  187.8220  178.6840  141.1110 C   0  0  0  0  0  3  0  0  0  0  0  0
  188.1030  176.5050  136.0710 C   0  0  1  0  0  3  0  0  0  0  0  0
  185.8130  178.2750  139.8120 C   0  0  0  0  0  0  0  0  0  0  0  0
  183.7420  173.9970  136.9360 N   0  0  0  0  0  0  0  0  0  0  0  0
  183.0160  177.2220  137.7860 C   0  0  0  0  0  2  0  0  0  0  0  0
  189.1510  177.0920  137.0170 C   0  0  0  0  0  2  0  0  0  0  0  0
  188.7760  178.5110  137.4430 C   0  0  0  0  0  2  0  0  0  0  0  0
  188.5810  178.7100  139.9370 C   0  0  0  0  0  3  0  0  0  0  0  0
  180.9910  181.3970  138.1790 C   0  0  0  0  0  0  0  0  0  0  0  0
  180.6080  178.0870  136.4660 C   0  0  0  0  0  2  0  0  0  0  0  0
  181.4540  182.3520  137.2330 N   0  0  0  0  0  1  0  0  0  0  0  0
  180.7660  180.0380  137.7850 N   0  0  0  0  0  0  0  0  0  0  0  0
  179.1620  176.9500  138.1500 C   0  0  0  0  0  1  0  0  0  0  0  0
  180.3990  178.9940  138.7200 C   0  0  0  0  0  2  0  0  0  0  0  0
  180.7820  181.7560  139.3650 O   0  0  0  0  0  0  0  0  0  0  0  0
  180.9740  179.5610  136.4370 C   0  0  0  0  0  2  0  0  0  0  0  0
  180.4730  177.6900  137.9390 C   0  0  1  0  0  0  0  0  0  0  0  0
  188.6760  175.5110  135.1610 N   0  0  0  0  0  2  0  0  0  0  0  0
  189.3290  174.4400  135.9090 C   0  0  0  0  0  2  0  0  0  0  0  0
  194.3490  174.2440  137.8710 C   0  0  0  0  0  1  0  0  0  0  0  0
  193.1970  175.9460  134.6750 C   0  0  0  0  0  2  0  0  0  0  0  0
  194.2740  175.5530  135.6610 C   0  0  2  0  0  0  0  0  0  0  0  0
  191.3790  174.6490  137.2980 C   0  0  0  0  0  2  0  0  0  0  0  0
  192.9890  173.4180  135.2170 C   0  0  1  0  0  3  0  0  0  0  0  0
  193.8160  174.5510  134.5950 C   0  0  1  0  0  3  0  0  0  0  0  0
  190.8330  174.6300  135.8760 C   0  0  1  0  0  3  0  0  0  0  0  0
  192.2420  176.3630  138.8760 C   0  0  0  0  0  1  0  0  0  0  0  0
  191.4750  173.5330  135.0220 C   0  0  0  0  0  2  0  0  0  0  0  0
  193.8160  175.4730  137.1420 C   0  0  1  0  0  3  0  0  0  0  0  0
  192.3480  175.8170  137.4660 C   0  0  1  0  0  3  0  0  0  0  0  0
  195.5910  176.2590  135.3640 C   0  0  0  0  0  2  0  0  0  0  0  0
  195.8960  178.6770  135.3520 N   0  0  0  0  0  1  0  0  0  0  0  0
  195.3810  177.5510  134.5940 C   0  0  0  0  0  2  0  0  0  0  0  0
  193.4800  172.0890  134.6720 C   0  0  0  0  0  2  0  0  0  0  0  0
  193.9890  170.3760  135.9660 C   0  0  0  0  0  1  0  0  0  0  0  0
  194.4950  171.5840  135.4870 O   0  0  0  0  0  0  0  0  0  0  0  0
  1 22  1  0  0  0  0
  3 23  1  0  0  0  0
  4 11  1  0  0  0  0
  5  4  2  0  0  0  0
  5  9  1  0  0  0  0
  6 17  1  0  0  0  0
  7  6  1  0  0  0  0
  9  7  2  0  0  0  0
 10 20  1  0  0  0  0
 11 23  1  0  0  0  0
 11  6  2  0  0  0  0
 12 27  1  0  0  0  0
 13  1  1  0  0  0  0
 14 12  2  0  0  0  0
 14 22  1  0  0  0  0
 15 24  1  6  0  0  0
 15 17  1  0  0  0  0
 18  2  1  6  0  0  0
 18 16  1  0  0  0  0
 19  3  1  0  0  0  0
 19 18  1  0  0  0  0
 21 37  1  1  0  0  0
 21 16  1  0  0  0  0
 21 25  1  0  0  0  0
 22 10  2  0  0  0  0
 23  8  1  0  0  0  0
 24 13  1  0  0  0  0
 25 26  1  0  0  0  0
 26 12  1  0  0  0  0
 27 20  2  0  0  0  0
 28 34  2  0  0  0  0
 29 36  1  0  0  0  0
 30 28  1  0  0  0  0
 31 28  1  0  0  0  0
 31 33  1  0  0  0  0
 35 29  1  0  0  0  0
 35 31  1  0  0  0  0
 36 32  1  1  0  0  0
 36 15  1  0  0  0  0
 36 33  1  0  0  0  0
 37 38  1  0  0  0  0
 40 41  1  0  0  0  0
 41 50  1  6  0  0  0
 41 48  1  0  0  0  0
 42 49  1  0  0  0  0
 43 53  1  6  0  0  0
 44 40  1  6  0  0  0
 44 43  1  0  0  0  0
 44 41  1  0  0  0  0
 45 38  1  1  0  0  0
 45 42  1  0  0  0  0
 47 43  1  0  0  0  0
 47 45  1  0  0  0  0
 48 49  1  0  0  0  0
 48 39  1  6  0  0  0
 49 46  1  1  0  0  0
 52 51  1  0  0  0  0
 52 50  1  0  0  0  0
 53 55  1  0  0  0  0
 55 54  1  0  0  0  0
M  END
>  <MODEL>
1

>  <REMARK>
 VINA RESULT:      -5.6      0.000      0.000
  Name = 
  8 active torsions:
  status: ('A' for Active; 'I' for Inactive)
    1  A    between atoms: C_6  and  C_25
    2  A    between atoms: C_8  and  C_20
    3  A    between atoms: C_8  and  N_22
    4  A    between atoms: C_12  and  C_30
    5  A    between atoms: N_22  and  C_43
    6  A    between atoms: C_25  and  C_38
    7  A    between atoms: C_30  and  O_50
    8  A    between atoms: C_33  and  C_52
                            x       y       z     vdW  Elec       q    Type
                         _______ _______ _______ _____ _____    ______ ____

>  <TORSDO>
F 8

$$$$
=
 OpenBabel10262420203D

 55 60  0  0  1  0  0  0  0  0999 V2000
  186.5660  177.2260  141.4800 C   0  0  0  0  0  2  0  0  0  0  0  0
  188.3990  178.9460  137.6080 O   0  0  0  0  0  1  0  0  0  0  0  0
  186.9340  175.8980  136.0480 C   0  0  0  0  0  2  0  0  0  0  0  0
  184.4120  176.9480  135.0800 C   0  0  0  0  0  3  0  0  0  0  0  0
  183.2660  177.5760  134.5940 C   0  0  0  0  0  3  0  0  0  0  0  0
  183.4800  176.9520  137.3250 C   0  0  0  0  0  0  0  0  0  0  0  0
  182.3250  177.5600  136.8150 C   0  0  0  0  0  3  0  0  0  0  0  0
  185.6930  174.9470  137.9650 C   0  0  0  0  0  1  0  0  0  0  0  0
  182.2180  177.8720  135.4600 C   0  0  0  0  0  3  0  0  0  0  0  0
  188.4540  176.4120  142.9010 C   0  0  0  0  0  3  0  0  0  0  0  0
  184.5400  176.6100  136.4390 C   0  0  0  0  0  0  0  0  0  0  0  0
  190.3510  177.3830  141.0830 C   0  0  0  0  0  0  0  0  0  0  0  0
  186.2160  178.4960  140.7170 C   0  0  0  0  0  2  0  0  0  0  0  0
  188.9880  177.6020  140.8670 C   0  0  0  0  0  3  0  0  0  0  0  0
  184.0140  177.8420  139.6780 C   0  0  1  0  0  3  0  0  0  0  0  0
  189.1620  176.6830  138.0340 C   0  0  0  0  0  2  0  0  0  0  0  0
  183.5170  176.6750  138.8020 C   0  0  0  0  0  2  0  0  0  0  0  0
  188.0510  177.5960  137.5160 C   0  0  2  0  0  3  0  0  0  0  0  0
  187.6410  177.2500  136.0960 C   0  0  0  0  0  2  0  0  0  0  0  0
  189.8190  176.1990  143.1290 C   0  0  0  0  0  3  0  0  0  0  0  0
  190.5670  177.2340  137.7820 C   0  0  1  0  0  3  0  0  0  0  0  0
  188.0320  177.1230  141.7730 C   0  0  0  0  0  0  0  0  0  0  0  0
  185.7240  175.9030  136.8690 N   0  0  0  0  0  0  0  0  0  0  0  0
  185.4890  178.1530  139.4250 C   0  0  0  0  0  2  0  0  0  0  0  0
  191.5230  176.8950  138.9250 C   0  0  0  0  0  2  0  0  0  0  0  0
  191.3570  177.8700  140.0900 C   0  0  0  0  0  2  0  0  0  0  0  0
  190.7650  176.6800  142.2190 C   0  0  0  0  0  3  0  0  0  0  0  0
  179.5700  178.3690  140.7930 C   0  0  0  0  0  0  0  0  0  0  0  0
  183.0530  179.7040  141.1450 C   0  0  0  0  0  2  0  0  0  0  0  0
  178.9340  178.4060  142.0650 N   0  0  0  0  0  1  0  0  0  0  0  0
  180.9220  178.8180  140.6470 N   0  0  0  0  0  0  0  0  0  0  0  0
  183.5360  180.1490  138.7390 C   0  0  0  0  0  1  0  0  0  0  0  0
  181.6630  178.7080  139.4060 C   0  0  0  0  0  2  0  0  0  0  0  0
  178.9350  177.9350  139.7980 O   0  0  0  0  0  0  0  0  0  0  0  0
  181.7050  179.3400  141.7430 C   0  0  0  0  0  2  0  0  0  0  0  0
  183.0960  179.0930  139.7410 C   0  0  1  0  0  0  0  0  0  0  0  0
  191.0920  176.8130  136.4810 N   0  0  0  0  0  2  0  0  0  0  0  0
  191.0320  175.3610  136.3440 C   0  0  0  0  0  2  0  0  0  0  0  0
  195.2560  172.4980  134.5950 C   0  0  0  0  0  1  0  0  0  0  0  0
  194.7800  174.0140  138.0470 C   0  0  0  0  0  2  0  0  0  0  0  0
  195.5860  173.2290  137.0360 C   0  0  2  0  0  0  0  0  0  0  0  0
  192.5430  173.5960  135.4590 C   0  0  0  0  0  2  0  0  0  0  0  0
  194.8570  175.3180  135.8060 C   0  0  1  0  0  3  0  0  0  0  0  0
  195.6220  174.7630  137.0130 C   0  0  1  0  0  3  0  0  0  0  0  0
  192.4310  174.7780  136.4150 C   0  0  1  0  0  3  0  0  0  0  0  0
  192.6260  171.1200  135.6540 C   0  0  0  0  0  1  0  0  0  0  0  0
  193.4620  175.8680  136.1140 C   0  0  0  0  0  2  0  0  0  0  0  0
  194.7510  172.3940  136.0300 C   0  0  1  0  0  3  0  0  0  0  0  0
  193.2150  172.4200  136.1650 C   0  0  1  0  0  3  0  0  0  0  0  0
  196.7950  172.5620  137.6800 C   0  0  0  0  0  2  0  0  0  0  0  0
  197.3910  170.2100  137.4490 N   0  0  0  0  0  1  0  0  0  0  0  0
  197.4010  171.4990  136.7800 C   0  0  0  0  0  2  0  0  0  0  0  0
  195.6990  176.3900  135.1370 C   0  0  0  0  0  2  0  0  0  0  0  0
  196.1150  178.5460  134.9190 C   0  0  0  0  0  1  0  0  0  0  0  0
  195.4750  177.6250  135.7480 O   0  0  0  0  0  0  0  0  0  0  0  0
  1 22  1  0  0  0  0
  3 19  1  0  0  0  0
  3 23  1  0  0  0  0
  4 11  1  0  0  0  0
  5  4  2  0  0  0  0
  5  9  1  0  0  0  0
  6 17  1  0  0  0  0
  7  6  1  0  0  0  0
  9  7  2  0  0  0  0
 10 20  1  0  0  0  0
 11 23  1  0  0  0  0
 11  6  2  0  0  0  0
 12 27  1  0  0  0  0
 13  1  1  0  0  0  0
 14 12  2  0  0  0  0
 14 22  1  0  0  0  0
 15 17  1  6  0  0  0
 15 36  1  0  0  0  0
 18  2  1  6  0  0  0
 18 16  1  0  0  0  0
 19 18  1  0  0  0  0
 21 37  1  6  0  0  0
 21 16  1  0  0  0  0
 21 25  1  0  0  0  0
 22 10  2  0  0  0  0
 23  8  1  0  0  0  0
 24 15  1  0  0  0  0
 24 13  1  0  0  0  0
 25 26  1  0  0  0  0
 26 12  1  0  0  0  0
 27 20  2  0  0  0  0
 28 30  1  0  0  0  0
 29 35  1  0  0  0  0
 31 28  1  0  0  0  0
 31 35  1  0  0  0  0
 33 36  1  0  0  0  0
 33 31  1  0  0  0  0
 34 28  2  0  0  0  0
 36 32  1  6  0  0  0
 36 29  1  0  0  0  0
 38 37  1  0  0  0  0
 41 50  1  1  0  0  0
 41 40  1  0  0  0  0
 42 49  1  0  0  0  0
 42 45  1  0  0  0  0
 43 53  1  1  0  0  0
 43 47  1  0  0  0  0
 43 44  1  0  0  0  0
 44 41  1  0  0  0  0
 44 40  1  1  0  0  0
 45 38  1  6  0  0  0
 47 45  1  0  0  0  0
 48 39  1  6  0  0  0
 48 49  1  0  0  0  0
 48 41  1  0  0  0  0
 49 46  1  6  0  0  0
 52 51  1  0  0  0  0
 52 50  1  0  0  0  0
 53 55  1  0  0  0  0
 54 55  1  0  0  0  0
M  END
>  <MODEL>
2

>  <REMARK>
 VINA RESULT:      -4.5      2.574      4.126
  Name = 
  8 active torsions:
  status: ('A' for Active; 'I' for Inactive)
    1  A    between atoms: C_6  and  C_25
    2  A    between atoms: C_8  and  C_20
    3  A    between atoms: C_8  and  N_22
    4  A    between atoms: C_12  and  C_30
    5  A    between atoms: N_22  and  C_43
    6  A    between atoms: C_25  and  C_38
    7  A    between atoms: C_30  and  O_50
    8  A    between atoms: C_33  and  C_52
                            x       y       z     vdW  Elec       q    Type
                         _______ _______ _______ _____ _____    ______ ____

>  <TORSDO>
F 8

$$$$
=
 OpenBabel10262420203D

 55 60  0  0  1  0  0  0  0  0999 V2000
  186.5690  177.1460  141.5820 C   0  0  0  0  0  2  0  0  0  0  0  0
  188.5000  178.9040  137.7750 O   0  0  0  0  0  1  0  0  0  0  0  0
  187.0870  175.8650  136.1510 C   0  0  0  0  0  2  0  0  0  0  0  0
  184.5890  176.9170  135.1240 C   0  0  0  0  0  3  0  0  0  0  0  0
  183.4540  177.5450  134.6130 C   0  0  0  0  0  3  0  0  0  0  0  0
  183.5960  176.8990  137.3440 C   0  0  0  0  0  0  0  0  0  0  0  0
  182.4530  177.5080  136.8080 C   0  0  0  0  0  3  0  0  0  0  0  0
  185.7970  174.8950  138.0260 C   0  0  0  0  0  1  0  0  0  0  0  0
  182.3820  177.8320  135.4530 C   0  0  0  0  0  3  0  0  0  0  0  0
  188.4210  176.3250  143.0460 C   0  0  0  0  0  3  0  0  0  0  0  0
  184.6800  176.5670  136.4840 C   0  0  0  0  0  0  0  0  0  0  0  0
  190.3620  177.3160  141.2880 C   0  0  0  0  0  0  0  0  0  0  0  0
  186.2360  178.4220  140.8210 C   0  0  0  0  0  2  0  0  0  0  0  0
  189.0050  177.5340  141.0370 C   0  0  0  0  0  3  0  0  0  0  0  0
  184.0640  177.7700  139.7180 C   0  0  1  0  0  3  0  0  0  0  0  0
  189.2580  176.6400  138.2020 C   0  0  0  0  0  2  0  0  0  0  0  0
  183.5950  176.6100  138.8190 C   0  0  0  0  0  2  0  0  0  0  0  0
  188.1580  177.5540  137.6620 C   0  0  2  0  0  3  0  0  0  0  0  0
  187.7880  177.2180  136.2290 C   0  0  0  0  0  2  0  0  0  0  0  0
  189.7800  176.1140  143.3090 C   0  0  0  0  0  3  0  0  0  0  0  0
  190.6670  177.1970  137.9930 C   0  0  1  0  0  3  0  0  0  0  0  0
  188.0270  177.0450  141.9130 C   0  0  0  0  0  0  0  0  0  0  0  0
  185.8550  175.8600  136.9390 N   0  0  0  0  0  0  0  0  0  0  0  0
  185.5450  178.0880  139.5070 C   0  0  0  0  0  2  0  0  0  0  0  0
  191.5940  176.8500  139.1580 C   0  0  0  0  0  2  0  0  0  0  0  0
  191.3940  177.8150  140.3270 C   0  0  0  0  0  2  0  0  0  0  0  0
  190.7480  176.6050  142.4280 C   0  0  0  0  0  3  0  0  0  0  0  0
  179.5970  178.2790  140.7440 C   0  0  0  0  0  0  0  0  0  0  0  0
  183.0680  179.6240  141.1710 C   0  0  0  0  0  2  0  0  0  0  0  0
  178.9350  178.3100  142.0030 N   0  0  0  0  0  1  0  0  0  0  0  0
  180.9500  178.7340  140.6270 N   0  0  0  0  0  0  0  0  0  0  0  0
  183.5990  180.0790  138.7770 C   0  0  0  0  0  1  0  0  0  0  0  0
  181.7170  178.6300  139.4010 C   0  0  0  0  0  2  0  0  0  0  0  0
  178.9840  177.8470  139.7350 O   0  0  0  0  0  0  0  0  0  0  0  0
  181.7100  179.2540  141.7410 C   0  0  0  0  0  2  0  0  0  0  0  0
  183.1420  179.0190  139.7660 C   0  0  1  0  0  0  0  0  0  0  0  0
  191.2280  176.7880  136.7030 N   0  0  0  0  0  2  0  0  0  0  0  0
  191.1080  175.3440  136.5190 C   0  0  0  0  0  2  0  0  0  0  0  0
  195.4440  172.3800  137.7430 C   0  0  0  0  0  1  0  0  0  0  0  0
  195.0550  174.7830  134.8260 C   0  0  0  0  0  2  0  0  0  0  0  0
  195.8550  173.7840  135.6310 C   0  0  2  0  0  0  0  0  0  0  0  0
  193.0860  174.3130  137.6150 C   0  0  0  0  0  2  0  0  0  0  0  0
  193.6070  172.6770  135.2710 C   0  0  1  0  0  3  0  0  0  0  0  0
  194.8410  173.2870  134.5940 C   0  0  1  0  0  3  0  0  0  0  0  0
  192.4780  174.7380  136.2830 C   0  0  1  0  0  3  0  0  0  0  0  0
  194.8640  175.1480  139.1350 C   0  0  0  0  0  1  0  0  0  0  0  0
  192.3670  173.5730  135.2960 C   0  0  0  0  0  2  0  0  0  0  0  0
  195.5660  173.7820  137.1560 C   0  0  1  0  0  3  0  0  0  0  0  0
  194.5340  174.7900  137.7000 C   0  0  1  0  0  3  0  0  0  0  0  0
  197.3110  173.7430  135.1850 C   0  0  0  0  0  2  0  0  0  0  0  0
  197.9590  175.9980  135.8420 N   0  0  0  0  0  1  0  0  0  0  0  0
  198.2020  174.5870  136.0800 C   0  0  0  0  0  2  0  0  0  0  0  0
  193.2760  171.3560  134.5990 C   0  0  0  0  0  2  0  0  0  0  0  0
  193.4030  169.7150  136.0690 C   0  0  0  0  0  1  0  0  0  0  0  0
  194.1300  170.3550  135.0660 O   0  0  0  0  0  0  0  0  0  0  0  0
  1 22  1  0  0  0  0
  3 19  1  0  0  0  0
  3 23  1  0  0  0  0
  4 11  1  0  0  0  0
  5  4  2  0  0  0  0
  5  9  1  0  0  0  0
  6 17  1  0  0  0  0
  7  6  1  0  0  0  0
  9  7  2  0  0  0  0
 10 20  1  0  0  0  0
 11 23  1  0  0  0  0
 11  6  2  0  0  0  0
 12 27  1  0  0  0  0
 13  1  1  0  0  0  0
 14 12  2  0  0  0  0
 14 22  1  0  0  0  0
 15 17  1  6  0  0  0
 15 36  1  0  0  0  0
 18  2  1  6  0  0  0
 18 16  1  0  0  0  0
 19 18  1  0  0  0  0
 21 37  1  6  0  0  0
 21 16  1  0  0  0  0
 21 25  1  0  0  0  0
 22 10  2  0  0  0  0
 23  8  1  0  0  0  0
 24 15  1  0  0  0  0
 24 13  1  0  0  0  0
 25 26  1  0  0  0  0
 26 12  1  0  0  0  0
 27 20  2  0  0  0  0
 28 30  1  0  0  0  0
 29 35  1  0  0  0  0
 31 28  1  0  0  0  0
 31 35  1  0  0  0  0
 33 36  1  0  0  0  0
 33 31  1  0  0  0  0
 34 28  2  0  0  0  0
 36 32  1  6  0  0  0
 36 29  1  0  0  0  0
 38 37  1  0  0  0  0
 40 41  1  0  0  0  0
 41 50  1  6  0  0  0
 41 48  1  0  0  0  0
 42 49  1  0  0  0  0
 43 53  1  6  0  0  0
 43 47  1  0  0  0  0
 44 40  1  1  0  0  0
 44 43  1  0  0  0  0
 44 41  1  0  0  0  0
 45 38  1  1  0  0  0
 45 42  1  0  0  0  0
 47 45  1  0  0  0  0
 48 49  1  0  0  0  0
 48 39  1  6  0  0  0
 49 46  1  1  0  0  0
 50 52  1  0  0  0  0
 51 52  1  0  0  0  0
 53 55  1  0  0  0  0
 55 54  1  0  0  0  0
M  END
>  <MODEL>
3

>  <REMARK>
 VINA RESULT:      -4.1      2.358      3.384
  Name = 
  8 active torsions:
  status: ('A' for Active; 'I' for Inactive)
    1  A    between atoms: C_6  and  C_25
    2  A    between atoms: C_8  and  C_20
    3  A    between atoms: C_8  and  N_22
    4  A    between atoms: C_12  and  C_30
    5  A    between atoms: N_22  and  C_43
    6  A    between atoms: C_25  and  C_38
    7  A    between atoms: C_30  and  O_50
    8  A    between atoms: C_33  and  C_52
                            x       y       z     vdW  Elec       q    Type
                         _______ _______ _______ _____ _____    ______ ____

>  <TORSDO>
F 8

$$$$
=
 OpenBabel10262420203D

 55 60  0  0  1  0  0  0  0  0999 V2000
  188.4740  173.5580  135.4360 C   0  0  0  0  0  2  0  0  0  0  0  0
  188.7870  175.4980  139.6140 O   0  0  0  0  0  1  0  0  0  0  0  0
  187.5150  178.5230  137.8520 C   0  0  0  0  0  2  0  0  0  0  0  0
  184.6760  178.3040  138.3910 C   0  0  0  0  0  3  0  0  0  0  0  0
  183.3450  178.1400  138.7730 C   0  0  0  0  0  3  0  0  0  0  0  0
  184.4350  176.5330  136.7420 C   0  0  0  0  0  0  0  0  0  0  0  0
  183.0930  176.4000  137.1210 C   0  0  0  0  0  3  0  0  0  0  0  0
  187.0630  177.5950  135.6040 C   0  0  0  0  0  1  0  0  0  0  0  0
  182.5500  177.1950  138.1310 C   0  0  0  0  0  3  0  0  0  0  0  0
  190.8020  173.2200  134.5940 C   0  0  0  0  0  3  0  0  0  0  0  0
  185.2430  177.5250  137.3660 C   0  0  0  0  0  0  0  0  0  0  0  0
  191.8950  174.1260  137.0080 C   0  0  0  0  0  0  0  0  0  0  0  0
  187.6970  173.2570  136.7110 C   0  0  0  0  0  2  0  0  0  0  0  0
  190.5110  174.0080  136.8590 C   0  0  0  0  0  3  0  0  0  0  0  0
  185.4470  174.2440  136.1490 C   0  0  1  0  0  3  0  0  0  0  0  0
  190.0360  176.7450  137.9490 C   0  0  0  0  0  2  0  0  0  0  0  0
  184.9410  175.6170  135.6630 C   0  0  0  0  0  2  0  0  0  0  0  0
  188.6770  176.4200  138.5700 C   0  0  2  0  0  3  0  0  0  0  0  0
  187.9500  177.6670  139.0390 C   0  0  0  0  0  2  0  0  0  0  0  0
  192.1900  173.3260  134.7400 C   0  0  0  0  0  3  0  0  0  0  0  0
  191.1870  176.7090  138.9550 C   0  0  1  0  0  3  0  0  0  0  0  0
  189.9550  173.5520  135.6560 C   0  0  0  0  0  0  0  0  0  0  0  0
  186.6080  177.7860  136.9720 N   0  0  0  0  0  0  0  0  0  0  0  0
  186.7080  174.3750  137.0030 C   0  0  0  0  0  2  0  0  0  0  0  0
  192.4740  176.1740  138.3270 C   0  0  0  0  0  2  0  0  0  0  0  0
  192.4730  174.6470  138.2850 C   0  0  0  0  0  2  0  0  0  0  0  0
  192.7350  173.7820  135.9440 C   0  0  0  0  0  3  0  0  0  0  0  0
  180.8610  174.0820  135.6910 C   0  0  0  0  0  0  0  0  0  0  0  0
  184.0570  172.1300  135.7730 C   0  0  0  0  0  2  0  0  0  0  0  0
  180.0540  173.5970  134.6250 N   0  0  0  0  0  1  0  0  0  0  0  0
  182.1500  173.5110  135.9420 N   0  0  0  0  0  0  0  0  0  0  0  0
  184.8090  172.7240  138.0760 C   0  0  0  0  0  1  0  0  0  0  0  0
  183.0640  174.0270  136.9400 C   0  0  0  0  0  2  0  0  0  0  0  0
  180.4320  175.0190  136.4110 O   0  0  0  0  0  0  0  0  0  0  0  0
  182.6990  172.4240  135.1620 C   0  0  0  0  0  2  0  0  0  0  0  0
  184.3740  173.2830  136.7300 C   0  0  1  0  0  0  0  0  0  0  0  0
  191.3870  178.0090  139.5990 N   0  0  0  0  0  2  0  0  0  0  0  0
  192.2320  177.8770  140.7840 C   0  0  0  0  0  2  0  0  0  0  0  0
  187.8700  176.5450  143.6630 C   0  0  0  0  0  1  0  0  0  0  0  0
  190.7110  178.8340  144.7240 C   0  0  0  0  0  2  0  0  0  0  0  0
  189.3980  178.1310  144.9870 C   0  0  2  0  0  0  0  0  0  0  0  0
  189.9210  177.5360  141.6320 C   0  0  0  0  0  2  0  0  0  0  0  0
  190.9300  176.3330  144.0750 C   0  0  1  0  0  3  0  0  0  0  0  0
  190.7190  177.3750  145.1800 C   0  0  1  0  0  3  0  0  0  0  0  0
  191.3680  177.8030  142.0280 C   0  0  1  0  0  3  0  0  0  0  0  0
  187.8130  178.8460  141.5090 C   0  0  0  0  0  1  0  0  0  0  0  0
  191.9170  176.7360  142.9780 C   0  0  0  0  0  2  0  0  0  0  0  0
  188.4940  177.9350  143.7420 C   0  0  1  0  0  3  0  0  0  0  0  0
  188.9920  178.4840  142.3890 C   0  0  1  0  0  3  0  0  0  0  0  0
  188.7430  178.6280  146.2690 C   0  0  0  0  0  2  0  0  0  0  0  0
  188.3200  177.2190  148.2120 N   0  0  0  0  0  1  0  0  0  0  0  0
  187.8400  177.5750  146.8890 C   0  0  0  0  0  2  0  0  0  0  0  0
  191.3660  175.0230  144.7070 C   0  0  0  0  0  2  0  0  0  0  0  0
  192.3870  174.8860  146.6590 C   0  0  0  0  0  1  0  0  0  0  0  0
  192.6140  175.1770  145.3140 O   0  0  0  0  0  0  0  0  0  0  0  0
  1 22  1  0  0  0  0
  1 13  1  0  0  0  0
  3 19  1  0  0  0  0
  4  5  1  0  0  0  0
  6  7  2  0  0  0  0
  6 11  1  0  0  0  0
  7  9  1  0  0  0  0
  8 23  1  0  0  0  0
  9  5  2  0  0  0  0
 10 20  2  0  0  0  0
 10 22  1  0  0  0  0
 11  4  2  0  0  0  0
 12 26  1  0  0  0  0
 13 24  1  0  0  0  0
 14 12  1  0  0  0  0
 15 17  1  1  0  0  0
 15 36  1  0  0  0  0
 15 24  1  0  0  0  0
 16 18  1  0  0  0  0
 16 21  1  0  0  0  0
 17  6  1  0  0  0  0
 18 19  1  0  0  0  0
 18  2  1  1  0  0  0
 20 27  1  0  0  0  0
 21 37  1  6  0  0  0
 22 14  2  0  0  0  0
 23 11  1  0  0  0  0
 23  3  1  0  0  0  0
 25 21  1  0  0  0  0
 26 25  1  0  0  0  0
 27 12  2  0  0  0  0
 28 31  1  0  0  0  0
 28 34  2  0  0  0  0
 29 36  1  0  0  0  0
 30 28  1  0  0  0  0
 31 33  1  0  0  0  0
 35 29  1  0  0  0  0
 35 31  1  0  0  0  0
 36 33  1  0  0  0  0
 36 32  1  1  0  0  0
 37 38  1  0  0  0  0
 40 41  1  0  0  0  0
 41 44  1  0  0  0  0
 41 50  1  1  0  0  0
 42 45  1  0  0  0  0
 42 49  1  0  0  0  0
 43 53  1  1  0  0  0
 43 44  1  0  0  0  0
 44 40  1  6  0  0  0
 45 38  1  6  0  0  0
 45 47  1  0  0  0  0
 47 43  1  0  0  0  0
 48 39  1  6  0  0  0
 48 41  1  0  0  0  0
 49 46  1  6  0  0  0
 49 48  1  0  0  0  0
 50 52  1  0  0  0  0
 52 51  1  0  0  0  0
 53 55  1  0  0  0  0
 55 54  1  0  0  0  0
M  END
>  <MODEL>
4

>  <REMARK>
 VINA RESULT:      -2.6      3.734      7.727
  Name = 
  8 active torsions:
  status: ('A' for Active; 'I' for Inactive)
    1  A    between atoms: C_6  and  C_25
    2  A    between atoms: C_8  and  C_20
    3  A    between atoms: C_8  and  N_22
    4  A    between atoms: C_12  and  C_30
    5  A    between atoms: N_22  and  C_43
    6  A    between atoms: C_25  and  C_38
    7  A    between atoms: C_30  and  O_50
    8  A    between atoms: C_33  and  C_52
                            x       y       z     vdW  Elec       q    Type
                         _______ _______ _______ _____ _____    ______ ____

>  <TORSDO>
F 8

$$$$
