=
 OpenBabel10262419443D

 25 28  0  0  1  0  0  0  0  0999 V2000
  187.1960  177.8460  143.5820 C   0  0  0  0  0  0  0  0  0  0  0  0
  188.0310  177.5070  142.3690 C   0  0  2  0  0  3  0  0  0  0  0  0
  189.1610  177.3980  145.1450 C   0  0  0  0  0  2  0  0  0  0  0  0
  185.8490  178.2200  143.4300 C   0  0  0  0  0  0  0  0  0  0  0  0
  183.6770  178.9120  144.2210 C   0  0  0  0  0  2  0  0  0  0  0  0
  190.0310  177.3860  143.8890 C   0  0  0  0  0  2  0  0  0  0  0  0
  185.6380  178.6190  145.8020 C   0  0  0  0  0  3  0  0  0  0  0  0
  185.0880  178.5830  144.5210 C   0  0  0  0  0  0  0  0  0  0  0  0
  183.3920  178.3370  142.8350 C   0  0  0  0  0  2  0  0  0  0  0  0
  187.7650  177.8810  144.8800 C   0  0  0  0  0  0  0  0  0  0  0  0
  186.9780  178.2600  145.9780 C   0  0  0  0  0  3  0  0  0  0  0  0
  184.9550  178.2400  141.8870 S   0  0  0  0  0  0  0  0  0  0  0  0
  189.2990  176.7250  142.7230 C   0  0  1  0  0  3  0  0  0  0  0  0
  188.9830  175.3980  143.0280 O   0  0  0  0  0  0  0  0  0  0  0  0
  190.1370  174.7660  143.0010 O   0  0  0  0  0  1  0  0  0  0  0  0
  188.3880  178.7290  141.6630 N   0  0  0  0  0  2  0  0  0  0  0  0
  189.3420  178.2460  139.5190 C   0  0  2  0  0  3  0  0  0  0  0  0
  188.4650  177.2110  139.8970 O   0  0  0  0  0  0  0  0  0  0  0  0
  188.0860  178.5150  140.2590 C   0  0  1  0  0  3  0  0  0  0  0  0
  189.9620  176.2330  137.4550 C   0  0  0  0  0  1  0  0  0  0  0  0
  189.1710  178.5410  138.0580 C   0  0  0  0  0  0  0  0  0  0  0  0
  189.4370  177.5380  137.0620 N   0  0  0  0  0  0  0  0  0  0  0  0
  188.8220  179.7010  137.7060 O   0  0  0  0  0  0  0  0  0  0  0  0
  188.1270  177.4100  135.0260 C   0  0  0  0  0  2  0  0  0  0  0  0
  189.2010  177.8420  135.6780 C   0  0  0  0  0  3  0  0  0  0  0  0
  1 10  1  0  0  0  0
  2 16  1  1  0  0  0
  2 13  1  0  0  0  0
  2  1  1  0  0  0  0
  4  1  2  0  0  0  0
  4  8  1  0  0  0  0
  5  8  1  0  0  0  0
  6  3  1  0  0  0  0
  7 11  1  0  0  0  0
  8  7  2  0  0  0  0
  9  5  1  0  0  0  0
 10  3  1  0  0  0  0
 10 11  2  0  0  0  0
 12  9  1  0  0  0  0
 12  4  1  0  0  0  0
 13 14  1  1  0  0  0
 13  6  1  0  0  0  0
 15 14  1  0  0  0  0
 17 21  1  6  0  0  0
 17 18  1  0  0  0  0
 17 19  1  0  0  0  0
 18 19  1  0  0  0  0
 19 16  1  1  0  0  0
 22 20  1  0  0  0  0
 22 21  1  0  0  0  0
 23 21  2  0  0  0  0
 24 25  2  0  0  0  0
 25 22  1  0  0  0  0
M  END
>  <MODEL>
1

>  <REMARK>
 VINA RESULT:      -7.8      0.000      0.000
  Name = 
  5 active torsions:
  status: ('A' for Active; 'I' for Inactive)
    1  A    between atoms: C_3  and  N_16
    2  A    between atoms: C_6  and  C_15
    3  A    between atoms: C_7  and  N_21
    4  A    between atoms: O_13  and  C_24
    5  A    between atoms: N_16  and  C_23
                            x       y       z     vdW  Elec       q    Type
                         _______ _______ _______ _____ _____    ______ ____

>  <TORSDO>
F 5

$$$$
=
 OpenBabel10262419443D

 25 28  0  0  1  0  0  0  0  0999 V2000
  187.1490  177.8430  143.5600 C   0  0  0  0  0  0  0  0  0  0  0  0
  187.9380  177.4990  142.3170 C   0  0  2  0  0  3  0  0  0  0  0  0
  189.1680  177.3880  145.0510 C   0  0  0  0  0  2  0  0  0  0  0  0
  185.7990  178.2230  143.4550 C   0  0  0  0  0  0  0  0  0  0  0  0
  183.6610  178.9250  144.3250 C   0  0  0  0  0  2  0  0  0  0  0  0
  189.9920  177.3700  143.7640 C   0  0  0  0  0  2  0  0  0  0  0  0
  185.6760  178.6260  145.8330 C   0  0  0  0  0  3  0  0  0  0  0  0
  185.0800  178.5910  144.5740 C   0  0  0  0  0  0  0  0  0  0  0  0
  183.3230  178.3500  142.9510 C   0  0  0  0  0  2  0  0  0  0  0  0
  187.7660  177.8770  144.8350 C   0  0  0  0  0  0  0  0  0  0  0  0
  187.0200  178.2610  145.9610 C   0  0  0  0  0  3  0  0  0  0  0  0
  184.8500  178.2460  141.9470 S   0  0  0  0  0  0  0  0  0  0  0  0
  189.2150  176.7110  142.6250 C   0  0  1  0  0  3  0  0  0  0  0  0
  188.9040  175.3870  142.9440 O   0  0  0  0  0  0  0  0  0  0  0  0
  190.0660  174.7690  142.9700 O   0  0  0  0  0  1  0  0  0  0  0  0
  188.2750  178.7180  141.5970 N   0  0  0  0  0  2  0  0  0  0  0  0
  187.9960  178.1230  139.2930 C   0  0  2  0  0  3  0  0  0  0  0  0
  188.7700  179.2940  139.3950 O   0  0  0  0  0  0  0  0  0  0  0  0
  188.9750  178.3210  140.3880 C   0  0  1  0  0  3  0  0  0  0  0  0
  187.2850  178.4700  136.4530 C   0  0  0  0  0  1  0  0  0  0  0  0
  188.5650  177.2340  138.2270 C   0  0  0  0  0  0  0  0  0  0  0  0
  188.2440  177.4380  136.8400 N   0  0  0  0  0  0  0  0  0  0  0  0
  189.3080  176.2720  138.5660 O   0  0  0  0  0  0  0  0  0  0  0  0
  189.4330  177.1010  134.7550 C   0  0  0  0  0  2  0  0  0  0  0  0
  188.8580  176.6050  135.8460 C   0  0  0  0  0  3  0  0  0  0  0  0
  1 10  1  0  0  0  0
  2 16  1  1  0  0  0
  2 13  1  0  0  0  0
  2  1  1  0  0  0  0
  4  1  2  0  0  0  0
  4  8  1  0  0  0  0
  5  8  1  0  0  0  0
  6  3  1  0  0  0  0
  7 11  1  0  0  0  0
  8  7  2  0  0  0  0
  9  5  1  0  0  0  0
 10  3  1  0  0  0  0
 10 11  2  0  0  0  0
 12  9  1  0  0  0  0
 12  4  1  0  0  0  0
 13 14  1  1  0  0  0
 13  6  1  0  0  0  0
 14 15  1  0  0  0  0
 17 21  1  6  0  0  0
 17 18  1  0  0  0  0
 17 19  1  0  0  0  0
 18 19  1  0  0  0  0
 19 16  1  1  0  0  0
 20 22  1  0  0  0  0
 21 23  2  0  0  0  0
 22 21  1  0  0  0  0
 24 25  2  0  0  0  0
 25 22  1  0  0  0  0
M  END
>  <MODEL>
2

>  <REMARK>
 VINA RESULT:      -7.7      0.873      1.274
  Name = 
  5 active torsions:
  status: ('A' for Active; 'I' for Inactive)
    1  A    between atoms: C_3  and  N_16
    2  A    between atoms: C_6  and  C_15
    3  A    between atoms: C_7  and  N_21
    4  A    between atoms: O_13  and  C_24
    5  A    between atoms: N_16  and  C_23
                            x       y       z     vdW  Elec       q    Type
                         _______ _______ _______ _____ _____    ______ ____

>  <TORSDO>
F 5

$$$$
=
 OpenBabel10262419443D

 25 28  0  0  1  0  0  0  0  0999 V2000
  188.8040  177.4000  144.5330 C   0  0  0  0  0  0  0  0  0  0  0  0
  189.3800  177.1350  143.1610 C   0  0  2  0  0  3  0  0  0  0  0  0
  191.0150  176.8010  145.6530 C   0  0  0  0  0  2  0  0  0  0  0  0
  187.4650  177.8100  144.6680 C   0  0  0  0  0  0  0  0  0  0  0  0
  185.5080  178.4820  145.9090 C   0  0  0  0  0  2  0  0  0  0  0  0
  191.6290  176.8640  144.2560 C   0  0  0  0  0  2  0  0  0  0  0  0
  187.7240  178.0370  147.0590 C   0  0  0  0  0  3  0  0  0  0  0  0
  186.9390  178.1060  145.9090 C   0  0  0  0  0  0  0  0  0  0  0  0
  184.9450  178.0160  144.5680 C   0  0  0  0  0  2  0  0  0  0  0  0
  189.6110  177.3290  145.6960 C   0  0  0  0  0  0  0  0  0  0  0  0
  189.0600  177.6400  146.9480 C   0  0  0  0  0  3  0  0  0  0  0  0
  186.2950  177.9600  143.3320 S   0  0  0  0  0  0  0  0  0  0  0  0
  190.6660  176.3050  143.2090 C   0  0  1  0  0  3  0  0  0  0  0  0
  190.3710  174.9660  143.4780 O   0  0  0  0  0  0  0  0  0  0  0  0
  191.5440  174.3960  143.6560 O   0  0  0  0  0  1  0  0  0  0  0  0
  189.6360  178.3990  142.4850 N   0  0  0  0  0  2  0  0  0  0  0  0
  189.8430  177.7560  140.1860 C   0  0  2  0  0  3  0  0  0  0  0  0
  188.8220  177.0080  140.8030 O   0  0  0  0  0  0  0  0  0  0  0  0
  188.9470  178.3480  141.2080 C   0  0  1  0  0  3  0  0  0  0  0  0
  190.1470  175.9350  137.8870 C   0  0  0  0  0  1  0  0  0  0  0  0
  189.4100  178.1550  138.8060 C   0  0  0  0  0  0  0  0  0  0  0  0
  189.5250  177.2440  137.6990 N   0  0  0  0  0  0  0  0  0  0  0  0
  188.9730  179.3240  138.6170 O   0  0  0  0  0  0  0  0  0  0  0  0
  187.8800  177.2240  135.9200 C   0  0  0  0  0  2  0  0  0  0  0  0
  189.0430  177.6430  136.4070 C   0  0  0  0  0  3  0  0  0  0  0  0
  1  4  2  0  0  0  0
  1 10  1  0  0  0  0
  2 16  1  1  0  0  0
  2 13  1  0  0  0  0
  2  1  1  0  0  0  0
  3 10  1  0  0  0  0
  4  8  1  0  0  0  0
  6  3  1  0  0  0  0
  8  5  1  0  0  0  0
  8  7  2  0  0  0  0
  9  5  1  0  0  0  0
 10 11  2  0  0  0  0
 11  7  1  0  0  0  0
 12  9  1  0  0  0  0
 12  4  1  0  0  0  0
 13 14  1  1  0  0  0
 13  6  1  0  0  0  0
 14 15  1  0  0  0  0
 17 21  1  6  0  0  0
 17 18  1  0  0  0  0
 17 19  1  0  0  0  0
 18 19  1  0  0  0  0
 19 16  1  1  0  0  0
 22 20  1  0  0  0  0
 22 21  1  0  0  0  0
 23 21  2  0  0  0  0
 24 25  2  0  0  0  0
 25 22  1  0  0  0  0
M  END
>  <MODEL>
3

>  <REMARK>
 VINA RESULT:      -7.1      1.143      1.703
  Name = 
  5 active torsions:
  status: ('A' for Active; 'I' for Inactive)
    1  A    between atoms: C_3  and  N_16
    2  A    between atoms: C_6  and  C_15
    3  A    between atoms: C_7  and  N_21
    4  A    between atoms: O_13  and  C_24
    5  A    between atoms: N_16  and  C_23
                            x       y       z     vdW  Elec       q    Type
                         _______ _______ _______ _____ _____    ______ ____

>  <TORSDO>
F 5

$$$$
=
 OpenBabel10262419443D

 25 28  0  0  1  0  0  0  0  0999 V2000
  189.2020  177.2570  144.8140 C   0  0  0  0  0  0  0  0  0  0  0  0
  189.1550  177.0340  143.3200 C   0  0  2  0  0  3  0  0  0  0  0  0
  191.6820  176.6670  144.8950 C   0  0  0  0  0  2  0  0  0  0  0  0
  188.0400  177.6420  145.5060 C   0  0  0  0  0  0  0  0  0  0  0  0
  186.7740  178.2540  147.4680 C   0  0  0  0  0  2  0  0  0  0  0  0
  191.6570  176.7730  143.3710 C   0  0  0  0  0  2  0  0  0  0  0  0
  189.2700  177.8170  147.5770 C   0  0  0  0  0  3  0  0  0  0  0  0
  188.0770  177.9000  146.8610 C   0  0  0  0  0  0  0  0  0  0  0  0
  185.7060  177.8110  146.4710 C   0  0  0  0  0  2  0  0  0  0  0  0
  190.4200  177.1720  145.5330 C   0  0  0  0  0  0  0  0  0  0  0  0
  190.4400  177.4450  146.9090 C   0  0  0  0  0  3  0  0  0  0  0  0
  186.4180  177.8050  144.7840 S   0  0  0  0  0  0  0  0  0  0  0  0
  190.3480  176.2230  142.8050 C   0  0  1  0  0  3  0  0  0  0  0  0
  190.1980  174.8740  143.1350 O   0  0  0  0  0  0  0  0  0  0  0  0
  188.9170  174.6280  142.9550 O   0  0  0  0  0  1  0  0  0  0  0  0
  189.1000  178.3160  142.6340 N   0  0  0  0  0  2  0  0  0  0  0  0
  187.3600  179.1170  141.1950 C   0  0  2  0  0  3  0  0  0  0  0  0
  188.6050  179.2180  140.5440 O   0  0  0  0  0  0  0  0  0  0  0  0
  188.4210  178.0960  141.3700 C   0  0  1  0  0  3  0  0  0  0  0  0
  184.5070  178.9870  141.9260 C   0  0  0  0  0  1  0  0  0  0  0  0
  186.3220  178.6420  140.2220 C   0  0  0  0  0  0  0  0  0  0  0  0
  184.9280  178.6210  140.5750 N   0  0  0  0  0  0  0  0  0  0  0  0
  186.6920  178.2220  139.0910 O   0  0  0  0  0  0  0  0  0  0  0  0
  183.2500  179.0940  138.8910 C   0  0  0  0  0  2  0  0  0  0  0  0
  183.9600  178.2180  139.5940 C   0  0  0  0  0  3  0  0  0  0  0  0
  1  4  2  0  0  0  0
  1 10  1  0  0  0  0
  2 16  1  6  0  0  0
  2  1  1  0  0  0  0
  3 10  1  0  0  0  0
  4  8  1  0  0  0  0
  6  3  1  0  0  0  0
  8  5  1  0  0  0  0
  8  7  2  0  0  0  0
  9  5  1  0  0  0  0
 10 11  2  0  0  0  0
 11  7  1  0  0  0  0
 12  4  1  0  0  0  0
 12  9  1  0  0  0  0
 13 14  1  1  0  0  0
 13  2  1  0  0  0  0
 13  6  1  0  0  0  0
 15 14  1  0  0  0  0
 17 21  1  6  0  0  0
 17 19  1  0  0  0  0
 18 17  1  0  0  0  0
 18 19  1  0  0  0  0
 19 16  1  1  0  0  0
 21 22  1  0  0  0  0
 22 20  1  0  0  0  0
 23 21  2  0  0  0  0
 24 25  2  0  0  0  0
 25 22  1  0  0  0  0
M  END
>  <MODEL>
4

>  <REMARK>
 VINA RESULT:      -6.9      2.732      3.733
  Name = 
  5 active torsions:
  status: ('A' for Active; 'I' for Inactive)
    1  A    between atoms: C_3  and  N_16
    2  A    between atoms: C_6  and  C_15
    3  A    between atoms: C_7  and  N_21
    4  A    between atoms: O_13  and  C_24
    5  A    between atoms: N_16  and  C_23
                            x       y       z     vdW  Elec       q    Type
                         _______ _______ _______ _____ _____    ______ ____

>  <TORSDO>
F 5

$$$$
=
 OpenBabel10262419443D

 25 28  0  0  1  0  0  0  0  0999 V2000
  181.1780  179.1540  141.3660 C   0  0  0  0  0  0  0  0  0  0  0  0
  181.5060  178.7320  142.7800 C   0  0  2  0  0  3  0  0  0  0  0  0
  179.0870  180.3890  142.1450 C   0  0  0  0  0  2  0  0  0  0  0  0
  182.0140  178.7660  140.3030 C   0  0  0  0  0  0  0  0  0  0  0  0
  182.6920  178.6680  137.9890 C   0  0  0  0  0  2  0  0  0  0  0  0
  179.6320  180.2170  143.5620 C   0  0  0  0  0  2  0  0  0  0  0  0
  180.6850  180.0290  138.7310 C   0  0  0  0  0  3  0  0  0  0  0  0
  181.7590  179.1850  139.0140 C   0  0  0  0  0  0  0  0  0  0  0  0
  183.4090  177.4810  138.6280 C   0  0  0  0  0  2  0  0  0  0  0  0
  180.0860  180.0130  141.0890 C   0  0  0  0  0  0  0  0  0  0  0  0
  179.8460  180.4350  139.7730 C   0  0  0  0  0  3  0  0  0  0  0  0
  183.4310  177.6940  140.4460 S   0  0  0  0  0  0  0  0  0  0  0  0
  180.3090  178.8580  143.7270 C   0  0  1  0  0  3  0  0  0  0  0  0
  179.3980  177.8230  143.4990 O   0  0  0  0  0  0  0  0  0  0  0  0
  179.7120  176.9020  144.3860 O   0  0  0  0  0  1  0  0  0  0  0  0
  182.6170  179.5270  143.2840 N   0  0  0  0  0  2  0  0  0  0  0  0
  184.6890  179.3340  144.4700 C   0  0  2  0  0  3  0  0  0  0  0  0
  183.6120  179.2850  145.3760 O   0  0  0  0  0  0  0  0  0  0  0  0
  183.4120  178.6600  144.1330 C   0  0  1  0  0  3  0  0  0  0  0  0
  186.6020  178.2290  142.5170 C   0  0  0  0  0  1  0  0  0  0  0  0
  185.7290  178.3300  144.8710 C   0  0  0  0  0  0  0  0  0  0  0  0
  186.6840  177.8290  143.9190 N   0  0  0  0  0  0  0  0  0  0  0  0
  185.7350  177.8980  146.0570 O   0  0  0  0  0  0  0  0  0  0  0  0
  188.8940  177.3260  144.7780 C   0  0  0  0  0  2  0  0  0  0  0  0
  187.7010  176.9160  144.3580 C   0  0  0  0  0  3  0  0  0  0  0  0
  1  2  1  0  0  0  0
  2 16  1  1  0  0  0
  2 13  1  0  0  0  0
  3  6  1  0  0  0  0
  4 12  1  0  0  0  0
  4  1  2  0  0  0  0
  5  9  1  0  0  0  0
  5  8  1  0  0  0  0
  6 13  1  0  0  0  0
  7  8  2  0  0  0  0
  7 11  1  0  0  0  0
  8  4  1  0  0  0  0
  9 12  1  0  0  0  0
 10  1  1  0  0  0  0
 10  3  1  0  0  0  0
 11 10  2  0  0  0  0
 13 14  1  6  0  0  0
 14 15  1  0  0  0  0
 17 21  1  1  0  0  0
 17 18  1  0  0  0  0
 19 16  1  6  0  0  0
 19 17  1  0  0  0  0
 19 18  1  0  0  0  0
 20 22  1  0  0  0  0
 21 23  2  0  0  0  0
 22 25  1  0  0  0  0
 22 21  1  0  0  0  0
 25 24  2  0  0  0  0
M  END
>  <MODEL>
5

>  <REMARK>
 VINA RESULT:      -6.9      4.552      7.974
  Name = 
  5 active torsions:
  status: ('A' for Active; 'I' for Inactive)
    1  A    between atoms: C_3  and  N_16
    2  A    between atoms: C_6  and  C_15
    3  A    between atoms: C_7  and  N_21
    4  A    between atoms: O_13  and  C_24
    5  A    between atoms: N_16  and  C_23
                            x       y       z     vdW  Elec       q    Type
                         _______ _______ _______ _____ _____    ______ ____

>  <TORSDO>
F 5

$$$$
=
 OpenBabel10262419443D

 25 28  0  0  1  0  0  0  0  0999 V2000
  186.3710  178.0980  143.8760 C   0  0  0  0  0  0  0  0  0  0  0  0
  185.1060  178.8960  144.0920 C   0  0  2  0  0  3  0  0  0  0  0  0
  186.3980  177.3500  146.3140 C   0  0  0  0  0  2  0  0  0  0  0  0
  186.9790  178.0700  142.6080 C   0  0  0  0  0  0  0  0  0  0  0  0
  188.6630  177.4020  141.0140 C   0  0  0  0  0  2  0  0  0  0  0  0
  184.9720  177.8920  146.3950 C   0  0  0  0  0  2  0  0  0  0  0  0
  188.6540  176.5160  143.3900 C   0  0  0  0  0  3  0  0  0  0  0  0
  188.1040  177.3050  142.3800 C   0  0  0  0  0  0  0  0  0  0  0  0
  188.0540  178.6570  140.3930 C   0  0  0  0  0  2  0  0  0  0  0  0
  186.9210  177.2980  144.9080 C   0  0  0  0  0  0  0  0  0  0  0  0
  188.0620  176.5210  144.6570 C   0  0  0  0  0  3  0  0  0  0  0  0
  186.4400  179.0020  141.1870 S   0  0  0  0  0  0  0  0  0  0  0  0
  184.8250  179.1720  145.5720 C   0  0  1  0  0  3  0  0  0  0  0  0
  185.6810  180.1670  146.0520 O   0  0  0  0  0  0  0  0  0  0  0  0
  185.6900  179.9960  147.3580 O   0  0  0  0  0  1  0  0  0  0  0  0
  183.9760  178.1940  143.5000 N   0  0  0  0  0  2  0  0  0  0  0  0
  181.7690  178.5410  142.6350 C   0  0  2  0  0  3  0  0  0  0  0  0
  181.7520  178.6280  144.0400 O   0  0  0  0  0  0  0  0  0  0  0  0
  182.8870  179.1480  143.3950 C   0  0  1  0  0  3  0  0  0  0  0  0
  181.6550  179.0360  139.7300 C   0  0  0  0  0  1  0  0  0  0  0  0
  180.8840  179.6030  142.0540 C   0  0  0  0  0  0  0  0  0  0  0  0
  180.8040  179.8080  140.6330 N   0  0  0  0  0  0  0  0  0  0  0  0
  180.2290  180.3460  142.8360 O   0  0  0  0  0  0  0  0  0  0  0  0
  180.2120  181.5850  139.0930 C   0  0  0  0  0  2  0  0  0  0  0  0
  179.8980  180.7940  140.1150 C   0  0  0  0  0  3  0  0  0  0  0  0
  1  2  1  0  0  0  0
  1 10  1  0  0  0  0
  2 16  1  1  0  0  0
  2 13  1  0  0  0  0
  3  6  1  0  0  0  0
  4  1  2  0  0  0  0
  5  8  1  0  0  0  0
  7 11  1  0  0  0  0
  8  4  1  0  0  0  0
  8  7  2  0  0  0  0
  9  5  1  0  0  0  0
  9 12  1  0  0  0  0
 10  3  1  0  0  0  0
 11 10  2  0  0  0  0
 12  4  1  0  0  0  0
 13 14  1  1  0  0  0
 13  6  1  0  0  0  0
 14 15  1  0  0  0  0
 17 21  1  6  0  0  0
 17 19  1  0  0  0  0
 17 18  1  0  0  0  0
 19 16  1  1  0  0  0
 19 18  1  0  0  0  0
 20 22  1  0  0  0  0
 21 23  2  0  0  0  0
 22 21  1  0  0  0  0
 24 25  2  0  0  0  0
 25 22  1  0  0  0  0
M  END
>  <MODEL>
6

>  <REMARK>
 VINA RESULT:      -6.8      4.134      6.557
  Name = 
  5 active torsions:
  status: ('A' for Active; 'I' for Inactive)
    1  A    between atoms: C_3  and  N_16
    2  A    between atoms: C_6  and  C_15
    3  A    between atoms: C_7  and  N_21
    4  A    between atoms: O_13  and  C_24
    5  A    between atoms: N_16  and  C_23
                            x       y       z     vdW  Elec       q    Type
                         _______ _______ _______ _____ _____    ______ ____

>  <TORSDO>
F 5

$$$$
=
 OpenBabel10262419443D

 25 28  0  0  1  0  0  0  0  0999 V2000
  189.2510  177.7210  141.0510 C   0  0  0  0  0  0  0  0  0  0  0  0
  189.9750  177.5580  139.7340 C   0  0  2  0  0  3  0  0  0  0  0  0
  187.0300  178.1140  139.8590 C   0  0  0  0  0  2  0  0  0  0  0  0
  189.9580  177.6170  142.2620 C   0  0  0  0  0  0  0  0  0  0  0  0
  190.1750  177.6280  144.6650 C   0  0  0  0  0  2  0  0  0  0  0  0
  187.7330  177.6250  138.5940 C   0  0  0  0  0  2  0  0  0  0  0  0
  187.9210  177.8800  143.5320 C   0  0  0  0  0  3  0  0  0  0  0  0
  189.3040  177.7110  143.4730 C   0  0  0  0  0  0  0  0  0  0  0  0
  191.5980  177.8840  144.1710 C   0  0  0  0  0  2  0  0  0  0  0  0
  187.8450  177.8900  141.1000 C   0  0  0  0  0  0  0  0  0  0  0  0
  187.1950  177.9770  142.3410 C   0  0  0  0  0  3  0  0  0  0  0  0
  191.7220  177.4030  142.4090 S   0  0  0  0  0  0  0  0  0  0  0  0
  189.1800  178.1140  138.5480 C   0  0  1  0  0  3  0  0  0  0  0  0
  189.2290  179.5100  138.5430 O   0  0  0  0  0  0  0  0  0  0  0  0
  188.8510  179.8520  137.3290 O   0  0  0  0  0  1  0  0  0  0  0  0
  190.2730  176.1510  139.5090 N   0  0  0  0  0  2  0  0  0  0  0  0
  191.6270  174.8970  137.9810 C   0  0  2  0  0  3  0  0  0  0  0  0
  190.2680  174.7490  137.6480 O   0  0  0  0  0  0  0  0  0  0  0  0
  190.6630  176.0140  138.1170 C   0  0  1  0  0  3  0  0  0  0  0  0
  194.5740  174.8110  138.0320 C   0  0  0  0  0  1  0  0  0  0  0  0
  192.4390  175.0450  136.7280 C   0  0  0  0  0  0  0  0  0  0  0  0
  193.8740  174.9610  136.7580 N   0  0  0  0  0  0  0  0  0  0  0  0
  191.8440  175.2840  135.6410 O   0  0  0  0  0  0  0  0  0  0  0  0
  195.4700  176.0290  135.2800 C   0  0  0  0  0  2  0  0  0  0  0  0
  194.6090  175.0470  135.5280 C   0  0  0  0  0  3  0  0  0  0  0  0
  1 10  2  0  0  0  0
  1  4  1  0  0  0  0
  2 16  1  6  0  0  0
  2  1  1  0  0  0  0
  3 10  1  0  0  0  0
  4 12  1  0  0  0  0
  4  8  2  0  0  0  0
  6  3  1  0  0  0  0
  8  7  1  0  0  0  0
  8  5  1  0  0  0  0
  9  5  1  0  0  0  0
 10 11  1  0  0  0  0
 11  7  2  0  0  0  0
 12  9  1  0  0  0  0
 13 14  1  1  0  0  0
 13  6  1  0  0  0  0
 13  2  1  0  0  0  0
 15 14  1  0  0  0  0
 17 21  1  6  0  0  0
 17 19  1  0  0  0  0
 18 17  1  0  0  0  0
 18 19  1  0  0  0  0
 19 16  1  1  0  0  0
 21 22  1  0  0  0  0
 22 20  1  0  0  0  0
 23 21  2  0  0  0  0
 24 25  2  0  0  0  0
 25 22  1  0  0  0  0
M  END
>  <MODEL>
7

>  <REMARK>
 VINA RESULT:      -6.7      3.139      5.318
  Name = 
  5 active torsions:
  status: ('A' for Active; 'I' for Inactive)
    1  A    between atoms: C_3  and  N_16
    2  A    between atoms: C_6  and  C_15
    3  A    between atoms: C_7  and  N_21
    4  A    between atoms: O_13  and  C_24
    5  A    between atoms: N_16  and  C_23
                            x       y       z     vdW  Elec       q    Type
                         _______ _______ _______ _____ _____    ______ ____

>  <TORSDO>
F 5

$$$$
=
 OpenBabel10262419443D

 25 28  0  0  1  0  0  0  0  0999 V2000
  186.8140  177.7420  137.8220 C   0  0  0  0  0  0  0  0  0  0  0  0
  188.1130  178.0460  138.5330 C   0  0  2  0  0  3  0  0  0  0  0  0
  188.0560  176.6940  135.8560 C   0  0  0  0  0  2  0  0  0  0  0  0
  185.5870  178.0970  138.4110 C   0  0  0  0  0  0  0  0  0  0  0  0
  183.1810  178.2520  138.5080 C   0  0  0  0  0  2  0  0  0  0  0  0
  189.2960  176.7280  136.7470 C   0  0  0  0  0  2  0  0  0  0  0  0
  184.3620  177.0730  136.6000 C   0  0  0  0  0  3  0  0  0  0  0  0
  184.3920  177.7800  137.8010 C   0  0  0  0  0  0  0  0  0  0  0  0
  183.6530  179.3190  139.4940 C   0  0  0  0  0  2  0  0  0  0  0  0
  186.7950  177.0200  136.6030 C   0  0  0  0  0  0  0  0  0  0  0  0
  185.5690  176.7000  136.0000 C   0  0  0  0  0  3  0  0  0  0  0  0
  185.4020  179.0030  139.9360 S   0  0  0  0  0  0  0  0  0  0  0  0
  189.3250  177.9960  137.5980 C   0  0  1  0  0  3  0  0  0  0  0  0
  189.3600  179.1330  136.7870 O   0  0  0  0  0  0  0  0  0  0  0  0
  189.0560  180.1280  137.5940 O   0  0  0  0  0  1  0  0  0  0  0  0
  188.3010  177.1110  139.6320 N   0  0  0  0  0  2  0  0  0  0  0  0
  189.6520  176.7920  141.5850 C   0  0  2  0  0  3  0  0  0  0  0  0
  190.4280  177.3500  140.5510 O   0  0  0  0  0  0  0  0  0  0  0  0
  189.0970  177.7900  140.6390 C   0  0  1  0  0  3  0  0  0  0  0  0
  187.8110  176.7530  143.8870 C   0  0  0  0  0  1  0  0  0  0  0  0
  190.0120  177.4400  142.8890 C   0  0  0  0  0  0  0  0  0  0  0  0
  189.1240  177.3800  144.0190 N   0  0  0  0  0  0  0  0  0  0  0  0
  191.0980  178.0780  142.9750 O   0  0  0  0  0  0  0  0  0  0  0  0
  189.0710  177.5320  146.4370 C   0  0  0  0  0  2  0  0  0  0  0  0
  189.5320  177.9600  145.2670 C   0  0  0  0  0  3  0  0  0  0  0  0
  1  4  1  0  0  0  0
  1  2  1  0  0  0  0
  2 16  1  1  0  0  0
  3 10  1  0  0  0  0
  3  6  1  0  0  0  0
  4 12  1  0  0  0  0
  5  9  1  0  0  0  0
  6 13  1  0  0  0  0
  7  8  1  0  0  0  0
  8  4  2  0  0  0  0
  8  5  1  0  0  0  0
  9 12  1  0  0  0  0
 10  1  2  0  0  0  0
 11  7  2  0  0  0  0
 11 10  1  0  0  0  0
 13 14  1  6  0  0  0
 13  2  1  0  0  0  0
 14 15  1  0  0  0  0
 17 21  1  1  0  0  0
 18 19  1  0  0  0  0
 18 17  1  0  0  0  0
 19 16  1  6  0  0  0
 19 17  1  0  0  0  0
 20 22  1  0  0  0  0
 21 23  2  0  0  0  0
 21 22  1  0  0  0  0
 22 25  1  0  0  0  0
 25 24  2  0  0  0  0
M  END
>  <MODEL>
8

>  <REMARK>
 VINA RESULT:      -6.6      2.414      6.666
  Name = 
  5 active torsions:
  status: ('A' for Active; 'I' for Inactive)
    1  A    between atoms: C_3  and  N_16
    2  A    between atoms: C_6  and  C_15
    3  A    between atoms: C_7  and  N_21
    4  A    between atoms: O_13  and  C_24
    5  A    between atoms: N_16  and  C_23
                            x       y       z     vdW  Elec       q    Type
                         _______ _______ _______ _____ _____    ______ ____

>  <TORSDO>
F 5

$$$$
=
 OpenBabel10262419443D

 25 28  0  0  1  0  0  0  0  0999 V2000
  189.6090  177.6120  142.7010 C   0  0  0  0  0  0  0  0  0  0  0  0
  188.6950  177.4790  141.5050 C   0  0  2  0  0  3  0  0  0  0  0  0
  191.6570  177.8340  141.1970 C   0  0  0  0  0  2  0  0  0  0  0  0
  189.0790  177.5650  144.0030 C   0  0  0  0  0  0  0  0  0  0  0  0
  189.2110  177.6210  146.4120 C   0  0  0  0  0  2  0  0  0  0  0  0
  190.6700  178.0220  140.0460 C   0  0  0  0  0  2  0  0  0  0  0  0
  191.2560  177.9910  144.9590 C   0  0  0  0  0  3  0  0  0  0  0  0
  189.8930  177.7370  145.1040 C   0  0  0  0  0  0  0  0  0  0  0  0
  187.8790  176.9260  146.1380 C   0  0  0  0  0  2  0  0  0  0  0  0
  190.9930  177.8720  142.5430 C   0  0  0  0  0  0  0  0  0  0  0  0
  191.8040  178.0510  143.6740 C   0  0  0  0  0  3  0  0  0  0  0  0
  187.3720  177.2510  144.4090 S   0  0  0  0  0  0  0  0  0  0  0  0
  189.4480  177.1220  140.2210 C   0  0  1  0  0  3  0  0  0  0  0  0
  189.8250  175.7760  140.2360 O   0  0  0  0  0  0  0  0  0  0  0  0
  190.4590  175.5950  139.0970 O   0  0  0  0  0  1  0  0  0  0  0  0
  187.9560  178.7180  141.3130 N   0  0  0  0  0  2  0  0  0  0  0  0
  185.6960  179.3960  141.7350 C   0  0  2  0  0  3  0  0  0  0  0  0
  185.9310  179.3480  140.3480 O   0  0  0  0  0  0  0  0  0  0  0  0
  186.5620  178.3600  141.1220 C   0  0  1  0  0  3  0  0  0  0  0  0
  184.4700  179.6690  144.4020 C   0  0  0  0  0  1  0  0  0  0  0  0
  184.3350  178.8410  142.0330 C   0  0  0  0  0  0  0  0  0  0  0  0
  183.7290  179.0160  143.3260 N   0  0  0  0  0  0  0  0  0  0  0  0
  183.7350  178.1810  141.1400 O   0  0  0  0  0  0  0  0  0  0  0  0
  181.3180  179.2680  143.3420 C   0  0  0  0  0  2  0  0  0  0  0  0
  182.3990  178.5230  143.5510 C   0  0  0  0  0  3  0  0  0  0  0  0
  1  4  1  0  0  0  0
  2 16  1  6  0  0  0
  2  1  1  0  0  0  0
  3 10  1  0  0  0  0
  4 12  1  0  0  0  0
  4  8  2  0  0  0  0
  6 13  1  0  0  0  0
  6  3  1  0  0  0  0
  7  8  1  0  0  0  0
  8  5  1  0  0  0  0
  9  5  1  0  0  0  0
 10  1  2  0  0  0  0
 10 11  1  0  0  0  0
 11  7  2  0  0  0  0
 12  9  1  0  0  0  0
 13 14  1  1  0  0  0
 13  2  1  0  0  0  0
 15 14  1  0  0  0  0
 17 21  1  6  0  0  0
 18 19  1  0  0  0  0
 18 17  1  0  0  0  0
 19 16  1  1  0  0  0
 19 17  1  0  0  0  0
 21 22  1  0  0  0  0
 22 25  1  0  0  0  0
 22 20  1  0  0  0  0
 23 21  2  0  0  0  0
 24 25  2  0  0  0  0
M  END
>  <MODEL>
9

>  <REMARK>
 VINA RESULT:      -6.6      2.589      5.577
  Name = 
  5 active torsions:
  status: ('A' for Active; 'I' for Inactive)
    1  A    between atoms: C_3  and  N_16
    2  A    between atoms: C_6  and  C_15
    3  A    between atoms: C_7  and  N_21
    4  A    between atoms: O_13  and  C_24
    5  A    between atoms: N_16  and  C_23
                            x       y       z     vdW  Elec       q    Type
                         _______ _______ _______ _____ _____    ______ ____

>  <TORSDO>
F 5

$$$$
