=
 OpenBabel10262419423D

 31 34  0  0  1  0  0  0  0  0999 V2000
  189.6750  177.6590  140.6870 O   0  0  0  0  0  0  0  0  0  0  0  0
  189.1920  178.1550  139.4610 C   0  0  2  0  0  3  0  0  0  0  0  0
  187.4250  178.1640  141.4680 C   0  0  1  0  0  3  0  0  0  0  0  0
  187.1790  178.6400  140.1650 O   0  0  0  0  0  0  0  0  0  0  0  0
  188.9400  178.2770  141.7240 C   0  0  1  0  0  3  0  0  0  0  0  0
  187.8260  177.8250  139.3410 O   0  0  0  0  0  0  0  0  0  0  0  0
  189.3330  177.6890  143.0840 C   0  0  1  0  0  3  0  0  0  0  0  0
  190.3590  175.4010  142.8600 C   0  0  0  0  0  2  0  0  0  0  0  0
  189.0810  176.1740  143.1420 C   0  0  0  0  0  2  0  0  0  0  0  0
  191.4380  175.7320  143.9060 C   0  0  0  0  0  2  0  0  0  0  0  0
  190.6710  177.1180  145.6740 C   0  0  0  0  0  1  0  0  0  0  0  0
  190.7920  178.0530  143.4410 C   0  0  2  0  0  3  0  0  0  0  0  0
  191.4000  177.1170  144.4100 N   0  0  0  0  0  0  0  0  0  0  0  0
  190.9320  179.4970  143.9110 C   0  0  0  0  0  2  0  0  0  0  0  0
  192.2430  179.7500  144.3160 O   0  0  0  0  0  1  0  0  0  0  0  0
  186.6410  178.9940  142.4780 C   0  0  0  0  0  2  0  0  0  0  0  0
  185.8390  178.1240  143.4450 C   0  0  1  0  0  3  0  0  0  0  0  0
  185.8050  178.7280  144.8420 C   0  0  1  0  0  3  0  0  0  0  0  0
  184.8170  177.9720  145.7060 C   0  0  0  0  0  2  0  0  0  0  0  0
  186.3020  177.7040  145.8430 C   0  0  2  0  0  3  0  0  0  0  0  0
  186.8340  178.4290  147.0630 C   0  0  0  0  0  2  0  0  0  0  0  0
  187.8780  177.5780  147.7590 C   0  0  2  0  0  3  0  0  0  0  0  0
  187.9950  177.9790  149.1770 C   0  0  0  0  0  2  0  0  0  0  0  0
  188.9200  178.4100  148.2080 O   0  0  0  0  0  0  0  0  0  0  0  0
  184.5370  177.9380  142.9680 O   0  0  0  0  0  0  0  0  0  0  0  0
  184.1680  179.1750  142.4380 C   0  0  0  0  0  1  0  0  0  0  0  0
  189.9730  177.5200  138.3250 C   0  0  0  0  0  2  0  0  0  0  0  0
  190.7120  176.2850  138.8080 C   0  0  1  0  0  3  0  0  0  0  0  0
  190.1460  175.1540  138.2480 F   0  0  0  0  0  0  0  0  0  0  0  0
  192.4590  176.3910  138.3230 S   0  0  0  0  0  0  0  0  0  0  0  0
  192.4100  174.7740  137.5010 C   0  0  0  0  0  1  0  0  0  0  0  0
  2 27  1  6  0  0  0
  2  1  1  0  0  0  0
  3  5  1  0  0  0  0
  3 16  1  1  0  0  0
  4  3  1  0  0  0  0
  5  1  1  6  0  0  0
  5  7  1  0  0  0  0
  6  2  1  0  0  0  0
  6  4  1  0  0  0  0
  7  9  1  6  0  0  0
  7 12  1  0  0  0  0
  8  9  1  0  0  0  0
  8 10  1  0  0  0  0
 10 13  1  0  0  0  0
 12 14  1  1  0  0  0
 12 13  1  0  0  0  0
 13 11  1  0  0  0  0
 14 15  1  0  0  0  0
 17 16  1  6  0  0  0
 18 17  1  6  0  0  0
 18 19  1  0  0  0  0
 18 20  1  0  0  0  0
 19 20  1  0  0  0  0
 20 21  1  1  0  0  0
 22 21  1  6  0  0  0
 22 24  1  0  0  0  0
 22 23  1  0  0  0  0
 24 23  1  0  0  0  0
 25 17  1  0  0  0  0
 26 25  1  0  0  0  0
 27 28  1  0  0  0  0
 28 29  1  6  0  0  0
 30 28  1  0  0  0  0
 31 30  1  0  0  0  0
M  END
>  <MODEL>
1

>  <REMARK>
 VINA RESULT:      -6.8      0.000      0.000
  Name = 
  11 active torsions:
  status: ('A' for Active; 'I' for Inactive)
    1  A    between atoms: C_1  and  C_24
    2  A    between atoms: C_2  and  S_13
    3  A    between atoms: C_2  and  C_25
    4  A    between atoms: O_3  and  C_9
    5  A    between atoms: C_5  and  C_21
    6  A    between atoms: C_6  and  C_9
    7  A    between atoms: C_9  and  C_23
    8  A    between atoms: C_12  and  C_25
    9  A    between atoms: C_15  and  C_23
   10  A    between atoms: C_17  and  C_30
   11  A    between atoms: C_19  and  C_24
                            x       y       z     vdW  Elec       q    Type
                         _______ _______ _______ _____ _____    ______ ____

>  <TORSDO>
F 11

$$$$
=
 OpenBabel10262419423D

 31 34  0  0  1  0  0  0  0  0999 V2000
  190.1340  176.9310  140.6230 O   0  0  0  0  0  0  0  0  0  0  0  0
  189.9050  177.2700  139.2770 C   0  0  2  0  0  3  0  0  0  0  0  0
  187.9710  177.9900  140.9770 C   0  0  1  0  0  3  0  0  0  0  0  0
  187.9760  178.2520  139.5930 O   0  0  0  0  0  0  0  0  0  0  0  0
  189.4380  177.8600  141.4290 C   0  0  1  0  0  3  0  0  0  0  0  0
  188.5220  177.1890  139.0130 O   0  0  0  0  0  0  0  0  0  0  0  0
  189.5450  177.4730  142.9090 C   0  0  1  0  0  3  0  0  0  0  0  0
  190.5940  175.2060  143.2170 C   0  0  0  0  0  2  0  0  0  0  0  0
  189.2850  175.9730  143.1240 C   0  0  0  0  0  2  0  0  0  0  0  0
  191.4370  175.7070  144.4030 C   0  0  0  0  0  2  0  0  0  0  0  0
  190.3260  177.2970  145.7690 C   0  0  0  0  0  1  0  0  0  0  0  0
  190.9000  177.9230  143.4990 C   0  0  2  0  0  3  0  0  0  0  0  0
  191.2970  177.1450  144.6910 N   0  0  0  0  0  0  0  0  0  0  0  0
  190.9420  179.4220  143.7830 C   0  0  0  0  0  2  0  0  0  0  0  0
  192.1760  179.7770  144.3280 O   0  0  0  0  0  1  0  0  0  0  0  0
  187.2740  179.1290  141.7140 C   0  0  0  0  0  2  0  0  0  0  0  0
  185.7570  178.9500  141.7530 C   0  0  1  0  0  3  0  0  0  0  0  0
  185.1640  179.4950  143.0450 C   0  0  1  0  0  3  0  0  0  0  0  0
  183.7960  178.8870  143.2800 C   0  0  0  0  0  2  0  0  0  0  0  0
  184.9990  178.3610  144.0370 C   0  0  2  0  0  3  0  0  0  0  0  0
  185.0000  178.9340  145.4410 C   0  0  0  0  0  2  0  0  0  0  0  0
  185.5260  177.9050  146.4220 C   0  0  2  0  0  3  0  0  0  0  0  0
  186.8210  178.3500  146.9760 C   0  0  0  0  0  2  0  0  0  0  0  0
  186.7480  177.3990  145.9420 O   0  0  0  0  0  0  0  0  0  0  0  0
  185.1650  179.5750  140.6500 O   0  0  0  0  0  0  0  0  0  0  0  0
  184.5450  178.5450  139.9420 C   0  0  0  0  0  1  0  0  0  0  0  0
  190.6530  176.2980  138.3840 C   0  0  0  0  0  2  0  0  0  0  0  0
  192.0510  176.8110  138.0860 C   0  0  1  0  0  3  0  0  0  0  0  0
  192.8050  176.8120  139.2450 F   0  0  0  0  0  0  0  0  0  0  0  0
  192.8430  175.7400  136.8510 S   0  0  0  0  0  0  0  0  0  0  0  0
  191.9450  174.2740  137.4320 C   0  0  0  0  0  1  0  0  0  0  0  0
  2 27  1  6  0  0  0
  2  1  1  0  0  0  0
  3  5  1  0  0  0  0
  3 16  1  1  0  0  0
  4  3  1  0  0  0  0
  5  1  1  6  0  0  0
  5  7  1  0  0  0  0
  6  2  1  0  0  0  0
  6  4  1  0  0  0  0
  7  9  1  6  0  0  0
  7 12  1  0  0  0  0
  8 10  1  0  0  0  0
  9  8  1  0  0  0  0
 10 13  1  0  0  0  0
 12 14  1  1  0  0  0
 12 13  1  0  0  0  0
 13 11  1  0  0  0  0
 14 15  1  0  0  0  0
 17 16  1  1  0  0  0
 18 17  1  6  0  0  0
 18 19  1  0  0  0  0
 18 20  1  0  0  0  0
 19 20  1  0  0  0  0
 20 21  1  1  0  0  0
 22 21  1  6  0  0  0
 22 23  1  0  0  0  0
 24 22  1  0  0  0  0
 24 23  1  0  0  0  0
 25 17  1  0  0  0  0
 26 25  1  0  0  0  0
 28 27  1  0  0  0  0
 28 29  1  1  0  0  0
 30 31  1  0  0  0  0
 30 28  1  0  0  0  0
M  END
>  <MODEL>
2

>  <REMARK>
 VINA RESULT:      -6.6      1.330      1.731
  Name = 
  11 active torsions:
  status: ('A' for Active; 'I' for Inactive)
    1  A    between atoms: C_1  and  C_24
    2  A    between atoms: C_2  and  S_13
    3  A    between atoms: C_2  and  C_25
    4  A    between atoms: O_3  and  C_9
    5  A    between atoms: C_5  and  C_21
    6  A    between atoms: C_6  and  C_9
    7  A    between atoms: C_9  and  C_23
    8  A    between atoms: C_12  and  C_25
    9  A    between atoms: C_15  and  C_23
   10  A    between atoms: C_17  and  C_30
   11  A    between atoms: C_19  and  C_24
                            x       y       z     vdW  Elec       q    Type
                         _______ _______ _______ _____ _____    ______ ____

>  <TORSDO>
F 11

$$$$
=
 OpenBabel10262419423D

 31 34  0  0  1  0  0  0  0  0999 V2000
  186.8210  178.2250  139.8230 O   0  0  0  0  0  0  0  0  0  0  0  0
  185.5740  178.5520  139.2590 C   0  0  2  0  0  3  0  0  0  0  0  0
  185.6860  178.6800  141.9280 C   0  0  1  0  0  3  0  0  0  0  0  0
  184.5570  178.9940  141.1450 O   0  0  0  0  0  0  0  0  0  0  0  0
  186.9340  178.9090  141.0540 C   0  0  1  0  0  3  0  0  0  0  0  0
  184.5510  178.1320  140.1350 O   0  0  0  0  0  0  0  0  0  0  0  0
  188.2200  178.4990  141.7810 C   0  0  1  0  0  3  0  0  0  0  0  0
  187.8750  176.4740  143.2360 C   0  0  0  0  0  2  0  0  0  0  0  0
  187.9320  177.9930  143.2030 C   0  0  0  0  0  2  0  0  0  0  0  0
  189.2180  175.8690  142.7910 C   0  0  0  0  0  2  0  0  0  0  0  0
  190.9290  177.4750  142.4400 C   0  0  0  0  0  1  0  0  0  0  0  0
  189.0210  177.4730  140.9460 C   0  0  2  0  0  3  0  0  0  0  0  0
  189.9330  176.6490  141.7650 N   0  0  0  0  0  0  0  0  0  0  0  0
  189.7640  178.1240  139.7840 C   0  0  0  0  0  2  0  0  0  0  0  0
  190.0650  177.1740  138.8080 O   0  0  0  0  0  1  0  0  0  0  0  0
  185.7190  179.5690  143.1660 C   0  0  0  0  0  2  0  0  0  0  0  0
  184.7900  179.0610  144.2680 C   0  0  1  0  0  3  0  0  0  0  0  0
  185.4200  179.2220  145.6450 C   0  0  1  0  0  3  0  0  0  0  0  0
  184.6510  178.4010  146.6600 C   0  0  0  0  0  2  0  0  0  0  0  0
  185.9630  177.8840  146.1060 C   0  0  2  0  0  3  0  0  0  0  0  0
  187.0670  178.1250  147.1160 C   0  0  0  0  0  2  0  0  0  0  0  0
  188.2470  177.2190  146.8230 C   0  0  2  0  0  3  0  0  0  0  0  0
  189.3700  177.5420  147.7280 C   0  0  0  0  0  2  0  0  0  0  0  0
  189.3340  178.0080  146.4010 O   0  0  0  0  0  0  0  0  0  0  0  0
  183.5630  179.7310  144.2180 O   0  0  0  0  0  0  0  0  0  0  0  0
  182.6270  178.7460  143.9020 C   0  0  0  0  0  1  0  0  0  0  0  0
  185.4280  177.8430  137.9260 C   0  0  0  0  0  2  0  0  0  0  0  0
  186.7880  177.4480  137.3780 C   0  0  1  0  0  3  0  0  0  0  0  0
  186.9810  176.0890  137.5420 F   0  0  0  0  0  0  0  0  0  0  0  0
  186.8780  177.8630  135.6120 S   0  0  0  0  0  0  0  0  0  0  0  0
  188.6650  177.5580  135.5500 C   0  0  0  0  0  1  0  0  0  0  0  0
  2 27  1  6  0  0  0
  2  1  1  0  0  0  0
  2  6  1  0  0  0  0
  3 16  1  1  0  0  0
  4  3  1  0  0  0  0
  5  1  1  6  0  0  0
  5  7  1  0  0  0  0
  5  3  1  0  0  0  0
  6  4  1  0  0  0  0
  7  9  1  1  0  0  0
  9  8  1  0  0  0  0
 10  8  1  0  0  0  0
 12 14  1  6  0  0  0
 12 13  1  0  0  0  0
 12  7  1  0  0  0  0
 13 11  1  0  0  0  0
 13 10  1  0  0  0  0
 15 14  1  0  0  0  0
 17 16  1  6  0  0  0
 18 17  1  6  0  0  0
 18 20  1  0  0  0  0
 18 19  1  0  0  0  0
 20 19  1  0  0  0  0
 20 21  1  1  0  0  0
 22 21  1  1  0  0  0
 22 23  1  0  0  0  0
 24 22  1  0  0  0  0
 24 23  1  0  0  0  0
 25 17  1  0  0  0  0
 26 25  1  0  0  0  0
 28 29  1  6  0  0  0
 28 27  1  0  0  0  0
 30 28  1  0  0  0  0
 31 30  1  0  0  0  0
M  END
>  <MODEL>
3

>  <REMARK>
 VINA RESULT:      -6.1      2.280      3.149
  Name = 
  11 active torsions:
  status: ('A' for Active; 'I' for Inactive)
    1  A    between atoms: C_1  and  C_24
    2  A    between atoms: C_2  and  S_13
    3  A    between atoms: C_2  and  C_25
    4  A    between atoms: O_3  and  C_9
    5  A    between atoms: C_5  and  C_21
    6  A    between atoms: C_6  and  C_9
    7  A    between atoms: C_9  and  C_23
    8  A    between atoms: C_12  and  C_25
    9  A    between atoms: C_15  and  C_23
   10  A    between atoms: C_17  and  C_30
   11  A    between atoms: C_19  and  C_24
                            x       y       z     vdW  Elec       q    Type
                         _______ _______ _______ _____ _____    ______ ____

>  <TORSDO>
F 11

$$$$
=
 OpenBabel10262419423D

 31 34  0  0  1  0  0  0  0  0999 V2000
  187.1230  178.1750  140.3900 O   0  0  0  0  0  0  0  0  0  0  0  0
  186.4490  178.8750  141.4070 C   0  0  2  0  0  3  0  0  0  0  0  0
  188.2560  177.0940  142.2540 C   0  0  1  0  0  3  0  0  0  0  0  0
  187.4850  177.9310  143.0870 O   0  0  0  0  0  0  0  0  0  0  0  0
  188.3900  177.7960  140.8900 C   0  0  1  0  0  3  0  0  0  0  0  0
  186.2880  178.0220  142.5200 O   0  0  0  0  0  0  0  0  0  0  0  0
  189.1290  176.9210  139.8710 C   0  0  1  0  0  3  0  0  0  0  0  0
  188.6270  177.6050  137.5010 C   0  0  0  0  0  2  0  0  0  0  0  0
  188.2690  176.6480  138.6260 C   0  0  0  0  0  2  0  0  0  0  0  0
  190.1010  177.4390  137.0920 C   0  0  0  0  0  2  0  0  0  0  0  0
  191.2030  175.6380  138.1750 C   0  0  0  0  0  1  0  0  0  0  0  0
  190.5020  177.5350  139.5100 C   0  0  2  0  0  3  0  0  0  0  0  0
  191.0090  177.0840  138.1980 N   0  0  0  0  0  0  0  0  0  0  0  0
  191.5410  177.3160  140.6050 C   0  0  0  0  0  2  0  0  0  0  0  0
  192.8070  177.6890  140.1530 O   0  0  0  0  0  1  0  0  0  0  0  0
  189.6250  176.8620  142.8830 C   0  0  0  0  0  2  0  0  0  0  0  0
  189.7860  177.6020  144.2110 C   0  0  1  0  0  3  0  0  0  0  0  0
  188.9540  176.9580  145.3110 C   0  0  1  0  0  3  0  0  0  0  0  0
  189.6490  177.1280  146.6470 C   0  0  0  0  0  2  0  0  0  0  0  0
  188.4880  178.0280  146.2780 C   0  0  2  0  0  3  0  0  0  0  0  0
  187.2320  177.5440  146.9770 C   0  0  0  0  0  2  0  0  0  0  0  0
  186.2520  178.6900  147.1360 C   0  0  2  0  0  3  0  0  0  0  0  0
  184.9420  178.3190  146.5610 C   0  0  0  0  0  2  0  0  0  0  0  0
  185.8530  179.1300  145.8610 O   0  0  0  0  0  0  0  0  0  0  0  0
  191.1330  177.6420  144.5860 O   0  0  0  0  0  0  0  0  0  0  0  0
  191.6460  178.7820  143.9660 C   0  0  0  0  0  1  0  0  0  0  0  0
  185.0880  179.3090  140.8960 C   0  0  0  0  0  2  0  0  0  0  0  0
  184.0610  178.2100  141.1070 C   0  0  1  0  0  3  0  0  0  0  0  0
  183.4010  178.4130  142.3050 F   0  0  0  0  0  0  0  0  0  0  0  0
  182.8600  178.2290  139.7450 S   0  0  0  0  0  0  0  0  0  0  0  0
  184.1070  177.7080  138.5340 C   0  0  0  0  0  1  0  0  0  0  0  0
  1  2  1  0  0  0  0
  2 27  1  6  0  0  0
  2  6  1  0  0  0  0
  3 16  1  1  0  0  0
  3  4  1  0  0  0  0
  5  1  1  6  0  0  0
  5  3  1  0  0  0  0
  6  4  1  0  0  0  0
  7  9  1  6  0  0  0
  7  5  1  0  0  0  0
  8  9  1  0  0  0  0
 10  8  1  0  0  0  0
 10 13  1  0  0  0  0
 11 13  1  0  0  0  0
 12  7  1  0  0  0  0
 12 14  1  1  0  0  0
 13 12  1  0  0  0  0
 15 14  1  0  0  0  0
 17 16  1  6  0  0  0
 17 25  1  0  0  0  0
 18 17  1  6  0  0  0
 18 20  1  0  0  0  0
 18 19  1  0  0  0  0
 20 19  1  0  0  0  0
 20 21  1  1  0  0  0
 22 21  1  6  0  0  0
 23 22  1  0  0  0  0
 24 23  1  0  0  0  0
 24 22  1  0  0  0  0
 26 25  1  0  0  0  0
 27 28  1  0  0  0  0
 28 29  1  1  0  0  0
 30 28  1  0  0  0  0
 31 30  1  0  0  0  0
M  END
>  <MODEL>
4

>  <REMARK>
 VINA RESULT:      -5.9      3.147      5.284
  Name = 
  11 active torsions:
  status: ('A' for Active; 'I' for Inactive)
    1  A    between atoms: C_1  and  C_24
    2  A    between atoms: C_2  and  S_13
    3  A    between atoms: C_2  and  C_25
    4  A    between atoms: O_3  and  C_9
    5  A    between atoms: C_5  and  C_21
    6  A    between atoms: C_6  and  C_9
    7  A    between atoms: C_9  and  C_23
    8  A    between atoms: C_12  and  C_25
    9  A    between atoms: C_15  and  C_23
   10  A    between atoms: C_17  and  C_30
   11  A    between atoms: C_19  and  C_24
                            x       y       z     vdW  Elec       q    Type
                         _______ _______ _______ _____ _____    ______ ____

>  <TORSDO>
F 11

$$$$
=
 OpenBabel10262419423D

 31 34  0  0  1  0  0  0  0  0999 V2000
  189.2300  177.9100  143.5390 O   0  0  0  0  0  0  0  0  0  0  0  0
  190.6060  178.0910  143.3070 C   0  0  2  0  0  3  0  0  0  0  0  0
  189.2190  177.1290  141.2340 C   0  0  1  0  0  3  0  0  0  0  0  0
  190.5970  177.4210  141.2250 O   0  0  0  0  0  0  0  0  0  0  0  0
  188.5620  178.0260  142.2990 C   0  0  1  0  0  3  0  0  0  0  0  0
  191.0570  177.0880  142.4250 O   0  0  0  0  0  0  0  0  0  0  0  0
  187.0690  177.7160  142.4620 C   0  0  1  0  0  3  0  0  0  0  0  0
  186.2180  178.3530  144.7440 C   0  0  0  0  0  2  0  0  0  0  0  0
  186.7440  177.2180  143.8800 C   0  0  0  0  0  2  0  0  0  0  0  0
  184.9260  178.9380  144.1490 C   0  0  0  0  0  2  0  0  0  0  0  0
  184.1050  177.7440  142.2700 C   0  0  0  0  0  1  0  0  0  0  0  0
  186.2060  178.9330  142.0570 C   0  0  2  0  0  3  0  0  0  0  0  0
  184.8650  178.9210  142.6770 N   0  0  0  0  0  0  0  0  0  0  0  0
  186.1100  179.0990  140.5440 C   0  0  0  0  0  2  0  0  0  0  0  0
  184.9520  179.8000  140.2060 O   0  0  0  0  0  1  0  0  0  0  0  0
  188.6260  177.4000  139.8550 C   0  0  0  0  0  2  0  0  0  0  0  0
  189.7030  177.6580  138.8020 C   0  0  1  0  0  3  0  0  0  0  0  0
  190.2110  176.3580  138.1930 C   0  0  1  0  0  3  0  0  0  0  0  0
  190.6550  176.5990  136.7650 C   0  0  0  0  0  2  0  0  0  0  0  0
  191.6850  176.4990  137.8710 C   0  0  2  0  0  3  0  0  0  0  0  0
  192.3160  175.1200  137.8490 C   0  0  0  0  0  2  0  0  0  0  0  0
  193.7440  175.2100  137.3490 C   0  0  2  0  0  3  0  0  0  0  0  0
  194.5270  174.0590  137.8450 C   0  0  0  0  0  2  0  0  0  0  0  0
  194.6080  175.3240  138.4540 O   0  0  0  0  0  0  0  0  0  0  0  0
  189.2120  178.5010  137.8000 O   0  0  0  0  0  0  0  0  0  0  0  0
  187.8540  178.1970  137.7070 C   0  0  0  0  0  1  0  0  0  0  0  0
  191.3510  177.9870  144.6250 C   0  0  0  0  0  2  0  0  0  0  0  0
  191.0630  176.6570  145.2980 C   0  0  1  0  0  3  0  0  0  0  0  0
  192.1140  175.7860  145.0820 F   0  0  0  0  0  0  0  0  0  0  0  0
  190.8480  176.9130  147.0840 S   0  0  0  0  0  0  0  0  0  0  0  0
  192.2010  175.7750  147.4900 C   0  0  0  0  0  1  0  0  0  0  0  0
  2  1  1  0  0  0  0
  2 27  1  1  0  0  0
  3 16  1  6  0  0  0
  3  5  1  0  0  0  0
  4  3  1  0  0  0  0
  4  6  1  0  0  0  0
  5  7  1  0  0  0  0
  5  1  1  1  0  0  0
  6  2  1  0  0  0  0
  7  9  1  1  0  0  0
  9  8  1  0  0  0  0
 10  8  1  0  0  0  0
 11 13  1  0  0  0  0
 12 14  1  6  0  0  0
 12  7  1  0  0  0  0
 12 13  1  0  0  0  0
 13 10  1  0  0  0  0
 15 14  1  0  0  0  0
 17 16  1  1  0  0  0
 18 17  1  1  0  0  0
 19 20  1  0  0  0  0
 19 18  1  0  0  0  0
 20 21  1  6  0  0  0
 20 18  1  0  0  0  0
 22 23  1  0  0  0  0
 22 21  1  1  0  0  0
 22 24  1  0  0  0  0
 23 24  1  0  0  0  0
 25 17  1  0  0  0  0
 26 25  1  0  0  0  0
 27 28  1  0  0  0  0
 28 29  1  1  0  0  0
 28 30  1  0  0  0  0
 30 31  1  0  0  0  0
M  END
>  <MODEL>
5

>  <REMARK>
 VINA RESULT:      -5.9      3.164      7.450
  Name = 
  11 active torsions:
  status: ('A' for Active; 'I' for Inactive)
    1  A    between atoms: C_1  and  C_24
    2  A    between atoms: C_2  and  S_13
    3  A    between atoms: C_2  and  C_25
    4  A    between atoms: O_3  and  C_9
    5  A    between atoms: C_5  and  C_21
    6  A    between atoms: C_6  and  C_9
    7  A    between atoms: C_9  and  C_23
    8  A    between atoms: C_12  and  C_25
    9  A    between atoms: C_15  and  C_23
   10  A    between atoms: C_17  and  C_30
   11  A    between atoms: C_19  and  C_24
                            x       y       z     vdW  Elec       q    Type
                         _______ _______ _______ _____ _____    ______ ____

>  <TORSDO>
F 11

$$$$
=
 OpenBabel10262419423D

 31 34  0  0  1  0  0  0  0  0999 V2000
  189.0480  177.5080  140.5170 O   0  0  0  0  0  0  0  0  0  0  0  0
  189.0200  177.1670  141.8830 C   0  0  2  0  0  3  0  0  0  0  0  0
  187.0190  178.7390  141.0600 C   0  0  1  0  0  3  0  0  0  0  0  0
  187.1800  178.2450  142.3700 O   0  0  0  0  0  0  0  0  0  0  0  0
  187.7190  177.7540  140.1040 C   0  0  1  0  0  3  0  0  0  0  0  0
  188.4850  178.2490  142.6130 O   0  0  0  0  0  0  0  0  0  0  0  0
  187.6910  178.2510  138.6540 C   0  0  1  0  0  3  0  0  0  0  0  0
  189.8450  177.7630  137.4490 C   0  0  0  0  0  2  0  0  0  0  0  0
  189.0550  178.8090  138.2180 C   0  0  0  0  0  2  0  0  0  0  0  0
  189.0910  177.3350  136.1780 C   0  0  0  0  0  2  0  0  0  0  0  0
  187.1220  178.5920  135.7590 C   0  0  0  0  0  1  0  0  0  0  0  0
  187.1790  177.1460  137.7030 C   0  0  2  0  0  3  0  0  0  0  0  0
  187.6230  177.3360  136.3060 N   0  0  0  0  0  0  0  0  0  0  0  0
  185.6660  176.9680  137.7790 C   0  0  0  0  0  2  0  0  0  0  0  0
  185.2750  175.8330  137.0680 O   0  0  0  0  0  1  0  0  0  0  0  0
  185.5340  178.8530  140.7310 C   0  0  0  0  0  2  0  0  0  0  0  0
  184.6480  178.3940  141.8880 C   0  0  1  0  0  3  0  0  0  0  0  0
  184.8760  179.2400  143.1340 C   0  0  1  0  0  3  0  0  0  0  0  0
  183.5780  179.3810  143.9030 C   0  0  0  0  0  2  0  0  0  0  0  0
  184.6290  178.3930  144.3660 C   0  0  2  0  0  3  0  0  0  0  0  0
  185.4000  178.9850  145.5300 C   0  0  0  0  0  2  0  0  0  0  0  0
  186.0140  177.8770  146.3630 C   0  0  2  0  0  3  0  0  0  0  0  0
  187.3040  178.3250  146.9280 C   0  0  0  0  0  2  0  0  0  0  0  0
  187.2430  177.5030  145.7890 O   0  0  0  0  0  0  0  0  0  0  0  0
  183.3000  178.4370  141.5160 O   0  0  0  0  0  0  0  0  0  0  0  0
  183.2110  177.6160  140.3920 C   0  0  0  0  0  1  0  0  0  0  0  0
  190.4340  176.8820  142.3530 C   0  0  0  0  0  2  0  0  0  0  0  0
  190.4170  176.0920  143.6500 C   0  0  1  0  0  3  0  0  0  0  0  0
  191.3540  175.0780  143.5910 F   0  0  0  0  0  0  0  0  0  0  0  0
  190.8070  177.1950  145.0400 S   0  0  0  0  0  0  0  0  0  0  0  0
  191.6800  178.3680  143.9670 C   0  0  0  0  0  1  0  0  0  0  0  0
  1  2  1  0  0  0  0
  2 27  1  1  0  0  0
  2  6  1  0  0  0  0
  3 16  1  6  0  0  0
  3  4  1  0  0  0  0
  4  6  1  0  0  0  0
  5  1  1  1  0  0  0
  5  3  1  0  0  0  0
  7  9  1  6  0  0  0
  7  5  1  0  0  0  0
  8  9  1  0  0  0  0
 10 13  1  0  0  0  0
 10  8  1  0  0  0  0
 11 13  1  0  0  0  0
 12 14  1  6  0  0  0
 12  7  1  0  0  0  0
 13 12  1  0  0  0  0
 15 14  1  0  0  0  0
 17 16  1  6  0  0  0
 18 17  1  6  0  0  0
 18 19  1  0  0  0  0
 18 20  1  0  0  0  0
 19 20  1  0  0  0  0
 20 21  1  1  0  0  0
 22 21  1  6  0  0  0
 22 23  1  0  0  0  0
 24 22  1  0  0  0  0
 24 23  1  0  0  0  0
 25 17  1  0  0  0  0
 26 25  1  0  0  0  0
 27 28  1  0  0  0  0
 28 29  1  6  0  0  0
 28 30  1  0  0  0  0
 31 30  1  0  0  0  0
M  END
>  <MODEL>
6

>  <REMARK>
 VINA RESULT:      -5.8      2.998      5.233
  Name = 
  11 active torsions:
  status: ('A' for Active; 'I' for Inactive)
    1  A    between atoms: C_1  and  C_24
    2  A    between atoms: C_2  and  S_13
    3  A    between atoms: C_2  and  C_25
    4  A    between atoms: O_3  and  C_9
    5  A    between atoms: C_5  and  C_21
    6  A    between atoms: C_6  and  C_9
    7  A    between atoms: C_9  and  C_23
    8  A    between atoms: C_12  and  C_25
    9  A    between atoms: C_15  and  C_23
   10  A    between atoms: C_17  and  C_30
   11  A    between atoms: C_19  and  C_24
                            x       y       z     vdW  Elec       q    Type
                         _______ _______ _______ _____ _____    ______ ____

>  <TORSDO>
F 11

$$$$
=
 OpenBabel10262419423D

 31 34  0  0  1  0  0  0  0  0999 V2000
  184.7110  178.6130  138.3720 O   0  0  0  0  0  0  0  0  0  0  0  0
  184.2510  179.5890  139.2760 C   0  0  2  0  0  3  0  0  0  0  0  0
  186.4460  178.2700  140.0450 C   0  0  1  0  0  3  0  0  0  0  0  0
  185.8250  179.3080  140.7680 O   0  0  0  0  0  0  0  0  0  0  0  0
  186.1050  178.4740  138.5570 C   0  0  1  0  0  3  0  0  0  0  0  0
  184.5180  179.1570  140.5920 O   0  0  0  0  0  0  0  0  0  0  0  0
  186.6510  177.3350  137.6870 C   0  0  1  0  0  3  0  0  0  0  0  0
  185.0440  176.6930  135.8590 C   0  0  0  0  0  2  0  0  0  0  0  0
  185.5380  176.3650  137.2580 C   0  0  0  0  0  2  0  0  0  0  0  0
  186.1860  176.5720  134.8350 C   0  0  0  0  0  2  0  0  0  0  0  0
  188.2050  175.7160  135.7420 C   0  0  0  0  0  1  0  0  0  0  0  0
  187.4380  177.8930  136.4790 C   0  0  2  0  0  3  0  0  0  0  0  0
  187.5150  176.9420  135.3520 N   0  0  0  0  0  0  0  0  0  0  0  0
  188.8240  178.3950  136.8710 C   0  0  0  0  0  2  0  0  0  0  0  0
  188.7690  179.7430  137.2260 O   0  0  0  0  0  1  0  0  0  0  0  0
  187.9530  178.3160  140.2680 C   0  0  0  0  0  2  0  0  0  0  0  0
  188.3310  178.0450  141.7240 C   0  0  1  0  0  3  0  0  0  0  0  0
  187.1610  177.4630  142.5050 C   0  0  1  0  0  3  0  0  0  0  0  0
  187.6760  176.5490  143.5980 C   0  0  0  0  0  2  0  0  0  0  0  0
  187.2220  177.9530  143.9380 C   0  0  2  0  0  3  0  0  0  0  0  0
  185.8290  177.9030  144.5330 C   0  0  0  0  0  2  0  0  0  0  0  0
  185.6910  178.9470  145.6240 C   0  0  2  0  0  3  0  0  0  0  0  0
  185.2830  178.3040  146.8910 C   0  0  0  0  0  2  0  0  0  0  0  0
  184.3570  178.9700  146.0680 O   0  0  0  0  0  0  0  0  0  0  0  0
  189.4310  177.1830  141.7890 O   0  0  0  0  0  0  0  0  0  0  0  0
  190.1840  177.4720  140.6510 C   0  0  0  0  0  1  0  0  0  0  0  0
  182.7560  179.7730  139.0920 C   0  0  0  0  0  2  0  0  0  0  0  0
  181.9860  178.7920  139.9580 C   0  0  1  0  0  3  0  0  0  0  0  0
  180.9990  179.4620  140.6580 F   0  0  0  0  0  0  0  0  0  0  0  0
  181.2240  177.5200  138.9080 S   0  0  0  0  0  0  0  0  0  0  0  0
  182.3750  176.2420  139.4860 C   0  0  0  0  0  1  0  0  0  0  0  0
  1  2  1  0  0  0  0
  2 27  1  1  0  0  0
  2  6  1  0  0  0  0
  3 16  1  6  0  0  0
  3  4  1  0  0  0  0
  5  1  1  1  0  0  0
  5  3  1  0  0  0  0
  6  4  1  0  0  0  0
  7  9  1  6  0  0  0
  7  5  1  0  0  0  0
  8  9  1  0  0  0  0
 10 13  1  0  0  0  0
 10  8  1  0  0  0  0
 12 14  1  1  0  0  0
 12  7  1  0  0  0  0
 13 11  1  0  0  0  0
 13 12  1  0  0  0  0
 14 15  1  0  0  0  0
 17 16  1  6  0  0  0
 17 25  1  0  0  0  0
 18 17  1  6  0  0  0
 18 19  1  0  0  0  0
 18 20  1  0  0  0  0
 19 20  1  0  0  0  0
 20 21  1  1  0  0  0
 22 21  1  6  0  0  0
 22 24  1  0  0  0  0
 22 23  1  0  0  0  0
 24 23  1  0  0  0  0
 26 25  1  0  0  0  0
 27 28  1  0  0  0  0
 28 29  1  6  0  0  0
 30 31  1  0  0  0  0
 30 28  1  0  0  0  0
M  END
>  <MODEL>
7

>  <REMARK>
 VINA RESULT:      -5.8      4.302      6.729
  Name = 
  11 active torsions:
  status: ('A' for Active; 'I' for Inactive)
    1  A    between atoms: C_1  and  C_24
    2  A    between atoms: C_2  and  S_13
    3  A    between atoms: C_2  and  C_25
    4  A    between atoms: O_3  and  C_9
    5  A    between atoms: C_5  and  C_21
    6  A    between atoms: C_6  and  C_9
    7  A    between atoms: C_9  and  C_23
    8  A    between atoms: C_12  and  C_25
    9  A    between atoms: C_15  and  C_23
   10  A    between atoms: C_17  and  C_30
   11  A    between atoms: C_19  and  C_24
                            x       y       z     vdW  Elec       q    Type
                         _______ _______ _______ _____ _____    ______ ____

>  <TORSDO>
F 11

$$$$
=
 OpenBabel10262419423D

 31 34  0  0  1  0  0  0  0  0999 V2000
  189.3480  177.7960  140.8240 O   0  0  0  0  0  0  0  0  0  0  0  0
  188.8210  178.3850  139.6600 C   0  0  2  0  0  3  0  0  0  0  0  0
  187.1730  178.3520  141.7660 C   0  0  1  0  0  3  0  0  0  0  0  0
  186.8760  178.9160  140.5090 O   0  0  0  0  0  0  0  0  0  0  0  0
  188.7040  178.3820  141.9370 C   0  0  1  0  0  3  0  0  0  0  0  0
  187.4350  178.1240  139.6020 O   0  0  0  0  0  0  0  0  0  0  0  0
  189.1440  177.6960  143.2360 C   0  0  1  0  0  3  0  0  0  0  0  0
  190.0850  175.3990  142.8160 C   0  0  0  0  0  2  0  0  0  0  0  0
  188.8470  176.1890  143.2110 C   0  0  0  0  0  2  0  0  0  0  0  0
  191.2240  175.6310  143.8240 C   0  0  0  0  0  2  0  0  0  0  0  0
  190.5900  176.9210  145.7120 C   0  0  0  0  0  1  0  0  0  0  0  0
  190.6300  177.9940  143.5390 C   0  0  2  0  0  3  0  0  0  0  0  0
  191.2550  176.9810  144.4140 N   0  0  0  0  0  0  0  0  0  0  0  0
  190.8400  179.4010  144.0920 C   0  0  0  0  0  2  0  0  0  0  0  0
  192.1950  179.6320  144.3280 O   0  0  0  0  0  1  0  0  0  0  0  0
  186.4880  179.1550  142.8660 C   0  0  0  0  0  2  0  0  0  0  0  0
  185.0020  179.3740  142.5830 C   0  0  1  0  0  3  0  0  0  0  0  0
  184.3860  178.1730  141.8780 C   0  0  1  0  0  3  0  0  0  0  0  0
  182.8750  178.2920  141.8870 C   0  0  0  0  0  2  0  0  0  0  0  0
  183.6550  178.6420  140.6360 C   0  0  2  0  0  3  0  0  0  0  0  0
  183.5730  177.4920  139.6520 C   0  0  0  0  0  2  0  0  0  0  0  0
  183.8820  177.9830  138.2510 C   0  0  2  0  0  3  0  0  0  0  0  0
  183.1410  177.1780  137.2580 C   0  0  0  0  0  2  0  0  0  0  0  0
  184.5020  176.9450  137.5300 O   0  0  0  0  0  0  0  0  0  0  0  0
  184.3140  179.6420  143.7710 O   0  0  0  0  0  0  0  0  0  0  0  0
  184.9380  178.8490  144.7350 C   0  0  0  0  0  1  0  0  0  0  0  0
  189.5040  177.7860  138.4450 C   0  0  0  0  0  2  0  0  0  0  0  0
  188.7540  178.1470  137.1760 C   0  0  1  0  0  3  0  0  0  0  0  0
  188.8920  179.4990  136.9210 F   0  0  0  0  0  0  0  0  0  0  0  0
  189.4250  177.1980  135.7800 S   0  0  0  0  0  0  0  0  0  0  0  0
  190.4740  176.1930  136.8670 C   0  0  0  0  0  1  0  0  0  0  0  0
  2 27  1  6  0  0  0
  2  1  1  0  0  0  0
  3  5  1  0  0  0  0
  3 16  1  1  0  0  0
  4  3  1  0  0  0  0
  5  1  1  6  0  0  0
  5  7  1  0  0  0  0
  6  2  1  0  0  0  0
  6  4  1  0  0  0  0
  7  9  1  6  0  0  0
  7 12  1  0  0  0  0
  8  9  1  0  0  0  0
  8 10  1  0  0  0  0
 10 13  1  0  0  0  0
 12 14  1  1  0  0  0
 12 13  1  0  0  0  0
 13 11  1  0  0  0  0
 14 15  1  0  0  0  0
 17 16  1  1  0  0  0
 17 25  1  0  0  0  0
 18 19  1  0  0  0  0
 18 17  1  1  0  0  0
 20 21  1  6  0  0  0
 20 18  1  0  0  0  0
 20 19  1  0  0  0  0
 22 21  1  1  0  0  0
 23 24  1  0  0  0  0
 23 22  1  0  0  0  0
 24 22  1  0  0  0  0
 25 26  1  0  0  0  0
 28 29  1  6  0  0  0
 28 27  1  0  0  0  0
 30 31  1  0  0  0  0
 30 28  1  0  0  0  0
M  END
>  <MODEL>
8

>  <REMARK>
 VINA RESULT:      -5.7      2.108      4.432
  Name = 
  11 active torsions:
  status: ('A' for Active; 'I' for Inactive)
    1  A    between atoms: C_1  and  C_24
    2  A    between atoms: C_2  and  S_13
    3  A    between atoms: C_2  and  C_25
    4  A    between atoms: O_3  and  C_9
    5  A    between atoms: C_5  and  C_21
    6  A    between atoms: C_6  and  C_9
    7  A    between atoms: C_9  and  C_23
    8  A    between atoms: C_12  and  C_25
    9  A    between atoms: C_15  and  C_23
   10  A    between atoms: C_17  and  C_30
   11  A    between atoms: C_19  and  C_24
                            x       y       z     vdW  Elec       q    Type
                         _______ _______ _______ _____ _____    ______ ____

>  <TORSDO>
F 11

$$$$
=
 OpenBabel10262419423D

 31 34  0  0  1  0  0  0  0  0999 V2000
  189.0040  177.3790  137.2090 O   0  0  0  0  0  0  0  0  0  0  0  0
  188.3300  178.5630  137.5590 C   0  0  2  0  0  3  0  0  0  0  0  0
  189.5140  177.2850  139.5880 C   0  0  1  0  0  3  0  0  0  0  0  0
  188.8120  178.5020  139.6920 O   0  0  0  0  0  0  0  0  0  0  0  0
  190.0440  177.1780  138.1450 C   0  0  1  0  0  3  0  0  0  0  0  0
  187.7870  178.4150  138.8530 O   0  0  0  0  0  0  0  0  0  0  0  0
  190.7420  175.8360  137.8930 C   0  0  1  0  0  3  0  0  0  0  0  0
  189.8380  174.6730  135.8520 C   0  0  0  0  0  2  0  0  0  0  0  0
  189.7610  174.7760  137.3670 C   0  0  0  0  0  2  0  0  0  0  0  0
  191.2510  174.2610  135.4050 C   0  0  0  0  0  2  0  0  0  0  0  0
  192.7100  173.7230  137.1980 C   0  0  0  0  0  1  0  0  0  0  0  0
  191.9630  176.0170  136.9630 C   0  0  2  0  0  3  0  0  0  0  0  0
  192.3390  174.7750  136.2570 N   0  0  0  0  0  0  0  0  0  0  0  0
  193.1620  176.6200  137.6880 C   0  0  0  0  0  2  0  0  0  0  0  0
  194.2560  176.7050  136.8280 O   0  0  0  0  0  1  0  0  0  0  0  0
  190.6620  177.2640  140.5910 C   0  0  0  0  0  2  0  0  0  0  0  0
  190.1800  177.4690  142.0270 C   0  0  1  0  0  3  0  0  0  0  0  0
  188.8050  176.8530  142.2460 C   0  0  1  0  0  3  0  0  0  0  0  0
  188.6040  176.5560  143.7180 C   0  0  0  0  0  2  0  0  0  0  0  0
  187.9700  177.7850  143.1000 C   0  0  2  0  0  3  0  0  0  0  0  0
  186.5020  177.5130  142.8310 C   0  0  0  0  0  2  0  0  0  0  0  0
  185.8420  178.7500  142.2540 C   0  0  2  0  0  3  0  0  0  0  0  0
  184.6050  179.0580  143.0020 C   0  0  0  0  0  2  0  0  0  0  0  0
  184.5730  178.4010  141.7590 O   0  0  0  0  0  0  0  0  0  0  0  0
  191.1010  176.9290  142.9310 O   0  0  0  0  0  0  0  0  0  0  0  0
  191.6800  178.0320  143.5580 C   0  0  0  0  0  1  0  0  0  0  0  0
  187.2150  178.8150  136.5620 C   0  0  0  0  0  2  0  0  0  0  0  0
  186.3580  177.5730  136.3930 C   0  0  1  0  0  3  0  0  0  0  0  0
  185.1410  177.7560  137.0230 F   0  0  0  0  0  0  0  0  0  0  0  0
  186.0830  177.2590  134.6250 S   0  0  0  0  0  0  0  0  0  0  0  0
  186.0140  175.4640  134.8740 C   0  0  0  0  0  1  0  0  0  0  0  0
  1  2  1  0  0  0  0
  2 27  1  6  0  0  0
  2  6  1  0  0  0  0
  3  4  1  0  0  0  0
  3 16  1  1  0  0  0
  5  1  1  6  0  0  0
  5  3  1  0  0  0  0
  6  4  1  0  0  0  0
  7  9  1  6  0  0  0
  7  5  1  0  0  0  0
  8  9  1  0  0  0  0
 10  8  1  0  0  0  0
 10 13  1  0  0  0  0
 12 14  1  1  0  0  0
 12  7  1  0  0  0  0
 13 12  1  0  0  0  0
 13 11  1  0  0  0  0
 15 14  1  0  0  0  0
 17 16  1  6  0  0  0
 17 25  1  0  0  0  0
 18 17  1  1  0  0  0
 18 20  1  0  0  0  0
 18 19  1  0  0  0  0
 20 21  1  6  0  0  0
 20 19  1  0  0  0  0
 22 21  1  1  0  0  0
 22 23  1  0  0  0  0
 24 22  1  0  0  0  0
 24 23  1  0  0  0  0
 25 26  1  0  0  0  0
 28 27  1  0  0  0  0
 28 29  1  1  0  0  0
 30 31  1  0  0  0  0
 30 28  1  0  0  0  0
M  END
>  <MODEL>
9

>  <REMARK>
 VINA RESULT:      -5.4      3.303      5.970
  Name = 
  11 active torsions:
  status: ('A' for Active; 'I' for Inactive)
    1  A    between atoms: C_1  and  C_24
    2  A    between atoms: C_2  and  S_13
    3  A    between atoms: C_2  and  C_25
    4  A    between atoms: O_3  and  C_9
    5  A    between atoms: C_5  and  C_21
    6  A    between atoms: C_6  and  C_9
    7  A    between atoms: C_9  and  C_23
    8  A    between atoms: C_12  and  C_25
    9  A    between atoms: C_15  and  C_23
   10  A    between atoms: C_17  and  C_30
   11  A    between atoms: C_19  and  C_24
                            x       y       z     vdW  Elec       q    Type
                         _______ _______ _______ _____ _____    ______ ____

>  <TORSDO>
F 11

$$$$
