=
 OpenBabel10262420483D

 28 30  0  0  1  0  0  0  0  0999 V2000
  188.1680  177.9210  139.7140 C   0  0  1  0  0  3  0  0  0  0  0  0
  184.9110  179.4220  140.2620 N   0  0  0  0  0  0  0  0  0  0  0  0
  186.7690  178.4550  139.6730 C   0  0  0  0  0  0  0  0  0  0  0  0
  184.7340  179.0330  138.8700 C   0  0  0  0  0  3  0  0  0  0  0  0
  186.1890  179.0300  140.6680 N   0  0  0  0  0  0  0  0  0  0  0  0
  185.9710  178.4170  138.5420 O   0  0  0  0  0  0  0  0  0  0  0  0
  189.0040  179.6510  138.2850 O   0  0  0  0  0  0  0  0  0  0  0  0
  189.8310  177.5300  137.8300 N   0  0  0  0  0  2  0  0  0  0  0  0
  188.9960  178.4230  138.5700 C   0  0  0  0  0  0  0  0  0  0  0  0
  189.9120  176.1040  138.1190 C   0  0  2  0  0  3  0  0  0  0  0  0
  191.0180  173.6370  137.1980 N   0  0  0  0  0  0  0  0  0  0  0  0
  191.3770  175.7250  138.4140 C   0  0  0  0  0  2  0  0  0  0  0  0
  187.7560  175.2920  137.1070 C   0  0  0  0  0  1  0  0  0  0  0  0
  189.2670  175.2910  136.9820 C   0  0  2  0  0  3  0  0  0  0  0  0
  189.7690  173.8750  136.9930 C   0  0  0  0  0  3  0  0  0  0  0  0
  191.9510  174.7220  137.4090 C   0  0  0  0  0  2  0  0  0  0  0  0
  188.8560  178.2030  141.0440 C   0  0  0  0  0  2  0  0  0  0  0  0
  188.9690  176.9360  141.8840 C   0  0  0  0  0  2  0  0  0  0  0  0
  187.1640  177.1120  143.5830 C   0  0  0  0  0  3  0  0  0  0  0  0
  189.4430  177.5390  144.3230 C   0  0  0  0  0  0  0  0  0  0  0  0
  187.5820  177.7630  145.8700 C   0  0  0  0  0  0  0  0  0  0  0  0
  188.5340  177.1860  143.2960 C   0  0  0  0  0  0  0  0  0  0  0  0
  188.9500  177.8310  145.6000 C   0  0  0  0  0  3  0  0  0  0  0  0
  186.9890  178.1390  147.4730 Cl  0  0  0  0  0  0  0  0  0  0  0  0
  186.6890  177.3960  144.8640 C   0  0  0  0  0  3  0  0  0  0  0  0
  190.8300  177.6130  144.1390 O   0  0  0  0  0  0  0  0  0  0  0  0
  191.7440  175.6600  143.9880 C   0  0  0  0  0  1  0  0  0  0  0  0
  191.6930  176.8090  144.7740 O   0  0  0  0  0  0  0  0  0  0  0  0
  1 17  1  1  0  0  0
  2  5  1  0  0  0  0
  3  1  1  0  0  0  0
  3  5  2  0  0  0  0
  4  2  2  0  0  0  0
  6  4  1  0  0  0  0
  6  3  1  0  0  0  0
  7  9  2  0  0  0  0
  8  9  1  0  0  0  0
  9  1  1  0  0  0  0
 10  8  1  6  0  0  0
 10 12  1  0  0  0  0
 11 16  1  0  0  0  0
 14 15  1  0  0  0  0
 14 13  1  1  0  0  0
 14 10  1  0  0  0  0
 15 11  2  0  0  0  0
 16 12  1  0  0  0  0
 17 18  1  0  0  0  0
 18 22  1  0  0  0  0
 19 25  1  0  0  0  0
 20 23  2  0  0  0  0
 21 24  1  0  0  0  0
 22 19  2  0  0  0  0
 22 20  1  0  0  0  0
 23 21  1  0  0  0  0
 25 21  2  0  0  0  0
 26 20  1  0  0  0  0
 26 28  1  0  0  0  0
 27 28  1  0  0  0  0
M  END
>  <MODEL>
1

>  <REMARK>
 VINA RESULT:      -7.7      0.000      0.000
  Name = 
  8 active torsions:
  status: ('A' for Active; 'I' for Inactive)
    1  A    between atoms: N_2  and  C_3
    2  A    between atoms: C_9  and  O_14
    3  A    between atoms: C_10  and  C_13
    4  A    between atoms: C_10  and  C_17
    5  A    between atoms: O_14  and  O_25
    6  A    between atoms: C_16  and  C_27
    7  A    between atoms: C_17  and  C_27
    8  A    between atoms: C_26  and  C_27
                            x       y       z     vdW  Elec       q    Type
                         _______ _______ _______ _____ _____    ______ ____

>  <TORSDO>
F 8

$$$$
=
 OpenBabel10262420483D

 28 30  0  0  1  0  0  0  0  0999 V2000
  188.1070  177.9040  139.8560 C   0  0  1  0  0  3  0  0  0  0  0  0
  184.8610  179.4790  140.2350 N   0  0  0  0  0  0  0  0  0  0  0  0
  186.7180  178.4540  139.7500 C   0  0  0  0  0  0  0  0  0  0  0  0
  184.7110  179.0120  138.8640 C   0  0  0  0  0  3  0  0  0  0  0  0
  186.1230  179.0950  140.6950 N   0  0  0  0  0  0  0  0  0  0  0  0
  185.9470  178.3610  138.6030 O   0  0  0  0  0  0  0  0  0  0  0  0
  189.0700  179.6830  138.5740 O   0  0  0  0  0  0  0  0  0  0  0  0
  189.8540  177.5650  138.0390 N   0  0  0  0  0  2  0  0  0  0  0  0
  189.0100  178.4420  138.7870 C   0  0  0  0  0  0  0  0  0  0  0  0
  189.8760  176.1230  138.2480 C   0  0  2  0  0  3  0  0  0  0  0  0
  190.8950  173.6690  137.2000 N   0  0  0  0  0  0  0  0  0  0  0  0
  191.3210  175.6690  138.5350 C   0  0  0  0  0  2  0  0  0  0  0  0
  187.7020  175.4550  137.1720 C   0  0  0  0  0  1  0  0  0  0  0  0
  189.2120  175.4000  137.0610 C   0  0  2  0  0  3  0  0  0  0  0  0
  189.6590  173.9670  136.9970 C   0  0  0  0  0  3  0  0  0  0  0  0
  191.8670  174.7020  137.4800 C   0  0  0  0  0  2  0  0  0  0  0  0
  188.7130  178.1260  141.2360 C   0  0  0  0  0  2  0  0  0  0  0  0
  188.5870  176.8760  142.1000 C   0  0  0  0  0  2  0  0  0  0  0  0
  190.0050  177.1400  144.1230 C   0  0  0  0  0  3  0  0  0  0  0  0
  187.6160  177.5370  144.3710 C   0  0  0  0  0  0  0  0  0  0  0  0
  189.0960  177.6810  146.2940 C   0  0  0  0  0  0  0  0  0  0  0  0
  188.7260  177.2100  143.5540 C   0  0  0  0  0  0  0  0  0  0  0  0
  187.8190  177.7620  145.7380 C   0  0  0  0  0  3  0  0  0  0  0  0
  189.3230  177.9590  148.0070 Cl  0  0  0  0  0  0  0  0  0  0  0  0
  190.1910  177.3780  145.4860 C   0  0  0  0  0  3  0  0  0  0  0  0
  186.3070  177.6560  143.8880 O   0  0  0  0  0  0  0  0  0  0  0  0
  184.3010  178.3950  143.5650 C   0  0  0  0  0  1  0  0  0  0  0  0
  185.4350  178.5590  144.3590 O   0  0  0  0  0  0  0  0  0  0  0  0
  1 17  1  1  0  0  0
  2  5  1  0  0  0  0
  3  1  1  0  0  0  0
  3  5  2  0  0  0  0
  4  2  2  0  0  0  0
  6  4  1  0  0  0  0
  6  3  1  0  0  0  0
  7  9  2  0  0  0  0
  8  9  1  0  0  0  0
  9  1  1  0  0  0  0
 10  8  1  6  0  0  0
 10 12  1  0  0  0  0
 11 16  1  0  0  0  0
 14 13  1  1  0  0  0
 14 10  1  0  0  0  0
 15 14  1  0  0  0  0
 15 11  2  0  0  0  0
 16 12  1  0  0  0  0
 17 18  1  0  0  0  0
 18 22  1  0  0  0  0
 19 25  1  0  0  0  0
 20 23  2  0  0  0  0
 21 24  1  0  0  0  0
 22 19  2  0  0  0  0
 22 20  1  0  0  0  0
 23 21  1  0  0  0  0
 25 21  2  0  0  0  0
 26 28  1  0  0  0  0
 26 20  1  0  0  0  0
 27 28  1  0  0  0  0
M  END
>  <MODEL>
2

>  <REMARK>
 VINA RESULT:      -7.3      1.574      2.395
  Name = 
  8 active torsions:
  status: ('A' for Active; 'I' for Inactive)
    1  A    between atoms: N_2  and  C_3
    2  A    between atoms: C_9  and  O_14
    3  A    between atoms: C_10  and  C_13
    4  A    between atoms: C_10  and  C_17
    5  A    between atoms: O_14  and  O_25
    6  A    between atoms: C_16  and  C_27
    7  A    between atoms: C_17  and  C_27
    8  A    between atoms: C_26  and  C_27
                            x       y       z     vdW  Elec       q    Type
                         _______ _______ _______ _____ _____    ______ ____

>  <TORSDO>
F 8

$$$$
=
 OpenBabel10262420483D

 28 30  0  0  1  0  0  0  0  0999 V2000
  188.5920  177.9900  142.4170 C   0  0  1  0  0  3  0  0  0  0  0  0
  189.6060  177.4190  138.9810 N   0  0  0  0  0  0  0  0  0  0  0  0
  188.7760  177.9030  140.9330 C   0  0  0  0  0  0  0  0  0  0  0  0
  188.3510  178.1090  138.7190 C   0  0  0  0  0  3  0  0  0  0  0  0
  189.7820  177.3350  140.3640 N   0  0  0  0  0  0  0  0  0  0  0  0
  187.8560  178.3920  140.0200 O   0  0  0  0  0  0  0  0  0  0  0  0
  188.3980  175.6400  142.8360 O   0  0  0  0  0  0  0  0  0  0  0  0
  186.6730  176.9270  143.7040 N   0  0  0  0  0  2  0  0  0  0  0  0
  187.8900  176.7860  142.9690 C   0  0  0  0  0  0  0  0  0  0  0  0
  186.0390  178.2180  143.9380 C   0  0  2  0  0  3  0  0  0  0  0  0
  183.7940  179.4800  145.1740 N   0  0  0  0  0  0  0  0  0  0  0  0
  186.0190  178.5110  145.4520 C   0  0  0  0  0  2  0  0  0  0  0  0
  184.7790  178.5270  141.7820 C   0  0  0  0  0  1  0  0  0  0  0  0
  184.6530  178.2630  143.2690 C   0  0  2  0  0  3  0  0  0  0  0  0
  183.7960  179.3260  143.8960 C   0  0  0  0  0  3  0  0  0  0  0  0
  184.6020  178.6300  146.0210 C   0  0  0  0  0  2  0  0  0  0  0  0
  189.9070  178.2320  143.1490 C   0  0  0  0  0  2  0  0  0  0  0  0
  189.6610  178.6770  144.5860 C   0  0  0  0  0  2  0  0  0  0  0  0
  191.4020  176.9680  145.0560 C   0  0  0  0  0  3  0  0  0  0  0  0
  190.0460  177.7280  146.9290 C   0  0  0  0  0  0  0  0  0  0  0  0
  191.7240  175.9980  147.2440 C   0  0  0  0  0  0  0  0  0  0  0  0
  190.3850  177.7930  145.5550 C   0  0  0  0  0  0  0  0  0  0  0  0
  190.7190  176.8210  147.7560 C   0  0  0  0  0  3  0  0  0  0  0  0
  192.5460  174.8670  148.2960 Cl  0  0  0  0  0  0  0  0  0  0  0  0
  192.0710  176.0760  145.8960 C   0  0  0  0  0  3  0  0  0  0  0  0
  189.0640  178.5310  147.5230 O   0  0  0  0  0  0  0  0  0  0  0  0
  187.3070  178.0640  148.6920 C   0  0  0  0  0  1  0  0  0  0  0  0
  188.6620  178.3730  148.7920 O   0  0  0  0  0  0  0  0  0  0  0  0
  1  9  1  0  0  0  0
  1 17  1  1  0  0  0
  2  5  1  0  0  0  0
  3  1  1  0  0  0  0
  4  2  2  0  0  0  0
  4  6  1  0  0  0  0
  5  3  2  0  0  0  0
  6  3  1  0  0  0  0
  7  9  2  0  0  0  0
  9  8  1  0  0  0  0
 10  8  1  1  0  0  0
 10 12  1  0  0  0  0
 11 16  1  0  0  0  0
 12 16  1  0  0  0  0
 14 13  1  6  0  0  0
 14 15  1  0  0  0  0
 14 10  1  0  0  0  0
 15 11  2  0  0  0  0
 17 18  1  0  0  0  0
 18 22  1  0  0  0  0
 19 22  2  0  0  0  0
 19 25  1  0  0  0  0
 20 26  1  0  0  0  0
 20 23  2  0  0  0  0
 21 23  1  0  0  0  0
 21 24  1  0  0  0  0
 22 20  1  0  0  0  0
 25 21  2  0  0  0  0
 26 28  1  0  0  0  0
 27 28  1  0  0  0  0
M  END
>  <MODEL>
3

>  <REMARK>
 VINA RESULT:      -7.0      3.045      6.230
  Name = 
  8 active torsions:
  status: ('A' for Active; 'I' for Inactive)
    1  A    between atoms: N_2  and  C_3
    2  A    between atoms: C_9  and  O_14
    3  A    between atoms: C_10  and  C_13
    4  A    between atoms: C_10  and  C_17
    5  A    between atoms: O_14  and  O_25
    6  A    between atoms: C_16  and  C_27
    7  A    between atoms: C_17  and  C_27
    8  A    between atoms: C_26  and  C_27
                            x       y       z     vdW  Elec       q    Type
                         _______ _______ _______ _____ _____    ______ ____

>  <TORSDO>
F 8

$$$$
=
 OpenBabel10262420483D

 28 30  0  0  1  0  0  0  0  0999 V2000
  188.9330  177.1400  142.6390 C   0  0  1  0  0  3  0  0  0  0  0  0
  190.5720  176.4080  139.4870 N   0  0  0  0  0  0  0  0  0  0  0  0
  189.3980  176.9900  141.2230 C   0  0  0  0  0  0  0  0  0  0  0  0
  189.4170  177.1230  138.9640 C   0  0  0  0  0  3  0  0  0  0  0  0
  190.4740  176.3730  140.8800 N   0  0  0  0  0  0  0  0  0  0  0  0
  188.6900  177.4710  140.1340 O   0  0  0  0  0  0  0  0  0  0  0  0
  189.3360  179.5000  142.7020 O   0  0  0  0  0  0  0  0  0  0  0  0
  190.0750  178.3380  144.5710 N   0  0  0  0  0  2  0  0  0  0  0  0
  189.4670  178.3870  143.2780 C   0  0  0  0  0  0  0  0  0  0  0  0
  190.2300  177.1000  145.3230 C   0  0  2  0  0  3  0  0  0  0  0  0
  191.5130  175.9460  147.6000 N   0  0  0  0  0  0  0  0  0  0  0  0
  189.6610  177.2890  146.7430 C   0  0  0  0  0  2  0  0  0  0  0  0
  192.0170  175.9480  143.9760 C   0  0  0  0  0  1  0  0  0  0  0  0
  191.6980  176.6350  145.2890 C   0  0  2  0  0  3  0  0  0  0  0  0
  191.9820  175.6960  146.4270 C   0  0  0  0  0  3  0  0  0  0  0  0
  190.7180  177.1310  147.8400 C   0  0  0  0  0  2  0  0  0  0  0  0
  187.4150  177.0790  142.7600 C   0  0  0  0  0  2  0  0  0  0  0  0
  186.9280  177.8740  143.9660 C   0  0  0  0  0  2  0  0  0  0  0  0
  184.9260  178.2740  142.5510 C   0  0  0  0  0  3  0  0  0  0  0  0
  184.6580  178.5080  144.9590 C   0  0  0  0  0  0  0  0  0  0  0  0
  182.7960  178.9550  143.4630 C   0  0  0  0  0  0  0  0  0  0  0  0
  185.4740  178.2080  143.8390 C   0  0  0  0  0  0  0  0  0  0  0  0
  183.3270  178.8860  144.7520 C   0  0  0  0  0  3  0  0  0  0  0  0
  181.1300  179.4380  143.2290 Cl  0  0  0  0  0  0  0  0  0  0  0  0
  183.5930  178.6420  142.3630 C   0  0  0  0  0  3  0  0  0  0  0  0
  185.1090  178.4440  146.2840 O   0  0  0  0  0  0  0  0  0  0  0  0
  186.5680  178.8800  147.8180 C   0  0  0  0  0  1  0  0  0  0  0  0
  185.7010  179.4740  146.9030 O   0  0  0  0  0  0  0  0  0  0  0  0
  1 17  1  6  0  0  0
  1  9  1  0  0  0  0
  2  5  1  0  0  0  0
  3  1  1  0  0  0  0
  4  2  2  0  0  0  0
  4  6  1  0  0  0  0
  5  3  2  0  0  0  0
  6  3  1  0  0  0  0
  7  9  2  0  0  0  0
  9  8  1  0  0  0  0
 10  8  1  6  0  0  0
 10 12  1  0  0  0  0
 11 16  1  0  0  0  0
 12 16  1  0  0  0  0
 14 13  1  6  0  0  0
 14 10  1  0  0  0  0
 14 15  1  0  0  0  0
 15 11  2  0  0  0  0
 17 18  1  0  0  0  0
 19 22  1  0  0  0  0
 20 26  1  0  0  0  0
 21 23  2  0  0  0  0
 22 18  1  0  0  0  0
 22 20  2  0  0  0  0
 23 20  1  0  0  0  0
 24 21  1  0  0  0  0
 25 19  2  0  0  0  0
 25 21  1  0  0  0  0
 26 28  1  0  0  0  0
 28 27  1  0  0  0  0
M  END
>  <MODEL>
4

>  <REMARK>
 VINA RESULT:      -6.9      3.658      6.383
  Name = 
  8 active torsions:
  status: ('A' for Active; 'I' for Inactive)
    1  A    between atoms: N_2  and  C_3
    2  A    between atoms: C_9  and  O_14
    3  A    between atoms: C_10  and  C_13
    4  A    between atoms: C_10  and  C_17
    5  A    between atoms: O_14  and  O_25
    6  A    between atoms: C_16  and  C_27
    7  A    between atoms: C_17  and  C_27
    8  A    between atoms: C_26  and  C_27
                            x       y       z     vdW  Elec       q    Type
                         _______ _______ _______ _____ _____    ______ ____

>  <TORSDO>
F 8

$$$$
=
 OpenBabel10262420483D

 28 30  0  0  1  0  0  0  0  0999 V2000
  184.1470  177.8380  140.3480 C   0  0  1  0  0  3  0  0  0  0  0  0
  181.2780  175.8810  139.2980 N   0  0  0  0  0  0  0  0  0  0  0  0
  182.8110  177.2310  140.0480 C   0  0  0  0  0  0  0  0  0  0  0  0
  180.5730  176.8950  140.0680 C   0  0  0  0  0  3  0  0  0  0  0  0
  182.6450  176.1660  139.3450 N   0  0  0  0  0  0  0  0  0  0  0  0
  181.6170  177.7390  140.5330 O   0  0  0  0  0  0  0  0  0  0  0  0
  183.7420  180.0330  139.4800 O   0  0  0  0  0  0  0  0  0  0  0  0
  185.5950  178.9600  138.5830 N   0  0  0  0  0  2  0  0  0  0  0  0
  184.4560  178.9950  139.4460 C   0  0  0  0  0  0  0  0  0  0  0  0
  186.4940  177.8160  138.5110 C   0  0  2  0  0  3  0  0  0  0  0  0
  188.9290  176.8830  137.3420 N   0  0  0  0  0  0  0  0  0  0  0  0
  187.8650  178.2040  139.1000 C   0  0  0  0  0  2  0  0  0  0  0  0
  185.3460  176.4200  136.7590 C   0  0  0  0  0  1  0  0  0  0  0  0
  186.5580  177.2760  137.0700 C   0  0  2  0  0  3  0  0  0  0  0  0
  187.8080  176.4700  136.8610 C   0  0  0  0  0  3  0  0  0  0  0  0
  189.0020  178.1270  138.0770 C   0  0  0  0  0  2  0  0  0  0  0  0
  184.2830  178.2430  141.8110 C   0  0  0  0  0  2  0  0  0  0  0  0
  185.6980  178.7200  142.1200 C   0  0  0  0  0  2  0  0  0  0  0  0
  185.2950  178.9650  144.5590 C   0  0  0  0  0  3  0  0  0  0  0  0
  187.2070  177.6260  143.8690 C   0  0  0  0  0  0  0  0  0  0  0  0
  186.7570  178.0100  146.2270 C   0  0  0  0  0  0  0  0  0  0  0  0
  186.0740  178.4090  143.5360 C   0  0  0  0  0  0  0  0  0  0  0  0
  187.5370  177.4430  145.2170 C   0  0  0  0  0  3  0  0  0  0  0  0
  187.1940  177.7730  147.9040 Cl  0  0  0  0  0  0  0  0  0  0  0  0
  185.6320  178.7640  145.8990 C   0  0  0  0  0  3  0  0  0  0  0  0
  188.0300  177.0090  142.9180 O   0  0  0  0  0  0  0  0  0  0  0  0
  189.8600  175.8740  142.7360 C   0  0  0  0  0  1  0  0  0  0  0  0
  188.5110  175.7670  143.0650 O   0  0  0  0  0  0  0  0  0  0  0  0
  1 17  1  1  0  0  0
  2  5  1  0  0  0  0
  2  4  2  0  0  0  0
  3  1  1  0  0  0  0
  3  6  1  0  0  0  0
  4  6  1  0  0  0  0
  5  3  2  0  0  0  0
  8  9  1  0  0  0  0
  9  7  2  0  0  0  0
  9  1  1  0  0  0  0
 10  8  1  6  0  0  0
 10 12  1  0  0  0  0
 11 16  1  0  0  0  0
 14 13  1  1  0  0  0
 14 10  1  0  0  0  0
 15 14  1  0  0  0  0
 15 11  2  0  0  0  0
 16 12  1  0  0  0  0
 17 18  1  0  0  0  0
 18 22  1  0  0  0  0
 19 25  1  0  0  0  0
 20 23  2  0  0  0  0
 21 24  1  0  0  0  0
 22 20  1  0  0  0  0
 22 19  2  0  0  0  0
 23 21  1  0  0  0  0
 25 21  2  0  0  0  0
 26 28  1  0  0  0  0
 26 20  1  0  0  0  0
 27 28  1  0  0  0  0
M  END
>  <MODEL>
5

>  <REMARK>
 VINA RESULT:      -6.8      2.570      3.744
  Name = 
  8 active torsions:
  status: ('A' for Active; 'I' for Inactive)
    1  A    between atoms: N_2  and  C_3
    2  A    between atoms: C_9  and  O_14
    3  A    between atoms: C_10  and  C_13
    4  A    between atoms: C_10  and  C_17
    5  A    between atoms: O_14  and  O_25
    6  A    between atoms: C_16  and  C_27
    7  A    between atoms: C_17  and  C_27
    8  A    between atoms: C_26  and  C_27
                            x       y       z     vdW  Elec       q    Type
                         _______ _______ _______ _____ _____    ______ ____

>  <TORSDO>
F 8

$$$$
=
 OpenBabel10262420483D

 28 30  0  0  1  0  0  0  0  0999 V2000
  184.5230  178.4890  140.5380 C   0  0  1  0  0  3  0  0  0  0  0  0
  180.9560  177.9540  140.9280 N   0  0  0  0  0  0  0  0  0  0  0  0
  183.0810  178.4180  140.9390 C   0  0  0  0  0  0  0  0  0  0  0  0
  181.2040  178.6520  142.1810 C   0  0  0  0  0  3  0  0  0  0  0  0
  182.1650  177.8530  140.2340 N   0  0  0  0  0  0  0  0  0  0  0  0
  182.5980  178.9230  142.1350 O   0  0  0  0  0  0  0  0  0  0  0  0
  184.1360  180.4290  139.1880 O   0  0  0  0  0  0  0  0  0  0  0  0
  185.6290  178.8990  138.2840 N   0  0  0  0  0  2  0  0  0  0  0  0
  184.7240  179.3210  139.3070 C   0  0  0  0  0  0  0  0  0  0  0  0
  186.3790  177.6520  138.3600 C   0  0  2  0  0  3  0  0  0  0  0  0
  188.4640  176.1510  137.1120 N   0  0  0  0  0  0  0  0  0  0  0  0
  187.8640  177.9640  138.6340 C   0  0  0  0  0  2  0  0  0  0  0  0
  184.8060  176.0800  137.1820 C   0  0  0  0  0  1  0  0  0  0  0  0
  186.1350  176.8040  137.0980 C   0  0  2  0  0  3  0  0  0  0  0  0
  187.2400  175.8030  136.9120 C   0  0  0  0  0  3  0  0  0  0  0  0
  188.7920  177.5030  137.5060 C   0  0  0  0  0  2  0  0  0  0  0  0
  185.4160  178.9770  141.6720 C   0  0  0  0  0  2  0  0  0  0  0  0
  186.4720  177.9360  142.0270 C   0  0  0  0  0  2  0  0  0  0  0  0
  185.6890  178.3490  144.3480 C   0  0  0  0  0  3  0  0  0  0  0  0
  187.9400  177.4660  144.0670 C   0  0  0  0  0  0  0  0  0  0  0  0
  187.0900  177.9910  146.2820 C   0  0  0  0  0  0  0  0  0  0  0  0
  186.7120  177.8950  143.5050 C   0  0  0  0  0  0  0  0  0  0  0  0
  188.1140  177.5280  145.4540 C   0  0  0  0  0  3  0  0  0  0  0  0
  187.3340  178.0660  148.0130 Cl  0  0  0  0  0  0  0  0  0  0  0  0
  185.8750  178.3940  145.7310 C   0  0  0  0  0  3  0  0  0  0  0  0
  189.0080  176.9720  143.3070 O   0  0  0  0  0  0  0  0  0  0  0  0
  190.1550  177.3500  141.5140 C   0  0  0  0  0  1  0  0  0  0  0  0
  189.9920  177.7520  142.8380 O   0  0  0  0  0  0  0  0  0  0  0  0
  1  3  1  0  0  0  0
  1 17  1  1  0  0  0
  2  4  2  0  0  0  0
  3  6  1  0  0  0  0
  5  2  1  0  0  0  0
  5  3  2  0  0  0  0
  6  4  1  0  0  0  0
  7  9  2  0  0  0  0
  8  9  1  0  0  0  0
  9  1  1  0  0  0  0
 10  8  1  6  0  0  0
 10 12  1  0  0  0  0
 11 16  1  0  0  0  0
 14 13  1  1  0  0  0
 14 10  1  0  0  0  0
 15 14  1  0  0  0  0
 15 11  2  0  0  0  0
 16 12  1  0  0  0  0
 17 18  1  0  0  0  0
 18 22  1  0  0  0  0
 19 25  1  0  0  0  0
 20 23  2  0  0  0  0
 21 24  1  0  0  0  0
 22 20  1  0  0  0  0
 22 19  2  0  0  0  0
 23 21  1  0  0  0  0
 25 21  2  0  0  0  0
 26 20  1  0  0  0  0
 27 28  1  0  0  0  0
 28 26  1  0  0  0  0
M  END
>  <MODEL>
6

>  <REMARK>
 VINA RESULT:      -6.8      2.319      3.437
  Name = 
  8 active torsions:
  status: ('A' for Active; 'I' for Inactive)
    1  A    between atoms: N_2  and  C_3
    2  A    between atoms: C_9  and  O_14
    3  A    between atoms: C_10  and  C_13
    4  A    between atoms: C_10  and  C_17
    5  A    between atoms: O_14  and  O_25
    6  A    between atoms: C_16  and  C_27
    7  A    between atoms: C_17  and  C_27
    8  A    between atoms: C_26  and  C_27
                            x       y       z     vdW  Elec       q    Type
                         _______ _______ _______ _____ _____    ______ ____

>  <TORSDO>
F 8

$$$$
=
 OpenBabel10262420483D

 28 30  0  0  1  0  0  0  0  0999 V2000
  183.9160  178.3720  140.6790 C   0  0  1  0  0  3  0  0  0  0  0  0
  186.9850  178.5570  138.7540 N   0  0  0  0  0  0  0  0  0  0  0  0
  185.0120  178.4060  139.6590 C   0  0  0  0  0  0  0  0  0  0  0  0
  186.0690  178.2530  137.6640 C   0  0  0  0  0  3  0  0  0  0  0  0
  186.2490  178.6280  139.9390 N   0  0  0  0  0  0  0  0  0  0  0  0
  184.8080  178.1620  138.3110 O   0  0  0  0  0  0  0  0  0  0  0  0
  182.8910  176.3750  139.8440 O   0  0  0  0  0  0  0  0  0  0  0  0
  181.4220  178.1290  140.2390 N   0  0  0  0  0  2  0  0  0  0  0  0
  182.7380  177.5710  140.2130 C   0  0  0  0  0  0  0  0  0  0  0  0
  181.1510  179.4880  140.6890 C   0  0  2  0  0  3  0  0  0  0  0  0
  179.0520  181.3090  141.3510 N   0  0  0  0  0  0  0  0  0  0  0  0
  180.4580  179.4430  142.0650 C   0  0  0  0  0  2  0  0  0  0  0  0
  181.2910  180.7440  138.5120 C   0  0  0  0  0  1  0  0  0  0  0  0
  180.3670  180.2610  139.6120 C   0  0  2  0  0  3  0  0  0  0  0  0
  179.6530  181.4350  140.2190 C   0  0  0  0  0  3  0  0  0  0  0  0
  179.0480  180.0400  142.0460 C   0  0  0  0  0  2  0  0  0  0  0  0
  184.4030  177.8780  142.0360 C   0  0  0  0  0  2  0  0  0  0  0  0
  184.6130  179.0390  143.0010 C   0  0  0  0  0  2  0  0  0  0  0  0
  184.8950  178.9780  145.4680 C   0  0  0  0  0  3  0  0  0  0  0  0
  186.5980  177.8780  144.1200 C   0  0  0  0  0  0  0  0  0  0  0  0
  186.8040  177.9600  146.5400 C   0  0  0  0  0  0  0  0  0  0  0  0
  185.3830  178.6030  144.2090 C   0  0  0  0  0  0  0  0  0  0  0  0
  187.2970  177.5730  145.2930 C   0  0  0  0  0  3  0  0  0  0  0  0
  187.7010  177.5730  147.9920 Cl  0  0  0  0  0  0  0  0  0  0  0  0
  185.5990  178.6560  146.6290 C   0  0  0  0  0  3  0  0  0  0  0  0
  187.1490  177.4380  142.9100 O   0  0  0  0  0  0  0  0  0  0  0  0
  189.1660  177.5520  142.1400 C   0  0  0  0  0  1  0  0  0  0  0  0
  188.2850  176.7310  142.8410 O   0  0  0  0  0  0  0  0  0  0  0  0
  1 17  1  1  0  0  0
  2  5  1  0  0  0  0
  3  5  2  0  0  0  0
  3  1  1  0  0  0  0
  4  6  1  0  0  0  0
  4  2  2  0  0  0  0
  6  3  1  0  0  0  0
  7  9  2  0  0  0  0
  9  8  1  0  0  0  0
  9  1  1  0  0  0  0
 10  8  1  6  0  0  0
 10 12  1  0  0  0  0
 11 16  1  0  0  0  0
 14 13  1  6  0  0  0
 14 15  1  0  0  0  0
 14 10  1  0  0  0  0
 15 11  2  0  0  0  0
 16 12  1  0  0  0  0
 17 18  1  0  0  0  0
 18 22  1  0  0  0  0
 19 25  1  0  0  0  0
 20 22  1  0  0  0  0
 20 23  2  0  0  0  0
 21 25  2  0  0  0  0
 21 24  1  0  0  0  0
 22 19  2  0  0  0  0
 23 21  1  0  0  0  0
 26 20  1  0  0  0  0
 27 28  1  0  0  0  0
 28 26  1  0  0  0  0
M  END
>  <MODEL>
7

>  <REMARK>
 VINA RESULT:      -6.7      3.349      6.996
  Name = 
  8 active torsions:
  status: ('A' for Active; 'I' for Inactive)
    1  A    between atoms: N_2  and  C_3
    2  A    between atoms: C_9  and  O_14
    3  A    between atoms: C_10  and  C_13
    4  A    between atoms: C_10  and  C_17
    5  A    between atoms: O_14  and  O_25
    6  A    between atoms: C_16  and  C_27
    7  A    between atoms: C_17  and  C_27
    8  A    between atoms: C_26  and  C_27
                            x       y       z     vdW  Elec       q    Type
                         _______ _______ _______ _____ _____    ______ ____

>  <TORSDO>
F 8

$$$$
=
 OpenBabel10262420483D

 28 30  0  0  1  0  0  0  0  0999 V2000
  184.5650  178.4940  140.4190 C   0  0  1  0  0  3  0  0  0  0  0  0
  181.0460  177.6470  140.6590 N   0  0  0  0  0  0  0  0  0  0  0  0
  183.1060  178.3440  140.7210 C   0  0  0  0  0  0  0  0  0  0  0  0
  181.1050  178.6170  141.7430 C   0  0  0  0  0  3  0  0  0  0  0  0
  182.3190  177.5420  140.0930 N   0  0  0  0  0  0  0  0  0  0  0  0
  182.4640  179.0300  141.7390 O   0  0  0  0  0  0  0  0  0  0  0  0
  184.1840  180.4530  139.0960 O   0  0  0  0  0  0  0  0  0  0  0  0
  185.7840  179.0020  138.2440 N   0  0  0  0  0  2  0  0  0  0  0  0
  184.8060  179.3650  139.2220 C   0  0  0  0  0  0  0  0  0  0  0  0
  186.5750  177.7820  138.3350 C   0  0  2  0  0  3  0  0  0  0  0  0
  188.6830  176.3190  137.0820 N   0  0  0  0  0  0  0  0  0  0  0  0
  188.0530  178.1480  138.5730 C   0  0  0  0  0  2  0  0  0  0  0  0
  185.0320  176.1340  137.2230 C   0  0  0  0  0  1  0  0  0  0  0  0
  186.3350  176.8970  137.0980 C   0  0  2  0  0  3  0  0  0  0  0  0
  187.4680  175.9280  136.9130 C   0  0  0  0  0  3  0  0  0  0  0  0
  188.9750  177.6900  137.4390 C   0  0  0  0  0  2  0  0  0  0  0  0
  185.3570  178.9970  141.6200 C   0  0  0  0  0  2  0  0  0  0  0  0
  185.5460  177.8930  142.6540 C   0  0  0  0  0  2  0  0  0  0  0  0
  187.9770  178.0020  142.1520 C   0  0  0  0  0  3  0  0  0  0  0  0
  187.3290  177.5290  144.4510 C   0  0  0  0  0  0  0  0  0  0  0  0
  189.6750  177.5790  143.8160 C   0  0  0  0  0  0  0  0  0  0  0  0
  186.9710  177.8210  143.1110 C   0  0  0  0  0  0  0  0  0  0  0  0
  188.6830  177.4050  144.7830 C   0  0  0  0  0  3  0  0  0  0  0  0
  191.3600  177.4110  144.2550 Cl  0  0  0  0  0  0  0  0  0  0  0  0
  189.3230  177.8850  142.5030 C   0  0  0  0  0  3  0  0  0  0  0  0
  186.3970  177.3590  145.4820 O   0  0  0  0  0  0  0  0  0  0  0  0
  185.3460  178.6210  146.8870 C   0  0  0  0  0  1  0  0  0  0  0  0
  186.5350  177.9210  146.6900 O   0  0  0  0  0  0  0  0  0  0  0  0
  1  3  1  0  0  0  0
  1 17  1  1  0  0  0
  2  4  2  0  0  0  0
  3  6  1  0  0  0  0
  5  2  1  0  0  0  0
  5  3  2  0  0  0  0
  6  4  1  0  0  0  0
  7  9  2  0  0  0  0
  8  9  1  0  0  0  0
  9  1  1  0  0  0  0
 10  8  1  6  0  0  0
 10 12  1  0  0  0  0
 11 16  1  0  0  0  0
 14 13  1  1  0  0  0
 14 10  1  0  0  0  0
 15 11  2  0  0  0  0
 15 14  1  0  0  0  0
 16 12  1  0  0  0  0
 17 18  1  0  0  0  0
 18 22  1  0  0  0  0
 19 25  2  0  0  0  0
 19 22  1  0  0  0  0
 20 23  1  0  0  0  0
 20 26  1  0  0  0  0
 21 24  1  0  0  0  0
 21 23  2  0  0  0  0
 22 20  2  0  0  0  0
 25 21  1  0  0  0  0
 26 28  1  0  0  0  0
 28 27  1  0  0  0  0
M  END
>  <MODEL>
8

>  <REMARK>
 VINA RESULT:      -6.7      2.779      4.060
  Name = 
  8 active torsions:
  status: ('A' for Active; 'I' for Inactive)
    1  A    between atoms: N_2  and  C_3
    2  A    between atoms: C_9  and  O_14
    3  A    between atoms: C_10  and  C_13
    4  A    between atoms: C_10  and  C_17
    5  A    between atoms: O_14  and  O_25
    6  A    between atoms: C_16  and  C_27
    7  A    between atoms: C_17  and  C_27
    8  A    between atoms: C_26  and  C_27
                            x       y       z     vdW  Elec       q    Type
                         _______ _______ _______ _____ _____    ______ ____

>  <TORSDO>
F 8

$$$$
=
 OpenBabel10262420483D

 28 30  0  0  1  0  0  0  0  0999 V2000
  185.4680  177.9400  142.0120 C   0  0  1  0  0  3  0  0  0  0  0  0
  182.0970  178.0810  140.6800 N   0  0  0  0  0  0  0  0  0  0  0  0
  184.0130  178.1250  141.7100 C   0  0  0  0  0  0  0  0  0  0  0  0
  181.8290  178.6450  141.9940 C   0  0  0  0  0  3  0  0  0  0  0  0
  183.4610  177.7900  140.5960 N   0  0  0  0  0  0  0  0  0  0  0  0
  183.1060  178.6440  142.6180 O   0  0  0  0  0  0  0  0  0  0  0  0
  185.9910  180.2670  142.2250 O   0  0  0  0  0  0  0  0  0  0  0  0
  187.4000  179.0800  140.8130 N   0  0  0  0  0  2  0  0  0  0  0  0
  186.2720  179.1630  141.6870 C   0  0  0  0  0  0  0  0  0  0  0  0
  187.8180  177.8360  140.1800 C   0  0  2  0  0  3  0  0  0  0  0  0
  189.8440  176.6640  138.5430 N   0  0  0  0  0  0  0  0  0  0  0  0
  189.1670  177.3870  140.7760 C   0  0  0  0  0  2  0  0  0  0  0  0
  186.4230  177.8770  138.0860 C   0  0  0  0  0  1  0  0  0  0  0  0
  187.8250  177.9920  138.6480 C   0  0  2  0  0  3  0  0  0  0  0  0
  188.7060  176.9520  138.0150 C   0  0  0  0  0  3  0  0  0  0  0  0
  190.2940  177.3400  139.7400 C   0  0  0  0  0  2  0  0  0  0  0  0
  185.7090  177.5040  143.4530 C   0  0  0  0  0  2  0  0  0  0  0  0
  187.0550  176.8020  143.5970 C   0  0  0  0  0  2  0  0  0  0  0  0
  186.8560  177.5010  145.9730 C   0  0  0  0  0  3  0  0  0  0  0  0
  189.0970  177.1170  145.1030 C   0  0  0  0  0  0  0  0  0  0  0  0
  188.7760  177.8860  147.3860 C   0  0  0  0  0  0  0  0  0  0  0  0
  187.6930  177.1260  144.9130 C   0  0  0  0  0  0  0  0  0  0  0  0
  189.6200  177.5060  146.3410 C   0  0  0  0  0  3  0  0  0  0  0  0
  189.4550  178.3750  148.9230 Cl  0  0  0  0  0  0  0  0  0  0  0  0
  187.3940  177.8760  147.2050 C   0  0  0  0  0  3  0  0  0  0  0  0
  190.0100  176.7330  144.1120 O   0  0  0  0  0  0  0  0  0  0  0  0
  191.6770  178.0190  143.6230 C   0  0  0  0  0  1  0  0  0  0  0  0
  191.3370  176.8300  144.2670 O   0  0  0  0  0  0  0  0  0  0  0  0
  1 17  1  1  0  0  0
  2  4  2  0  0  0  0
  3  1  1  0  0  0  0
  3  6  1  0  0  0  0
  4  6  1  0  0  0  0
  5  2  1  0  0  0  0
  5  3  2  0  0  0  0
  8  9  1  0  0  0  0
  9  1  1  0  0  0  0
  9  7  2  0  0  0  0
 10 12  1  0  0  0  0
 10  8  1  1  0  0  0
 11 16  1  0  0  0  0
 14 13  1  6  0  0  0
 14 10  1  0  0  0  0
 15 11  2  0  0  0  0
 15 14  1  0  0  0  0
 16 12  1  0  0  0  0
 17 18  1  0  0  0  0
 18 22  1  0  0  0  0
 19 25  1  0  0  0  0
 20 23  2  0  0  0  0
 21 24  1  0  0  0  0
 22 20  1  0  0  0  0
 22 19  2  0  0  0  0
 23 21  1  0  0  0  0
 25 21  2  0  0  0  0
 26 28  1  0  0  0  0
 26 20  1  0  0  0  0
 27 28  1  0  0  0  0
M  END
>  <MODEL>
9

>  <REMARK>
 VINA RESULT:      -6.5      2.211      3.228
  Name = 
  8 active torsions:
  status: ('A' for Active; 'I' for Inactive)
    1  A    between atoms: N_2  and  C_3
    2  A    between atoms: C_9  and  O_14
    3  A    between atoms: C_10  and  C_13
    4  A    between atoms: C_10  and  C_17
    5  A    between atoms: O_14  and  O_25
    6  A    between atoms: C_16  and  C_27
    7  A    between atoms: C_17  and  C_27
    8  A    between atoms: C_26  and  C_27
                            x       y       z     vdW  Elec       q    Type
                         _______ _______ _______ _____ _____    ______ ____

>  <TORSDO>
F 8

$$$$
