=
 OpenBabel10262420533D

 28 32  0  0  1  0  0  0  0  0999 V2000
  190.0000  176.7940  141.5930 C   0  0  1  0  0  3  0  0  0  0  0  0
  184.8170  177.9470  142.5380 C   0  0  0  0  0  3  0  0  0  0  0  0
  190.2310  178.5070  144.7840 C   0  0  0  0  0  1  0  0  0  0  0  0
  185.0690  178.6450  144.8540 C   0  0  0  0  0  0  0  0  0  0  0  0
  186.9470  177.3500  143.7520 C   0  0  1  0  0  3  0  0  0  0  0  0
  183.0210  179.1290  143.6480 C   0  0  0  0  0  0  0  0  0  0  0  0
  185.6080  178.0400  143.6930 C   0  0  0  0  0  0  0  0  0  0  0  0
  187.1060  177.8880  146.1690 C   0  0  0  0  0  2  0  0  0  0  0  0
  183.7870  179.2030  144.8140 C   0  0  0  0  0  3  0  0  0  0  0  0
  189.4660  176.2300  143.8330 C   0  0  1  0  0  3  0  0  0  0  0  0
  187.7350  177.4080  142.4510 C   0  0  0  0  0  2  0  0  0  0  0  0
  185.8760  178.7980  146.1210 C   0  0  0  0  0  2  0  0  0  0  0  0
  190.9150  175.8250  143.5800 C   0  0  2  0  0  3  0  0  0  0  0  0
  189.2330  177.3630  144.8840 C   0  0  2  0  0  3  0  0  0  0  0  0
  191.7640  176.1060  144.6530 O   0  0  0  0  0  1  0  0  0  0  0  0
  181.7790  179.6680  143.6200 F   0  0  0  0  0  0  0  0  0  0  0  0
  183.5330  178.4980  142.5130 C   0  0  0  0  0  3  0  0  0  0  0  0
  187.8250  177.9610  144.8340 C   0  0  1  0  0  3  0  0  0  0  0  0
  191.3100  176.5980  142.3450 C   0  0  0  0  0  2  0  0  0  0  0  0
  188.8800  176.4820  142.5010 N   0  0  1  0  0  0  0  0  0  0  0  0
  189.9190  178.1090  140.7890 C   0  0  0  0  0  2  0  0  0  0  0  0
  189.7960  177.9340  139.3070 C   0  0  0  0  0  0  0  0  0  0  0  0
  189.5120  177.5770  136.5430 C   0  0  0  0  0  0  0  0  0  0  0  0
  190.3670  176.8200  138.6780 C   0  0  0  0  0  3  0  0  0  0  0  0
  189.0660  178.8580  138.5490 C   0  0  0  0  0  3  0  0  0  0  0  0
  188.9270  178.6830  137.1700 C   0  0  0  0  0  3  0  0  0  0  0  0
  189.3770  177.4050  135.1730 O   0  0  0  0  0  1  0  0  0  0  0  0
  190.2280  176.6440  137.2980 C   0  0  0  0  0  3  0  0  0  0  0  0
  1 21  1  1  0  0  0
  1 19  1  0  0  0  0
  1 20  1  0  0  0  0
  2  7  1  0  0  0  0
  3 14  1  0  0  0  0
  4 12  1  0  0  0  0
  5 11  1  6  0  0  0
  5 18  1  0  0  0  0
  6  9  2  0  0  0  0
  7  5  1  0  0  0  0
  7  4  2  0  0  0  0
  9  4  1  0  0  0  0
 10 14  1  0  0  0  0
 11 20  1  0  0  0  0
 12  8  1  0  0  0  0
 13 10  1  0  0  0  0
 13 15  1  0  0  0  0
 16  6  1  0  0  0  0
 17  2  2  0  0  0  0
 17  6  1  0  0  0  0
 18 14  1  0  0  0  0
 18  8  1  0  0  0  0
 19 13  1  0  0  0  0
 20 10  1  0  0  0  0
 22 21  1  0  0  0  0
 23 26  2  0  0  0  0
 23 28  1  0  0  0  0
 24 22  1  0  0  0  0
 25 22  2  0  0  0  0
 26 25  1  0  0  0  0
 27 23  1  0  0  0  0
 28 24  2  0  0  0  0
M  END
>  <MODEL>
1

>  <REMARK>
 VINA RESULT:     -10.7      0.000      0.000
  Name = 
  2 active torsions:
  status: ('A' for Active; 'I' for Inactive)
    1  A    between atoms: C_1  and  C_2
    2  A    between atoms: C_2  and  C_3
                            x       y       z     vdW  Elec       q    Type
                         _______ _______ _______ _____ _____    ______ ____

>  <TORSDO>
F 2

$$$$
=
 OpenBabel10262420533D

 28 32  0  0  1  0  0  0  0  0999 V2000
  188.2860  178.1410  144.2100 C   0  0  1  0  0  3  0  0  0  0  0  0
  187.3810  178.2280  138.8940 C   0  0  0  0  0  3  0  0  0  0  0  0
  190.5930  175.5860  143.0620 C   0  0  0  0  0  1  0  0  0  0  0  0
  189.2730  176.8510  138.2310 C   0  0  0  0  0  0  0  0  0  0  0  0
  189.2350  177.8440  140.5630 C   0  0  1  0  0  3  0  0  0  0  0  0
  187.4880  177.3150  136.6560 C   0  0  0  0  0  0  0  0  0  0  0  0
  188.5880  177.5940  139.2240 C   0  0  0  0  0  0  0  0  0  0  0  0
  191.2500  176.6100  139.8070 C   0  0  0  0  0  2  0  0  0  0  0  0
  188.7060  176.7020  136.9620 C   0  0  0  0  0  3  0  0  0  0  0  0
  190.3590  178.1590  143.0610 C   0  0  1  0  0  3  0  0  0  0  0  0
  188.2500  177.9500  141.7190 C   0  0  0  0  0  2  0  0  0  0  0  0
  190.5630  176.1250  138.5280 C   0  0  0  0  0  2  0  0  0  0  0  0
  190.6520  178.2070  144.5570 C   0  0  2  0  0  3  0  0  0  0  0  0
  190.8350  176.8800  142.2990 C   0  0  2  0  0  3  0  0  0  0  0  0
  191.7330  177.4070  144.9360 O   0  0  0  0  0  1  0  0  0  0  0  0
  186.9490  177.1680  135.4220 F   0  0  0  0  0  0  0  0  0  0  0  0
  186.8300  178.0810  137.6180 C   0  0  0  0  0  3  0  0  0  0  0  0
  190.2130  176.7300  140.9090 C   0  0  1  0  0  3  0  0  0  0  0  0
  189.3690  177.7450  145.2050 C   0  0  0  0  0  2  0  0  0  0  0  0
  188.9230  178.4720  142.9210 N   0  0  1  0  0  0  0  0  0  0  0  0
  187.0720  177.1890  144.1790 C   0  0  0  0  0  2  0  0  0  0  0  0
  185.7440  177.8660  144.0390 C   0  0  0  0  0  0  0  0  0  0  0  0
  183.2310  179.0790  143.7910 C   0  0  0  0  0  0  0  0  0  0  0  0
  185.1230  177.9510  142.7860 C   0  0  0  0  0  3  0  0  0  0  0  0
  185.0920  178.3730  145.1690 C   0  0  0  0  0  3  0  0  0  0  0  0
  183.8400  178.9820  145.0460 C   0  0  0  0  0  3  0  0  0  0  0  0
  181.9900  179.6870  143.6680 O   0  0  0  0  0  1  0  0  0  0  0  0
  183.8710  178.5600  142.6620 C   0  0  0  0  0  3  0  0  0  0  0  0
  1 21  1  6  0  0  0
  1 19  1  0  0  0  0
  2  7  1  0  0  0  0
  4 12  1  0  0  0  0
  4  7  2  0  0  0  0
  5 18  1  0  0  0  0
  5 11  1  1  0  0  0
  6  9  2  0  0  0  0
  6 17  1  0  0  0  0
  7  5  1  0  0  0  0
  8 18  1  0  0  0  0
  9  4  1  0  0  0  0
 10 13  1  0  0  0  0
 11 20  1  0  0  0  0
 12  8  1  0  0  0  0
 13 15  1  0  0  0  0
 13 19  1  0  0  0  0
 14 10  1  0  0  0  0
 14  3  1  0  0  0  0
 16  6  1  0  0  0  0
 17  2  2  0  0  0  0
 18 14  1  0  0  0  0
 20 10  1  0  0  0  0
 20  1  1  0  0  0  0
 22 21  1  0  0  0  0
 22 25  1  0  0  0  0
 23 26  1  0  0  0  0
 24 22  2  0  0  0  0
 26 25  2  0  0  0  0
 27 23  1  0  0  0  0
 28 24  1  0  0  0  0
 28 23  2  0  0  0  0
M  END
>  <MODEL>
2

>  <REMARK>
 VINA RESULT:      -9.2      2.948      6.585
  Name = 
  2 active torsions:
  status: ('A' for Active; 'I' for Inactive)
    1  A    between atoms: C_1  and  C_2
    2  A    between atoms: C_2  and  C_3
                            x       y       z     vdW  Elec       q    Type
                         _______ _______ _______ _____ _____    ______ ____

>  <TORSDO>
F 2

$$$$
=
 OpenBabel10262420533D

 28 32  0  0  1  0  0  0  0  0999 V2000
  190.7360  176.8930  144.2060 C   0  0  1  0  0  3  0  0  0  0  0  0
  185.4890  177.7900  143.3350 C   0  0  0  0  0  3  0  0  0  0  0  0
  189.8660  178.8690  147.1230 C   0  0  0  0  0  1  0  0  0  0  0  0
  184.9560  178.6870  145.5320 C   0  0  0  0  0  0  0  0  0  0  0  0
  187.1320  177.4280  145.2160 C   0  0  1  0  0  3  0  0  0  0  0  0
  183.3930  178.9430  143.6950 C   0  0  0  0  0  0  0  0  0  0  0  0
  185.8610  178.0250  144.6660 C   0  0  0  0  0  0  0  0  0  0  0  0
  186.4830  178.1680  147.4940 C   0  0  0  0  0  2  0  0  0  0  0  0
  183.7380  179.1580  145.0310 C   0  0  0  0  0  3  0  0  0  0  0  0
  189.5260  176.4790  146.2030 C   0  0  1  0  0  3  0  0  0  0  0  0
  188.2950  177.4300  144.2340 C   0  0  0  0  0  2  0  0  0  0  0  0
  185.3050  178.9920  146.9680 C   0  0  0  0  0  2  0  0  0  0  0  0
  190.9920  176.1470  146.4650 C   0  0  2  0  0  3  0  0  0  0  0  0
  188.9280  177.6760  147.0100 C   0  0  2  0  0  3  0  0  0  0  0  0
  191.4390  176.5660  147.7200 O   0  0  0  0  0  1  0  0  0  0  0  0
  182.2090  179.3990  143.2200 F   0  0  0  0  0  0  0  0  0  0  0  0
  184.2650  178.2560  142.8490 C   0  0  0  0  0  3  0  0  0  0  0  0
  187.5920  178.1790  146.4570 C   0  0  1  0  0  3  0  0  0  0  0  0
  191.7380  176.8410  145.3520 C   0  0  0  0  0  2  0  0  0  0  0  0
  189.3930  176.5850  144.7360 N   0  0  1  0  0  0  0  0  0  0  0  0
  190.8740  178.1310  143.2950 C   0  0  0  0  0  2  0  0  0  0  0  0
  190.7660  177.8480  141.8280 C   0  0  0  0  0  0  0  0  0  0  0  0
  190.5520  177.2580  139.0990 C   0  0  0  0  0  0  0  0  0  0  0  0
  191.9060  177.5000  141.0910 C   0  0  0  0  0  3  0  0  0  0  0  0
  189.5170  177.8790  141.1980 C   0  0  0  0  0  3  0  0  0  0  0  0
  189.4100  177.5890  139.8350 C   0  0  0  0  0  3  0  0  0  0  0  0
  190.4460  176.9730  137.7450 O   0  0  0  0  0  1  0  0  0  0  0  0
  191.7990  177.2090  139.7280 C   0  0  0  0  0  3  0  0  0  0  0  0
  1 21  1  1  0  0  0
  1 20  1  0  0  0  0
  1 19  1  0  0  0  0
  2  7  1  0  0  0  0
  4 12  1  0  0  0  0
  5 11  1  6  0  0  0
  5 18  1  0  0  0  0
  6  9  2  0  0  0  0
  7  5  1  0  0  0  0
  7  4  2  0  0  0  0
  9  4  1  0  0  0  0
 10 13  1  0  0  0  0
 10 14  1  0  0  0  0
 11 20  1  0  0  0  0
 12  8  1  0  0  0  0
 13 15  1  0  0  0  0
 14  3  1  0  0  0  0
 16  6  1  0  0  0  0
 17  2  2  0  0  0  0
 17  6  1  0  0  0  0
 18 14  1  0  0  0  0
 18  8  1  0  0  0  0
 19 13  1  0  0  0  0
 20 10  1  0  0  0  0
 22 21  1  0  0  0  0
 23 28  2  0  0  0  0
 23 26  1  0  0  0  0
 24 22  2  0  0  0  0
 25 22  1  0  0  0  0
 26 25  2  0  0  0  0
 27 23  1  0  0  0  0
 28 24  1  0  0  0  0
M  END
>  <MODEL>
3

>  <REMARK>
 VINA RESULT:      -8.7      1.575      2.205
  Name = 
  2 active torsions:
  status: ('A' for Active; 'I' for Inactive)
    1  A    between atoms: C_1  and  C_2
    2  A    between atoms: C_2  and  C_3
                            x       y       z     vdW  Elec       q    Type
                         _______ _______ _______ _____ _____    ______ ____

>  <TORSDO>
F 2

$$$$
=
 OpenBabel10262420533D

 28 32  0  0  1  0  0  0  0  0999 V2000
  189.1810  177.4510  145.4800 C   0  0  1  0  0  3  0  0  0  0  0  0
  185.0810  177.7980  141.9930 C   0  0  0  0  0  3  0  0  0  0  0  0
  186.9060  179.6290  147.2830 C   0  0  0  0  0  1  0  0  0  0  0  0
  183.4870  178.8630  143.4890 C   0  0  0  0  0  0  0  0  0  0  0  0
  185.5520  177.7710  144.4720 C   0  0  1  0  0  3  0  0  0  0  0  0
  183.0650  178.7950  141.1010 C   0  0  0  0  0  0  0  0  0  0  0  0
  184.7210  178.1980  143.2880 C   0  0  0  0  0  0  0  0  0  0  0  0
  183.8200  178.6790  146.0000 C   0  0  0  0  0  2  0  0  0  0  0  0
  182.6800  179.1740  142.3890 C   0  0  0  0  0  3  0  0  0  0  0  0
  187.1360  177.1380  146.6380 C   0  0  1  0  0  3  0  0  0  0  0  0
  187.0510  177.7750  144.2130 C   0  0  0  0  0  2  0  0  0  0  0  0
  183.0520  179.3410  144.8530 C   0  0  0  0  0  2  0  0  0  0  0  0
  188.2740  176.9620  147.6390 C   0  0  2  0  0  3  0  0  0  0  0  0
  186.1830  178.3550  146.8740 C   0  0  2  0  0  3  0  0  0  0  0  0
  188.0130  177.5440  148.8820 O   0  0  0  0  0  1  0  0  0  0  0  0
  182.2750  179.0960  140.0430 F   0  0  0  0  0  0  0  0  0  0  0  0
  184.2620  178.1040  140.9030 C   0  0  0  0  0  3  0  0  0  0  0  0
  185.3010  178.6810  145.6660 C   0  0  1  0  0  3  0  0  0  0  0  0
  189.4650  177.6020  146.9690 C   0  0  0  0  0  2  0  0  0  0  0  0
  187.7630  177.0830  145.3020 N   0  0  1  0  0  0  0  0  0  0  0  0
  189.7330  178.5980  144.6070 C   0  0  0  0  0  2  0  0  0  0  0  0
  190.2200  178.1800  143.2540 C   0  0  0  0  0  0  0  0  0  0  0  0
  191.1130  177.3380  140.7360 C   0  0  0  0  0  0  0  0  0  0  0  0
  191.5630  177.8340  143.0630 C   0  0  0  0  0  3  0  0  0  0  0  0
  189.3210  178.0830  142.1840 C   0  0  0  0  0  3  0  0  0  0  0  0
  189.7670  177.6670  140.9270 C   0  0  0  0  0  3  0  0  0  0  0  0
  191.5560  176.9290  139.4870 O   0  0  0  0  0  1  0  0  0  0  0  0
  192.0100  177.4180  141.8050 C   0  0  0  0  0  3  0  0  0  0  0  0
  1 21  1  6  0  0  0
  1 19  1  0  0  0  0
  2  7  1  0  0  0  0
  4 12  1  0  0  0  0
  5 11  1  6  0  0  0
  5 18  1  0  0  0  0
  6  9  2  0  0  0  0
  7  4  2  0  0  0  0
  7  5  1  0  0  0  0
  9  4  1  0  0  0  0
 10 14  1  0  0  0  0
 10 13  1  0  0  0  0
 11 20  1  0  0  0  0
 12  8  1  0  0  0  0
 13 15  1  0  0  0  0
 14  3  1  0  0  0  0
 16  6  1  0  0  0  0
 17  6  1  0  0  0  0
 17  2  2  0  0  0  0
 18  8  1  0  0  0  0
 18 14  1  0  0  0  0
 19 13  1  0  0  0  0
 20  1  1  0  0  0  0
 20 10  1  0  0  0  0
 22 21  1  0  0  0  0
 23 26  2  0  0  0  0
 23 28  1  0  0  0  0
 24 22  1  0  0  0  0
 25 22  2  0  0  0  0
 26 25  1  0  0  0  0
 27 23  1  0  0  0  0
 28 24  2  0  0  0  0
M  END
>  <MODEL>
4

>  <REMARK>
 VINA RESULT:      -8.4      2.387      3.677
  Name = 
  2 active torsions:
  status: ('A' for Active; 'I' for Inactive)
    1  A    between atoms: C_1  and  C_2
    2  A    between atoms: C_2  and  C_3
                            x       y       z     vdW  Elec       q    Type
                         _______ _______ _______ _____ _____    ______ ____

>  <TORSDO>
F 2

$$$$
=
 OpenBabel10262420533D

 28 32  0  0  1  0  0  0  0  0999 V2000
  189.7370  177.6490  140.9660 C   0  0  1  0  0  3  0  0  0  0  0  0
  184.9290  179.0450  142.9720 C   0  0  0  0  0  3  0  0  0  0  0  0
  187.5180  176.5110  138.3300 C   0  0  0  0  0  1  0  0  0  0  0  0
  183.6260  178.6660  140.9540 C   0  0  0  0  0  0  0  0  0  0  0  0
  186.1490  178.8230  140.7740 C   0  0  1  0  0  3  0  0  0  0  0  0
  182.5140  178.9540  143.0900 C   0  0  0  0  0  0  0  0  0  0  0  0
  184.8840  178.7900  141.5940 C   0  0  0  0  0  0  0  0  0  0  0  0
  184.7980  178.6410  138.7000 C   0  0  0  0  0  2  0  0  0  0  0  0
  182.4530  178.7290  141.7130 C   0  0  0  0  0  3  0  0  0  0  0  0
  188.4630  178.7200  139.2790 C   0  0  1  0  0  3  0  0  0  0  0  0
  187.3610  178.2290  141.4780 C   0  0  0  0  0  2  0  0  0  0  0  0
  183.5080  178.3670  139.4790 C   0  0  0  0  0  2  0  0  0  0  0  0
  189.8390  178.4050  138.6990 C   0  0  2  0  0  3  0  0  0  0  0  0
  187.2490  177.9780  138.6330 C   0  0  2  0  0  3  0  0  0  0  0  0
  189.7930  177.9450  137.3810 O   0  0  0  0  0  1  0  0  0  0  0  0
  181.3730  179.0180  143.8160 F   0  0  0  0  0  0  0  0  0  0  0  0
  183.7500  179.1170  143.7180 C   0  0  0  0  0  3  0  0  0  0  0  0
  185.9700  178.0580  139.4700 C   0  0  1  0  0  3  0  0  0  0  0  0
  190.4070  177.3600  139.6290 C   0  0  0  0  0  2  0  0  0  0  0  0
  188.5940  178.5540  140.7400 N   0  0  1  0  0  0  0  0  0  0  0  0
  189.4920  176.3990  141.8380 C   0  0  0  0  0  2  0  0  0  0  0  0
  189.9310  176.5290  143.2640 C   0  0  0  0  0  0  0  0  0  0  0  0
  190.7650  176.8360  145.9200 C   0  0  0  0  0  0  0  0  0  0  0  0
  191.2550  176.2450  143.6230 C   0  0  0  0  0  3  0  0  0  0  0  0
  189.0330  176.9870  144.2350 C   0  0  0  0  0  3  0  0  0  0  0  0
  189.4470  177.1360  145.5620 C   0  0  0  0  0  3  0  0  0  0  0  0
  191.1760  176.9810  147.2370 O   0  0  0  0  0  1  0  0  0  0  0  0
  191.6700  176.3940  144.9500 C   0  0  0  0  0  3  0  0  0  0  0  0
  1 21  1  6  0  0  0
  2 17  1  0  0  0  0
  3 14  1  0  0  0  0
  4  7  1  0  0  0  0
  4  9  2  0  0  0  0
  5 11  1  1  0  0  0
  5  7  1  0  0  0  0
  6 17  2  0  0  0  0
  6 16  1  0  0  0  0
  7  2  2  0  0  0  0
  8 18  1  0  0  0  0
  8 12  1  0  0  0  0
  9  6  1  0  0  0  0
 10 20  1  0  0  0  0
 12  4  1  0  0  0  0
 13 10  1  0  0  0  0
 13 19  1  0  0  0  0
 14 10  1  0  0  0  0
 14 18  1  0  0  0  0
 15 13  1  0  0  0  0
 18  5  1  0  0  0  0
 19  1  1  0  0  0  0
 20  1  1  0  0  0  0
 20 11  1  0  0  0  0
 21 22  1  0  0  0  0
 22 24  2  0  0  0  0
 22 25  1  0  0  0  0
 23 27  1  0  0  0  0
 24 28  1  0  0  0  0
 25 26  2  0  0  0  0
 26 23  1  0  0  0  0
 28 23  2  0  0  0  0
M  END
>  <MODEL>
5

>  <REMARK>
 VINA RESULT:      -8.3      1.851      5.624
  Name = 
  2 active torsions:
  status: ('A' for Active; 'I' for Inactive)
    1  A    between atoms: C_1  and  C_2
    2  A    between atoms: C_2  and  C_3
                            x       y       z     vdW  Elec       q    Type
                         _______ _______ _______ _____ _____    ______ ____

>  <TORSDO>
F 2

$$$$
=
 OpenBabel10262420533D

 28 32  0  0  1  0  0  0  0  0999 V2000
  189.8220  177.7410  139.4370 C   0  0  1  0  0  3  0  0  0  0  0  0
  185.6300  179.0260  142.5780 C   0  0  0  0  0  3  0  0  0  0  0  0
  187.0530  176.4530  137.4770 C   0  0  0  0  0  1  0  0  0  0  0  0
  183.8720  178.5440  140.9670 C   0  0  0  0  0  0  0  0  0  0  0  0
  186.2580  178.7830  140.1460 C   0  0  1  0  0  3  0  0  0  0  0  0
  183.3300  178.8540  143.3110 C   0  0  0  0  0  0  0  0  0  0  0  0
  185.2450  178.7300  141.2620 C   0  0  0  0  0  0  0  0  0  0  0  0
  184.4320  178.4960  138.4900 C   0  0  0  0  0  2  0  0  0  0  0  0
  182.9300  178.5880  142.0000 C   0  0  0  0  0  3  0  0  0  0  0  0
  188.1170  178.7200  138.1110 C   0  0  1  0  0  3  0  0  0  0  0  0
  187.6320  178.2530  140.5280 C   0  0  0  0  0  2  0  0  0  0  0  0
  183.3950  178.2000  139.5770 C   0  0  0  0  0  2  0  0  0  0  0  0
  189.3120  178.4360  137.2050 C   0  0  2  0  0  3  0  0  0  0  0  0
  186.8100  177.9170  137.8110 C   0  0  2  0  0  3  0  0  0  0  0  0
  188.9500  177.9370  135.9520 O   0  0  0  0  0  1  0  0  0  0  0  0
  182.4100  178.8980  144.3030 F   0  0  0  0  0  0  0  0  0  0  0  0
  184.6780  179.0780  143.5990 C   0  0  0  0  0  3  0  0  0  0  0  0
  185.7840  177.9770  138.9450 C   0  0  1  0  0  3  0  0  0  0  0  0
  190.1400  177.4380  137.9790 C   0  0  0  0  0  2  0  0  0  0  0  0
  188.6220  178.5990  139.4930 N   0  0  1  0  0  0  0  0  0  0  0  0
  189.8580  176.5080  140.3650 C   0  0  0  0  0  2  0  0  0  0  0  0
  190.3210  176.7860  141.7620 C   0  0  0  0  0  0  0  0  0  0  0  0
  191.2330  177.2620  144.3670 C   0  0  0  0  0  0  0  0  0  0  0  0
  189.7510  176.1020  142.8440 C   0  0  0  0  0  3  0  0  0  0  0  0
  191.3620  177.6940  141.9880 C   0  0  0  0  0  3  0  0  0  0  0  0
  191.8160  177.9340  143.2880 C   0  0  0  0  0  3  0  0  0  0  0  0
  191.6800  177.5030  145.6580 O   0  0  0  0  0  1  0  0  0  0  0  0
  190.2040  176.3420  144.1440 C   0  0  0  0  0  3  0  0  0  0  0  0
  1 20  1  0  0  0  0
  1 21  1  1  0  0  0
  2 17  1  0  0  0  0
  3 14  1  0  0  0  0
  4  7  1  0  0  0  0
  4  9  2  0  0  0  0
  5 11  1  1  0  0  0
  5  7  1  0  0  0  0
  6 17  2  0  0  0  0
  6 16  1  0  0  0  0
  7  2  2  0  0  0  0
  8 18  1  0  0  0  0
  8 12  1  0  0  0  0
  9  6  1  0  0  0  0
 10 20  1  0  0  0  0
 12  4  1  0  0  0  0
 13 19  1  0  0  0  0
 13 10  1  0  0  0  0
 14 10  1  0  0  0  0
 14 18  1  0  0  0  0
 15 13  1  0  0  0  0
 18  5  1  0  0  0  0
 19  1  1  0  0  0  0
 20 11  1  0  0  0  0
 21 22  1  0  0  0  0
 22 25  2  0  0  0  0
 22 24  1  0  0  0  0
 23 27  1  0  0  0  0
 24 28  2  0  0  0  0
 25 26  1  0  0  0  0
 26 23  2  0  0  0  0
 28 23  1  0  0  0  0
M  END
>  <MODEL>
6

>  <REMARK>
 VINA RESULT:      -8.2      1.939      5.590
  Name = 
  2 active torsions:
  status: ('A' for Active; 'I' for Inactive)
    1  A    between atoms: C_1  and  C_2
    2  A    between atoms: C_2  and  C_3
                            x       y       z     vdW  Elec       q    Type
                         _______ _______ _______ _____ _____    ______ ____

>  <TORSDO>
F 2

$$$$
=
 OpenBabel10262420533D

 28 32  0  0  1  0  0  0  0  0999 V2000
  188.1990  177.4970  140.8680 C   0  0  1  0  0  3  0  0  0  0  0  0
  187.4700  177.2050  146.2040 C   0  0  0  0  0  3  0  0  0  0  0  0
  191.4630  178.5190  142.0820 C   0  0  0  0  0  1  0  0  0  0  0  0
  189.8010  177.4470  146.8530 C   0  0  0  0  0  0  0  0  0  0  0  0
  189.2500  176.8760  144.4460 C   0  0  1  0  0  3  0  0  0  0  0  0
  188.0420  177.6860  148.5050 C   0  0  0  0  0  0  0  0  0  0  0  0
  188.8260  177.2360  145.8480 C   0  0  0  0  0  0  0  0  0  0  0  0
  191.6250  176.9230  145.1640 C   0  0  0  0  0  2  0  0  0  0  0  0
  189.3980  177.6910  148.1700 C   0  0  0  0  0  3  0  0  0  0  0  0
  190.0410  176.3740  141.8520 C   0  0  1  0  0  3  0  0  0  0  0  0
  188.3090  177.3810  143.3620 C   0  0  0  0  0  2  0  0  0  0  0  0
  191.2750  177.5160  146.5310 C   0  0  0  0  0  2  0  0  0  0  0  0
  190.2450  176.3750  140.3400 C   0  0  2  0  0  3  0  0  0  0  0  0
  191.0810  177.1800  142.6960 C   0  0  2  0  0  3  0  0  0  0  0  0
  191.5670  176.6160  139.9610 O   0  0  0  0  0  1  0  0  0  0  0  0
  187.6620  177.9180  149.7840 F   0  0  0  0  0  0  0  0  0  0  0  0
  187.0800  177.4380  147.5250 C   0  0  0  0  0  3  0  0  0  0  0  0
  190.6310  177.4350  144.1370 C   0  0  1  0  0  3  0  0  0  0  0  0
  189.3200  177.4570  139.8380 C   0  0  0  0  0  2  0  0  0  0  0  0
  188.6310  176.7540  142.0690 N   0  0  1  0  0  0  0  0  0  0  0  0
  187.5810  178.8950  141.0820 C   0  0  0  0  0  2  0  0  0  0  0  0
  186.0880  178.9110  141.2030 C   0  0  0  0  0  0  0  0  0  0  0  0
  183.2970  178.8770  141.4360 C   0  0  0  0  0  0  0  0  0  0  0  0
  185.2860  178.8710  140.0560 C   0  0  0  0  0  3  0  0  0  0  0  0
  185.4880  178.9140  142.4680 C   0  0  0  0  0  3  0  0  0  0  0  0
  184.0950  178.9010  142.5850 C   0  0  0  0  0  3  0  0  0  0  0  0
  181.9150  178.8680  141.5520 O   0  0  0  0  0  1  0  0  0  0  0  0
  183.8930  178.8580  140.1720 C   0  0  0  0  0  3  0  0  0  0  0  0
  1 21  1  1  0  0  0
  1 20  1  0  0  0  0
  2 17  1  0  0  0  0
  3 14  1  0  0  0  0
  4  9  2  0  0  0  0
  5 11  1  6  0  0  0
  5  7  1  0  0  0  0
  6 16  1  0  0  0  0
  7  2  2  0  0  0  0
  7  4  1  0  0  0  0
  8 12  1  0  0  0  0
  9  6  1  0  0  0  0
 10 20  1  0  0  0  0
 10 14  1  0  0  0  0
 12  4  1  0  0  0  0
 13 10  1  0  0  0  0
 14 18  1  0  0  0  0
 15 13  1  0  0  0  0
 17  6  2  0  0  0  0
 18  5  1  0  0  0  0
 18  8  1  0  0  0  0
 19 13  1  0  0  0  0
 19  1  1  0  0  0  0
 20 11  1  0  0  0  0
 21 22  1  0  0  0  0
 22 25  1  0  0  0  0
 23 27  1  0  0  0  0
 23 26  1  0  0  0  0
 24 28  1  0  0  0  0
 24 22  2  0  0  0  0
 25 26  2  0  0  0  0
 28 23  2  0  0  0  0
M  END
>  <MODEL>
7

>  <REMARK>
 VINA RESULT:      -8.1      3.091      5.237
  Name = 
  2 active torsions:
  status: ('A' for Active; 'I' for Inactive)
    1  A    between atoms: C_1  and  C_2
    2  A    between atoms: C_2  and  C_3
                            x       y       z     vdW  Elec       q    Type
                         _______ _______ _______ _____ _____    ______ ____

>  <TORSDO>
F 2

$$$$
=
 OpenBabel10262420533D

 28 32  0  0  1  0  0  0  0  0999 V2000
  190.5470  177.1000  138.0330 C   0  0  1  0  0  3  0  0  0  0  0  0
  189.9670  177.3150  143.3910 C   0  0  0  0  0  3  0  0  0  0  0  0
  186.9320  177.1060  138.3500 C   0  0  0  0  0  1  0  0  0  0  0  0
  187.5800  177.7800  143.4290 C   0  0  0  0  0  0  0  0  0  0  0  0
  188.8580  178.0990  141.2640 C   0  0  1  0  0  3  0  0  0  0  0  0
  188.7220  177.0860  145.4530 C   0  0  0  0  0  0  0  0  0  0  0  0
  188.7940  177.6700  142.7080 C   0  0  0  0  0  0  0  0  0  0  0  0
  186.4690  178.7640  141.3680 C   0  0  0  0  0  2  0  0  0  0  0  0
  187.5520  177.4660  144.7920 C   0  0  0  0  0  3  0  0  0  0  0  0
  188.9220  178.7370  138.5820 C   0  0  1  0  0  3  0  0  0  0  0  0
  189.8530  177.3120  140.4250 C   0  0  0  0  0  2  0  0  0  0  0  0
  186.2790  178.1330  142.7500 C   0  0  0  0  0  2  0  0  0  0  0  0
  189.1120  178.7540  137.0680 C   0  0  2  0  0  3  0  0  0  0  0  0
  187.5170  178.2910  139.1020 C   0  0  2  0  0  3  0  0  0  0  0  0
  187.9160  178.8970  136.3620 O   0  0  0  0  0  1  0  0  0  0  0  0
  188.6860  176.7880  146.7740 F   0  0  0  0  0  0  0  0  0  0  0  0
  189.9290  177.0150  144.7550 C   0  0  0  0  0  3  0  0  0  0  0  0
  187.4970  177.9570  140.5960 C   0  0  1  0  0  3  0  0  0  0  0  0
  189.7810  177.4360  136.7600 C   0  0  0  0  0  2  0  0  0  0  0  0
  190.0610  177.9690  139.1230 N   0  0  1  0  0  0  0  0  0  0  0  0
  190.6620  175.5890  138.3270 C   0  0  0  0  0  2  0  0  0  0  0  0
  191.7920  174.8970  137.6300 C   0  0  0  0  0  0  0  0  0  0  0  0
  193.9110  173.5610  136.3760 C   0  0  0  0  0  0  0  0  0  0  0  0
  193.1060  175.3530  137.7920 C   0  0  0  0  0  3  0  0  0  0  0  0
  191.5450  173.7580  136.8540 C   0  0  0  0  0  3  0  0  0  0  0  0
  192.6020  173.0930  136.2250 C   0  0  0  0  0  3  0  0  0  0  0  0
  194.9590  172.9040  135.7480 O   0  0  0  0  0  1  0  0  0  0  0  0
  194.1640  174.6890  137.1630 C   0  0  0  0  0  3  0  0  0  0  0  0
  1 21  1  1  0  0  0
  1 20  1  0  0  0  0
  2 17  1  0  0  0  0
  3 14  1  0  0  0  0
  4  9  2  0  0  0  0
  5 11  1  6  0  0  0
  5  7  1  0  0  0  0
  6 16  1  0  0  0  0
  7  2  2  0  0  0  0
  7  4  1  0  0  0  0
  8 12  1  0  0  0  0
  9  6  1  0  0  0  0
 10 14  1  0  0  0  0
 10 20  1  0  0  0  0
 12  4  1  0  0  0  0
 13 10  1  0  0  0  0
 14 18  1  0  0  0  0
 15 13  1  0  0  0  0
 17  6  2  0  0  0  0
 18  5  1  0  0  0  0
 18  8  1  0  0  0  0
 19 13  1  0  0  0  0
 19  1  1  0  0  0  0
 20 11  1  0  0  0  0
 22 24  1  0  0  0  0
 22 21  1  0  0  0  0
 23 28  1  0  0  0  0
 25 22  2  0  0  0  0
 26 23  2  0  0  0  0
 26 25  1  0  0  0  0
 27 23  1  0  0  0  0
 28 24  2  0  0  0  0
M  END
>  <MODEL>
8

>  <REMARK>
 VINA RESULT:      -8.0      3.032      5.518
  Name = 
  2 active torsions:
  status: ('A' for Active; 'I' for Inactive)
    1  A    between atoms: C_1  and  C_2
    2  A    between atoms: C_2  and  C_3
                            x       y       z     vdW  Elec       q    Type
                         _______ _______ _______ _____ _____    ______ ____

>  <TORSDO>
F 2

$$$$
=
 OpenBabel10262420533D

 28 32  0  0  1  0  0  0  0  0999 V2000
  185.3520  178.4090  138.2200 C   0  0  1  0  0  3  0  0  0  0  0  0
  188.8330  178.0300  142.3220 C   0  0  0  0  0  3  0  0  0  0  0  0
  183.1570  177.3560  140.9110 C   0  0  0  0  0  1  0  0  0  0  0  0
  187.1950  177.7890  144.1020 C   0  0  0  0  0  0  0  0  0  0  0  0
  186.4300  178.6280  141.8360 C   0  0  1  0  0  3  0  0  0  0  0  0
  189.5330  177.2940  144.5180 C   0  0  0  0  0  0  0  0  0  0  0  0
  187.5000  178.0870  142.7520 C   0  0  0  0  0  0  0  0  0  0  0  0
  184.8100  178.5720  143.7150 C   0  0  0  0  0  2  0  0  0  0  0  0
  188.2120  177.3750  144.9680 C   0  0  0  0  0  3  0  0  0  0  0  0
  184.4300  179.4650  140.1320 C   0  0  1  0  0  3  0  0  0  0  0  0
  186.5980  178.2260  140.3780 C   0  0  0  0  0  2  0  0  0  0  0  0
  185.7780  177.8080  144.6220 C   0  0  0  0  0  2  0  0  0  0  0  0
  183.4530  179.6530  138.9760 C   0  0  2  0  0  3  0  0  0  0  0  0
  183.9300  178.5970  141.3320 C   0  0  2  0  0  3  0  0  0  0  0  0
  182.1160  179.5040  139.3500 O   0  0  0  0  0  1  0  0  0  0  0  0
  190.5120  176.8970  145.3640 F   0  0  0  0  0  0  0  0  0  0  0  0
  189.8430  177.6260  143.1980 C   0  0  0  0  0  3  0  0  0  0  0  0
  185.0510  178.1550  142.2750 C   0  0  1  0  0  3  0  0  0  0  0  0
  183.8640  178.6100  137.9650 C   0  0  0  0  0  2  0  0  0  0  0  0
  185.6970  179.0150  139.5210 N   0  0  1  0  0  0  0  0  0  0  0  0
  185.8560  176.9750  137.9480 C   0  0  0  0  0  2  0  0  0  0  0  0
  187.0740  176.8910  137.0800 C   0  0  0  0  0  0  0  0  0  0  0  0
  189.3860  176.7210  135.5090 C   0  0  0  0  0  0  0  0  0  0  0  0
  187.8000  178.0470  136.7690 C   0  0  0  0  0  3  0  0  0  0  0  0
  187.5200  175.6470  136.6180 C   0  0  0  0  0  3  0  0  0  0  0  0
  188.6720  175.5620  135.8310 C   0  0  0  0  0  3  0  0  0  0  0  0
  190.5270  176.6370  134.7250 O   0  0  0  0  0  1  0  0  0  0  0  0
  188.9530  177.9630  135.9820 C   0  0  0  0  0  3  0  0  0  0  0  0
  1 21  1  1  0  0  0
  1 20  1  0  0  0  0
  2  7  2  0  0  0  0
  2 17  1  0  0  0  0
  3 14  1  0  0  0  0
  4 12  1  0  0  0  0
  4  9  2  0  0  0  0
  5 11  1  6  0  0  0
  5 18  1  0  0  0  0
  5  7  1  0  0  0  0
  6  9  1  0  0  0  0
  6 16  1  0  0  0  0
  7  4  1  0  0  0  0
  8 12  1  0  0  0  0
 10 14  1  0  0  0  0
 13 15  1  0  0  0  0
 13 10  1  0  0  0  0
 14 18  1  0  0  0  0
 17  6  2  0  0  0  0
 18  8  1  0  0  0  0
 19  1  1  0  0  0  0
 19 13  1  0  0  0  0
 20 10  1  0  0  0  0
 20 11  1  0  0  0  0
 22 21  1  0  0  0  0
 23 26  2  0  0  0  0
 23 28  1  0  0  0  0
 24 22  1  0  0  0  0
 25 22  2  0  0  0  0
 26 25  1  0  0  0  0
 27 23  1  0  0  0  0
 28 24  2  0  0  0  0
M  END
>  <MODEL>
9

>  <REMARK>
 VINA RESULT:      -7.9      3.303      5.591
  Name = 
  2 active torsions:
  status: ('A' for Active; 'I' for Inactive)
    1  A    between atoms: C_1  and  C_2
    2  A    between atoms: C_2  and  C_3
                            x       y       z     vdW  Elec       q    Type
                         _______ _______ _______ _____ _____    ______ ____

>  <TORSDO>
F 2

$$$$
