=
 OpenBabel10262419153D

 34 37  0  0  1  0  0  0  0  0999 V2000
  181.6630  179.3860  139.1460 N   0  0  0  0  0  0  0  0  0  0  0  0
  183.2840  179.1840  141.0770 C   0  0  2  0  0  3  0  0  0  0  0  0
  185.0620  178.7360  142.7250 C   0  0  0  0  0  0  0  0  0  0  0  0
  182.6880  179.0690  143.5300 C   0  0  0  0  0  2  0  0  0  0  0  0
  181.8230  179.0190  140.5790 C   0  0  2  0  0  3  0  0  0  0  0  0
  183.1680  178.5390  144.8740 C   0  0  0  0  0  2  0  0  0  0  0  0
  185.5020  178.9040  143.9770 C   0  0  0  0  0  3  0  0  0  0  0  0
  184.2470  178.7670  139.9590 C   0  0  2  0  0  3  0  0  0  0  0  0
  182.6790  180.3470  138.6980 C   0  0  0  0  0  2  0  0  0  0  0  0
  186.0160  178.6130  141.6660 N   0  0  0  0  0  0  0  0  0  0  0  0
  185.7020  178.6100  140.4010 C   0  0  0  0  0  0  0  0  0  0  0  0
  184.5740  179.0800  145.1490 C   0  0  2  0  0  3  0  0  0  0  0  0
  183.5970  178.5280  142.4210 C   0  0  1  0  0  3  0  0  0  0  0  0
  184.0960  179.7600  138.7960 C   0  0  0  0  0  2  0  0  0  0  0  0
  189.1150  177.9390  138.8940 C   0  0  0  0  0  0  0  0  0  0  0  0
  188.7780  177.6090  137.5770 C   0  0  0  0  0  3  0  0  0  0  0  0
  186.7620  178.2950  139.4110 C   0  0  0  0  0  0  0  0  0  0  0  0
  187.4410  177.6240  137.1710 C   0  0  0  0  0  3  0  0  0  0  0  0
  188.1130  178.2830  139.8050 C   0  0  0  0  0  3  0  0  0  0  0  0
  186.4380  177.9580  138.0850 C   0  0  0  0  0  3  0  0  0  0  0  0
  190.4130  177.9150  139.2910 F   0  0  0  0  0  0  0  0  0  0  0  0
  180.3440  179.9840  138.8750 C   0  0  0  0  0  3  0  0  0  0  0  0
  179.9930  181.0450  139.9090 C   0  0  0  0  0  1  0  0  0  0  0  0
  180.1970  180.5380  137.4590 C   0  0  0  0  0  1  0  0  0  0  0  0
  181.2600  177.6120  140.8390 C   0  0  0  0  0  2  0  0  0  0  0  0
  179.9160  177.6450  141.5500 C   0  0  0  0  0  1  0  0  0  0  0  0
  185.7390  179.5030  147.2140 O   0  0  0  0  0  1  0  0  0  0  0  0
  185.1950  178.4930  146.4180 C   0  0  2  0  0  3  0  0  0  0  0  0
  186.2300  177.5170  146.0900 N   0  0  0  0  0  2  0  0  0  0  0  0
  187.4990  177.9920  146.6290 C   0  0  0  0  0  3  0  0  0  0  0  0
  187.8920  177.1620  147.8430 C   0  0  0  0  0  2  0  0  0  0  0  0
  188.2150  177.9940  148.9240 O   0  0  0  0  0  1  0  0  0  0  0  0
  188.5870  177.9420  145.5630 C   0  0  0  0  0  2  0  0  0  0  0  0
  188.3680  176.8490  144.7210 O   0  0  0  0  0  1  0  0  0  0  0  0
  1  5  1  0  0  0  0
  2 13  1  0  0  0  0
  3  7  2  0  0  0  0
  4  6  1  0  0  0  0
  5 25  1  0  0  0  0
  5  2  1  0  0  0  0
  6 12  1  0  0  0  0
  7 12  1  0  0  0  0
  8 11  1  0  0  0  0
  8  2  1  0  0  0  0
  9 14  1  0  0  0  0
  9  1  1  0  0  0  0
 10  3  1  0  0  0  0
 11 10  2  0  0  0  0
 12 28  1  0  0  0  0
 13  3  1  0  0  0  0
 13  4  1  0  0  0  0
 14  8  1  0  0  0  0
 15 21  1  0  0  0  0
 15 19  1  0  0  0  0
 16 15  2  0  0  0  0
 17 19  2  0  0  0  0
 17 11  1  0  0  0  0
 18 16  1  0  0  0  0
 18 20  2  0  0  0  0
 20 17  1  0  0  0  0
 22  1  1  0  0  0  0
 22 23  1  0  0  0  0
 24 22  1  0  0  0  0
 25 26  1  0  0  0  0
 28 27  1  0  0  0  0
 29 28  1  0  0  0  0
 29 30  1  0  0  0  0
 30 31  1  0  0  0  0
 31 32  1  0  0  0  0
 33 30  1  0  0  0  0
 34 33  1  0  0  0  0
M  END
>  <MODEL>
1

>  <REMARK>
 VINA RESULT:      -7.9      0.000      0.000
  Name = 
  8 active torsions:
  status: ('A' for Active; 'I' for Inactive)
    1  A    between atoms: N_1  and  C_6
    2  A    between atoms: C_2  and  C_15
    3  A    between atoms: C_11  and  CA_20
    4  A    between atoms: C_12  and  C_28
    5  A    between atoms: N_13  and  CA_20
    6  A    between atoms: N_13  and  C_33
    7  A    between atoms: CB_14  and  CA_20
    8  A    between atoms: C_29  and  C_33
                            x       y       z     vdW  Elec       q    Type
                         _______ _______ _______ _____ _____    ______ ____

>  <TORSDO>
F 8

$$$$
=
 OpenBabel10262419153D

 34 37  0  0  1  0  0  0  0  0999 V2000
  191.3550  176.5730  144.5220 N   0  0  0  0  0  0  0  0  0  0  0  0
  188.9860  177.1630  143.8580 C   0  0  2  0  0  3  0  0  0  0  0  0
  186.8440  177.9190  142.9000 C   0  0  0  0  0  0  0  0  0  0  0  0
  187.1260  177.8770  145.4130 C   0  0  0  0  0  2  0  0  0  0  0  0
  190.1020  177.2620  144.9330 C   0  0  2  0  0  3  0  0  0  0  0  0
  185.8410  178.6910  145.4780 C   0  0  0  0  0  2  0  0  0  0  0  0
  185.5210  178.0350  143.0590 C   0  0  0  0  0  3  0  0  0  0  0  0
  189.6200  177.2670  142.4660 C   0  0  2  0  0  3  0  0  0  0  0  0
  191.1090  175.4950  143.5560 C   0  0  0  0  0  2  0  0  0  0  0  0
  187.3730  177.7510  141.5810 N   0  0  0  0  0  0  0  0  0  0  0  0
  188.6190  177.4670  141.3270 C   0  0  0  0  0  0  0  0  0  0  0  0
  184.8720  178.1760  144.4090 C   0  0  2  0  0  3  0  0  0  0  0  0
  187.8000  178.1050  144.0550 C   0  0  1  0  0  3  0  0  0  0  0  0
  190.5100  176.0340  142.2470 C   0  0  0  0  0  2  0  0  0  0  0  0
  189.0150  178.5260  137.7090 C   0  0  0  0  0  0  0  0  0  0  0  0
  189.9990  177.6370  137.2650 C   0  0  0  0  0  3  0  0  0  0  0  0
  189.0770  177.4990  139.9170 C   0  0  0  0  0  0  0  0  0  0  0  0
  190.5220  176.6780  138.1370 C   0  0  0  0  0  3  0  0  0  0  0  0
  188.5550  178.4550  139.0270 C   0  0  0  0  0  3  0  0  0  0  0  0
  190.0690  176.6140  139.4570 C   0  0  0  0  0  3  0  0  0  0  0  0
  188.5140  179.4640  136.8660 F   0  0  0  0  0  0  0  0  0  0  0  0
  192.0590  175.9790  145.6720 C   0  0  0  0  0  3  0  0  0  0  0  0
  191.2790  176.1790  146.9640 C   0  0  0  0  0  1  0  0  0  0  0  0
  192.4220  174.5080  145.4800 C   0  0  0  0  0  1  0  0  0  0  0  0
  190.3980  178.7110  145.3540 C   0  0  0  0  0  2  0  0  0  0  0  0
  191.3060  179.4300  144.3670 C   0  0  0  0  0  1  0  0  0  0  0  0
  183.1530  179.3920  145.5780 O   0  0  0  0  0  1  0  0  0  0  0  0
  183.6020  179.0220  144.3080 C   0  0  2  0  0  3  0  0  0  0  0  0
  182.5450  178.2980  143.6080 N   0  0  0  0  0  2  0  0  0  0  0  0
  181.9120  179.2080  142.6600 C   0  0  0  0  0  3  0  0  0  0  0  0
  182.0930  178.6880  141.2410 C   0  0  0  0  0  2  0  0  0  0  0  0
  180.9120  178.0890  140.7820 O   0  0  0  0  0  1  0  0  0  0  0  0
  180.4340  179.3830  142.9900 C   0  0  0  0  0  2  0  0  0  0  0  0
  180.0620  180.7130  142.7800 O   0  0  0  0  0  1  0  0  0  0  0  0
  1  5  1  0  0  0  0
  1 22  1  0  0  0  0
  2 13  1  0  0  0  0
  2  5  1  0  0  0  0
  3  7  2  0  0  0  0
  3 13  1  0  0  0  0
  4  6  1  0  0  0  0
  5 25  1  0  0  0  0
  7 12  1  0  0  0  0
  8  2  1  0  0  0  0
  9  1  1  0  0  0  0
 10  3  1  0  0  0  0
 11 10  2  0  0  0  0
 11  8  1  0  0  0  0
 12  6  1  0  0  0  0
 13  4  1  0  0  0  0
 14  8  1  0  0  0  0
 14  9  1  0  0  0  0
 15 19  1  0  0  0  0
 16 15  2  0  0  0  0
 16 18  1  0  0  0  0
 17 11  1  0  0  0  0
 18 20  2  0  0  0  0
 19 17  2  0  0  0  0
 20 17  1  0  0  0  0
 21 15  1  0  0  0  0
 22 23  1  0  0  0  0
 24 22  1  0  0  0  0
 26 25  1  0  0  0  0
 28 12  1  0  0  0  0
 28 27  1  0  0  0  0
 29 28  1  0  0  0  0
 30 33  1  0  0  0  0
 30 29  1  0  0  0  0
 31 30  1  0  0  0  0
 32 31  1  0  0  0  0
 34 33  1  0  0  0  0
M  END
>  <MODEL>
2

>  <REMARK>
 VINA RESULT:      -7.5      3.181      7.584
  Name = 
  8 active torsions:
  status: ('A' for Active; 'I' for Inactive)
    1  A    between atoms: N_1  and  C_6
    2  A    between atoms: C_2  and  C_15
    3  A    between atoms: C_11  and  CA_20
    4  A    between atoms: C_12  and  C_28
    5  A    between atoms: N_13  and  CA_20
    6  A    between atoms: N_13  and  C_33
    7  A    between atoms: CB_14  and  CA_20
    8  A    between atoms: C_29  and  C_33
                            x       y       z     vdW  Elec       q    Type
                         _______ _______ _______ _____ _____    ______ ____

>  <TORSDO>
F 8

$$$$
=
 OpenBabel10262419153D

 34 37  0  0  1  0  0  0  0  0999 V2000
  181.4170  179.4760  139.1130 N   0  0  0  0  0  0  0  0  0  0  0  0
  183.1370  179.1870  140.9450 C   0  0  2  0  0  3  0  0  0  0  0  0
  184.9950  178.6600  142.4780 C   0  0  0  0  0  0  0  0  0  0  0  0
  182.6720  178.9890  143.4210 C   0  0  0  0  0  2  0  0  0  0  0  0
  181.6500  179.0560  140.5210 C   0  0  2  0  0  3  0  0  0  0  0  0
  183.2160  178.4050  144.7180 C   0  0  0  0  0  2  0  0  0  0  0  0
  185.5030  178.7770  143.7090 C   0  0  0  0  0  3  0  0  0  0  0  0
  184.0330  178.8000  139.7630 C   0  0  2  0  0  3  0  0  0  0  0  0
  182.4200  180.4420  138.6450 C   0  0  0  0  0  2  0  0  0  0  0  0
  185.8890  178.5660  141.3650 N   0  0  0  0  0  0  0  0  0  0  0  0
  185.5080  178.6120  140.1190 C   0  0  0  0  0  0  0  0  0  0  0  0
  184.6420  178.9210  144.9350 C   0  0  2  0  0  3  0  0  0  0  0  0
  183.5130  178.4790  142.2460 C   0  0  1  0  0  3  0  0  0  0  0  0
  183.8320  179.8360  138.6460 C   0  0  0  0  0  2  0  0  0  0  0  0
  187.0320  177.8990  136.7230 C   0  0  0  0  0  0  0  0  0  0  0  0
  188.3960  177.8670  137.0300 C   0  0  0  0  0  3  0  0  0  0  0  0
  186.5090  178.3220  139.0630 C   0  0  0  0  0  0  0  0  0  0  0  0
  188.8210  178.0560  138.3490 C   0  0  0  0  0  3  0  0  0  0  0  0
  186.0940  178.1230  137.7340 C   0  0  0  0  0  3  0  0  0  0  0  0
  187.8830  178.2900  139.3580 C   0  0  0  0  0  3  0  0  0  0  0  0
  186.6190  177.7240  135.4410 F   0  0  0  0  0  0  0  0  0  0  0  0
  180.0930  180.0980  138.9350 C   0  0  0  0  0  3  0  0  0  0  0  0
  180.0000  181.4240  139.6760 C   0  0  0  0  0  1  0  0  0  0  0  0
  179.6800  180.2630  137.4740 C   0  0  0  0  0  1  0  0  0  0  0  0
  181.0830  177.6460  140.7610 C   0  0  0  0  0  2  0  0  0  0  0  0
  179.7870  177.6660  141.5570 C   0  0  0  0  0  1  0  0  0  0  0  0
  184.6240  178.5780  147.3190 O   0  0  0  0  0  1  0  0  0  0  0  0
  185.3220  178.2810  146.1470 C   0  0  2  0  0  3  0  0  0  0  0  0
  186.7030  178.7360  146.2720 N   0  0  0  0  0  2  0  0  0  0  0  0
  187.5140  177.6220  146.7510 C   0  0  0  0  0  3  0  0  0  0  0  0
  188.7710  177.4910  145.9020 C   0  0  0  0  0  2  0  0  0  0  0  0
  188.4940  176.7940  144.7180 O   0  0  0  0  0  1  0  0  0  0  0  0
  187.8700  177.8110  148.2210 C   0  0  0  0  0  2  0  0  0  0  0  0
  189.1120  178.4420  148.3250 O   0  0  0  0  0  1  0  0  0  0  0  0
  1  5  1  0  0  0  0
  2 13  1  0  0  0  0
  3  7  2  0  0  0  0
  4  6  1  0  0  0  0
  5 25  1  0  0  0  0
  5  2  1  0  0  0  0
  6 12  1  0  0  0  0
  7 12  1  0  0  0  0
  8 11  1  0  0  0  0
  8  2  1  0  0  0  0
  9 14  1  0  0  0  0
  9  1  1  0  0  0  0
 10  3  1  0  0  0  0
 11 10  2  0  0  0  0
 12 28  1  0  0  0  0
 13  3  1  0  0  0  0
 13  4  1  0  0  0  0
 14  8  1  0  0  0  0
 15 16  2  0  0  0  0
 15 19  1  0  0  0  0
 16 18  1  0  0  0  0
 17 20  1  0  0  0  0
 17 11  1  0  0  0  0
 18 20  2  0  0  0  0
 19 17  2  0  0  0  0
 21 15  1  0  0  0  0
 22  1  1  0  0  0  0
 22 23  1  0  0  0  0
 24 22  1  0  0  0  0
 25 26  1  0  0  0  0
 28 29  1  0  0  0  0
 28 27  1  0  0  0  0
 29 30  1  0  0  0  0
 30 33  1  0  0  0  0
 31 30  1  0  0  0  0
 32 31  1  0  0  0  0
 33 34  1  0  0  0  0
M  END
>  <MODEL>
3

>  <REMARK>
 VINA RESULT:      -7.4      1.076      1.782
  Name = 
  8 active torsions:
  status: ('A' for Active; 'I' for Inactive)
    1  A    between atoms: N_1  and  C_6
    2  A    between atoms: C_2  and  C_15
    3  A    between atoms: C_11  and  CA_20
    4  A    between atoms: C_12  and  C_28
    5  A    between atoms: N_13  and  CA_20
    6  A    between atoms: N_13  and  C_33
    7  A    between atoms: CB_14  and  CA_20
    8  A    between atoms: C_29  and  C_33
                            x       y       z     vdW  Elec       q    Type
                         _______ _______ _______ _____ _____    ______ ____

>  <TORSDO>
F 8

$$$$
=
 OpenBabel10262419153D

 34 37  0  0  1  0  0  0  0  0999 V2000
  191.8210  175.3720  137.2810 N   0  0  0  0  0  0  0  0  0  0  0  0
  189.8260  176.6470  138.1710 C   0  0  2  0  0  3  0  0  0  0  0  0
  187.9610  177.7090  139.3830 C   0  0  0  0  0  0  0  0  0  0  0  0
  187.6440  177.0530  136.9620 C   0  0  0  0  0  2  0  0  0  0  0  0
  190.3620  175.6230  137.1350 C   0  0  2  0  0  3  0  0  0  0  0  0
  186.1590  177.3030  137.1850 C   0  0  0  0  0  2  0  0  0  0  0  0
  186.8630  178.4700  139.3120 C   0  0  0  0  0  3  0  0  0  0  0  0
  190.5410  176.4290  139.5090 C   0  0  2  0  0  3  0  0  0  0  0  0
  192.5240  176.5060  137.8930 C   0  0  0  0  0  2  0  0  0  0  0  0
  188.7520  177.7430  140.5750 N   0  0  0  0  0  0  0  0  0  0  0  0
  189.9180  177.1730  140.6900 C   0  0  0  0  0  0  0  0  0  0  0  0
  185.9910  178.5290  138.0870 C   0  0  2  0  0  3  0  0  0  0  0  0
  188.3050  176.7120  138.3020 C   0  0  1  0  0  3  0  0  0  0  0  0
  192.0270  176.7740  139.3230 C   0  0  0  0  0  2  0  0  0  0  0  0
  191.6660  178.2760  143.8680 C   0  0  0  0  0  0  0  0  0  0  0  0
  191.6740  177.0890  144.6080 C   0  0  0  0  0  3  0  0  0  0  0  0
  190.5530  177.1280  142.0310 C   0  0  0  0  0  0  0  0  0  0  0  0
  191.1290  175.9210  144.0650 C   0  0  0  0  0  3  0  0  0  0  0  0
  191.1100  178.2950  142.5860 C   0  0  0  0  0  3  0  0  0  0  0  0
  190.5650  175.9430  142.7870 C   0  0  0  0  0  3  0  0  0  0  0  0
  192.1860  179.4120  144.3980 F   0  0  0  0  0  0  0  0  0  0  0  0
  192.4660  175.1060  135.9820 C   0  0  0  0  0  3  0  0  0  0  0  0
  193.5790  176.1050  135.7010 C   0  0  0  0  0  1  0  0  0  0  0  0
  192.9730  173.6730  135.8280 C   0  0  0  0  0  1  0  0  0  0  0  0
  189.5840  174.2960  137.1510 C   0  0  0  0  0  2  0  0  0  0  0  0
  189.0680  173.9060  135.7740 C   0  0  0  0  0  1  0  0  0  0  0  0
  184.3720  180.0710  138.9830 O   0  0  0  0  0  1  0  0  0  0  0  0
  184.5330  178.7790  138.4770 C   0  0  2  0  0  3  0  0  0  0  0  0
  184.0830  177.8070  139.4690 N   0  0  0  0  0  2  0  0  0  0  0  0
  183.5160  178.5310  140.6010 C   0  0  0  0  0  3  0  0  0  0  0  0
  182.0380  178.1950  140.7450 C   0  0  0  0  0  2  0  0  0  0  0  0
  181.5220  178.7390  141.9290 O   0  0  0  0  0  1  0  0  0  0  0  0
  184.2740  178.2040  141.8820 C   0  0  0  0  0  2  0  0  0  0  0  0
  184.9610  179.3390  142.3210 O   0  0  0  0  0  1  0  0  0  0  0  0
  1  9  1  0  0  0  0
  2 13  1  0  0  0  0
  2  8  1  0  0  0  0
  3 10  1  0  0  0  0
  4  6  1  0  0  0  0
  4 13  1  0  0  0  0
  5 25  1  0  0  0  0
  5  1  1  0  0  0  0
  5  2  1  0  0  0  0
  6 12  1  0  0  0  0
  7  3  2  0  0  0  0
  8 11  1  0  0  0  0
  9 14  1  0  0  0  0
 10 11  2  0  0  0  0
 11 17  1  0  0  0  0
 12 28  1  0  0  0  0
 12  7  1  0  0  0  0
 13  3  1  0  0  0  0
 14  8  1  0  0  0  0
 15 21  1  0  0  0  0
 15 16  1  0  0  0  0
 17 19  1  0  0  0  0
 17 20  2  0  0  0  0
 18 16  2  0  0  0  0
 19 15  2  0  0  0  0
 20 18  1  0  0  0  0
 22  1  1  0  0  0  0
 23 22  1  0  0  0  0
 24 22  1  0  0  0  0
 26 25  1  0  0  0  0
 28 27  1  0  0  0  0
 28 29  1  0  0  0  0
 29 30  1  0  0  0  0
 30 31  1  0  0  0  0
 30 33  1  0  0  0  0
 31 32  1  0  0  0  0
 33 34  1  0  0  0  0
M  END
>  <MODEL>
4

>  <REMARK>
 VINA RESULT:      -7.2      3.791      8.398
  Name = 
  8 active torsions:
  status: ('A' for Active; 'I' for Inactive)
    1  A    between atoms: N_1  and  C_6
    2  A    between atoms: C_2  and  C_15
    3  A    between atoms: C_11  and  CA_20
    4  A    between atoms: C_12  and  C_28
    5  A    between atoms: N_13  and  CA_20
    6  A    between atoms: N_13  and  C_33
    7  A    between atoms: CB_14  and  CA_20
    8  A    between atoms: C_29  and  C_33
                            x       y       z     vdW  Elec       q    Type
                         _______ _______ _______ _____ _____    ______ ____

>  <TORSDO>
F 8

$$$$
=
 OpenBabel10262419153D

 34 37  0  0  1  0  0  0  0  0999 V2000
  188.7620  176.9630  145.3780 N   0  0  0  0  0  0  0  0  0  0  0  0
  188.4060  177.7430  142.9980 C   0  0  2  0  0  3  0  0  0  0  0  0
  187.6900  178.3610  140.7210 C   0  0  0  0  0  0  0  0  0  0  0  0
  190.0590  177.5600  141.0960 C   0  0  0  0  0  2  0  0  0  0  0  0
  189.2200  176.8440  143.9670 C   0  0  2  0  0  3  0  0  0  0  0  0
  190.1630  177.4480  139.5810 C   0  0  0  0  0  2  0  0  0  0  0  0
  188.0460  178.8280  139.5200 C   0  0  0  0  0  3  0  0  0  0  0  0
  186.9370  177.7550  143.4380 C   0  0  2  0  0  3  0  0  0  0  0  0
  188.1210  178.2550  145.6510 C   0  0  0  0  0  2  0  0  0  0  0  0
  186.3710  178.6300  141.2070 N   0  0  0  0  0  0  0  0  0  0  0  0
  185.9750  178.3660  142.4200 C   0  0  0  0  0  0  0  0  0  0  0  0
  189.4220  178.6280  138.9440 C   0  0  2  0  0  3  0  0  0  0  0  0
  188.5890  177.4400  141.5120 C   0  0  1  0  0  3  0  0  0  0  0  0
  186.8490  178.4450  144.8090 C   0  0  0  0  0  2  0  0  0  0  0  0
  182.2160  178.6280  142.0070 C   0  0  0  0  0  0  0  0  0  0  0  0
  181.7950  178.7310  143.3360 C   0  0  0  0  0  3  0  0  0  0  0  0
  184.5350  178.5260  142.7420 C   0  0  0  0  0  0  0  0  0  0  0  0
  182.7370  178.7370  144.3700 C   0  0  0  0  0  3  0  0  0  0  0  0
  183.5780  178.5280  141.7110 C   0  0  0  0  0  3  0  0  0  0  0  0
  184.0980  178.6280  144.0750 C   0  0  0  0  0  3  0  0  0  0  0  0
  181.3020  178.6130  141.0030 F   0  0  0  0  0  0  0  0  0  0  0  0
  189.8750  176.8150  146.3320 C   0  0  0  0  0  3  0  0  0  0  0  0
  191.1680  177.3880  145.7680 C   0  0  0  0  0  1  0  0  0  0  0  0
  189.5830  177.3950  147.7150 C   0  0  0  0  0  1  0  0  0  0  0  0
  189.2450  175.3690  143.5330 C   0  0  0  0  0  2  0  0  0  0  0  0
  190.6500  174.8780  143.2190 C   0  0  0  0  0  1  0  0  0  0  0  0
  188.2380  179.2050  136.9280 O   0  0  0  0  0  1  0  0  0  0  0  0
  189.3570  178.5290  137.4190 C   0  0  2  0  0  3  0  0  0  0  0  0
  189.3130  177.1350  136.9870 N   0  0  0  0  0  2  0  0  0  0  0  0
  188.0490  176.9040  136.2980 C   0  0  0  0  0  3  0  0  0  0  0  0
  188.3060  176.2640  134.9410 C   0  0  0  0  0  2  0  0  0  0  0  0
  189.4820  175.5030  134.9710 O   0  0  0  0  0  1  0  0  0  0  0  0
  187.1280  176.0330  137.1440 C   0  0  0  0  0  2  0  0  0  0  0  0
  185.9940  176.7650  137.5080 O   0  0  0  0  0  1  0  0  0  0  0  0
  1  9  1  0  0  0  0
  1 22  1  0  0  0  0
  2  8  1  0  0  0  0
  2  5  1  0  0  0  0
  3 10  1  0  0  0  0
  3 13  1  0  0  0  0
  4 13  1  0  0  0  0
  5  1  1  0  0  0  0
  6  4  1  0  0  0  0
  7  3  2  0  0  0  0
  8 14  1  0  0  0  0
 10 11  2  0  0  0  0
 11 17  1  0  0  0  0
 11  8  1  0  0  0  0
 12  7  1  0  0  0  0
 12  6  1  0  0  0  0
 13  2  1  0  0  0  0
 14  9  1  0  0  0  0
 15 16  1  0  0  0  0
 16 18  2  0  0  0  0
 17 20  2  0  0  0  0
 19 15  2  0  0  0  0
 19 17  1  0  0  0  0
 20 18  1  0  0  0  0
 21 15  1  0  0  0  0
 22 24  1  0  0  0  0
 23 22  1  0  0  0  0
 25  5  1  0  0  0  0
 26 25  1  0  0  0  0
 27 28  1  0  0  0  0
 28 12  1  0  0  0  0
 29 28  1  0  0  0  0
 30 29  1  0  0  0  0
 30 33  1  0  0  0  0
 31 32  1  0  0  0  0
 31 30  1  0  0  0  0
 33 34  1  0  0  0  0
M  END
>  <MODEL>
5

>  <REMARK>
 VINA RESULT:      -6.9      4.010      8.832
  Name = 
  8 active torsions:
  status: ('A' for Active; 'I' for Inactive)
    1  A    between atoms: N_1  and  C_6
    2  A    between atoms: C_2  and  C_15
    3  A    between atoms: C_11  and  CA_20
    4  A    between atoms: C_12  and  C_28
    5  A    between atoms: N_13  and  CA_20
    6  A    between atoms: N_13  and  C_33
    7  A    between atoms: CB_14  and  CA_20
    8  A    between atoms: C_29  and  C_33
                            x       y       z     vdW  Elec       q    Type
                         _______ _______ _______ _____ _____    ______ ____

>  <TORSDO>
F 8

$$$$
=
 OpenBabel10262419153D

 34 37  0  0  1  0  0  0  0  0999 V2000
  187.3290  177.4050  144.9450 N   0  0  0  0  0  0  0  0  0  0  0  0
  187.3720  177.9770  142.4810 C   0  0  2  0  0  3  0  0  0  0  0  0
  187.0640  178.3480  140.0640 C   0  0  0  0  0  0  0  0  0  0  0  0
  189.3850  177.8910  140.9570 C   0  0  0  0  0  2  0  0  0  0  0  0
  188.0720  177.2570  143.6650 C   0  0  2  0  0  3  0  0  0  0  0  0
  189.8050  177.6960  139.5060 C   0  0  0  0  0  2  0  0  0  0  0  0
  187.5990  178.7780  138.9160 C   0  0  0  0  0  3  0  0  0  0  0  0
  185.8530  177.8240  142.6280 C   0  0  2  0  0  3  0  0  0  0  0  0
  186.5000  178.6170  144.9730 C   0  0  0  0  0  2  0  0  0  0  0  0
  185.6530  178.4710  140.2600 N   0  0  0  0  0  0  0  0  0  0  0  0
  185.0520  178.2370  141.3930 C   0  0  0  0  0  0  0  0  0  0  0  0
  189.0770  178.7250  138.6360 C   0  0  2  0  0  3  0  0  0  0  0  0
  187.8860  177.6050  141.0920 C   0  0  1  0  0  3  0  0  0  0  0  0
  185.4120  178.5830  143.8890 C   0  0  0  0  0  2  0  0  0  0  0  0
  181.4790  178.9330  142.4490 C   0  0  0  0  0  0  0  0  0  0  0  0
  180.7590  178.3010  141.4300 C   0  0  0  0  0  3  0  0  0  0  0  0
  183.5690  178.2260  141.4170 C   0  0  0  0  0  0  0  0  0  0  0  0
  181.4350  177.6280  140.4080 C   0  0  0  0  0  3  0  0  0  0  0  0
  182.8760  178.8940  142.4440 C   0  0  0  0  0  3  0  0  0  0  0  0
  182.8320  177.5980  140.3980 C   0  0  0  0  0  3  0  0  0  0  0  0
  180.8230  179.5940  143.4360 F   0  0  0  0  0  0  0  0  0  0  0  0
  188.2360  177.4680  146.1050 C   0  0  0  0  0  3  0  0  0  0  0  0
  189.5400  178.1680  145.7510 C   0  0  0  0  0  1  0  0  0  0  0  0
  187.6050  178.0910  147.3490 C   0  0  0  0  0  1  0  0  0  0  0  0
  188.3560  175.7730  143.3770 C   0  0  0  0  0  2  0  0  0  0  0  0
  189.8400  175.4860  143.2030 C   0  0  0  0  0  1  0  0  0  0  0  0
  188.1300  178.5100  136.4310 O   0  0  0  0  0  1  0  0  0  0  0  0
  189.3320  178.5190  137.1420 C   0  0  2  0  0  3  0  0  0  0  0  0
  190.0510  177.2710  136.9010 N   0  0  0  0  0  2  0  0  0  0  0  0
  189.1680  176.3620  136.1800 C   0  0  0  0  0  3  0  0  0  0  0  0
  189.8250  175.9220  134.8790 C   0  0  0  0  0  2  0  0  0  0  0  0
  191.1850  176.2590  134.8760 O   0  0  0  0  0  1  0  0  0  0  0  0
  188.8170  175.1570  137.0450 C   0  0  0  0  0  2  0  0  0  0  0  0
  189.9810  174.6300  137.6100 O   0  0  0  0  0  1  0  0  0  0  0  0
  1  9  1  0  0  0  0
  1 22  1  0  0  0  0
  2  8  1  0  0  0  0
  2  5  1  0  0  0  0
  3 10  1  0  0  0  0
  3 13  1  0  0  0  0
  4 13  1  0  0  0  0
  5  1  1  0  0  0  0
  6  4  1  0  0  0  0
  7  3  2  0  0  0  0
  8 14  1  0  0  0  0
 10 11  2  0  0  0  0
 11 17  1  0  0  0  0
 11  8  1  0  0  0  0
 12  7  1  0  0  0  0
 12  6  1  0  0  0  0
 13  2  1  0  0  0  0
 14  9  1  0  0  0  0
 15 21  1  0  0  0  0
 16 15  2  0  0  0  0
 17 19  2  0  0  0  0
 18 16  1  0  0  0  0
 19 15  1  0  0  0  0
 20 18  2  0  0  0  0
 20 17  1  0  0  0  0
 22 24  1  0  0  0  0
 23 22  1  0  0  0  0
 25  5  1  0  0  0  0
 26 25  1  0  0  0  0
 27 28  1  0  0  0  0
 28 12  1  0  0  0  0
 29 28  1  0  0  0  0
 30 29  1  0  0  0  0
 30 33  1  0  0  0  0
 31 30  1  0  0  0  0
 32 31  1  0  0  0  0
 33 34  1  0  0  0  0
M  END
>  <MODEL>
6

>  <REMARK>
 VINA RESULT:      -6.5      4.035      8.421
  Name = 
  8 active torsions:
  status: ('A' for Active; 'I' for Inactive)
    1  A    between atoms: N_1  and  C_6
    2  A    between atoms: C_2  and  C_15
    3  A    between atoms: C_11  and  CA_20
    4  A    between atoms: C_12  and  C_28
    5  A    between atoms: N_13  and  CA_20
    6  A    between atoms: N_13  and  C_33
    7  A    between atoms: CB_14  and  CA_20
    8  A    between atoms: C_29  and  C_33
                            x       y       z     vdW  Elec       q    Type
                         _______ _______ _______ _____ _____    ______ ____

>  <TORSDO>
F 8

$$$$
=
 OpenBabel10262419153D

 34 37  0  0  1  0  0  0  0  0999 V2000
  186.9010  177.2450  136.6780 N   0  0  0  0  0  0  0  0  0  0  0  0
  186.7110  177.6160  139.1730 C   0  0  2  0  0  3  0  0  0  0  0  0
  186.3010  178.2910  141.5090 C   0  0  0  0  0  0  0  0  0  0  0  0
  188.5610  177.3490  140.8740 C   0  0  0  0  0  2  0  0  0  0  0  0
  187.6470  177.4950  137.9410 C   0  0  2  0  0  3  0  0  0  0  0  0
  189.0430  177.8380  142.2330 C   0  0  0  0  0  2  0  0  0  0  0  0
  186.5950  178.1030  142.8000 C   0  0  0  0  0  3  0  0  0  0  0  0
  185.4300  178.3510  138.7610 C   0  0  2  0  0  3  0  0  0  0  0  0
  185.6080  176.5890  136.9130 C   0  0  0  0  0  2  0  0  0  0  0  0
  184.9870  178.7310  141.1530 N   0  0  0  0  0  0  0  0  0  0  0  0
  184.5460  178.7890  139.9280 C   0  0  0  0  0  0  0  0  0  0  0  0
  187.9360  177.6050  143.2660 C   0  0  2  0  0  3  0  0  0  0  0  0
  187.3570  178.1900  140.4340 C   0  0  1  0  0  3  0  0  0  0  0  0
  184.6720  177.4700  137.7550 C   0  0  0  0  0  2  0  0  0  0  0  0
  180.8590  179.6280  140.1910 C   0  0  0  0  0  0  0  0  0  0  0  0
  180.7530  180.7000  139.2990 C   0  0  0  0  0  3  0  0  0  0  0  0
  183.2320  179.4320  139.6810 C   0  0  0  0  0  0  0  0  0  0  0  0
  181.8770  181.1390  138.5940 C   0  0  0  0  0  3  0  0  0  0  0  0
  182.0910  178.9970  140.3790 C   0  0  0  0  0  3  0  0  0  0  0  0
  183.1110  180.5130  138.7900 C   0  0  0  0  0  3  0  0  0  0  0  0
  179.7690  179.2080  140.8820 F   0  0  0  0  0  0  0  0  0  0  0  0
  187.6620  176.3930  135.7480 C   0  0  0  0  0  3  0  0  0  0  0  0
  188.4480  177.2290  134.7480 C   0  0  0  0  0  1  0  0  0  0  0  0
  188.5720  175.3810  136.4420 C   0  0  0  0  0  1  0  0  0  0  0  0
  188.5840  178.7040  137.7820 C   0  0  0  0  0  2  0  0  0  0  0  0
  190.0500  178.3290  137.9310 C   0  0  0  0  0  1  0  0  0  0  0  0
  189.6610  178.3300  144.7850 O   0  0  0  0  0  1  0  0  0  0  0  0
  188.2780  178.1890  144.6380 C   0  0  2  0  0  3  0  0  0  0  0  0
  187.7570  177.3470  145.7100 N   0  0  0  0  0  2  0  0  0  0  0  0
  187.2560  178.2100  146.7740 C   0  0  0  0  0  3  0  0  0  0  0  0
  185.7340  178.2110  146.7690 C   0  0  0  0  0  2  0  0  0  0  0  0
  185.2440  179.3950  146.2000 O   0  0  0  0  0  1  0  0  0  0  0  0
  187.7940  177.7610  148.1270 C   0  0  0  0  0  2  0  0  0  0  0  0
  189.1820  177.9200  148.1550 O   0  0  0  0  0  1  0  0  0  0  0  0
  1  9  1  0  0  0  0
  1  5  1  0  0  0  0
  2 13  1  0  0  0  0
  3  7  2  0  0  0  0
  4  6  1  0  0  0  0
  5  2  1  0  0  0  0
  6 12  1  0  0  0  0
  7 12  1  0  0  0  0
  8  2  1  0  0  0  0
  8 11  1  0  0  0  0
  9 14  1  0  0  0  0
 10  3  1  0  0  0  0
 11 10  2  0  0  0  0
 12 28  1  0  0  0  0
 13  4  1  0  0  0  0
 13  3  1  0  0  0  0
 14  8  1  0  0  0  0
 15 19  1  0  0  0  0
 15 21  1  0  0  0  0
 16 15  2  0  0  0  0
 17 11  1  0  0  0  0
 17 19  2  0  0  0  0
 18 20  2  0  0  0  0
 18 16  1  0  0  0  0
 20 17  1  0  0  0  0
 22 24  1  0  0  0  0
 22  1  1  0  0  0  0
 23 22  1  0  0  0  0
 25 26  1  0  0  0  0
 25  5  1  0  0  0  0
 28 27  1  0  0  0  0
 28 29  1  0  0  0  0
 29 30  1  0  0  0  0
 30 33  1  0  0  0  0
 31 30  1  0  0  0  0
 32 31  1  0  0  0  0
 33 34  1  0  0  0  0
M  END
>  <MODEL>
7

>  <REMARK>
 VINA RESULT:      -6.3      2.509      5.937
  Name = 
  8 active torsions:
  status: ('A' for Active; 'I' for Inactive)
    1  A    between atoms: N_1  and  C_6
    2  A    between atoms: C_2  and  C_15
    3  A    between atoms: C_11  and  CA_20
    4  A    between atoms: C_12  and  C_28
    5  A    between atoms: N_13  and  CA_20
    6  A    between atoms: N_13  and  C_33
    7  A    between atoms: CB_14  and  CA_20
    8  A    between atoms: C_29  and  C_33
                            x       y       z     vdW  Elec       q    Type
                         _______ _______ _______ _____ _____    ______ ____

>  <TORSDO>
F 8

$$$$
=
 OpenBabel10262419153D

 34 37  0  0  1  0  0  0  0  0999 V2000
  186.0570  178.1480  144.6490 N   0  0  0  0  0  0  0  0  0  0  0  0
  186.5150  178.3430  142.1690 C   0  0  2  0  0  3  0  0  0  0  0  0
  186.6450  178.2980  139.7070 C   0  0  0  0  0  0  0  0  0  0  0  0
  188.7840  178.3180  141.0560 C   0  0  0  0  0  2  0  0  0  0  0  0
  187.0480  177.9170  143.5630 C   0  0  2  0  0  3  0  0  0  0  0  0
  189.4970  177.9690  139.7570 C   0  0  0  0  0  2  0  0  0  0  0  0
  187.3410  178.6230  138.6130 C   0  0  0  0  0  3  0  0  0  0  0  0
  185.0240  177.9980  142.0740 C   0  0  2  0  0  3  0  0  0  0  0  0
  185.1080  179.2190  144.3210 C   0  0  0  0  0  2  0  0  0  0  0  0
  185.2170  178.2460  139.6310 N   0  0  0  0  0  0  0  0  0  0  0  0
  184.4380  178.1010  140.6660 C   0  0  0  0  0  0  0  0  0  0  0  0
  188.8410  178.7400  138.6070 C   0  0  2  0  0  3  0  0  0  0  0  0
  187.3280  177.8440  140.9760 C   0  0  1  0  0  3  0  0  0  0  0  0
  184.2630  178.8670  143.0870 C   0  0  0  0  0  2  0  0  0  0  0  0
  181.1790  176.4560  139.6440 C   0  0  0  0  0  0  0  0  0  0  0  0
  180.2430  177.4040  140.0690 C   0  0  0  0  0  3  0  0  0  0  0  0
  182.9890  177.8820  140.4330 C   0  0  0  0  0  0  0  0  0  0  0  0
  180.6720  178.5910  140.6710 C   0  0  0  0  0  3  0  0  0  0  0  0
  182.5450  176.6940  139.8230 C   0  0  0  0  0  3  0  0  0  0  0  0
  182.0360  178.8250  140.8580 C   0  0  0  0  0  3  0  0  0  0  0  0
  180.7640  175.2990  139.0690 F   0  0  0  0  0  0  0  0  0  0  0  0
  186.7090  178.5130  145.9200 C   0  0  0  0  0  3  0  0  0  0  0  0
  185.7810  179.3390  146.8000 C   0  0  0  0  0  1  0  0  0  0  0  0
  187.2680  177.3200  146.6910 C   0  0  0  0  0  1  0  0  0  0  0  0
  187.5480  176.4630  143.5920 C   0  0  0  0  0  2  0  0  0  0  0  0
  189.0550  176.3680  143.7770 C   0  0  0  0  0  1  0  0  0  0  0  0
  188.3740  178.1720  136.3130 O   0  0  0  0  0  1  0  0  0  0  0  0
  189.4050  178.3510  137.2390 C   0  0  2  0  0  3  0  0  0  0  0  0
  190.1990  177.1300  137.3290 N   0  0  0  0  0  2  0  0  0  0  0  0
  189.6750  176.1670  136.3670 C   0  0  0  0  0  3  0  0  0  0  0  0
  190.5730  176.1200  135.1380 C   0  0  0  0  0  2  0  0  0  0  0  0
  190.6350  174.8170  134.6240 O   0  0  0  0  0  1  0  0  0  0  0  0
  189.5510  174.7870  137.0010 C   0  0  0  0  0  2  0  0  0  0  0  0
  190.5570  174.6190  137.9570 O   0  0  0  0  0  1  0  0  0  0  0  0
  1 22  1  0  0  0  0
  2  5  1  0  0  0  0
  3 13  1  0  0  0  0
  5 25  1  0  0  0  0
  5  1  1  0  0  0  0
  6  4  1  0  0  0  0
  7  3  2  0  0  0  0
  8  2  1  0  0  0  0
  8 14  1  0  0  0  0
  9  1  1  0  0  0  0
 10  3  1  0  0  0  0
 10 11  2  0  0  0  0
 11  8  1  0  0  0  0
 12  7  1  0  0  0  0
 12  6  1  0  0  0  0
 13  4  1  0  0  0  0
 13  2  1  0  0  0  0
 14  9  1  0  0  0  0
 15 19  2  0  0  0  0
 15 16  1  0  0  0  0
 16 18  2  0  0  0  0
 17 11  1  0  0  0  0
 17 20  2  0  0  0  0
 18 20  1  0  0  0  0
 19 17  1  0  0  0  0
 21 15  1  0  0  0  0
 22 24  1  0  0  0  0
 22 23  1  0  0  0  0
 25 26  1  0  0  0  0
 27 28  1  0  0  0  0
 28 29  1  0  0  0  0
 28 12  1  0  0  0  0
 30 33  1  0  0  0  0
 30 29  1  0  0  0  0
 31 30  1  0  0  0  0
 32 31  1  0  0  0  0
 33 34  1  0  0  0  0
M  END
>  <MODEL>
8

>  <REMARK>
 VINA RESULT:      -6.2      3.896      8.062
  Name = 
  8 active torsions:
  status: ('A' for Active; 'I' for Inactive)
    1  A    between atoms: N_1  and  C_6
    2  A    between atoms: C_2  and  C_15
    3  A    between atoms: C_11  and  CA_20
    4  A    between atoms: C_12  and  C_28
    5  A    between atoms: N_13  and  CA_20
    6  A    between atoms: N_13  and  C_33
    7  A    between atoms: CB_14  and  CA_20
    8  A    between atoms: C_29  and  C_33
                            x       y       z     vdW  Elec       q    Type
                         _______ _______ _______ _____ _____    ______ ____

>  <TORSDO>
F 8

$$$$
=
 OpenBabel10262419153D

 34 37  0  0  1  0  0  0  0  0999 V2000
  192.2530  175.5660  137.5140 N   0  0  0  0  0  0  0  0  0  0  0  0
  190.1090  176.6740  138.2720 C   0  0  2  0  0  3  0  0  0  0  0  0
  188.0910  177.5810  139.3610 C   0  0  0  0  0  0  0  0  0  0  0  0
  187.9850  176.9120  136.9240 C   0  0  0  0  0  2  0  0  0  0  0  0
  190.7910  175.7000  137.2740 C   0  0  2  0  0  3  0  0  0  0  0  0
  186.4730  177.0420  137.0500 C   0  0  0  0  0  2  0  0  0  0  0  0
  186.9430  178.2520  139.2180 C   0  0  0  0  0  3  0  0  0  0  0  0
  190.7520  176.5080  139.6540 C   0  0  2  0  0  3  0  0  0  0  0  0
  192.8230  176.7490  138.1710 C   0  0  0  0  0  2  0  0  0  0  0  0
  188.7990  177.6720  140.6010 N   0  0  0  0  0  0  0  0  0  0  0  0
  189.9970  177.1950  140.7920 C   0  0  0  0  0  0  0  0  0  0  0  0
  186.1510  178.2480  137.9390 C   0  0  2  0  0  3  0  0  0  0  0  0
  188.5830  176.6190  138.3050 C   0  0  1  0  0  3  0  0  0  0  0  0
  192.2150  176.9700  139.5650 C   0  0  0  0  0  2  0  0  0  0  0  0
  191.5820  175.9960  144.0190 C   0  0  0  0  0  0  0  0  0  0  0  0
  191.6740  177.1880  144.7450 C   0  0  0  0  0  3  0  0  0  0  0  0
  190.5450  177.1950  142.1710 C   0  0  0  0  0  0  0  0  0  0  0  0
  191.2000  178.3820  144.1930 C   0  0  0  0  0  3  0  0  0  0  0  0
  191.0190  175.9990  142.7400 C   0  0  0  0  0  3  0  0  0  0  0  0
  190.6450  178.3860  142.9110 C   0  0  0  0  0  3  0  0  0  0  0  0
  192.0510  174.8390  144.5510 F   0  0  0  0  0  0  0  0  0  0  0  0
  193.0000  175.3570  136.2610 C   0  0  0  0  0  3  0  0  0  0  0  0
  193.2710  173.8800  136.0170 C   0  0  0  0  0  1  0  0  0  0  0  0
  192.3440  175.9970  135.0390 C   0  0  0  0  0  1  0  0  0  0  0  0
  190.1220  174.3160  137.2400 C   0  0  0  0  0  2  0  0  0  0  0  0
  189.5670  173.9690  135.8670 C   0  0  0  0  0  1  0  0  0  0  0  0
  184.4410  178.6470  139.5870 O   0  0  0  0  0  1  0  0  0  0  0  0
  184.6560  178.3800  138.2330 C   0  0  2  0  0  3  0  0  0  0  0  0
  183.9390  177.1650  137.8550 N   0  0  0  0  0  2  0  0  0  0  0  0
  182.5390  177.3180  138.2360 C   0  0  0  0  0  3  0  0  0  0  0  0
  181.7290  177.8200  137.0490 C   0  0  0  0  0  2  0  0  0  0  0  0
  180.6420  178.5890  137.4860 O   0  0  0  0  0  1  0  0  0  0  0  0
  181.9790  176.0000  138.7580 C   0  0  0  0  0  2  0  0  0  0  0  0
  181.1150  176.2490  139.8270 O   0  0  0  0  0  1  0  0  0  0  0  0
  1  9  1  0  0  0  0
  2 13  1  0  0  0  0
  2  8  1  0  0  0  0
  3 10  1  0  0  0  0
  4  6  1  0  0  0  0
  4 13  1  0  0  0  0
  5  1  1  0  0  0  0
  5  2  1  0  0  0  0
  6 12  1  0  0  0  0
  7  3  2  0  0  0  0
  8 11  1  0  0  0  0
  9 14  1  0  0  0  0
 10 11  2  0  0  0  0
 11 17  1  0  0  0  0
 12 28  1  0  0  0  0
 12  7  1  0  0  0  0
 13  3  1  0  0  0  0
 14  8  1  0  0  0  0
 15 21  1  0  0  0  0
 15 16  1  0  0  0  0
 17 19  1  0  0  0  0
 17 20  2  0  0  0  0
 18 16  2  0  0  0  0
 19 15  2  0  0  0  0
 20 18  1  0  0  0  0
 22  1  1  0  0  0  0
 23 22  1  0  0  0  0
 24 22  1  0  0  0  0
 25  5  1  0  0  0  0
 26 25  1  0  0  0  0
 28 27  1  0  0  0  0
 29 28  1  0  0  0  0
 29 30  1  0  0  0  0
 30 33  1  0  0  0  0
 31 32  1  0  0  0  0
 31 30  1  0  0  0  0
 33 34  1  0  0  0  0
M  END
>  <MODEL>
9

>  <REMARK>
 VINA RESULT:      -6.1      4.478      9.079
  Name = 
  8 active torsions:
  status: ('A' for Active; 'I' for Inactive)
    1  A    between atoms: N_1  and  C_6
    2  A    between atoms: C_2  and  C_15
    3  A    between atoms: C_11  and  CA_20
    4  A    between atoms: C_12  and  C_28
    5  A    between atoms: N_13  and  CA_20
    6  A    between atoms: N_13  and  C_33
    7  A    between atoms: CB_14  and  CA_20
    8  A    between atoms: C_29  and  C_33
                            x       y       z     vdW  Elec       q    Type
                         _______ _______ _______ _____ _____    ______ ____

>  <TORSDO>
F 8

$$$$
