=
 OpenBabel10262423353D

 34 39  0  0  1  0  0  0  0  0999 V2000
  188.2670  177.9080  142.8380 C   0  0  0  0  0  0  0  0  0  0  0  0
  188.2960  177.4120  146.4930 C   0  0  0  0  0  3  0  0  0  0  0  0
  186.4740  178.2160  145.1520 C   0  0  0  0  0  2  0  0  0  0  0  0
  188.4140  178.2960  140.4600 C   0  0  0  0  0  0  0  0  0  0  0  0
  189.0050  178.0150  141.6010 N   0  0  0  0  0  0  0  0  0  0  0  0
  186.2310  178.3550  141.5960 C   0  0  0  0  0  0  0  0  0  0  0  0
  184.9590  178.7850  141.9430 C   0  0  0  0  0  3  0  0  0  0  0  0
  186.9820  178.5220  140.3930 N   0  0  0  0  0  2  0  0  0  0  0  0
  186.0240  178.2300  143.7650 N   0  0  0  0  0  0  0  0  0  0  0  0
  186.8390  178.0370  142.7430 C   0  0  0  0  0  0  0  0  0  0  0  0
  184.8660  178.6860  143.3010 N   0  0  0  0  0  0  0  0  0  0  0  0
  189.5790  176.9310  147.0150 C   0  0  0  0  0  3  0  0  0  0  0  0
  190.7870  176.8720  146.4500 C   0  0  0  0  0  0  0  0  0  0  0  0
  191.1020  177.3390  145.0900 C   0  0  0  0  0  3  0  0  0  0  0  0
  187.9320  177.7740  145.2660 C   0  0  0  0  0  0  0  0  0  0  0  0
  190.2970  177.7000  144.0980 C   0  0  0  0  0  3  0  0  0  0  0  0
  188.8300  177.7630  144.0520 C   0  0  0  0  0  0  0  0  0  0  0  0
  191.8710  176.3550  147.2400 N   0  0  0  0  0  0  0  0  0  0  0  0
  192.2850  177.0070  148.3540 O   0  0  0  0  0  1  0  0  0  0  0  0
  192.5140  175.1640  146.8770 N   0  0  0  0  0  1  0  0  0  0  0  0
  189.2200  178.3210  139.1980 C   0  0  0  0  0  2  0  0  0  0  0  0
  189.5760  177.0870  137.0250 C   0  0  0  0  0  0  0  0  0  0  0  0
  190.4780  176.1490  138.9710 C   0  0  0  0  0  3  0  0  0  0  0  0
  192.5400  175.4720  135.4290 N   0  0  0  0  0  0  0  0  0  0  0  0
  193.3690  175.5140  136.6660 C   0  0  2  0  0  0  0  0  0  0  0  0
  191.4510  176.4690  135.4280 C   0  0  0  0  0  2  0  0  0  0  0  0
  194.5250  174.5330  136.5580 C   0  0  0  0  0  1  0  0  0  0  0  0
  190.7180  176.4920  136.7360 C   0  0  0  0  0  0  0  0  0  0  0  0
  191.9490  174.1500  135.2160 C   0  0  0  0  0  1  0  0  0  0  0  0
  192.5560  175.1740  137.9340 C   0  0  0  0  0  2  0  0  0  0  0  0
  191.2790  175.9410  137.9380 C   0  0  0  0  0  0  0  0  0  0  0  0
  193.9160  176.7930  136.8130 O   0  0  0  0  0  1  0  0  0  0  0  0
  189.2960  176.9560  138.4960 C   0  0  1  0  0  3  0  0  0  0  0  0
  188.7120  177.8060  136.0440 C   0  0  0  0  0  1  0  0  0  0  0  0
  1 17  2  0  0  0  0
  2 12  1  0  0  0  0
  3 15  1  0  0  0  0
  4  5  2  0  0  0  0
  5  1  1  0  0  0  0
  6  7  1  0  0  0  0
  6 10  2  0  0  0  0
  7 11  2  0  0  0  0
  8  4  1  0  0  0  0
  8  6  1  0  0  0  0
  9  3  1  0  0  0  0
 10  1  1  0  0  0  0
 10  9  1  0  0  0  0
 11  9  1  0  0  0  0
 13 12  2  0  0  0  0
 13 18  1  0  0  0  0
 14 13  1  0  0  0  0
 15  2  2  0  0  0  0
 16 14  2  0  0  0  0
 17 16  1  0  0  0  0
 17 15  1  0  0  0  0
 18 19  1  0  0  0  0
 20 18  1  0  0  0  0
 21  4  1  0  0  0  0
 22 33  1  0  0  0  0
 24 25  1  0  0  0  0
 25 27  1  6  0  0  0
 25 32  1  0  0  0  0
 25 30  1  0  0  0  0
 26 24  1  0  0  0  0
 26 28  1  0  0  0  0
 28 22  2  0  0  0  0
 28 31  1  0  0  0  0
 29 24  1  0  0  0  0
 30 31  1  0  0  0  0
 31 23  2  0  0  0  0
 33 23  1  0  0  0  0
 33 21  1  1  0  0  0
 34 22  1  0  0  0  0
M  END
>  <MODEL>
1

>  <REMARK>
 VINA RESULT:     -10.6      0.000      0.000
  Name = 
  3 active torsions:
  status: ('A' for Active; 'I' for Inactive)
    1  A    between atoms: N_3  and  C_25
    2  A    between atoms: C_8  and  C_18
    3  A    between atoms: C_18  and  C_30
                            x       y       z     vdW  Elec       q    Type
                         _______ _______ _______ _____ _____    ______ ____

>  <TORSDO>
F 3

$$$$
=
 OpenBabel10262423353D

 34 39  0  0  1  0  0  0  0  0999 V2000
  187.8210  177.6210  144.3650 C   0  0  0  0  0  0  0  0  0  0  0  0
  184.6150  178.6500  145.8720 C   0  0  0  0  0  3  0  0  0  0  0  0
  186.6090  177.9670  147.0240 C   0  0  0  0  0  2  0  0  0  0  0  0
  189.8250  176.8600  143.2540 C   0  0  0  0  0  0  0  0  0  0  0  0
  188.5570  177.2070  143.1930 N   0  0  0  0  0  0  0  0  0  0  0  0
  189.8470  177.3370  145.6690 C   0  0  0  0  0  0  0  0  0  0  0  0
  190.1150  177.1810  147.0210 C   0  0  0  0  0  3  0  0  0  0  0  0
  190.5450  176.8670  144.5150 N   0  0  0  0  0  2  0  0  0  0  0  0
  188.0410  177.8190  146.7940 N   0  0  0  0  0  0  0  0  0  0  0  0
  188.5690  177.7180  145.5870 C   0  0  0  0  0  0  0  0  0  0  0  0
  188.9680  177.4970  147.6890 N   0  0  0  0  0  0  0  0  0  0  0  0
  183.5800  178.9840  144.8890 C   0  0  0  0  0  3  0  0  0  0  0  0
  183.5130  178.7550  143.5750 C   0  0  0  0  0  0  0  0  0  0  0  0
  184.5370  178.0430  142.7940 C   0  0  0  0  0  3  0  0  0  0  0  0
  185.8480  178.1730  145.7150 C   0  0  0  0  0  0  0  0  0  0  0  0
  185.7690  177.6750  143.1250 C   0  0  0  0  0  3  0  0  0  0  0  0
  186.4950  177.8510  144.3900 C   0  0  0  0  0  0  0  0  0  0  0  0
  182.3370  179.1980  142.8780 N   0  0  0  0  0  0  0  0  0  0  0  0
  181.4440  180.0190  143.4830 O   0  0  0  0  0  1  0  0  0  0  0  0
  182.0950  178.7940  141.5580 N   0  0  0  0  0  1  0  0  0  0  0  0
  190.5560  176.5110  141.9940 C   0  0  0  0  0  2  0  0  0  0  0  0
  191.0100  177.1230  139.5870 C   0  0  0  0  0  0  0  0  0  0  0  0
  188.9590  177.7740  140.5100 C   0  0  0  0  0  3  0  0  0  0  0  0
  189.0000  176.9070  136.4470 N   0  0  0  0  0  0  0  0  0  0  0  0
  187.7160  176.6450  137.1550 C   0  0  2  0  0  0  0  0  0  0  0  0
  190.1870  176.5560  137.2530 C   0  0  0  0  0  2  0  0  0  0  0  0
  186.5410  176.9360  136.2360 C   0  0  0  0  0  1  0  0  0  0  0  0
  190.0720  177.0610  138.6600 C   0  0  0  0  0  0  0  0  0  0  0  0
  189.1220  178.3080  136.0430 C   0  0  0  0  0  1  0  0  0  0  0  0
  187.5600  177.4970  138.4330 C   0  0  0  0  0  2  0  0  0  0  0  0
  188.8120  177.4360  139.2380 C   0  0  0  0  0  0  0  0  0  0  0  0
  187.6500  175.2920  137.5060 O   0  0  0  0  0  1  0  0  0  0  0  0
  190.4040  177.5690  140.8890 C   0  0  1  0  0  3  0  0  0  0  0  0
  192.4450  176.7740  139.3800 C   0  0  0  0  0  1  0  0  0  0  0  0
  1 17  2  0  0  0  0
  1 10  1  0  0  0  0
  4  8  1  0  0  0  0
  5  4  2  0  0  0  0
  5  1  1  0  0  0  0
  6  7  1  0  0  0  0
  7 11  2  0  0  0  0
  8  6  1  0  0  0  0
  9  3  1  0  0  0  0
  9 11  1  0  0  0  0
 10  6  2  0  0  0  0
 10  9  1  0  0  0  0
 12  2  1  0  0  0  0
 13 12  2  0  0  0  0
 14 16  2  0  0  0  0
 14 13  1  0  0  0  0
 15  2  2  0  0  0  0
 15  3  1  0  0  0  0
 16 17  1  0  0  0  0
 17 15  1  0  0  0  0
 18 19  1  0  0  0  0
 18 13  1  0  0  0  0
 20 18  1  0  0  0  0
 21  4  1  0  0  0  0
 22 33  1  0  0  0  0
 23 33  1  0  0  0  0
 24 25  1  0  0  0  0
 24 26  1  0  0  0  0
 25 27  1  6  0  0  0
 25 32  1  0  0  0  0
 25 30  1  0  0  0  0
 26 28  1  0  0  0  0
 28 31  1  0  0  0  0
 28 22  2  0  0  0  0
 29 24  1  0  0  0  0
 30 31  1  0  0  0  0
 31 23  2  0  0  0  0
 33 21  1  1  0  0  0
 34 22  1  0  0  0  0
M  END
>  <MODEL>
2

>  <REMARK>
 VINA RESULT:     -10.3      3.092      5.751
  Name = 
  3 active torsions:
  status: ('A' for Active; 'I' for Inactive)
    1  A    between atoms: N_3  and  C_25
    2  A    between atoms: C_8  and  C_18
    3  A    between atoms: C_18  and  C_30
                            x       y       z     vdW  Elec       q    Type
                         _______ _______ _______ _____ _____    ______ ____

>  <TORSDO>
F 3

$$$$
=
 OpenBabel10262423353D

 34 39  0  0  1  0  0  0  0  0999 V2000
  188.3120  177.9600  141.9750 C   0  0  0  0  0  0  0  0  0  0  0  0
  191.4410  176.7370  143.4990 C   0  0  0  0  0  3  0  0  0  0  0  0
  190.8840  176.7810  141.1630 C   0  0  0  0  0  2  0  0  0  0  0  0
  186.1760  178.6830  141.1130 C   0  0  0  0  0  0  0  0  0  0  0  0
  186.9350  178.3650  142.1390 N   0  0  0  0  0  0  0  0  0  0  0  0
  188.0650  178.2920  139.5840 C   0  0  0  0  0  0  0  0  0  0  0  0
  188.7640  177.8560  138.4680 C   0  0  0  0  0  3  0  0  0  0  0  0
  186.6880  178.6280  139.7560 N   0  0  0  0  0  2  0  0  0  0  0  0
  189.9600  177.4350  140.2430 N   0  0  0  0  0  0  0  0  0  0  0  0
  188.8350  178.0040  140.6380 C   0  0  0  0  0  0  0  0  0  0  0  0
  189.9420  177.3350  138.9200 N   0  0  0  0  0  0  0  0  0  0  0  0
  191.4580  176.8230  144.9630 C   0  0  0  0  0  3  0  0  0  0  0  0
  190.4740  177.0340  145.8390 C   0  0  0  0  0  0  0  0  0  0  0  0
  189.0570  177.2120  145.4840 C   0  0  0  0  0  3  0  0  0  0  0  0
  190.4780  177.0030  142.6200 C   0  0  0  0  0  0  0  0  0  0  0  0
  188.4860  177.4070  144.3020 C   0  0  0  0  0  3  0  0  0  0  0  0
  189.0920  177.4900  142.9660 C   0  0  0  0  0  0  0  0  0  0  0  0
  190.8140  177.0460  147.2360 N   0  0  0  0  0  0  0  0  0  0  0  0
  189.9340  177.5110  148.1560 O   0  0  0  0  0  1  0  0  0  0  0  0
  192.0570  176.5690  147.6720 N   0  0  0  0  0  1  0  0  0  0  0  0
  184.7790  179.1680  141.3510 C   0  0  0  0  0  2  0  0  0  0  0  0
  182.4410  178.5010  142.0320 C   0  0  0  0  0  0  0  0  0  0  0  0
  183.3370  177.5180  140.1060 C   0  0  0  0  0  3  0  0  0  0  0  0
  179.2260  178.1060  140.1760 N   0  0  0  0  0  0  0  0  0  0  0  0
  179.8660  178.1550  138.8330 C   0  0  2  0  0  0  0  0  0  0  0  0
  180.0440  178.7380  141.2310 C   0  0  0  0  0  2  0  0  0  0  0  0
  178.9310  177.5760  137.7830 C   0  0  0  0  0  1  0  0  0  0  0  0
  181.4800  178.3150  141.1480 C   0  0  0  0  0  0  0  0  0  0  0  0
  178.9310  176.7330  140.5890 C   0  0  0  0  0  1  0  0  0  0  0  0
  181.1980  177.3750  138.7840 C   0  0  0  0  0  2  0  0  0  0  0  0
  182.0400  177.7350  139.9590 C   0  0  0  0  0  0  0  0  0  0  0  0
  180.1130  179.4870  138.4860 O   0  0  0  0  0  1  0  0  0  0  0  0
  183.7510  178.0300  141.4620 C   0  0  1  0  0  3  0  0  0  0  0  0
  182.2590  179.1130  143.3810 C   0  0  0  0  0  1  0  0  0  0  0  0
  1  5  1  0  0  0  0
  1 17  2  0  0  0  0
  2 12  1  0  0  0  0
  3 15  1  0  0  0  0
  4 21  1  0  0  0  0
  4  5  2  0  0  0  0
  6  8  1  0  0  0  0
  6 10  2  0  0  0  0
  7 11  2  0  0  0  0
  7  6  1  0  0  0  0
  8  4  1  0  0  0  0
  9 10  1  0  0  0  0
  9  3  1  0  0  0  0
 10  1  1  0  0  0  0
 11  9  1  0  0  0  0
 12 13  2  0  0  0  0
 13 18  1  0  0  0  0
 14 13  1  0  0  0  0
 15 17  1  0  0  0  0
 15  2  2  0  0  0  0
 16 14  2  0  0  0  0
 17 16  1  0  0  0  0
 18 20  1  0  0  0  0
 18 19  1  0  0  0  0
 22 34  1  0  0  0  0
 23 33  1  0  0  0  0
 24 29  1  0  0  0  0
 24 26  1  0  0  0  0
 25 27  1  6  0  0  0
 25 24  1  0  0  0  0
 28 26  1  0  0  0  0
 28 22  2  0  0  0  0
 30 25  1  0  0  0  0
 30 31  1  0  0  0  0
 31 23  2  0  0  0  0
 31 28  1  0  0  0  0
 32 25  1  0  0  0  0
 33 21  1  6  0  0  0
 33 22  1  0  0  0  0
M  END
>  <MODEL>
3

>  <REMARK>
 VINA RESULT:     -10.2      3.911      7.837
  Name = 
  3 active torsions:
  status: ('A' for Active; 'I' for Inactive)
    1  A    between atoms: N_3  and  C_25
    2  A    between atoms: C_8  and  C_18
    3  A    between atoms: C_18  and  C_30
                            x       y       z     vdW  Elec       q    Type
                         _______ _______ _______ _____ _____    ______ ____

>  <TORSDO>
F 3

$$$$
=
 OpenBabel10262423353D

 34 39  0  0  1  0  0  0  0  0999 V2000
  186.8000  178.0980  143.9900 C   0  0  0  0  0  0  0  0  0  0  0  0
  190.1720  176.9380  143.0440 C   0  0  0  0  0  3  0  0  0  0  0  0
  189.3740  177.4360  145.2540 C   0  0  0  0  0  2  0  0  0  0  0  0
  184.5960  178.9610  144.4640 C   0  0  0  0  0  0  0  0  0  0  0  0
  185.5260  178.6460  143.5880 N   0  0  0  0  0  0  0  0  0  0  0  0
  186.0450  178.1810  146.2940 C   0  0  0  0  0  0  0  0  0  0  0  0
  186.6840  178.1580  147.5250 C   0  0  0  0  0  3  0  0  0  0  0  0
  184.8150  178.7820  145.8880 N   0  0  0  0  0  2  0  0  0  0  0  0
  188.1220  177.5890  145.9860 N   0  0  0  0  0  0  0  0  0  0  0  0
  186.9680  177.8340  145.3920 C   0  0  0  0  0  0  0  0  0  0  0  0
  187.9740  177.7780  147.2920 N   0  0  0  0  0  0  0  0  0  0  0  0
  190.3490  176.7490  141.6010 C   0  0  0  0  0  3  0  0  0  0  0  0
  189.6010  177.1440  140.5680 C   0  0  0  0  0  0  0  0  0  0  0  0
  188.3640  177.9330  140.6800 C   0  0  0  0  0  3  0  0  0  0  0  0
  189.1430  177.4110  143.7440 C   0  0  0  0  0  0  0  0  0  0  0  0
  187.6310  178.2360  141.7440 C   0  0  0  0  0  3  0  0  0  0  0  0
  187.8370  177.8880  143.1570 C   0  0  0  0  0  0  0  0  0  0  0  0
  190.0590  176.8130  139.2460 N   0  0  0  0  0  0  0  0  0  0  0  0
  190.7390  175.6630  139.0180 O   0  0  0  0  0  1  0  0  0  0  0  0
  189.8030  177.6700  138.1670 N   0  0  0  0  0  1  0  0  0  0  0  0
  183.2660  179.4560  143.9830 C   0  0  0  0  0  2  0  0  0  0  0  0
  181.0670  178.7390  142.9730 C   0  0  0  0  0  0  0  0  0  0  0  0
  182.9800  178.5980  141.6310 C   0  0  0  0  0  3  0  0  0  0  0  0
  179.3900  179.4050  139.7040 N   0  0  0  0  0  0  0  0  0  0  0  0
  180.6110  179.9690  139.0650 C   0  0  2  0  0  0  0  0  0  0  0  0
  179.4260  179.4700  141.1790 C   0  0  0  0  0  2  0  0  0  0  0  0
  180.4650  179.9580  137.5520 C   0  0  0  0  0  1  0  0  0  0  0  0
  180.7470  179.0160  141.7230 C   0  0  0  0  0  0  0  0  0  0  0  0
  179.1650  178.0130  139.3140 C   0  0  0  0  0  1  0  0  0  0  0  0
  181.8890  179.1860  139.4380 C   0  0  0  0  0  2  0  0  0  0  0  0
  181.9290  178.9530  140.9090 C   0  0  0  0  0  0  0  0  0  0  0  0
  180.7690  181.3000  139.4620 O   0  0  0  0  0  1  0  0  0  0  0  0
  182.5410  178.4580  143.0670 C   0  0  1  0  0  3  0  0  0  0  0  0
  180.1140  178.7370  144.1210 C   0  0  0  0  0  1  0  0  0  0  0  0
  1 10  1  0  0  0  0
  2 15  2  0  0  0  0
  3  9  1  0  0  0  0
  4  8  1  0  0  0  0
  5  1  1  0  0  0  0
  5  4  2  0  0  0  0
  6  7  1  0  0  0  0
  8  6  1  0  0  0  0
  9 11  1  0  0  0  0
 10  9  1  0  0  0  0
 10  6  2  0  0  0  0
 11  7  2  0  0  0  0
 12  2  1  0  0  0  0
 13 14  1  0  0  0  0
 13 12  2  0  0  0  0
 14 16  2  0  0  0  0
 15  3  1  0  0  0  0
 16 17  1  0  0  0  0
 17 15  1  0  0  0  0
 17  1  2  0  0  0  0
 18 13  1  0  0  0  0
 19 18  1  0  0  0  0
 20 18  1  0  0  0  0
 21  4  1  0  0  0  0
 22 33  1  0  0  0  0
 22 34  1  0  0  0  0
 23 33  1  0  0  0  0
 24 26  1  0  0  0  0
 25 27  1  6  0  0  0
 25 30  1  0  0  0  0
 25 32  1  0  0  0  0
 25 24  1  0  0  0  0
 26 28  1  0  0  0  0
 28 22  2  0  0  0  0
 29 24  1  0  0  0  0
 30 31  1  0  0  0  0
 31 23  2  0  0  0  0
 31 28  1  0  0  0  0
 33 21  1  1  0  0  0
M  END
>  <MODEL>
4

>  <REMARK>
 VINA RESULT:      -9.9      4.169      8.732
  Name = 
  3 active torsions:
  status: ('A' for Active; 'I' for Inactive)
    1  A    between atoms: N_3  and  C_25
    2  A    between atoms: C_8  and  C_18
    3  A    between atoms: C_18  and  C_30
                            x       y       z     vdW  Elec       q    Type
                         _______ _______ _______ _____ _____    ______ ____

>  <TORSDO>
F 3

$$$$
=
 OpenBabel10262423353D

 34 39  0  0  1  0  0  0  0  0999 V2000
  188.4040  177.9600  141.6920 C   0  0  0  0  0  0  0  0  0  0  0  0
  191.4440  176.9290  143.5090 C   0  0  0  0  0  3  0  0  0  0  0  0
  191.1080  176.9430  141.1320 C   0  0  0  0  0  2  0  0  0  0  0  0
  186.3190  178.5530  140.6300 C   0  0  0  0  0  0  0  0  0  0  0  0
  186.9960  178.2800  141.7250 N   0  0  0  0  0  0  0  0  0  0  0  0
  188.3640  178.2820  139.2880 C   0  0  0  0  0  0  0  0  0  0  0  0
  189.1900  177.8920  138.2440 C   0  0  0  0  0  3  0  0  0  0  0  0
  186.9590  178.5330  139.3270 N   0  0  0  0  0  2  0  0  0  0  0  0
  190.2380  177.5400  140.1260 N   0  0  0  0  0  0  0  0  0  0  0  0
  189.0470  178.0390  140.4110 C   0  0  0  0  0  0  0  0  0  0  0  0
  190.3500  177.4430  138.8070 N   0  0  0  0  0  0  0  0  0  0  0  0
  191.3180  177.0120  144.9680 C   0  0  0  0  0  3  0  0  0  0  0  0
  190.2440  177.1610  145.7470 C   0  0  0  0  0  0  0  0  0  0  0  0
  188.8590  177.2520  145.2590 C   0  0  0  0  0  3  0  0  0  0  0  0
  190.5540  177.1370  142.5420 C   0  0  0  0  0  0  0  0  0  0  0  0
  188.3910  177.4140  144.0280 C   0  0  0  0  0  3  0  0  0  0  0  0
  189.1140  177.5370  142.7550 C   0  0  0  0  0  0  0  0  0  0  0  0
  190.4490  177.1900  147.1700 N   0  0  0  0  0  0  0  0  0  0  0  0
  189.4450  177.5550  148.0040 O   0  0  0  0  0  1  0  0  0  0  0  0
  191.6880  176.8340  147.7200 N   0  0  0  0  0  1  0  0  0  0  0  0
  184.8780  178.9510  140.7330 C   0  0  0  0  0  2  0  0  0  0  0  0
  182.8310  178.1110  139.5170 C   0  0  0  0  0  0  0  0  0  0  0  0
  183.6580  180.2220  138.9320 C   0  0  0  0  0  3  0  0  0  0  0  0
  179.5550  179.6540  138.6090 N   0  0  0  0  0  0  0  0  0  0  0  0
  179.9970  181.0420  138.9180 C   0  0  2  0  0  0  0  0  0  0  0  0
  180.3540  178.6240  139.3040 C   0  0  0  0  0  2  0  0  0  0  0  0
  179.0740  182.0480  138.2490 C   0  0  0  0  0  1  0  0  0  0  0  0
  181.8240  178.9060  139.2100 C   0  0  0  0  0  0  0  0  0  0  0  0
  179.6010  179.3750  137.1730 C   0  0  0  0  0  1  0  0  0  0  0  0
  181.4420  181.3200  138.4510 C   0  0  0  0  0  2  0  0  0  0  0  0
  182.3350  180.2060  138.8760 C   0  0  0  0  0  0  0  0  0  0  0  0
  179.9210  181.2560  140.2980 O   0  0  0  0  0  1  0  0  0  0  0  0
  184.1260  178.8660  139.3950 C   0  0  1  0  0  3  0  0  0  0  0  0
  182.7010  176.6890  139.9500 C   0  0  0  0  0  1  0  0  0  0  0  0
  1  5  1  0  0  0  0
  1 17  2  0  0  0  0
  2 12  1  0  0  0  0
  3 15  1  0  0  0  0
  4 21  1  0  0  0  0
  4  5  2  0  0  0  0
  6  8  1  0  0  0  0
  6 10  2  0  0  0  0
  7 11  2  0  0  0  0
  7  6  1  0  0  0  0
  8  4  1  0  0  0  0
  9 10  1  0  0  0  0
  9  3  1  0  0  0  0
 10  1  1  0  0  0  0
 11  9  1  0  0  0  0
 12 13  2  0  0  0  0
 13 18  1  0  0  0  0
 14 13  1  0  0  0  0
 15 17  1  0  0  0  0
 15  2  2  0  0  0  0
 16 14  2  0  0  0  0
 17 16  1  0  0  0  0
 18 20  1  0  0  0  0
 18 19  1  0  0  0  0
 22 34  1  0  0  0  0
 23 33  1  0  0  0  0
 24 25  1  0  0  0  0
 24 26  1  0  0  0  0
 25 27  1  6  0  0  0
 25 32  1  0  0  0  0
 28 26  1  0  0  0  0
 28 22  2  0  0  0  0
 29 24  1  0  0  0  0
 30 31  1  0  0  0  0
 30 25  1  0  0  0  0
 31 23  2  0  0  0  0
 31 28  1  0  0  0  0
 33 22  1  0  0  0  0
 33 21  1  1  0  0  0
M  END
>  <MODEL>
5

>  <REMARK>
 VINA RESULT:      -9.9      4.258      7.840
  Name = 
  3 active torsions:
  status: ('A' for Active; 'I' for Inactive)
    1  A    between atoms: N_3  and  C_25
    2  A    between atoms: C_8  and  C_18
    3  A    between atoms: C_18  and  C_30
                            x       y       z     vdW  Elec       q    Type
                         _______ _______ _______ _____ _____    ______ ____

>  <TORSDO>
F 3

$$$$
=
 OpenBabel10262423353D

 34 39  0  0  1  0  0  0  0  0999 V2000
  187.1470  178.2660  141.7800 C   0  0  0  0  0  0  0  0  0  0  0  0
  185.6670  178.2060  145.1580 C   0  0  0  0  0  3  0  0  0  0  0  0
  184.6050  178.9030  143.1210 C   0  0  0  0  0  2  0  0  0  0  0  0
  188.2650  178.3650  139.6430 C   0  0  0  0  0  0  0  0  0  0  0  0
  188.3260  178.2030  140.9480 N   0  0  0  0  0  0  0  0  0  0  0  0
  185.8220  178.6270  139.7790 C   0  0  0  0  0  0  0  0  0  0  0  0
  184.5550  179.1360  139.5350 C   0  0  0  0  0  3  0  0  0  0  0  0
  187.0030  178.6280  138.9770 N   0  0  0  0  0  2  0  0  0  0  0  0
  184.7530  178.7680  141.6760 N   0  0  0  0  0  0  0  0  0  0  0  0
  185.8920  178.4280  141.0990 C   0  0  0  0  0  0  0  0  0  0  0  0
  183.9180  179.2010  140.7400 N   0  0  0  0  0  0  0  0  0  0  0  0
  186.5920  177.7500  146.2010 C   0  0  0  0  0  3  0  0  0  0  0  0
  187.9170  177.5850  146.1860 C   0  0  0  0  0  0  0  0  0  0  0  0
  188.7860  177.8780  145.0350 C   0  0  0  0  0  3  0  0  0  0  0  0
  185.8560  178.4310  143.8610 C   0  0  0  0  0  0  0  0  0  0  0  0
  188.4780  178.1450  143.7710 C   0  0  0  0  0  3  0  0  0  0  0  0
  187.1620  178.2490  143.1260 C   0  0  0  0  0  0  0  0  0  0  0  0
  188.5490  177.1320  147.3950 N   0  0  0  0  0  0  0  0  0  0  0  0
  189.6740  176.3780  147.3440 O   0  0  0  0  0  1  0  0  0  0  0  0
  188.0170  177.4670  148.6470 N   0  0  0  0  0  1  0  0  0  0  0  0
  189.5100  178.2150  138.8230 C   0  0  0  0  0  2  0  0  0  0  0  0
  189.9890  176.6310  136.9160 C   0  0  0  0  0  0  0  0  0  0  0  0
  191.1090  176.2700  138.9400 C   0  0  0  0  0  3  0  0  0  0  0  0
  193.1220  175.2130  135.4640 N   0  0  0  0  0  0  0  0  0  0  0  0
  193.9770  175.6400  136.6060 C   0  0  2  0  0  0  0  0  0  0  0  0
  191.8800  176.0030  135.3440 C   0  0  0  0  0  2  0  0  0  0  0  0
  195.2780  174.8530  136.6120 C   0  0  0  0  0  1  0  0  0  0  0  0
  191.2030  176.1780  136.6700 C   0  0  0  0  0  0  0  0  0  0  0  0
  192.7560  173.7990  135.5580 C   0  0  0  0  0  1  0  0  0  0  0  0
  193.2820  175.4440  137.9710 C   0  0  0  0  0  2  0  0  0  0  0  0
  191.8940  175.9830  137.9140 C   0  0  0  0  0  0  0  0  0  0  0  0
  194.3050  176.9910  136.4590 O   0  0  0  0  0  1  0  0  0  0  0  0
  189.7900  176.7630  138.4010 C   0  0  1  0  0  3  0  0  0  0  0  0
  188.9790  176.9870  135.8770 C   0  0  0  0  0  1  0  0  0  0  0  0
  1 17  2  0  0  0  0
  2 12  1  0  0  0  0
  3 15  1  0  0  0  0
  4  5  2  0  0  0  0
  5  1  1  0  0  0  0
  6 10  2  0  0  0  0
  7  6  1  0  0  0  0
  7 11  2  0  0  0  0
  8  4  1  0  0  0  0
  8  6  1  0  0  0  0
  9  3  1  0  0  0  0
 10  9  1  0  0  0  0
 10  1  1  0  0  0  0
 11  9  1  0  0  0  0
 13 12  2  0  0  0  0
 13 18  1  0  0  0  0
 14 13  1  0  0  0  0
 15  2  2  0  0  0  0
 16 14  2  0  0  0  0
 17 16  1  0  0  0  0
 17 15  1  0  0  0  0
 18 20  1  0  0  0  0
 19 18  1  0  0  0  0
 21  4  1  0  0  0  0
 22 33  1  0  0  0  0
 24 29  1  0  0  0  0
 24 25  1  0  0  0  0
 25 27  1  6  0  0  0
 25 30  1  0  0  0  0
 26 24  1  0  0  0  0
 26 28  1  0  0  0  0
 28 22  2  0  0  0  0
 28 31  1  0  0  0  0
 31 30  1  0  0  0  0
 31 23  2  0  0  0  0
 32 25  1  0  0  0  0
 33 21  1  6  0  0  0
 33 23  1  0  0  0  0
 34 22  1  0  0  0  0
M  END
>  <MODEL>
6

>  <REMARK>
 VINA RESULT:      -9.8      1.570      2.064
  Name = 
  3 active torsions:
  status: ('A' for Active; 'I' for Inactive)
    1  A    between atoms: N_3  and  C_25
    2  A    between atoms: C_8  and  C_18
    3  A    between atoms: C_18  and  C_30
                            x       y       z     vdW  Elec       q    Type
                         _______ _______ _______ _____ _____    ______ ____

>  <TORSDO>
F 3

$$$$
=
 OpenBabel10262423353D

 34 39  0  0  1  0  0  0  0  0999 V2000
  189.0520  177.8520  141.2840 C   0  0  0  0  0  0  0  0  0  0  0  0
  187.0490  178.2530  138.2130 C   0  0  0  0  0  3  0  0  0  0  0  0
  189.4250  177.9470  138.3660 C   0  0  0  0  0  2  0  0  0  0  0  0
  190.2600  177.7140  143.3690 C   0  0  0  0  0  0  0  0  0  0  0  0
  189.1410  177.9570  142.7220 N   0  0  0  0  0  0  0  0  0  0  0  0
  191.3790  177.1660  141.2460 C   0  0  0  0  0  0  0  0  0  0  0  0
  192.3620  177.1280  140.2690 C   0  0  0  0  0  3  0  0  0  0  0  0
  191.4700  177.3370  142.6610 N   0  0  0  0  0  2  0  0  0  0  0  0
  190.4360  177.4670  139.3020 N   0  0  0  0  0  0  0  0  0  0  0  0
  190.2270  177.3830  140.6040 C   0  0  0  0  0  0  0  0  0  0  0  0
  191.7340  177.3120  139.0710 N   0  0  0  0  0  0  0  0  0  0  0  0
  185.6170  178.4490  138.4620 C   0  0  0  0  0  3  0  0  0  0  0  0
  184.9550  178.7430  139.5830 C   0  0  0  0  0  0  0  0  0  0  0  0
  185.5840  178.9730  140.8930 C   0  0  0  0  0  3  0  0  0  0  0  0
  188.0760  178.1530  139.0520 C   0  0  0  0  0  0  0  0  0  0  0  0
  186.8290  178.7530  141.2990 C   0  0  0  0  0  3  0  0  0  0  0  0
  187.9800  178.2210  140.5570 C   0  0  0  0  0  0  0  0  0  0  0  0
  183.5280  178.8890  139.4990 N   0  0  0  0  0  0  0  0  0  0  0  0
  182.9770  179.8640  138.7360 O   0  0  0  0  0  1  0  0  0  0  0  0
  182.6790  178.0210  140.1980 N   0  0  0  0  0  1  0  0  0  0  0  0
  190.2730  177.7670  144.8660 C   0  0  0  0  0  2  0  0  0  0  0  0
  188.4770  177.8780  146.6370 C   0  0  0  0  0  0  0  0  0  0  0  0
  187.9000  176.9790  144.5540 C   0  0  0  0  0  3  0  0  0  0  0  0
  184.9100  178.9810  146.6310 N   0  0  0  0  0  0  0  0  0  0  0  0
  184.8100  179.0220  145.1450 C   0  0  2  0  0  0  0  0  0  0  0  0
  186.2990  179.0900  147.1200 C   0  0  0  0  0  2  0  0  0  0  0  0
  183.3510  179.0030  144.7170 C   0  0  0  0  0  1  0  0  0  0  0  0
  187.2300  178.2000  146.3510 C   0  0  0  0  0  0  0  0  0  0  0  0
  184.3280  177.7560  147.1810 C   0  0  0  0  0  1  0  0  0  0  0  0
  185.5330  177.8370  144.4700 C   0  0  0  0  0  2  0  0  0  0  0  0
  186.8900  177.6680  145.0610 C   0  0  0  0  0  0  0  0  0  0  0  0
  185.3690  180.2150  144.6770 O   0  0  0  0  0  1  0  0  0  0  0  0
  189.0620  177.0730  145.5100 C   0  0  1  0  0  3  0  0  0  0  0  0
  189.2040  178.2780  147.8770 C   0  0  0  0  0  1  0  0  0  0  0  0
  1  5  1  0  0  0  0
  2 12  1  0  0  0  0
  2 15  2  0  0  0  0
  3 15  1  0  0  0  0
  3  9  1  0  0  0  0
  4 21  1  0  0  0  0
  5  4  2  0  0  0  0
  6  8  1  0  0  0  0
  7  6  1  0  0  0  0
  8  4  1  0  0  0  0
  9 10  1  0  0  0  0
 10  6  2  0  0  0  0
 10  1  1  0  0  0  0
 11  9  1  0  0  0  0
 11  7  2  0  0  0  0
 12 13  2  0  0  0  0
 13 14  1  0  0  0  0
 14 16  2  0  0  0  0
 15 17  1  0  0  0  0
 17  1  2  0  0  0  0
 17 16  1  0  0  0  0
 18 13  1  0  0  0  0
 18 20  1  0  0  0  0
 19 18  1  0  0  0  0
 22 34  1  0  0  0  0
 23 31  2  0  0  0  0
 23 33  1  0  0  0  0
 24 26  1  0  0  0  0
 24 29  1  0  0  0  0
 25 27  1  6  0  0  0
 25 24  1  0  0  0  0
 28 22  2  0  0  0  0
 28 26  1  0  0  0  0
 30 31  1  0  0  0  0
 30 25  1  0  0  0  0
 31 28  1  0  0  0  0
 32 25  1  0  0  0  0
 33 21  1  6  0  0  0
 33 22  1  0  0  0  0
M  END
>  <MODEL>
7

>  <REMARK>
 VINA RESULT:      -9.8      3.616      9.211
  Name = 
  3 active torsions:
  status: ('A' for Active; 'I' for Inactive)
    1  A    between atoms: N_3  and  C_25
    2  A    between atoms: C_8  and  C_18
    3  A    between atoms: C_18  and  C_30
                            x       y       z     vdW  Elec       q    Type
                         _______ _______ _______ _____ _____    ______ ____

>  <TORSDO>
F 3

$$$$
=
 OpenBabel10262423353D

 34 39  0  0  1  0  0  0  0  0999 V2000
  186.9320  177.9920  144.1890 C   0  0  0  0  0  0  0  0  0  0  0  0
  188.1710  177.5850  147.6400 C   0  0  0  0  0  3  0  0  0  0  0  0
  186.0480  178.4740  146.9550 C   0  0  0  0  0  2  0  0  0  0  0  0
  186.2860  178.3110  141.8860 C   0  0  0  0  0  0  0  0  0  0  0  0
  187.2130  178.0210  142.7730 N   0  0  0  0  0  0  0  0  0  0  0  0
  184.6230  178.5410  143.6860 C   0  0  0  0  0  0  0  0  0  0  0  0
  183.5690  179.0630  144.4200 C   0  0  0  0  0  3  0  0  0  0  0  0
  184.9300  178.6300  142.2940 N   0  0  0  0  0  2  0  0  0  0  0  0
  185.1570  178.4840  145.8010 N   0  0  0  0  0  0  0  0  0  0  0  0
  185.5660  178.2120  144.5740 C   0  0  0  0  0  0  0  0  0  0  0  0
  183.9370  179.0030  145.7340 N   0  0  0  0  0  0  0  0  0  0  0  0
  189.5270  177.0330  147.7200 C   0  0  0  0  0  3  0  0  0  0  0  0
  190.4670  176.8810  146.7850 C   0  0  0  0  0  0  0  0  0  0  0  0
  190.3280  177.2930  145.3790 C   0  0  0  0  0  3  0  0  0  0  0  0
  187.4330  177.9390  146.5920 C   0  0  0  0  0  0  0  0  0  0  0  0
  189.2550  177.6820  144.7000 C   0  0  0  0  0  3  0  0  0  0  0  0
  187.8650  177.8400  145.1490 C   0  0  0  0  0  0  0  0  0  0  0  0
  191.7250  176.3130  147.1870 N   0  0  0  0  0  0  0  0  0  0  0  0
  192.3560  176.7540  148.3020 O   0  0  0  0  0  1  0  0  0  0  0  0
  192.3180  175.2890  146.4370 N   0  0  0  0  0  1  0  0  0  0  0  0
  186.6180  178.2530  140.4260 C   0  0  0  0  0  2  0  0  0  0  0  0
  185.6440  178.2510  138.0970 C   0  0  0  0  0  0  0  0  0  0  0  0
  184.1650  178.0230  139.8970 C   0  0  0  0  0  3  0  0  0  0  0  0
  183.1220  176.1180  136.3560 N   0  0  0  0  0  0  0  0  0  0  0  0
  182.6400  175.4720  137.6080 C   0  0  2  0  0  0  0  0  0  0  0  0
  184.4840  176.6740  136.4800 C   0  0  0  0  0  2  0  0  0  0  0  0
  181.2760  174.8390  137.3810 C   0  0  0  0  0  1  0  0  0  0  0  0
  184.6540  177.4490  137.7520 C   0  0  0  0  0  0  0  0  0  0  0  0
  182.2290  177.1920  135.9190 C   0  0  0  0  0  1  0  0  0  0  0  0
  182.5260  176.4690  138.7820 C   0  0  0  0  0  2  0  0  0  0  0  0
  183.7640  177.2930  138.8680 C   0  0  0  0  0  0  0  0  0  0  0  0
  183.5220  174.4490  137.9710 O   0  0  0  0  0  1  0  0  0  0  0  0
  185.4590  178.6990  139.5200 C   0  0  1  0  0  3  0  0  0  0  0  0
  186.7880  178.6290  137.2160 C   0  0  0  0  0  1  0  0  0  0  0  0
  1 10  1  0  0  0  0
  1 17  2  0  0  0  0
  2 12  1  0  0  0  0
  4  8  1  0  0  0  0
  4  5  2  0  0  0  0
  5  1  1  0  0  0  0
  6  7  1  0  0  0  0
  6 10  2  0  0  0  0
  7 11  2  0  0  0  0
  8  6  1  0  0  0  0
  9  3  1  0  0  0  0
 10  9  1  0  0  0  0
 11  9  1  0  0  0  0
 13 18  1  0  0  0  0
 13 12  2  0  0  0  0
 14 13  1  0  0  0  0
 15  3  1  0  0  0  0
 15  2  2  0  0  0  0
 16 17  1  0  0  0  0
 16 14  2  0  0  0  0
 17 15  1  0  0  0  0
 18 19  1  0  0  0  0
 20 18  1  0  0  0  0
 21  4  1  0  0  0  0
 22 33  1  0  0  0  0
 24 26  1  0  0  0  0
 24 25  1  0  0  0  0
 25 27  1  6  0  0  0
 25 32  1  0  0  0  0
 25 30  1  0  0  0  0
 26 28  1  0  0  0  0
 28 22  2  0  0  0  0
 28 31  1  0  0  0  0
 29 24  1  0  0  0  0
 30 31  1  0  0  0  0
 31 23  2  0  0  0  0
 33 23  1  0  0  0  0
 33 21  1  1  0  0  0
 34 22  1  0  0  0  0
M  END
>  <MODEL>
8

>  <REMARK>
 VINA RESULT:      -9.7      4.182      5.461
  Name = 
  3 active torsions:
  status: ('A' for Active; 'I' for Inactive)
    1  A    between atoms: N_3  and  C_25
    2  A    between atoms: C_8  and  C_18
    3  A    between atoms: C_18  and  C_30
                            x       y       z     vdW  Elec       q    Type
                         _______ _______ _______ _____ _____    ______ ____

>  <TORSDO>
F 3

$$$$
=
 OpenBabel10262423353D

 34 39  0  0  1  0  0  0  0  0999 V2000
  187.6120  178.1570  141.3340 C   0  0  0  0  0  0  0  0  0  0  0  0
  189.4860  177.3430  144.4050 C   0  0  0  0  0  3  0  0  0  0  0  0
  190.2170  177.0490  142.1370 C   0  0  0  0  0  2  0  0  0  0  0  0
  186.2390  178.6270  139.4050 C   0  0  0  0  0  0  0  0  0  0  0  0
  186.3540  178.4930  140.7080 N   0  0  0  0  0  0  0  0  0  0  0  0
  188.6410  178.1620  139.1370 C   0  0  0  0  0  0  0  0  0  0  0  0
  189.8100  177.6310  138.6130 C   0  0  0  0  0  3  0  0  0  0  0  0
  187.3780  178.4300  138.5270 N   0  0  0  0  0  2  0  0  0  0  0  0
  189.9110  177.5180  140.7900 N   0  0  0  0  0  0  0  0  0  0  0  0
  188.7510  178.0620  140.4650 C   0  0  0  0  0  0  0  0  0  0  0  0
  190.5780  177.2480  139.6750 N   0  0  0  0  0  0  0  0  0  0  0  0
  188.7450  177.6180  145.6400 C   0  0  0  0  0  3  0  0  0  0  0  0
  187.4520  177.8780  145.8460 C   0  0  0  0  0  0  0  0  0  0  0  0
  186.4250  177.9180  144.7930 C   0  0  0  0  0  3  0  0  0  0  0  0
  189.1200  177.4320  143.1290 C   0  0  0  0  0  0  0  0  0  0  0  0
  186.5500  177.9220  143.4720 C   0  0  0  0  0  3  0  0  0  0  0  0
  187.7610  177.8710  142.6410 C   0  0  0  0  0  0  0  0  0  0  0  0
  187.0210  178.0910  147.2010 N   0  0  0  0  0  0  0  0  0  0  0  0
  185.8070  178.6350  147.4610 O   0  0  0  0  0  1  0  0  0  0  0  0
  187.8440  177.7330  148.2770 N   0  0  0  0  0  1  0  0  0  0  0  0
  184.9260  179.0490  138.8190 C   0  0  0  0  0  2  0  0  0  0  0  0
  182.4630  179.4320  139.2180 C   0  0  0  0  0  0  0  0  0  0  0  0
  183.4270  177.5020  140.1260 C   0  0  0  0  0  3  0  0  0  0  0  0
  179.4410  177.2520  138.9830 N   0  0  0  0  0  0  0  0  0  0  0  0
  180.2230  175.9880  138.8950 C   0  0  2  0  0  0  0  0  0  0  0  0
  180.2160  178.4420  138.5750 C   0  0  0  0  0  2  0  0  0  0  0  0
  179.3390  174.7990  139.2350 C   0  0  0  0  0  1  0  0  0  0  0  0
  181.5860  178.4470  139.1830 C   0  0  0  0  0  0  0  0  0  0  0  0
  178.9310  177.4830  140.3350 C   0  0  0  0  0  1  0  0  0  0  0  0
  181.4410  175.9780  139.8440 C   0  0  0  0  0  2  0  0  0  0  0  0
  182.1910  177.2590  139.7180 C   0  0  0  0  0  0  0  0  0  0  0  0
  180.6740  175.8130  137.5830 O   0  0  0  0  0  1  0  0  0  0  0  0
  183.7550  178.9390  139.8080 C   0  0  1  0  0  3  0  0  0  0  0  0
  182.2180  180.8170  138.7190 C   0  0  0  0  0  1  0  0  0  0  0  0
  1 17  2  0  0  0  0
  2 12  1  0  0  0  0
  3 15  1  0  0  0  0
  4  5  2  0  0  0  0
  5  1  1  0  0  0  0
  6 10  2  0  0  0  0
  7  6  1  0  0  0  0
  7 11  2  0  0  0  0
  8  6  1  0  0  0  0
  8  4  1  0  0  0  0
  9  3  1  0  0  0  0
 10  9  1  0  0  0  0
 10  1  1  0  0  0  0
 11  9  1  0  0  0  0
 12 13  2  0  0  0  0
 13 18  1  0  0  0  0
 14 13  1  0  0  0  0
 15  2  2  0  0  0  0
 16 14  2  0  0  0  0
 17 15  1  0  0  0  0
 17 16  1  0  0  0  0
 18 19  1  0  0  0  0
 18 20  1  0  0  0  0
 21  4  1  0  0  0  0
 22 33  1  0  0  0  0
 24 29  1  0  0  0  0
 25 24  1  0  0  0  0
 25 27  1  1  0  0  0
 25 30  1  0  0  0  0
 26 24  1  0  0  0  0
 26 28  1  0  0  0  0
 28 22  2  0  0  0  0
 28 31  1  0  0  0  0
 31 30  1  0  0  0  0
 31 23  2  0  0  0  0
 32 25  1  0  0  0  0
 33 21  1  6  0  0  0
 33 23  1  0  0  0  0
 34 22  1  0  0  0  0
M  END
>  <MODEL>
9

>  <REMARK>
 VINA RESULT:      -9.4      4.271      7.682
  Name = 
  3 active torsions:
  status: ('A' for Active; 'I' for Inactive)
    1  A    between atoms: N_3  and  C_25
    2  A    between atoms: C_8  and  C_18
    3  A    between atoms: C_18  and  C_30
                            x       y       z     vdW  Elec       q    Type
                         _______ _______ _______ _____ _____    ______ ____

>  <TORSDO>
F 3

$$$$
