=
 OpenBabel10252415093D

 34 40  0  0  1  0  0  0  0  0999 V2000
  189.7290  176.9270  136.8750 C   0  0  2  0  0  3  0  0  0  0  0  0
  188.0200  178.4140  137.4560 C   0  0  2  0  0  3  0  0  0  0  0  0
  189.4570  177.5160  139.2820 C   0  0  1  0  0  3  0  0  0  0  0  0
  188.4180  177.9790  141.6730 C   0  0  2  0  0  0  0  0  0  0  0  0
  187.6250  177.5870  136.3250 N   0  0  0  0  0  0  0  0  0  0  0  0
  187.2740  178.4860  135.2360 C   0  0  0  0  0  1  0  0  0  0  0  0
  187.2470  178.4750  139.7820 C   0  0  0  0  0  0  0  0  0  0  0  0
  189.1970  177.7230  137.9770 C   0  0  1  0  0  3  0  0  0  0  0  0
  187.0290  178.4380  142.1060 C   0  0  0  0  0  2  0  0  0  0  0  0
  188.7070  176.8430  135.8990 O   0  0  0  0  0  0  0  0  0  0  0  0
  191.1290  175.7320  138.5280 C   0  0  0  0  0  2  0  0  0  0  0  0
  190.1450  175.5460  137.3700 C   0  0  0  0  0  2  0  0  0  0  0  0
  186.9570  178.5140  138.4170 O   0  0  0  0  0  0  0  0  0  0  0  0
  188.8350  176.6500  142.2520 C   0  0  0  0  0  2  0  0  0  0  0  0
  189.6730  177.9060  142.5210 C   0  0  2  0  0  3  0  0  0  0  0  0
  186.3930  178.7010  140.7700 C   0  0  0  0  0  0  0  0  0  0  0  0
  188.5280  178.0760  140.2270 N   0  0  0  0  0  0  0  0  0  0  0  0
  190.4810  176.4860  139.7030 C   0  0  0  0  0  2  0  0  0  0  0  0
  189.4050  178.3910  143.9370 C   0  0  0  0  0  2  0  0  0  0  0  0
  191.5470  176.7930  147.2590 N   0  0  0  0  0  2  0  0  0  0  0  0
  191.9090  176.2850  145.9370 C   0  0  0  0  0  2  0  0  0  0  0  0
  191.4070  177.2360  144.8530 C   0  0  0  0  0  2  0  0  0  0  0  0
  189.4900  177.7840  146.3660 C   0  0  0  0  0  2  0  0  0  0  0  0
  189.8910  177.3680  144.9500 C   0  0  0  0  0  3  0  0  0  0  0  0
  190.0890  176.8040  147.3740 C   0  0  0  0  0  2  0  0  0  0  0  0
  184.9550  179.0480  140.5750 C   0  0  0  0  0  2  0  0  0  0  0  0
  183.8930  177.7000  141.1830 S   0  0  0  0  0  0  0  0  0  0  0  0
  182.6820  178.8550  141.8810 C   0  0  0  0  0  2  0  0  0  0  0  0
  182.7210  178.7780  143.3940 C   0  0  0  0  0  2  0  0  0  0  0  0
  184.0120  178.4560  143.8100 O   0  0  0  0  0  0  0  0  0  0  0  0
  185.9940  177.6380  145.4200 C   0  0  0  0  0  1  0  0  0  0  0  0
  185.4590  179.0450  145.6530 C   0  0  1  0  0  3  0  0  0  0  0  0
  184.3450  179.4490  144.7400 C   0  0  2  0  0  3  0  0  0  0  0  0
  184.1060  178.9670  146.0400 O   0  0  0  0  0  0  0  0  0  0  0  0
  1 12  1  1  0  0  0
  1  8  1  0  0  0  0
  2  8  1  0  0  0  0
  2 13  1  1  0  0  0
  3 18  1  6  0  0  0
  3 17  1  0  0  0  0
  4  9  1  1  0  0  0
  4 14  1  0  0  0  0
  4 15  1  0  0  0  0
  5  2  1  0  0  0  0
  6  5  1  0  0  0  0
  7 17  1  0  0  0  0
  7 16  2  0  0  0  0
  8  3  1  0  0  0  0
 10  5  1  0  0  0  0
 10  1  1  0  0  0  0
 11 18  1  0  0  0  0
 12 11  1  0  0  0  0
 13  7  1  0  0  0  0
 14 15  1  0  0  0  0
 15 19  1  0  0  0  0
 16  9  1  0  0  0  0
 17  4  1  0  0  0  0
 19 24  1  0  0  0  0
 20 25  1  0  0  0  0
 21 20  1  0  0  0  0
 22 24  1  0  0  0  0
 22 21  1  0  0  0  0
 23 25  1  0  0  0  0
 24 23  1  0  0  0  0
 26 16  1  0  0  0  0
 26 27  1  0  0  0  0
 27 28  1  0  0  0  0
 28 29  1  0  0  0  0
 29 30  1  0  0  0  0
 30 33  1  0  0  0  0
 31 32  1  0  0  0  0
 32 34  1  0  0  0  0
 33 32  1  0  0  0  0
 33 34  1  0  0  0  0
M  END
>  <MODEL>
1

>  <REMARK>
 VINA RESULT:      -8.5      0.000      0.000
  Name = 
  8 active torsions:
  status: ('A' for Active; 'I' for Inactive)
    1  A    between atoms: S_3  and  C_13
    2  A    between atoms: S_3  and  C_17
    3  A    between atoms: C_12  and  C_27
    4  A    between atoms: C_12  and  C_28
    5  A    between atoms: C_13  and  C_33
    6  A    between atoms: C_17  and  C_29
    7  A    between atoms: C_20  and  O_34
    8  A    between atoms: C_33  and  O_34
                            x       y       z     vdW  Elec       q    Type
                         _______ _______ _______ _____ _____    ______ ____

>  <TORSDO>
F 8

$$$$
=
 OpenBabel10252415093D

 34 40  0  0  1  0  0  0  0  0999 V2000
  189.3990  176.8930  136.8380 C   0  0  2  0  0  3  0  0  0  0  0  0
  190.5480  176.0510  138.6940 C   0  0  2  0  0  3  0  0  0  0  0  0
  188.4260  177.2930  139.0980 C   0  0  1  0  0  3  0  0  0  0  0  0
  188.1310  177.9370  141.6490 C   0  0  2  0  0  0  0  0  0  0  0  0
  191.4770  176.4570  137.6490 N   0  0  0  0  0  0  0  0  0  0  0  0
  192.2900  175.2960  137.3230 C   0  0  0  0  0  1  0  0  0  0  0  0
  190.0660  176.9920  140.9070 C   0  0  0  0  0  0  0  0  0  0  0  0
  189.2900  176.6680  138.2760 C   0  0  1  0  0  3  0  0  0  0  0  0
  189.1080  177.9230  142.8210 C   0  0  0  0  0  2  0  0  0  0  0  0
  190.7720  176.7890  136.5100 O   0  0  0  0  0  0  0  0  0  0  0  0
  187.4050  178.3470  137.0020 C   0  0  0  0  0  2  0  0  0  0  0  0
  188.8380  178.2630  136.4710 C   0  0  0  0  0  2  0  0  0  0  0  0
  190.9930  176.5030  139.9830 O   0  0  0  0  0  0  0  0  0  0  0  0
  187.5260  179.2910  141.3690 C   0  0  0  0  0  2  0  0  0  0  0  0
  186.6240  178.0970  141.7060 C   0  0  2  0  0  3  0  0  0  0  0  0
  190.3130  177.3020  142.1720 C   0  0  0  0  0  0  0  0  0  0  0  0
  188.7470  177.2950  140.5000 N   0  0  0  0  0  0  0  0  0  0  0  0
  187.3620  178.2080  138.5340 C   0  0  0  0  0  2  0  0  0  0  0  0
  186.1400  178.2250  143.1410 C   0  0  0  0  0  2  0  0  0  0  0  0
  182.0460  179.4130  143.1560 N   0  0  0  0  0  2  0  0  0  0  0  0
  182.5720  178.8510  144.3990 C   0  0  0  0  0  2  0  0  0  0  0  0
  184.0980  178.8960  144.3910 C   0  0  0  0  0  2  0  0  0  0  0  0
  183.9910  178.5960  141.9080 C   0  0  0  0  0  2  0  0  0  0  0  0
  184.6280  178.0950  143.2060 C   0  0  0  0  0  3  0  0  0  0  0  0
  182.4700  178.5650  142.0420 C   0  0  0  0  0  2  0  0  0  0  0  0
  191.6470  177.1660  142.8260 C   0  0  0  0  0  2  0  0  0  0  0  0
  191.6510  178.0240  144.4320 S   0  0  0  0  0  0  0  0  0  0  0  0
  191.6580  176.4660  145.3600 C   0  0  0  0  0  2  0  0  0  0  0  0
  191.0990  176.7010  146.7490 C   0  0  0  0  0  2  0  0  0  0  0  0
  189.9410  177.4710  146.6600 O   0  0  0  0  0  0  0  0  0  0  0  0
  187.2850  177.8290  146.5700 C   0  0  0  0  0  1  0  0  0  0  0  0
  187.9000  177.6070  147.9450 C   0  0  1  0  0  3  0  0  0  0  0  0
  189.3850  177.4270  147.9450 C   0  0  2  0  0  3  0  0  0  0  0  0
  188.7830  178.6660  148.2340 O   0  0  0  0  0  0  0  0  0  0  0  0
  1 12  1  1  0  0  0
  1  8  1  0  0  0  0
  2 13  1  1  0  0  0
  3 18  1  6  0  0  0
  3 17  1  0  0  0  0
  4 14  1  6  0  0  0
  4 15  1  0  0  0  0
  4  9  1  0  0  0  0
  5  2  1  0  0  0  0
  6  5  1  0  0  0  0
  7 16  2  0  0  0  0
  8  2  1  0  0  0  0
  8  3  1  0  0  0  0
 10  1  1  0  0  0  0
 10  5  1  0  0  0  0
 11 18  1  0  0  0  0
 12 11  1  0  0  0  0
 13  7  1  0  0  0  0
 14 15  1  0  0  0  0
 15 19  1  0  0  0  0
 16  9  1  0  0  0  0
 16 26  1  0  0  0  0
 17  7  1  0  0  0  0
 17  4  1  0  0  0  0
 19 24  1  0  0  0  0
 20 21  1  0  0  0  0
 22 21  1  0  0  0  0
 23 25  1  0  0  0  0
 23 24  1  0  0  0  0
 24 22  1  0  0  0  0
 25 20  1  0  0  0  0
 26 27  1  0  0  0  0
 27 28  1  0  0  0  0
 28 29  1  0  0  0  0
 30 29  1  0  0  0  0
 30 33  1  0  0  0  0
 31 32  1  0  0  0  0
 32 33  1  0  0  0  0
 32 34  1  0  0  0  0
 33 34  1  0  0  0  0
M  END
>  <MODEL>
2

>  <REMARK>
 VINA RESULT:      -8.3      2.849      5.659
  Name = 
  8 active torsions:
  status: ('A' for Active; 'I' for Inactive)
    1  A    between atoms: S_3  and  C_13
    2  A    between atoms: S_3  and  C_17
    3  A    between atoms: C_12  and  C_27
    4  A    between atoms: C_12  and  C_28
    5  A    between atoms: C_13  and  C_33
    6  A    between atoms: C_17  and  C_29
    7  A    between atoms: C_20  and  O_34
    8  A    between atoms: C_33  and  O_34
                            x       y       z     vdW  Elec       q    Type
                         _______ _______ _______ _____ _____    ______ ____

>  <TORSDO>
F 8

$$$$
=
 OpenBabel10252415093D

 34 40  0  0  1  0  0  0  0  0999 V2000
  179.8530  178.7180  141.4560 C   0  0  2  0  0  3  0  0  0  0  0  0
  181.3090  178.0330  139.7580 C   0  0  2  0  0  3  0  0  0  0  0  0
  182.2590  178.4060  142.0310 C   0  0  1  0  0  3  0  0  0  0  0  0
  184.9040  178.5030  141.9910 C   0  0  2  0  0  0  0  0  0  0  0  0
  180.2580  178.8880  139.2260 N   0  0  0  0  0  0  0  0  0  0  0  0
  179.5810  178.1370  138.1800 C   0  0  0  0  0  1  0  0  0  0  0  0
  183.7170  178.3970  140.0500 C   0  0  0  0  0  0  0  0  0  0  0  0
  181.2110  178.2460  141.2000 C   0  0  1  0  0  3  0  0  0  0  0  0
  185.9000  178.6370  140.8420 C   0  0  0  0  0  2  0  0  0  0  0  0
  179.3240  179.1360  140.2120 O   0  0  0  0  0  0  0  0  0  0  0  0
  180.5980  179.3680  143.7220 C   0  0  0  0  0  2  0  0  0  0  0  0
  179.8690  179.8570  142.4690 C   0  0  0  0  0  2  0  0  0  0  0  0
  182.5910  178.4000  139.2230 O   0  0  0  0  0  0  0  0  0  0  0  0
  185.0060  179.5990  143.0230 C   0  0  0  0  0  2  0  0  0  0  0  0
  185.2010  178.1340  143.4320 C   0  0  2  0  0  3  0  0  0  0  0  0
  184.9720  178.5680  139.6610 C   0  0  0  0  0  0  0  0  0  0  0  0
  183.5700  178.2960  141.4520 N   0  0  0  0  0  0  0  0  0  0  0  0
  182.0560  178.9840  143.4130 C   0  0  0  0  0  2  0  0  0  0  0  0
  186.6840  177.8640  143.6330 C   0  0  0  0  0  2  0  0  0  0  0  0
  188.2170  178.1200  147.6030 N   0  0  0  0  0  2  0  0  0  0  0  0
  188.7510  177.0520  146.7590 C   0  0  0  0  0  2  0  0  0  0  0  0
  188.4660  177.3510  145.2890 C   0  0  0  0  0  2  0  0  0  0  0  0
  186.3700  178.4980  146.0360 C   0  0  0  0  0  2  0  0  0  0  0  0
  186.9600  177.4670  145.0730 C   0  0  0  0  0  3  0  0  0  0  0  0
  186.7610  178.1400  147.4690 C   0  0  0  0  0  2  0  0  0  0  0  0
  185.3920  178.7900  138.2460 C   0  0  0  0  0  2  0  0  0  0  0  0
  186.5980  177.5230  137.7410 S   0  0  0  0  0  0  0  0  0  0  0  0
  187.7770  178.7620  137.1410 C   0  0  0  0  0  2  0  0  0  0  0  0
  189.1900  178.3020  137.4360 C   0  0  0  0  0  2  0  0  0  0  0  0
  189.3950  178.2820  138.8150 O   0  0  0  0  0  0  0  0  0  0  0  0
  189.4970  177.6920  141.4290 C   0  0  0  0  0  1  0  0  0  0  0  0
  190.2550  176.7650  140.4870 C   0  0  1  0  0  3  0  0  0  0  0  0
  190.1790  177.1440  139.0420 C   0  0  2  0  0  3  0  0  0  0  0  0
  191.2790  177.4910  139.8480 O   0  0  0  0  0  0  0  0  0  0  0  0
  1 12  1  1  0  0  0
  2 13  1  6  0  0  0
  2  8  1  0  0  0  0
  3 18  1  6  0  0  0
  4  9  1  6  0  0  0
  4 14  1  0  0  0  0
  4 15  1  0  0  0  0
  5  2  1  0  0  0  0
  5 10  1  0  0  0  0
  6  5  1  0  0  0  0
  7 17  1  0  0  0  0
  8  1  1  0  0  0  0
  8  3  1  0  0  0  0
 10  1  1  0  0  0  0
 12 11  1  0  0  0  0
 13  7  1  0  0  0  0
 14 15  1  0  0  0  0
 15 19  1  0  0  0  0
 16  7  2  0  0  0  0
 16  9  1  0  0  0  0
 17  4  1  0  0  0  0
 17  3  1  0  0  0  0
 18 11  1  0  0  0  0
 19 24  1  0  0  0  0
 21 20  1  0  0  0  0
 22 21  1  0  0  0  0
 23 25  1  0  0  0  0
 24 22  1  0  0  0  0
 24 23  1  0  0  0  0
 25 20  1  0  0  0  0
 26 16  1  0  0  0  0
 27 26  1  0  0  0  0
 28 29  1  0  0  0  0
 28 27  1  0  0  0  0
 29 30  1  0  0  0  0
 30 33  1  0  0  0  0
 32 31  1  0  0  0  0
 33 34  1  0  0  0  0
 33 32  1  0  0  0  0
 34 32  1  0  0  0  0
M  END
>  <MODEL>
3

>  <REMARK>
 VINA RESULT:      -7.6      2.967      6.838
  Name = 
  8 active torsions:
  status: ('A' for Active; 'I' for Inactive)
    1  A    between atoms: S_3  and  C_13
    2  A    between atoms: S_3  and  C_17
    3  A    between atoms: C_12  and  C_27
    4  A    between atoms: C_12  and  C_28
    5  A    between atoms: C_13  and  C_33
    6  A    between atoms: C_17  and  C_29
    7  A    between atoms: C_20  and  O_34
    8  A    between atoms: C_33  and  O_34
                            x       y       z     vdW  Elec       q    Type
                         _______ _______ _______ _____ _____    ______ ____

>  <TORSDO>
F 8

$$$$
=
 OpenBabel10252415093D

 34 40  0  0  1  0  0  0  0  0999 V2000
  188.6130  177.1930  146.3200 C   0  0  2  0  0  3  0  0  0  0  0  0
  186.6860  177.4800  145.0260 C   0  0  2  0  0  3  0  0  0  0  0  0
  188.8370  177.0600  143.8400 C   0  0  1  0  0  3  0  0  0  0  0  0
  188.6530  177.5800  141.2510 C   0  0  2  0  0  0  0  0  0  0  0  0
  186.6300  178.2990  146.2280 N   0  0  0  0  0  0  0  0  0  0  0  0
  185.4180  177.9300  146.9430 C   0  0  0  0  0  1  0  0  0  0  0  0
  186.9300  178.0700  142.6580 C   0  0  0  0  0  0  0  0  0  0  0  0
  188.0910  177.0820  144.9610 C   0  0  1  0  0  3  0  0  0  0  0  0
  187.5940  178.3150  140.4330 C   0  0  0  0  0  2  0  0  0  0  0  0
  187.6940  177.9840  147.0490 O   0  0  0  0  0  0  0  0  0  0  0  0
  190.8880  176.9950  145.3680 C   0  0  0  0  0  2  0  0  0  0  0  0
  190.0030  177.8210  146.3040 C   0  0  0  0  0  2  0  0  0  0  0  0
  186.2600  178.2260  143.8740 O   0  0  0  0  0  0  0  0  0  0  0  0
  190.0350  178.1750  141.1430 C   0  0  0  0  0  2  0  0  0  0  0  0
  189.7880  176.7190  140.7300 C   0  0  2  0  0  3  0  0  0  0  0  0
  186.5590  178.5780  141.4910 C   0  0  0  0  0  0  0  0  0  0  0  0
  188.1720  177.3980  142.6100 N   0  0  0  0  0  0  0  0  0  0  0  0
  190.3450  177.0010  143.9280 C   0  0  0  0  0  2  0  0  0  0  0  0
  189.7540  176.6280  139.2130 C   0  0  0  0  0  2  0  0  0  0  0  0
  192.7070  175.0890  136.5500 N   0  0  0  0  0  2  0  0  0  0  0  0
  191.6020  174.1950  136.8950 C   0  0  0  0  0  2  0  0  0  0  0  0
  190.4350  174.9980  137.4630 C   0  0  0  0  0  2  0  0  0  0  0  0
  192.1200  176.6000  138.3880 C   0  0  0  0  0  2  0  0  0  0  0  0
  190.8890  175.7510  138.7090 C   0  0  0  0  0  3  0  0  0  0  0  0
  193.2040  175.7150  137.7740 C   0  0  0  0  0  2  0  0  0  0  0  0
  185.3360  179.4070  141.2860 C   0  0  0  0  0  2  0  0  0  0  0  0
  183.9350  178.3530  140.7970 S   0  0  0  0  0  0  0  0  0  0  0  0
  183.9060  179.0250  139.1130 C   0  0  0  0  0  2  0  0  0  0  0  0
  184.3440  177.9560  138.1330 C   0  0  0  0  0  2  0  0  0  0  0  0
  185.6900  178.1370  137.8170 O   0  0  0  0  0  0  0  0  0  0  0  0
  188.0590  178.5450  136.6300 C   0  0  0  0  0  1  0  0  0  0  0  0
  187.3110  177.2750  136.2480 C   0  0  1  0  0  3  0  0  0  0  0  0
  185.9890  177.1000  136.9250 C   0  0  2  0  0  3  0  0  0  0  0  0
  186.0970  177.6220  135.6230 O   0  0  0  0  0  0  0  0  0  0  0  0
  1 12  1  6  0  0  0
  1 10  1  0  0  0  0
  2 13  1  6  0  0  0
  2  5  1  0  0  0  0
  3 18  1  1  0  0  0
  3  8  1  0  0  0  0
  4  9  1  6  0  0  0
  4 17  1  0  0  0  0
  5  6  1  0  0  0  0
  5 10  1  0  0  0  0
  7 13  1  0  0  0  0
  8  2  1  0  0  0  0
  8  1  1  0  0  0  0
  9 16  1  0  0  0  0
 11 12  1  0  0  0  0
 14  4  1  0  0  0  0
 15 14  1  0  0  0  0
 15  4  1  0  0  0  0
 16  7  2  0  0  0  0
 17  7  1  0  0  0  0
 17  3  1  0  0  0  0
 18 11  1  0  0  0  0
 19 15  1  0  0  0  0
 20 21  1  0  0  0  0
 20 25  1  0  0  0  0
 21 22  1  0  0  0  0
 22 24  1  0  0  0  0
 23 24  1  0  0  0  0
 24 19  1  0  0  0  0
 25 23  1  0  0  0  0
 26 16  1  0  0  0  0
 27 26  1  0  0  0  0
 28 27  1  0  0  0  0
 29 28  1  0  0  0  0
 30 29  1  0  0  0  0
 32 31  1  0  0  0  0
 32 33  1  0  0  0  0
 33 30  1  0  0  0  0
 34 32  1  0  0  0  0
 34 33  1  0  0  0  0
M  END
>  <MODEL>
4

>  <REMARK>
 VINA RESULT:      -7.5      2.103      7.174
  Name = 
  8 active torsions:
  status: ('A' for Active; 'I' for Inactive)
    1  A    between atoms: S_3  and  C_13
    2  A    between atoms: S_3  and  C_17
    3  A    between atoms: C_12  and  C_27
    4  A    between atoms: C_12  and  C_28
    5  A    between atoms: C_13  and  C_33
    6  A    between atoms: C_17  and  C_29
    7  A    between atoms: C_20  and  O_34
    8  A    between atoms: C_33  and  O_34
                            x       y       z     vdW  Elec       q    Type
                         _______ _______ _______ _____ _____    ______ ____

>  <TORSDO>
F 8

$$$$
=
 OpenBabel10252415093D

 34 40  0  0  1  0  0  0  0  0999 V2000
  189.9050  176.9630  136.8610 C   0  0  2  0  0  3  0  0  0  0  0  0
  188.1270  178.3870  137.3940 C   0  0  2  0  0  3  0  0  0  0  0  0
  189.5630  177.5640  139.2570 C   0  0  1  0  0  3  0  0  0  0  0  0
  188.4600  178.0080  141.6220 C   0  0  2  0  0  0  0  0  0  0  0  0
  187.7880  177.5340  136.2640 N   0  0  0  0  0  0  0  0  0  0  0  0
  187.4220  178.4080  135.1600 C   0  0  0  0  0  1  0  0  0  0  0  0
  187.3070  178.4390  139.7050 C   0  0  0  0  0  0  0  0  0  0  0  0
  189.3200  177.7480  137.9450 C   0  0  1  0  0  3  0  0  0  0  0  0
  187.0450  178.4150  142.0240 C   0  0  0  0  0  2  0  0  0  0  0  0
  188.9060  176.8300  135.8670 O   0  0  0  0  0  0  0  0  0  0  0  0
  191.3180  175.8420  138.5530 C   0  0  0  0  0  2  0  0  0  0  0  0
  190.3660  175.6050  137.3790 C   0  0  0  0  0  2  0  0  0  0  0  0
  187.0420  178.4540  138.3340 O   0  0  0  0  0  0  0  0  0  0  0  0
  188.9170  176.7020  142.2230 C   0  0  0  0  0  2  0  0  0  0  0  0
  189.6990  177.9920  142.4960 C   0  0  2  0  0  3  0  0  0  0  0  0
  186.4250  178.6400  140.6730 C   0  0  0  0  0  0  0  0  0  0  0  0
  188.5940  178.0950  140.1780 N   0  0  0  0  0  0  0  0  0  0  0  0
  190.6180  176.5790  139.7070 C   0  0  0  0  0  2  0  0  0  0  0  0
  189.3850  178.4800  143.9010 C   0  0  0  0  0  2  0  0  0  0  0  0
  191.1230  176.8060  147.4150 N   0  0  0  0  0  2  0  0  0  0  0  0
  191.6830  176.3750  146.1350 C   0  0  0  0  0  2  0  0  0  0  0  0
  191.2920  177.3580  145.0340 C   0  0  0  0  0  2  0  0  0  0  0  0
  189.1660  177.7610  146.2910 C   0  0  0  0  0  2  0  0  0  0  0  0
  189.7720  177.4280  144.9270 C   0  0  0  0  0  3  0  0  0  0  0  0
  189.6640  176.7570  147.3290 C   0  0  0  0  0  2  0  0  0  0  0  0
  184.9790  178.9280  140.4470 C   0  0  0  0  0  2  0  0  0  0  0  0
  183.9810  178.2500  141.8120 S   0  0  0  0  0  0  0  0  0  0  0  0
  182.8130  177.4550  140.6760 C   0  0  0  0  0  2  0  0  0  0  0  0
  181.6100  178.3550  140.4730 C   0  0  0  0  0  2  0  0  0  0  0  0
  181.2680  178.9540  141.6850 O   0  0  0  0  0  0  0  0  0  0  0  0
  180.3710  178.6250  144.1900 C   0  0  0  0  0  1  0  0  0  0  0  0
  179.3190  178.7530  143.0970 C   0  0  1  0  0  3  0  0  0  0  0  0
  179.8680  178.9200  141.7160 C   0  0  2  0  0  3  0  0  0  0  0  0
  179.4440  177.6700  142.2040 O   0  0  0  0  0  0  0  0  0  0  0  0
  1 12  1  1  0  0  0
  1  8  1  0  0  0  0
  2  8  1  0  0  0  0
  2 13  1  1  0  0  0
  3 18  1  6  0  0  0
  3 17  1  0  0  0  0
  4  9  1  1  0  0  0
  4 14  1  0  0  0  0
  4 15  1  0  0  0  0
  5  2  1  0  0  0  0
  6  5  1  0  0  0  0
  7 17  1  0  0  0  0
  7 16  2  0  0  0  0
  8  3  1  0  0  0  0
 10  5  1  0  0  0  0
 10  1  1  0  0  0  0
 11 18  1  0  0  0  0
 12 11  1  0  0  0  0
 13  7  1  0  0  0  0
 14 15  1  0  0  0  0
 15 19  1  0  0  0  0
 16  9  1  0  0  0  0
 17  4  1  0  0  0  0
 19 24  1  0  0  0  0
 21 20  1  0  0  0  0
 22 21  1  0  0  0  0
 23 25  1  0  0  0  0
 24 22  1  0  0  0  0
 24 23  1  0  0  0  0
 25 20  1  0  0  0  0
 26 16  1  0  0  0  0
 26 27  1  0  0  0  0
 28 27  1  0  0  0  0
 29 28  1  0  0  0  0
 29 30  1  0  0  0  0
 30 33  1  0  0  0  0
 32 31  1  0  0  0  0
 33 34  1  0  0  0  0
 33 32  1  0  0  0  0
 34 32  1  0  0  0  0
M  END
>  <MODEL>
5

>  <REMARK>
 VINA RESULT:      -7.5      1.654      2.259
  Name = 
  8 active torsions:
  status: ('A' for Active; 'I' for Inactive)
    1  A    between atoms: S_3  and  C_13
    2  A    between atoms: S_3  and  C_17
    3  A    between atoms: C_12  and  C_27
    4  A    between atoms: C_12  and  C_28
    5  A    between atoms: C_13  and  C_33
    6  A    between atoms: C_17  and  C_29
    7  A    between atoms: C_20  and  O_34
    8  A    between atoms: C_33  and  O_34
                            x       y       z     vdW  Elec       q    Type
                         _______ _______ _______ _____ _____    ______ ____

>  <TORSDO>
F 8

$$$$
=
 OpenBabel10252415093D

 34 40  0  0  1  0  0  0  0  0999 V2000
  189.4090  176.9170  145.7060 C   0  0  2  0  0  3  0  0  0  0  0  0
  187.4660  177.1480  144.4230 C   0  0  2  0  0  3  0  0  0  0  0  0
  189.6180  176.7640  143.2260 C   0  0  1  0  0  3  0  0  0  0  0  0
  189.4060  177.2540  140.6330 C   0  0  2  0  0  0  0  0  0  0  0  0
  187.4000  177.9770  145.6180 N   0  0  0  0  0  0  0  0  0  0  0  0
  186.2010  177.5890  146.3450 C   0  0  0  0  0  1  0  0  0  0  0  0
  187.6820  177.7200  142.0480 C   0  0  0  0  0  0  0  0  0  0  0  0
  188.8790  176.7810  144.3520 C   0  0  1  0  0  3  0  0  0  0  0  0
  188.3250  177.9570  139.8160 C   0  0  0  0  0  2  0  0  0  0  0  0
  188.4760  177.6940  146.4340 O   0  0  0  0  0  0  0  0  0  0  0  0
  191.6800  176.7610  144.7410 C   0  0  0  0  0  2  0  0  0  0  0  0
  190.7830  177.5760  145.6740 C   0  0  0  0  0  2  0  0  0  0  0  0
  187.0170  177.8720  143.2670 O   0  0  0  0  0  0  0  0  0  0  0  0
  190.7730  177.8790  140.5100 C   0  0  0  0  0  2  0  0  0  0  0  0
  190.5560  176.4140  140.1140 C   0  0  2  0  0  3  0  0  0  0  0  0
  187.2910  178.2070  140.8790 C   0  0  0  0  0  0  0  0  0  0  0  0
  188.9380  177.0750  141.9980 N   0  0  0  0  0  0  0  0  0  0  0  0
  191.1280  176.7390  143.3040 C   0  0  0  0  0  2  0  0  0  0  0  0
  190.5140  176.3060  138.5980 C   0  0  0  0  0  2  0  0  0  0  0  0
  193.3330  174.6260  135.8760 N   0  0  0  0  0  2  0  0  0  0  0  0
  192.3060  173.7260  136.3990 C   0  0  0  0  0  2  0  0  0  0  0  0
  191.1440  174.5320  136.9740 C   0  0  0  0  0  2  0  0  0  0  0  0
  192.8090  176.2960  137.5920 C   0  0  0  0  0  2  0  0  0  0  0  0
  191.6510  175.4320  138.0960 C   0  0  0  0  0  3  0  0  0  0  0  0
  193.8870  175.3990  136.9860 C   0  0  0  0  0  2  0  0  0  0  0  0
  186.0490  179.0070  140.6730 C   0  0  0  0  0  2  0  0  0  0  0  0
  185.3160  178.6270  139.0510 S   0  0  0  0  0  0  0  0  0  0  0  0
  183.6740  178.3400  139.7640 C   0  0  0  0  0  2  0  0  0  0  0  0
  183.8180  177.8880  141.2030 C   0  0  0  0  0  2  0  0  0  0  0  0
  182.9570  178.6280  142.0110 O   0  0  0  0  0  0  0  0  0  0  0  0
  181.1230  178.6500  143.9680 C   0  0  0  0  0  1  0  0  0  0  0  0
  182.5840  178.6310  144.3980 C   0  0  1  0  0  3  0  0  0  0  0  0
  183.5680  178.6340  143.2710 C   0  0  2  0  0  3  0  0  0  0  0  0
  183.2120  179.8120  143.9550 O   0  0  0  0  0  0  0  0  0  0  0  0
  1 12  1  6  0  0  0
  1 10  1  0  0  0  0
  2 13  1  6  0  0  0
  2  5  1  0  0  0  0
  3 18  1  1  0  0  0
  3  8  1  0  0  0  0
  4  9  1  6  0  0  0
  4 17  1  0  0  0  0
  5  6  1  0  0  0  0
  5 10  1  0  0  0  0
  7 13  1  0  0  0  0
  8  2  1  0  0  0  0
  8  1  1  0  0  0  0
  9 16  1  0  0  0  0
 11 12  1  0  0  0  0
 14  4  1  0  0  0  0
 15 14  1  0  0  0  0
 15  4  1  0  0  0  0
 16  7  2  0  0  0  0
 17  7  1  0  0  0  0
 17  3  1  0  0  0  0
 18 11  1  0  0  0  0
 19 15  1  0  0  0  0
 20 21  1  0  0  0  0
 20 25  1  0  0  0  0
 21 22  1  0  0  0  0
 22 24  1  0  0  0  0
 23 24  1  0  0  0  0
 24 19  1  0  0  0  0
 25 23  1  0  0  0  0
 26 16  1  0  0  0  0
 27 28  1  0  0  0  0
 27 26  1  0  0  0  0
 28 29  1  0  0  0  0
 29 30  1  0  0  0  0
 30 33  1  0  0  0  0
 31 32  1  0  0  0  0
 33 34  1  0  0  0  0
 33 32  1  0  0  0  0
 34 32  1  0  0  0  0
M  END
>  <MODEL>
6

>  <REMARK>
 VINA RESULT:      -7.4      2.589      6.366
  Name = 
  8 active torsions:
  status: ('A' for Active; 'I' for Inactive)
    1  A    between atoms: S_3  and  C_13
    2  A    between atoms: S_3  and  C_17
    3  A    between atoms: C_12  and  C_27
    4  A    between atoms: C_12  and  C_28
    5  A    between atoms: C_13  and  C_33
    6  A    between atoms: C_17  and  C_29
    7  A    between atoms: C_20  and  O_34
    8  A    between atoms: C_33  and  O_34
                            x       y       z     vdW  Elec       q    Type
                         _______ _______ _______ _____ _____    ______ ____

>  <TORSDO>
F 8

$$$$
=
 OpenBabel10252415093D

 34 40  0  0  1  0  0  0  0  0999 V2000
  189.9860  177.1120  145.1910 C   0  0  2  0  0  3  0  0  0  0  0  0
  187.6990  177.3280  144.7450 C   0  0  2  0  0  3  0  0  0  0  0  0
  189.2600  177.1890  142.8070 C   0  0  1  0  0  3  0  0  0  0  0  0
  188.0830  177.8870  140.5410 C   0  0  2  0  0  0  0  0  0  0  0  0
  188.0600  178.0450  145.9600 N   0  0  0  0  0  0  0  0  0  0  0  0
  187.2300  177.5190  147.0320 C   0  0  0  0  0  1  0  0  0  0  0  0
  186.9980  178.1170  142.5310 C   0  0  0  0  0  0  0  0  0  0  0  0
  188.9940  177.0610  144.1210 C   0  0  1  0  0  3  0  0  0  0  0  0
  186.7570  178.5870  140.2570 C   0  0  0  0  0  2  0  0  0  0  0  0
  189.3710  177.7620  146.2880 O   0  0  0  0  0  0  0  0  0  0  0  0
  191.7370  177.1870  143.4470 C   0  0  0  0  0  2  0  0  0  0  0  0
  191.2310  177.8590  144.7250 C   0  0  0  0  0  2  0  0  0  0  0  0
  186.8320  178.1200  143.9180 O   0  0  0  0  0  0  0  0  0  0  0  0
  189.2880  178.6070  139.9890 C   0  0  0  0  0  2  0  0  0  0  0  0
  188.9790  177.1710  139.5500 C   0  0  2  0  0  3  0  0  0  0  0  0
  186.1870  178.6780  141.6460 C   0  0  0  0  0  0  0  0  0  0  0  0
  188.1630  177.5610  141.9550 N   0  0  0  0  0  0  0  0  0  0  0  0
  190.6900  177.2550  142.3210 C   0  0  0  0  0  2  0  0  0  0  0  0
  188.3790  177.1930  138.1530 C   0  0  0  0  0  2  0  0  0  0  0  0
  189.9520  173.4410  136.8790 N   0  0  0  0  0  2  0  0  0  0  0  0
  190.9200  174.5060  137.1380 C   0  0  0  0  0  2  0  0  0  0  0  0
  190.2810  175.6000  137.9910 C   0  0  0  0  0  2  0  0  0  0  0  0
  188.1070  175.0530  136.8780 C   0  0  0  0  0  2  0  0  0  0  0  0
  189.0720  176.1760  137.2610 C   0  0  0  0  0  3  0  0  0  0  0  0
  188.8560  173.9870  136.0810 C   0  0  0  0  0  2  0  0  0  0  0  0
  184.9360  179.4110  141.9970 C   0  0  0  0  0  2  0  0  0  0  0  0
  183.5480  178.2440  142.1640 S   0  0  0  0  0  0  0  0  0  0  0  0
  183.0450  178.9400  143.7610 C   0  0  0  0  0  2  0  0  0  0  0  0
  181.5460  178.7960  143.9270 C   0  0  0  0  0  2  0  0  0  0  0  0
  180.9390  178.7670  142.6720 O   0  0  0  0  0  0  0  0  0  0  0  0
  180.3680  180.2020  140.4800 C   0  0  0  0  0  1  0  0  0  0  0  0
  179.3760  180.2870  141.6320 C   0  0  1  0  0  3  0  0  0  0  0  0
  179.7460  179.4810  142.8370 C   0  0  2  0  0  3  0  0  0  0  0  0
  180.0140  180.8600  142.7510 O   0  0  0  0  0  0  0  0  0  0  0  0
  1 12  1  6  0  0  0
  1 10  1  0  0  0  0
  2 13  1  6  0  0  0
  2  5  1  0  0  0  0
  3 18  1  1  0  0  0
  3  8  1  0  0  0  0
  4 14  1  1  0  0  0
  4 17  1  0  0  0  0
  5 10  1  0  0  0  0
  5  6  1  0  0  0  0
  7 13  1  0  0  0  0
  8  2  1  0  0  0  0
  8  1  1  0  0  0  0
  9  4  1  0  0  0  0
  9 16  1  0  0  0  0
 11 12  1  0  0  0  0
 15 14  1  0  0  0  0
 15  4  1  0  0  0  0
 16 26  1  0  0  0  0
 16  7  2  0  0  0  0
 17  7  1  0  0  0  0
 17  3  1  0  0  0  0
 18 11  1  0  0  0  0
 19 15  1  0  0  0  0
 20 21  1  0  0  0  0
 21 22  1  0  0  0  0
 23 24  1  0  0  0  0
 24 22  1  0  0  0  0
 24 19  1  0  0  0  0
 25 23  1  0  0  0  0
 25 20  1  0  0  0  0
 26 27  1  0  0  0  0
 27 28  1  0  0  0  0
 28 29  1  0  0  0  0
 30 33  1  0  0  0  0
 30 29  1  0  0  0  0
 31 32  1  0  0  0  0
 32 34  1  0  0  0  0
 32 33  1  0  0  0  0
 34 33  1  0  0  0  0
M  END
>  <MODEL>
7

>  <REMARK>
 VINA RESULT:      -7.4      2.554      6.550
  Name = 
  8 active torsions:
  status: ('A' for Active; 'I' for Inactive)
    1  A    between atoms: S_3  and  C_13
    2  A    between atoms: S_3  and  C_17
    3  A    between atoms: C_12  and  C_27
    4  A    between atoms: C_12  and  C_28
    5  A    between atoms: C_13  and  C_33
    6  A    between atoms: C_17  and  C_29
    7  A    between atoms: C_20  and  O_34
    8  A    between atoms: C_33  and  O_34
                            x       y       z     vdW  Elec       q    Type
                         _______ _______ _______ _____ _____    ______ ____

>  <TORSDO>
F 8

$$$$
=
 OpenBabel10252415093D

 34 40  0  0  1  0  0  0  0  0999 V2000
  183.9410  178.6870  142.8510 C   0  0  2  0  0  3  0  0  0  0  0  0
  185.0720  178.2500  140.8510 C   0  0  2  0  0  3  0  0  0  0  0  0
  186.3020  177.8980  142.9890 C   0  0  1  0  0  3  0  0  0  0  0  0
  188.9060  177.6230  142.5950 C   0  0  2  0  0  0  0  0  0  0  0  0
  184.1360  179.3530  140.6870 N   0  0  0  0  0  0  0  0  0  0  0  0
  183.2340  178.9940  139.6030 C   0  0  0  0  0  1  0  0  0  0  0  0
  187.5230  178.1790  140.8720 C   0  0  0  0  0  0  0  0  0  0  0  0
  185.1620  178.1050  142.3020 C   0  0  1  0  0  3  0  0  0  0  0  0
  189.7850  177.8970  141.3780 C   0  0  0  0  0  2  0  0  0  0  0  0
  183.3670  179.4760  141.8270 O   0  0  0  0  0  0  0  0  0  0  0  0
  185.0190  178.6320  145.0770 C   0  0  0  0  0  2  0  0  0  0  0  0
  184.2600  179.5200  144.0880 C   0  0  0  0  0  2  0  0  0  0  0  0
  186.3360  178.5520  140.2380 O   0  0  0  0  0  0  0  0  0  0  0  0
  189.3030  178.3970  143.8270 C   0  0  0  0  0  2  0  0  0  0  0  0
  189.2820  176.8640  143.8530 C   0  0  2  0  0  3  0  0  0  0  0  0
  188.7430  178.2620  140.3580 C   0  0  0  0  0  0  0  0  0  0  0  0
  187.5080  177.7510  142.2190 N   0  0  0  0  0  0  0  0  0  0  0  0
  186.3480  178.1340  144.4820 C   0  0  0  0  0  2  0  0  0  0  0  0
  190.7070  176.3420  143.7730 C   0  0  0  0  0  2  0  0  0  0  0  0
  191.5780  175.5740  147.8750 N   0  0  0  0  0  2  0  0  0  0  0  0
  191.0380  176.8930  147.5530 C   0  0  0  0  0  2  0  0  0  0  0  0
  190.3720  176.8680  146.1800 C   0  0  0  0  0  2  0  0  0  0  0  0
  192.0560  175.1410  145.5100 C   0  0  0  0  0  2  0  0  0  0  0  0
  191.3950  176.4650  145.1220 C   0  0  0  0  0  3  0  0  0  0  0  0
  192.6370  175.2550  146.9180 C   0  0  0  0  0  2  0  0  0  0  0  0
  189.0460  178.7690  138.9890 C   0  0  0  0  0  2  0  0  0  0  0  0
  188.2840  177.6920  137.7340 S   0  0  0  0  0  0  0  0  0  0  0  0
  189.8780  176.9620  137.2710 C   0  0  0  0  0  2  0  0  0  0  0  0
  190.0420  175.6220  137.9600 C   0  0  0  0  0  2  0  0  0  0  0  0
  191.3120  175.5450  138.5300 O   0  0  0  0  0  0  0  0  0  0  0  0
  193.6470  174.6100  137.6020 C   0  0  0  0  0  1  0  0  0  0  0  0
  193.3530  176.0840  137.3550 C   0  0  1  0  0  3  0  0  0  0  0  0
  192.0460  176.5610  137.9040 C   0  0  2  0  0  3  0  0  0  0  0  0
  193.2580  176.7510  138.5930 O   0  0  0  0  0  0  0  0  0  0  0  0
  1 12  1  1  0  0  0
  2 13  1  1  0  0  0
  2  8  1  0  0  0  0
  3 18  1  1  0  0  0
  4  9  1  6  0  0  0
  4 14  1  0  0  0  0
  4 15  1  0  0  0  0
  5  2  1  0  0  0  0
  5 10  1  0  0  0  0
  6  5  1  0  0  0  0
  7 17  1  0  0  0  0
  8  1  1  0  0  0  0
  8  3  1  0  0  0  0
 10  1  1  0  0  0  0
 12 11  1  0  0  0  0
 13  7  1  0  0  0  0
 14 15  1  0  0  0  0
 16  7  2  0  0  0  0
 16  9  1  0  0  0  0
 17  4  1  0  0  0  0
 17  3  1  0  0  0  0
 18 11  1  0  0  0  0
 19 15  1  0  0  0  0
 19 24  1  0  0  0  0
 21 20  1  0  0  0  0
 22 21  1  0  0  0  0
 23 25  1  0  0  0  0
 24 23  1  0  0  0  0
 24 22  1  0  0  0  0
 25 20  1  0  0  0  0
 26 16  1  0  0  0  0
 27 26  1  0  0  0  0
 28 27  1  0  0  0  0
 28 29  1  0  0  0  0
 29 30  1  0  0  0  0
 32 31  1  0  0  0  0
 32 33  1  0  0  0  0
 32 34  1  0  0  0  0
 33 30  1  0  0  0  0
 33 34  1  0  0  0  0
M  END
>  <MODEL>
8

>  <REMARK>
 VINA RESULT:      -7.1      2.187      6.489
  Name = 
  8 active torsions:
  status: ('A' for Active; 'I' for Inactive)
    1  A    between atoms: S_3  and  C_13
    2  A    between atoms: S_3  and  C_17
    3  A    between atoms: C_12  and  C_27
    4  A    between atoms: C_12  and  C_28
    5  A    between atoms: C_13  and  C_33
    6  A    between atoms: C_17  and  C_29
    7  A    between atoms: C_20  and  O_34
    8  A    between atoms: C_33  and  O_34
                            x       y       z     vdW  Elec       q    Type
                         _______ _______ _______ _____ _____    ______ ____

>  <TORSDO>
F 8

$$$$
=
 OpenBabel10252415093D

 34 40  0  0  1  0  0  0  0  0999 V2000
  185.4140  177.5070  136.7120 C   0  0  2  0  0  3  0  0  0  0  0  0
  186.1560  178.6420  138.6180 C   0  0  2  0  0  3  0  0  0  0  0  0
  187.8120  177.2760  137.3530 C   0  0  1  0  0  3  0  0  0  0  0  0
  190.0360  176.8920  138.7370 C   0  0  2  0  0  0  0  0  0  0  0  0
  184.7770  178.2040  138.7790 N   0  0  0  0  0  0  0  0  0  0  0  0
  183.9810  179.3870  139.0690 C   0  0  0  0  0  1  0  0  0  0  0  0
  188.2360  177.9110  139.6920 C   0  0  0  0  0  0  0  0  0  0  0  0
  186.6120  177.8780  137.4580 C   0  0  1  0  0  3  0  0  0  0  0  0
  190.3700  177.1180  140.2090 C   0  0  0  0  0  2  0  0  0  0  0  0
  184.3150  177.6910  137.5840 O   0  0  0  0  0  0  0  0  0  0  0  0
  186.8090  175.9150  135.4330 C   0  0  0  0  0  2  0  0  0  0  0  0
  185.5140  176.0630  136.2330 C   0  0  0  0  0  2  0  0  0  0  0  0
  186.9230  178.3740  139.8030 O   0  0  0  0  0  0  0  0  0  0  0  0
  190.2310  175.4700  138.2740 C   0  0  0  0  0  2  0  0  0  0  0  0
  191.0040  176.6120  137.6040 C   0  0  2  0  0  3  0  0  0  0  0  0
  189.1000  177.7650  140.6870 C   0  0  0  0  0  0  0  0  0  0  0  0
  188.7280  177.4550  138.4480 N   0  0  0  0  0  0  0  0  0  0  0  0
  188.0450  176.2170  136.2990 C   0  0  0  0  0  2  0  0  0  0  0  0
  192.4410  176.6020  138.1010 C   0  0  0  0  0  2  0  0  0  0  0  0
  194.4400  174.3520  135.0810 N   0  0  0  0  0  2  0  0  0  0  0  0
  195.2550  174.8190  136.2010 C   0  0  0  0  0  2  0  0  0  0  0  0
  194.3610  175.1960  137.3800 C   0  0  0  0  0  2  0  0  0  0  0  0
  192.6210  175.8690  135.7110 C   0  0  0  0  0  2  0  0  0  0  0  0
  193.3960  176.2990  136.9580 C   0  0  0  0  0  3  0  0  0  0  0  0
  193.6030  175.4580  134.6160 C   0  0  0  0  0  2  0  0  0  0  0  0
  188.8020  178.0850  142.1130 C   0  0  0  0  0  2  0  0  0  0  0  0
  188.9910  176.5970  143.1450 S   0  0  0  0  0  0  0  0  0  0  0  0
  189.0530  177.5630  144.6770 C   0  0  0  0  0  2  0  0  0  0  0  0
  187.8300  177.2600  145.5190 C   0  0  0  0  0  2  0  0  0  0  0  0
  186.9090  178.2980  145.3930 O   0  0  0  0  0  0  0  0  0  0  0  0
  184.4560  179.2150  144.8160 C   0  0  0  0  0  1  0  0  0  0  0  0
  184.6580  178.6270  146.2060 C   0  0  1  0  0  3  0  0  0  0  0  0
  186.0460  178.1430  146.4850 C   0  0  2  0  0  3  0  0  0  0  0  0
  185.5980  179.4080  146.9080 O   0  0  0  0  0  0  0  0  0  0  0  0
  1 12  1  1  0  0  0
  1  8  1  0  0  0  0
  1 10  1  0  0  0  0
  2  5  1  0  0  0  0
  2 13  1  1  0  0  0
  3 18  1  1  0  0  0
  3  8  1  0  0  0  0
  3 17  1  0  0  0  0
  4 14  1  1  0  0  0
  4  9  1  0  0  0  0
  5  6  1  0  0  0  0
  7 13  1  0  0  0  0
  7 16  2  0  0  0  0
  8  2  1  0  0  0  0
  9 16  1  0  0  0  0
 10  5  1  0  0  0  0
 11 12  1  0  0  0  0
 11 18  1  0  0  0  0
 15 19  1  0  0  0  0
 15 14  1  0  0  0  0
 15  4  1  0  0  0  0
 16 26  1  0  0  0  0
 17  4  1  0  0  0  0
 17  7  1  0  0  0  0
 20 21  1  0  0  0  0
 21 22  1  0  0  0  0
 23 24  1  0  0  0  0
 24 22  1  0  0  0  0
 24 19  1  0  0  0  0
 25 20  1  0  0  0  0
 25 23  1  0  0  0  0
 26 27  1  0  0  0  0
 27 28  1  0  0  0  0
 28 29  1  0  0  0  0
 30 29  1  0  0  0  0
 30 33  1  0  0  0  0
 31 32  1  0  0  0  0
 32 33  1  0  0  0  0
 32 34  1  0  0  0  0
 33 34  1  0  0  0  0
M  END
>  <MODEL>
9

>  <REMARK>
 VINA RESULT:      -7.0      2.739      5.911
  Name = 
  8 active torsions:
  status: ('A' for Active; 'I' for Inactive)
    1  A    between atoms: S_3  and  C_13
    2  A    between atoms: S_3  and  C_17
    3  A    between atoms: C_12  and  C_27
    4  A    between atoms: C_12  and  C_28
    5  A    between atoms: C_13  and  C_33
    6  A    between atoms: C_17  and  C_29
    7  A    between atoms: C_20  and  O_34
    8  A    between atoms: C_33  and  O_34
                            x       y       z     vdW  Elec       q    Type
                         _______ _______ _______ _____ _____    ______ ____

>  <TORSDO>
F 8

$$$$
