=
 OpenBabel10262419533D

 25 27  0  0  1  0  0  0  0  0999 V2000
  190.9660  176.4490  145.3950 N   0  0  0  0  0  0  0  0  0  0  0  0
  189.8150  177.0700  145.6910 C   0  0  0  0  0  0  0  0  0  0  0  0
  191.6080  176.3450  146.5850 C   0  0  0  0  0  3  0  0  0  0  0  0
  186.4950  178.1630  144.6880 C   0  0  0  0  0  0  0  0  0  0  0  0
  190.9020  176.8960  147.6100 N   0  0  0  0  0  0  0  0  0  0  0  0
  188.5930  177.9460  147.6490 C   0  0  0  0  0  0  0  0  0  0  0  0
  188.5680  178.2540  149.1040 C   0  0  0  0  0  1  0  0  0  0  0  0
  185.4640  178.4310  143.9330 C   0  0  0  0  0  3  0  0  0  0  0  0
  188.6960  177.2910  144.8340 N   0  0  0  0  0  2  0  0  0  0  0  0
  191.4010  175.8960  144.1420 C   0  0  0  0  0  0  0  0  0  0  0  0
  192.1140  174.8560  144.1480 O   0  0  0  0  0  0  0  0  0  0  0  0
  187.5210  178.2110  146.8820 C   0  0  0  0  0  3  0  0  0  0  0  0
  187.5320  177.8930  145.4270 C   0  0  0  0  0  0  0  0  0  0  0  0
  189.7780  177.3430  147.0190 C   0  0  0  0  0  0  0  0  0  0  0  0
  191.0580  176.5270  142.8500 C   0  0  0  0  0  0  0  0  0  0  0  0
  190.4190  177.6570  140.4020 N   0  0  0  0  0  0  0  0  0  0  0  0
  189.8200  176.2690  142.2520 C   0  0  0  0  0  3  0  0  0  0  0  0
  189.5140  176.8510  141.0190 C   0  0  0  0  0  3  0  0  0  0  0  0
  191.6350  177.9120  140.9550 C   0  0  0  0  0  3  0  0  0  0  0  0
  191.9770  177.3490  142.1850 C   0  0  0  0  0  3  0  0  0  0  0  0
  185.3940  177.9310  142.5270 C   0  0  2  0  0  3  0  0  0  0  0  0
  186.4380  178.6080  141.6530 C   0  0  0  0  0  1  0  0  0  0  0  0
  184.0280  178.1470  141.9640 C   0  0  0  0  0  0  0  0  0  0  0  0
  183.0650  178.7890  142.7310 O   0  0  0  0  0  1  0  0  0  0  0  0
  183.7420  177.7560  140.8010 O   0  0  0  0  0  0  0  0  0  0  0  0
  1  2  1  0  0  0  0
  1  3  1  0  0  0  0
  2 14  2  0  0  0  0
  3  5  2  0  0  0  0
  4 13  2  0  0  0  0
  6  7  1  0  0  0  0
  8  4  2  0  0  0  0
  9 13  1  0  0  0  0
  9  2  1  0  0  0  0
 10 11  2  0  0  0  0
 10  1  1  0  0  0  0
 12  6  2  0  0  0  0
 13 12  1  0  0  0  0
 14  5  1  0  0  0  0
 14  6  1  0  0  0  0
 15 10  1  0  0  0  0
 16 19  2  0  0  0  0
 16 18  1  0  0  0  0
 17 15  1  0  0  0  0
 18 17  2  0  0  0  0
 19 20  1  0  0  0  0
 20 15  2  0  0  0  0
 21 22  1  6  0  0  0
 21  8  1  0  0  0  0
 23 21  1  0  0  0  0
 23 24  1  0  0  0  0
 25 23  2  0  0  0  0
M  END
>  <MODEL>
1

>  <REMARK>
 VINA RESULT:      -8.7      0.000      0.000
  Name = 
  3 active torsions:
  status: ('A' for Active; 'I' for Inactive)
    1  A    between atoms: C_2  and  C_21
    2  A    between atoms: C_5  and  C_18
    3  A    between atoms: C_15  and  C_21
                            x       y       z     vdW  Elec       q    Type
                         _______ _______ _______ _____ _____    ______ ____

>  <TORSDO>
F 3

$$$$
=
 OpenBabel10262419533D

 25 27  0  0  1  0  0  0  0  0999 V2000
  187.5300  177.7540  145.6790 N   0  0  0  0  0  0  0  0  0  0  0  0
  186.9000  178.1290  144.5570 C   0  0  0  0  0  0  0  0  0  0  0  0
  186.6120  177.9410  146.6590 C   0  0  0  0  0  3  0  0  0  0  0  0
  186.8070  178.3120  140.9260 C   0  0  0  0  0  0  0  0  0  0  0  0
  185.4350  178.4340  146.1860 N   0  0  0  0  0  0  0  0  0  0  0  0
  184.6860  178.9300  143.8140 C   0  0  0  0  0  0  0  0  0  0  0  0
  183.3160  179.3950  144.1580 C   0  0  0  0  0  1  0  0  0  0  0  0
  187.1950  178.2490  139.6810 C   0  0  0  0  0  3  0  0  0  0  0  0
  187.3530  177.9870  143.2110 N   0  0  0  0  0  2  0  0  0  0  0  0
  188.8330  177.1690  145.8350 C   0  0  0  0  0  0  0  0  0  0  0  0
  189.0200  176.3260  146.7540 O   0  0  0  0  0  0  0  0  0  0  0  0
  185.0710  178.8530  142.5280 C   0  0  0  0  0  3  0  0  0  0  0  0
  186.4370  178.3750  142.1720 C   0  0  0  0  0  0  0  0  0  0  0  0
  185.6440  178.5410  144.8610 C   0  0  0  0  0  0  0  0  0  0  0  0
  189.9670  177.5480  144.9650 C   0  0  0  0  0  0  0  0  0  0  0  0
  192.0540  178.2860  143.2980 N   0  0  0  0  0  0  0  0  0  0  0  0
  190.3620  178.8870  144.8740 C   0  0  0  0  0  3  0  0  0  0  0  0
  191.4200  179.2400  144.0310 C   0  0  0  0  0  3  0  0  0  0  0  0
  191.6800  176.9800  143.3570 C   0  0  0  0  0  3  0  0  0  0  0  0
  190.6280  176.5890  144.1870 C   0  0  0  0  0  3  0  0  0  0  0  0
  188.4810  177.5820  139.3120 C   0  0  2  0  0  3  0  0  0  0  0  0
  189.4300  177.5320  140.4990 C   0  0  0  0  0  1  0  0  0  0  0  0
  189.1220  178.2880  138.1630 C   0  0  0  0  0  0  0  0  0  0  0  0
  189.9730  177.5890  137.3190 O   0  0  0  0  0  0  0  0  0  0  0  0
  188.8960  179.5090  137.9510 O   0  0  0  0  0  1  0  0  0  0  0  0
  1 10  1  0  0  0  0
  1  3  1  0  0  0  0
  2 14  2  0  0  0  0
  2  1  1  0  0  0  0
  4 13  2  0  0  0  0
  5  3  2  0  0  0  0
  6  7  1  0  0  0  0
  6 14  1  0  0  0  0
  8  4  2  0  0  0  0
  9  2  1  0  0  0  0
 10 11  2  0  0  0  0
 12  6  2  0  0  0  0
 13 12  1  0  0  0  0
 13  9  1  0  0  0  0
 14  5  1  0  0  0  0
 15 10  1  0  0  0  0
 16 19  2  0  0  0  0
 16 18  1  0  0  0  0
 17 15  1  0  0  0  0
 18 17  2  0  0  0  0
 19 20  1  0  0  0  0
 20 15  2  0  0  0  0
 21  8  1  0  0  0  0
 21 22  1  1  0  0  0
 23 21  1  0  0  0  0
 24 23  2  0  0  0  0
 25 23  1  0  0  0  0
M  END
>  <MODEL>
2

>  <REMARK>
 VINA RESULT:      -8.5      2.802      4.702
  Name = 
  3 active torsions:
  status: ('A' for Active; 'I' for Inactive)
    1  A    between atoms: C_2  and  C_21
    2  A    between atoms: C_5  and  C_18
    3  A    between atoms: C_15  and  C_21
                            x       y       z     vdW  Elec       q    Type
                         _______ _______ _______ _____ _____    ______ ____

>  <TORSDO>
F 3

$$$$
=
 OpenBabel10262419533D

 25 27  0  0  1  0  0  0  0  0999 V2000
  189.8260  176.7490  144.4760 N   0  0  0  0  0  0  0  0  0  0  0  0
  188.7660  177.3110  145.0750 C   0  0  0  0  0  0  0  0  0  0  0  0
  190.7080  176.5340  145.4830 C   0  0  0  0  0  3  0  0  0  0  0  0
  185.3100  178.4320  144.9250 C   0  0  0  0  0  0  0  0  0  0  0  0
  190.2380  176.9580  146.6880 N   0  0  0  0  0  0  0  0  0  0  0  0
  187.9930  177.9480  147.3310 C   0  0  0  0  0  0  0  0  0  0  0  0
  188.2800  178.1010  148.7830 C   0  0  0  0  0  1  0  0  0  0  0  0
  184.1420  178.7570  144.4410 C   0  0  0  0  0  3  0  0  0  0  0  0
  187.4900  177.5970  144.5050 N   0  0  0  0  0  2  0  0  0  0  0  0
  189.9820  176.3410  143.1070 C   0  0  0  0  0  0  0  0  0  0  0  0
  190.6780  175.3210  142.8490 O   0  0  0  0  0  0  0  0  0  0  0  0
  186.7820  178.2710  146.8430 C   0  0  0  0  0  3  0  0  0  0  0  0
  186.4810  178.1080  145.3930 C   0  0  0  0  0  0  0  0  0  0  0  0
  189.0150  177.4410  146.4020 C   0  0  0  0  0  0  0  0  0  0  0  0
  189.3720  177.0970  141.9930 C   0  0  0  0  0  0  0  0  0  0  0  0
  188.2830  178.5310  139.8870 N   0  0  0  0  0  0  0  0  0  0  0  0
  189.5470  176.6640  140.6740 C   0  0  0  0  0  3  0  0  0  0  0  0
  188.9870  177.3980  139.6260 C   0  0  0  0  0  3  0  0  0  0  0  0
  188.1100  178.9820  141.1580 C   0  0  0  0  0  3  0  0  0  0  0  0
  188.6550  178.2770  142.2320 C   0  0  0  0  0  3  0  0  0  0  0  0
  183.7720  178.4070  143.0360 C   0  0  2  0  0  3  0  0  0  0  0  0
  184.7180  179.0620  142.0410 C   0  0  0  0  0  1  0  0  0  0  0  0
  182.3620  178.8080  142.7530 C   0  0  0  0  0  0  0  0  0  0  0  0
  181.9350  178.9310  141.4380 O   0  0  0  0  0  0  0  0  0  0  0  0
  181.5560  179.0320  143.6960 O   0  0  0  0  0  1  0  0  0  0  0  0
  1  2  1  0  0  0  0
  1  3  1  0  0  0  0
  2 14  2  0  0  0  0
  3  5  2  0  0  0  0
  4 13  2  0  0  0  0
  6  7  1  0  0  0  0
  8  4  2  0  0  0  0
  9  2  1  0  0  0  0
  9 13  1  0  0  0  0
 10  1  1  0  0  0  0
 11 10  2  0  0  0  0
 12  6  2  0  0  0  0
 13 12  1  0  0  0  0
 14  5  1  0  0  0  0
 14  6  1  0  0  0  0
 15 20  1  0  0  0  0
 15 10  1  0  0  0  0
 16 19  1  0  0  0  0
 17 15  2  0  0  0  0
 18 16  2  0  0  0  0
 18 17  1  0  0  0  0
 19 20  2  0  0  0  0
 21 22  1  6  0  0  0
 21  8  1  0  0  0  0
 23 21  1  0  0  0  0
 23 25  1  0  0  0  0
 24 23  2  0  0  0  0
M  END
>  <MODEL>
3

>  <REMARK>
 VINA RESULT:      -8.4      1.468      1.911
  Name = 
  3 active torsions:
  status: ('A' for Active; 'I' for Inactive)
    1  A    between atoms: C_2  and  C_21
    2  A    between atoms: C_5  and  C_18
    3  A    between atoms: C_15  and  C_21
                            x       y       z     vdW  Elec       q    Type
                         _______ _______ _______ _____ _____    ______ ____

>  <TORSDO>
F 3

$$$$
=
 OpenBabel10262419533D

 25 27  0  0  1  0  0  0  0  0999 V2000
  187.3290  178.1920  146.8510 N   0  0  0  0  0  0  0  0  0  0  0  0
  188.3090  177.7760  146.0360 C   0  0  0  0  0  0  0  0  0  0  0  0
  187.7690  177.8780  148.0940 C   0  0  0  0  0  3  0  0  0  0  0  0
  189.7940  177.6740  142.7180 C   0  0  0  0  0  0  0  0  0  0  0  0
  188.9850  177.2660  148.0790 N   0  0  0  0  0  0  0  0  0  0  0  0
  190.5500  176.7480  146.1510 C   0  0  0  0  0  0  0  0  0  0  0  0
  191.6260  176.1220  146.9650 C   0  0  0  0  0  1  0  0  0  0  0  0
  189.9310  177.8120  141.4270 C   0  0  0  0  0  3  0  0  0  0  0  0
  188.4330  178.0020  144.6320 N   0  0  0  0  0  2  0  0  0  0  0  0
  186.1300  178.9170  146.5310 C   0  0  0  0  0  0  0  0  0  0  0  0
  185.6810  179.7530  147.3620 O   0  0  0  0  0  0  0  0  0  0  0  0
  190.7070  176.9000  144.8250 C   0  0  0  0  0  3  0  0  0  0  0  0
  189.6400  177.5390  144.0030 C   0  0  0  0  0  0  0  0  0  0  0  0
  189.3010  177.2170  146.7720 C   0  0  0  0  0  0  0  0  0  0  0  0
  185.3960  178.6910  145.2680 C   0  0  0  0  0  0  0  0  0  0  0  0
  183.9800  178.2330  142.9300 N   0  0  0  0  0  0  0  0  0  0  0  0
  184.1220  179.2420  145.0910 C   0  0  0  0  0  3  0  0  0  0  0  0
  183.4250  179.0040  143.9030 C   0  0  0  0  0  3  0  0  0  0  0  0
  185.2110  177.6740  143.0830 C   0  0  0  0  0  3  0  0  0  0  0  0
  185.9370  177.8890  144.2550 C   0  0  0  0  0  3  0  0  0  0  0  0
  188.9610  178.6290  140.6370 C   0  0  2  0  0  3  0  0  0  0  0  0
  187.5330  178.3750  141.0930 C   0  0  0  0  0  1  0  0  0  0  0  0
  189.0990  178.3360  139.1790 C   0  0  0  0  0  0  0  0  0  0  0  0
  189.0550  179.3780  138.2640 O   0  0  0  0  0  0  0  0  0  0  0  0
  189.2580  177.1540  138.7730 O   0  0  0  0  0  1  0  0  0  0  0  0
  1  3  1  0  0  0  0
  2 14  2  0  0  0  0
  2  1  1  0  0  0  0
  4 13  2  0  0  0  0
  5  3  2  0  0  0  0
  6 14  1  0  0  0  0
  6  7  1  0  0  0  0
  8  4  2  0  0  0  0
  9  2  1  0  0  0  0
 10  1  1  0  0  0  0
 10 11  2  0  0  0  0
 12  6  2  0  0  0  0
 13  9  1  0  0  0  0
 13 12  1  0  0  0  0
 14  5  1  0  0  0  0
 15 10  1  0  0  0  0
 16 19  2  0  0  0  0
 16 18  1  0  0  0  0
 17 15  1  0  0  0  0
 18 17  2  0  0  0  0
 19 20  1  0  0  0  0
 20 15  2  0  0  0  0
 21 22  1  1  0  0  0
 21  8  1  0  0  0  0
 23 21  1  0  0  0  0
 24 23  2  0  0  0  0
 25 23  1  0  0  0  0
M  END
>  <MODEL>
4

>  <REMARK>
 VINA RESULT:      -8.0      2.649      5.193
  Name = 
  3 active torsions:
  status: ('A' for Active; 'I' for Inactive)
    1  A    between atoms: C_2  and  C_21
    2  A    between atoms: C_5  and  C_18
    3  A    between atoms: C_15  and  C_21
                            x       y       z     vdW  Elec       q    Type
                         _______ _______ _______ _____ _____    ______ ____

>  <TORSDO>
F 3

$$$$
=
 OpenBabel10262419533D

 25 27  0  0  1  0  0  0  0  0999 V2000
  190.2060  176.8390  141.0320 N   0  0  0  0  0  0  0  0  0  0  0  0
  189.2820  177.2470  141.9140 C   0  0  0  0  0  0  0  0  0  0  0  0
  191.3050  176.5920  141.7860 C   0  0  0  0  0  3  0  0  0  0  0  0
  185.8270  178.0930  142.6690 C   0  0  0  0  0  0  0  0  0  0  0  0
  191.1010  176.8470  143.1070 N   0  0  0  0  0  0  0  0  0  0  0  0
  189.0120  177.5790  144.3450 C   0  0  0  0  0  0  0  0  0  0  0  0
  189.6150  177.6010  145.7050 C   0  0  0  0  0  1  0  0  0  0  0  0
  184.5630  178.3700  142.4970 C   0  0  0  0  0  3  0  0  0  0  0  0
  187.8950  177.4870  141.6790 N   0  0  0  0  0  2  0  0  0  0  0  0
  190.0670  176.5910  139.6240 C   0  0  0  0  0  0  0  0  0  0  0  0
  190.7400  175.6640  139.0960 O   0  0  0  0  0  0  0  0  0  0  0  0
  187.7050  177.8510  144.1800 C   0  0  0  0  0  3  0  0  0  0  0  0
  187.0900  177.8180  142.8240 C   0  0  0  0  0  0  0  0  0  0  0  0
  189.8200  177.2560  143.1590 C   0  0  0  0  0  0  0  0  0  0  0  0
  189.1770  177.4080  138.7720 C   0  0  0  0  0  0  0  0  0  0  0  0
  187.5180  178.9030  137.1290 N   0  0  0  0  0  0  0  0  0  0  0  0
  187.9480  176.8920  138.3460 C   0  0  0  0  0  3  0  0  0  0  0  0
  187.1230  177.6620  137.5210 C   0  0  0  0  0  3  0  0  0  0  0  0
  188.7140  179.4220  137.5180 C   0  0  0  0  0  3  0  0  0  0  0  0
  189.5650  178.6830  138.3400 C   0  0  0  0  0  3  0  0  0  0  0  0
  183.9010  178.1410  141.1770 C   0  0  2  0  0  3  0  0  0  0  0  0
  184.6100  178.9040  140.0700 C   0  0  0  0  0  1  0  0  0  0  0  0
  182.4620  178.5360  141.2400 C   0  0  0  0  0  0  0  0  0  0  0  0
  181.9070  178.9090  142.4560 O   0  0  0  0  0  1  0  0  0  0  0  0
  181.7490  178.5360  140.2010 O   0  0  0  0  0  0  0  0  0  0  0  0
  1  3  1  0  0  0  0
  1  2  1  0  0  0  0
  2 14  2  0  0  0  0
  3  5  2  0  0  0  0
  4 13  2  0  0  0  0
  5 14  1  0  0  0  0
  6  7  1  0  0  0  0
  8  4  2  0  0  0  0
  9  2  1  0  0  0  0
  9 13  1  0  0  0  0
 10  1  1  0  0  0  0
 11 10  2  0  0  0  0
 12  6  2  0  0  0  0
 13 12  1  0  0  0  0
 14  6  1  0  0  0  0
 15 10  1  0  0  0  0
 16 19  2  0  0  0  0
 16 18  1  0  0  0  0
 17 15  1  0  0  0  0
 18 17  2  0  0  0  0
 19 20  1  0  0  0  0
 20 15  2  0  0  0  0
 21 22  1  6  0  0  0
 21 23  1  0  0  0  0
 21  8  1  0  0  0  0
 23 24  1  0  0  0  0
 25 23  2  0  0  0  0
M  END
>  <MODEL>
5

>  <REMARK>
 VINA RESULT:      -7.9      2.495      3.711
  Name = 
  3 active torsions:
  status: ('A' for Active; 'I' for Inactive)
    1  A    between atoms: C_2  and  C_21
    2  A    between atoms: C_5  and  C_18
    3  A    between atoms: C_15  and  C_21
                            x       y       z     vdW  Elec       q    Type
                         _______ _______ _______ _____ _____    ______ ____

>  <TORSDO>
F 3

$$$$
=
 OpenBabel10262419533D

 25 27  0  0  1  0  0  0  0  0999 V2000
  186.2860  178.5100  141.0380 N   0  0  0  0  0  0  0  0  0  0  0  0
  185.7290  178.4890  142.2570 C   0  0  0  0  0  0  0  0  0  0  0  0
  185.2490  178.7550  140.1990 C   0  0  0  0  0  3  0  0  0  0  0  0
  186.1050  178.4280  145.8740 C   0  0  0  0  0  0  0  0  0  0  0  0
  184.0630  178.8740  140.8550 N   0  0  0  0  0  0  0  0  0  0  0  0
  183.5330  178.8210  143.3350 C   0  0  0  0  0  0  0  0  0  0  0  0
  182.0680  179.0420  143.2040 C   0  0  0  0  0  1  0  0  0  0  0  0
  186.6600  178.3250  147.0510 C   0  0  0  0  0  3  0  0  0  0  0  0
  186.3920  178.4260  143.5200 N   0  0  0  0  0  2  0  0  0  0  0  0
  187.6720  178.4180  140.6730 C   0  0  0  0  0  0  0  0  0  0  0  0
  188.0850  179.0630  139.6700 O   0  0  0  0  0  0  0  0  0  0  0  0
  184.0980  178.7320  144.5520 C   0  0  0  0  0  3  0  0  0  0  0  0
  185.5660  178.5250  144.6930 C   0  0  0  0  0  0  0  0  0  0  0  0
  184.3940  178.7030  142.1480 C   0  0  0  0  0  0  0  0  0  0  0  0
  188.6220  177.5700  141.4230 C   0  0  0  0  0  0  0  0  0  0  0  0
  190.4110  175.9460  142.7820 N   0  0  0  0  0  0  0  0  0  0  0  0
  189.9830  177.5840  141.0970 C   0  0  0  0  0  3  0  0  0  0  0  0
  190.8700  176.7610  141.7950 C   0  0  0  0  0  3  0  0  0  0  0  0
  189.0910  175.9020  143.1100 C   0  0  0  0  0  3  0  0  0  0  0  0
  188.1750  176.7090  142.4340 C   0  0  0  0  0  3  0  0  0  0  0  0
  188.1470  178.3220  147.2000 C   0  0  2  0  0  3  0  0  0  0  0  0
  188.7880  177.3020  146.2720 C   0  0  0  0  0  1  0  0  0  0  0  0
  188.5280  178.0460  148.6170 C   0  0  0  0  0  0  0  0  0  0  0  0
  189.8200  178.3210  149.0440 O   0  0  0  0  0  0  0  0  0  0  0  0
  187.6900  177.5700  149.4280 O   0  0  0  0  0  1  0  0  0  0  0  0
  1  2  1  0  0  0  0
  2  9  1  0  0  0  0
  3  5  2  0  0  0  0
  3  1  1  0  0  0  0
  4  8  2  0  0  0  0
  5 14  1  0  0  0  0
  6 12  2  0  0  0  0
  7  6  1  0  0  0  0
  8 21  1  0  0  0  0
  9 13  1  0  0  0  0
 10  1  1  0  0  0  0
 10 15  1  0  0  0  0
 11 10  2  0  0  0  0
 12 13  1  0  0  0  0
 13  4  2  0  0  0  0
 14  2  2  0  0  0  0
 14  6  1  0  0  0  0
 15 20  1  0  0  0  0
 16 19  1  0  0  0  0
 17 15  2  0  0  0  0
 17 18  1  0  0  0  0
 18 16  2  0  0  0  0
 20 19  2  0  0  0  0
 21 22  1  6  0  0  0
 21 23  1  0  0  0  0
 23 24  2  0  0  0  0
 23 25  1  0  0  0  0
M  END
>  <MODEL>
6

>  <REMARK>
 VINA RESULT:      -7.8      2.985      6.058
  Name = 
  3 active torsions:
  status: ('A' for Active; 'I' for Inactive)
    1  A    between atoms: C_2  and  C_21
    2  A    between atoms: C_5  and  C_18
    3  A    between atoms: C_15  and  C_21
                            x       y       z     vdW  Elec       q    Type
                         _______ _______ _______ _____ _____    ______ ____

>  <TORSDO>
F 3

$$$$
=
 OpenBabel10262419533D

 25 27  0  0  1  0  0  0  0  0999 V2000
  189.0570  177.0560  144.0510 N   0  0  0  0  0  0  0  0  0  0  0  0
  187.8260  177.5750  144.1570 C   0  0  0  0  0  0  0  0  0  0  0  0
  189.5280  177.0460  145.3230 C   0  0  0  0  0  3  0  0  0  0  0  0
  184.6000  178.3240  142.6530 C   0  0  0  0  0  0  0  0  0  0  0  0
  188.6350  177.5540  146.2150 N   0  0  0  0  0  0  0  0  0  0  0  0
  186.2610  178.3840  145.8860 C   0  0  0  0  0  0  0  0  0  0  0  0
  185.9990  178.7270  147.3100 C   0  0  0  0  0  1  0  0  0  0  0  0
  183.6690  178.4740  141.7500 C   0  0  0  0  0  3  0  0  0  0  0  0
  186.8260  177.6670  143.1420 N   0  0  0  0  0  2  0  0  0  0  0  0
  189.7160  176.5130  142.8950 C   0  0  0  0  0  0  0  0  0  0  0  0
  190.5110  175.5450  143.0430 O   0  0  0  0  0  0  0  0  0  0  0  0
  185.2910  178.5270  144.9660 C   0  0  0  0  0  3  0  0  0  0  0  0
  185.5400  178.1730  143.5410 C   0  0  0  0  0  0  0  0  0  0  0  0
  187.5730  177.8780  145.4540 C   0  0  0  0  0  0  0  0  0  0  0  0
  189.5080  177.0750  141.5440 C   0  0  0  0  0  0  0  0  0  0  0  0
  189.1700  178.1570  139.0150 N   0  0  0  0  0  0  0  0  0  0  0  0
  190.3530  176.7000  140.4930 C   0  0  0  0  0  3  0  0  0  0  0  0
  190.1640  177.2530  139.2240 C   0  0  0  0  0  3  0  0  0  0  0  0
  188.3440  178.5490  140.0220 C   0  0  0  0  0  3  0  0  0  0  0  0
  188.5020  178.0190  141.3030 C   0  0  0  0  0  3  0  0  0  0  0  0
  183.8480  177.9320  140.3680 C   0  0  2  0  0  3  0  0  0  0  0  0
  184.1650  179.0450  139.3810 C   0  0  0  0  0  1  0  0  0  0  0  0
  182.6260  177.1900  139.9390 C   0  0  0  0  0  0  0  0  0  0  0  0
  182.7490  175.9020  139.4350 O   0  0  0  0  0  0  0  0  0  0  0  0
  181.4860  177.7190  140.0310 O   0  0  0  0  0  1  0  0  0  0  0  0
  1  2  1  0  0  0  0
  1  3  1  0  0  0  0
  2 14  2  0  0  0  0
  3  5  2  0  0  0  0
  4 13  2  0  0  0  0
  6  7  1  0  0  0  0
  8  4  2  0  0  0  0
  9 13  1  0  0  0  0
  9  2  1  0  0  0  0
 10 11  2  0  0  0  0
 10  1  1  0  0  0  0
 12  6  2  0  0  0  0
 13 12  1  0  0  0  0
 14  6  1  0  0  0  0
 14  5  1  0  0  0  0
 15 10  1  0  0  0  0
 16 18  2  0  0  0  0
 16 19  1  0  0  0  0
 17 15  2  0  0  0  0
 18 17  1  0  0  0  0
 19 20  2  0  0  0  0
 20 15  1  0  0  0  0
 21 22  1  6  0  0  0
 21  8  1  0  0  0  0
 23 25  1  0  0  0  0
 23 21  1  0  0  0  0
 24 23  2  0  0  0  0
M  END
>  <MODEL>
7

>  <REMARK>
 VINA RESULT:      -7.7      1.902      2.762
  Name = 
  3 active torsions:
  status: ('A' for Active; 'I' for Inactive)
    1  A    between atoms: C_2  and  C_21
    2  A    between atoms: C_5  and  C_18
    3  A    between atoms: C_15  and  C_21
                            x       y       z     vdW  Elec       q    Type
                         _______ _______ _______ _____ _____    ______ ____

>  <TORSDO>
F 3

$$$$
=
 OpenBabel10262419533D

 25 27  0  0  1  0  0  0  0  0999 V2000
  186.5940  178.4940  139.3260 N   0  0  0  0  0  0  0  0  0  0  0  0
  186.5630  178.2810  140.6490 C   0  0  0  0  0  0  0  0  0  0  0  0
  185.3330  178.8840  139.0170 C   0  0  0  0  0  3  0  0  0  0  0  0
  188.3260  177.6280  143.7620 C   0  0  0  0  0  0  0  0  0  0  0  0
  184.5130  178.9060  140.1030 N   0  0  0  0  0  0  0  0  0  0  0  0
  184.9990  178.4560  142.5520 C   0  0  0  0  0  0  0  0  0  0  0  0
  183.6220  178.7100  143.0520 C   0  0  0  0  0  1  0  0  0  0  0  0
  189.2890  177.3280  144.5900 C   0  0  0  0  0  3  0  0  0  0  0  0
  187.6620  178.0060  141.5170 N   0  0  0  0  0  2  0  0  0  0  0  0
  187.7150  178.4490  138.4280 C   0  0  0  0  0  0  0  0  0  0  0  0
  187.7460  179.2440  137.4490 O   0  0  0  0  0  0  0  0  0  0  0  0
  185.9890  178.1630  143.4140 C   0  0  0  0  0  3  0  0  0  0  0  0
  187.3750  177.9210  142.9230 C   0  0  0  0  0  0  0  0  0  0  0  0
  185.3120  178.5240  141.1160 C   0  0  0  0  0  0  0  0  0  0  0  0
  188.8170  177.4800  138.6030 C   0  0  0  0  0  0  0  0  0  0  0  0
  190.9200  175.7000  138.9040 N   0  0  0  0  0  0  0  0  0  0  0  0
  189.8760  177.7730  139.4700 C   0  0  0  0  0  3  0  0  0  0  0  0
  190.9250  176.8620  139.6120 C   0  0  0  0  0  3  0  0  0  0  0  0
  189.9110  175.3970  138.0450 C   0  0  0  0  0  3  0  0  0  0  0  0
  188.8450  176.2830  137.8760 C   0  0  0  0  0  3  0  0  0  0  0  0
  190.7100  177.2860  144.1290 C   0  0  2  0  0  3  0  0  0  0  0  0
  190.9730  178.3430  143.0680 C   0  0  0  0  0  1  0  0  0  0  0  0
  191.0470  175.9290  143.6040 C   0  0  0  0  0  0  0  0  0  0  0  0
  190.2260  175.3380  142.6550 O   0  0  0  0  0  0  0  0  0  0  0  0
  192.0710  175.3170  144.0130 O   0  0  0  0  0  1  0  0  0  0  0  0
  1  2  1  0  0  0  0
  2 14  2  0  0  0  0
  2  9  1  0  0  0  0
  3  1  1  0  0  0  0
  3  5  2  0  0  0  0
  4  8  2  0  0  0  0
  5 14  1  0  0  0  0
  6  7  1  0  0  0  0
  6 12  2  0  0  0  0
  9 13  1  0  0  0  0
 10 15  1  0  0  0  0
 10  1  1  0  0  0  0
 11 10  2  0  0  0  0
 13 12  1  0  0  0  0
 13  4  2  0  0  0  0
 14  6  1  0  0  0  0
 15 17  1  0  0  0  0
 16 18  1  0  0  0  0
 17 18  2  0  0  0  0
 19 16  2  0  0  0  0
 20 19  1  0  0  0  0
 20 15  2  0  0  0  0
 21 22  1  6  0  0  0
 21  8  1  0  0  0  0
 23 25  1  0  0  0  0
 23 21  1  0  0  0  0
 24 23  2  0  0  0  0
M  END
>  <MODEL>
8

>  <REMARK>
 VINA RESULT:      -7.7      3.198      6.324
  Name = 
  3 active torsions:
  status: ('A' for Active; 'I' for Inactive)
    1  A    between atoms: C_2  and  C_21
    2  A    between atoms: C_5  and  C_18
    3  A    between atoms: C_15  and  C_21
                            x       y       z     vdW  Elec       q    Type
                         _______ _______ _______ _____ _____    ______ ____

>  <TORSDO>
F 3

$$$$
=
 OpenBabel10262419533D

 25 27  0  0  1  0  0  0  0  0999 V2000
  182.6190  178.7320  142.0970 N   0  0  0  0  0  0  0  0  0  0  0  0
  183.8530  178.5490  142.5880 C   0  0  0  0  0  0  0  0  0  0  0  0
  181.8470  178.9360  143.1920 C   0  0  0  0  0  3  0  0  0  0  0  0
  187.4320  178.2220  142.0320 C   0  0  0  0  0  0  0  0  0  0  0  0
  182.5580  178.8720  144.3510 N   0  0  0  0  0  0  0  0  0  0  0  0
  185.0420  178.5540  144.7510 C   0  0  0  0  0  0  0  0  0  0  0  0
  184.9900  178.6280  146.2360 C   0  0  0  0  0  1  0  0  0  0  0  0
  188.5730  178.0780  141.4130 C   0  0  0  0  0  3  0  0  0  0  0  0
  185.0780  178.4490  141.8620 N   0  0  0  0  0  2  0  0  0  0  0  0
  182.1930  178.8190  140.7270 C   0  0  0  0  0  0  0  0  0  0  0  0
  181.2370  179.5870  140.4320 O   0  0  0  0  0  0  0  0  0  0  0  0
  186.2230  178.4220  144.1220 C   0  0  0  0  0  3  0  0  0  0  0  0
  186.2870  178.3610  142.6350 C   0  0  0  0  0  0  0  0  0  0  0  0
  183.8160  178.6290  143.9420 C   0  0  0  0  0  0  0  0  0  0  0  0
  182.8260  178.0160  139.6600 C   0  0  0  0  0  0  0  0  0  0  0  0
  183.9750  176.5320  137.6210 N   0  0  0  0  0  0  0  0  0  0  0  0
  183.5570  178.6480  138.6480 C   0  0  0  0  0  3  0  0  0  0  0  0
  184.1330  177.8820  137.6300 C   0  0  0  0  0  3  0  0  0  0  0  0
  183.2580  175.8940  138.5850 C   0  0  0  0  0  3  0  0  0  0  0  0
  182.6680  176.6240  139.6170 C   0  0  0  0  0  3  0  0  0  0  0  0
  188.6610  178.2210  139.9280 C   0  0  2  0  0  3  0  0  0  0  0  0
  187.3370  177.8770  139.2660 C   0  0  0  0  0  1  0  0  0  0  0  0
  189.7520  177.3570  139.3860 C   0  0  0  0  0  0  0  0  0  0  0  0
  190.3160  176.3780  140.1930 O   0  0  0  0  0  1  0  0  0  0  0  0
  190.1630  177.5050  138.2040 O   0  0  0  0  0  0  0  0  0  0  0  0
  1  2  1  0  0  0  0
  1  3  1  0  0  0  0
  2 14  2  0  0  0  0
  3  5  2  0  0  0  0
  4 13  2  0  0  0  0
  6  7  1  0  0  0  0
  8  4  2  0  0  0  0
  9  2  1  0  0  0  0
  9 13  1  0  0  0  0
 10  1  1  0  0  0  0
 11 10  2  0  0  0  0
 12  6  2  0  0  0  0
 13 12  1  0  0  0  0
 14  5  1  0  0  0  0
 14  6  1  0  0  0  0
 15 10  1  0  0  0  0
 16 18  2  0  0  0  0
 16 19  1  0  0  0  0
 17 15  2  0  0  0  0
 18 17  1  0  0  0  0
 19 20  2  0  0  0  0
 20 15  1  0  0  0  0
 21 22  1  6  0  0  0
 21  8  1  0  0  0  0
 23 21  1  0  0  0  0
 23 24  1  0  0  0  0
 25 23  2  0  0  0  0
M  END
>  <MODEL>
9

>  <REMARK>
 VINA RESULT:      -7.6      4.013      7.285
  Name = 
  3 active torsions:
  status: ('A' for Active; 'I' for Inactive)
    1  A    between atoms: C_2  and  C_21
    2  A    between atoms: C_5  and  C_18
    3  A    between atoms: C_15  and  C_21
                            x       y       z     vdW  Elec       q    Type
                         _______ _______ _______ _____ _____    ______ ____

>  <TORSDO>
F 3

$$$$
