=
 OpenBabel10262423123D

 34 39  0  0  1  0  0  0  0  0999 V2000
  189.9860  176.2170  138.3670 C   0  0  1  0  0  3  0  0  0  0  0  0
  191.8850  175.0490  135.1320 C   0  0  0  0  0  2  0  0  0  0  0  0
  190.4010  177.0710  135.5790 C   0  0  0  0  0  2  0  0  0  0  0  0
  188.9570  176.7870  140.4690 C   0  0  2  0  0  3  0  0  0  0  0  0
  190.1610  176.2270  139.8150 N   0  0  0  0  0  2  0  0  0  0  0  0
  189.0060  178.5700  138.6190 C   0  0  1  0  0  3  0  0  0  0  0  0
  188.2320  179.2780  137.6670 O   0  0  0  0  0  0  0  0  0  0  0  0
  188.1290  177.7890  139.6030 C   0  0  0  0  0  2  0  0  0  0  0  0
  189.3150  177.5610  136.5270 C   0  0  1  0  0  3  0  0  0  0  0  0
  189.9160  177.6390  137.8630 C   0  0  2  0  0  3  0  0  0  0  0  0
  188.7700  178.9520  136.3970 C   0  0  0  0  0  2  0  0  0  0  0  0
  192.5340  173.9850  135.7860 O   0  0  0  0  0  0  0  0  0  0  0  0
  193.7200  174.4540  136.4110 C   0  0  2  0  0  3  0  0  0  0  0  0
  193.6410  175.8640  137.0300 C   0  0  0  0  0  2  0  0  0  0  0  0
  190.8120  175.6480  136.0400 C   0  0  2  0  0  3  0  0  0  0  0  0
  192.4990  176.0300  138.0330 C   0  0  0  0  0  2  0  0  0  0  0  0
  191.1130  175.5200  137.5800 C   0  0  1  0  0  3  0  0  0  0  0  0
  191.1760  177.5400  143.4130 O   0  0  0  0  0  0  0  0  0  0  0  0
  188.4060  177.9600  144.0810 C   0  0  0  0  0  2  0  0  0  0  0  0
  191.2090  176.3750  147.0180 C   0  0  2  0  0  3  0  0  0  0  0  0
  191.7770  177.0270  145.7600 C   0  0  0  0  0  2  0  0  0  0  0  0
  190.7270  177.3140  144.7180 C   0  0  0  0  0  0  0  0  0  0  0  0
  189.3210  177.3470  141.8450 C   0  0  1  0  0  3  0  0  0  0  0  0
  188.9110  177.0680  146.4180 C   0  0  0  0  0  2  0  0  0  0  0  0
  189.4200  177.4340  145.0480 C   0  0  0  0  0  0  0  0  0  0  0  0
  189.9920  177.1560  147.4870 C   0  0  0  0  0  2  0  0  0  0  0  0
  188.2420  177.0490  142.8790 C   0  0  0  0  0  2  0  0  0  0  0  0
  190.6740  176.8150  142.2960 C   0  0  0  0  0  2  0  0  0  0  0  0
  192.2460  176.3330  148.0890 C   0  0  0  0  0  0  0  0  0  0  0  0
  192.9240  175.2880  148.2600 O   0  0  0  0  0  0  0  0  0  0  0  0
  192.4680  177.4390  148.9020 O   0  0  0  0  0  1  0  0  0  0  0  0
  194.8960  174.3260  135.5000 C   0  0  0  0  0  0  0  0  0  0  0  0
  195.0220  173.3190  134.7550 O   0  0  0  0  0  0  0  0  0  0  0  0
  195.8840  175.3500  135.4760 N   0  0  0  0  0  1  0  0  0  0  0  0
  1  5  1  1  0  0  0
  2 12  1  0  0  0  0
  2 15  1  0  0  0  0
  3 15  1  0  0  0  0
  4  8  1  6  0  0  0
  4 23  1  0  0  0  0
  5  4  1  0  0  0  0
  6  8  1  1  0  0  0
  7  6  1  0  0  0  0
  9  3  1  6  0  0  0
  9 10  1  0  0  0  0
 10  1  1  0  0  0  0
 10  6  1  0  0  0  0
 11  9  1  0  0  0  0
 11  7  1  0  0  0  0
 12 13  1  0  0  0  0
 13 14  1  0  0  0  0
 14 16  1  0  0  0  0
 15 17  1  0  0  0  0
 17 16  1  0  0  0  0
 17  1  1  0  0  0  0
 18 22  1  0  0  0  0
 19 25  1  0  0  0  0
 20 26  1  0  0  0  0
 20 29  1  0  0  0  0
 21 20  1  0  0  0  0
 22 25  2  0  0  0  0
 22 21  1  0  0  0  0
 23 28  1  0  0  0  0
 23 27  1  0  0  0  0
 24 26  1  0  0  0  0
 25 24  1  0  0  0  0
 27 19  1  0  0  0  0
 28 18  1  0  0  0  0
 29 30  2  0  0  0  0
 29 31  1  0  0  0  0
 32 13  1  0  0  0  0
 33 32  2  0  0  0  0
 34 32  1  0  0  0  0
M  END
>  <MODEL>
1

>  <REMARK>
 VINA RESULT:      -9.0      0.000      0.000
  Name = 
  3 active torsions:
  status: ('A' for Active; 'I' for Inactive)
    1  A    between atoms: C_3  and  C_25
    2  A    between atoms: C_7  and  C_11
    3  A    between atoms: C_8  and  C_18
                            x       y       z     vdW  Elec       q    Type
                         _______ _______ _______ _____ _____    ______ ____

>  <TORSDO>
F 3

$$$$
=
 OpenBabel10262423123D

 34 39  0  0  1  0  0  0  0  0999 V2000
  181.6540  176.9030  139.0550 C   0  0  1  0  0  3  0  0  0  0  0  0
  181.3560  174.3830  136.0550 C   0  0  0  0  0  2  0  0  0  0  0  0
  181.2750  176.9280  136.1350 C   0  0  0  0  0  2  0  0  0  0  0  0
  181.9250  178.2730  141.0180 C   0  0  2  0  0  3  0  0  0  0  0  0
  182.3710  177.0470  140.3180 N   0  0  0  0  0  2  0  0  0  0  0  0
  182.0510  179.4110  138.7170 C   0  0  1  0  0  3  0  0  0  0  0  0
  181.3820  180.2650  137.8060 O   0  0  0  0  0  0  0  0  0  0  0  0
  181.3830  179.4110  140.0970 C   0  0  0  0  0  2  0  0  0  0  0  0
  181.0090  178.0790  137.0950 C   0  0  1  0  0  3  0  0  0  0  0  0
  182.0510  178.0260  138.1270 C   0  0  2  0  0  3  0  0  0  0  0  0
  181.1600  179.4980  136.6340 C   0  0  0  0  0  2  0  0  0  0  0  0
  181.6440  173.2590  136.8520 O   0  0  0  0  0  0  0  0  0  0  0  0
  183.0500  173.0910  136.9590 C   0  0  2  0  0  3  0  0  0  0  0  0
  183.8770  174.3890  137.0520 C   0  0  0  0  0  2  0  0  0  0  0  0
  181.1330  175.6090  136.9400 C   0  0  2  0  0  3  0  0  0  0  0  0
  183.4390  175.3140  138.1890 C   0  0  0  0  0  2  0  0  0  0  0  0
  181.9220  175.5860  138.3010 C   0  0  1  0  0  3  0  0  0  0  0  0
  185.4090  178.5870  142.4080 O   0  0  0  0  0  0  0  0  0  0  0  0
  183.4560  179.5220  144.3070 C   0  0  0  0  0  2  0  0  0  0  0  0
  187.0470  177.4300  145.6230 C   0  0  2  0  0  3  0  0  0  0  0  0
  187.0090  177.9650  144.1930 C   0  0  0  0  0  2  0  0  0  0  0  0
  185.6420  178.4480  143.7800 C   0  0  0  0  0  0  0  0  0  0  0  0
  183.0160  178.7510  141.9780 C   0  0  1  0  0  3  0  0  0  0  0  0
  184.9070  178.5470  146.1670 C   0  0  0  0  0  2  0  0  0  0  0  0
  184.7150  178.8120  144.6960 C   0  0  0  0  0  0  0  0  0  0  0  0
  186.3750  178.4260  146.5540 C   0  0  0  0  0  2  0  0  0  0  0  0
  182.5660  178.6610  143.4320 C   0  0  0  0  0  2  0  0  0  0  0  0
  184.3040  177.9720  141.7540 C   0  0  0  0  0  2  0  0  0  0  0  0
  188.4570  177.1900  146.0450 C   0  0  0  0  0  0  0  0  0  0  0  0
  189.3870  177.3090  145.2070 O   0  0  0  0  0  0  0  0  0  0  0  0
  188.7510  176.8350  147.3560 O   0  0  0  0  0  1  0  0  0  0  0  0
  183.5680  172.1930  135.8840 C   0  0  0  0  0  0  0  0  0  0  0  0
  184.2320  172.6620  134.9220 O   0  0  0  0  0  0  0  0  0  0  0  0
  183.3090  170.7950  135.9480 N   0  0  0  0  0  1  0  0  0  0  0  0
  1  5  1  1  0  0  0
  2 12  1  0  0  0  0
  2 15  1  0  0  0  0
  3 15  1  0  0  0  0
  4  8  1  6  0  0  0
  4 23  1  0  0  0  0
  5  4  1  0  0  0  0
  6  8  1  1  0  0  0
  7  6  1  0  0  0  0
  9  3  1  6  0  0  0
  9 10  1  0  0  0  0
 10  6  1  0  0  0  0
 10  1  1  0  0  0  0
 11  9  1  0  0  0  0
 11  7  1  0  0  0  0
 12 13  1  0  0  0  0
 13 14  1  0  0  0  0
 14 16  1  0  0  0  0
 15 17  1  0  0  0  0
 16 17  1  0  0  0  0
 17  1  1  0  0  0  0
 18 22  1  0  0  0  0
 19 25  1  0  0  0  0
 20 29  1  0  0  0  0
 20 26  1  0  0  0  0
 21 20  1  0  0  0  0
 22 21  1  0  0  0  0
 22 25  2  0  0  0  0
 23 27  1  0  0  0  0
 24 26  1  0  0  0  0
 25 24  1  0  0  0  0
 27 19  1  0  0  0  0
 28 23  1  0  0  0  0
 28 18  1  0  0  0  0
 29 31  1  0  0  0  0
 30 29  2  0  0  0  0
 32 34  1  0  0  0  0
 32 13  1  0  0  0  0
 33 32  2  0  0  0  0
M  END
>  <MODEL>
2

>  <REMARK>
 VINA RESULT:      -8.5      6.536      7.888
  Name = 
  3 active torsions:
  status: ('A' for Active; 'I' for Inactive)
    1  A    between atoms: C_3  and  C_25
    2  A    between atoms: C_7  and  C_11
    3  A    between atoms: C_8  and  C_18
                            x       y       z     vdW  Elec       q    Type
                         _______ _______ _______ _____ _____    ______ ____

>  <TORSDO>
F 3

$$$$
=
 OpenBabel10262423123D

 34 39  0  0  1  0  0  0  0  0999 V2000
  188.9170  177.1280  137.8440 C   0  0  1  0  0  3  0  0  0  0  0  0
  186.7140  176.9550  134.5940 C   0  0  0  0  0  2  0  0  0  0  0  0
  188.9690  175.9150  135.1610 C   0  0  0  0  0  2  0  0  0  0  0  0
  190.0780  177.3110  139.9460 C   0  0  2  0  0  3  0  0  0  0  0  0
  188.7560  177.1770  139.2930 N   0  0  0  0  0  2  0  0  0  0  0  0
  190.8830  175.5410  138.2650 C   0  0  1  0  0  3  0  0  0  0  0  0
  191.9050  175.1880  137.3500 O   0  0  0  0  0  0  0  0  0  0  0  0
  191.2850  176.7330  139.1410 C   0  0  0  0  0  2  0  0  0  0  0  0
  190.1520  176.0820  136.1050 C   0  0  1  0  0  3  0  0  0  0  0  0
  189.6480  175.8620  137.4660 C   0  0  2  0  0  3  0  0  0  0  0  0
  191.2850  175.1010  136.0780 C   0  0  0  0  0  2  0  0  0  0  0  0
  185.6380  177.6520  135.1770 O   0  0  0  0  0  0  0  0  0  0  0  0
  184.8060  176.7460  135.8870 C   0  0  2  0  0  3  0  0  0  0  0  0
  185.5310  175.6030  136.6250 C   0  0  0  0  0  2  0  0  0  0  0  0
  187.9370  177.0180  135.5090 C   0  0  2  0  0  3  0  0  0  0  0  0
  186.6110  176.0870  137.5930 C   0  0  0  0  0  2  0  0  0  0  0  0
  187.6000  177.1390  137.0420 C   0  0  1  0  0  3  0  0  0  0  0  0
  188.5380  176.6680  143.3200 O   0  0  0  0  0  0  0  0  0  0  0  0
  191.3740  176.1690  143.3730 C   0  0  0  0  0  2  0  0  0  0  0  0
  189.3290  177.8810  146.8200 C   0  0  2  0  0  3  0  0  0  0  0  0
  188.4810  177.2310  145.7310 C   0  0  0  0  0  2  0  0  0  0  0  0
  189.2690  176.8970  144.4900 C   0  0  0  0  0  0  0  0  0  0  0  0
  190.0080  176.7810  141.3790 C   0  0  1  0  0  3  0  0  0  0  0  0
  191.4200  177.1080  145.7460 C   0  0  0  0  0  2  0  0  0  0  0  0
  190.6130  176.7400  144.5280 C   0  0  0  0  0  0  0  0  0  0  0  0
  190.5980  177.0690  147.0270 C   0  0  0  0  0  2  0  0  0  0  0  0
  191.2960  177.0580  142.1460 C   0  0  0  0  0  2  0  0  0  0  0  0
  188.8030  177.3620  142.1050 C   0  0  0  0  0  2  0  0  0  0  0  0
  188.5550  177.9700  148.0910 C   0  0  0  0  0  0  0  0  0  0  0  0
  189.1340  178.3220  149.1510 O   0  0  0  0  0  1  0  0  0  0  0  0
  187.1980  177.6670  148.1150 O   0  0  0  0  0  0  0  0  0  0  0  0
  183.7130  176.2220  135.0150 C   0  0  0  0  0  0  0  0  0  0  0  0
  183.7100  175.0180  134.6460 O   0  0  0  0  0  0  0  0  0  0  0  0
  182.6670  177.0910  134.5960 N   0  0  0  0  0  1  0  0  0  0  0  0
  1  5  1  1  0  0  0
  2 12  1  0  0  0  0
  2 15  1  0  0  0  0
  3 15  1  0  0  0  0
  4  8  1  6  0  0  0
  4 23  1  0  0  0  0
  5  4  1  0  0  0  0
  6  8  1  6  0  0  0
  7  6  1  0  0  0  0
  9  3  1  6  0  0  0
  9 10  1  0  0  0  0
 10  1  1  0  0  0  0
 10  6  1  0  0  0  0
 11  9  1  0  0  0  0
 11  7  1  0  0  0  0
 12 13  1  0  0  0  0
 13 14  1  0  0  0  0
 14 16  1  0  0  0  0
 15 17  1  0  0  0  0
 17 16  1  0  0  0  0
 17  1  1  0  0  0  0
 18 22  1  0  0  0  0
 19 25  1  0  0  0  0
 20 26  1  0  0  0  0
 20 29  1  0  0  0  0
 21 20  1  0  0  0  0
 22 25  2  0  0  0  0
 22 21  1  0  0  0  0
 23 28  1  0  0  0  0
 23 27  1  0  0  0  0
 24 26  1  0  0  0  0
 25 24  1  0  0  0  0
 27 19  1  0  0  0  0
 28 18  1  0  0  0  0
 29 31  2  0  0  0  0
 29 30  1  0  0  0  0
 32 13  1  0  0  0  0
 33 32  2  0  0  0  0
 34 32  1  0  0  0  0
M  END
>  <MODEL>
3

>  <REMARK>
 VINA RESULT:      -8.5      3.096      5.334
  Name = 
  3 active torsions:
  status: ('A' for Active; 'I' for Inactive)
    1  A    between atoms: C_3  and  C_25
    2  A    between atoms: C_7  and  C_11
    3  A    between atoms: C_8  and  C_18
                            x       y       z     vdW  Elec       q    Type
                         _______ _______ _______ _____ _____    ______ ____

>  <TORSDO>
F 3

$$$$
=
 OpenBabel10262423123D

 34 39  0  0  1  0  0  0  0  0999 V2000
  181.9140  179.4800  138.4630 C   0  0  1  0  0  3  0  0  0  0  0  0
  179.3820  181.4900  136.2300 C   0  0  0  0  0  2  0  0  0  0  0  0
  179.0090  179.8490  138.1420 C   0  0  0  0  0  2  0  0  0  0  0  0
  183.6300  178.3920  139.7570 C   0  0  2  0  0  3  0  0  0  0  0  0
  183.2290  179.6430  139.0720 N   0  0  0  0  0  2  0  0  0  0  0  0
  181.2160  178.3170  140.6360 C   0  0  1  0  0  3  0  0  0  0  0  0
  180.0780  177.4980  140.8380 O   0  0  0  0  0  0  0  0  0  0  0  0
  182.4530  177.4960  140.2580 C   0  0  0  0  0  2  0  0  0  0  0  0
  179.7040  178.7200  138.8920 C   0  0  1  0  0  3  0  0  0  0  0  0
  180.8800  179.3030  139.5490 C   0  0  2  0  0  3  0  0  0  0  0  0
  179.0360  178.0700  140.0650 C   0  0  0  0  0  2  0  0  0  0  0  0
  180.3960  182.2150  135.5730 O   0  0  0  0  0  0  0  0  0  0  0  0
  180.7480  183.3550  136.3430 C   0  0  2  0  0  3  0  0  0  0  0  0
  180.7450  183.1620  137.8730 C   0  0  0  0  0  2  0  0  0  0  0  0
  179.9970  180.3660  137.0620 C   0  0  2  0  0  3  0  0  0  0  0  0
  181.6230  182.0020  138.3450 C   0  0  0  0  0  2  0  0  0  0  0  0
  181.4480  180.6640  137.5930 C   0  0  1  0  0  3  0  0  0  0  0  0
  187.0490  178.8790  141.2530 O   0  0  0  0  0  0  0  0  0  0  0  0
  185.0490  178.6520  143.3120 C   0  0  0  0  0  2  0  0  0  0  0  0
  189.0430  176.9960  143.8660 C   0  0  2  0  0  3  0  0  0  0  0  0
  188.8280  177.9910  142.7290 C   0  0  0  0  0  2  0  0  0  0  0  0
  187.3740  178.3040  142.4850 C   0  0  0  0  0  0  0  0  0  0  0  0
  184.6520  178.7020  140.8520 C   0  0  1  0  0  3  0  0  0  0  0  0
  186.7560  177.3850  144.7260 C   0  0  0  0  0  2  0  0  0  0  0  0
  186.4410  178.1180  143.4480 C   0  0  0  0  0  0  0  0  0  0  0  0
  188.2370  177.4310  145.0790 C   0  0  0  0  0  2  0  0  0  0  0  0
  184.3030  178.0050  142.1620 C   0  0  0  0  0  2  0  0  0  0  0  0
  186.0550  178.3320  140.3920 C   0  0  0  0  0  2  0  0  0  0  0  0
  190.4920  176.9100  144.2080 C   0  0  0  0  0  0  0  0  0  0  0  0
  190.8440  176.8140  145.4110 O   0  0  0  0  0  1  0  0  0  0  0  0
  191.4570  176.9360  143.2070 O   0  0  0  0  0  0  0  0  0  0  0  0
  179.9380  184.5450  135.9440 C   0  0  0  0  0  0  0  0  0  0  0  0
  179.5420  184.6820  134.7570 O   0  0  0  0  0  0  0  0  0  0  0  0
  179.6130  185.5340  136.9150 N   0  0  0  0  0  1  0  0  0  0  0  0
  1  5  1  1  0  0  0
  1 10  1  0  0  0  0
  2 15  1  0  0  0  0
  4  8  1  1  0  0  0
  4 23  1  0  0  0  0
  5  4  1  0  0  0  0
  6  8  1  6  0  0  0
  6  7  1  0  0  0  0
  9  3  1  1  0  0  0
  9 10  1  0  0  0  0
  9 11  1  0  0  0  0
 10  6  1  0  0  0  0
 11  7  1  0  0  0  0
 12  2  1  0  0  0  0
 12 13  1  0  0  0  0
 13 14  1  0  0  0  0
 14 16  1  0  0  0  0
 15 17  1  0  0  0  0
 15  3  1  0  0  0  0
 17 16  1  0  0  0  0
 17  1  1  0  0  0  0
 18 22  1  0  0  0  0
 19 25  1  0  0  0  0
 20 29  1  0  0  0  0
 20 26  1  0  0  0  0
 21 20  1  0  0  0  0
 22 21  1  0  0  0  0
 22 25  2  0  0  0  0
 23 27  1  0  0  0  0
 24 26  1  0  0  0  0
 25 24  1  0  0  0  0
 27 19  1  0  0  0  0
 28 23  1  0  0  0  0
 28 18  1  0  0  0  0
 29 30  1  0  0  0  0
 31 29  2  0  0  0  0
 32 13  1  0  0  0  0
 32 34  1  0  0  0  0
 33 32  2  0  0  0  0
M  END
>  <MODEL>
4

>  <REMARK>
 VINA RESULT:      -8.4      6.928      9.999
  Name = 
  3 active torsions:
  status: ('A' for Active; 'I' for Inactive)
    1  A    between atoms: C_3  and  C_25
    2  A    between atoms: C_7  and  C_11
    3  A    between atoms: C_8  and  C_18
                            x       y       z     vdW  Elec       q    Type
                         _______ _______ _______ _____ _____    ______ ____

>  <TORSDO>
F 3

$$$$
=
 OpenBabel10262423123D

 34 39  0  0  1  0  0  0  0  0999 V2000
  188.8390  175.5620  136.7220 C   0  0  1  0  0  3  0  0  0  0  0  0
  186.8860  172.8640  134.6390 C   0  0  0  0  0  2  0  0  0  0  0  0
  189.2800  172.9160  135.5060 C   0  0  0  0  0  2  0  0  0  0  0  0
  189.8310  177.3090  138.0510 C   0  0  2  0  0  3  0  0  0  0  0  0
  188.6020  176.5270  137.7900 N   0  0  0  0  0  2  0  0  0  0  0  0
  191.0750  175.0680  137.8700 C   0  0  1  0  0  3  0  0  0  0  0  0
  192.1930  174.4010  137.3090 O   0  0  0  0  0  0  0  0  0  0  0  0
  191.1720  176.5880  137.7010 C   0  0  0  0  0  2  0  0  0  0  0  0
  190.3520  173.8890  135.9780 C   0  0  1  0  0  3  0  0  0  0  0  0
  189.8410  174.5350  137.1920 C   0  0  2  0  0  3  0  0  0  0  0  0
  191.6690  173.3770  136.4810 C   0  0  0  0  0  2  0  0  0  0  0  0
  185.6590  173.5490  134.7310 O   0  0  0  0  0  0  0  0  0  0  0  0
  185.0050  173.2040  135.9440 C   0  0  2  0  0  3  0  0  0  0  0  0
  185.9200  173.0030  137.1690 C   0  0  0  0  0  2  0  0  0  0  0  0
  188.0200  173.7490  135.1520 C   0  0  2  0  0  3  0  0  0  0  0  0
  186.8240  174.2020  137.4600 C   0  0  0  0  0  2  0  0  0  0  0  0
  187.5920  174.7880  136.2550 C   0  0  1  0  0  3  0  0  0  0  0  0
  191.1190  177.9530  141.5280 O   0  0  0  0  0  0  0  0  0  0  0  0
  188.3090  178.5590  141.3440 C   0  0  0  0  0  2  0  0  0  0  0  0
  190.0030  176.8320  144.9710 C   0  0  2  0  0  3  0  0  0  0  0  0
  190.9600  177.4310  143.9440 C   0  0  0  0  0  2  0  0  0  0  0  0
  190.2880  177.7730  142.6390 C   0  0  0  0  0  0  0  0  0  0  0  0
  189.8060  177.8620  139.4770 C   0  0  1  0  0  3  0  0  0  0  0  0
  188.0370  177.6640  143.7190 C   0  0  0  0  0  2  0  0  0  0  0  0
  188.9530  177.9800  142.5650 C   0  0  0  0  0  0  0  0  0  0  0  0
  188.7540  177.6950  145.0620 C   0  0  0  0  0  2  0  0  0  0  0  0
  188.4510  177.6460  140.1410 C   0  0  0  0  0  2  0  0  0  0  0  0
  190.9260  177.2490  140.3060 C   0  0  0  0  0  2  0  0  0  0  0  0
  190.6690  176.7360  146.3010 C   0  0  0  0  0  0  0  0  0  0  0  0
  189.9700  176.6400  147.3430 O   0  0  0  0  0  1  0  0  0  0  0  0
  192.0550  176.7540  146.4000 O   0  0  0  0  0  0  0  0  0  0  0  0
  184.0920  172.0370  135.7510 C   0  0  0  0  0  0  0  0  0  0  0  0
  183.7720  171.6590  134.5940 O   0  0  0  0  0  0  0  0  0  0  0  0
  183.5790  171.3490  136.8860 N   0  0  0  0  0  1  0  0  0  0  0  0
  1 10  1  0  0  0  0
  1  5  1  1  0  0  0
  2 12  1  0  0  0  0
  2 15  1  0  0  0  0
  4  8  1  1  0  0  0
  4 23  1  0  0  0  0
  5  4  1  0  0  0  0
  6  8  1  6  0  0  0
  7  6  1  0  0  0  0
  9  3  1  1  0  0  0
  9 11  1  0  0  0  0
  9 10  1  0  0  0  0
 10  6  1  0  0  0  0
 11  7  1  0  0  0  0
 12 13  1  0  0  0  0
 13 14  1  0  0  0  0
 14 16  1  0  0  0  0
 15  3  1  0  0  0  0
 15 17  1  0  0  0  0
 17  1  1  0  0  0  0
 17 16  1  0  0  0  0
 18 22  1  0  0  0  0
 19 25  1  0  0  0  0
 20 26  1  0  0  0  0
 20 29  1  0  0  0  0
 21 20  1  0  0  0  0
 22 21  1  0  0  0  0
 23 27  1  0  0  0  0
 23 28  1  0  0  0  0
 24 26  1  0  0  0  0
 25 22  2  0  0  0  0
 25 24  1  0  0  0  0
 27 19  1  0  0  0  0
 28 18  1  0  0  0  0
 29 31  2  0  0  0  0
 29 30  1  0  0  0  0
 32 13  1  0  0  0  0
 32 34  1  0  0  0  0
 33 32  2  0  0  0  0
M  END
>  <MODEL>
5

>  <REMARK>
 VINA RESULT:      -8.2      3.697      5.344
  Name = 
  3 active torsions:
  status: ('A' for Active; 'I' for Inactive)
    1  A    between atoms: C_3  and  C_25
    2  A    between atoms: C_7  and  C_11
    3  A    between atoms: C_8  and  C_18
                            x       y       z     vdW  Elec       q    Type
                         _______ _______ _______ _____ _____    ______ ____

>  <TORSDO>
F 3

$$$$
=
 OpenBabel10262423123D

 34 39  0  0  1  0  0  0  0  0999 V2000
  186.9930  177.7180  137.5610 C   0  0  1  0  0  3  0  0  0  0  0  0
  184.4560  177.2650  134.5950 C   0  0  0  0  0  2  0  0  0  0  0  0
  186.9680  176.8680  134.7410 C   0  0  0  0  0  2  0  0  0  0  0  0
  188.3650  178.0020  139.5200 C   0  0  2  0  0  3  0  0  0  0  0  0
  187.0460  177.5620  139.0100 N   0  0  0  0  0  2  0  0  0  0  0  0
  189.3580  176.7330  137.5180 C   0  0  1  0  0  3  0  0  0  0  0  0
  190.2870  176.7920  136.4500 O   0  0  0  0  0  0  0  0  0  0  0  0
  189.5480  177.8880  138.5070 C   0  0  0  0  0  2  0  0  0  0  0  0
  188.1890  177.2680  135.5590 C   0  0  1  0  0  3  0  0  0  0  0  0
  187.9760  176.7660  136.9210 C   0  0  2  0  0  3  0  0  0  0  0  0
  189.5290  176.6670  135.2580 C   0  0  0  0  0  2  0  0  0  0  0  0
  183.3320  177.5530  135.3920 O   0  0  0  0  0  0  0  0  0  0  0  0
  182.8960  176.3740  136.0530 C   0  0  2  0  0  3  0  0  0  0  0  0
  184.0080  175.4170  136.5280 C   0  0  0  0  0  2  0  0  0  0  0  0
  185.7390  177.5810  135.3630 C   0  0  2  0  0  3  0  0  0  0  0  0
  185.0480  176.0870  137.4260 C   0  0  0  0  0  2  0  0  0  0  0  0
  185.6180  177.4330  136.9260 C   0  0  1  0  0  3  0  0  0  0  0  0
  187.7190  176.9510  143.0760 O   0  0  0  0  0  0  0  0  0  0  0  0
  190.4850  176.5630  142.3760 C   0  0  0  0  0  2  0  0  0  0  0  0
  189.3380  177.8240  146.3880 C   0  0  2  0  0  3  0  0  0  0  0  0
  188.2550  177.2570  145.4740 C   0  0  0  0  0  2  0  0  0  0  0  0
  188.7140  177.0860  144.0490 C   0  0  0  0  0  0  0  0  0  0  0  0
  188.6600  177.3230  140.8590 C   0  0  1  0  0  3  0  0  0  0  0  0
  191.1060  177.2510  144.7550 C   0  0  0  0  0  2  0  0  0  0  0  0
  190.0270  176.9800  143.7390 C   0  0  0  0  0  0  0  0  0  0  0  0
  190.6280  177.0460  146.1860 C   0  0  0  0  0  2  0  0  0  0  0  0
  190.0940  177.5700  141.3120 C   0  0  0  0  0  2  0  0  0  0  0  0
  187.6650  177.7770  141.9180 C   0  0  0  0  0  2  0  0  0  0  0  0
  188.9020  177.7500  147.8120 C   0  0  0  0  0  0  0  0  0  0  0  0
  187.9420  177.0020  148.1320 O   0  0  0  0  0  0  0  0  0  0  0  0
  189.5460  178.5010  148.7880 O   0  0  0  0  0  1  0  0  0  0  0  0
  181.8680  175.6520  135.2440 C   0  0  0  0  0  0  0  0  0  0  0  0
  180.8690  176.2650  134.7840 O   0  0  0  0  0  0  0  0  0  0  0  0
  182.0190  174.2600  134.9930 N   0  0  0  0  0  1  0  0  0  0  0  0
  1  5  1  1  0  0  0
  2 15  1  0  0  0  0
  2 12  1  0  0  0  0
  3 15  1  0  0  0  0
  4  8  1  6  0  0  0
  4 23  1  0  0  0  0
  5  4  1  0  0  0  0
  6  8  1  1  0  0  0
  7  6  1  0  0  0  0
  9  3  1  6  0  0  0
  9 10  1  0  0  0  0
 10  6  1  0  0  0  0
 10  1  1  0  0  0  0
 11  9  1  0  0  0  0
 11  7  1  0  0  0  0
 12 13  1  0  0  0  0
 13 14  1  0  0  0  0
 14 16  1  0  0  0  0
 15 17  1  0  0  0  0
 17 16  1  0  0  0  0
 17  1  1  0  0  0  0
 18 22  1  0  0  0  0
 19 25  1  0  0  0  0
 20 29  1  0  0  0  0
 21 20  1  0  0  0  0
 22 21  1  0  0  0  0
 23 27  1  0  0  0  0
 23 28  1  0  0  0  0
 24 26  1  0  0  0  0
 25 22  2  0  0  0  0
 25 24  1  0  0  0  0
 26 20  1  0  0  0  0
 27 19  1  0  0  0  0
 28 18  1  0  0  0  0
 29 30  2  0  0  0  0
 29 31  1  0  0  0  0
 32 13  1  0  0  0  0
 33 32  2  0  0  0  0
 34 32  1  0  0  0  0
M  END
>  <MODEL>
6

>  <REMARK>
 VINA RESULT:      -8.0      3.827      6.101
  Name = 
  3 active torsions:
  status: ('A' for Active; 'I' for Inactive)
    1  A    between atoms: C_3  and  C_25
    2  A    between atoms: C_7  and  C_11
    3  A    between atoms: C_8  and  C_18
                            x       y       z     vdW  Elec       q    Type
                         _______ _______ _______ _____ _____    ______ ____

>  <TORSDO>
F 3

$$$$
=
 OpenBabel10262423123D

 34 39  0  0  1  0  0  0  0  0999 V2000
  187.7400  176.9920  136.8660 C   0  0  1  0  0  3  0  0  0  0  0  0
  184.6820  175.9940  134.6100 C   0  0  0  0  0  2  0  0  0  0  0  0
  186.6550  174.6340  135.4730 C   0  0  0  0  0  2  0  0  0  0  0  0
  189.4960  177.7930  138.3070 C   0  0  2  0  0  3  0  0  0  0  0  0
  188.0500  177.8590  137.9970 N   0  0  0  0  0  2  0  0  0  0  0  0
  189.2650  175.2550  137.9720 C   0  0  1  0  0  3  0  0  0  0  0  0
  189.8310  174.1070  137.3650 O   0  0  0  0  0  0  0  0  0  0  0  0
  190.2070  176.4620  137.9060 C   0  0  0  0  0  2  0  0  0  0  0  0
  188.0720  174.8020  136.0070 C   0  0  1  0  0  3  0  0  0  0  0  0
  187.9700  175.5530  137.2640 C   0  0  2  0  0  3  0  0  0  0  0  0
  188.8510  173.6080  136.4710 C   0  0  0  0  0  2  0  0  0  0  0  0
  184.0520  177.2460  134.7520 O   0  0  0  0  0  0  0  0  0  0  0  0
  183.2750  177.2620  135.9400 C   0  0  2  0  0  3  0  0  0  0  0  0
  183.8720  176.5100  137.1470 C   0  0  0  0  0  2  0  0  0  0  0  0
  186.0990  176.0520  135.1800 C   0  0  2  0  0  3  0  0  0  0  0  0
  185.2830  176.9690  137.5160 C   0  0  0  0  0  2  0  0  0  0  0  0
  186.2910  177.0860  136.3510 C   0  0  1  0  0  3  0  0  0  0  0  0
  191.3760  178.0050  141.5610 O   0  0  0  0  0  0  0  0  0  0  0  0
  188.6060  178.6990  141.9280 C   0  0  0  0  0  2  0  0  0  0  0  0
  190.8050  176.5290  145.0030 C   0  0  2  0  0  3  0  0  0  0  0  0
  191.6020  177.2150  143.8970 C   0  0  0  0  0  2  0  0  0  0  0  0
  190.7370  177.7200  142.7710 C   0  0  0  0  0  0  0  0  0  0  0  0
  189.7360  178.1800  139.7680 C   0  0  1  0  0  3  0  0  0  0  0  0
  188.6960  177.5480  144.2050 C   0  0  0  0  0  2  0  0  0  0  0  0
  189.4180  177.9690  142.9510 C   0  0  0  0  0  0  0  0  0  0  0  0
  189.6290  177.4070  145.4000 C   0  0  0  0  0  2  0  0  0  0  0  0
  188.5030  177.9260  140.6270 C   0  0  0  0  0  2  0  0  0  0  0  0
  190.9500  177.4480  140.3220 C   0  0  0  0  0  2  0  0  0  0  0  0
  191.6790  176.2650  146.1810 C   0  0  0  0  0  0  0  0  0  0  0  0
  191.7470  177.1120  147.1090 O   0  0  0  0  0  1  0  0  0  0  0  0
  192.4220  175.0930  146.2620 O   0  0  0  0  0  0  0  0  0  0  0  0
  181.8710  176.8290  135.6720 C   0  0  0  0  0  0  0  0  0  0  0  0
  181.2040  177.3570  134.7440 O   0  0  0  0  0  0  0  0  0  0  0  0
  181.2820  175.8100  136.4730 N   0  0  0  0  0  1  0  0  0  0  0  0
  1 10  1  0  0  0  0
  1  5  1  1  0  0  0
  2 12  1  0  0  0  0
  2 15  1  0  0  0  0
  4  8  1  1  0  0  0
  4 23  1  0  0  0  0
  5  4  1  0  0  0  0
  6  8  1  6  0  0  0
  7  6  1  0  0  0  0
  9  3  1  1  0  0  0
  9 11  1  0  0  0  0
  9 10  1  0  0  0  0
 10  6  1  0  0  0  0
 11  7  1  0  0  0  0
 12 13  1  0  0  0  0
 13 14  1  0  0  0  0
 14 16  1  0  0  0  0
 15  3  1  0  0  0  0
 15 17  1  0  0  0  0
 17  1  1  0  0  0  0
 17 16  1  0  0  0  0
 18 22  1  0  0  0  0
 19 25  1  0  0  0  0
 20 26  1  0  0  0  0
 20 29  1  0  0  0  0
 21 20  1  0  0  0  0
 22 25  2  0  0  0  0
 22 21  1  0  0  0  0
 23 28  1  0  0  0  0
 23 27  1  0  0  0  0
 24 26  1  0  0  0  0
 25 24  1  0  0  0  0
 27 19  1  0  0  0  0
 28 18  1  0  0  0  0
 29 31  2  0  0  0  0
 29 30  1  0  0  0  0
 32 13  1  0  0  0  0
 32 34  1  0  0  0  0
 33 32  2  0  0  0  0
M  END
>  <MODEL>
7

>  <REMARK>
 VINA RESULT:      -7.9      3.639      6.098
  Name = 
  3 active torsions:
  status: ('A' for Active; 'I' for Inactive)
    1  A    between atoms: C_3  and  C_25
    2  A    between atoms: C_7  and  C_11
    3  A    between atoms: C_8  and  C_18
                            x       y       z     vdW  Elec       q    Type
                         _______ _______ _______ _____ _____    ______ ____

>  <TORSDO>
F 3

$$$$
=
 OpenBabel10262423123D

 34 39  0  0  1  0  0  0  0  0999 V2000
  184.9610  178.9650  140.9410 C   0  0  1  0  0  3  0  0  0  0  0  0
  183.9990  179.5480  144.7050 C   0  0  0  0  0  2  0  0  0  0  0  0
  182.6570  178.6290  142.7440 C   0  0  0  0  0  2  0  0  0  0  0  0
  185.7720  178.6280  138.6980 C   0  0  2  0  0  3  0  0  0  0  0  0
  186.1090  178.5580  140.1380 N   0  0  0  0  0  2  0  0  0  0  0  0
  183.5380  177.5420  139.3560 C   0  0  1  0  0  3  0  0  0  0  0  0
  182.1310  177.5910  139.1970 O   0  0  0  0  0  0  0  0  0  0  0  0
  184.2600  178.4490  138.3540 C   0  0  0  0  0  2  0  0  0  0  0  0
  182.6270  178.6280  141.2220 C   0  0  1  0  0  3  0  0  0  0  0  0
  183.8510  177.9560  140.7690 C   0  0  2  0  0  3  0  0  0  0  0  0
  181.5940  177.8260  140.4880 C   0  0  0  0  0  2  0  0  0  0  0  0
  185.3060  179.9190  145.0760 O   0  0  0  0  0  0  0  0  0  0  0  0
  186.0710  178.7590  145.3670 C   0  0  2  0  0  3  0  0  0  0  0  0
  185.7950  177.5290  144.4780 C   0  0  0  0  0  2  0  0  0  0  0  0
  183.8910  179.4610  143.1830 C   0  0  2  0  0  3  0  0  0  0  0  0
  185.9410  177.8110  142.9820 C   0  0  0  0  0  2  0  0  0  0  0  0
  185.2320  179.0780  142.4540 C   0  0  1  0  0  3  0  0  0  0  0  0
  188.6260  176.2380  138.1360 O   0  0  0  0  0  0  0  0  0  0  0  0
  187.5690  177.1840  135.6300 C   0  0  0  0  0  2  0  0  0  0  0  0
  191.8340  176.4340  136.1290 C   0  0  2  0  0  3  0  0  0  0  0  0
  190.8750  175.8620  137.1710 C   0  0  0  0  0  2  0  0  0  0  0  0
  189.4690  176.3850  137.0300 C   0  0  0  0  0  0  0  0  0  0  0  0
  186.6800  177.6860  137.9030 C   0  0  1  0  0  3  0  0  0  0  0  0
  189.9490  177.1740  134.7070 C   0  0  0  0  0  2  0  0  0  0  0  0
  189.0190  176.8940  135.8590 C   0  0  0  0  0  0  0  0  0  0  0  0
  191.2080  176.3180  134.7490 C   0  0  0  0  0  2  0  0  0  0  0  0
  187.0550  178.2760  136.5490 C   0  0  0  0  0  2  0  0  0  0  0  0
  187.9210  177.3330  138.7110 C   0  0  0  0  0  2  0  0  0  0  0  0
  193.1350  175.7090  136.1740 C   0  0  0  0  0  0  0  0  0  0  0  0
  193.1750  174.4810  135.9030 O   0  0  0  0  0  0  0  0  0  0  0  0
  194.3060  176.3780  136.5140 O   0  0  0  0  0  1  0  0  0  0  0  0
  185.9900  178.4090  146.8170 C   0  0  0  0  0  0  0  0  0  0  0  0
  184.8730  178.2530  147.3770 O   0  0  0  0  0  0  0  0  0  0  0  0
  187.1860  178.2530  147.5720 N   0  0  0  0  0  1  0  0  0  0  0  0
  1  5  1  6  0  0  0
  1 17  1  0  0  0  0
  2 12  1  0  0  0  0
  3 15  1  0  0  0  0
  4  8  1  1  0  0  0
  4  5  1  0  0  0  0
  6  8  1  6  0  0  0
  6 10  1  0  0  0  0
  7  6  1  0  0  0  0
  7 11  1  0  0  0  0
  9 11  1  1  0  0  0
  9  3  1  0  0  0  0
 10  1  1  0  0  0  0
 10  9  1  0  0  0  0
 12 13  1  0  0  0  0
 13 32  1  0  0  0  0
 14 13  1  0  0  0  0
 15  2  1  0  0  0  0
 16 14  1  0  0  0  0
 17 16  1  0  0  0  0
 17 15  1  0  0  0  0
 18 28  1  0  0  0  0
 19 25  1  0  0  0  0
 19 27  1  0  0  0  0
 20 29  1  0  0  0  0
 20 21  1  0  0  0  0
 22 21  1  0  0  0  0
 22 18  1  0  0  0  0
 23  4  1  0  0  0  0
 23 28  1  0  0  0  0
 24 26  1  0  0  0  0
 24 25  1  0  0  0  0
 25 22  2  0  0  0  0
 26 20  1  0  0  0  0
 27 23  1  0  0  0  0
 29 31  1  0  0  0  0
 30 29  2  0  0  0  0
 32 33  2  0  0  0  0
 32 34  1  0  0  0  0
M  END
>  <MODEL>
8

>  <REMARK>
 VINA RESULT:      -7.5      4.181      9.971
  Name = 
  3 active torsions:
  status: ('A' for Active; 'I' for Inactive)
    1  A    between atoms: C_3  and  C_25
    2  A    between atoms: C_7  and  C_11
    3  A    between atoms: C_8  and  C_18
                            x       y       z     vdW  Elec       q    Type
                         _______ _______ _______ _____ _____    ______ ____

>  <TORSDO>
F 3

$$$$
=
 OpenBabel10262423123D

 34 39  0  0  1  0  0  0  0  0999 V2000
  181.5900  178.8780  140.9550 C   0  0  1  0  0  3  0  0  0  0  0  0
  179.2880  180.1210  138.0240 C   0  0  0  0  0  2  0  0  0  0  0  0
  178.9540  180.1260  140.5490 C   0  0  0  0  0  2  0  0  0  0  0  0
  183.1770  178.1140  142.5990 C   0  0  2  0  0  3  0  0  0  0  0  0
  183.0050  178.8100  141.3030 N   0  0  0  0  0  2  0  0  0  0  0  0
  181.1710  179.5070  143.4020 C   0  0  1  0  0  3  0  0  0  0  0  0
  179.9340  179.4710  144.0920 O   0  0  0  0  0  0  0  0  0  0  0  0
  181.9590  178.2040  143.5730 C   0  0  0  0  0  2  0  0  0  0  0  0
  179.4490  179.4390  141.8150 C   0  0  1  0  0  3  0  0  0  0  0  0
  180.8740  179.7610  141.9480 C   0  0  2  0  0  3  0  0  0  0  0  0
  178.9480  179.8780  143.1580 C   0  0  0  0  0  2  0  0  0  0  0  0
  180.2630  179.8850  137.0360 O   0  0  0  0  0  0  0  0  0  0  0  0
  181.1310  181.0050  136.9380 C   0  0  2  0  0  3  0  0  0  0  0  0
  181.4710  181.7110  138.2660 C   0  0  0  0  0  2  0  0  0  0  0  0
  179.7320  179.5150  139.3540 C   0  0  2  0  0  3  0  0  0  0  0  0
  182.0510  180.7740  139.3260 C   0  0  0  0  0  2  0  0  0  0  0  0
  181.2920  179.4480  139.5540 C   0  0  1  0  0  3  0  0  0  0  0  0
  186.9080  178.4930  142.9170 O   0  0  0  0  0  0  0  0  0  0  0  0
  185.6030  179.0260  145.4290 C   0  0  0  0  0  2  0  0  0  0  0  0
  189.4820  177.0440  145.2890 C   0  0  2  0  0  3  0  0  0  0  0  0
  188.9930  177.7580  144.0320 C   0  0  0  0  0  2  0  0  0  0  0  0
  187.5530  178.1910  144.1210 C   0  0  0  0  0  0  0  0  0  0  0  0
  184.4940  178.5400  143.2500 C   0  0  1  0  0  3  0  0  0  0  0  0
  187.5800  177.9210  146.6060 C   0  0  0  0  0  2  0  0  0  0  0  0
  186.9400  178.3640  145.3150 C   0  0  0  0  0  0  0  0  0  0  0  0
  189.0980  177.8570  146.5150 C   0  0  0  0  0  2  0  0  0  0  0  0
  184.5120  178.2270  144.7410 C   0  0  0  0  0  2  0  0  0  0  0  0
  185.6740  177.8910  142.5390 C   0  0  0  0  0  2  0  0  0  0  0  0
  190.9600  176.8530  145.2320 C   0  0  0  0  0  0  0  0  0  0  0  0
  191.5960  177.2190  144.2110 O   0  0  0  0  0  0  0  0  0  0  0  0
  191.6390  176.2720  146.2970 O   0  0  0  0  0  1  0  0  0  0  0  0
  180.6410  181.9780  135.9160 C   0  0  0  0  0  0  0  0  0  0  0  0
  180.2880  181.5830  134.7730 O   0  0  0  0  0  0  0  0  0  0  0  0
  180.5760  183.3630  136.2360 N   0  0  0  0  0  1  0  0  0  0  0  0
  1  5  1  1  0  0  0
  1 10  1  0  0  0  0
  2 15  1  0  0  0  0
  4 23  1  0  0  0  0
  4  8  1  1  0  0  0
  5  4  1  0  0  0  0
  6  8  1  6  0  0  0
  6  7  1  0  0  0  0
  9  3  1  6  0  0  0
  9 10  1  0  0  0  0
  9 11  1  0  0  0  0
 10  6  1  0  0  0  0
 11  7  1  0  0  0  0
 12  2  1  0  0  0  0
 13 12  1  0  0  0  0
 13 14  1  0  0  0  0
 14 16  1  0  0  0  0
 15 17  1  0  0  0  0
 15  3  1  0  0  0  0
 16 17  1  0  0  0  0
 17  1  1  0  0  0  0
 18 22  1  0  0  0  0
 20 26  1  0  0  0  0
 21 22  1  0  0  0  0
 21 20  1  0  0  0  0
 22 25  2  0  0  0  0
 23 27  1  0  0  0  0
 25 19  1  0  0  0  0
 25 24  1  0  0  0  0
 26 24  1  0  0  0  0
 27 19  1  0  0  0  0
 28 18  1  0  0  0  0
 28 23  1  0  0  0  0
 29 20  1  0  0  0  0
 29 31  1  0  0  0  0
 30 29  2  0  0  0  0
 32 34  1  0  0  0  0
 32 13  1  0  0  0  0
 33 32  2  0  0  0  0
M  END
>  <MODEL>
9

>  <REMARK>
 VINA RESULT:      -7.4      6.656      9.650
  Name = 
  3 active torsions:
  status: ('A' for Active; 'I' for Inactive)
    1  A    between atoms: C_3  and  C_25
    2  A    between atoms: C_7  and  C_11
    3  A    between atoms: C_8  and  C_18
                            x       y       z     vdW  Elec       q    Type
                         _______ _______ _______ _____ _____    ______ ____

>  <TORSDO>
F 3

$$$$
