=
 OpenBabel10262419183D

 31 34  0  0  1  0  0  0  0  0999 V2000
  189.3640  177.3240  140.8600 C   0  0  0  0  0  0  0  0  0  0  0  0
  187.5040  177.8320  144.1640 C   0  0  2  0  0  3  0  0  0  0  0  0
  188.5760  178.2220  145.2060 C   0  0  2  0  0  3  0  0  0  0  0  0
  190.6570  176.8080  144.9140 C   0  0  0  0  0  2  0  0  0  0  0  0
  187.8760  177.9380  142.6900 C   0  0  0  0  0  0  0  0  0  0  0  0
  188.4770  177.8790  139.9380 C   0  0  0  0  0  3  0  0  0  0  0  0
  190.0660  178.2080  144.8300 C   0  0  0  0  0  2  0  0  0  0  0  0
  185.1500  178.5060  143.4870 C   0  0  1  0  0  3  0  0  0  0  0  0
  190.6350  176.7100  140.3950 C   0  0  0  0  0  1  0  0  0  0  0  0
  186.6900  177.5310  146.7930 C   0  0  0  0  0  2  0  0  0  0  0  0
  191.2740  176.5340  146.2860 C   0  0  0  0  0  2  0  0  0  0  0  0
  185.6360  179.0320  142.1410 C   0  0  0  0  0  2  0  0  0  0  0  0
  186.2650  178.6720  144.5240 C   0  0  1  0  0  3  0  0  0  0  0  0
  189.0550  177.3390  142.2210 C   0  0  0  0  0  3  0  0  0  0  0  0
  190.4070  176.9920  147.4580 C   0  0  0  0  0  2  0  0  0  0  0  0
  186.9530  178.4400  141.7380 C   0  0  0  0  0  0  0  0  0  0  0  0
  187.2740  178.4310  140.3770 C   0  0  0  0  0  3  0  0  0  0  0  0
  185.7930  178.4650  145.9770 C   0  0  0  0  0  2  0  0  0  0  0  0
  188.1850  177.8530  146.6650 C   0  0  1  0  0  3  0  0  0  0  0  0
  188.9420  176.6560  147.2370 C   0  0  0  0  0  2  0  0  0  0  0  0
  183.8380  179.1920  143.8870 C   0  0  0  0  0  2  0  0  0  0  0  0
  181.6190  178.4060  144.3800 O   0  0  0  0  0  1  0  0  0  0  0  0
  182.5890  178.4640  143.3780 C   0  0  1  0  0  3  0  0  0  0  0  0
  180.6120  179.6550  142.3840 C   0  0  0  0  0  1  0  0  0  0  0  0
  182.0080  179.1110  142.1160 C   0  0  2  0  0  3  0  0  0  0  0  0
  181.1780  177.4340  140.6700 O   0  0  0  0  0  0  0  0  0  0  0  0
  182.0820  178.2240  140.8920 C   0  0  0  0  0  0  0  0  0  0  0  0
  183.2400  178.2800  139.9380 C   0  0  0  0  0  2  0  0  0  0  0  0
  183.2730  179.5880  139.2240 C   0  0  0  0  0  0  0  0  0  0  0  0
  184.3560  180.2190  139.1090 O   0  0  0  0  0  0  0  0  0  0  0  0
  182.0820  180.1140  138.6520 N   0  0  0  0  0  1  0  0  0  0  0  0
  1 14  1  0  0  0  0
  2  5  1  6  0  0  0
  2 13  1  0  0  0  0
  2  3  1  0  0  0  0
  3  7  1  6  0  0  0
  3 19  1  0  0  0  0
  4 11  1  0  0  0  0
  6 17  1  0  0  0  0
  6  1  2  0  0  0  0
  7  4  1  0  0  0  0
  8 21  1  1  0  0  0
  8 13  1  0  0  0  0
  9  1  1  0  0  0  0
 11 15  1  0  0  0  0
 12  8  1  0  0  0  0
 13 18  1  1  0  0  0
 14  5  2  0  0  0  0
 16 12  1  0  0  0  0
 16  5  1  0  0  0  0
 17 16  2  0  0  0  0
 18 10  1  0  0  0  0
 19 10  1  6  0  0  0
 19 20  1  0  0  0  0
 20 15  1  0  0  0  0
 23 21  1  0  0  0  0
 23 22  1  1  0  0  0
 25 24  1  1  0  0  0
 25 23  1  0  0  0  0
 26 27  2  0  0  0  0
 27 25  1  0  0  0  0
 28 27  1  0  0  0  0
 29 28  1  0  0  0  0
 30 29  2  0  0  0  0
 31 29  1  0  0  0  0
M  END
>  <MODEL>
1

>  <REMARK>
 VINA RESULT:      -9.5      0.000      0.000
  Name = 
  6 active torsions:
  status: ('A' for Active; 'I' for Inactive)
    1  A    between atoms: C_1  and  C_24
    2  A    between atoms: C_9  and  C_22
    3  A    between atoms: C_9  and  C_23
    4  A    between atoms: C_15  and  C_23
    5  A    between atoms: C_19  and  C_22
    6  A    between atoms: C_19  and  C_24
                            x       y       z     vdW  Elec       q    Type
                         _______ _______ _______ _____ _____    ______ ____

>  <TORSDO>
F 6

$$$$
=
 OpenBabel10262419183D

 31 34  0  0  1  0  0  0  0  0999 V2000
  184.0410  178.8510  143.2180 C   0  0  0  0  0  0  0  0  0  0  0  0
  187.7840  178.1100  142.9330 C   0  0  2  0  0  3  0  0  0  0  0  0
  188.1120  177.1130  144.0660 C   0  0  2  0  0  3  0  0  0  0  0  0
  186.9200  177.7670  146.2030 C   0  0  0  0  0  2  0  0  0  0  0  0
  186.3200  178.2950  142.5540 C   0  0  0  0  0  0  0  0  0  0  0  0
  183.6520  178.9030  141.8800 C   0  0  0  0  0  3  0  0  0  0  0  0
  187.0410  176.7280  145.0970 C   0  0  0  0  0  2  0  0  0  0  0  0
  188.3350  178.4820  140.4810 C   0  0  1  0  0  3  0  0  0  0  0  0
  183.0480  179.1040  144.2920 C   0  0  0  0  0  1  0  0  0  0  0  0
  190.4800  177.9330  143.5390 C   0  0  0  0  0  2  0  0  0  0  0  0
  187.8120  177.4290  147.3980 C   0  0  0  0  0  2  0  0  0  0  0  0
  186.8920  178.2140  140.0670 C   0  0  0  0  0  2  0  0  0  0  0  0
  188.6540  177.6720  141.7410 C   0  0  1  0  0  3  0  0  0  0  0  0
  185.3670  178.5670  143.5470 C   0  0  0  0  0  3  0  0  0  0  0  0
  189.2230  176.9860  147.0130 C   0  0  0  0  0  2  0  0  0  0  0  0
  185.9270  178.4160  141.1960 C   0  0  0  0  0  0  0  0  0  0  0  0
  184.5940  178.6890  140.8740 C   0  0  0  0  0  3  0  0  0  0  0  0
  190.1580  177.6180  142.0760 C   0  0  0  0  0  2  0  0  0  0  0  0
  189.5930  177.1760  144.5370 C   0  0  1  0  0  3  0  0  0  0  0  0
  189.7940  177.8420  145.8960 C   0  0  0  0  0  2  0  0  0  0  0  0
  189.2880  178.1960  139.3140 C   0  0  0  0  0  2  0  0  0  0  0  0
  188.8960  179.6670  137.4520 O   0  0  0  0  0  1  0  0  0  0  0  0
  188.6410  178.3830  137.9370 C   0  0  1  0  0  3  0  0  0  0  0  0
  188.8910  177.8270  135.5000 C   0  0  0  0  0  1  0  0  0  0  0  0
  189.1050  177.3330  136.9240 C   0  0  2  0  0  3  0  0  0  0  0  0
  187.3570  175.8450  137.4910 O   0  0  0  0  0  0  0  0  0  0  0  0
  188.5320  175.9550  137.1740 C   0  0  0  0  0  0  0  0  0  0  0  0
  189.3640  174.7120  137.0500 C   0  0  0  0  0  2  0  0  0  0  0  0
  190.7760  174.9800  137.4420 C   0  0  0  0  0  0  0  0  0  0  0  0
  191.0680  175.1950  138.6470 O   0  0  0  0  0  0  0  0  0  0  0  0
  191.8000  174.9720  136.4550 N   0  0  0  0  0  1  0  0  0  0  0  0
  1 14  1  0  0  0  0
  1  9  1  0  0  0  0
  2  5  1  6  0  0  0
  2  3  1  0  0  0  0
  3 19  1  0  0  0  0
  3  7  1  1  0  0  0
  4 11  1  0  0  0  0
  5 14  2  0  0  0  0
  6  1  2  0  0  0  0
  7  4  1  0  0  0  0
  8 21  1  6  0  0  0
  8 13  1  0  0  0  0
 12  8  1  0  0  0  0
 12 16  1  0  0  0  0
 13 18  1  1  0  0  0
 13  2  1  0  0  0  0
 15 11  1  0  0  0  0
 16  5  1  0  0  0  0
 17 16  2  0  0  0  0
 17  6  1  0  0  0  0
 18 10  1  0  0  0  0
 19 10  1  6  0  0  0
 19 20  1  0  0  0  0
 20 15  1  0  0  0  0
 23 22  1  6  0  0  0
 23 21  1  0  0  0  0
 25 24  1  6  0  0  0
 25 27  1  0  0  0  0
 25 23  1  0  0  0  0
 27 26  2  0  0  0  0
 28 27  1  0  0  0  0
 28 29  1  0  0  0  0
 29 30  2  0  0  0  0
 31 29  1  0  0  0  0
M  END
>  <MODEL>
2

>  <REMARK>
 VINA RESULT:      -9.3      3.347      6.215
  Name = 
  6 active torsions:
  status: ('A' for Active; 'I' for Inactive)
    1  A    between atoms: C_1  and  C_24
    2  A    between atoms: C_9  and  C_22
    3  A    between atoms: C_9  and  C_23
    4  A    between atoms: C_15  and  C_23
    5  A    between atoms: C_19  and  C_22
    6  A    between atoms: C_19  and  C_24
                            x       y       z     vdW  Elec       q    Type
                         _______ _______ _______ _____ _____    ______ ____

>  <TORSDO>
F 6

$$$$
=
 OpenBabel10262419183D

 31 34  0  0  1  0  0  0  0  0999 V2000
  183.9940  178.7840  143.6090 C   0  0  0  0  0  0  0  0  0  0  0  0
  187.7470  178.1310  143.2580 C   0  0  2  0  0  3  0  0  0  0  0  0
  188.1140  177.1210  144.3680 C   0  0  2  0  0  3  0  0  0  0  0  0
  186.9400  177.7120  146.5330 C   0  0  0  0  0  2  0  0  0  0  0  0
  186.2750  178.2900  142.9030 C   0  0  0  0  0  0  0  0  0  0  0  0
  183.5850  178.8510  142.2790 C   0  0  0  0  0  3  0  0  0  0  0  0
  187.0670  176.6950  145.4080 C   0  0  0  0  0  2  0  0  0  0  0  0
  188.2540  178.5560  140.8050 C   0  0  1  0  0  3  0  0  0  0  0  0
  183.0120  178.9970  144.7030 C   0  0  0  0  0  1  0  0  0  0  0  0
  190.4550  178.0020  143.8220 C   0  0  0  0  0  2  0  0  0  0  0  0
  187.8570  177.3730  147.7090 C   0  0  0  0  0  2  0  0  0  0  0  0
  186.8110  178.2640  140.4070 C   0  0  0  0  0  2  0  0  0  0  0  0
  188.6100  177.7320  142.0460 C   0  0  1  0  0  3  0  0  0  0  0  0
  185.3310  178.5240  143.9150 C   0  0  0  0  0  3  0  0  0  0  0  0
  189.2710  176.9680  147.2960 C   0  0  0  0  0  2  0  0  0  0  0  0
  185.8590  178.4250  141.5530 C   0  0  0  0  0  0  0  0  0  0  0  0
  184.5160  178.6750  141.2550 C   0  0  0  0  0  3  0  0  0  0  0  0
  190.1190  177.7050  142.3580 C   0  0  0  0  0  2  0  0  0  0  0  0
  189.6000  177.2090  144.8190 C   0  0  1  0  0  3  0  0  0  0  0  0
  189.8070  177.8560  146.1860 C   0  0  0  0  0  2  0  0  0  0  0  0
  189.1950  178.3110  139.6190 C   0  0  0  0  0  2  0  0  0  0  0  0
  188.8890  179.3350  137.4650 O   0  0  0  0  0  1  0  0  0  0  0  0
  188.4760  178.2700  138.2670 C   0  0  1  0  0  3  0  0  0  0  0  0
  189.7040  177.1010  136.4130 C   0  0  0  0  0  1  0  0  0  0  0  0
  188.6860  176.9420  137.5320 C   0  0  2  0  0  3  0  0  0  0  0  0
  187.3780  175.0840  136.8790 O   0  0  0  0  0  0  0  0  0  0  0  0
  187.3970  176.2880  137.0830 C   0  0  0  0  0  0  0  0  0  0  0  0
  186.1350  177.0750  136.8750 C   0  0  0  0  0  2  0  0  0  0  0  0
  185.9280  177.3680  135.4290 C   0  0  0  0  0  0  0  0  0  0  0  0
  186.6820  178.1800  134.8330 O   0  0  0  0  0  0  0  0  0  0  0  0
  184.8880  176.7110  134.7140 N   0  0  0  0  0  1  0  0  0  0  0  0
  1 14  1  0  0  0  0
  1  9  1  0  0  0  0
  2  5  1  6  0  0  0
  2  3  1  0  0  0  0
  3 19  1  0  0  0  0
  3  7  1  1  0  0  0
  4 11  1  0  0  0  0
  5 14  2  0  0  0  0
  6  1  2  0  0  0  0
  7  4  1  0  0  0  0
  8 21  1  6  0  0  0
  8 13  1  0  0  0  0
 12  8  1  0  0  0  0
 12 16  1  0  0  0  0
 13 18  1  1  0  0  0
 13  2  1  0  0  0  0
 15 11  1  0  0  0  0
 16  5  1  0  0  0  0
 17 16  2  0  0  0  0
 17  6  1  0  0  0  0
 18 10  1  0  0  0  0
 19 10  1  6  0  0  0
 19 20  1  0  0  0  0
 20 15  1  0  0  0  0
 23 22  1  6  0  0  0
 23 21  1  0  0  0  0
 25 24  1  6  0  0  0
 25 23  1  0  0  0  0
 26 27  2  0  0  0  0
 27 25  1  0  0  0  0
 28 27  1  0  0  0  0
 29 28  1  0  0  0  0
 30 29  2  0  0  0  0
 31 29  1  0  0  0  0
M  END
>  <MODEL>
3

>  <REMARK>
 VINA RESULT:      -9.1      2.974      5.526
  Name = 
  6 active torsions:
  status: ('A' for Active; 'I' for Inactive)
    1  A    between atoms: C_1  and  C_24
    2  A    between atoms: C_9  and  C_22
    3  A    between atoms: C_9  and  C_23
    4  A    between atoms: C_15  and  C_23
    5  A    between atoms: C_19  and  C_22
    6  A    between atoms: C_19  and  C_24
                            x       y       z     vdW  Elec       q    Type
                         _______ _______ _______ _____ _____    ______ ____

>  <TORSDO>
F 6

$$$$
=
 OpenBabel10262419183D

 31 34  0  0  1  0  0  0  0  0999 V2000
  185.2650  178.5800  145.9300 C   0  0  0  0  0  0  0  0  0  0  0  0
  186.9140  178.2910  142.4900 C   0  0  2  0  0  3  0  0  0  0  0  0
  187.9700  177.1700  142.6110 C   0  0  2  0  0  3  0  0  0  0  0  0
  189.2170  177.3540  144.8080 C   0  0  0  0  0  2  0  0  0  0  0  0
  185.8440  178.3770  143.5700 C   0  0  0  0  0  0  0  0  0  0  0  0
  183.9300  178.7970  145.5950 C   0  0  0  0  0  3  0  0  0  0  0  0
  188.2580  176.5180  143.9720 C   0  0  0  0  0  2  0  0  0  0  0  0
  185.1460  179.0950  140.8530 C   0  0  1  0  0  3  0  0  0  0  0  0
  185.6820  178.5570  147.3560 C   0  0  0  0  0  1  0  0  0  0  0  0
  188.8190  178.3070  140.4810 C   0  0  0  0  0  2  0  0  0  0  0  0
  190.6710  176.9310  144.5960 C   0  0  0  0  0  2  0  0  0  0  0  0
  184.0220  178.7440  141.8210 C   0  0  0  0  0  2  0  0  0  0  0  0
  186.3200  178.1380  141.0780 C   0  0  1  0  0  3  0  0  0  0  0  0
  186.2140  178.3900  144.9240 C   0  0  0  0  0  3  0  0  0  0  0  0
  191.0440  176.7040  143.1320 C   0  0  0  0  0  2  0  0  0  0  0  0
  184.4950  178.6650  143.2410 C   0  0  0  0  0  0  0  0  0  0  0  0
  183.5480  178.8430  144.2550 C   0  0  0  0  0  3  0  0  0  0  0  0
  187.3830  178.1910  139.9630 C   0  0  0  0  0  2  0  0  0  0  0  0
  189.1460  177.3150  141.6040 C   0  0  1  0  0  3  0  0  0  0  0  0
  190.4590  177.7790  142.2320 C   0  0  0  0  0  2  0  0  0  0  0  0
  184.6270  179.0960  139.4090 C   0  0  0  0  0  2  0  0  0  0  0  0
  183.1350  180.8630  138.7510 O   0  0  0  0  0  1  0  0  0  0  0  0
  183.1770  179.5730  139.2820 C   0  0  1  0  0  3  0  0  0  0  0  0
  181.4590  179.4090  137.4550 C   0  0  0  0  0  1  0  0  0  0  0  0
  182.3200  178.6260  138.4360 C   0  0  2  0  0  3  0  0  0  0  0  0
  182.0810  176.5870  139.6090 O   0  0  0  0  0  0  0  0  0  0  0  0
  181.5380  177.6220  139.2550 C   0  0  0  0  0  0  0  0  0  0  0  0
  180.1080  177.8560  139.6450 C   0  0  0  0  0  2  0  0  0  0  0  0
  179.9730  177.9530  141.1270 C   0  0  0  0  0  0  0  0  0  0  0  0
  179.4410  177.0160  141.7760 O   0  0  0  0  0  0  0  0  0  0  0  0
  180.4680  179.0980  141.8100 N   0  0  0  0  0  1  0  0  0  0  0  0
  1  9  1  0  0  0  0
  2  3  1  0  0  0  0
  2  5  1  1  0  0  0
  3  7  1  1  0  0  0
  5 14  1  0  0  0  0
  6  1  1  0  0  0  0
  7  4  1  0  0  0  0
  8 21  1  6  0  0  0
  8 13  1  0  0  0  0
  8 12  1  0  0  0  0
 11  4  1  0  0  0  0
 12 16  1  0  0  0  0
 13 18  1  6  0  0  0
 13  2  1  0  0  0  0
 14  1  2  0  0  0  0
 15 11  1  0  0  0  0
 16  5  2  0  0  0  0
 16 17  1  0  0  0  0
 17  6  2  0  0  0  0
 18 10  1  0  0  0  0
 19 10  1  6  0  0  0
 19 20  1  0  0  0  0
 19  3  1  0  0  0  0
 20 15  1  0  0  0  0
 23 22  1  6  0  0  0
 23 21  1  0  0  0  0
 25 24  1  1  0  0  0
 25 27  1  0  0  0  0
 25 23  1  0  0  0  0
 27 26  2  0  0  0  0
 27 28  1  0  0  0  0
 28 29  1  0  0  0  0
 29 30  2  0  0  0  0
 29 31  1  0  0  0  0
M  END
>  <MODEL>
4

>  <REMARK>
 VINA RESULT:      -9.0      1.695      4.559
  Name = 
  6 active torsions:
  status: ('A' for Active; 'I' for Inactive)
    1  A    between atoms: C_1  and  C_24
    2  A    between atoms: C_9  and  C_22
    3  A    between atoms: C_9  and  C_23
    4  A    between atoms: C_15  and  C_23
    5  A    between atoms: C_19  and  C_22
    6  A    between atoms: C_19  and  C_24
                            x       y       z     vdW  Elec       q    Type
                         _______ _______ _______ _____ _____    ______ ____

>  <TORSDO>
F 6

$$$$
=
 OpenBabel10262419183D

 31 34  0  0  1  0  0  0  0  0999 V2000
  189.3830  177.3480  140.7620 C   0  0  0  0  0  0  0  0  0  0  0  0
  187.5640  177.8290  144.0930 C   0  0  2  0  0  3  0  0  0  0  0  0
  188.6460  178.2330  145.1190 C   0  0  2  0  0  3  0  0  0  0  0  0
  190.7420  176.8500  144.7960 C   0  0  0  0  0  2  0  0  0  0  0  0
  187.9130  177.9400  142.6140 C   0  0  0  0  0  0  0  0  0  0  0  0
  188.4740  177.8900  139.8540 C   0  0  0  0  0  3  0  0  0  0  0  0
  190.1300  178.2410  144.7220 C   0  0  0  0  0  2  0  0  0  0  0  0
  185.1910  178.4680  143.4510 C   0  0  1  0  0  3  0  0  0  0  0  0
  190.6550  176.7530  140.2780 C   0  0  0  0  0  1  0  0  0  0  0  0
  186.7930  177.5150  146.7340 C   0  0  0  0  0  2  0  0  0  0  0  0
  191.3830  176.5840  146.1590 C   0  0  0  0  0  2  0  0  0  0  0  0
  185.6500  179.0020  142.0990 C   0  0  0  0  0  2  0  0  0  0  0  0
  186.3180  178.6500  144.4720 C   0  0  1  0  0  3  0  0  0  0  0  0
  189.0930  177.3580  142.1270 C   0  0  0  0  0  3  0  0  0  0  0  0
  190.5270  177.0290  147.3440 C   0  0  0  0  0  2  0  0  0  0  0  0
  186.9680  178.4280  141.6760 C   0  0  0  0  0  0  0  0  0  0  0  0
  187.2700  178.4250  140.3100 C   0  0  0  0  0  3  0  0  0  0  0  0
  185.8710  178.4360  145.9320 C   0  0  0  0  0  2  0  0  0  0  0  0
  188.2810  177.8580  146.5840 C   0  0  1  0  0  3  0  0  0  0  0  0
  189.0640  176.6720  147.1440 C   0  0  0  0  0  2  0  0  0  0  0  0
  183.8750  179.1350  143.8700 C   0  0  0  0  0  2  0  0  0  0  0  0
  181.6440  178.3700  144.3440 O   0  0  0  0  0  1  0  0  0  0  0  0
  182.6290  178.4050  143.3560 C   0  0  1  0  0  3  0  0  0  0  0  0
  180.7370  179.7120  142.3440 C   0  0  0  0  0  1  0  0  0  0  0  0
  182.0710  179.0310  142.0740 C   0  0  2  0  0  3  0  0  0  0  0  0
  183.0550  177.5020  140.5630 O   0  0  0  0  0  0  0  0  0  0  0  0
  182.0310  178.0760  140.9010 C   0  0  0  0  0  0  0  0  0  0  0  0
  180.7700  177.8120  140.1310 C   0  0  0  0  0  2  0  0  0  0  0  0
  180.1590  176.5170  140.5460 C   0  0  0  0  0  0  0  0  0  0  0  0
  180.4130  175.4640  139.9050 O   0  0  0  0  0  0  0  0  0  0  0  0
  179.3050  176.4680  141.6820 N   0  0  0  0  0  1  0  0  0  0  0  0
  1 14  1  0  0  0  0
  2  5  1  6  0  0  0
  2 13  1  0  0  0  0
  2  3  1  0  0  0  0
  3  7  1  6  0  0  0
  3 19  1  0  0  0  0
  4 11  1  0  0  0  0
  6 17  1  0  0  0  0
  6  1  2  0  0  0  0
  7  4  1  0  0  0  0
  8 21  1  1  0  0  0
  8 13  1  0  0  0  0
  9  1  1  0  0  0  0
 11 15  1  0  0  0  0
 12  8  1  0  0  0  0
 13 18  1  1  0  0  0
 14  5  2  0  0  0  0
 16 12  1  0  0  0  0
 16  5  1  0  0  0  0
 17 16  2  0  0  0  0
 18 10  1  0  0  0  0
 19 10  1  6  0  0  0
 19 20  1  0  0  0  0
 20 15  1  0  0  0  0
 23 21  1  0  0  0  0
 23 22  1  1  0  0  0
 25 24  1  1  0  0  0
 25 23  1  0  0  0  0
 26 27  2  0  0  0  0
 27 25  1  0  0  0  0
 28 29  1  0  0  0  0
 28 27  1  0  0  0  0
 29 31  1  0  0  0  0
 30 29  2  0  0  0  0
M  END
>  <MODEL>
5

>  <REMARK>
 VINA RESULT:      -8.9      1.324      1.797
  Name = 
  6 active torsions:
  status: ('A' for Active; 'I' for Inactive)
    1  A    between atoms: C_1  and  C_24
    2  A    between atoms: C_9  and  C_22
    3  A    between atoms: C_9  and  C_23
    4  A    between atoms: C_15  and  C_23
    5  A    between atoms: C_19  and  C_22
    6  A    between atoms: C_19  and  C_24
                            x       y       z     vdW  Elec       q    Type
                         _______ _______ _______ _____ _____    ______ ____

>  <TORSDO>
F 6

$$$$
=
 OpenBabel10262419183D

 31 34  0  0  1  0  0  0  0  0999 V2000
  188.9540  177.1620  146.1050 C   0  0  0  0  0  0  0  0  0  0  0  0
  186.9530  178.0380  142.9630 C   0  0  2  0  0  3  0  0  0  0  0  0
  185.8530  179.0230  143.4150 C   0  0  2  0  0  3  0  0  0  0  0  0
  184.8450  178.2840  145.6180 C   0  0  0  0  0  2  0  0  0  0  0  0
  188.1300  177.8100  143.9030 C   0  0  0  0  0  0  0  0  0  0  0  0
  190.2590  177.1240  145.6170 C   0  0  0  0  0  3  0  0  0  0  0  0
  185.6650  179.3490  144.9040 C   0  0  0  0  0  2  0  0  0  0  0  0
  188.5910  177.7360  141.0450 C   0  0  1  0  0  3  0  0  0  0  0  0
  188.6820  176.8520  147.5310 C   0  0  0  0  0  1  0  0  0  0  0  0
  184.8600  178.2960  141.1700 C   0  0  0  0  0  2  0  0  0  0  0  0
  183.3550  178.6280  145.6290 C   0  0  0  0  0  2  0  0  0  0  0  0
  189.7850  177.9620  141.9660 C   0  0  0  0  0  2  0  0  0  0  0  0
  187.3930  178.5310  141.5720 C   0  0  1  0  0  3  0  0  0  0  0  0
  187.9000  177.4850  145.2490 C   0  0  0  0  0  3  0  0  0  0  0  0
  182.8250  179.1280  144.2860 C   0  0  0  0  0  2  0  0  0  0  0  0
  189.4540  177.7040  143.4050 C   0  0  0  0  0  0  0  0  0  0  0  0
  190.5060  177.3900  144.2710 C   0  0  0  0  0  3  0  0  0  0  0  0
  186.2270  178.6310  140.5680 C   0  0  0  0  0  2  0  0  0  0  0  0
  184.5910  179.0020  142.5050 C   0  0  1  0  0  3  0  0  0  0  0  0
  183.3770  178.3150  143.1280 C   0  0  0  0  0  2  0  0  0  0  0  0
  188.9610  178.0790  139.5970 C   0  0  0  0  0  2  0  0  0  0  0  0
  187.7830  176.6440  138.0680 O   0  0  0  0  0  1  0  0  0  0  0  0
  189.0220  176.8560  138.6750 C   0  0  1  0  0  3  0  0  0  0  0  0
  189.5100  177.0760  136.2200 C   0  0  0  0  0  1  0  0  0  0  0  0
  190.1180  176.9780  137.6120 C   0  0  2  0  0  3  0  0  0  0  0  0
  190.9550  174.8900  138.3420 O   0  0  0  0  0  0  0  0  0  0  0  0
  191.1920  175.9170  137.7250 C   0  0  0  0  0  0  0  0  0  0  0  0
  192.5480  176.0880  137.1040 C   0  0  0  0  0  2  0  0  0  0  0  0
  193.6040  176.1630  138.1530 C   0  0  0  0  0  0  0  0  0  0  0  0
  193.5450  177.0480  139.0470 O   0  0  0  0  0  0  0  0  0  0  0  0
  194.6680  175.2200  138.1580 N   0  0  0  0  0  1  0  0  0  0  0  0
  1  9  1  0  0  0  0
  2  3  1  0  0  0  0
  2  5  1  1  0  0  0
  3  7  1  1  0  0  0
  4 11  1  0  0  0  0
  5 14  1  0  0  0  0
  6  1  1  0  0  0  0
  7  4  1  0  0  0  0
  8 21  1  6  0  0  0
  8 13  1  0  0  0  0
  8 12  1  0  0  0  0
 12 16  1  0  0  0  0
 13 18  1  6  0  0  0
 13  2  1  0  0  0  0
 14  1  2  0  0  0  0
 15 11  1  0  0  0  0
 16  5  2  0  0  0  0
 16 17  1  0  0  0  0
 17  6  2  0  0  0  0
 18 10  1  0  0  0  0
 19 10  1  6  0  0  0
 19 20  1  0  0  0  0
 19  3  1  0  0  0  0
 20 15  1  0  0  0  0
 23 22  1  6  0  0  0
 23 21  1  0  0  0  0
 25 24  1  6  0  0  0
 25 27  1  0  0  0  0
 25 23  1  0  0  0  0
 27 26  2  0  0  0  0
 28 27  1  0  0  0  0
 28 29  1  0  0  0  0
 29 31  1  0  0  0  0
 29 30  2  0  0  0  0
M  END
>  <MODEL>
6

>  <REMARK>
 VINA RESULT:      -8.8      3.857      7.362
  Name = 
  6 active torsions:
  status: ('A' for Active; 'I' for Inactive)
    1  A    between atoms: C_1  and  C_24
    2  A    between atoms: C_9  and  C_22
    3  A    between atoms: C_9  and  C_23
    4  A    between atoms: C_15  and  C_23
    5  A    between atoms: C_19  and  C_22
    6  A    between atoms: C_19  and  C_24
                            x       y       z     vdW  Elec       q    Type
                         _______ _______ _______ _____ _____    ______ ____

>  <TORSDO>
F 6

$$$$
=
 OpenBabel10262419183D

 31 34  0  0  1  0  0  0  0  0999 V2000
  185.1000  178.6140  145.6610 C   0  0  0  0  0  0  0  0  0  0  0  0
  186.9990  178.2760  142.3580 C   0  0  2  0  0  3  0  0  0  0  0  0
  188.0500  177.1660  142.5780 C   0  0  2  0  0  3  0  0  0  0  0  0
  189.1320  177.4020  144.8560 C   0  0  0  0  0  2  0  0  0  0  0  0
  185.8510  178.3730  143.3550 C   0  0  0  0  0  0  0  0  0  0  0  0
  183.7910  178.8140  145.2250 C   0  0  0  0  0  3  0  0  0  0  0  0
  188.2430  176.5430  143.9680 C   0  0  0  0  0  2  0  0  0  0  0  0
  185.3500  179.0340  140.5800 C   0  0  1  0  0  3  0  0  0  0  0  0
  185.4110  178.6210  147.1140 C   0  0  0  0  0  1  0  0  0  0  0  0
  189.0460  178.2710  140.4930 C   0  0  0  0  0  2  0  0  0  0  0  0
  190.6000  176.9870  144.7590 C   0  0  0  0  0  2  0  0  0  0  0  0
  184.1600  178.6910  141.4700 C   0  0  0  0  0  2  0  0  0  0  0  0
  186.5110  178.0910  140.9090 C   0  0  1  0  0  3  0  0  0  0  0  0
  186.1210  178.4140  144.7310 C   0  0  0  0  0  3  0  0  0  0  0  0
  191.0810  176.7360  143.3310 C   0  0  0  0  0  2  0  0  0  0  0  0
  184.5280  178.6430  142.9220 C   0  0  0  0  0  0  0  0  0  0  0  0
  183.5080  178.8320  143.8600 C   0  0  0  0  0  3  0  0  0  0  0  0
  187.6530  178.1320  139.8740 C   0  0  0  0  0  2  0  0  0  0  0  0
  189.2970  177.3020  141.6570 C   0  0  1  0  0  3  0  0  0  0  0  0
  190.5560  177.7900  142.3700 C   0  0  0  0  0  2  0  0  0  0  0  0
  184.9390  179.0030  139.1030 C   0  0  0  0  0  2  0  0  0  0  0  0
  182.6820  179.3430  138.3440 O   0  0  0  0  0  1  0  0  0  0  0  0
  183.5550  178.3880  138.8660 C   0  0  1  0  0  3  0  0  0  0  0  0
  183.0620  177.4980  136.5690 C   0  0  0  0  0  1  0  0  0  0  0  0
  183.6080  177.1620  137.9490 C   0  0  2  0  0  3  0  0  0  0  0  0
  183.1080  174.8520  137.9830 O   0  0  0  0  0  0  0  0  0  0  0  0
  182.9860  175.9240  138.5560 C   0  0  0  0  0  0  0  0  0  0  0  0
  182.2150  175.9690  139.8430 C   0  0  0  0  0  2  0  0  0  0  0  0
  180.7500  175.8820  139.5850 C   0  0  0  0  0  0  0  0  0  0  0  0
  180.1990  176.6900  138.7930 O   0  0  0  0  0  0  0  0  0  0  0  0
  179.9770  174.8710  140.2200 N   0  0  0  0  0  1  0  0  0  0  0  0
  1  9  1  0  0  0  0
  2  3  1  0  0  0  0
  2  5  1  1  0  0  0
  3  7  1  1  0  0  0
  5 14  1  0  0  0  0
  6  1  1  0  0  0  0
  7  4  1  0  0  0  0
  8 21  1  6  0  0  0
  8 13  1  0  0  0  0
  8 12  1  0  0  0  0
 11  4  1  0  0  0  0
 12 16  1  0  0  0  0
 13 18  1  6  0  0  0
 13  2  1  0  0  0  0
 14  1  2  0  0  0  0
 15 11  1  0  0  0  0
 16  5  2  0  0  0  0
 16 17  1  0  0  0  0
 17  6  2  0  0  0  0
 18 10  1  0  0  0  0
 19 10  1  6  0  0  0
 19 20  1  0  0  0  0
 19  3  1  0  0  0  0
 20 15  1  0  0  0  0
 23 22  1  6  0  0  0
 23 21  1  0  0  0  0
 25 24  1  6  0  0  0
 25 27  1  0  0  0  0
 25 23  1  0  0  0  0
 26 27  2  0  0  0  0
 27 28  1  0  0  0  0
 29 28  1  0  0  0  0
 29 31  1  0  0  0  0
 30 29  2  0  0  0  0
M  END
>  <MODEL>
7

>  <REMARK>
 VINA RESULT:      -8.7      2.159      4.767
  Name = 
  6 active torsions:
  status: ('A' for Active; 'I' for Inactive)
    1  A    between atoms: C_1  and  C_24
    2  A    between atoms: C_9  and  C_22
    3  A    between atoms: C_9  and  C_23
    4  A    between atoms: C_15  and  C_23
    5  A    between atoms: C_19  and  C_22
    6  A    between atoms: C_19  and  C_24
                            x       y       z     vdW  Elec       q    Type
                         _______ _______ _______ _____ _____    ______ ____

>  <TORSDO>
F 6

$$$$
=
 OpenBabel10262419183D

 31 34  0  0  1  0  0  0  0  0999 V2000
  185.1360  178.5970  145.7140 C   0  0  0  0  0  0  0  0  0  0  0  0
  186.8910  178.2760  142.3300 C   0  0  2  0  0  3  0  0  0  0  0  0
  187.9400  177.1540  142.4940 C   0  0  2  0  0  3  0  0  0  0  0  0
  189.1180  177.3550  144.7260 C   0  0  0  0  0  2  0  0  0  0  0  0
  185.7880  178.3730  143.3750 C   0  0  0  0  0  0  0  0  0  0  0  0
  183.8120  178.8140  145.3350 C   0  0  0  0  0  3  0  0  0  0  0  0
  188.1850  176.5140  143.8680 C   0  0  0  0  0  2  0  0  0  0  0  0
  185.1770  179.0690  140.6310 C   0  0  1  0  0  3  0  0  0  0  0  0
  185.5080  178.5850  147.1520 C   0  0  0  0  0  1  0  0  0  0  0  0
  188.8580  178.2720  140.3810 C   0  0  0  0  0  2  0  0  0  0  0  0
  190.5770  176.9280  144.5640 C   0  0  0  0  0  2  0  0  0  0  0  0
  184.0220  178.7280  141.5670 C   0  0  0  0  0  2  0  0  0  0  0  0
  186.3410  178.1120  140.9010 C   0  0  1  0  0  3  0  0  0  0  0  0
  186.1150  178.3970  144.7390 C   0  0  0  0  0  3  0  0  0  0  0  0
  190.9950  176.6880  143.1140 C   0  0  0  0  0  2  0  0  0  0  0  0
  184.4500  178.6610  143.0010 C   0  0  0  0  0  0  0  0  0  0  0  0
  183.4720  178.8490  143.9840 C   0  0  0  0  0  3  0  0  0  0  0  0
  187.4390  178.1530  139.8190 C   0  0  0  0  0  2  0  0  0  0  0  0
  189.1480  177.2880  141.5230 C   0  0  1  0  0  3  0  0  0  0  0  0
  190.4410  177.7560  142.1870 C   0  0  0  0  0  2  0  0  0  0  0  0
  184.7030  179.0580  139.1720 C   0  0  0  0  0  2  0  0  0  0  0  0
  182.4190  178.7760  138.4730 O   0  0  0  0  0  1  0  0  0  0  0  0
  183.5500  178.0840  138.9110 C   0  0  1  0  0  3  0  0  0  0  0  0
  183.6420  177.4480  136.4820 C   0  0  0  0  0  1  0  0  0  0  0  0
  183.9230  176.9900  137.9060 C   0  0  2  0  0  3  0  0  0  0  0  0
  182.7010  175.4960  139.2720 O   0  0  0  0  0  0  0  0  0  0  0  0
  183.3250  175.6380  138.2310 C   0  0  0  0  0  0  0  0  0  0  0  0
  183.4760  174.4600  137.3140 C   0  0  0  0  0  2  0  0  0  0  0  0
  184.8580  173.9060  137.3890 C   0  0  0  0  0  0  0  0  0  0  0  0
  185.1080  172.9290  138.1430 O   0  0  0  0  0  0  0  0  0  0  0  0
  185.8920  174.4690  136.5910 N   0  0  0  0  0  1  0  0  0  0  0  0
  1  9  1  0  0  0  0
  2  3  1  0  0  0  0
  2  5  1  1  0  0  0
  3  7  1  1  0  0  0
  5 14  1  0  0  0  0
  6  1  1  0  0  0  0
  7  4  1  0  0  0  0
  8 21  1  6  0  0  0
  8 13  1  0  0  0  0
  8 12  1  0  0  0  0
 11  4  1  0  0  0  0
 12 16  1  0  0  0  0
 13 18  1  6  0  0  0
 13  2  1  0  0  0  0
 14  1  2  0  0  0  0
 15 11  1  0  0  0  0
 16  5  2  0  0  0  0
 16 17  1  0  0  0  0
 17  6  2  0  0  0  0
 18 10  1  0  0  0  0
 19 10  1  6  0  0  0
 19 20  1  0  0  0  0
 19  3  1  0  0  0  0
 20 15  1  0  0  0  0
 23 22  1  6  0  0  0
 23 21  1  0  0  0  0
 25 24  1  6  0  0  0
 25 27  1  0  0  0  0
 25 23  1  0  0  0  0
 27 26  2  0  0  0  0
 28 29  1  0  0  0  0
 28 27  1  0  0  0  0
 29 30  2  0  0  0  0
 31 29  1  0  0  0  0
M  END
>  <MODEL>
8

>  <REMARK>
 VINA RESULT:      -8.7      2.620      5.030
  Name = 
  6 active torsions:
  status: ('A' for Active; 'I' for Inactive)
    1  A    between atoms: C_1  and  C_24
    2  A    between atoms: C_9  and  C_22
    3  A    between atoms: C_9  and  C_23
    4  A    between atoms: C_15  and  C_23
    5  A    between atoms: C_19  and  C_22
    6  A    between atoms: C_19  and  C_24
                            x       y       z     vdW  Elec       q    Type
                         _______ _______ _______ _____ _____    ______ ____

>  <TORSDO>
F 6

$$$$
=
 OpenBabel10262419183D

 31 34  0  0  1  0  0  0  0  0999 V2000
  187.8810  177.8340  147.2510 C   0  0  0  0  0  0  0  0  0  0  0  0
  187.1080  178.2630  143.5290 C   0  0  2  0  0  3  0  0  0  0  0  0
  187.8580  177.1270  142.8000 C   0  0  2  0  0  3  0  0  0  0  0  0
  190.1760  176.8200  143.7750 C   0  0  0  0  0  2  0  0  0  0  0  0
  186.9120  178.1320  145.0340 C   0  0  0  0  0  0  0  0  0  0  0  0
  186.6550  178.1380  147.8400 C   0  0  0  0  0  3  0  0  0  0  0  0
  188.8020  176.1960  143.5760 C   0  0  0  0  0  2  0  0  0  0  0  0
  184.8500  179.4250  143.4650 C   0  0  1  0  0  3  0  0  0  0  0  0
  189.0530  177.5010  148.1010 C   0  0  0  0  0  1  0  0  0  0  0  0
  187.4300  178.6810  140.8110 C   0  0  0  0  0  2  0  0  0  0  0  0
  191.1430  176.4300  142.6570 C   0  0  0  0  0  2  0  0  0  0  0  0
  184.4820  178.8910  144.8450 C   0  0  0  0  0  2  0  0  0  0  0  0
  185.7780  178.4240  142.7700 C   0  0  1  0  0  3  0  0  0  0  0  0
  188.0100  177.8500  145.8620 C   0  0  0  0  0  3  0  0  0  0  0  0
  190.5380  176.5170  141.2560 C   0  0  0  0  0  2  0  0  0  0  0  0
  185.6880  178.5030  145.6470 C   0  0  0  0  0  0  0  0  0  0  0  0
  185.5640  178.4750  147.0400 C   0  0  0  0  0  3  0  0  0  0  0  0
  185.9680  178.6990  141.2650 C   0  0  0  0  0  2  0  0  0  0  0  0
  188.2150  177.4670  141.3250 C   0  0  1  0  0  3  0  0  0  0  0  0
  189.6930  177.7680  141.0870 C   0  0  0  0  0  2  0  0  0  0  0  0
  183.5830  179.7420  142.6610 C   0  0  0  0  0  2  0  0  0  0  0  0
  181.7320  178.7580  143.8400 O   0  0  0  0  0  1  0  0  0  0  0  0
  182.5350  178.6240  142.7060 C   0  0  1  0  0  3  0  0  0  0  0  0
  180.3580  177.8550  141.7150 C   0  0  0  0  0  1  0  0  0  0  0  0
  181.6660  178.5840  141.4450 C   0  0  2  0  0  3  0  0  0  0  0  0
  183.1450  177.1140  140.3310 O   0  0  0  0  0  0  0  0  0  0  0  0
  182.3970  178.0730  140.2220 C   0  0  0  0  0  0  0  0  0  0  0  0
  182.2360  178.7120  138.8730 C   0  0  0  0  0  2  0  0  0  0  0  0
  182.8680  180.0620  138.8490 C   0  0  0  0  0  0  0  0  0  0  0  0
  184.0960  180.1890  139.0960 O   0  0  0  0  0  0  0  0  0  0  0  0
  182.0880  181.2050  138.5230 N   0  0  0  0  0  1  0  0  0  0  0  0
  1  6  1  0  0  0  0
  1  9  1  0  0  0  0
  2  5  1  1  0  0  0
  3  2  1  0  0  0  0
  3  7  1  1  0  0  0
  5 16  2  0  0  0  0
  5 14  1  0  0  0  0
  7  4  1  0  0  0  0
  8 21  1  6  0  0  0
  8 12  1  0  0  0  0
 10 18  1  0  0  0  0
 11  4  1  0  0  0  0
 12 16  1  0  0  0  0
 13 18  1  6  0  0  0
 13  8  1  0  0  0  0
 13  2  1  0  0  0  0
 14  1  2  0  0  0  0
 15 11  1  0  0  0  0
 16 17  1  0  0  0  0
 17  6  2  0  0  0  0
 19 10  1  1  0  0  0
 19  3  1  0  0  0  0
 20 15  1  0  0  0  0
 20 19  1  0  0  0  0
 21 23  1  0  0  0  0
 23 22  1  1  0  0  0
 25 24  1  1  0  0  0
 25 23  1  0  0  0  0
 27 26  2  0  0  0  0
 27 25  1  0  0  0  0
 28 27  1  0  0  0  0
 29 28  1  0  0  0  0
 29 30  2  0  0  0  0
 31 29  1  0  0  0  0
M  END
>  <MODEL>
9

>  <REMARK>
 VINA RESULT:      -8.5      1.176      3.948
  Name = 
  6 active torsions:
  status: ('A' for Active; 'I' for Inactive)
    1  A    between atoms: C_1  and  C_24
    2  A    between atoms: C_9  and  C_22
    3  A    between atoms: C_9  and  C_23
    4  A    between atoms: C_15  and  C_23
    5  A    between atoms: C_19  and  C_22
    6  A    between atoms: C_19  and  C_24
                            x       y       z     vdW  Elec       q    Type
                         _______ _______ _______ _____ _____    ______ ____

>  <TORSDO>
F 6

$$$$
