=
 OpenBabel10262421053D

 32 34  0  0  1  0  0  0  0  0999 V2000
  186.2710  178.2140  143.8500 C   0  0  2  0  0  3  0  0  0  0  0  0
  185.0510  178.6550  143.0190 C   0  0  1  0  0  3  0  0  0  0  0  0
  184.3770  179.8600  143.6500 C   0  0  0  0  0  1  0  0  0  0  0  0
  186.1770  178.4700  138.6780 C   0  0  0  0  0  1  0  0  0  0  0  0
  184.4150  178.4380  140.5460 N   0  0  0  0  0  0  0  0  0  0  0  0
  184.7590  178.4490  139.1400 C   0  0  0  0  0  0  0  0  0  0  0  0
  183.8530  178.4020  138.2650 O   0  0  0  0  0  0  0  0  0  0  0  0
  186.3590  179.5640  141.2360 O   0  0  0  0  0  0  0  0  0  0  0  0
  185.3340  178.9020  141.5580 C   0  0  0  0  0  0  0  0  0  0  0  0
  182.5010  176.5380  140.0660 S   0  0  0  0  0  0  0  0  0  0  0  0
  180.7650  177.0490  140.2320 C   0  0  0  0  0  2  0  0  0  0  0  0
  183.0790  178.0120  140.9770 C   0  0  2  0  0  3  0  0  0  0  0  0
  179.7240  179.1400  140.5680 O   0  0  0  0  0  0  0  0  0  0  0  0
  182.0640  179.1360  140.8590 C   0  0  0  0  0  2  0  0  0  0  0  0
  180.7590  178.4970  140.5590 C   0  0  0  0  0  0  0  0  0  0  0  0
  186.8430  176.8610  143.4420 C   0  0  0  0  0  2  0  0  0  0  0  0
  188.2210  177.0330  142.8220 C   0  0  0  0  0  2  0  0  0  0  0  0
  189.0180  175.7470  142.9550 C   0  0  0  0  0  2  0  0  0  0  0  0
  190.3570  176.0390  143.2250 O   0  0  0  0  0  0  0  0  0  0  0  0
  191.7780  177.6810  142.2640 C   0  0  0  0  0  2  0  0  0  0  0  0
  191.4800  179.4310  143.9830 C   0  0  0  0  0  1  0  0  0  0  0  0
  190.4760  177.4100  142.9890 C   0  0  2  0  0  3  0  0  0  0  0  0
  191.6740  177.9470  143.7520 C   0  0  1  0  0  3  0  0  0  0  0  0
  186.1070  178.3550  145.3730 C   0  0  1  0  0  3  0  0  0  0  0  0
  184.6580  178.6240  145.7650 C   0  0  0  0  0  2  0  0  0  0  0  0
  184.4310  178.3130  147.1070 O   0  0  0  0  0  1  0  0  0  0  0  0
  186.7070  177.2160  146.1950 C   0  0  0  0  0  2  0  0  0  0  0  0
  187.7410  178.7060  148.0530 C   0  0  0  0  0  2  0  0  0  0  0  0
  187.8810  177.2330  148.4180 C   0  0  0  0  0  2  0  0  0  0  0  0
  187.9360  177.6650  146.9700 C   0  0  0  0  0  0  0  0  0  0  0  0
  189.2990  177.4990  146.3680 C   0  0  0  0  0  3  0  0  0  0  0  0
  190.2780  177.2580  147.0600 O   0  0  0  0  0  0  0  0  0  0  0  0
  1 16  1  1  0  0  0
  1 24  1  0  0  0  0
  2  3  1  1  0  0  0
  2  1  1  0  0  0  0
  4  6  1  0  0  0  0
  5  9  1  0  0  0  0
  6  5  1  0  0  0  0
  7  6  2  0  0  0  0
  8  9  2  0  0  0  0
  9  2  1  0  0  0  0
 10 11  1  0  0  0  0
 10 12  1  0  0  0  0
 11 15  1  0  0  0  0
 12  5  1  6  0  0  0
 14 12  1  0  0  0  0
 15 13  2  0  0  0  0
 15 14  1  0  0  0  0
 17 18  1  0  0  0  0
 17 16  1  0  0  0  0
 18 19  1  0  0  0  0
 20 22  1  0  0  0  0
 20 23  1  0  0  0  0
 22 19  1  1  0  0  0
 22 23  1  0  0  0  0
 23 21  1  6  0  0  0
 24 25  1  6  0  0  0
 24 27  1  0  0  0  0
 25 26  1  0  0  0  0
 27 30  1  0  0  0  0
 28 29  1  0  0  0  0
 30 28  1  0  0  0  0
 30 29  1  0  0  0  0
 31 30  1  0  0  0  0
 31 32  2  0  0  0  0
M  END
>  <MODEL>
1

>  <REMARK>
 VINA RESULT:      -6.8      0.000      0.000
  Name = 
  13 active torsions:
  status: ('A' for Active; 'I' for Inactive)
    1  A    between atoms: C_1  and  C_5
    2  A    between atoms: C_1  and  C_27
    3  A    between atoms: C_2  and  C_5
    4  A    between atoms: C_2  and  C_28
    5  A    between atoms: C_5  and  C_14
    6  A    between atoms: C_6  and  C_29
    7  A    between atoms: O_10  and  C_12
    8  A    between atoms: O_10  and  C_32
    9  A    between atoms: C_14  and  C_18
   10  A    between atoms: C_14  and  C_21
   11  A    between atoms: C_15  and  N_16
   12  A    between atoms: C_18  and  C_29
   13  A    between atoms: C_28  and  C_32
                            x       y       z     vdW  Elec       q    Type
                         _______ _______ _______ _____ _____    ______ ____

>  <TORSDO>
F 13

$$$$
=
 OpenBabel10262421053D

 32 34  0  0  1  0  0  0  0  0999 V2000
  188.8150  177.9650  143.4390 C   0  0  2  0  0  3  0  0  0  0  0  0
  187.5720  177.0690  143.2860 C   0  0  1  0  0  3  0  0  0  0  0  0
  187.9230  175.6140  143.5390 C   0  0  0  0  0  1  0  0  0  0  0  0
  184.3980  179.1950  145.6420 C   0  0  0  0  0  1  0  0  0  0  0  0
  185.2180  178.0600  143.4890 N   0  0  0  0  0  0  0  0  0  0  0  0
  184.1630  178.6810  144.2610 C   0  0  0  0  0  0  0  0  0  0  0  0
  183.0160  178.8350  143.7600 O   0  0  0  0  0  0  0  0  0  0  0  0
  186.4040  177.2790  145.3620 O   0  0  0  0  0  0  0  0  0  0  0  0
  186.3840  177.4860  144.1170 C   0  0  0  0  0  0  0  0  0  0  0  0
  185.7760  179.3910  141.1610 S   0  0  0  0  0  0  0  0  0  0  0  0
  184.6050  179.1840  139.7860 C   0  0  0  0  0  2  0  0  0  0  0  0
  185.0930  177.9380  142.0320 C   0  0  2  0  0  3  0  0  0  0  0  0
  182.4890  178.1550  139.6110 O   0  0  0  0  0  0  0  0  0  0  0  0
  183.6550  177.6960  141.6080 C   0  0  0  0  0  2  0  0  0  0  0  0
  183.4960  178.3250  140.2740 C   0  0  0  0  0  0  0  0  0  0  0  0
  189.4430  178.3850  142.1140 C   0  0  0  0  0  2  0  0  0  0  0  0
  188.9710  177.4750  140.9920 C   0  0  0  0  0  2  0  0  0  0  0  0
  190.1340  177.1220  140.0800 C   0  0  0  0  0  2  0  0  0  0  0  0
  190.1470  177.9700  138.9700 O   0  0  0  0  0  0  0  0  0  0  0  0
  189.0820  176.9910  137.0870 C   0  0  0  0  0  2  0  0  0  0  0  0
  187.4500  178.7940  136.6480 C   0  0  0  0  0  1  0  0  0  0  0  0
  188.9020  177.7820  138.3660 C   0  0  2  0  0  3  0  0  0  0  0  0
  188.8860  178.4910  137.0230 C   0  0  1  0  0  3  0  0  0  0  0  0
  189.8550  177.4690  144.4580 C   0  0  1  0  0  3  0  0  0  0  0  0
  191.2260  177.2720  143.8210 C   0  0  0  0  0  2  0  0  0  0  0  0
  191.5050  175.9180  143.6280 O   0  0  0  0  0  1  0  0  0  0  0  0
  189.9470  178.2940  145.7410 C   0  0  0  0  0  2  0  0  0  0  0  0
  189.2320  177.8460  148.1960 C   0  0  0  0  0  2  0  0  0  0  0  0
  188.6880  176.7570  147.2800 C   0  0  0  0  0  2  0  0  0  0  0  0
  190.0180  177.4110  146.9760 C   0  0  0  0  0  0  0  0  0  0  0  0
  191.1770  176.4780  147.1620 C   0  0  0  0  0  3  0  0  0  0  0  0
  192.1190  176.7650  147.8860 O   0  0  0  0  0  0  0  0  0  0  0  0
  1 16  1  6  0  0  0
  1 24  1  0  0  0  0
  2  1  1  0  0  0  0
  2  3  1  1  0  0  0
  2  9  1  0  0  0  0
  5  9  1  0  0  0  0
  5  6  1  0  0  0  0
  6  4  1  0  0  0  0
  7  6  2  0  0  0  0
  9  8  2  0  0  0  0
 10 12  1  0  0  0  0
 11 15  1  0  0  0  0
 11 10  1  0  0  0  0
 12  5  1  1  0  0  0
 13 15  2  0  0  0  0
 14 12  1  0  0  0  0
 15 14  1  0  0  0  0
 17 16  1  0  0  0  0
 18 17  1  0  0  0  0
 19 18  1  0  0  0  0
 20 22  1  0  0  0  0
 22 19  1  1  0  0  0
 23 21  1  6  0  0  0
 23 20  1  0  0  0  0
 23 22  1  0  0  0  0
 24 25  1  6  0  0  0
 24 27  1  0  0  0  0
 26 25  1  0  0  0  0
 27 30  1  0  0  0  0
 29 28  1  0  0  0  0
 30 31  1  0  0  0  0
 30 29  1  0  0  0  0
 30 28  1  0  0  0  0
 31 32  2  0  0  0  0
M  END
>  <MODEL>
2

>  <REMARK>
 VINA RESULT:      -6.7      2.229      4.536
  Name = 
  13 active torsions:
  status: ('A' for Active; 'I' for Inactive)
    1  A    between atoms: C_1  and  C_5
    2  A    between atoms: C_1  and  C_27
    3  A    between atoms: C_2  and  C_5
    4  A    between atoms: C_2  and  C_28
    5  A    between atoms: C_5  and  C_14
    6  A    between atoms: C_6  and  C_29
    7  A    between atoms: O_10  and  C_12
    8  A    between atoms: O_10  and  C_32
    9  A    between atoms: C_14  and  C_18
   10  A    between atoms: C_14  and  C_21
   11  A    between atoms: C_15  and  N_16
   12  A    between atoms: C_18  and  C_29
   13  A    between atoms: C_28  and  C_32
                            x       y       z     vdW  Elec       q    Type
                         _______ _______ _______ _____ _____    ______ ____

>  <TORSDO>
F 13

$$$$
=
 OpenBabel10262421053D

 32 34  0  0  1  0  0  0  0  0999 V2000
  186.2310  178.3510  143.4840 C   0  0  2  0  0  3  0  0  0  0  0  0
  184.8960  178.5460  142.7400 C   0  0  1  0  0  3  0  0  0  0  0  0
  184.0470  179.6000  143.4260 C   0  0  0  0  0  1  0  0  0  0  0  0
  185.6390  178.5230  138.3140 C   0  0  0  0  0  1  0  0  0  0  0  0
  184.0590  178.3280  140.3280 N   0  0  0  0  0  0  0  0  0  0  0  0
  184.2730  178.3890  138.8980 C   0  0  0  0  0  0  0  0  0  0  0  0
  183.2980  178.2920  138.1060 O   0  0  0  0  0  0  0  0  0  0  0  0
  185.9710  179.5810  140.8720 O   0  0  0  0  0  0  0  0  0  0  0  0
  185.0290  178.8400  141.2670 C   0  0  0  0  0  0  0  0  0  0  0  0
  182.2440  176.3080  139.9650 S   0  0  0  0  0  0  0  0  0  0  0  0
  180.5000  176.6900  140.3020 C   0  0  0  0  0  2  0  0  0  0  0  0
  182.8010  177.7960  140.8650 C   0  0  2  0  0  3  0  0  0  0  0  0
  179.3520  178.6920  140.7960 O   0  0  0  0  0  0  0  0  0  0  0  0
  181.7040  178.8480  140.8750 C   0  0  0  0  0  2  0  0  0  0  0  0
  180.4240  178.1250  140.6740 C   0  0  0  0  0  0  0  0  0  0  0  0
  187.1240  177.2720  142.8830 C   0  0  0  0  0  2  0  0  0  0  0  0
  188.3800  177.8920  142.2920 C   0  0  0  0  0  2  0  0  0  0  0  0
  189.2770  176.8090  141.7160 C   0  0  0  0  0  2  0  0  0  0  0  0
  190.0650  177.3360  140.6890 O   0  0  0  0  0  0  0  0  0  0  0  0
  188.9350  176.7580  138.6820 C   0  0  0  0  0  2  0  0  0  0  0  0
  189.0880  178.9570  137.5660 C   0  0  0  0  0  1  0  0  0  0  0  0
  189.1490  177.8120  139.7490 C   0  0  2  0  0  3  0  0  0  0  0  0
  189.8380  177.9410  138.4020 C   0  0  1  0  0  3  0  0  0  0  0  0
  186.1130  178.2400  145.0140 C   0  0  1  0  0  3  0  0  0  0  0  0
  184.6590  178.1850  145.4690 C   0  0  0  0  0  2  0  0  0  0  0  0
  184.5220  178.6410  146.7820 O   0  0  0  0  0  1  0  0  0  0  0  0
  186.9400  177.1210  145.6470 C   0  0  0  0  0  2  0  0  0  0  0  0
  187.7440  178.3730  147.7740 C   0  0  0  0  0  2  0  0  0  0  0  0
  188.2390  176.9330  147.7900 C   0  0  0  0  0  2  0  0  0  0  0  0
  188.0890  177.6690  146.4780 C   0  0  0  0  0  0  0  0  0  0  0  0
  189.4070  177.9650  145.8260 C   0  0  0  0  0  3  0  0  0  0  0  0
  190.0550  177.0910  145.2700 O   0  0  0  0  0  0  0  0  0  0  0  0
  1 16  1  6  0  0  0
  1 24  1  0  0  0  0
  2  3  1  1  0  0  0
  2  1  1  0  0  0  0
  4  6  1  0  0  0  0
  5  9  1  0  0  0  0
  6  5  1  0  0  0  0
  7  6  2  0  0  0  0
  8  9  2  0  0  0  0
  9  2  1  0  0  0  0
 10 11  1  0  0  0  0
 10 12  1  0  0  0  0
 11 15  1  0  0  0  0
 12  5  1  6  0  0  0
 12 14  1  0  0  0  0
 15 13  2  0  0  0  0
 15 14  1  0  0  0  0
 17 16  1  0  0  0  0
 18 17  1  0  0  0  0
 19 18  1  0  0  0  0
 20 22  1  0  0  0  0
 22 19  1  1  0  0  0
 23 21  1  6  0  0  0
 23 20  1  0  0  0  0
 23 22  1  0  0  0  0
 24 25  1  6  0  0  0
 24 27  1  0  0  0  0
 25 26  1  0  0  0  0
 27 30  1  0  0  0  0
 28 29  1  0  0  0  0
 30 28  1  0  0  0  0
 30 29  1  0  0  0  0
 31 30  1  0  0  0  0
 32 31  2  0  0  0  0
M  END
>  <MODEL>
3

>  <REMARK>
 VINA RESULT:      -6.7      1.439      2.056
  Name = 
  13 active torsions:
  status: ('A' for Active; 'I' for Inactive)
    1  A    between atoms: C_1  and  C_5
    2  A    between atoms: C_1  and  C_27
    3  A    between atoms: C_2  and  C_5
    4  A    between atoms: C_2  and  C_28
    5  A    between atoms: C_5  and  C_14
    6  A    between atoms: C_6  and  C_29
    7  A    between atoms: O_10  and  C_12
    8  A    between atoms: O_10  and  C_32
    9  A    between atoms: C_14  and  C_18
   10  A    between atoms: C_14  and  C_21
   11  A    between atoms: C_15  and  N_16
   12  A    between atoms: C_18  and  C_29
   13  A    between atoms: C_28  and  C_32
                            x       y       z     vdW  Elec       q    Type
                         _______ _______ _______ _____ _____    ______ ____

>  <TORSDO>
F 13

$$$$
=
 OpenBabel10262421053D

 32 34  0  0  1  0  0  0  0  0999 V2000
  188.8200  177.9590  143.4260 C   0  0  2  0  0  3  0  0  0  0  0  0
  187.5760  177.0600  143.2950 C   0  0  1  0  0  3  0  0  0  0  0  0
  187.9330  175.6070  143.5500 C   0  0  0  0  0  1  0  0  0  0  0  0
  184.4350  179.1930  145.6880 C   0  0  0  0  0  1  0  0  0  0  0  0
  185.2280  178.0600  143.5250 N   0  0  0  0  0  0  0  0  0  0  0  0
  184.1830  178.6830  144.3090 C   0  0  0  0  0  0  0  0  0  0  0  0
  183.0320  178.8430  143.8210 O   0  0  0  0  0  0  0  0  0  0  0  0
  186.4310  177.2710  145.3830 O   0  0  0  0  0  0  0  0  0  0  0  0
  186.3990  177.4800  144.1390 C   0  0  0  0  0  0  0  0  0  0  0  0
  185.8030  179.3740  141.1910 S   0  0  0  0  0  0  0  0  0  0  0  0
  184.6150  179.2000  139.8270 C   0  0  0  0  0  2  0  0  0  0  0  0
  185.0880  177.9410  142.0690 C   0  0  2  0  0  3  0  0  0  0  0  0
  182.4690  178.2310  139.6700 O   0  0  0  0  0  0  0  0  0  0  0  0
  183.6390  177.7400  141.6570 C   0  0  0  0  0  2  0  0  0  0  0  0
  183.4870  178.3730  140.3250 C   0  0  0  0  0  0  0  0  0  0  0  0
  189.4810  178.3020  142.0960 C   0  0  0  0  0  2  0  0  0  0  0  0
  188.9350  177.4140  140.9880 C   0  0  0  0  0  2  0  0  0  0  0  0
  189.5090  177.8380  139.6470 C   0  0  0  0  0  2  0  0  0  0  0  0
  189.4080  176.7890  138.7300 O   0  0  0  0  0  0  0  0  0  0  0  0
  190.8140  176.5330  136.8330 C   0  0  0  0  0  2  0  0  0  0  0  0
  192.1680  174.6440  137.6710 C   0  0  0  0  0  1  0  0  0  0  0  0
  190.7240  176.5260  138.3450 C   0  0  2  0  0  3  0  0  0  0  0  0
  190.7690  175.2160  137.5790 C   0  0  1  0  0  3  0  0  0  0  0  0
  189.8330  177.5170  144.4960 C   0  0  1  0  0  3  0  0  0  0  0  0
  191.2430  177.3980  143.9290 C   0  0  0  0  0  2  0  0  0  0  0  0
  191.5930  176.0630  143.7190 O   0  0  0  0  0  1  0  0  0  0  0  0
  189.8150  178.3420  145.7830 C   0  0  0  0  0  2  0  0  0  0  0  0
  189.1580  177.9170  148.2590 C   0  0  0  0  0  2  0  0  0  0  0  0
  188.5630  176.8390  147.3630 C   0  0  0  0  0  2  0  0  0  0  0  0
  189.8990  177.4600  147.0190 C   0  0  0  0  0  0  0  0  0  0  0  0
  191.0400  176.5000  147.1750 C   0  0  0  0  0  3  0  0  0  0  0  0
  192.0510  176.8040  147.7910 O   0  0  0  0  0  0  0  0  0  0  0  0
  1 16  1  6  0  0  0
  1 24  1  0  0  0  0
  2  1  1  0  0  0  0
  2  3  1  1  0  0  0
  2  9  1  0  0  0  0
  5  9  1  0  0  0  0
  5  6  1  0  0  0  0
  6  4  1  0  0  0  0
  7  6  2  0  0  0  0
  9  8  2  0  0  0  0
 10 12  1  0  0  0  0
 11 15  1  0  0  0  0
 11 10  1  0  0  0  0
 12  5  1  1  0  0  0
 13 15  2  0  0  0  0
 14 12  1  0  0  0  0
 15 14  1  0  0  0  0
 17 16  1  0  0  0  0
 18 17  1  0  0  0  0
 19 18  1  0  0  0  0
 20 23  1  0  0  0  0
 20 22  1  0  0  0  0
 22 19  1  6  0  0  0
 23 21  1  1  0  0  0
 23 22  1  0  0  0  0
 24 25  1  6  0  0  0
 24 27  1  0  0  0  0
 26 25  1  0  0  0  0
 27 30  1  0  0  0  0
 29 28  1  0  0  0  0
 30 31  1  0  0  0  0
 30 29  1  0  0  0  0
 30 28  1  0  0  0  0
 31 32  2  0  0  0  0
M  END
>  <MODEL>
4

>  <REMARK>
 VINA RESULT:      -6.4      2.685      4.479
  Name = 
  13 active torsions:
  status: ('A' for Active; 'I' for Inactive)
    1  A    between atoms: C_1  and  C_5
    2  A    between atoms: C_1  and  C_27
    3  A    between atoms: C_2  and  C_5
    4  A    between atoms: C_2  and  C_28
    5  A    between atoms: C_5  and  C_14
    6  A    between atoms: C_6  and  C_29
    7  A    between atoms: O_10  and  C_12
    8  A    between atoms: O_10  and  C_32
    9  A    between atoms: C_14  and  C_18
   10  A    between atoms: C_14  and  C_21
   11  A    between atoms: C_15  and  N_16
   12  A    between atoms: C_18  and  C_29
   13  A    between atoms: C_28  and  C_32
                            x       y       z     vdW  Elec       q    Type
                         _______ _______ _______ _____ _____    ______ ____

>  <TORSDO>
F 13

$$$$
=
 OpenBabel10262421053D

 32 34  0  0  1  0  0  0  0  0999 V2000
  186.1910  178.6360  143.5920 C   0  0  2  0  0  3  0  0  0  0  0  0
  186.3540  177.4780  144.5950 C   0  0  1  0  0  3  0  0  0  0  0  0
  187.1830  176.3590  143.9930 C   0  0  0  0  0  1  0  0  0  0  0  0
  187.9180  177.7300  148.7940 C   0  0  0  0  0  1  0  0  0  0  0  0
  188.2930  177.7060  146.2540 N   0  0  0  0  0  0  0  0  0  0  0  0
  188.8020  177.8600  147.6010 C   0  0  0  0  0  0  0  0  0  0  0  0
  190.0290  178.0740  147.7940 O   0  0  0  0  0  0  0  0  0  0  0  0
  186.1160  178.4170  146.7810 O   0  0  0  0  0  0  0  0  0  0  0  0
  186.8940  177.8800  145.9450 C   0  0  0  0  0  0  0  0  0  0  0  0
  190.4930  176.2130  145.5970 S   0  0  0  0  0  0  0  0  0  0  0  0
  191.6850  176.9550  144.4430 C   0  0  0  0  0  2  0  0  0  0  0  0
  189.2120  177.4320  145.1430 C   0  0  2  0  0  3  0  0  0  0  0  0
  191.8940  179.1100  143.5040 O   0  0  0  0  0  0  0  0  0  0  0  0
  189.8560  178.7050  144.6180 C   0  0  0  0  0  2  0  0  0  0  0  0
  191.2030  178.3240  144.1290 C   0  0  0  0  0  0  0  0  0  0  0  0
  184.9060  179.4370  143.7730 C   0  0  0  0  0  2  0  0  0  0  0  0
  183.8260  178.5720  144.4030 C   0  0  0  0  0  2  0  0  0  0  0  0
  182.4510  179.1100  144.0470 C   0  0  0  0  0  2  0  0  0  0  0  0
  182.1780  178.8750  142.6970 O   0  0  0  0  0  0  0  0  0  0  0  0
  180.0580  178.3310  141.7770 C   0  0  0  0  0  2  0  0  0  0  0  0
  179.5340  180.5430  140.8090 C   0  0  0  0  0  1  0  0  0  0  0  0
  180.8870  179.3700  142.5040 C   0  0  2  0  0  3  0  0  0  0  0  0
  180.6230  179.5110  141.0160 C   0  0  1  0  0  3  0  0  0  0  0  0
  186.4590  178.2680  142.1230 C   0  0  1  0  0  3  0  0  0  0  0  0
  185.2240  178.4680  141.2520 C   0  0  0  0  0  2  0  0  0  0  0  0
  185.3600  179.5900  140.4320 O   0  0  0  0  0  1  0  0  0  0  0  0
  187.6920  178.9280  141.5070 C   0  0  0  0  0  2  0  0  0  0  0  0
  187.9940  177.6320  139.2770 C   0  0  0  0  0  2  0  0  0  0  0  0
  189.1390  178.6170  139.4740 C   0  0  0  0  0  2  0  0  0  0  0  0
  188.4980  177.9470  140.6700 C   0  0  0  0  0  0  0  0  0  0  0  0
  189.4130  176.9680  141.3430 C   0  0  0  0  0  3  0  0  0  0  0  0
  190.2970  176.3910  140.7260 O   0  0  0  0  0  0  0  0  0  0  0  0
  1 16  1  6  0  0  0
  1  2  1  0  0  0  0
  2  3  1  6  0  0  0
  2  9  1  0  0  0  0
  5  6  1  0  0  0  0
  6  7  2  0  0  0  0
  6  4  1  0  0  0  0
  9  5  1  0  0  0  0
  9  8  2  0  0  0  0
 11 10  1  0  0  0  0
 12 10  1  0  0  0  0
 12  5  1  1  0  0  0
 13 15  2  0  0  0  0
 14 12  1  0  0  0  0
 15 11  1  0  0  0  0
 15 14  1  0  0  0  0
 16 17  1  0  0  0  0
 18 17  1  0  0  0  0
 19 18  1  0  0  0  0
 20 22  1  0  0  0  0
 22 19  1  6  0  0  0
 23 21  1  1  0  0  0
 23 20  1  0  0  0  0
 23 22  1  0  0  0  0
 24 25  1  6  0  0  0
 24  1  1  0  0  0  0
 26 25  1  0  0  0  0
 27 24  1  0  0  0  0
 28 29  1  0  0  0  0
 28 30  1  0  0  0  0
 29 30  1  0  0  0  0
 30 31  1  0  0  0  0
 30 27  1  0  0  0  0
 32 31  2  0  0  0  0
M  END
>  <MODEL>
5

>  <REMARK>
 VINA RESULT:      -6.2      2.739      8.199
  Name = 
  13 active torsions:
  status: ('A' for Active; 'I' for Inactive)
    1  A    between atoms: C_1  and  C_5
    2  A    between atoms: C_1  and  C_27
    3  A    between atoms: C_2  and  C_5
    4  A    between atoms: C_2  and  C_28
    5  A    between atoms: C_5  and  C_14
    6  A    between atoms: C_6  and  C_29
    7  A    between atoms: O_10  and  C_12
    8  A    between atoms: O_10  and  C_32
    9  A    between atoms: C_14  and  C_18
   10  A    between atoms: C_14  and  C_21
   11  A    between atoms: C_15  and  N_16
   12  A    between atoms: C_18  and  C_29
   13  A    between atoms: C_28  and  C_32
                            x       y       z     vdW  Elec       q    Type
                         _______ _______ _______ _____ _____    ______ ____

>  <TORSDO>
F 13

$$$$
=
 OpenBabel10262421053D

 32 34  0  0  1  0  0  0  0  0999 V2000
  186.3690  177.7800  142.3770 C   0  0  2  0  0  3  0  0  0  0  0  0
  186.7030  178.9010  141.3750 C   0  0  1  0  0  3  0  0  0  0  0  0
  187.9480  179.6540  141.8070 C   0  0  0  0  0  1  0  0  0  0  0  0
  186.8240  176.7060  137.4620 C   0  0  0  0  0  1  0  0  0  0  0  0
  185.6320  178.2360  139.1440 N   0  0  0  0  0  0  0  0  0  0  0  0
  185.6880  177.5910  137.8500 C   0  0  0  0  0  0  0  0  0  0  0  0
  184.7460  177.7390  137.0260 O   0  0  0  0  0  0  0  0  0  0  0  0
  187.9630  178.3220  139.4270 O   0  0  0  0  0  0  0  0  0  0  0  0
  186.8180  178.4540  139.9390 C   0  0  0  0  0  0  0  0  0  0  0  0
  183.0580  177.4700  139.6850 S   0  0  0  0  0  0  0  0  0  0  0  0
  181.7540  178.7110  139.4340 C   0  0  0  0  0  2  0  0  0  0  0  0
  184.3580  178.7530  139.6580 C   0  0  2  0  0  3  0  0  0  0  0  0
  181.7440  180.8740  138.4910 O   0  0  0  0  0  0  0  0  0  0  0  0
  183.8860  179.9670  138.8760 C   0  0  0  0  0  2  0  0  0  0  0  0
  182.4030  179.9350  138.9020 C   0  0  0  0  0  0  0  0  0  0  0  0
  184.9780  177.8930  142.9920 C   0  0  0  0  0  2  0  0  0  0  0  0
  184.5930  179.3540  143.1670 C   0  0  0  0  0  2  0  0  0  0  0  0
  183.3420  179.4660  144.0220 C   0  0  0  0  0  2  0  0  0  0  0  0
  182.4030  178.5110  143.6240 O   0  0  0  0  0  0  0  0  0  0  0  0
  180.0990  178.5020  144.2000 C   0  0  0  0  0  2  0  0  0  0  0  0
  179.2090  179.2960  142.0360 C   0  0  0  0  0  1  0  0  0  0  0  0
  181.2130  179.2250  143.4710 C   0  0  2  0  0  3  0  0  0  0  0  0
  180.2190  178.3800  142.6950 C   0  0  1  0  0  3  0  0  0  0  0  0
  187.4600  177.4940  143.4230 C   0  0  1  0  0  3  0  0  0  0  0  0
  186.8680  177.2220  144.8010 C   0  0  0  0  0  2  0  0  0  0  0  0
  187.2100  178.2290  145.7060 O   0  0  0  0  0  1  0  0  0  0  0  0
  188.4700  176.4190  143.0250 C   0  0  0  0  0  2  0  0  0  0  0  0
  190.2820  177.9770  144.0410 C   0  0  0  0  0  2  0  0  0  0  0  0
  190.7000  176.5190  144.1810 C   0  0  0  0  0  2  0  0  0  0  0  0
  189.8890  176.9640  142.9850 C   0  0  0  0  0  0  0  0  0  0  0  0
  190.6710  176.9180  141.7060 C   0  0  0  0  0  3  0  0  0  0  0  0
  190.2660  176.3000  140.7310 O   0  0  0  0  0  0  0  0  0  0  0  0
  1 16  1  1  0  0  0
  1 24  1  0  0  0  0
  2  3  1  1  0  0  0
  2  1  1  0  0  0  0
  4  6  1  0  0  0  0
  5  9  1  0  0  0  0
  6  5  1  0  0  0  0
  7  6  2  0  0  0  0
  8  9  2  0  0  0  0
  9  2  1  0  0  0  0
 11 10  1  0  0  0  0
 12  5  1  6  0  0  0
 12 10  1  0  0  0  0
 13 15  2  0  0  0  0
 14 15  1  0  0  0  0
 14 12  1  0  0  0  0
 15 11  1  0  0  0  0
 16 17  1  0  0  0  0
 17 18  1  0  0  0  0
 19 18  1  0  0  0  0
 22 19  1  1  0  0  0
 22 20  1  0  0  0  0
 23 21  1  6  0  0  0
 23 22  1  0  0  0  0
 23 20  1  0  0  0  0
 24 27  1  6  0  0  0
 24 25  1  0  0  0  0
 25 26  1  0  0  0  0
 28 29  1  0  0  0  0
 30 27  1  0  0  0  0
 30 28  1  0  0  0  0
 30 29  1  0  0  0  0
 31 30  1  0  0  0  0
 32 31  2  0  0  0  0
M  END
>  <MODEL>
6

>  <REMARK>
 VINA RESULT:      -6.1      2.054      5.353
  Name = 
  13 active torsions:
  status: ('A' for Active; 'I' for Inactive)
    1  A    between atoms: C_1  and  C_5
    2  A    between atoms: C_1  and  C_27
    3  A    between atoms: C_2  and  C_5
    4  A    between atoms: C_2  and  C_28
    5  A    between atoms: C_5  and  C_14
    6  A    between atoms: C_6  and  C_29
    7  A    between atoms: O_10  and  C_12
    8  A    between atoms: O_10  and  C_32
    9  A    between atoms: C_14  and  C_18
   10  A    between atoms: C_14  and  C_21
   11  A    between atoms: C_15  and  N_16
   12  A    between atoms: C_18  and  C_29
   13  A    between atoms: C_28  and  C_32
                            x       y       z     vdW  Elec       q    Type
                         _______ _______ _______ _____ _____    ______ ____

>  <TORSDO>
F 13

$$$$
=
 OpenBabel10262421053D

 32 34  0  0  1  0  0  0  0  0999 V2000
  189.0620  176.6240  138.6910 C   0  0  2  0  0  3  0  0  0  0  0  0
  189.1220  178.0320  139.3130 C   0  0  1  0  0  3  0  0  0  0  0  0
  189.0600  179.0990  138.2360 C   0  0  0  0  0  1  0  0  0  0  0  0
  185.8710  177.8780  142.4030 C   0  0  0  0  0  1  0  0  0  0  0  0
  188.3550  177.9080  141.7550 N   0  0  0  0  0  0  0  0  0  0  0  0
  187.3170  177.9290  142.7630 C   0  0  0  0  0  0  0  0  0  0  0  0
  187.6220  177.9550  143.9860 O   0  0  0  0  0  0  0  0  0  0  0  0
  187.0330  178.9020  140.0860 O   0  0  0  0  0  0  0  0  0  0  0  0
  188.0970  178.2950  140.3880 C   0  0  0  0  0  0  0  0  0  0  0  0
  189.8360  175.8830  142.8560 S   0  0  0  0  0  0  0  0  0  0  0  0
  191.2750  176.3600  143.8600 C   0  0  0  0  0  2  0  0  0  0  0  0
  189.7310  177.5510  142.1180 C   0  0  2  0  0  3  0  0  0  0  0  0
  192.0710  178.4340  144.6560 O   0  0  0  0  0  0  0  0  0  0  0  0
  190.3540  178.5800  143.0470 C   0  0  0  0  0  2  0  0  0  0  0  0
  191.3040  177.8430  143.9150 C   0  0  0  0  0  0  0  0  0  0  0  0
  190.3700  175.8470  138.7880 C   0  0  0  0  0  2  0  0  0  0  0  0
  191.5110  176.7750  139.1740 C   0  0  0  0  0  2  0  0  0  0  0  0
  192.5890  176.7530  138.1040 C   0  0  0  0  0  2  0  0  0  0  0  0
  192.7300  175.4600  137.5930 O   0  0  0  0  0  0  0  0  0  0  0  0
  194.8650  174.8720  136.7370 C   0  0  0  0  0  2  0  0  0  0  0  0
  195.3580  173.0250  138.3010 C   0  0  0  0  0  1  0  0  0  0  0  0
  194.0140  175.0660  137.9750 C   0  0  2  0  0  3  0  0  0  0  0  0
  194.2850  173.6680  137.4480 C   0  0  1  0  0  3  0  0  0  0  0  0
  188.4340  176.5590  137.2880 C   0  0  1  0  0  3  0  0  0  0  0  0
  189.4410  176.1060  136.2360 C   0  0  0  0  0  2  0  0  0  0  0  0
  188.8670  175.1980  135.3450 O   0  0  0  0  0  1  0  0  0  0  0  0
  187.1340  175.7600  137.1990 C   0  0  0  0  0  2  0  0  0  0  0  0
  184.7490  176.7620  137.4140 C   0  0  0  0  0  2  0  0  0  0  0  0
  185.7850  177.8760  137.3430 C   0  0  0  0  0  2  0  0  0  0  0  0
  186.0080  176.5820  136.5920 C   0  0  0  0  0  0  0  0  0  0  0  0
  185.9280  176.7550  135.1050 C   0  0  0  0  0  3  0  0  0  0  0  0
  185.7390  177.8520  134.5980 O   0  0  0  0  0  0  0  0  0  0  0  0
  1 16  1  6  0  0  0
  1  2  1  0  0  0  0
  2  3  1  6  0  0  0
  2  9  1  0  0  0  0
  4  6  1  0  0  0  0
  5  6  1  0  0  0  0
  6  7  2  0  0  0  0
  8  9  2  0  0  0  0
  9  5  1  0  0  0  0
 10 11  1  0  0  0  0
 11 15  1  0  0  0  0
 12  5  1  1  0  0  0
 12 10  1  0  0  0  0
 12 14  1  0  0  0  0
 14 15  1  0  0  0  0
 15 13  2  0  0  0  0
 16 17  1  0  0  0  0
 18 17  1  0  0  0  0
 19 18  1  0  0  0  0
 20 23  1  0  0  0  0
 20 22  1  0  0  0  0
 22 19  1  6  0  0  0
 23 22  1  0  0  0  0
 23 21  1  1  0  0  0
 24 25  1  6  0  0  0
 24  1  1  0  0  0  0
 26 25  1  0  0  0  0
 27 24  1  0  0  0  0
 29 28  1  0  0  0  0
 30 27  1  0  0  0  0
 30 29  1  0  0  0  0
 30 28  1  0  0  0  0
 31 30  1  0  0  0  0
 32 31  2  0  0  0  0
M  END
>  <MODEL>
7

>  <REMARK>
 VINA RESULT:      -6.0      4.122      8.538
  Name = 
  13 active torsions:
  status: ('A' for Active; 'I' for Inactive)
    1  A    between atoms: C_1  and  C_5
    2  A    between atoms: C_1  and  C_27
    3  A    between atoms: C_2  and  C_5
    4  A    between atoms: C_2  and  C_28
    5  A    between atoms: C_5  and  C_14
    6  A    between atoms: C_6  and  C_29
    7  A    between atoms: O_10  and  C_12
    8  A    between atoms: O_10  and  C_32
    9  A    between atoms: C_14  and  C_18
   10  A    between atoms: C_14  and  C_21
   11  A    between atoms: C_15  and  N_16
   12  A    between atoms: C_18  and  C_29
   13  A    between atoms: C_28  and  C_32
                            x       y       z     vdW  Elec       q    Type
                         _______ _______ _______ _____ _____    ______ ____

>  <TORSDO>
F 13

$$$$
=
 OpenBabel10262421053D

 32 34  0  0  1  0  0  0  0  0999 V2000
  190.0530  177.1410  139.2360 C   0  0  2  0  0  3  0  0  0  0  0  0
  189.2130  178.2530  138.5790 C   0  0  1  0  0  3  0  0  0  0  0  0
  189.4960  178.3310  137.0900 C   0  0  0  0  0  1  0  0  0  0  0  0
  184.7520  178.7220  138.7270 C   0  0  0  0  0  1  0  0  0  0  0  0
  186.8580  177.5120  137.8940 N   0  0  0  0  0  0  0  0  0  0  0  0
  185.4170  177.6090  137.9910 C   0  0  0  0  0  0  0  0  0  0  0  0
  184.6840  176.7610  137.4140 O   0  0  0  0  0  0  0  0  0  0  0  0
  187.2700  178.6290  139.9200 O   0  0  0  0  0  0  0  0  0  0  0  0
  187.7300  178.1660  138.8400 C   0  0  0  0  0  0  0  0  0  0  0  0
  186.7240  176.9580  135.2150 S   0  0  0  0  0  0  0  0  0  0  0  0
  187.0780  175.2500  134.7020 C   0  0  0  0  0  2  0  0  0  0  0  0
  187.4750  176.6780  136.8560 C   0  0  2  0  0  3  0  0  0  0  0  0
  187.4280  173.2460  135.8990 O   0  0  0  0  0  0  0  0  0  0  0  0
  187.4250  175.2030  137.2150 C   0  0  0  0  0  2  0  0  0  0  0  0
  187.3250  174.4600  135.9350 C   0  0  0  0  0  0  0  0  0  0  0  0
  190.5710  177.4940  140.6250 C   0  0  0  0  0  2  0  0  0  0  0  0
  190.0750  176.4850  141.6480 C   0  0  0  0  0  2  0  0  0  0  0  0
  188.8690  177.0390  142.3880 C   0  0  0  0  0  2  0  0  0  0  0  0
  189.2870  177.7960  143.4860 O   0  0  0  0  0  0  0  0  0  0  0  0
  189.3730  177.3090  145.8080 C   0  0  0  0  0  2  0  0  0  0  0  0
  191.6780  176.4210  145.8800 C   0  0  0  0  0  1  0  0  0  0  0  0
  189.7460  176.8570  144.4110 C   0  0  2  0  0  3  0  0  0  0  0  0
  190.7880  177.5040  145.3060 C   0  0  1  0  0  3  0  0  0  0  0  0
  191.1380  176.5260  138.3350 C   0  0  1  0  0  3  0  0  0  0  0  0
  192.5380  176.7560  138.8950 C   0  0  0  0  0  2  0  0  0  0  0  0
  193.4560  177.0050  137.8730 O   0  0  0  0  0  1  0  0  0  0  0  0
  190.9170  175.0590  137.9660 C   0  0  0  0  0  2  0  0  0  0  0  0
  192.4360  173.6330  136.4180 C   0  0  0  0  0  2  0  0  0  0  0  0
  190.9690  173.3840  136.0930 C   0  0  0  0  0  2  0  0  0  0  0  0
  191.4220  174.7480  136.5660 C   0  0  0  0  0  0  0  0  0  0  0  0
  191.3360  175.7910  135.4920 C   0  0  0  0  0  3  0  0  0  0  0  0
  190.4010  175.8230  134.7060 O   0  0  0  0  0  0  0  0  0  0  0  0
  1 16  1  1  0  0  0
  2  3  1  6  0  0  0
  2  9  1  0  0  0  0
  2  1  1  0  0  0  0
  5  6  1  0  0  0  0
  5  9  1  0  0  0  0
  6  4  1  0  0  0  0
  7  6  2  0  0  0  0
  9  8  2  0  0  0  0
 10 12  1  0  0  0  0
 11 10  1  0  0  0  0
 11 15  1  0  0  0  0
 12 14  1  0  0  0  0
 12  5  1  1  0  0  0
 13 15  2  0  0  0  0
 15 14  1  0  0  0  0
 16 17  1  0  0  0  0
 17 18  1  0  0  0  0
 18 19  1  0  0  0  0
 22 19  1  6  0  0  0
 22 23  1  0  0  0  0
 22 20  1  0  0  0  0
 23 20  1  0  0  0  0
 23 21  1  1  0  0  0
 24 27  1  1  0  0  0
 24 25  1  0  0  0  0
 24  1  1  0  0  0  0
 26 25  1  0  0  0  0
 28 30  1  0  0  0  0
 29 28  1  0  0  0  0
 29 30  1  0  0  0  0
 30 27  1  0  0  0  0
 31 30  1  0  0  0  0
 32 31  2  0  0  0  0
M  END
>  <MODEL>
8

>  <REMARK>
 VINA RESULT:      -5.9      4.318      7.668
  Name = 
  13 active torsions:
  status: ('A' for Active; 'I' for Inactive)
    1  A    between atoms: C_1  and  C_5
    2  A    between atoms: C_1  and  C_27
    3  A    between atoms: C_2  and  C_5
    4  A    between atoms: C_2  and  C_28
    5  A    between atoms: C_5  and  C_14
    6  A    between atoms: C_6  and  C_29
    7  A    between atoms: O_10  and  C_12
    8  A    between atoms: O_10  and  C_32
    9  A    between atoms: C_14  and  C_18
   10  A    between atoms: C_14  and  C_21
   11  A    between atoms: C_15  and  N_16
   12  A    between atoms: C_18  and  C_29
   13  A    between atoms: C_28  and  C_32
                            x       y       z     vdW  Elec       q    Type
                         _______ _______ _______ _____ _____    ______ ____

>  <TORSDO>
F 13

$$$$
=
 OpenBabel10262421053D

 32 34  0  0  1  0  0  0  0  0999 V2000
  187.9650  177.4050  138.3670 C   0  0  2  0  0  3  0  0  0  0  0  0
  186.7800  177.8680  137.4990 C   0  0  1  0  0  3  0  0  0  0  0  0
  187.2720  178.4690  136.1950 C   0  0  0  0  0  1  0  0  0  0  0  0
  184.0000  174.3460  137.5490 C   0  0  0  0  0  1  0  0  0  0  0  0
  184.4850  176.8310  137.9710 N   0  0  0  0  0  0  0  0  0  0  0  0
  183.5590  175.7200  137.9250 C   0  0  0  0  0  0  0  0  0  0  0  0
  182.3510  175.8870  138.2420 O   0  0  0  0  0  0  0  0  0  0  0  0
  185.9370  175.9500  136.3470 O   0  0  0  0  0  0  0  0  0  0  0  0
  185.7310  176.8150  137.2420 C   0  0  0  0  0  0  0  0  0  0  0  0
  183.8000  177.7010  140.4770 S   0  0  0  0  0  0  0  0  0  0  0  0
  182.6410  179.0970  140.5820 C   0  0  0  0  0  2  0  0  0  0  0  0
  184.1430  178.0480  138.7170 C   0  0  2  0  0  3  0  0  0  0  0  0
  181.3530  180.2500  138.9760 O   0  0  0  0  0  0  0  0  0  0  0  0
  182.9730  178.7850  138.0860 C   0  0  0  0  0  2  0  0  0  0  0  0
  182.2480  179.4510  139.1950 C   0  0  0  0  0  0  0  0  0  0  0  0
  188.4240  178.4370  139.3910 C   0  0  0  0  0  2  0  0  0  0  0  0
  187.8240  178.1340  140.7550 C   0  0  0  0  0  2  0  0  0  0  0  0
  188.8490  177.4380  141.6340 C   0  0  0  0  0  2  0  0  0  0  0  0
  188.2060  176.7570  142.6720 O   0  0  0  0  0  0  0  0  0  0  0  0
  188.5380  177.4560  144.9160 C   0  0  0  0  0  2  0  0  0  0  0  0
  186.2300  178.2070  145.3800 C   0  0  0  0  0  1  0  0  0  0  0  0
  187.8660  177.7510  143.5920 C   0  0  2  0  0  3  0  0  0  0  0  0
  187.0720  177.1300  144.7270 C   0  0  1  0  0  3  0  0  0  0  0  0
  189.1350  176.7770  137.5910 C   0  0  1  0  0  3  0  0  0  0  0  0
  190.4760  177.0570  138.2600 C   0  0  0  0  0  2  0  0  0  0  0  0
  190.8490  176.0110  139.1050 O   0  0  0  0  0  1  0  0  0  0  0  0
  188.9710  175.2920  137.2660 C   0  0  0  0  0  2  0  0  0  0  0  0
  188.6940  174.8900  134.7160 C   0  0  0  0  0  2  0  0  0  0  0  0
  189.5830  176.1010  134.9660 C   0  0  0  0  0  2  0  0  0  0  0  0
  189.6010  174.9350  135.9290 C   0  0  0  0  0  0  0  0  0  0  0  0
  190.8920  174.1730  135.8910 C   0  0  0  0  0  3  0  0  0  0  0  0
  191.4110  173.7450  136.9120 O   0  0  0  0  0  0  0  0  0  0  0  0
  1 16  1  6  0  0  0
  2  3  1  6  0  0  0
  2  1  1  0  0  0  0
  4  6  1  0  0  0  0
  6  5  1  0  0  0  0
  6  7  2  0  0  0  0
  8  9  2  0  0  0  0
  9  2  1  0  0  0  0
  9  5  1  0  0  0  0
 10 11  1  0  0  0  0
 12  5  1  6  0  0  0
 12 10  1  0  0  0  0
 13 15  2  0  0  0  0
 14 12  1  0  0  0  0
 14 15  1  0  0  0  0
 15 11  1  0  0  0  0
 16 17  1  0  0  0  0
 17 18  1  0  0  0  0
 18 19  1  0  0  0  0
 22 19  1  6  0  0  0
 22 23  1  0  0  0  0
 22 20  1  0  0  0  0
 23 20  1  0  0  0  0
 23 21  1  1  0  0  0
 24 27  1  1  0  0  0
 24 25  1  0  0  0  0
 24  1  1  0  0  0  0
 25 26  1  0  0  0  0
 28 29  1  0  0  0  0
 28 30  1  0  0  0  0
 29 30  1  0  0  0  0
 30 27  1  0  0  0  0
 31 30  1  0  0  0  0
 31 32  2  0  0  0  0
M  END
>  <MODEL>
9

>  <REMARK>
 VINA RESULT:      -5.9      3.464      6.875
  Name = 
  13 active torsions:
  status: ('A' for Active; 'I' for Inactive)
    1  A    between atoms: C_1  and  C_5
    2  A    between atoms: C_1  and  C_27
    3  A    between atoms: C_2  and  C_5
    4  A    between atoms: C_2  and  C_28
    5  A    between atoms: C_5  and  C_14
    6  A    between atoms: C_6  and  C_29
    7  A    between atoms: O_10  and  C_12
    8  A    between atoms: O_10  and  C_32
    9  A    between atoms: C_14  and  C_18
   10  A    between atoms: C_14  and  C_21
   11  A    between atoms: C_15  and  N_16
   12  A    between atoms: C_18  and  C_29
   13  A    between atoms: C_28  and  C_32
                            x       y       z     vdW  Elec       q    Type
                         _______ _______ _______ _____ _____    ______ ____

>  <TORSDO>
F 13

$$$$
